data_PCOD9549894
_publ_section_title
;
Structure prediction by ZEFSAII (Michael W. Deem and Ramdas Pophale) SiO2 
 PCOD9549894
Probable space group: P 42 2 2
;
_chemical_formula_sum "Si O2"
_cell_formula_units_Z 36
_cell_length_a 10.598276
_cell_length_b 10.598276
_cell_length_c 12.216081
_cell_angle_alpha 90.000000
_cell_angle_beta 90.000000
_cell_angle_gamma 90.000000
_cell_volume 1372.152414
_symmetry_space_group_name_H-M "P 42 2 2"
_symmetry_group_IT_number 93
_symmetry_cell_setting 'tetragonal'
loop_
_space_group_symop_operation_xyz
x,y,z
-y,x,1/2+z
-x,-y,z
y,-x,1/2+z
x,-y,-z
-x,y,-z
y,x,1/2-z
-y,-x,1/2-z
loop_
_atom_site_type_symbol
_atom_site_label
_atom_site_fract_x
_atom_site_fract_y
_atom_site_fract_z
Si Si1 0.930193 0.231759 0.889225
Si Si2 0.850137 0.329795 0.523775
Si Si3 0.500000 0.500000 0.250000
Si Si4 0.000000 0.000000 0.250000
Si Si5 0.136116 0.534899 0.734210
Si Si6 0.406786 0.719451 0.399819
O O1 0.809441 0.152482 0.927266
O O2 0.878429 0.345656 0.814921
O O3 0.005401 0.127899 0.821028
O O4 0.000000 0.276730 0.000000
O O5 0.798932 0.421220 0.621590
O O6 0.733828 0.319888 0.436024
O O7 0.000000 0.353260 0.500000
O O8 0.484670 0.615183 0.331982
O O9 0.173926 0.414427 0.807394
O O10 0.000000 0.500000 0.693493
O O11 0.500000 0.752271 0.500000
#
# Coordination Sequence:
#
# PCOD9549894 Si02
#       6
#     8   8   2   2   8   8
#     4  12  25  46  75 116 166 228 299 363 459 552
#     4  12  27  52  82 126 177 227 302 391 456 536
#     4  12  30  50  86 122 164 220 306 348 448 550
#     4  12  22  42  78 110 168 218 288 368 436 546
#     4  12  28  50  80 121 169 225 296 371 453 545
#     4  12  27  53  87 118 168 232 296 365 452 542
#
# _framework density 26.236149999999999
#
# number of rings (size 3 to 8) (size 9 to 14) (size 15 to 20)
#    0.000    0.000    4.444    4.667    3.111    0.444 
#    0.000    0.000    0.000    0.000    0.000    0.000 
#    0.000    0.000    0.000    0.000    0.000    0.000 
#
# Total GULP energy -201252.163187 kJ/mol
# GULP energy per Si atom -5590.337866 kJ/mol
# Density = 2.617644 g / cm^3
# Si number density = 26.236150 Si / 1000 Ang^3
#
#
#
# Elastic Constant Matrix: (Units=GPa)
#
#
# Indices 1 2 3 4 5 6 
#
# 1 134.1046 28.0053 71.8897 0.0000 0.0000 0.0000
# 2 28.0053 134.1046 71.8897 0.0000 0.0000 0.0000
# 3 71.8897 71.8897 187.7176 0.0000 0.0000 0.0000
# 4 0.0000 0.0000 0.0000 57.4039 0.0000 0.0000
# 5 0.0000 0.0000 0.0000 0.0000 57.4039 0.0000
# 6 0.0000 0.0000 0.0000 0.0000 0.0000 35.5646
#
#
#
# Elastic Compliance Matrix: (Units=1/GPa)
#
#
# Indices 1 2 3 4 5 6 
#
# 1 0.009383 -0.000042 -0.003578 0.000000 0.000000 0.000000
# 2 -0.000042 0.009383 -0.003578 0.000000 0.000000 0.000000
# 3 -0.003578 -0.003578 0.008067 0.000000 0.000000 0.000000
# 4 0.000000 0.000000 0.000000 0.017420 0.000000 0.000000
# 5 0.000000 0.000000 0.000000 0.000000 0.017420 0.000000
# 6 0.000000 0.000000 0.000000 0.000000 0.000000 0.028118
#
#
# Mechanical properties :
#
#
# Convention : Reuss Voigt Hill
#
# Bulk Modulus (GPa) = 80.38292 88.83292 84.60792
# Shear Modulus (GPa) = 46.15386 49.01730 47.58558
#
# Velocity S-wave (km/s) = 4.19880 4.32709 4.26342
# Velocity P-wave (km/s) = 7.36283 7.67446 7.52026
#
# Compressibility (1/GPa) = 0.01244045
#
# Stress axis : x y z
#
# Youngs Moduli (GPa) = 106.57115 106.57115 123.95691
#
# Poissons Ratio (x) = 0.00445 0.44346
# Poissons Ratio (y) = 0.00445 0.44346
# Poissons Ratio (z) = 0.38126 0.38126
#
# Static dielectric constant tensor:
#      x y z
#    x 1.808260 0.000000 0.000000 
#    y 0.000000 1.808260 0.000000 
#    z 0.000000 0.000000 2.064110 
# 
# From -- ./inp_files/3174.got.cif
#   From: 2010.05.17/outbox.cif.g08.bks.cpg/sg93_2_cif.got.tgz:3174.got - 2010.06.03 19:38:44.
