data_PCOD9549412
_publ_section_title
;
Structure prediction by ZEFSAII (Michael W. Deem and Ramdas Pophale) SiO2 
 PCOD9549412
Probable space group: P 41 21 2
;
_chemical_formula_sum "Si O2"
_cell_formula_units_Z 40
_cell_length_a 17.132734
_cell_length_b 17.132734
_cell_length_c 5.543192
_cell_angle_alpha 90.000000
_cell_angle_beta 90.000000
_cell_angle_gamma 90.000000
_cell_volume 1627.096331
_symmetry_space_group_name_H-M "P 41 21 2"
_symmetry_group_IT_number 92
_symmetry_cell_setting 'tetragonal'
loop_
_space_group_symop_operation_xyz
x,y,z
1/2-y,1/2+x,1/4+z
-x,-y,1/2+z
1/2+y,1/2-x,3/4+z
1/2+x,1/2-y,3/4-z
1/2-x,1/2+y,1/4-z
y,x,-z
-y,-x,1/2-z
loop_
_atom_site_type_symbol
_atom_site_label
_atom_site_fract_x
_atom_site_fract_y
_atom_site_fract_z
Si Si1 0.719846 0.856968 0.141183
Si Si2 0.547830 0.452171 0.750000
Si Si3 0.386500 0.025182 0.744209
Si Si4 0.225768 0.406363 0.694158
Si Si5 0.885961 0.885961 0.000000
Si Si6 0.274095 0.274095 0.000000
Si Si7 0.099687 0.900314 0.750000
O O1 0.677335 0.913257 0.335642
O O2 0.793431 0.898695 0.025621
O O3 0.748397 0.780687 0.279741
O O4 0.655467 0.827112 0.954115
O O5 0.586022 0.421458 0.503073
O O6 0.456881 0.429950 0.714491
O O7 0.459661 0.076153 0.659302
O O8 0.333277 0.979639 0.543526
O O9 0.255039 0.363431 0.935795
O O10 0.308502 0.415507 0.551599
#
# Coordination Sequence:
#
# PCOD9549412 Si02
#       7
#     8   4   8   8   4   4   4
#     4  11  23  45  70 106 149 184 260 310 382 459
#     4  12  30  44  80 108 162 194 261 319 404 436
#     4  10  25  45  68 104 143 188 243 318 387 464
#     4  11  24  46  71 102 143 191 255 310 384 457
#     4  12  24  50  74 121 151 208 246 332 382 480
#     4  12  21  41  78 101 139 204 251 317 358 480
#     4  12  25  53  66 112 148 204 254 328 380 484
#
# _framework density 24.583667999999999
#
# number of rings (size 3 to 8) (size 9 to 14) (size 15 to 20)
#    0.000    0.800    4.000    2.400    2.800    4.000 
#    0.000    0.000    0.000    0.000    0.000    0.000 
#    0.000    0.000    0.000    0.000    0.000    0.000 
#
# Total GULP energy -223352.394646 kJ/mol
# GULP energy per Si atom -5583.809866 kJ/mol
# Density = 2.452771 g / cm^3
# Si number density = 24.583668 Si / 1000 Ang^3
#
#
#
# Elastic Constant Matrix: (Units=GPa)
#
#
# Indices 1 2 3 4 5 6 
#
# 1 76.8811 40.5274 17.4067 0.0000 0.0000 0.0000
# 2 40.5274 76.8802 17.4068 0.0000 0.0000 0.0000
# 3 17.4067 17.4068 78.2527 0.0000 0.0000 0.0000
# 4 0.0000 0.0000 0.0000 33.0365 0.0000 0.0000
# 5 0.0000 0.0000 0.0000 0.0000 33.0363 0.0000
# 6 0.0000 0.0000 0.0000 0.0000 0.0000 64.5298
#
#
#
# Elastic Compliance Matrix: (Units=1/GPa)
#
#
# Indices 1 2 3 4 5 6 
#
# 1 0.018313 -0.009195 -0.002028 0.000000 0.000000 0.000000
# 2 -0.009195 0.018313 -0.002028 0.000000 0.000000 0.000000
# 3 -0.002028 -0.002028 0.013682 0.000000 0.000000 0.000000
# 4 0.000000 0.000000 0.000000 0.030270 0.000000 0.000000
# 5 0.000000 0.000000 0.000000 0.000000 0.030270 0.000000
# 6 0.000000 0.000000 0.000000 0.000000 0.000000 0.015497
#
#
# Mechanical properties :
#
#
# Convention : Reuss Voigt Hill
#
# Bulk Modulus (GPa) = 42.00724 42.52177 42.26450
# Shear Modulus (GPa) = 31.09802 36.56538 33.83170
#
# Velocity S-wave (km/s) = 3.56052 3.86085 3.71372
# Velocity P-wave (km/s) = 5.83332 6.09993 5.96812
#
# Compressibility (1/GPa) = 0.02380542
#
# Stress axis : x y z
#
# Youngs Moduli (GPa) = 54.60552 54.60482 73.09124
#
# Poissons Ratio (x) = 0.50207 0.14826
# Poissons Ratio (y) = 0.50207 0.14826
# Poissons Ratio (z) = 0.11076 0.11076
#
# Static dielectric constant tensor:
#      x y z
#    x 2.027850 0.000000 0.000000 
#    y 0.000000 2.027850 0.000000 
#    z 0.000000 0.000000 1.969950 
# 
# From -- ./inp_files/489.got.cif
#   From: 2010.05.17/outbox.cif.g08.bks.cpg/sg92_1_cif.got.tgz:489.got - 2010.06.03 19:35:17.
