data_PCOD9549682
_publ_section_title
;
Structure prediction by ZEFSAII (Michael W. Deem and Ramdas Pophale) SiO2 
 PCOD9549682
Probable space group: P 42 2 2
;
_chemical_formula_sum "Si O2"
_cell_formula_units_Z 42
_cell_length_a 11.857736
_cell_length_b 11.857736
_cell_length_c 15.347955
_cell_angle_alpha 90.000000
_cell_angle_beta 90.000000
_cell_angle_gamma 90.000000
_cell_volume 2158.013073
_symmetry_space_group_name_H-M "P 42 2 2"
_symmetry_group_IT_number 93
_symmetry_cell_setting 'tetragonal'
loop_
_space_group_symop_operation_xyz
x,y,z
-y,x,1/2+z
-x,-y,z
y,-x,1/2+z
x,-y,-z
-x,y,-z
y,x,1/2-z
-y,-x,1/2-z
loop_
_atom_site_type_symbol
_atom_site_label
_atom_site_fract_x
_atom_site_fract_y
_atom_site_fract_z
Si Si1 0.137192 0.066419 0.587166
Si Si2 0.839770 0.344407 0.735558
Si Si3 0.000000 0.000000 0.250000
Si Si4 0.380929 0.968667 0.371101
Si Si5 0.039480 0.316510 0.595305
Si Si6 0.409154 0.778120 0.223635
O O1 0.102900 0.008605 0.680266
O O2 0.271900 0.075971 0.579793
O O3 0.073649 0.185165 0.590322
O O4 0.107786 0.000000 0.500000
O O5 0.761549 0.238452 0.750000
O O6 0.763074 0.455906 0.719726
O O7 0.915727 0.352702 0.821662
O O8 0.932512 0.333631 0.658823
O O9 0.397265 0.872249 0.298687
O O10 0.500000 0.000000 0.412766
O O11 0.151529 0.372838 0.637229
O O12 0.000000 0.355378 0.500000
O O13 0.326898 0.673103 0.250000
#
# Coordination Sequence:
#
# PCOD9549682 Si02
#       6
#     8   8   2   8   8   8
#     4  12  25  36  60  94 124 167 212 243 324 388
#     4  10  23  37  62  93 120 165 212 260 323 385
#     4  12  22  36  52  86 136 156 178 272 304 362
#     4   9  20  38  59  83 120 162 203 253 310 374
#     4  11  23  39  61  92 129 166 208 264 320 394
#     4  10  19  41  66  88 117 166 218 260 320 377
#
# _framework density 19.462347000000001
#
# number of rings (size 3 to 8) (size 9 to 14) (size 15 to 20)
#    0.000    1.524    1.905    5.429    8.000    2.286 
#    0.000    0.000    0.000    1.143    0.000    2.667 
#    0.000    0.000    0.000    0.000    0.000    0.000 
#
# Total GULP energy -234017.025665 kJ/mol
# GULP energy per Si atom -5571.833944 kJ/mol
# Density = 1.941805 g / cm^3
# Si number density = 19.462347 Si / 1000 Ang^3
#
#
#
# Elastic Constant Matrix: (Units=GPa)
#
#
# Indices 1 2 3 4 5 6 
#
# 1 101.2056 33.5813 12.0735 0.0000 0.0000 0.0000
# 2 33.5813 101.2121 12.0764 0.0000 0.0000 0.0000
# 3 12.0735 12.0764 90.6066 0.0000 0.0000 0.0000
# 4 0.0000 0.0000 0.0000 11.2211 0.0000 0.0000
# 5 0.0000 0.0000 0.0000 0.0000 11.2202 0.0000
# 6 0.0000 0.0000 0.0000 0.0000 0.0000 12.3650
#
#
#
# Elastic Compliance Matrix: (Units=1/GPa)
#
#
# Indices 1 2 3 4 5 6 
#
# 1 0.011194 -0.003593 -0.001013 0.000000 0.000000 0.000000
# 2 -0.003593 0.011193 -0.001013 0.000000 0.000000 0.000000
# 3 -0.001013 -0.001013 0.011307 0.000000 0.000000 0.000000
# 4 0.000000 0.000000 0.000000 0.089118 0.000000 0.000000
# 5 0.000000 0.000000 0.000000 0.000000 0.089125 0.000000
# 6 0.000000 0.000000 0.000000 0.000000 0.000000 0.080873
#
#
# Mechanical properties :
#
#
# Convention : Reuss Voigt Hill
#
# Bulk Modulus (GPa) = 44.53161 45.38742 44.95952
# Shear Modulus (GPa) = 16.04963 22.64746 19.34855
#
# Velocity S-wave (km/s) = 2.87479 3.41494 3.15644
# Velocity P-wave (km/s) = 5.82664 6.23862 6.03615
#
# Compressibility (1/GPa) = 0.02245596
#
# Stress axis : x y z
#
# Youngs Moduli (GPa) = 89.33381 89.33896 88.44318
#
# Poissons Ratio (x) = 0.32102 0.08957
# Poissons Ratio (y) = 0.32100 0.08960
# Poissons Ratio (z) = 0.09047 0.09051
#
# Static dielectric constant tensor:
#      x y z
#    x 1.731260 0.000000 0.000000 
#    y 0.000000 1.731260 0.000000 
#    z 0.000000 0.000000 1.868380 
# 
# From -- ./inp_files/5335.got.cif
#   From: 2010.05.17/outbox.cif.g08.bks.cpg/sg93_3_cif.got.tgz:5335.got - 2010.06.03 19:38:44.
