data_PCOD9549383
_publ_section_title
;
Structure prediction by ZEFSAII (Michael W. Deem and Ramdas Pophale) SiO2 
 PCOD9549383
Probable space group: P 41 21 2
;
_chemical_formula_sum "Si O2"
_cell_formula_units_Z 40
_cell_length_a 14.790056
_cell_length_b 14.790056
_cell_length_c 9.001387
_cell_angle_alpha 90.000000
_cell_angle_beta 90.000000
_cell_angle_gamma 90.000000
_cell_volume 1969.015209
_symmetry_space_group_name_H-M "P 41 21 2"
_symmetry_group_IT_number 92
_symmetry_cell_setting 'tetragonal'
loop_
_space_group_symop_operation_xyz
x,y,z
1/2-y,1/2+x,1/4+z
-x,-y,1/2+z
1/2+y,1/2-x,3/4+z
1/2+x,1/2-y,3/4-z
1/2-x,1/2+y,1/4-z
y,x,-z
-y,-x,1/2-z
loop_
_atom_site_type_symbol
_atom_site_label
_atom_site_fract_x
_atom_site_fract_y
_atom_site_fract_z
Si Si1 0.898342 0.455867 0.343244
Si Si2 0.860651 0.736946 0.917788
Si Si3 0.933220 0.066781 0.750000
Si Si4 0.714062 0.854063 0.426837
Si Si5 0.577866 0.422135 0.250000
Si Si6 0.731778 0.018981 0.660178
O O1 0.932337 0.531603 0.225745
O O2 0.862720 0.379909 0.229354
O O3 0.808253 0.476597 0.438625
O O4 0.861112 0.746597 0.741791
O O5 0.770315 0.770315 0.000000
O O6 0.931244 0.816031 0.962350
O O7 0.834722 0.052320 0.677024
O O8 0.012272 0.056297 0.632600
O O9 0.773658 0.773658 0.500000
O O10 0.609379 0.828325 0.402823
O O11 0.722512 0.943998 0.529517
#
# Coordination Sequence:
#
# PCOD9549383 Si02
#       6
#     8   8   4   8   4   8
#     4  12  27  46  74 106 151 194 245 305 372 460
#     4  10  25  48  70 102 146 194 240 306 376 433
#     4  12  24  44  69 107 138 196 248 300 384 440
#     4  12  26  48  74 108 148 197 250 310 380 455
#     4  10  24  44  67  99 140 194 234 306 362 446
#     4  12  26  45  73 106 146 196 247 311 374 460
#
# _framework density 20.314723999999998
#
# number of rings (size 3 to 8) (size 9 to 14) (size 15 to 20)
#    0.600    0.000    5.000    2.400    9.800    0.000 
#    0.000    0.000    0.000    0.000    0.000    0.000 
#    0.000    0.000    0.000    0.000    0.000    0.000 
#
# Total GULP energy -222803.749903 kJ/mol
# GULP energy per Si atom -5570.093748 kJ/mol
# Density = 2.026849 g / cm^3
# Si number density = 20.314724 Si / 1000 Ang^3
#
#
#
# Elastic Constant Matrix: (Units=GPa)
#
#
# Indices 1 2 3 4 5 6 
#
# 1 81.8041 29.6382 55.8514 0.0000 0.0000 0.0000
# 2 29.6382 81.8061 55.8505 0.0000 0.0000 0.0000
# 3 55.8514 55.8505 182.1203 0.0000 0.0000 0.0000
# 4 0.0000 0.0000 0.0000 -75.8921 0.0000 0.0000
# 5 0.0000 0.0000 0.0000 0.0000 -75.7923 0.0000
# 6 0.0000 0.0000 0.0000 0.0000 0.0000 38.3603
#
#
#
# Elastic Compliance Matrix: (Units=1/GPa)
#
#
# Indices 1 2 3 4 5 6 
#
# 1 0.016063 -0.003107 -0.003973 0.000000 0.000000 0.000000
# 2 -0.003107 0.016062 -0.003973 0.000000 0.000000 0.000000
# 3 -0.003973 -0.003973 0.007928 0.000000 0.000000 0.000000
# 4 0.000000 0.000000 0.000000 -0.013177 0.000000 0.000000
# 5 0.000000 0.000000 0.000000 0.000000 -0.013194 0.000000
# 6 0.000000 0.000000 0.000000 0.000000 0.000000 0.026069
#
#
# Mechanical properties :
#
#
# Convention : Reuss Voigt Hill
#
# Bulk Modulus (GPa) = 55.72154 69.82342 62.77248
# Shear Modulus (GPa) = 73.70436 -9.03878 32.33279
#
# Velocity S-wave (km/s) = 6.02993 -2.11164 3.99381
# Velocity P-wave (km/s) = 8.71600 5.33855 7.22734
#
# Compressibility (1/GPa) = 0.01794638
#
# Stress axis : x y z
#
# Youngs Moduli (GPa) = 62.25616 62.25867 126.13979
#
# Poissons Ratio (x) = 0.19343 0.50118
# Poissons Ratio (y) = 0.19342 0.50114
# Poissons Ratio (z) = 0.24736 0.24735
#
# Static dielectric constant tensor:
#      x y z
#    x 1.834840 0.000000 0.000000 
#    y 0.000000 1.834800 0.000000 
#    z 0.000000 0.000000 1.710490 
# 
# From -- ./inp_files/1374.got.cif
#   From: 2010.05.17/outbox.cif.g08.bks.cpg/sg92_1_cif.got.tgz:1374.got - 2010.06.03 19:35:17.
