data_PCOD9549549
_publ_section_title
;
Structure prediction by ZEFSAII (Michael W. Deem and Ramdas Pophale) SiO2 
 PCOD9549549
Probable space group: P 41 21 2
;
_chemical_formula_sum "Si O2"
_cell_formula_units_Z 48
_cell_length_a 12.895471
_cell_length_b 12.895471
_cell_length_c 12.064792
_cell_angle_alpha 90.000000
_cell_angle_beta 90.000000
_cell_angle_gamma 90.000000
_cell_volume 2006.292535
_symmetry_space_group_name_H-M "P 41 21 2"
_symmetry_group_IT_number 92
_symmetry_cell_setting 'tetragonal'
loop_
_space_group_symop_operation_xyz
x,y,z
1/2-y,1/2+x,1/4+z
-x,-y,1/2+z
1/2+y,1/2-x,3/4+z
1/2+x,1/2-y,3/4-z
1/2-x,1/2+y,1/4-z
y,x,-z
-y,-x,1/2-z
loop_
_atom_site_type_symbol
_atom_site_label
_atom_site_fract_x
_atom_site_fract_y
_atom_site_fract_z
Si Si1 0.885319 0.718131 0.796772
Si Si2 0.184859 0.850248 0.874731
Si Si3 0.035178 0.540166 0.804589
Si Si4 0.385874 0.385874 0.000000
Si Si5 0.940002 0.242575 0.561549
Si Si6 0.395535 0.580203 0.377863
Si Si7 0.375269 0.624732 0.750000
O O1 0.795975 0.632871 0.816593
O O2 0.993744 0.657838 0.798007
O O3 0.877333 0.795747 0.694419
O O4 0.872439 0.791913 0.902831
O O5 0.190299 0.809702 0.750000
O O6 0.118224 0.955096 0.868481
O O7 0.133183 0.765819 0.955586
O O8 0.002369 0.501035 0.679181
O O9 0.989555 0.656090 0.060255
O O10 0.380425 0.284055 0.077189
O O11 0.383835 0.496769 0.065252
O O12 0.015059 0.142898 0.555058
O O13 0.390771 0.609230 0.250000
#
# Coordination Sequence:
#
# PCOD9549549 Si02
#       7
#     8   8   8   4   8   8   4
#     4  12  27  48  80 118 157 209 277 336 409 493
#     4  12  26  47  83 113 152 213 275 329 400 497
#     4  12  30  54  80 118 166 216 272 344 419 495
#     4  12  24  47  72 116 153 200 266 334 398 482
#     4  12  27  47  81 115 161 210 268 335 415 482
#     4  12  25  48  76 111 161 203 266 343 400 474
#     4  12  22  43  82 114 151 206 278 330 384 484
#
# _framework density 23.924726
#
# number of rings (size 3 to 8) (size 9 to 14) (size 15 to 20)
#    0.000    0.000    6.667    3.000    4.667    1.333 
#   10.500    0.000    0.000    0.000    0.000    0.000 
#    0.000    0.000    0.000    0.000    0.000    0.000 
#
# Total GULP energy -268193.034138 kJ/mol
# GULP energy per Si atom -5587.354878 kJ/mol
# Density = 2.387027 g / cm^3
# Si number density = 23.924726 Si / 1000 Ang^3
#
#
#
# Elastic Constant Matrix: (Units=GPa)
#
#
# Indices 1 2 3 4 5 6 
#
# 1 75.4738 28.2651 56.4134 0.0000 0.0000 0.0000
# 2 28.2651 75.4737 56.4136 0.0000 0.0000 0.0000
# 3 56.4134 56.4136 229.5098 0.0000 0.0000 0.0000
# 4 0.0000 0.0000 0.0000 40.2002 0.0000 0.0000
# 5 0.0000 0.0000 0.0000 0.0000 40.2008 0.0000
# 6 0.0000 0.0000 0.0000 0.0000 0.0000 32.3873
#
#
#
# Elastic Compliance Matrix: (Units=1/GPa)
#
#
# Indices 1 2 3 4 5 6 
#
# 1 0.017170 -0.004013 -0.003234 0.000000 0.000000 0.000000
# 2 -0.004013 0.017170 -0.003234 0.000000 0.000000 0.000000
# 3 -0.003234 -0.003234 0.005947 0.000000 0.000000 0.000000
# 4 0.000000 0.000000 0.000000 0.024876 0.000000 0.000000
# 5 0.000000 0.000000 0.000000 0.000000 0.024875 0.000000
# 6 0.000000 0.000000 0.000000 0.000000 0.000000 0.030876
#
#
# Mechanical properties :
#
#
# Convention : Reuss Voigt Hill
#
# Bulk Modulus (GPa) = 51.74693 73.62684 62.68688
# Shear Modulus (GPa) = 33.71170 38.51532 36.11351
#
# Velocity S-wave (km/s) = 3.75784 4.01665 3.88940
# Velocity P-wave (km/s) = 6.36431 7.23550 6.81384
#
# Compressibility (1/GPa) = 0.01932482
#
# Stress axis : x y z
#
# Youngs Moduli (GPa) = 58.24221 58.24196 168.15411
#
# Poissons Ratio (x) = 0.23372 0.54380
# Poissons Ratio (y) = 0.23372 0.54381
# Poissons Ratio (z) = 0.18835 0.18835
#
# Static dielectric constant tensor:
#      x y z
#    x 1.967430 0.000000 0.000000 
#    y 0.000000 1.967430 0.000000 
#    z 0.000000 0.000000 2.021190 
# 
# From -- ./inp_files/2232.got.cif
#   From: 2010.05.17/outbox.cif.g08.bks.cpg/sg92_2_cif.got.tgz:2232.got - 2010.06.03 19:35:17.
