data_PCOD9549694
_publ_section_title
;
Structure prediction by ZEFSAII (Michael W. Deem and Ramdas Pophale) SiO2 
 PCOD9549694
Probable space group: P 42 2 2
;
_chemical_formula_sum "Si O2"
_cell_formula_units_Z 64
_cell_length_a 12.390976
_cell_length_b 12.390976
_cell_length_c 20.319078
_cell_angle_alpha 90.000000
_cell_angle_beta 90.000000
_cell_angle_gamma 90.000000
_cell_volume 3119.715776
_symmetry_space_group_name_H-M "P 42 2 2"
_symmetry_group_IT_number 93
_symmetry_cell_setting 'tetragonal'
loop_
_space_group_symop_operation_xyz
x,y,z
-y,x,1/2+z
-x,-y,z
y,-x,1/2+z
x,-y,-z
-x,y,-z
y,x,1/2-z
-y,-x,1/2-z
loop_
_atom_site_type_symbol
_atom_site_label
_atom_site_fract_x
_atom_site_fract_y
_atom_site_fract_z
Si Si1 0.810276 0.466957 0.143666
Si Si2 0.244827 0.413826 0.277759
Si Si3 0.671850 0.621585 0.677396
Si Si4 0.839545 0.665560 0.049431
Si Si5 0.062934 0.282293 0.906609
Si Si6 0.226559 0.618587 0.513237
Si Si7 0.853452 0.740306 0.617889
Si Si8 0.939618 0.386820 0.627646
O O1 0.800877 0.522980 0.214403
O O2 0.693501 0.407884 0.132991
O O3 0.835592 0.551678 0.086513
O O4 0.901216 0.374616 0.144371
O O5 0.331578 0.331578 0.250000
O O6 0.298532 0.496923 0.330832
O O7 0.147029 0.362020 0.316521
O O8 0.622292 0.622292 0.750000
O O9 0.783053 0.688804 0.676576
O O10 0.716691 0.707727 0.047230
O O11 0.934899 0.731285 0.087261
O O12 0.886603 0.670399 0.975225
O O13 0.135402 0.177735 0.891908
O O14 0.277213 0.500000 0.500000
O O15 0.190148 0.670993 0.444321
O O16 0.122856 0.599005 0.559031
O O17 0.976403 0.710025 0.624065
O O18 0.000000 0.500000 0.642219
#
# Coordination Sequence:
#
# PCOD9549694 Si02
#       8
#     8   8   8   8   8   8   8   8
#     4  10  20  34  59  86 116 164 213 245 305 379
#     4  11  23  39  56  84 124 158 201 257 318 386
#     4   9  19  36  54  82 118 154 198 244 301 370
#     4  10  20  37  59  89 127 162 201 260 313 382
#     4   9  20  38  60  88 123 161 207 256 315 381
#     4  11  21  35  59  91 121 154 201 257 324 378
#     4  10  20  37  60  88 114 154 204 260 313 372
#     4  12  22  37  62  87 115 154 211 263 313 380
#
# _framework density 20.514690000000002
#
# number of rings (size 3 to 8) (size 9 to 14) (size 15 to 20)
#    0.000    1.750    2.500    1.875    0.000    4.250 
#    2.250    3.125    0.000    9.750    0.000    0.000 
#    0.000    0.000    0.000    0.000    0.000    0.000 
#
# Total GULP energy -356920.827812 kJ/mol
# GULP energy per Si atom -5576.887935 kJ/mol
# Density = 2.046800 g / cm^3
# Si number density = 20.514690 Si / 1000 Ang^3
#
#
#
# Elastic Constant Matrix: (Units=GPa)
#
#
# Indices 1 2 3 4 5 6 
#
# 1 101.0939 48.7468 19.4663 0.0000 0.0000 0.0000
# 2 48.7468 101.0939 19.4663 0.0000 0.0000 0.0000
# 3 19.4663 19.4663 32.9231 0.0000 0.0000 0.0000
# 4 0.0000 0.0000 0.0000 27.8870 0.0000 0.0000
# 5 0.0000 0.0000 0.0000 0.0000 27.8870 0.0000
# 6 0.0000 0.0000 0.0000 0.0000 0.0000 20.8550
#
#
#
# Elastic Compliance Matrix: (Units=1/GPa)
#
#
# Indices 1 2 3 4 5 6 
#
# 1 0.013494 -0.005609 -0.004662 0.000000 0.000000 0.000000
# 2 -0.005609 0.013494 -0.004662 0.000000 0.000000 0.000000
# 3 -0.004662 -0.004662 0.035887 0.000000 0.000000 0.000000
# 4 0.000000 0.000000 0.000000 0.035859 0.000000 0.000000
# 5 0.000000 0.000000 0.000000 0.000000 0.035859 0.000000
# 6 0.000000 0.000000 0.000000 0.000000 0.000000 0.047950
#
#
# Mechanical properties :
#
#
# Convention : Reuss Voigt Hill
#
# Bulk Modulus (GPa) = 30.29526 45.60773 37.95149
# Shear Modulus (GPa) = 22.38004 25.15455 23.76730
#
# Velocity S-wave (km/s) = 3.30650 3.50547 3.40744
# Velocity P-wave (km/s) = 5.42005 6.21808 5.83273
#
# Compressibility (1/GPa) = 0.03300846
#
# Stress axis : x y z
#
# Youngs Moduli (GPa) = 74.10603 74.10603 27.86524
#
# Poissons Ratio (x) = 0.41567 0.12991
# Poissons Ratio (y) = 0.41567 0.12991
# Poissons Ratio (z) = 0.34550 0.34550
#
# Static dielectric constant tensor:
#      x y z
#    x 1.765390 0.000000 0.000000 
#    y 0.000000 1.765390 0.000000 
#    z 0.000000 0.000000 1.780320 
# 
# From -- ./inp_files/6954.got.cif
#   From: 2010.05.17/outbox.cif.g08.bks.cpg/sg93_4_cif.got.tgz:6954.got - 2010.06.03 19:38:44.
