data_PCOD9549349
_publ_section_title
;
Structure prediction by ZEFSAII (Michael W. Deem and Ramdas Pophale) SiO2 
 PCOD9549349
Probable space group: P 41 21 2
;
_chemical_formula_sum "Si O2"
_cell_formula_units_Z 24
_cell_length_a 7.564443
_cell_length_b 7.564443
_cell_length_c 15.232282
_cell_angle_alpha 90.000000
_cell_angle_beta 90.000000
_cell_angle_gamma 90.000000
_cell_volume 871.603330
_symmetry_space_group_name_H-M "P 41 21 2"
_symmetry_group_IT_number 92
_symmetry_cell_setting 'tetragonal'
loop_
_space_group_symop_operation_xyz
x,y,z
1/2-y,1/2+x,1/4+z
-x,-y,1/2+z
1/2+y,1/2-x,3/4+z
1/2+x,1/2-y,3/4-z
1/2-x,1/2+y,1/4-z
y,x,-z
-y,-x,1/2-z
loop_
_atom_site_type_symbol
_atom_site_label
_atom_site_fract_x
_atom_site_fract_y
_atom_site_fract_z
Si Si1 0.296589 0.281731 0.651491
Si Si2 0.151398 0.378776 0.176729
Si Si3 0.771349 0.228652 0.750000
Si Si4 0.860785 0.860785 0.000000
O O1 0.458028 0.174544 0.607118
O O2 0.243539 0.191241 0.743183
O O3 0.154991 0.292177 0.573457
O O4 0.357088 0.469329 0.688402
O O5 0.182700 0.571067 0.218351
O O6 0.282360 0.369485 0.093262
#
# Coordination Sequence:
#
# PCOD9549349 Si02
#       4
#     8   8   4   4
#     4  11  25  47  77 112 157 206 263 326 393 469
#     4  10  23  47  74 112 157 204 260 326 392 461
#     4  10  23  44  75 108 156 208 256 326 396 466
#     4  12  27  50  81 116 156 212 262 324 398 470
#
# _framework density 27.535464000000001
#
# number of rings (size 3 to 8) (size 9 to 14) (size 15 to 20)
#    0.000    1.333    0.000    6.000    0.000   10.667 
#    0.000   11.667    0.000    0.000    0.000    0.000 
#    0.000    0.000    0.000    0.000    0.000    0.000 
#
# Total GULP energy -134231.219820 kJ/mol
# GULP energy per Si atom -5592.967492 kJ/mol
# Density = 2.747279 g / cm^3
# Si number density = 27.535464 Si / 1000 Ang^3
#
#
#
# Elastic Constant Matrix: (Units=GPa)
#
#
# Indices 1 2 3 4 5 6 
#
# 1 98.9796 38.4716 60.6916 0.0000 0.0000 0.0000
# 2 38.4716 98.9808 60.6917 0.0000 0.0000 0.0000
# 3 60.6916 60.6917 273.8131 0.0000 0.0000 0.0000
# 4 0.0000 0.0000 0.0000 62.9264 0.0000 0.0000
# 5 0.0000 0.0000 0.0000 0.0000 62.9265 0.0000
# 6 0.0000 0.0000 0.0000 0.0000 0.0000 34.4381
#
#
#
# Elastic Compliance Matrix: (Units=1/GPa)
#
#
# Indices 1 2 3 4 5 6 
#
# 1 0.012786 -0.003740 -0.002005 0.000000 0.000000 0.000000
# 2 -0.003740 0.012786 -0.002005 0.000000 0.000000 0.000000
# 3 -0.002005 -0.002005 0.004541 0.000000 0.000000 0.000000
# 4 0.000000 0.000000 0.000000 0.015892 0.000000 0.000000
# 5 0.000000 0.000000 0.000000 0.000000 0.015892 0.000000
# 6 0.000000 0.000000 0.000000 0.000000 0.000000 0.029038
#
#
# Mechanical properties :
#
#
# Convention : Reuss Voigt Hill
#
# Bulk Modulus (GPa) = 68.43401 87.94257 78.18829
# Shear Modulus (GPa) = 44.92121 52.85277 48.88699
#
# Velocity S-wave (km/s) = 4.04343 4.38590 4.21814
# Velocity P-wave (km/s) = 6.83419 7.59312 7.22363
#
# Compressibility (1/GPa) = 0.01461262
#
# Stress axis : x y z
#
# Youngs Moduli (GPa) = 78.20840 78.20950 220.21642
#
# Poissons Ratio (x) = 0.29253 0.44155
# Poissons Ratio (y) = 0.29252 0.44155
# Poissons Ratio (z) = 0.15681 0.15681
#
# Static dielectric constant tensor:
#      x y z
#    x 2.296230 0.000000 0.000000 
#    y 0.000000 2.296230 0.000000 
#    z 0.000000 0.000000 2.139680 
# 
# From -- ./inp_files/2422.got.cif
#   From: 2010.05.17/outbox.cif.g08.bks.cpg/sg92_2_cif.got.tgz:2422.got - 2010.06.03 19:35:17.
