data_PCOD9549224
_publ_section_title
;
Structure prediction by ZEFSAII (Michael W. Deem and Ramdas Pophale) SiO2 
 PCOD9549224
Probable space group: P 41 21 2
;
_chemical_formula_sum "Si O2"
_cell_formula_units_Z 40
_cell_length_a 12.638122
_cell_length_b 12.638122
_cell_length_c 9.710383
_cell_angle_alpha 90.000000
_cell_angle_beta 90.000000
_cell_angle_gamma 90.000000
_cell_volume 1550.963033
_symmetry_space_group_name_H-M "P 41 21 2"
_symmetry_group_IT_number 92
_symmetry_cell_setting 'tetragonal'
loop_
_space_group_symop_operation_xyz
x,y,z
1/2-y,1/2+x,1/4+z
-x,-y,1/2+z
1/2+y,1/2-x,3/4+z
1/2+x,1/2-y,3/4-z
1/2-x,1/2+y,1/4-z
y,x,-z
-y,-x,1/2-z
loop_
_atom_site_type_symbol
_atom_site_label
_atom_site_fract_x
_atom_site_fract_y
_atom_site_fract_z
Si Si1 0.884368 0.704007 0.994011
Si Si2 0.299941 0.531156 0.479718
Si Si3 0.613843 0.567048 0.730105
Si Si4 0.475302 0.903466 0.137012
Si Si5 0.983865 0.796951 0.228877
O O1 0.968734 0.755978 0.885724
O O2 0.871290 0.587259 0.936016
O O3 0.782511 0.782511 0.000000
O O4 0.927449 0.702583 0.149629
O O5 0.340725 0.434282 0.384208
O O6 0.205488 0.587066 0.391514
O O7 0.398407 0.609889 0.498835
O O8 0.517779 0.482222 0.750000
O O9 0.710242 0.529873 0.630821
O O10 0.566642 0.658569 0.633718
O O11 0.501595 0.933830 0.291916
#
# Coordination Sequence:
#
# PCOD9549224 Si02
#       5
#     8   8   8   8   8
#     4   9  18  35  52  77 108 145 185 244 292 343
#     4   9  18  33  53  77 113 147 186 235 291 351
#     4   9  16  28  49  85 109 141 171 221 294 361
#     4  10  22  40  57  81 109 156 213 247 290 348
#     4   9  17  30  52  80 118 137 174 228 296 351
#
# _framework density 25.790426
#
# number of rings (size 3 to 8) (size 9 to 14) (size 15 to 20)
#    0.000    2.800    0.000    1.800    0.000    4.000 
#   14.400    0.000    0.000    0.000   41.600    0.000 
#    0.000    0.000    0.000    0.000    0.000    0.000 
#
# Total GULP energy -222809.152469 kJ/mol
# GULP energy per Si atom -5570.228812 kJ/mol
# Density = 2.573173 g / cm^3
# Si number density = 25.790426 Si / 1000 Ang^3
#
#
#
# Elastic Constant Matrix: (Units=GPa)
#
#
# Indices 1 2 3 4 5 6 
#
# 1 4.0319 68.2802 34.4627 0.0000 0.0000 0.0000
# 2 68.2802 4.0333 34.4628 0.0000 0.0000 0.0000
# 3 34.4627 34.4628 105.6088 0.0000 0.0000 0.0000
# 4 0.0000 0.0000 0.0000 31.2583 0.0000 0.0000
# 5 0.0000 0.0000 0.0000 0.0000 31.2584 0.0000
# 6 0.0000 0.0000 0.0000 0.0000 0.0000 13.2962
#
#
#
# Elastic Compliance Matrix: (Units=1/GPa)
#
#
# Indices 1 2 3 4 5 6 
#
# 1 0.002253 0.017818 -0.006550 0.000000 0.000000 0.000000
# 2 0.017818 0.002254 -0.006550 0.000000 0.000000 0.000000
# 3 -0.006550 -0.006550 0.013744 0.000000 0.000000 0.000000
# 4 0.000000 0.000000 0.000000 0.031992 0.000000 0.000000
# 5 0.000000 0.000000 0.000000 0.000000 0.031991 0.000000
# 6 0.000000 0.000000 0.000000 0.000000 0.000000 0.075209
#
#
# Mechanical properties :
#
#
# Convention : Reuss Voigt Hill
#
# Bulk Modulus (GPa) = 36.11701 43.12061 39.61881
# Shear Modulus (GPa) = 31.79941 13.59380 22.69660
#
# Velocity S-wave (km/s) = 3.51521 2.29833 2.96976
# Velocity P-wave (km/s) = 5.52359 4.87842 5.21100
#
# Compressibility (1/GPa) = 0.02768779
#
# Stress axis : x y z
#
# Youngs Moduli (GPa) = 443.77617 443.69160 72.76034
#
# Poissons Ratio (x) = -7.90587 0.47657
# Poissons Ratio (y) = -7.90738 0.47658
# Poissons Ratio (z) = 2.90670 2.90620
#
# Static dielectric constant tensor:
#      x y z
#    x 2.191840 0.000000 0.000000 
#    y 0.000000 2.191840 0.000000 
#    z 0.000000 0.000000 1.978220 
# 
# From -- ./inp_files/1293.got.cif
#   From: 2010.05.17/outbox.cif.g08.bks.cpg/sg92_1_cif.got.tgz:1293.got - 2010.06.03 19:35:17.
