data_PCOD9549333
_publ_section_title
;
Structure prediction by ZEFSAII (Michael W. Deem and Ramdas Pophale) SiO2 
 PCOD9549333
Probable space group: P 41 21 2
;
_chemical_formula_sum "Si O2"
_cell_formula_units_Z 40
_cell_length_a 7.411042
_cell_length_b 7.411042
_cell_length_c 27.877333
_cell_angle_alpha 90.000000
_cell_angle_beta 90.000000
_cell_angle_gamma 90.000000
_cell_volume 1531.121912
_symmetry_space_group_name_H-M "P 41 21 2"
_symmetry_group_IT_number 92
_symmetry_cell_setting 'tetragonal'
loop_
_space_group_symop_operation_xyz
x,y,z
1/2-y,1/2+x,1/4+z
-x,-y,1/2+z
1/2+y,1/2-x,3/4+z
1/2+x,1/2-y,3/4-z
1/2-x,1/2+y,1/4-z
y,x,-z
-y,-x,1/2-z
loop_
_atom_site_type_symbol
_atom_site_label
_atom_site_fract_x
_atom_site_fract_y
_atom_site_fract_z
Si Si1 0.374251 0.705068 0.005170
Si Si2 0.872352 0.207460 0.426525
Si Si3 0.223725 0.925747 0.175666
Si Si4 0.104307 0.482038 0.579041
Si Si5 0.329021 0.508846 0.184882
O O1 0.410871 0.540719 0.041192
O O2 0.299514 0.880921 0.033894
O O3 0.208129 0.665892 0.967941
O O4 0.529613 0.781423 0.969535
O O5 0.696535 0.094759 0.411195
O O6 0.914587 0.314716 0.378480
O O7 0.999975 0.046295 0.445021
O O8 0.398585 0.056273 0.180857
O O9 0.255825 0.716699 0.189770
O O10 0.177037 0.943328 0.120105
#
# Coordination Sequence:
#
# PCOD9549333 Si02
#       5
#     8   8   8   8   8
#     4  10  23  42  70 102 139 186 240 292 367 429
#     4   9  22  43  61  93 138 178 235 290 362 427
#     4  11  23  42  74 101 142 190 237 306 362 440
#     4   9  23  43  64  94 139 179 239 290 362 431
#     4  11  22  44  70 100 143 186 241 296 368 436
#
# _framework density 26.124631999999998
#
# number of rings (size 3 to 8) (size 9 to 14) (size 15 to 20)
#    1.200    0.800    2.000    0.600    2.800    1.600 
#    7.200    0.000    0.000    0.000    0.000    0.000 
#    0.000    0.000    0.000    0.000    0.000    0.000 
#
# Total GULP energy -223199.730657 kJ/mol
# GULP energy per Si atom -5579.993266 kJ/mol
# Density = 2.606517 g / cm^3
# Si number density = 26.124632 Si / 1000 Ang^3
#
#
#
# Elastic Constant Matrix: (Units=GPa)
#
#
# Indices 1 2 3 4 5 6 
#
# 1 93.0082 8.8279 28.9093 0.0000 0.0000 0.0000
# 2 8.8279 93.0082 28.9093 0.0000 0.0000 0.0000
# 3 28.9093 28.9093 175.4865 0.0000 0.0000 0.0000
# 4 0.0000 0.0000 0.0000 42.2561 0.0000 0.0000
# 5 0.0000 0.0000 0.0000 0.0000 42.2561 0.0000
# 6 0.0000 0.0000 0.0000 0.0000 0.0000 24.4789
#
#
#
# Elastic Compliance Matrix: (Units=1/GPa)
#
#
# Indices 1 2 3 4 5 6 
#
# 1 0.011356 -0.000523 -0.001785 0.000000 0.000000 0.000000
# 2 -0.000523 0.011356 -0.001785 0.000000 0.000000 0.000000
# 3 -0.001785 -0.001785 0.006286 0.000000 0.000000 0.000000
# 4 0.000000 0.000000 0.000000 0.023665 0.000000 0.000000
# 5 0.000000 0.000000 0.000000 0.000000 0.023665 0.000000
# 6 0.000000 0.000000 0.000000 0.000000 0.000000 0.040852
#
#
# Mechanical properties :
#
#
# Convention : Reuss Voigt Hill
#
# Bulk Modulus (GPa) = 48.04483 54.97732 51.51108
# Shear Modulus (GPa) = 37.79195 41.45531 39.62363
#
# Velocity S-wave (km/s) = 3.80755 3.98782 3.89873
# Velocity P-wave (km/s) = 6.14495 6.50335 6.32669
#
# Compressibility (1/GPa) = 0.02081389
#
# Stress axis : x y z
#
# Youngs Moduli (GPa) = 88.05850 88.05850 159.07295
#
# Poissons Ratio (x) = 0.04607 0.28388
# Poissons Ratio (y) = 0.04607 0.28388
# Poissons Ratio (z) = 0.15715 0.15715
#
# Static dielectric constant tensor:
#      x y z
#    x 2.251170 0.000000 0.000000 
#    y 0.000000 2.251170 0.000000 
#    z 0.000000 0.000000 2.114830 
# 
# From -- ./inp_files/4360.got.cif
#   From: 2010.05.17/outbox.cif.g08.bks.cpg/sg92_3_cif.got.tgz:4360.got - 2010.06.03 19:35:17.
