data_PCOD9549628
_publ_section_title
;
Structure prediction by ZEFSAII (Michael W. Deem and Ramdas Pophale) SiO2 
 PCOD9549628
Probable space group: P 42 2 2
;
_chemical_formula_sum "Si O2"
_cell_formula_units_Z 48
_cell_length_a 14.654455
_cell_length_b 14.654455
_cell_length_c 12.964098
_cell_angle_alpha 90.000000
_cell_angle_beta 90.000000
_cell_angle_gamma 90.000000
_cell_volume 2784.079603
_symmetry_space_group_name_H-M "P 42 2 2"
_symmetry_group_IT_number 93
_symmetry_cell_setting 'tetragonal'
loop_
_space_group_symop_operation_xyz
x,y,z
-y,x,1/2+z
-x,-y,z
y,-x,1/2+z
x,-y,-z
-x,y,-z
y,x,1/2-z
-y,-x,1/2-z
loop_
_atom_site_type_symbol
_atom_site_label
_atom_site_fract_x
_atom_site_fract_y
_atom_site_fract_z
Si Si1 0.791367 0.595484 0.453776
Si Si2 0.265560 0.915664 0.078313
Si Si3 0.787546 0.899155 0.526575
Si Si4 0.865396 0.547734 0.231461
Si Si5 0.235422 0.703074 0.859831
Si Si6 0.355313 0.057418 0.703965
O O1 0.758187 0.500000 0.500000
O O2 0.853940 0.651815 0.533322
O O3 0.849634 0.570115 0.351843
O O4 0.716446 0.668764 0.417700
O O5 0.171222 0.859742 0.075174
O O6 0.293647 0.942921 0.193429
O O7 0.257222 0.000000 0.000000
O O8 0.748510 0.844540 0.427487
O O9 0.705447 0.917535 0.606233
O O10 0.824768 0.000000 0.500000
O O11 0.787822 0.599139 0.167012
O O12 0.873450 0.440179 0.215707
O O13 0.958903 0.596775 0.197007
O O14 0.245299 0.754702 0.750000
#
# Coordination Sequence:
#
# PCOD9549628 Si02
#       6
#     8   8   8   8   8   8
#     4  10  18  33  59  85 115 146 194 244 294 342
#     4  11  22  36  57  80 113 154 197 251 291 338
#     4  11  23  38  54  76 117 154 198 240 291 361
#     4  10  19  33  57  85 118 148 182 242 306 365
#     4   9  20  37  55  82 116 155 187 233 300 362
#     4  11  21  34  55  87 115 144 194 247 302 350
#
# _framework density 17.240886
#
# number of rings (size 3 to 8) (size 9 to 14) (size 15 to 20)
#    0.000    1.667    5.000    0.500    0.000    1.333 
#    0.000    0.000    0.000    2.000    0.000    9.333 
#    0.000    0.000    0.000    0.000    0.000    0.000 
#
# Total GULP energy -267699.660826 kJ/mol
# GULP energy per Si atom -5577.076267 kJ/mol
# Density = 1.720165 g / cm^3
# Si number density = 17.240886 Si / 1000 Ang^3
#
#
#
# Elastic Constant Matrix: (Units=GPa)
#
#
# Indices 1 2 3 4 5 6 
#
# 1 92.3922 39.9958 32.1993 0.0000 0.0000 0.0000
# 2 39.9958 92.3918 32.1997 0.0000 0.0000 0.0000
# 3 32.1993 32.1997 70.1160 0.0000 0.0000 0.0000
# 4 0.0000 0.0000 0.0000 19.5942 0.0000 0.0000
# 5 0.0000 0.0000 0.0000 0.0000 19.5942 0.0000
# 6 0.0000 0.0000 0.0000 0.0000 0.0000 25.1513
#
#
#
# Elastic Compliance Matrix: (Units=1/GPa)
#
#
# Indices 1 2 3 4 5 6 
#
# 1 0.014406 -0.004680 -0.004467 0.000000 0.000000 0.000000
# 2 -0.004680 0.014406 -0.004467 0.000000 0.000000 0.000000
# 3 -0.004467 -0.004467 0.018365 0.000000 0.000000 0.000000
# 4 0.000000 0.000000 0.000000 0.051036 0.000000 0.000000
# 5 0.000000 0.000000 0.000000 0.000000 0.051036 0.000000
# 6 0.000000 0.000000 0.000000 0.000000 0.000000 0.039759
#
#
# Mechanical properties :
#
#
# Convention : Reuss Voigt Hill
#
# Bulk Modulus (GPa) = 50.12374 51.52106 50.82240
# Shear Modulus (GPa) = 22.43334 22.90161 22.66748
#
# Velocity S-wave (km/s) = 3.61109 3.64858 3.62988
# Velocity P-wave (km/s) = 6.82073 6.90634 6.86367
#
# Compressibility (1/GPa) = 0.01995063
#
# Stress axis : x y z
#
# Youngs Moduli (GPa) = 69.41660 69.41588 54.45276
#
# Poissons Ratio (x) = 0.32483 0.24322
# Poissons Ratio (y) = 0.32484 0.24323
# Poissons Ratio (z) = 0.31005 0.31006
#
# Static dielectric constant tensor:
#      x y z
#    x 1.580060 0.000000 0.000000 
#    y 0.000000 1.580060 0.000000 
#    z 0.000000 0.000000 1.591580 
# 
# From -- ./inp_files/3407.got.cif
#   From: 2010.05.17/outbox.cif.g08.bks.cpg/sg93_2_cif.got.tgz:3407.got - 2010.06.03 19:38:44.
