data_PCOD9549243
_publ_section_title
;
Structure prediction by ZEFSAII (Michael W. Deem and Ramdas Pophale) SiO2 
 PCOD9549243
Probable space group: P 41 21 2
;
_chemical_formula_sum "Si O2"
_cell_formula_units_Z 32
_cell_length_a 8.896360
_cell_length_b 8.896360
_cell_length_c 20.527585
_cell_angle_alpha 90.000000
_cell_angle_beta 90.000000
_cell_angle_gamma 90.000000
_cell_volume 1624.660257
_symmetry_space_group_name_H-M "P 41 21 2"
_symmetry_group_IT_number 92
_symmetry_cell_setting 'tetragonal'
loop_
_space_group_symop_operation_xyz
x,y,z
1/2-y,1/2+x,1/4+z
-x,-y,1/2+z
1/2+y,1/2-x,3/4+z
1/2+x,1/2-y,3/4-z
1/2-x,1/2+y,1/4-z
y,x,-z
-y,-x,1/2-z
loop_
_atom_site_type_symbol
_atom_site_label
_atom_site_fract_x
_atom_site_fract_y
_atom_site_fract_z
Si Si1 0.819978 0.848080 0.310738
Si Si2 0.656485 0.173389 0.071673
Si Si3 0.834099 0.177513 0.675744
Si Si4 0.182819 0.329514 0.440518
O O1 0.802447 0.737018 0.249510
O O2 0.731890 0.785053 0.372979
O O3 0.997787 0.858001 0.326003
O O4 0.754410 0.009708 0.292206
O O5 0.490935 0.238284 0.087038
O O6 0.768498 0.236746 0.125878
O O7 0.655860 0.994084 0.071073
O O8 0.786341 0.213660 0.750000
O O9 0.218048 0.218048 0.500000
#
# Coordination Sequence:
#
# PCOD9549243 Si02
#       4
#     8   8   8   8
#     4  11  23  40  65  94 129 167 212 263 316 382
#     4  11  24  42  63  90 126 165 210 261 319 384
#     4  10  22  41  62  92 129 168 212 258 313 376
#     4  12  24  41  65  92 125 164 210 264 322 384
#
# _framework density 19.696427
#
# number of rings (size 3 to 8) (size 9 to 14) (size 15 to 20)
#    0.000    1.000    0.000    8.250    0.000    8.000 
#    0.000    1.250    0.000    0.000    0.000    0.000 
#    0.000    0.000    0.000    0.000    0.000    0.000 
#
# Total GULP energy -179080.626901 kJ/mol
# GULP energy per Si atom -5596.269591 kJ/mol
# Density = 1.965160 g / cm^3
# Si number density = 19.696427 Si / 1000 Ang^3
#
#
#
# Elastic Constant Matrix: (Units=GPa)
#
#
# Indices 1 2 3 4 5 6 
#
# 1 111.7462 36.7871 40.0563 0.0000 0.0000 0.0000
# 2 36.7871 111.7451 40.0567 0.0000 0.0000 0.0000
# 3 40.0563 40.0567 63.8855 0.0000 0.0000 0.0000
# 4 0.0000 0.0000 0.0000 27.3619 0.0000 0.0000
# 5 0.0000 0.0000 0.0000 0.0000 27.3618 0.0000
# 6 0.0000 0.0000 0.0000 0.0000 0.0000 32.6991
#
#
#
# Elastic Compliance Matrix: (Units=1/GPa)
#
#
# Indices 1 2 3 4 5 6 
#
# 1 0.011757 -0.001584 -0.006378 0.000000 0.000000 0.000000
# 2 -0.001584 0.011757 -0.006378 0.000000 0.000000 0.000000
# 3 -0.006378 -0.006378 0.023652 0.000000 0.000000 0.000000
# 4 0.000000 0.000000 0.000000 0.036547 0.000000 0.000000
# 5 0.000000 0.000000 0.000000 0.000000 0.036547 0.000000
# 6 0.000000 0.000000 0.000000 0.000000 0.000000 0.030582
#
#
# Mechanical properties :
#
#
# Convention : Reuss Voigt Hill
#
# Bulk Modulus (GPa) = 54.10204 57.90856 56.00530
# Shear Modulus (GPa) = 26.92746 28.84967 27.88856
#
# Velocity S-wave (km/s) = 3.70148 3.83131 3.76695
# Velocity P-wave (km/s) = 6.76723 7.00259 6.88592
#
# Compressibility (1/GPa) = 0.01848359
#
# Stress axis : x y z
#
# Youngs Moduli (GPa) = 85.05837 85.05677 42.28051
#
# Poissons Ratio (x) = 0.13473 0.26968
# Poissons Ratio (y) = 0.13473 0.26969
# Poissons Ratio (z) = 0.54253 0.54253
#
# Static dielectric constant tensor:
#      x y z
#    x 1.682230 0.000000 0.000000 
#    y 0.000000 1.682230 0.000000 
#    z 0.000000 0.000000 1.669930 
# 
# From -- ./inp_files/3333.got.cif
#   From: 2010.05.17/outbox.cif.g08.bks.cpg/sg92_2_cif.got.tgz:3333.got - 2010.06.03 19:35:17.
