data_PCOD9549470
_publ_section_title
;
Structure prediction by ZEFSAII (Michael W. Deem and Ramdas Pophale) SiO2 
 PCOD9549470
Probable space group: P 41 21 2
;
_chemical_formula_sum "Si O2"
_cell_formula_units_Z 32
_cell_length_a 8.348369
_cell_length_b 8.348369
_cell_length_c 17.542423
_cell_angle_alpha 90.000000
_cell_angle_beta 90.000000
_cell_angle_gamma 90.000000
_cell_volume 1222.623819
_symmetry_space_group_name_H-M "P 41 21 2"
_symmetry_group_IT_number 92
_symmetry_cell_setting 'tetragonal'
loop_
_space_group_symop_operation_xyz
x,y,z
1/2-y,1/2+x,1/4+z
-x,-y,1/2+z
1/2+y,1/2-x,3/4+z
1/2+x,1/2-y,3/4-z
1/2-x,1/2+y,1/4-z
y,x,-z
-y,-x,1/2-z
loop_
_atom_site_type_symbol
_atom_site_label
_atom_site_fract_x
_atom_site_fract_y
_atom_site_fract_z
Si Si1 0.018749 0.272649 0.944101
Si Si2 0.435946 0.756463 0.581378
Si Si3 0.075271 0.183546 0.186447
Si Si4 0.867061 0.054054 0.082229
O O1 0.172414 0.391599 0.943783
O O2 0.064570 0.160619 0.873764
O O3 0.863860 0.374230 0.922916
O O4 0.956481 0.169108 0.017708
O O5 0.371865 0.638861 0.516534
O O6 0.321349 0.912391 0.574263
O O7 0.416186 0.635467 0.655343
O O8 0.896984 0.153266 0.160608
#
# Coordination Sequence:
#
# PCOD9549470 Si02
#       4
#     8   8   8   8
#     4  11  24  44  72 105 145 195 248 305 373 445
#     4  11  25  46  71 106 150 195 250 310 368 446
#     4  11  23  42  68 101 143 191 246 302 369 443
#     4  11  24  44  72 106 147 195 247 309 374 442
#
# _framework density 26.173221000000002
#
# number of rings (size 3 to 8) (size 9 to 14) (size 15 to 20)
#    0.000    1.000    0.000    6.000    0.000    6.000 
#    0.000   10.000    0.000    0.000    0.000    0.000 
#    0.000    0.000    0.000    0.000    0.000    0.000 
#
# Total GULP energy -178213.572666 kJ/mol
# GULP energy per Si atom -5569.174146 kJ/mol
# Density = 2.611365 g / cm^3
# Si number density = 26.173221 Si / 1000 Ang^3
#
#
#
# Elastic Constant Matrix: (Units=GPa)
#
#
# Indices 1 2 3 4 5 6 
#
# 1 606.4011 -421.0245 26.9196 0.0000 0.0000 0.0000
# 2 -421.0245 606.4011 26.9196 0.0000 0.0000 0.0000
# 3 26.9196 26.9196 85.6527 0.0000 0.0000 0.0000
# 4 0.0000 0.0000 0.0000 23.7138 0.0000 0.0000
# 5 0.0000 0.0000 0.0000 0.0000 23.7138 0.0000
# 6 0.0000 0.0000 0.0000 0.0000 0.0000 47.6440
#
#
#
# Elastic Compliance Matrix: (Units=1/GPa)
#
#
# Indices 1 2 3 4 5 6 
#
# 1 0.003455 0.002481 -0.001866 0.000000 0.000000 0.000000
# 2 0.002481 0.003455 -0.001866 0.000000 0.000000 0.000000
# 3 -0.001866 -0.001866 0.012848 0.000000 0.000000 0.000000
# 4 0.000000 0.000000 0.000000 0.042170 0.000000 0.000000
# 5 0.000000 0.000000 0.000000 0.000000 0.042170 0.000000
# 6 0.000000 0.000000 0.000000 0.000000 0.000000 0.020989
#
#
# Mechanical properties :
#
#
# Convention : Reuss Voigt Hill
#
# Bulk Modulus (GPa) = 57.94566 62.67605 60.31086
# Shear Modulus (GPa) = 37.49870 130.05699 83.77784
#
# Velocity S-wave (km/s) = 3.78923 7.05682 5.66379
# Velocity P-wave (km/s) = 6.42897 9.50773 8.11568
#
# Compressibility (1/GPa) = 0.01725755
#
# Stress axis : x y z
#
# Youngs Moduli (GPa) = 289.45283 289.45283 77.83437
#
# Poissons Ratio (x) = -0.71827 0.14522
# Poissons Ratio (y) = -0.71827 0.14522
# Poissons Ratio (z) = 0.54003 0.54003
#
# Static dielectric constant tensor:
#      x y z
#    x 2.243190 0.000000 0.000000 
#    y 0.000000 2.243190 0.000000 
#    z 0.000000 0.000000 2.233800 
# 
# From -- ./inp_files/3367.got.cif
#   From: 2010.05.17/outbox.cif.g08.bks.cpg/sg92_2_cif.got.tgz:3367.got - 2010.06.03 19:35:17.
