data_PCOD9549034
_publ_section_title
;
Structure prediction by ZEFSAII (Michael W. Deem and Ramdas Pophale) SiO2 
 PCOD9549034
Probable space group: P 41 21 2
;
_chemical_formula_sum "Si O2"
_cell_formula_units_Z 60
_cell_length_a 11.892008
_cell_length_b 11.892008
_cell_length_c 20.984883
_cell_angle_alpha 90.000000
_cell_angle_beta 90.000000
_cell_angle_gamma 90.000000
_cell_volume 2967.679096
_symmetry_space_group_name_H-M "P 41 21 2"
_symmetry_group_IT_number 92
_symmetry_cell_setting 'tetragonal'
loop_
_space_group_symop_operation_xyz
x,y,z
1/2-y,1/2+x,1/4+z
-x,-y,1/2+z
1/2+y,1/2-x,3/4+z
1/2+x,1/2-y,3/4-z
1/2-x,1/2+y,1/4-z
y,x,-z
-y,-x,1/2-z
loop_
_atom_site_type_symbol
_atom_site_label
_atom_site_fract_x
_atom_site_fract_y
_atom_site_fract_z
Si Si1 0.471081 0.562253 0.908188
Si Si2 0.615245 0.379964 0.956518
Si Si3 0.160915 0.160915 0.500000
Si Si4 0.485987 0.001822 0.303960
Si Si5 0.363327 0.086836 0.179095
Si Si6 0.710757 0.881509 0.111905
Si Si7 0.640245 0.811929 0.248057
Si Si8 0.423289 0.341712 0.198989
O O1 0.587306 0.498267 0.922880
O O2 0.468432 0.692021 0.886232
O O3 0.411437 0.483068 0.856474
O O4 0.397007 0.564252 0.972751
O O5 0.563034 0.270095 0.922488
O O6 0.745808 0.351968 0.966144
O O7 0.223206 0.199890 0.563193
O O8 0.027372 0.178221 0.503474
O O9 0.396955 0.045880 0.250739
O O10 0.560033 0.108632 0.325253
O O11 0.455268 0.940871 0.370960
O O12 0.551235 0.906370 0.265032
O O13 0.383341 0.220127 0.176743
O O14 0.667250 0.816349 0.173437
O O15 0.605173 0.687247 0.269717
#
# Coordination Sequence:
#
# PCOD9549034 Si02
#       8
#     8   8   4   8   8   8   8   8
#     4   9  18  37  63  84 119 152 216 254 315 380
#     4   9  19  38  60  90 115 162 201 260 317 381
#     4  10  20  40  62  90 118 166 218 258 316 390
#     4  12  22  40  59  91 128 165 214 260 329 384
#     4  11  22  36  63  86 122 166 208 261 320 384
#     4  10  21  40  59  91 124 168 209 264 324 383
#     4  10  22  40  59  90 131 161 206 269 329 380
#     4  10  20  38  60  85 117 162 207 265 315 382
#
# _framework density 20.217818999999999
#
# number of rings (size 3 to 8) (size 9 to 14) (size 15 to 20)
#    0.000    1.867    2.667    1.600    0.000    1.067 
#    7.200    1.333    0.000    1.600    0.000    0.000 
#    0.000    0.000    0.000    0.000    0.000    0.000 
#
# Total GULP energy -334339.530716 kJ/mol
# GULP energy per Si atom -5572.325512 kJ/mol
# Density = 2.017180 g / cm^3
# Si number density = 20.217819 Si / 1000 Ang^3
#
#
#
# Elastic Constant Matrix: (Units=GPa)
#
#
# Indices 1 2 3 4 5 6 
#
# 1 35.9465 -5.7363 -4.0794 0.0000 0.0000 0.0000
# 2 -5.7363 35.9465 -4.0794 0.0000 0.0000 0.0000
# 3 -4.0794 -4.0794 64.8333 0.0000 0.0000 0.0000
# 4 0.0000 0.0000 0.0000 9.5322 0.0000 0.0000
# 5 0.0000 0.0000 0.0000 0.0000 9.5322 0.0000
# 6 0.0000 0.0000 0.0000 0.0000 0.0000 20.4424
#
#
#
# Elastic Compliance Matrix: (Units=1/GPa)
#
#
# Indices 1 2 3 4 5 6 
#
# 1 0.028832 0.004841 0.002119 0.000000 0.000000 0.000000
# 2 0.004841 0.028832 0.002119 0.000000 0.000000 0.000000
# 3 0.002119 0.002119 0.015691 0.000000 0.000000 0.000000
# 4 0.000000 0.000000 0.000000 0.104908 0.000000 0.000000
# 5 0.000000 0.000000 0.000000 0.000000 0.104908 0.000000
# 6 0.000000 0.000000 0.000000 0.000000 0.000000 0.048918
#
#
# Mechanical properties :
#
#
# Convention : Reuss Voigt Hill
#
# Bulk Modulus (GPa) = 10.92737 12.10400 11.51569
# Shear Modulus (GPa) = 14.51651 17.94277 16.22964
#
# Velocity S-wave (km/s) = 2.68247 2.98228 2.83634
# Velocity P-wave (km/s) = 3.87437 4.22593 4.05396
#
# Compressibility (1/GPa) = 0.09151331
#
# Stress axis : x y z
#
# Youngs Moduli (GPa) = 34.68347 34.68347 63.73160
#
# Poissons Ratio (x) = -0.16792 -0.13503
# Poissons Ratio (y) = -0.16792 -0.13503
# Poissons Ratio (z) = -0.07349 -0.07349
#
# Static dielectric constant tensor:
#      x y z
#    x 1.732600 0.000000 0.000000 
#    y 0.000000 1.732600 0.000000 
#    z 0.000000 0.000000 1.776640 
# 
# From -- ./inp_files/3630.got.cif
#   From: 2010.05.17/outbox.cif.g08.bks.cpg/sg92_2_cif.got.tgz:3630.got - 2010.06.03 19:35:17.
