data_PCOD9549262
_publ_section_title
;
Structure prediction by ZEFSAII (Michael W. Deem and Ramdas Pophale) SiO2 
 PCOD9549262
Probable space group: P 41 21 2
;
_chemical_formula_sum "Si O2"
_cell_formula_units_Z 48
_cell_length_a 9.046188
_cell_length_b 9.046188
_cell_length_c 27.689129
_cell_angle_alpha 90.000000
_cell_angle_beta 90.000000
_cell_angle_gamma 90.000000
_cell_volume 2265.898818
_symmetry_space_group_name_H-M "P 41 21 2"
_symmetry_group_IT_number 92
_symmetry_cell_setting 'tetragonal'
loop_
_space_group_symop_operation_xyz
x,y,z
1/2-y,1/2+x,1/4+z
-x,-y,1/2+z
1/2+y,1/2-x,3/4+z
1/2+x,1/2-y,3/4-z
1/2-x,1/2+y,1/4-z
y,x,-z
-y,-x,1/2-z
loop_
_atom_site_type_symbol
_atom_site_label
_atom_site_fract_x
_atom_site_fract_y
_atom_site_fract_z
Si Si1 0.032046 0.984663 0.355576
Si Si2 0.961460 0.795616 0.566068
Si Si3 0.540702 0.459299 0.250000
Si Si4 0.621428 0.320904 0.983142
Si Si5 0.221015 0.471510 0.824258
Si Si6 0.055117 0.308630 0.321543
Si Si7 0.697210 0.697210 0.500000
O O1 0.956340 0.927780 0.306284
O O2 0.195243 0.941358 0.375091
O O3 0.032437 0.162712 0.353350
O O4 0.921371 0.921926 0.396069
O O5 0.080845 0.684901 0.587907
O O6 0.815689 0.725972 0.542459
O O7 0.046808 0.878400 0.522804
O O8 0.658613 0.445252 0.291429
O O9 0.680246 0.180566 0.953163
O O10 0.739787 0.399526 0.018572
O O11 0.474876 0.273670 0.013516
O O12 0.084721 0.583517 0.824587
#
# Coordination Sequence:
#
# PCOD9549262 Si02
#       7
#     8   8   4   8   8   8   4
#     4  11  26  43  63 100 140 168 224 290 330 401
#     4  10  22  42  68  91 134 178 220 273 337 399
#     4   9  20  41  62  94 128 167 220 269 326 400
#     4  12  25  43  69 100 133 180 228 283 333 405
#     4  11  25  42  69  96 131 181 221 276 343 396
#     4  12  23  44  66 101 131 178 227 274 341 393
#     4  11  22  45  66  96 132 181 232 273 332 414
#
# _framework density 21.183648000000002
#
# number of rings (size 3 to 8) (size 9 to 14) (size 15 to 20)
#    0.000    1.000    5.000    1.000    4.667    0.000 
#    0.000    1.667    0.000    0.000    0.000    0.000 
#    0.000    0.000    0.000    0.000    0.000    0.000 
#
# Total GULP energy -267591.273856 kJ/mol
# GULP energy per Si atom -5574.818205 kJ/mol
# Density = 2.113543 g / cm^3
# Si number density = 21.183648 Si / 1000 Ang^3
#
#
#
# Elastic Constant Matrix: (Units=GPa)
#
#
# Indices 1 2 3 4 5 6 
#
# 1 82.6562 43.7528 13.4462 0.0000 0.0000 0.0000
# 2 43.7528 82.6568 13.4459 0.0000 0.0000 0.0000
# 3 13.4462 13.4459 69.5741 0.0000 0.0000 0.0000
# 4 0.0000 0.0000 0.0000 36.3193 0.0000 0.0000
# 5 0.0000 0.0000 0.0000 0.0000 36.3193 0.0000
# 6 0.0000 0.0000 0.0000 0.0000 0.0000 31.1925
#
#
#
# Elastic Compliance Matrix: (Units=1/GPa)
#
#
# Indices 1 2 3 4 5 6 
#
# 1 0.016977 -0.008727 -0.001594 0.000000 0.000000 0.000000
# 2 -0.008727 0.016977 -0.001594 0.000000 0.000000 0.000000
# 3 -0.001594 -0.001594 0.014989 0.000000 0.000000 0.000000
# 4 0.000000 0.000000 0.000000 0.027534 0.000000 0.000000
# 5 0.000000 0.000000 0.000000 0.000000 0.027534 0.000000
# 6 0.000000 0.000000 0.000000 0.000000 0.000000 0.032059
#
#
# Mechanical properties :
#
#
# Convention : Reuss Voigt Hill
#
# Bulk Modulus (GPa) = 39.82194 41.79745 40.80969
# Shear Modulus (GPa) = 29.71365 31.71570 30.71467
#
# Velocity S-wave (km/s) = 3.74929 3.87354 3.81192
# Velocity P-wave (km/s) = 6.13042 6.30710 6.21939
#
# Compressibility (1/GPa) = 0.02511179
#
# Stress axis : x y z
#
# Youngs Moduli (GPa) = 58.90206 58.90258 66.71362
#
# Poissons Ratio (x) = 0.51406 0.10637
# Poissons Ratio (y) = 0.51405 0.10636
# Poissons Ratio (z) = 0.09392 0.09391
#
# Static dielectric constant tensor:
#      x y z
#    x 1.777160 0.000000 0.000000 
#    y 0.000000 1.777160 0.000000 
#    z 0.000000 0.000000 1.864510 
# 
# From -- ./inp_files/4548.got.cif
#   From: 2010.05.17/outbox.cif.g08.bks.cpg/sg92_3_cif.got.tgz:4548.got - 2010.06.03 19:35:17.
