data_PCOD9549446
_publ_section_title
;
Structure prediction by ZEFSAII (Michael W. Deem and Ramdas Pophale) SiO2 
 PCOD9549446
Probable space group: P 41 21 2
;
_chemical_formula_sum "Si O2"
_cell_formula_units_Z 48
_cell_length_a 9.722936
_cell_length_b 9.722936
_cell_length_c 26.415534
_cell_angle_alpha 90.000000
_cell_angle_beta 90.000000
_cell_angle_gamma 90.000000
_cell_volume 2497.205304
_symmetry_space_group_name_H-M "P 41 21 2"
_symmetry_group_IT_number 92
_symmetry_cell_setting 'tetragonal'
loop_
_space_group_symop_operation_xyz
x,y,z
1/2-y,1/2+x,1/4+z
-x,-y,1/2+z
1/2+y,1/2-x,3/4+z
1/2+x,1/2-y,3/4-z
1/2-x,1/2+y,1/4-z
y,x,-z
-y,-x,1/2-z
loop_
_atom_site_type_symbol
_atom_site_label
_atom_site_fract_x
_atom_site_fract_y
_atom_site_fract_z
Si Si1 0.775766 0.004999 0.553922
Si Si2 0.202812 0.262251 0.426002
Si Si3 0.101050 0.990613 0.166973
Si Si4 0.941416 0.720860 0.719212
Si Si5 0.473824 0.728321 0.917199
Si Si6 0.445168 0.554833 0.750000
Si Si7 0.718310 0.718310 0.500000
O O1 0.839936 0.993502 0.610215
O O2 0.646761 0.104508 0.556734
O O3 0.895628 0.066231 0.517184
O O4 0.720456 0.865750 0.528078
O O5 0.203798 0.396301 0.461079
O O6 0.363550 0.234985 0.413716
O O7 0.118258 0.295416 0.375763
O O8 0.116027 0.143433 0.453692
O O9 0.183208 0.887507 0.204240
O O10 0.937813 0.955484 0.164115
O O11 0.103145 0.136344 0.194835
O O12 0.919015 0.724016 0.778806
#
# Coordination Sequence:
#
# PCOD9549446 Si02
#       7
#     8   8   8   8   8   4   4
#     4  11  26  39  66  97 132 171 216 271 329 391
#     4  11  23  43  68  94 130 171 219 271 327 396
#     4  11  21  45  66  89 132 178 213 265 335 391
#     4  11  24  43  65  98 128 166 225 275 317 394
#     4  11  23  41  71  96 126 175 221 269 335 388
#     4  11  22  45  62  92 134 171 208 267 336 390
#     4  11  24  43  66  94 132 177 214 267 334 390
#
# _framework density 19.221487
#
# number of rings (size 3 to 8) (size 9 to 14) (size 15 to 20)
#    0.000    1.000    5.000    2.000    2.333    5.333 
#    3.000    0.000    0.000    0.000    0.000    0.000 
#    0.000    0.000    0.000    0.000    0.000    0.000 
#
# Total GULP energy -267852.406361 kJ/mol
# GULP energy per Si atom -5580.258466 kJ/mol
# Density = 1.917774 g / cm^3
# Si number density = 19.221487 Si / 1000 Ang^3
#
#
#
# Elastic Constant Matrix: (Units=GPa)
#
#
# Indices 1 2 3 4 5 6 
#
# 1 49.2109 57.3797 10.0601 0.0000 0.0000 0.0000
# 2 57.3797 49.2114 10.0611 0.0000 0.0000 0.0000
# 3 10.0601 10.0611 101.6904 0.0000 0.0000 0.0000
# 4 0.0000 0.0000 0.0000 22.9792 0.0000 0.0000
# 5 0.0000 0.0000 0.0000 0.0000 22.9790 0.0000
# 6 0.0000 0.0000 0.0000 0.0000 0.0000 28.0169
#
#
#
# Elastic Compliance Matrix: (Units=1/GPa)
#
#
# Indices 1 2 3 4 5 6 
#
# 1 -0.056430 0.065991 -0.000946 0.000000 0.000000 0.000000
# 2 0.065991 -0.056430 -0.000945 0.000000 0.000000 0.000000
# 3 -0.000946 -0.000945 0.010021 0.000000 0.000000 0.000000
# 4 0.000000 0.000000 0.000000 0.043518 0.000000 0.000000
# 5 0.000000 0.000000 0.000000 0.000000 0.043518 0.000000
# 6 0.000000 0.000000 0.000000 0.000000 0.000000 0.035693
#
#
# Mechanical properties :
#
#
# Convention : Reuss Voigt Hill
#
# Bulk Modulus (GPa) = 39.43523 39.45716 39.44619
# Shear Modulus (GPa) = -50.07186 22.96913 -13.55136
#
# Velocity S-wave (km/s) = -5.10945 3.46059 -2.65809
# Velocity P-wave (km/s) = 3.77464 6.04481 3.33855
#
# Compressibility (1/GPa) = 0.02535804
#
# Stress axis : x y z
#
# Youngs Moduli (GPa) = -17.72092 -17.72101 99.79123
#
# Poissons Ratio (x) = 1.16942 0.09445
# Poissons Ratio (y) = 1.16941 0.09432
# Poissons Ratio (z) = -0.01677 -0.01675
#
# Static dielectric constant tensor:
#      x y z
#    x 1.702990 0.000000 0.000000 
#    y 0.000000 1.702990 0.000000 
#    z 0.000000 0.000000 3.525760 
# 
# From -- ./inp_files/4552.got.cif
#   From: 2010.05.17/outbox.cif.g08.bks.cpg/sg92_3_cif.got.tgz:4552.got - 2010.06.03 19:35:17.
