data_PCOD9549337
_publ_section_title
;
Structure prediction by ZEFSAII (Michael W. Deem and Ramdas Pophale) SiO2 
 PCOD9549337
Probable space group: P 41 21 2
;
_chemical_formula_sum "Si O2"
_cell_formula_units_Z 52
_cell_length_a 19.762943
_cell_length_b 19.762943
_cell_length_c 5.376392
_cell_angle_alpha 90.000000
_cell_angle_beta 90.000000
_cell_angle_gamma 90.000000
_cell_volume 2099.878478
_symmetry_space_group_name_H-M "P 41 21 2"
_symmetry_group_IT_number 92
_symmetry_cell_setting 'tetragonal'
loop_
_space_group_symop_operation_xyz
x,y,z
1/2-y,1/2+x,1/4+z
-x,-y,1/2+z
1/2+y,1/2-x,3/4+z
1/2+x,1/2-y,3/4-z
1/2-x,1/2+y,1/4-z
y,x,-z
-y,-x,1/2-z
loop_
_atom_site_type_symbol
_atom_site_label
_atom_site_fract_x
_atom_site_fract_y
_atom_site_fract_z
Si Si1 0.029983 0.203579 0.459025
Si Si2 0.185157 0.632079 0.901643
Si Si3 0.804841 0.108903 0.562307
Si Si4 0.766458 0.233543 0.250000
Si Si5 0.444762 0.194565 0.562237
Si Si6 0.982725 0.877322 0.474628
Si Si7 0.905621 0.458183 0.741348
O O1 0.083660 0.259870 0.532400
O O2 0.024792 0.152860 0.694388
O O3 0.961826 0.245858 0.387047
O O4 0.050499 0.165952 0.201256
O O5 0.226672 0.702501 0.932507
O O6 0.121182 0.649956 0.729810
O O7 0.146656 0.595849 0.127079
O O8 0.841540 0.158461 0.750000
O O9 0.769621 0.162797 0.387572
O O10 0.739306 0.057893 0.568698
O O11 0.866315 0.061728 0.474280
O O12 0.504773 0.139888 0.550956
O O13 0.951038 0.951038 0.500000
O O14 0.924864 0.523216 0.568482
#
# Coordination Sequence:
#
# PCOD9549337 Si02
#       7
#     8   8   8   4   8   8   8
#     4  11  24  47  72 106 148 195 243 309 384 455
#     4  11  23  41  69 101 148 195 253 316 376 455
#     4  10  24  44  71  99 140 188 241 305 377 448
#     4  10  26  44  66 104 140 186 252 310 376 452
#     4  10  23  43  68 103 149 198 251 307 381 448
#     4  11  26  47  75 103 143 189 242 310 388 459
#     4  12  24  40  70 110 155 210 262 316 387 471
#
# _framework density 24.763337
#
# number of rings (size 3 to 8) (size 9 to 14) (size 15 to 20)
#    0.000    1.231    0.000    5.077   10.769    0.000 
#    4.154    0.000    0.000    0.000    0.000    0.000 
#    0.000    0.000    0.000    0.000    0.000    0.000 
#
# Total GULP energy -289786.122567 kJ/mol
# GULP energy per Si atom -5572.810049 kJ/mol
# Density = 2.470697 g / cm^3
# Si number density = 24.763337 Si / 1000 Ang^3
#
#
#
# Elastic Constant Matrix: (Units=GPa)
#
#
# Indices 1 2 3 4 5 6 
#
# 1 74.3794 0.1413 15.7254 0.0000 0.0000 0.0000
# 2 0.1413 74.3775 15.7250 0.0000 0.0000 0.0000
# 3 15.7254 15.7250 85.3534 0.0000 0.0000 0.0000
# 4 0.0000 0.0000 0.0000 36.3952 0.0000 0.0000
# 5 0.0000 0.0000 0.0000 0.0000 36.3965 0.0000
# 6 0.0000 0.0000 0.0000 0.0000 0.0000 49.9386
#
#
#
# Elastic Compliance Matrix: (Units=1/GPa)
#
#
# Indices 1 2 3 4 5 6 
#
# 1 0.014010 0.000540 -0.002681 0.000000 0.000000 0.000000
# 2 0.000540 0.014011 -0.002681 0.000000 0.000000 0.000000
# 3 -0.002681 -0.002681 0.012704 0.000000 0.000000 0.000000
# 4 0.000000 0.000000 0.000000 0.027476 0.000000 0.000000
# 5 0.000000 0.000000 0.000000 0.000000 0.027475 0.000000
# 6 0.000000 0.000000 0.000000 0.000000 0.000000 0.020025
#
#
# Mechanical properties :
#
#
# Convention : Reuss Voigt Hill
#
# Bulk Modulus (GPa) = 32.17292 33.03264 32.60278
# Shear Modulus (GPa) = 36.84488 38.04731 37.44610
#
# Velocity S-wave (km/s) = 3.86149 3.92399 3.89287
# Velocity P-wave (km/s) = 5.73601 5.82225 5.77929
#
# Compressibility (1/GPa) = 0.03108204
#
# Stress axis : x y z
#
# Youngs Moduli (GPa) = 71.37594 71.37414 78.71669
#
# Poissons Ratio (x) = -0.03855 0.21102
# Poissons Ratio (y) = -0.03855 0.21102
# Poissons Ratio (z) = 0.19134 0.19134
#
# Static dielectric constant tensor:
#      x y z
#    x 2.106140 0.000000 0.000000 
#    y 0.000000 2.106150 0.000000 
#    z 0.000000 0.000000 2.075350 
# 
# From -- ./inp_files/739.got.cif
#   From: 2010.05.17/outbox.cif.g08.bks.cpg/sg92_1_cif.got.tgz:739.got - 2010.06.03 19:35:17.
