data_PCOD9549962
_publ_section_title
;
Structure prediction by ZEFSAII (Michael W. Deem and Ramdas Pophale) SiO2 
 PCOD9549962
Probable space group: P 42 21 2
;
_chemical_formula_sum "Si O2"
_cell_formula_units_Z 56
_cell_length_a 10.910065
_cell_length_b 10.910065
_cell_length_c 23.475279
_cell_angle_alpha 90.000000
_cell_angle_beta 90.000000
_cell_angle_gamma 90.000000
_cell_volume 2794.251151
_symmetry_space_group_name_H-M "P 42 21 2"
_symmetry_group_IT_number 94
_symmetry_cell_setting 'tetragonal'
loop_
_space_group_symop_operation_xyz
x,y,z
1/2-y,1/2+x,1/2+z
-x,-y,z
1/2+y,1/2-x,1/2+z
1/2+x,1/2-y,1/2-z
1/2-x,1/2+y,1/2-z
y,x,-z
-y,-x,-z
loop_
_atom_site_type_symbol
_atom_site_label
_atom_site_fract_x
_atom_site_fract_y
_atom_site_fract_z
Si Si1 0.087267 0.604078 0.193322
Si Si2 0.756925 0.700571 0.353176
Si Si3 0.825200 0.018763 0.451877
Si Si4 0.945091 0.777242 0.793791
Si Si5 0.530885 0.306803 0.228648
Si Si6 0.219283 0.839051 0.638226
Si Si7 0.249201 0.065448 0.560434
O O1 0.160019 0.689219 0.149239
O O2 0.178279 0.549234 0.241966
O O3 0.000000 0.500000 0.168890
O O4 0.006605 0.699266 0.229064
O O5 0.903114 0.909558 0.235601
O O6 0.867030 0.751411 0.313581
O O7 0.818567 0.681949 0.414164
O O8 0.899721 0.100280 0.500000
O O9 0.786770 0.108646 0.400887
O O10 0.724116 0.055221 0.597415
O O11 0.900692 0.898024 0.431334
O O12 0.927080 0.215109 0.826530
O O13 0.830049 0.739151 0.834886
O O14 0.412629 0.340065 0.191186
O O15 0.273660 0.040351 0.494337
#
# Coordination Sequence:
#
# PCOD9549962 Si02
#       7
#     8   8   8   8   8   8   8
#     4  10  19  35  51  71 117 163 201 247 290 360
#     4  10  20  33  50  78 108 161 199 235 312 358
#     4   9  16  32  52  85 111 131 183 263 322 365
#     4  10  20  34  48  77 119 153 201 243 287 380
#     4   9  19  33  46  74 112 159 194 236 282 360
#     4   9  17  30  52  77 109 153 182 234 314 353
#     4   9  17  30  52  81 110 140 184 250 319 363
#
# _framework density 20.041148
#
# number of rings (size 3 to 8) (size 9 to 14) (size 15 to 20)
#    0.000    2.571    1.429    3.000    0.000    1.714 
#   25.714    0.000    0.000    0.000   55.714    0.000 
#    0.000    0.000    0.000    3.429    0.000    0.000 
#
# Total GULP energy -312104.745203 kJ/mol
# GULP energy per Si atom -5573.299021 kJ/mol
# Density = 1.999553 g / cm^3
# Si number density = 20.041148 Si / 1000 Ang^3
#
#
#
# Elastic Constant Matrix: (Units=GPa)
#
#
# Indices 1 2 3 4 5 6 
#
# 1 67.4930 43.8042 38.3085 0.0000 0.0000 0.0000
# 2 43.8042 67.4930 38.3085 0.0000 0.0000 0.0000
# 3 38.3085 38.3085 78.4741 0.0000 0.0000 0.0000
# 4 0.0000 0.0000 0.0000 23.2047 0.0000 0.0000
# 5 0.0000 0.0000 0.0000 0.0000 23.2048 0.0000
# 6 0.0000 0.0000 0.0000 0.0000 0.0000 32.2031
#
#
#
# Elastic Compliance Matrix: (Units=1/GPa)
#
#
# Indices 1 2 3 4 5 6 
#
# 1 0.027873 -0.014341 -0.006606 0.000000 0.000000 0.000000
# 2 -0.014341 0.027873 -0.006606 0.000000 0.000000 0.000000
# 3 -0.006606 -0.006606 0.019193 0.000000 0.000000 0.000000
# 4 0.000000 0.000000 0.000000 0.043095 0.000000 0.000000
# 5 0.000000 0.000000 0.000000 0.000000 0.043095 0.000000
# 6 0.000000 0.000000 0.000000 0.000000 0.000000 0.031053
#
#
# Mechanical properties :
#
#
# Convention : Reuss Voigt Hill
#
# Bulk Modulus (GPa) = 50.41994 50.47807 50.44901
# Shear Modulus (GPa) = 19.69285 21.92512 20.80898
#
# Velocity S-wave (km/s) = 3.13808 3.31116 3.22578
# Velocity P-wave (km/s) = 6.19216 6.31350 6.25313
#
# Compressibility (1/GPa) = 0.01983342
#
# Stress axis : x y z
#
# Youngs Moduli (GPa) = 35.87650 35.87650 52.10255
#
# Poissons Ratio (x) = 0.51450 0.34420
# Poissons Ratio (y) = 0.51450 0.34420
# Poissons Ratio (z) = 0.23701 0.23701
#
# Static dielectric constant tensor:
#      x y z
#    x 1.760680 0.000000 0.000000 
#    y 0.000000 1.760680 0.000000 
#    z 0.000000 0.000000 1.768480 
# 
# From -- ./inp_files/5115.got.cif
#   From: 2010.05.17/outbox.cif.g08.bks.cpg/sg94_3_cif.got.tgz:5115.got - 2010.06.03 19:43:16.
