data_PCOD9549149
_publ_section_title
;
Structure prediction by ZEFSAII (Michael W. Deem and Ramdas Pophale) SiO2 
 PCOD9549149
Probable space group: P 41 21 2
;
_chemical_formula_sum "Si O2"
_cell_formula_units_Z 48
_cell_length_a 8.666832
_cell_length_b 8.666832
_cell_length_c 25.206383
_cell_angle_alpha 90.000000
_cell_angle_beta 90.000000
_cell_angle_gamma 90.000000
_cell_volume 1893.351671
_symmetry_space_group_name_H-M "P 41 21 2"
_symmetry_group_IT_number 92
_symmetry_cell_setting 'tetragonal'
loop_
_space_group_symop_operation_xyz
x,y,z
1/2-y,1/2+x,1/4+z
-x,-y,1/2+z
1/2+y,1/2-x,3/4+z
1/2+x,1/2-y,3/4-z
1/2-x,1/2+y,1/4-z
y,x,-z
-y,-x,1/2-z
loop_
_atom_site_type_symbol
_atom_site_label
_atom_site_fract_x
_atom_site_fract_y
_atom_site_fract_z
Si Si1 0.168922 0.752235 0.008837
Si Si2 0.025306 0.318497 0.949013
Si Si3 0.881372 0.897298 0.650405
Si Si4 0.606082 0.181503 0.172560
Si Si5 0.094814 0.631305 0.640265
Si Si6 0.702686 0.494276 0.435299
O O1 0.216422 0.930869 0.009547
O O2 0.271304 0.680804 0.056501
O O3 0.993804 0.711279 0.024730
O O4 0.233790 0.666857 0.957366
O O5 0.025003 0.222283 0.894442
O O6 0.943476 0.481139 0.934323
O O7 0.196622 0.373367 0.963016
O O8 0.979326 0.021590 0.683935
O O9 0.990759 0.774700 0.621196
O O10 0.629888 0.003032 0.153242
O O11 0.499137 0.249212 0.125870
O O12 0.757533 0.287325 0.166901
#
# Coordination Sequence:
#
# PCOD9549149 Si02
#       6
#     8   8   8   8   8   8
#     4  11  23  39  65  94 125 175 216 269 324 390
#     4  10  21  41  64  92 128 170 213 276 320 384
#     4  11  19  42  65  92 124 170 222 266 325 383
#     4  11  22  41  60  96 131 168 215 270 332 391
#     4  10  22  37  68  89 124 175 210 263 333 388
#     4  11  22  38  66  93 130 166 222 264 332 392
#
# _framework density 25.351863999999999
#
# number of rings (size 3 to 8) (size 9 to 14) (size 15 to 20)
#    0.000    1.333    5.000    2.500    0.000    2.667 
#    0.000    8.333    0.000    0.000    0.000    0.000 
#    0.000    0.000    0.000    0.000    0.000    0.000 
#
# Total GULP energy -268389.612735 kJ/mol
# GULP energy per Si atom -5591.450265 kJ/mol
# Density = 2.529416 g / cm^3
# Si number density = 25.351864 Si / 1000 Ang^3
#
#
#
# Elastic Constant Matrix: (Units=GPa)
#
#
# Indices 1 2 3 4 5 6 
#
# 1 124.7559 72.1729 19.6462 0.0000 0.0000 0.0000
# 2 72.1729 124.7559 19.6462 0.0000 0.0000 0.0000
# 3 19.6462 19.6462 48.6618 0.0000 0.0000 0.0000
# 4 0.0000 0.0000 0.0000 26.5522 0.0000 0.0000
# 5 0.0000 0.0000 0.0000 0.0000 26.5522 0.0000
# 6 0.0000 0.0000 0.0000 0.0000 0.0000 55.8575
#
#
#
# Elastic Compliance Matrix: (Units=1/GPa)
#
#
# Indices 1 2 3 4 5 6 
#
# 1 0.012270 -0.006747 -0.002230 0.000000 0.000000 0.000000
# 2 -0.006747 0.012270 -0.002230 0.000000 0.000000 0.000000
# 3 -0.002230 -0.002230 0.022350 0.000000 0.000000 0.000000
# 4 0.000000 0.000000 0.000000 0.037662 0.000000 0.000000
# 5 0.000000 0.000000 0.000000 0.000000 0.037662 0.000000
# 6 0.000000 0.000000 0.000000 0.000000 0.000000 0.017903
#
#
# Mechanical properties :
#
#
# Convention : Reuss Voigt Hill
#
# Bulk Modulus (GPa) = 40.85435 57.90046 49.37740
# Shear Modulus (GPa) = 29.29291 34.23958 31.76624
#
# Velocity S-wave (km/s) = 3.40288 3.67900 3.54363
# Velocity P-wave (km/s) = 5.62045 6.39805 6.02181
#
# Compressibility (1/GPa) = 0.02447720
#
# Stress axis : x y z
#
# Youngs Moduli (GPa) = 81.49820 81.49820 44.74185
#
# Poissons Ratio (x) = 0.54990 0.09976
# Poissons Ratio (y) = 0.54990 0.09976
# Poissons Ratio (z) = 0.18172 0.18172
#
# Static dielectric constant tensor:
#      x y z
#    x 2.066200 0.000000 0.000000 
#    y 0.000000 2.066200 0.000000 
#    z 0.000000 0.000000 1.931650 
# 
# From -- ./inp_files/4474.got.cif
#   From: 2010.05.17/outbox.cif.g08.bks.cpg/sg92_3_cif.got.tgz:4474.got - 2010.06.03 19:35:17.
