data_PCOD9549830
_publ_section_title
;
Structure prediction by ZEFSAII (Michael W. Deem and Ramdas Pophale) SiO2 
 PCOD9549830
Probable space group: P 42 2 2
;
_chemical_formula_sum "Si O2"
_cell_formula_units_Z 54
_cell_length_a 14.567638
_cell_length_b 14.567638
_cell_length_c 12.188378
_cell_angle_alpha 90.000000
_cell_angle_beta 90.000000
_cell_angle_gamma 90.000000
_cell_volume 2586.569763
_symmetry_space_group_name_H-M "P 42 2 2"
_symmetry_group_IT_number 93
_symmetry_cell_setting 'tetragonal'
loop_
_space_group_symop_operation_xyz
x,y,z
-y,x,1/2+z
-x,-y,z
y,-x,1/2+z
x,-y,-z
-x,y,-z
y,x,1/2-z
-y,-x,1/2-z
loop_
_atom_site_type_symbol
_atom_site_label
_atom_site_fract_x
_atom_site_fract_y
_atom_site_fract_z
Si Si1 0.670409 0.554488 0.395605
Si Si2 0.030560 0.679344 0.616634
Si Si3 0.741069 0.554041 0.791926
Si Si4 0.729187 0.827973 0.832259
Si Si5 0.500000 0.355327 0.500000
Si Si6 0.231066 0.254792 0.422422
Si Si7 0.500000 0.000000 0.500000
Si Si8 0.611745 0.879072 0.331357
O O1 0.711659 0.500000 0.500000
O O2 0.668135 0.484174 0.295637
O O3 0.569834 0.586879 0.428330
O O4 0.727844 0.648084 0.379460
O O5 0.121731 0.742674 0.603803
O O6 0.058339 0.621963 0.723346
O O7 0.000000 0.632507 0.500000
O O8 0.935063 0.726524 0.644261
O O9 0.790929 0.639772 0.734625
O O10 0.702312 0.562434 0.914826
O O11 0.807412 0.467347 0.802793
O O12 0.811074 0.811074 0.750000
O O13 0.741434 0.771556 0.945043
O O14 0.295723 0.175093 0.371167
O O15 0.567975 0.938495 0.427870
#
# Coordination Sequence:
#
# PCOD9549830 Si02
#       8
#     8   8   8   8   4   8   2   8
#     4  12  24  43  62  94 133 188 243 289 343 415
#     4  10  24  45  72 106 133 181 241 290 356 434
#     4  12  25  41  68  97 135 188 243 291 365 430
#     4  11  25  44  69 100 143 183 234 305 365 430
#     4  12  26  40  61  93 140 188 246 296 348 436
#     4  11  23  45  71 101 137 191 235 291 365 435
#     4  12  30  44  64 124 144 180 240 296 352 442
#     4  12  25  45  74 102 151 181 236 294 372 434
#
# _framework density 20.877071000000001
#
# number of rings (size 3 to 8) (size 9 to 14) (size 15 to 20)
#    0.000    0.593    4.444    3.333    4.148    0.000 
#    0.000    4.074    0.000    1.778    0.000    0.000 
#    0.000    0.000    0.000    0.000    0.000    0.000 
#
# Total GULP energy -301506.117715 kJ/mol
# GULP energy per Si atom -5583.446624 kJ/mol
# Density = 2.082955 g / cm^3
# Si number density = 20.877071 Si / 1000 Ang^3
#
#
#
# Elastic Constant Matrix: (Units=GPa)
#
#
# Indices 1 2 3 4 5 6 
#
# 1 -173.6322 311.5084 44.7813 0.0000 0.0000 0.0000
# 2 311.5084 -173.6322 44.7813 0.0000 0.0000 0.0000
# 3 44.7813 44.7813 138.9596 0.0000 0.0000 0.0000
# 4 0.0000 0.0000 0.0000 29.5500 0.0000 0.0000
# 5 0.0000 0.0000 0.0000 0.0000 29.5500 0.0000
# 6 0.0000 0.0000 0.0000 0.0000 0.0000 2.8001
#
#
#
# Elastic Compliance Matrix: (Units=1/GPa)
#
#
# Indices 1 2 3 4 5 6 
#
# 1 0.003556 0.005617 -0.002956 0.000000 0.000000 0.000000
# 2 0.005617 0.003556 -0.002956 0.000000 0.000000 0.000000
# 3 -0.002956 -0.002956 0.009102 0.000000 0.000000 0.000000
# 4 0.000000 0.000000 0.000000 0.033841 0.000000 0.000000
# 5 0.000000 0.000000 0.000000 0.000000 0.033841 0.000000
# 6 0.000000 0.000000 0.000000 0.000000 0.000000 0.357126
#
#
# Mechanical properties :
#
#
# Convention : Reuss Voigt Hill
#
# Bulk Modulus (GPa) = 64.00675 65.98190 64.99432
# Shear Modulus (GPa) = 11.19020 -28.24505 -8.52742
#
# Velocity S-wave (km/s) = 2.31769 -3.68220 -2.02323
# Velocity P-wave (km/s) = 6.15530 3.68720 5.07361
#
# Compressibility (1/GPa) = 0.01562335
#
# Stress axis : x y z
#
# Youngs Moduli (GPa) = 281.21874 281.21874 109.87025
#
# Poissons Ratio (x) = -1.57966 0.32479
# Poissons Ratio (y) = -1.57966 0.32479
# Poissons Ratio (z) = 0.83133 0.83133
#
# Static dielectric constant tensor:
#      x y z
#    x 1.765320 0.000000 0.000000 
#    y 0.000000 1.765320 0.000000 
#    z 0.000000 0.000000 1.431510 
# 
# From -- ./inp_files/3544.got.cif
#   From: 2010.05.17/outbox.cif.g08.bks.cpg/sg93_2_cif.got.tgz:3544.got - 2010.06.03 19:38:44.
