data_PCOD9549569
_publ_section_title
;
Structure prediction by ZEFSAII (Michael W. Deem and Ramdas Pophale) SiO2 
 PCOD9549569
Probable space group: P 41 21 2
;
_chemical_formula_sum "Si O2"
_cell_formula_units_Z 24
_cell_length_a 13.547680
_cell_length_b 13.547680
_cell_length_c 5.226284
_cell_angle_alpha 90.000000
_cell_angle_beta 90.000000
_cell_angle_gamma 90.000000
_cell_volume 959.230249
_symmetry_space_group_name_H-M "P 41 21 2"
_symmetry_group_IT_number 92
_symmetry_cell_setting 'tetragonal'
loop_
_space_group_symop_operation_xyz
x,y,z
1/2-y,1/2+x,1/4+z
-x,-y,1/2+z
1/2+y,1/2-x,3/4+z
1/2+x,1/2-y,3/4-z
1/2-x,1/2+y,1/4-z
y,x,-z
-y,-x,1/2-z
loop_
_atom_site_type_symbol
_atom_site_label
_atom_site_fract_x
_atom_site_fract_y
_atom_site_fract_z
Si Si1 0.104719 0.192791 0.264811
Si Si2 0.397677 0.397677 0.500000
Si Si3 0.388266 0.099667 0.997540
Si Si4 0.813282 0.186719 0.750000
O O1 0.178131 0.178131 0.500000
O O2 0.079603 0.308152 0.228185
O O3 0.008041 0.129658 0.325362
O O4 0.148469 0.148469 0.000000
O O5 0.378509 0.332900 0.751391
O O6 0.501521 0.114950 0.917591
O O7 0.344991 0.204061 0.093690
#
# Coordination Sequence:
#
# PCOD9549569 Si02
#       4
#     8   4   8   4
#     4  12  27  49  82 118 161 214 274 340 414 494
#     4  12  26  51  80 118 159 218 268 344 408 498
#     4  12  30  51  83 125 165 222 278 349 418 506
#     4  12  28  51  80 114 165 212 268 336 424 486
#
# _framework density 25.020063
#
# number of rings (size 3 to 8) (size 9 to 14) (size 15 to 20)
#    0.000    0.000    5.000    3.000    7.000    0.000 
#    0.000    0.000    0.000    0.000    0.000    0.000 
#    0.000    0.000    0.000    0.000    0.000    0.000 
#
# Total GULP energy -134303.996830 kJ/mol
# GULP energy per Si atom -5595.999868 kJ/mol
# Density = 2.496312 g / cm^3
# Si number density = 25.020063 Si / 1000 Ang^3
#
#
#
# Elastic Constant Matrix: (Units=GPa)
#
#
# Indices 1 2 3 4 5 6 
#
# 1 274.3009 -99.0159 27.0214 0.0000 0.0000 0.0000
# 2 -99.0159 274.3218 27.0252 0.0000 0.0000 0.0000
# 3 27.0214 27.0252 84.2707 0.0000 0.0000 0.0000
# 4 0.0000 0.0000 0.0000 35.6802 0.0000 0.0000
# 5 0.0000 0.0000 0.0000 0.0000 35.6800 0.0000
# 6 0.0000 0.0000 0.0000 0.0000 0.0000 48.7207
#
#
#
# Elastic Compliance Matrix: (Units=1/GPa)
#
#
# Indices 1 2 3 4 5 6 
#
# 1 0.004505 0.001826 -0.002030 0.000000 0.000000 0.000000
# 2 0.001826 0.004504 -0.002030 0.000000 0.000000 0.000000
# 3 -0.002030 -0.002030 0.013168 0.000000 0.000000 0.000000
# 4 0.000000 0.000000 0.000000 0.028027 0.000000 0.000000
# 5 0.000000 0.000000 0.000000 0.000000 0.028027 0.000000
# 6 0.000000 0.000000 0.000000 0.000000 0.000000 0.020525
#
#
# Mechanical properties :
#
#
# Convention : Reuss Voigt Hill
#
# Bulk Modulus (GPa) = 56.46707 60.32831 58.39769
# Shear Modulus (GPa) = 45.81782 69.20701 57.51241
#
# Velocity S-wave (km/s) = 4.28395 5.26504 4.79963
# Velocity P-wave (km/s) = 6.86202 7.81826 7.35569
#
# Compressibility (1/GPa) = 0.01770944
#
# Stress axis : x y z
#
# Youngs Moduli (GPa) = 221.98846 222.00384 75.93895
#
# Poissons Ratio (x) = -0.40537 0.15416
# Poissons Ratio (y) = -0.40534 0.15416
# Poissons Ratio (z) = 0.45064 0.45068
#
# Static dielectric constant tensor:
#      x y z
#    x 2.016170 0.000000 0.000000 
#    y 0.000000 2.016160 0.000000 
#    z 0.000000 0.000000 1.823630 
# 
# From -- ./inp_files/168.got.cif
#   From: 2010.05.17/outbox.cif.g08.bks.cpg/sg92_1_cif.got.tgz:168.got - 2010.06.03 19:35:17.
