data_PCOD9549447
_publ_section_title
;
Structure prediction by ZEFSAII (Michael W. Deem and Ramdas Pophale) SiO2 
 PCOD9549447
Probable space group: P 41 21 2
;
_chemical_formula_sum "Si O2"
_cell_formula_units_Z 44
_cell_length_a 9.223156
_cell_length_b 9.223156
_cell_length_c 25.627464
_cell_angle_alpha 90.000000
_cell_angle_beta 90.000000
_cell_angle_gamma 90.000000
_cell_volume 2180.041398
_symmetry_space_group_name_H-M "P 41 21 2"
_symmetry_group_IT_number 92
_symmetry_cell_setting 'tetragonal'
loop_
_space_group_symop_operation_xyz
x,y,z
1/2-y,1/2+x,1/4+z
-x,-y,1/2+z
1/2+y,1/2-x,3/4+z
1/2+x,1/2-y,3/4-z
1/2-x,1/2+y,1/4-z
y,x,-z
-y,-x,1/2-z
loop_
_atom_site_type_symbol
_atom_site_label
_atom_site_fract_x
_atom_site_fract_y
_atom_site_fract_z
Si Si1 0.551611 0.832927 0.433779
Si Si2 0.908474 0.664146 0.820404
Si Si3 0.829337 0.061944 0.577684
Si Si4 0.407422 0.397658 0.623819
Si Si5 0.315824 0.649852 0.461597
Si Si6 0.821826 0.821826 0.500000
O O1 0.519049 0.770396 0.376736
O O2 0.463945 0.733148 0.474035
O O3 0.716596 0.805978 0.450894
O O4 0.525111 0.003411 0.434713
O O5 0.747651 0.641431 0.845483
O O6 0.897693 0.736688 0.763754
O O7 0.010865 0.769961 0.854131
O O8 0.796070 0.978400 0.524301
O O9 0.990205 0.008330 0.593045
O O10 0.777697 0.224440 0.566783
O O11 0.513305 0.344470 0.576469
#
# Coordination Sequence:
#
# PCOD9549447 Si02
#       6
#     8   8   8   8   8   4
#     4  11  24  40  69  99 129 185 225 286 334 410
#     4  12  25  46  65 100 141 176 225 281 354 410
#     4  11  21  45  69  93 136 172 237 280 330 405
#     4  11  26  43  65 101 135 180 222 287 343 406
#     4  11  24  43  67  98 131 177 230 273 340 408
#     4  12  22  44  70  98 136 176 240 288 332 410
#
# _framework density 20.183102000000002
#
# number of rings (size 3 to 8) (size 9 to 14) (size 15 to 20)
#    0.000    0.727    5.455    1.636    7.636    2.909 
#    0.000    0.000    0.000    0.000    0.000    0.000 
#    0.000    0.000    0.000    0.000    0.000    0.000 
#
# Total GULP energy -245468.432338 kJ/mol
# GULP energy per Si atom -5578.828008 kJ/mol
# Density = 2.013716 g / cm^3
# Si number density = 20.183102 Si / 1000 Ang^3
#
#
#
# Elastic Constant Matrix: (Units=GPa)
#
#
# Indices 1 2 3 4 5 6 
#
# 1 48.8778 42.5997 13.5581 0.0000 0.0000 0.0000
# 2 42.5997 48.8778 13.5581 0.0000 0.0000 0.0000
# 3 13.5581 13.5581 67.3771 0.0000 0.0000 0.0000
# 4 0.0000 0.0000 0.0000 29.2508 0.0000 0.0000
# 5 0.0000 0.0000 0.0000 0.0000 29.2508 0.0000
# 6 0.0000 0.0000 0.0000 0.0000 0.0000 43.8637
#
#
#
# Elastic Compliance Matrix: (Units=1/GPa)
#
#
# Indices 1 2 3 4 5 6 
#
# 1 0.085455 -0.073830 -0.002339 0.000000 0.000000 0.000000
# 2 -0.073830 0.085455 -0.002339 0.000000 0.000000 0.000000
# 3 -0.002339 -0.002339 0.015783 0.000000 0.000000 0.000000
# 4 0.000000 0.000000 0.000000 0.034187 0.000000 0.000000
# 5 0.000000 0.000000 0.000000 0.000000 0.034187 0.000000
# 6 0.000000 0.000000 0.000000 0.000000 0.000000 0.022798
#
#
# Mechanical properties :
#
#
# Convention : Reuss Voigt Hill
#
# Bulk Modulus (GPa) = 33.69690 33.84050 33.76870
# Shear Modulus (GPa) = 11.24168 26.83420 19.03794
#
# Velocity S-wave (km/s) = 2.36261 3.65024 3.07459
# Velocity P-wave (km/s) = 4.91675 5.87952 5.41956
#
# Compressibility (1/GPa) = 0.02967632
#
# Stress axis : x y z
#
# Youngs Moduli (GPa) = 11.70210 11.70210 63.35813
#
# Poissons Ratio (x) = 0.86396 0.14821
# Poissons Ratio (y) = 0.86396 0.14821
# Poissons Ratio (z) = 0.02737 0.02737
#
# Static dielectric constant tensor:
#      x y z
#    x 1.722220 0.000000 0.000000 
#    y 0.000000 1.722220 0.000000 
#    z 0.000000 0.000000 1.723480 
# 
# From -- ./inp_files/4427.got.cif
#   From: 2010.05.17/outbox.cif.g08.bks.cpg/sg92_3_cif.got.tgz:4427.got - 2010.06.03 19:35:17.
