data_PCOD9549155
_publ_section_title
;
Structure prediction by ZEFSAII (Michael W. Deem and Ramdas Pophale) SiO2 
 PCOD9549155
Probable space group: P 41 21 2
;
_chemical_formula_sum "Si O2"
_cell_formula_units_Z 64
_cell_length_a 11.317372
_cell_length_b 11.317372
_cell_length_c 20.462862
_cell_angle_alpha 90.000000
_cell_angle_beta 90.000000
_cell_angle_gamma 90.000000
_cell_volume 2620.942891
_symmetry_space_group_name_H-M "P 41 21 2"
_symmetry_group_IT_number 92
_symmetry_cell_setting 'tetragonal'
loop_
_space_group_symop_operation_xyz
x,y,z
1/2-y,1/2+x,1/4+z
-x,-y,1/2+z
1/2+y,1/2-x,3/4+z
1/2+x,1/2-y,3/4-z
1/2-x,1/2+y,1/4-z
y,x,-z
-y,-x,1/2-z
loop_
_atom_site_type_symbol
_atom_site_label
_atom_site_fract_x
_atom_site_fract_y
_atom_site_fract_z
Si Si1 0.718999 0.158485 0.381170
Si Si2 0.682884 0.181061 0.693056
Si Si3 0.066851 0.951002 0.558721
Si Si4 0.621494 0.276809 0.041060
Si Si5 0.547301 0.964648 0.217014
Si Si6 0.249927 0.561317 0.438663
Si Si7 0.214435 0.465711 0.764477
Si Si8 0.620215 0.579460 0.387892
O O1 0.718047 0.297736 0.392913
O O2 0.816563 0.108205 0.433261
O O3 0.591630 0.111588 0.403974
O O4 0.759243 0.081060 0.319509
O O5 0.735591 0.264410 0.750000
O O6 0.580097 0.095640 0.717819
O O7 0.625667 0.253292 0.631717
O O8 0.788304 0.103861 0.661296
O O9 0.976090 0.976090 0.500000
O O10 0.001284 0.006888 0.620990
O O11 0.190830 0.013952 0.538271
O O12 0.648726 0.149157 0.012987
O O13 0.488365 0.304309 0.057996
O O14 0.665816 0.375588 0.990236
O O15 0.620165 0.922735 0.279996
O O16 0.546912 0.106086 0.214346
O O17 0.297776 0.424971 0.823695
#
# Coordination Sequence:
#
# PCOD9549155 Si02
#       8
#     8   8   8   8   8   8   8   8
#     4   9  21  39  62  96 126 175 218 260 336 389
#     4  11  24  42  62 103 128 173 225 269 346 397
#     4   9  21  40  67  95 133 178 220 271 340 403
#     4  10  21  41  67  94 135 174 216 279 337 396
#     4  10  23  40  67  96 128 173 222 273 337 396
#     4  10  22  45  65  91 138 171 221 284 329 404
#     4  10  21  43  66  98 132 174 223 281 337 397
#     4  11  23  42  69  97 135 175 225 277 339 409
#
# _framework density 24.418693000000001
#
# number of rings (size 3 to 8) (size 9 to 14) (size 15 to 20)
#    0.000    2.000    1.250    0.750    3.500    8.000 
#    9.000    0.000    0.000    0.000    0.000    0.000 
#    0.000    0.000    0.000    0.000    0.000    0.000 
#
# Total GULP energy -357705.881904 kJ/mol
# GULP energy per Si atom -5589.154405 kJ/mol
# Density = 2.436312 g / cm^3
# Si number density = 24.418693 Si / 1000 Ang^3
#
#
#
# Elastic Constant Matrix: (Units=GPa)
#
#
# Indices 1 2 3 4 5 6 
#
# 1 80.9924 -9.4826 6.6976 0.0000 0.0000 0.0000
# 2 -9.4826 80.9924 6.6976 0.0000 0.0000 0.0000
# 3 6.6976 6.6976 68.9518 0.0000 0.0000 0.0000
# 4 0.0000 0.0000 0.0000 32.4515 0.0000 0.0000
# 5 0.0000 0.0000 0.0000 0.0000 32.4514 0.0000
# 6 0.0000 0.0000 0.0000 0.0000 0.0000 15.6696
#
#
#
# Elastic Compliance Matrix: (Units=1/GPa)
#
#
# Indices 1 2 3 4 5 6 
#
# 1 0.012648 0.001595 -0.001384 0.000000 0.000000 0.000000
# 2 0.001595 0.012648 -0.001384 0.000000 0.000000 0.000000
# 3 -0.001384 -0.001384 0.014772 0.000000 0.000000 0.000000
# 4 0.000000 0.000000 0.000000 0.030815 0.000000 0.000000
# 5 0.000000 0.000000 0.000000 0.000000 0.030815 0.000000
# 6 0.000000 0.000000 0.000000 0.000000 0.000000 0.063818
#
#
# Mechanical properties :
#
#
# Convention : Reuss Voigt Hill
#
# Bulk Modulus (GPa) = 26.50822 26.52908 26.51865
# Shear Modulus (GPa) = 27.71090 31.24943 29.48016
#
# Velocity S-wave (km/s) = 3.37237 3.58122 3.47836
# Velocity P-wave (km/s) = 5.10324 5.29037 5.19765
#
# Compressibility (1/GPa) = 0.03772414
#
# Stress axis : x y z
#
# Youngs Moduli (GPa) = 79.06380 79.06380 67.69721
#
# Poissons Ratio (x) = -0.12613 0.09366
# Poissons Ratio (y) = -0.12613 0.09366
# Poissons Ratio (z) = 0.10938 0.10939
#
# Static dielectric constant tensor:
#      x y z
#    x 1.957290 0.000000 0.000000 
#    y 0.000000 1.957290 0.000000 
#    z 0.000000 0.000000 2.017040 
# 
# From -- ./inp_files/4000.got.cif
#   From: 2010.05.17/outbox.cif.g08.bks.cpg/sg92_2_cif.got.tgz:4000.got - 2010.06.03 19:35:17.
