data_PCOD9549772
_publ_section_title
;
Structure prediction by ZEFSAII (Michael W. Deem and Ramdas Pophale) SiO2 
 PCOD9549772
Probable space group: P 42 2 2
;
_chemical_formula_sum "Si O2"
_cell_formula_units_Z 34
_cell_length_a 10.923922
_cell_length_b 10.923922
_cell_length_c 12.385666
_cell_angle_alpha 90.000000
_cell_angle_beta 90.000000
_cell_angle_gamma 90.000000
_cell_volume 1478.007185
_symmetry_space_group_name_H-M "P 42 2 2"
_symmetry_group_IT_number 93
_symmetry_cell_setting 'tetragonal'
loop_
_space_group_symop_operation_xyz
x,y,z
-y,x,1/2+z
-x,-y,z
y,-x,1/2+z
x,-y,-z
-x,y,-z
y,x,1/2-z
-y,-x,1/2-z
loop_
_atom_site_type_symbol
_atom_site_label
_atom_site_fract_x
_atom_site_fract_y
_atom_site_fract_z
Si Si1 0.941533 0.633347 0.781990
Si Si2 0.198956 0.290753 0.137484
Si Si3 0.434871 0.305346 0.651376
Si Si4 0.643005 0.138882 0.034684
Si Si5 0.500000 0.500000 0.000000
O O1 0.825360 0.626758 0.860245
O O2 0.875987 0.665067 0.665567
O O3 0.000000 0.500000 0.757826
O O4 0.051516 0.695448 0.850133
O O5 0.225538 0.225538 0.250000
O O6 0.267490 0.422460 0.150260
O O7 0.263320 0.217914 0.039545
O O8 0.381018 0.381018 0.750000
O O9 0.415478 0.407092 0.562674
O O10 0.500000 0.164452 0.000000
O O11 0.664374 0.000000 0.000000
#
# Coordination Sequence:
#
# PCOD9549772 Si02
#       5
#     8   8   8   8   2
#     4  10  21  42  64 103 158 205 253 314 390 481
#     4  11  21  37  69 108 151 200 266 312 382 475
#     4  11  26  44  68 106 157 194 247 330 403 466
#     4  11  19  34  65 111 155 207 262 314 388 470
#     4  12  26  44  66 106 142 200 252 308 412 480
#
# _framework density 23.003948000000001
#
# number of rings (size 3 to 8) (size 9 to 14) (size 15 to 20)
#    0.000    1.176    4.706    3.176    4.941    0.000 
#    0.000    5.294    0.000    0.706    0.000    8.235 
#    0.000    0.000    0.000    0.000    0.000    0.000 
#
# Total GULP energy -189324.514015 kJ/mol
# GULP energy per Si atom -5568.368059 kJ/mol
# Density = 2.295159 g / cm^3
# Si number density = 23.003948 Si / 1000 Ang^3
#
#
#
# Elastic Constant Matrix: (Units=GPa)
#
#
# Indices 1 2 3 4 5 6 
#
# 1 167.4511 81.7893 94.8860 0.0000 0.0000 0.0000
# 2 81.7893 167.4511 94.8860 0.0000 0.0000 0.0000
# 3 94.8860 94.8860 113.9855 0.0000 0.0000 0.0000
# 4 0.0000 0.0000 0.0000 23.5936 0.0000 0.0000
# 5 0.0000 0.0000 0.0000 0.0000 23.5936 0.0000
# 6 0.0000 0.0000 0.0000 0.0000 0.0000 27.3025
#
#
#
# Elastic Compliance Matrix: (Units=1/GPa)
#
#
# Indices 1 2 3 4 5 6 
#
# 1 0.011315 -0.000358 -0.009121 0.000000 0.000000 0.000000
# 2 -0.000358 0.011315 -0.009121 0.000000 0.000000 0.000000
# 3 -0.009121 -0.009121 0.023958 0.000000 0.000000 0.000000
# 4 0.000000 0.000000 0.000000 0.042384 0.000000 0.000000
# 5 0.000000 0.000000 0.000000 0.000000 0.042384 0.000000
# 6 0.000000 0.000000 0.000000 0.000000 0.000000 0.036627
#
#
# Mechanical properties :
#
#
# Convention : Reuss Voigt Hill
#
# Bulk Modulus (GPa) = 106.51544 110.22337 108.36940
# Shear Modulus (GPa) = 24.00216 26.71971 25.36093
#
# Velocity S-wave (km/s) = 3.23366 3.41182 3.32393
# Velocity P-wave (km/s) = 7.76825 7.97118 7.87037
#
# Compressibility (1/GPa) = 0.00938831
#
# Stress axis : x y z
#
# Youngs Moduli (GPa) = 88.37547 88.37547 41.73911
#
# Poissons Ratio (x) = 0.03168 0.38070
# Poissons Ratio (y) = 0.03168 0.38070
# Poissons Ratio (z) = 0.80607 0.80607
#
# Static dielectric constant tensor:
#      x y z
#    x 2.233900 0.000000 0.000000 
#    y 0.000000 2.233900 0.000000 
#    z 0.000000 0.000000 1.736240 
# 
# From -- ./inp_files/3145.got.cif
#   From: 2010.05.17/outbox.cif.g08.bks.cpg/sg93_2_cif.got.tgz:3145.got - 2010.06.03 19:38:44.
