data_PCOD9549559
_publ_section_title
;
Structure prediction by ZEFSAII (Michael W. Deem and Ramdas Pophale) SiO2 
 PCOD9549559
Probable space group: P 41 21 2
;
_chemical_formula_sum "Si O2"
_cell_formula_units_Z 28
_cell_length_a 7.434818
_cell_length_b 7.434818
_cell_length_c 19.871944
_cell_angle_alpha 90.000000
_cell_angle_beta 90.000000
_cell_angle_gamma 90.000000
_cell_volume 1098.451884
_symmetry_space_group_name_H-M "P 41 21 2"
_symmetry_group_IT_number 92
_symmetry_cell_setting 'tetragonal'
loop_
_space_group_symop_operation_xyz
x,y,z
1/2-y,1/2+x,1/4+z
-x,-y,1/2+z
1/2+y,1/2-x,3/4+z
1/2+x,1/2-y,3/4-z
1/2-x,1/2+y,1/4-z
y,x,-z
-y,-x,1/2-z
loop_
_atom_site_type_symbol
_atom_site_label
_atom_site_fract_x
_atom_site_fract_y
_atom_site_fract_z
Si Si1 0.471018 0.405192 0.141392
Si Si2 0.408209 0.116750 0.776430
Si Si3 0.666882 0.774054 0.134973
Si Si4 0.330934 0.330934 0.000000
O O1 0.305018 0.355513 0.188145
O O2 0.570523 0.591145 0.158817
O O3 0.629359 0.259627 0.140403
O O4 0.390738 0.431594 0.066976
O O5 0.320314 0.108264 0.703032
O O6 0.622169 0.131071 0.764714
O O7 0.356760 0.956786 0.826579
#
# Coordination Sequence:
#
# PCOD9549559 Si02
#       4
#     8   8   8   4
#     4  12  25  49  74 118 154 209 270 322 404 478
#     4  12  24  52  79 109 159 216 264 333 405 470
#     4  12  27  48  79 113 157 214 264 331 401 478
#     4  12  24  48  78 110 160 210 256 334 398 468
#
# _framework density 25.490418999999999
#
# number of rings (size 3 to 8) (size 9 to 14) (size 15 to 20)
#    0.000    0.000    5.714    3.429    0.000    0.000 
#   30.857    0.000    0.000    0.000    0.000    0.000 
#    0.000    0.000    0.000    0.000    0.000    0.000 
#
# Total GULP energy -157195.935299 kJ/mol
# GULP energy per Si atom -5614.140546 kJ/mol
# Density = 2.543240 g / cm^3
# Si number density = 25.490419 Si / 1000 Ang^3
#
#
#
# Elastic Constant Matrix: (Units=GPa)
#
#
# Indices 1 2 3 4 5 6 
#
# 1 99.5912 30.0525 32.4639 0.0000 0.0000 0.0000
# 2 30.0525 99.5912 32.4639 0.0000 0.0000 0.0000
# 3 32.4639 32.4639 146.2283 0.0000 0.0000 0.0000
# 4 0.0000 0.0000 0.0000 41.7637 0.0000 0.0000
# 5 0.0000 0.0000 0.0000 0.0000 41.7637 0.0000
# 6 0.0000 0.0000 0.0000 0.0000 0.0000 27.5978
#
#
#
# Elastic Compliance Matrix: (Units=1/GPa)
#
#
# Indices 1 2 3 4 5 6 
#
# 1 0.011529 -0.002851 -0.001927 0.000000 0.000000 0.000000
# 2 -0.002851 0.011529 -0.001927 0.000000 0.000000 0.000000
# 3 -0.001927 -0.001927 0.007694 0.000000 0.000000 0.000000
# 4 0.000000 0.000000 0.000000 0.023944 0.000000 0.000000
# 5 0.000000 0.000000 0.000000 0.000000 0.023944 0.000000
# 6 0.000000 0.000000 0.000000 0.000000 0.000000 0.036235
#
#
# Mechanical properties :
#
#
# Convention : Reuss Voigt Hill
#
# Bulk Modulus (GPa) = 57.65638 59.48572 58.57105
# Shear Modulus (GPa) = 37.29495 38.92038 38.10766
#
# Velocity S-wave (km/s) = 3.82919 3.91175 3.87069
# Velocity P-wave (km/s) = 6.49756 6.61737 6.55774
#
# Compressibility (1/GPa) = 0.01734413
#
# Stress axis : x y z
#
# Youngs Moduli (GPa) = 86.73456 86.73456 129.96981
#
# Poissons Ratio (x) = 0.24729 0.25041
# Poissons Ratio (y) = 0.24729 0.25041
# Poissons Ratio (z) = 0.16711 0.16711
#
# Static dielectric constant tensor:
#      x y z
#    x 2.009430 0.000000 0.000000 
#    y 0.000000 2.009430 0.000000 
#    z 0.000000 0.000000 1.984510 
# 
# From -- ./inp_files/3305.got.cif
#   From: 2010.05.17/outbox.cif.g08.bks.cpg/sg92_2_cif.got.tgz:3305.got - 2010.06.03 19:35:17.
