data_PCOD9549727
_publ_section_title
;
Structure prediction by ZEFSAII (Michael W. Deem and Ramdas Pophale) SiO2 
 PCOD9549727
Probable space group: P 42 2 2
;
_chemical_formula_sum "Si O2"
_cell_formula_units_Z 40
_cell_length_a 11.437191
_cell_length_b 11.437191
_cell_length_c 13.496556
_cell_angle_alpha 90.000000
_cell_angle_beta 90.000000
_cell_angle_gamma 90.000000
_cell_volume 1765.475555
_symmetry_space_group_name_H-M "P 42 2 2"
_symmetry_group_IT_number 93
_symmetry_cell_setting 'tetragonal'
loop_
_space_group_symop_operation_xyz
x,y,z
-y,x,1/2+z
-x,-y,z
y,-x,1/2+z
x,-y,-z
-x,y,-z
y,x,1/2-z
-y,-x,1/2-z
loop_
_atom_site_type_symbol
_atom_site_label
_atom_site_fract_x
_atom_site_fract_y
_atom_site_fract_z
Si Si1 0.670917 0.177940 0.308654
Si Si2 0.574992 0.615439 0.133224
Si Si3 0.757273 0.932582 0.281522
Si Si4 0.129493 0.466639 0.330474
Si Si5 0.371923 0.175168 0.468815
O O1 0.706537 0.293464 0.250000
O O2 0.542743 0.141425 0.270497
O O3 0.687817 0.190270 0.424625
O O4 0.748917 0.070420 0.272736
O O5 0.500000 0.500000 0.109187
O O6 0.604047 0.604047 0.250000
O O7 0.518806 0.744849 0.116120
O O8 0.697122 0.610307 0.076836
O O9 0.879749 0.879749 0.250000
O O10 0.667260 0.877679 0.202033
O O11 0.704240 0.897951 0.389670
O O12 0.000000 0.500000 0.373341
O O13 0.500000 0.127448 0.500000
#
# Coordination Sequence:
#
# PCOD9549727 Si02
#       5
#     8   8   8   8   8
#     4  11  26  41  64  98 137 173 225 285 342 410
#     4  11  22  38  67 102 140 183 225 284 354 420
#     4  11  21  43  71  96 128 177 229 280 342 402
#     4  10  20  39  66  93 133 181 223 268 343 414
#     4  12  22  40  68 104 132 169 229 283 337 414
#
# _framework density 22.656786
#
# number of rings (size 3 to 8) (size 9 to 14) (size 15 to 20)
#    0.000    1.000    6.000    0.600    5.600    1.600 
#    0.000    2.000    0.000    3.600    0.000    0.000 
#    0.000    0.000    0.000    0.000    0.000    0.000 
#
# Total GULP energy -223498.125715 kJ/mol
# GULP energy per Si atom -5587.453143 kJ/mol
# Density = 2.260522 g / cm^3
# Si number density = 22.656786 Si / 1000 Ang^3
#
#
#
# Elastic Constant Matrix: (Units=GPa)
#
#
# Indices 1 2 3 4 5 6 
#
# 1 101.2904 23.1556 6.7799 0.0000 0.0000 0.0000
# 2 23.1556 101.2885 6.7782 0.0000 0.0000 0.0000
# 3 6.7799 6.7782 61.5279 0.0000 0.0000 0.0000
# 4 0.0000 0.0000 0.0000 -9.8373 0.0000 0.0000
# 5 0.0000 0.0000 0.0000 0.0000 -9.8389 0.0000
# 6 0.0000 0.0000 0.0000 0.0000 0.0000 34.4268
#
#
#
# Elastic Compliance Matrix: (Units=1/GPa)
#
#
# Indices 1 2 3 4 5 6 
#
# 1 0.010466 -0.002333 -0.000896 0.000000 0.000000 0.000000
# 2 -0.002333 0.010466 -0.000896 0.000000 0.000000 0.000000
# 3 -0.000896 -0.000896 0.016450 0.000000 0.000000 0.000000
# 4 0.000000 0.000000 0.000000 -0.101654 0.000000 0.000000
# 5 0.000000 0.000000 0.000000 0.000000 -0.101637 0.000000
# 6 0.000000 0.000000 0.000000 0.000000 0.000000 0.029047
#
#
# Mechanical properties :
#
#
# Convention : Reuss Voigt Hill
#
# Bulk Modulus (GPa) = 34.32603 37.50380 35.91491
# Shear Modulus (GPa) = -42.05163 18.10966 -11.97099
#
# Velocity S-wave (km/s) = -4.31284 2.83026 -2.30111
# Velocity P-wave (km/s) = 3.10120 5.22202 2.97086
#
# Compressibility (1/GPa) = 0.02913241
#
# Stress axis : x y z
#
# Youngs Moduli (GPa) = 95.54889 95.54744 60.78930
#
# Poissons Ratio (x) = 0.22288 0.05448
# Poissons Ratio (y) = 0.22288 0.05446
# Poissons Ratio (z) = 0.08564 0.08561
#
# Static dielectric constant tensor:
#      x y z
#    x 1.891120 0.000000 0.000000 
#    y 0.000000 1.891120 0.000000 
#    z 0.000000 0.000000 1.831050 
# 
# From -- ./inp_files/4364.got.cif
#   From: 2010.05.17/outbox.cif.g08.bks.cpg/sg93_3_cif.got.tgz:4364.got - 2010.06.03 19:38:44.
