data_PCOD9549619
_publ_section_title
;
Structure prediction by ZEFSAII (Michael W. Deem and Ramdas Pophale) SiO2 
 PCOD9549619
Probable space group: P 42 2 2
;
_chemical_formula_sum "Si O2"
_cell_formula_units_Z 48
_cell_length_a 15.365747
_cell_length_b 15.365747
_cell_length_c 12.010773
_cell_angle_alpha 90.000000
_cell_angle_beta 90.000000
_cell_angle_gamma 90.000000
_cell_volume 2835.817742
_symmetry_space_group_name_H-M "P 42 2 2"
_symmetry_group_IT_number 93
_symmetry_cell_setting 'tetragonal'
loop_
_space_group_symop_operation_xyz
x,y,z
-y,x,1/2+z
-x,-y,z
y,-x,1/2+z
x,-y,-z
-x,y,-z
y,x,1/2-z
-y,-x,1/2-z
loop_
_atom_site_type_symbol
_atom_site_label
_atom_site_fract_x
_atom_site_fract_y
_atom_site_fract_z
Si Si1 0.213593 0.960744 0.220303
Si Si2 0.326254 0.868367 0.750611
Si Si3 0.912706 0.103854 0.062840
Si Si4 0.767827 0.781188 0.438736
Si Si5 0.214537 0.317129 0.661981
Si Si6 0.894002 0.494047 0.366080
O O1 0.144877 0.973049 0.119154
O O2 0.160345 0.945954 0.332007
O O3 0.258466 0.869782 0.190276
O O4 0.284543 0.035332 0.237590
O O5 0.271924 0.814806 0.841700
O O6 0.309417 0.830829 0.626823
O O7 0.424255 0.863596 0.793211
O O8 0.852767 0.166189 0.987839
O O9 0.000000 0.082720 0.000000
O O10 0.751405 0.714954 0.540943
O O11 0.289330 0.289330 0.750000
O O12 0.168477 0.411951 0.664194
O O13 0.884130 0.500000 0.500000
O O14 0.000000 0.500000 0.348637
#
# Coordination Sequence:
#
# PCOD9549619 Si02
#       6
#     8   8   8   8   8   8
#     4  10  19  31  54  77 107 153 200 243 286 344
#     4  11  21  36  53  83 117 144 201 244 300 351
#     4  10  18  32  51  73 105 160 206 242 285 338
#     4  10  21  34  56  75 110 162 190 245 291 360
#     4  11  20  37  58  85 116 157 195 236 310 378
#     4  11  22  34  59  92 122 151 197 261 306 356
#
# _framework density 16.926333
#
# number of rings (size 3 to 8) (size 9 to 14) (size 15 to 20)
#    0.000    1.500    8.333    0.000    0.000    2.667 
#    0.000    2.500    0.000    1.000    0.000    2.333 
#    0.000    0.000    0.000    0.000    0.000    0.000 
#
# Total GULP energy -267236.399655 kJ/mol
# GULP energy per Si atom -5567.424993 kJ/mol
# Density = 1.688781 g / cm^3
# Si number density = 16.926333 Si / 1000 Ang^3
#
#
#
# Elastic Constant Matrix: (Units=GPa)
#
#
# Indices 1 2 3 4 5 6 
#
# 1 87.1743 66.6698 53.9280 0.0000 0.0000 0.0000
# 2 66.6698 87.1743 53.9280 0.0000 0.0000 0.0000
# 3 53.9280 53.9280 119.4943 0.0000 0.0000 0.0000
# 4 0.0000 0.0000 0.0000 23.0839 0.0000 0.0000
# 5 0.0000 0.0000 0.0000 0.0000 23.0839 0.0000
# 6 0.0000 0.0000 0.0000 0.0000 0.0000 15.8704
#
#
#
# Elastic Compliance Matrix: (Units=1/GPa)
#
#
# Indices 1 2 3 4 5 6 
#
# 1 0.029139 -0.019631 -0.004291 0.000000 0.000000 0.000000
# 2 -0.019631 0.029139 -0.004291 0.000000 0.000000 0.000000
# 3 -0.004291 -0.004291 0.012242 0.000000 0.000000 0.000000
# 4 0.000000 0.000000 0.000000 0.043320 0.000000 0.000000
# 5 0.000000 0.000000 0.000000 0.000000 0.043320 0.000000
# 6 0.000000 0.000000 0.000000 0.000000 0.000000 0.063010
#
#
# Mechanical properties :
#
#
# Convention : Reuss Voigt Hill
#
# Bulk Modulus (GPa) = 70.95179 71.43270 71.19225
# Shear Modulus (GPa) = 17.77492 20.36211 19.06852
#
# Velocity S-wave (km/s) = 3.24409 3.47217 3.36007
# Velocity P-wave (km/s) = 7.48607 7.63992 7.56338
#
# Compressibility (1/GPa) = 0.01409408
#
# Stress axis : x y z
#
# Youngs Moduli (GPa) = 34.31808 34.31808 81.68688
#
# Poissons Ratio (x) = 0.67368 0.35054
# Poissons Ratio (y) = 0.67368 0.35054
# Poissons Ratio (z) = 0.14727 0.14727
#
# Static dielectric constant tensor:
#      x y z
#    x 1.623310 0.000000 0.000000 
#    y 0.000000 1.623310 0.000000 
#    z 0.000000 0.000000 1.601130 
# 
# From -- ./inp_files/3390.got.cif
#   From: 2010.05.17/outbox.cif.g08.bks.cpg/sg93_2_cif.got.tgz:3390.got - 2010.06.03 19:38:44.
