data_PCOD9549568
_publ_section_title
;
Structure prediction by ZEFSAII (Michael W. Deem and Ramdas Pophale) SiO2 
 PCOD9549568
Probable space group: P 41 21 2
;
_chemical_formula_sum "Si O2"
_cell_formula_units_Z 24
_cell_length_a 9.844942
_cell_length_b 9.844942
_cell_length_c 10.218264
_cell_angle_alpha 90.000000
_cell_angle_beta 90.000000
_cell_angle_gamma 90.000000
_cell_volume 990.383606
_symmetry_space_group_name_H-M "P 41 21 2"
_symmetry_group_IT_number 92
_symmetry_cell_setting 'tetragonal'
loop_
_space_group_symop_operation_xyz
x,y,z
1/2-y,1/2+x,1/4+z
-x,-y,1/2+z
1/2+y,1/2-x,3/4+z
1/2+x,1/2-y,3/4-z
1/2-x,1/2+y,1/4-z
y,x,-z
-y,-x,1/2-z
loop_
_atom_site_type_symbol
_atom_site_label
_atom_site_fract_x
_atom_site_fract_y
_atom_site_fract_z
Si Si1 0.625590 0.492797 0.384804
Si Si2 0.254467 0.830007 0.551500
Si Si3 0.419595 0.919377 0.910039
O O1 0.522318 0.522318 0.500000
O O2 0.553041 0.446960 0.250000
O O3 0.707792 0.627268 0.342593
O O4 0.732803 0.382958 0.433542
O O5 0.135279 0.733335 0.606750
O O6 0.303223 0.971730 0.616347
O O7 0.446269 0.042813 0.810560
#
# Coordination Sequence:
#
# PCOD9549568 Si02
#       3
#     8   8   8
#     4  12  29  50  84 120 165 216 281 339 415 491
#     4  12  26  50  78 115 162 216 263 335 414 479
#     4  12  27  48  78 113 159 214 265 340 409 486
#
# _framework density 24.233032000000001
#
# number of rings (size 3 to 8) (size 9 to 14) (size 15 to 20)
#    0.000    0.000    6.667    1.000    9.333    2.667 
#    0.000    0.000    0.000    0.000    0.000    0.000 
#    0.000    0.000    0.000    0.000    0.000    0.000 
#
# Total GULP energy -134240.774598 kJ/mol
# GULP energy per Si atom -5593.365608 kJ/mol
# Density = 2.417788 g / cm^3
# Si number density = 24.233032 Si / 1000 Ang^3
#
#
#
# Elastic Constant Matrix: (Units=GPa)
#
#
# Indices 1 2 3 4 5 6 
#
# 1 94.4779 19.1402 47.0318 0.0000 0.0000 0.0000
# 2 19.1402 94.4771 47.0318 0.0000 0.0000 0.0000
# 3 47.0318 47.0318 100.0280 0.0000 0.0000 0.0000
# 4 0.0000 0.0000 0.0000 36.9071 0.0000 0.0000
# 5 0.0000 0.0000 0.0000 0.0000 36.9072 0.0000
# 6 0.0000 0.0000 0.0000 0.0000 0.0000 44.3617
#
#
#
# Elastic Compliance Matrix: (Units=1/GPa)
#
#
# Indices 1 2 3 4 5 6 
#
# 1 0.013842 0.000569 -0.006776 0.000000 0.000000 0.000000
# 2 0.000569 0.013843 -0.006776 0.000000 0.000000 0.000000
# 3 -0.006776 -0.006776 0.016369 0.000000 0.000000 0.000000
# 4 0.000000 0.000000 0.000000 0.027095 0.000000 0.000000
# 5 0.000000 0.000000 0.000000 0.000000 0.027095 0.000000
# 6 0.000000 0.000000 0.000000 0.000000 0.000000 0.022542
#
#
# Mechanical properties :
#
#
# Convention : Reuss Voigt Hill
#
# Bulk Modulus (GPa) = 55.28606 57.26562 56.27584
# Shear Modulus (GPa) = 32.72648 35.35383 34.04015
#
# Velocity S-wave (km/s) = 3.67889 3.82371 3.75200
# Velocity P-wave (km/s) = 6.39605 6.57091 6.48407
#
# Compressibility (1/GPa) = 0.01808774
#
# Stress axis : x y z
#
# Youngs Moduli (GPa) = 72.24206 72.24122 61.09058
#
# Poissons Ratio (x) = -0.04109 0.41395
# Poissons Ratio (y) = -0.04109 0.41395
# Poissons Ratio (z) = 0.48951 0.48951
#
# Static dielectric constant tensor:
#      x y z
#    x 1.961870 0.000000 0.000000 
#    y 0.000000 1.961870 0.000000 
#    z 0.000000 0.000000 1.943050 
# 
# From -- ./inp_files/999.got.cif
#   From: 2010.05.17/outbox.cif.g08.bks.cpg/sg92_1_cif.got.tgz:999.got - 2010.06.03 19:35:17.
