data_PCOD9549897
_publ_section_title
;
Structure prediction by ZEFSAII (Michael W. Deem and Ramdas Pophale) SiO2 
 PCOD9549897
Probable space group: P 42 2 2
;
_chemical_formula_sum "Si O2"
_cell_formula_units_Z 20
_cell_length_a 5.388846
_cell_length_b 5.388846
_cell_length_c 25.771957
_cell_angle_alpha 90.000000
_cell_angle_beta 90.000000
_cell_angle_gamma 90.000000
_cell_volume 748.408900
_symmetry_space_group_name_H-M "P 42 2 2"
_symmetry_group_IT_number 93
_symmetry_cell_setting 'tetragonal'
loop_
_space_group_symop_operation_xyz
x,y,z
-y,x,1/2+z
-x,-y,z
y,-x,1/2+z
x,-y,-z
-x,y,-z
y,x,1/2-z
-y,-x,1/2-z
loop_
_atom_site_type_symbol
_atom_site_label
_atom_site_fract_x
_atom_site_fract_y
_atom_site_fract_z
Si Si1 0.000000 0.000000 0.250000
Si Si2 0.000000 0.500000 0.261379
Si Si3 0.147456 0.260363 0.081778
Si Si4 0.500000 0.000000 0.000000
Si Si5 0.500000 0.500000 0.668138
O O1 0.985622 0.736015 0.224164
O O2 0.248281 0.532545 0.296284
O O3 0.294063 0.390396 0.129073
O O4 0.000000 0.500000 0.061307
O O5 0.332738 0.165637 0.037624
O O6 0.000000 0.000000 0.096353
#
# Coordination Sequence:
#
# PCOD9549897 Si02
#       5
#     2   4   8   2   4
#     4  12  28  52  80 124 146 212 244 318 408 482
#     4  12  27  50  82 113 164 192 262 319 394 498
#     4  12  28  48  75 108 152 211 260 335 394 467
#     4  12  28  50  68 116 152 210 282 326 404 460
#     4  12  28  48  76 114 148 204 256 324 390 484
#
# _framework density 26.723355000000002
#
# number of rings (size 3 to 8) (size 9 to 14) (size 15 to 20)
#    0.000    0.000    0.000    9.000    8.400   12.000 
#    0.000    0.000    0.000    0.000    0.000    0.000 
#    0.000    0.000    0.000    0.000    0.000    0.000 
#
# Total GULP energy -111393.041989 kJ/mol
# GULP energy per Si atom -5569.652099 kJ/mol
# Density = 2.666253 g / cm^3
# Si number density = 26.723355 Si / 1000 Ang^3
#
#
#
# Elastic Constant Matrix: (Units=GPa)
#
#
# Indices 1 2 3 4 5 6 
#
# 1 308.5251 77.7319 95.4484 0.0000 0.0000 0.0000
# 2 77.7319 308.5251 95.4484 0.0000 0.0000 0.0000
# 3 95.4484 95.4484 161.9147 0.0000 0.0000 0.0000
# 4 0.0000 0.0000 0.0000 52.5499 0.0000 0.0000
# 5 0.0000 0.0000 0.0000 0.0000 52.5499 0.0000
# 6 0.0000 0.0000 0.0000 0.0000 0.0000 41.5305
#
#
#
# Elastic Compliance Matrix: (Units=1/GPa)
#
#
# Indices 1 2 3 4 5 6 
#
# 1 0.003993 -0.000340 -0.002154 0.000000 0.000000 0.000000
# 2 -0.000340 0.003993 -0.002154 0.000000 0.000000 0.000000
# 3 -0.002154 -0.002154 0.008715 0.000000 0.000000 0.000000
# 4 0.000000 0.000000 0.000000 0.019030 0.000000 0.000000
# 5 0.000000 0.000000 0.000000 0.000000 0.019030 0.000000
# 6 0.000000 0.000000 0.000000 0.000000 0.000000 0.024079
#
#
# Mechanical properties :
#
#
# Convention : Reuss Voigt Hill
#
# Bulk Modulus (GPa) = 135.00112 146.24691 140.62401
# Shear Modulus (GPa) = 55.18621 63.34848 59.26734
#
# Velocity S-wave (km/s) = 4.54926 4.87409 4.71447
# Velocity P-wave (km/s) = 8.84432 9.30165 9.07587
#
# Compressibility (1/GPa) = 0.00740735
#
# Stress axis : x y z
#
# Youngs Moduli (GPa) = 250.43191 250.43191 114.74200
#
# Poissons Ratio (x) = 0.08509 0.24711
# Poissons Ratio (y) = 0.08509 0.24711
# Poissons Ratio (z) = 0.53934 0.53934
#
# Static dielectric constant tensor:
#      x y z
#    x 2.224860 0.000000 0.000000 
#    y 0.000000 2.224860 0.000000 
#    z 0.000000 0.000000 2.030950 
# 
# From -- ./inp_files/7123.got.cif
#   From: 2010.05.17/outbox.cif.g08.bks.cpg/sg93_4_cif.got.tgz:7123.got - 2010.06.03 19:38:44.
