data_PCOD9549205
_publ_section_title
;
Structure prediction by ZEFSAII (Michael W. Deem and Ramdas Pophale) SiO2 
 PCOD9549205
Probable space group: P 41 21 2
;
_chemical_formula_sum "Si O2"
_cell_formula_units_Z 40
_cell_length_a 8.588175
_cell_length_b 8.588175
_cell_length_c 24.118325
_cell_angle_alpha 90.000000
_cell_angle_beta 90.000000
_cell_angle_gamma 90.000000
_cell_volume 1778.889263
_symmetry_space_group_name_H-M "P 41 21 2"
_symmetry_group_IT_number 92
_symmetry_cell_setting 'tetragonal'
loop_
_space_group_symop_operation_xyz
x,y,z
1/2-y,1/2+x,1/4+z
-x,-y,1/2+z
1/2+y,1/2-x,3/4+z
1/2+x,1/2-y,3/4-z
1/2-x,1/2+y,1/4-z
y,x,-z
-y,-x,1/2-z
loop_
_atom_site_type_symbol
_atom_site_label
_atom_site_fract_x
_atom_site_fract_y
_atom_site_fract_z
Si Si1 0.911805 0.405417 0.247790
Si Si2 0.682962 0.733284 0.762114
Si Si3 0.105328 0.028712 0.694680
Si Si4 0.098986 0.223105 0.158427
Si Si5 0.104814 0.311100 0.036237
O O1 0.757427 0.499452 0.236398
O O2 0.932002 0.266148 0.292258
O O3 0.976804 0.333426 0.190967
O O4 0.020296 0.547977 0.267665
O O5 0.716701 0.554052 0.774906
O O6 0.792916 0.835533 0.804710
O O7 0.759062 0.774016 0.702026
O O8 0.003301 0.996700 0.750000
O O9 0.994373 0.941210 0.650967
O O10 0.145468 0.294452 0.100313
O O11 0.242221 0.242221 0.000000
#
# Coordination Sequence:
#
# PCOD9549205 Si02
#       5
#     8   8   8   8   8
#     4   9  19  36  56  79 105 139 184 223 263 322
#     4   9  19  34  54  81 104 136 186 219 260 330
#     4   7  15  33  54  75 101 136 174 218 264 312
#     4   9  19  37  54  75 110 142 175 225 272 314
#     4  10  22  36  51  78 112 141 174 221 273 326
#
# _framework density 22.485938999999998
#
# number of rings (size 3 to 8) (size 9 to 14) (size 15 to 20)
#    0.000    4.000    0.000    0.000    0.000   11.200 
#    0.000    2.000    0.000    0.000    0.000    0.000 
#    0.000    0.000    0.000    0.000    0.000    0.000 
#
# Total GULP energy -222739.442282 kJ/mol
# GULP energy per Si atom -5568.486057 kJ/mol
# Density = 2.243476 g / cm^3
# Si number density = 22.485939 Si / 1000 Ang^3
#
#
#
# Elastic Constant Matrix: (Units=GPa)
#
#
# Indices 1 2 3 4 5 6 
#
# 1 28.2981 51.8063 11.7789 0.0000 0.0000 0.0000
# 2 51.8063 28.2974 11.7791 0.0000 0.0000 0.0000
# 3 11.7789 11.7791 76.9634 0.0000 0.0000 0.0000
# 4 0.0000 0.0000 0.0000 -7.9471 0.0000 0.0000
# 5 0.0000 0.0000 0.0000 0.0000 -7.9472 0.0000
# 6 0.0000 0.0000 0.0000 0.0000 0.0000 36.5549
#
#
#
# Elastic Compliance Matrix: (Units=1/GPa)
#
#
# Indices 1 2 3 4 5 6 
#
# 1 -0.014733 0.027805 -0.002001 0.000000 0.000000 0.000000
# 2 0.027805 -0.014733 -0.002001 0.000000 0.000000 0.000000
# 3 -0.002001 -0.002001 0.013606 0.000000 0.000000 0.000000
# 4 0.000000 0.000000 0.000000 -0.125832 0.000000 0.000000
# 5 0.000000 0.000000 0.000000 0.000000 -0.125831 0.000000
# 6 0.000000 0.000000 0.000000 0.000000 0.000000 0.027356
#
#
# Mechanical properties :
#
#
# Convention : Reuss Voigt Hill
#
# Bulk Modulus (GPa) = 31.49878 31.58750 31.54314
# Shear Modulus (GPa) = -18.03809 8.01175 -5.01317
#
# Velocity S-wave (km/s) = -2.83538 1.88964 -1.49476
# Velocity P-wave (km/s) = 1.82194 4.34041 3.32856
#
# Compressibility (1/GPa) = 0.03174726
#
# Stress axis : x y z
#
# Youngs Moduli (GPa) = -67.87678 -67.87485 73.49927
#
# Poissons Ratio (x) = 1.88726 0.14705
# Poissons Ratio (y) = 1.88731 0.14704
# Poissons Ratio (z) = -0.13580 -0.13579
#
# Static dielectric constant tensor:
#      x y z
#    x 1.915710 0.000000 0.000000 
#    y 0.000000 1.915710 0.000000 
#    z 0.000000 0.000000 1.836160 
# 
# From -- ./inp_files/4177.got.cif
#   From: 2010.05.17/outbox.cif.g08.bks.cpg/sg92_3_cif.got.tgz:4177.got - 2010.06.03 19:35:17.
