data_PCOD9549726
_publ_section_title
;
Structure prediction by ZEFSAII (Michael W. Deem and Ramdas Pophale) SiO2 
 PCOD9549726
Probable space group: P 42 2 2
;
_chemical_formula_sum "Si O2"
_cell_formula_units_Z 40
_cell_length_a 15.305036
_cell_length_b 15.305036
_cell_length_c 8.615772
_cell_angle_alpha 90.000000
_cell_angle_beta 90.000000
_cell_angle_gamma 90.000000
_cell_volume 2018.193990
_symmetry_space_group_name_H-M "P 42 2 2"
_symmetry_group_IT_number 93
_symmetry_cell_setting 'tetragonal'
loop_
_space_group_symop_operation_xyz
x,y,z
-y,x,1/2+z
-x,-y,z
y,-x,1/2+z
x,-y,-z
-x,y,-z
y,x,1/2-z
-y,-x,1/2-z
loop_
_atom_site_type_symbol
_atom_site_label
_atom_site_fract_x
_atom_site_fract_y
_atom_site_fract_z
Si Si1 0.404784 0.619856 0.565743
Si Si2 0.244915 0.097323 0.930839
Si Si3 0.176957 0.408974 0.071270
Si Si4 0.409243 0.202484 0.058740
Si Si5 0.232433 0.095363 0.559486
O O1 0.500000 0.590320 0.500000
O O2 0.401829 0.598172 0.750000
O O3 0.402568 0.721967 0.521147
O O4 0.306388 0.591797 0.515815
O O5 0.242655 0.093369 0.744837
O O6 0.162607 0.155701 0.983248
O O7 0.329125 0.152062 0.983304
O O8 0.244901 0.000000 0.000000
O O9 0.186168 0.407261 0.257073
O O10 0.141908 0.500000 0.000000
O O11 0.125841 0.324388 0.013357
O O12 0.500000 0.165031 0.000000
O O13 0.210208 0.000000 0.500000
#
# Coordination Sequence:
#
# PCOD9549726 Si02
#       5
#     8   8   8   8   8
#     4   9  19  37  61  91 129 175 218 259 312 367
#     4  11  25  44  67  97 128 162 209 263 318 381
#     4  10  20  39  64  94 129 170 215 259 314 374
#     4  11  22  39  64  94 131 172 215 265 313 369
#     4  11  24  43  69  96 127 167 206 258 322 383
#
# _framework density 19.819699
#
# number of rings (size 3 to 8) (size 9 to 14) (size 15 to 20)
#    0.000    1.600    2.000    2.400    0.000    4.000 
#    0.000    9.000    0.000    0.000    0.000    0.000 
#    0.000    0.000    0.000    0.000    0.000    0.000 
#
# Total GULP energy -223201.091845 kJ/mol
# GULP energy per Si atom -5580.027296 kJ/mol
# Density = 1.977459 g / cm^3
# Si number density = 19.819699 Si / 1000 Ang^3
#
#
#
# Elastic Constant Matrix: (Units=GPa)
#
#
# Indices 1 2 3 4 5 6 
#
# 1 172.3574 92.2736 43.8739 0.0000 0.0000 0.0000
# 2 92.2736 172.3574 43.8734 0.0000 0.0000 0.0000
# 3 43.8739 43.8734 35.8346 0.0000 0.0000 0.0000
# 4 0.0000 0.0000 0.0000 20.0508 0.0000 0.0000
# 5 0.0000 0.0000 0.0000 0.0000 20.0520 0.0000
# 6 0.0000 0.0000 0.0000 0.0000 0.0000 -38.4067
#
#
#
# Elastic Compliance Matrix: (Units=1/GPa)
#
#
# Indices 1 2 3 4 5 6 
#
# 1 0.009424 -0.003063 -0.007789 0.000000 0.000000 0.000000
# 2 -0.003063 0.009424 -0.007788 0.000000 0.000000 0.000000
# 3 -0.007789 -0.007788 0.046977 0.000000 0.000000 0.000000
# 4 0.000000 0.000000 0.000000 0.049873 0.000000 0.000000
# 5 0.000000 0.000000 0.000000 0.000000 0.049870 0.000000
# 6 0.000000 0.000000 0.000000 0.000000 0.000000 -0.026037
#
#
# Mechanical properties :
#
#
# Convention : Reuss Voigt Hill
#
# Bulk Modulus (GPa) = 35.03082 82.28791 58.65936
# Shear Modulus (GPa) = 26.83450 13.70777 20.27113
#
# Velocity S-wave (km/s) = 3.68357 2.63273 3.20156
# Velocity P-wave (km/s) = 5.98370 7.13092 6.58235
#
# Compressibility (1/GPa) = 0.02854629
#
# Stress axis : x y z
#
# Youngs Moduli (GPa) = 106.10988 106.11087 21.28681
#
# Poissons Ratio (x) = 0.32499 0.16579
# Poissons Ratio (y) = 0.32499 0.16579
# Poissons Ratio (z) = 0.82645 0.82643
#
# Static dielectric constant tensor:
#      x y z
#    x 1.690120 0.000000 0.000000 
#    y 0.000000 1.690120 0.000000 
#    z 0.000000 0.000000 1.732140 
# 
# From -- ./inp_files/1818.got.cif
#   From: 2010.05.17/outbox.cif.g08.bks.cpg/sg93_1_cif.got.tgz:1818.got - 2010.06.03 19:38:44.
