data_PCOD9549319
_publ_section_title
;
Structure prediction by ZEFSAII (Michael W. Deem and Ramdas Pophale) SiO2 
 PCOD9549319
Probable space group: P 41 21 2
;
_chemical_formula_sum "Si O2"
_cell_formula_units_Z 48
_cell_length_a 8.338013
_cell_length_b 8.338013
_cell_length_c 28.996651
_cell_angle_alpha 90.000000
_cell_angle_beta 90.000000
_cell_angle_gamma 90.000000
_cell_volume 2015.918532
_symmetry_space_group_name_H-M "P 41 21 2"
_symmetry_group_IT_number 92
_symmetry_cell_setting 'tetragonal'
loop_
_space_group_symop_operation_xyz
x,y,z
1/2-y,1/2+x,1/4+z
-x,-y,1/2+z
1/2+y,1/2-x,3/4+z
1/2+x,1/2-y,3/4-z
1/2-x,1/2+y,1/4-z
y,x,-z
-y,-x,1/2-z
loop_
_atom_site_type_symbol
_atom_site_label
_atom_site_fract_x
_atom_site_fract_y
_atom_site_fract_z
Si Si1 0.544344 0.422856 0.621580
Si Si2 0.861403 0.994104 0.040626
Si Si3 0.443655 0.607155 0.959238
Si Si4 0.474438 0.908032 0.577858
Si Si5 0.946552 0.345814 0.003020
Si Si6 0.123307 0.432163 0.091581
O O1 0.482301 0.516086 0.666598
O O2 0.408822 0.428561 0.582081
O O3 0.698114 0.508355 0.599923
O O4 0.588321 0.242447 0.636351
O O5 0.686889 0.004750 0.062217
O O6 0.910531 0.160477 0.014557
O O7 0.866618 0.866618 0.000000
O O8 0.274898 0.558702 0.935810
O O9 0.430471 0.780668 0.982691
O O10 0.487047 0.487047 0.000000
O O11 0.617732 0.986947 0.547663
O O12 0.512842 0.941950 0.630827
O O13 0.078436 0.414354 0.038391
#
# Coordination Sequence:
#
# PCOD9549319 Si02
#       6
#     8   8   8   8   8   8
#     4  11  23  40  62  88 119 156 196 242 294 350
#     4  10  23  40  60  86 118 155 195 241 292 348
#     4  11  23  40  61  88 120 155 197 243 293 348
#     4  11  23  39  61  88 118 154 196 242 292 348
#     4  10  23  41  60  86 120 156 196 242 293 349
#     4  11  23  40  62  88 119 156 197 242 295 351
#
# _framework density 23.810486000000001
#
# number of rings (size 3 to 8) (size 9 to 14) (size 15 to 20)
#    0.000    1.333    0.000    5.000    0.000   10.667 
#    0.000    0.000    0.000    0.000    0.000    0.000 
#    0.000    0.000    0.000    0.000    0.000    0.000 
#
# Total GULP energy -268880.403519 kJ/mol
# GULP energy per Si atom -5601.675073 kJ/mol
# Density = 2.375629 g / cm^3
# Si number density = 23.810486 Si / 1000 Ang^3
#
#
#
# Elastic Constant Matrix: (Units=GPa)
#
#
# Indices 1 2 3 4 5 6 
#
# 1 40.5265 12.9941 -7.5368 0.0000 0.0000 0.0000
# 2 12.9941 40.5265 -7.5368 0.0000 0.0000 0.0000
# 3 -7.5368 -7.5368 63.9611 0.0000 0.0000 0.0000
# 4 0.0000 0.0000 0.0000 36.3497 0.0000 0.0000
# 5 0.0000 0.0000 0.0000 0.0000 36.3497 0.0000
# 6 0.0000 0.0000 0.0000 0.0000 0.0000 18.5671
#
#
#
# Elastic Compliance Matrix: (Units=1/GPa)
#
#
# Indices 1 2 3 4 5 6 
#
# 1 0.027823 -0.008498 0.002277 0.000000 0.000000 0.000000
# 2 -0.008498 0.027823 0.002277 0.000000 0.000000 0.000000
# 3 0.002277 0.002277 0.016171 0.000000 0.000000 0.000000
# 4 0.000000 0.000000 0.000000 0.027511 0.000000 0.000000
# 5 0.000000 0.000000 0.000000 0.000000 0.027511 0.000000
# 6 0.000000 0.000000 0.000000 0.000000 0.000000 0.053859
#
#
# Mechanical properties :
#
#
# Convention : Reuss Voigt Hill
#
# Bulk Modulus (GPa) = 15.64170 15.65056 15.64613
# Shear Modulus (GPa) = 23.82151 28.05952 25.94052
#
# Velocity S-wave (km/s) = 3.16644 3.43658 3.30427
# Velocity P-wave (km/s) = 4.46676 4.72589 4.59815
#
# Compressibility (1/GPa) = 0.06393166
#
# Stress axis : x y z
#
# Youngs Moduli (GPa) = 35.94112 35.94112 61.83842
#
# Poissons Ratio (x) = 0.30541 -0.14082
# Poissons Ratio (y) = 0.30541 -0.14082
# Poissons Ratio (z) = -0.08185 -0.08185
#
# Static dielectric constant tensor:
#      x y z
#    x 1.909880 0.000000 0.000000 
#    y 0.000000 1.909880 0.000000 
#    z 0.000000 0.000000 1.853400 
# 
# From -- ./inp_files/4464.got.cif
#   From: 2010.05.17/outbox.cif.g08.bks.cpg/sg92_3_cif.got.tgz:4464.got - 2010.06.03 19:35:17.
