data_PCOD9549055
_publ_section_title
;
Structure prediction by ZEFSAII (Michael W. Deem and Ramdas Pophale) SiO2 
 PCOD9549055
Probable space group: P 41 21 2
;
_chemical_formula_sum "Si O2"
_cell_formula_units_Z 40
_cell_length_a 8.655221
_cell_length_b 8.655221
_cell_length_c 21.920043
_cell_angle_alpha 90.000000
_cell_angle_beta 90.000000
_cell_angle_gamma 90.000000
_cell_volume 1642.092906
_symmetry_space_group_name_H-M "P 41 21 2"
_symmetry_group_IT_number 92
_symmetry_cell_setting 'tetragonal'
loop_
_space_group_symop_operation_xyz
x,y,z
1/2-y,1/2+x,1/4+z
-x,-y,1/2+z
1/2+y,1/2-x,3/4+z
1/2+x,1/2-y,3/4-z
1/2-x,1/2+y,1/4-z
y,x,-z
-y,-x,1/2-z
loop_
_atom_site_type_symbol
_atom_site_label
_atom_site_fract_x
_atom_site_fract_y
_atom_site_fract_z
Si Si1 0.845207 0.789386 0.239662
Si Si2 0.802026 0.966186 0.047595
Si Si3 0.298107 0.471667 0.862781
Si Si4 0.028958 0.386034 0.328647
Si Si5 0.713309 0.144837 0.690805
O O1 0.749122 0.628432 0.231739
O O2 0.953414 0.798792 0.179925
O O3 0.729707 0.932337 0.227314
O O4 0.971250 0.777212 0.293009
O O5 0.972260 0.951459 0.077803
O O6 0.692672 0.935954 0.105825
O O7 0.825193 0.825193 0.000000
O O8 0.299531 0.292520 0.878471
O O9 0.141918 0.543359 0.834972
O O10 0.135996 0.532266 0.317920
O O11 0.754056 0.245945 0.750000
#
# Coordination Sequence:
#
# PCOD9549055 Si02
#       5
#     8   8   8   8   8
#     4   9  20  39  62  89 124 166 210 262 326 390
#     4  10  20  39  63  91 129 171 219 270 324 390
#     4   9  20  39  62  92 128 164 213 269 321 386
#     4  10  21  40  65  96 131 170 219 270 327 399
#     4  10  21  41  65  96 134 171 217 273 339 399
#
# _framework density 24.359158999999998
#
# number of rings (size 3 to 8) (size 9 to 14) (size 15 to 20)
#    0.000    2.400    0.000    1.200    0.000    2.400 
#    0.000   43.000    0.000    0.000    0.000    0.000 
#    0.000    0.000    0.000    0.000    0.000    0.000 
#
# Total GULP energy -222978.704997 kJ/mol
# GULP energy per Si atom -5574.467625 kJ/mol
# Density = 2.430372 g / cm^3
# Si number density = 24.359159 Si / 1000 Ang^3
#
#
#
# Elastic Constant Matrix: (Units=GPa)
#
#
# Indices 1 2 3 4 5 6 
#
# 1 62.3150 5.2696 21.8938 0.0000 0.0000 0.0000
# 2 5.2696 62.3144 21.8938 0.0000 0.0000 0.0000
# 3 21.8938 21.8938 65.9248 0.0000 0.0000 0.0000
# 4 0.0000 0.0000 0.0000 38.6374 0.0000 0.0000
# 5 0.0000 0.0000 0.0000 0.0000 38.6375 0.0000
# 6 0.0000 0.0000 0.0000 0.0000 0.0000 31.0745
#
#
#
# Elastic Compliance Matrix: (Units=1/GPa)
#
#
# Indices 1 2 3 4 5 6 
#
# 1 0.018191 0.000661 -0.006261 0.000000 0.000000 0.000000
# 2 0.000661 0.018192 -0.006261 0.000000 0.000000 0.000000
# 3 -0.006261 -0.006261 0.019327 0.000000 0.000000 0.000000
# 4 0.000000 0.000000 0.000000 0.025882 0.000000 0.000000
# 5 0.000000 0.000000 0.000000 0.000000 0.025882 0.000000
# 6 0.000000 0.000000 0.000000 0.000000 0.000000 0.032181
#
#
# Mechanical properties :
#
#
# Convention : Reuss Voigt Hill
#
# Bulk Modulus (GPa) = 31.26091 32.07429 31.66760
# Shear Modulus (GPa) = 28.72924 31.10301 29.91613
#
# Velocity S-wave (km/s) = 3.43797 3.57718 3.50827
# Velocity P-wave (km/s) = 5.34983 5.50068 5.42578
#
# Compressibility (1/GPa) = 0.03198883
#
# Stress axis : x y z
#
# Youngs Moduli (GPa) = 54.97122 54.97065 51.73992
#
# Poissons Ratio (x) = -0.03636 0.32395
# Poissons Ratio (y) = -0.03636 0.32395
# Poissons Ratio (z) = 0.34418 0.34418
#
# Static dielectric constant tensor:
#      x y z
#    x 1.962470 0.000000 0.000000 
#    y 0.000000 1.962470 0.000000 
#    z 0.000000 0.000000 2.059770 
# 
# From -- ./inp_files/3785.got.cif
#   From: 2010.05.17/outbox.cif.g08.bks.cpg/sg92_2_cif.got.tgz:3785.got - 2010.06.03 19:35:17.
