data_PCOD9549908
_publ_section_title
;
Structure prediction by ZEFSAII (Michael W. Deem and Ramdas Pophale) SiO2 
 PCOD9549908
Probable space group: P 42 2 2
;
_chemical_formula_sum "Si O2"
_cell_formula_units_Z 40
_cell_length_a 15.000000
_cell_length_b 15.000000
_cell_length_c 9.000000
_cell_angle_alpha 90.000000
_cell_angle_beta 90.000000
_cell_angle_gamma 90.000000
_cell_volume 2025.000000
_symmetry_space_group_name_H-M "P 42 2 2"
_symmetry_group_IT_number 93
_symmetry_cell_setting 'tetragonal'
loop_
_space_group_symop_operation_xyz
x,y,z
-y,x,1/2+z
-x,-y,z
y,-x,1/2+z
x,-y,-z
-x,y,-z
y,x,1/2-z
-y,-x,1/2-z
loop_
_atom_site_type_symbol
_atom_site_label
_atom_site_fract_x
_atom_site_fract_y
_atom_site_fract_z
Si Si1 0.754797 0.381443 0.838842
Si Si2 0.406214 0.270136 0.694808
Si Si3 0.000000 0.827459 0.500000
Si Si4 0.870176 0.731722 0.675963
Si Si5 0.100707 0.100707 0.250000
Si Si6 0.946924 0.293250 0.848935
O O1 0.687348 0.312653 0.750000
O O2 0.738298 0.485951 0.793558
O O3 0.859427 0.353677 0.817684
O O4 0.740629 0.379496 0.019421
O O5 0.363973 0.363973 0.750000
O O6 0.352515 0.194945 0.792186
O O7 0.908629 0.769417 0.519461
O O8 0.982040 0.890260 0.360144
O O9 0.813644 0.813644 0.750000
O O10 0.967814 0.706592 0.740014
O O11 0.192347 0.091322 0.344557
O O12 0.000000 0.315394 0.000000
#
# Coordination Sequence:
#
# PCOD9549908 Si02
#       6
#     8   8   4   8   4   8
#     4  11  24  44  71 103 135 181 234 287 358 423
#     4  10  24  44  70 101 137 178 225 293 357 424
#     4  10  22  38  63  93 130 180 236 282 348 412
#     4  10  21  39  63  92 135 175 223 282 348 404
#     4  10  22  38  59  92 133 180 228 290 342 406
#     4  11  20  37  65  94 129 177 225 284 341 414
#
# _framework density 19.753086
#
# number of rings (size 3 to 8) (size 9 to 14) (size 15 to 20)
#    0.000    1.600    3.000    1.200    2.800    2.000 
#    0.000   23.500    0.000    4.800    0.000    0.000 
#    0.000    0.000    0.000    0.000    0.000    0.000 
#
# Total GULP energy -222778.230500 kJ/mol
# GULP energy per Si atom -5569.455762 kJ/mol
# Density = 1.970813 g / cm^3
# Si number density = 19.753086 Si / 1000 Ang^3
#
#
#
# Elastic Constant Matrix: (Units=GPa)
#
#
# Indices 1 2 3 4 5 6 
#
# 1 150.4524 66.5734 30.6896 0.0000 0.0000 0.0000
# 2 66.5734 150.4525 30.6897 0.0000 0.0000 0.0000
# 3 30.6896 30.6897 60.9897 0.0000 0.0000 0.0000
# 4 0.0000 0.0000 0.0000 34.7285 0.0000 0.0000
# 5 0.0000 0.0000 0.0000 0.0000 34.7285 0.0000
# 6 0.0000 0.0000 0.0000 0.0000 0.0000 34.7965
#
#
#
# Elastic Compliance Matrix: (Units=1/GPa)
#
#
# Indices 1 2 3 4 5 6 
#
# 1 0.008647 -0.003275 -0.002703 0.000000 0.000000 0.000000
# 2 -0.003275 0.008647 -0.002703 0.000000 0.000000 0.000000
# 3 -0.002703 -0.002703 0.019117 0.000000 0.000000 0.000000
# 4 0.000000 0.000000 0.000000 0.028795 0.000000 0.000000
# 5 0.000000 0.000000 0.000000 0.000000 0.028795 0.000000
# 6 0.000000 0.000000 0.000000 0.000000 0.000000 0.028738
#
#
# Mechanical properties :
#
#
# Convention : Reuss Voigt Hill
#
# Bulk Modulus (GPa) = 52.49853 68.64444 60.57148
# Shear Modulus (GPa) = 34.14102 36.44682 35.29392
#
# Velocity S-wave (km/s) = 4.16190 4.30015 4.23159
# Velocity P-wave (km/s) = 7.05197 7.71244 7.38959
#
# Compressibility (1/GPa) = 0.01904815
#
# Stress axis : x y z
#
# Youngs Moduli (GPa) = 115.64554 115.64558 52.31002
#
# Poissons Ratio (x) = 0.37872 0.14141
# Poissons Ratio (y) = 0.37872 0.14141
# Poissons Ratio (z) = 0.31262 0.31263
#
# Static dielectric constant tensor:
#      x y z
#    x 1.700320 0.000000 0.000000 
#    y 0.000000 1.700320 0.000000 
#    z 0.000000 0.000000 1.880200 
# 
# From -- ./inp_files/1885.got.cif
#   From: 2010.05.17/outbox.ucp.g08.bks.cvg/sg93_1_cif.got.tgz:1885.got - 2010.06.11 10:36:56.
