data_PCOD9549226
_publ_section_title
;
Structure prediction by ZEFSAII (Michael W. Deem and Ramdas Pophale) SiO2 
 PCOD9549226
Probable space group: P 41 21 2
;
_chemical_formula_sum "Si O2"
_cell_formula_units_Z 48
_cell_length_a 16.030909
_cell_length_b 16.030909
_cell_length_c 7.917644
_cell_angle_alpha 90.000000
_cell_angle_beta 90.000000
_cell_angle_gamma 90.000000
_cell_volume 2034.755675
_symmetry_space_group_name_H-M "P 41 21 2"
_symmetry_group_IT_number 92
_symmetry_cell_setting 'tetragonal'
loop_
_space_group_symop_operation_xyz
x,y,z
1/2-y,1/2+x,1/4+z
-x,-y,1/2+z
1/2+y,1/2-x,3/4+z
1/2+x,1/2-y,3/4-z
1/2-x,1/2+y,1/4-z
y,x,-z
-y,-x,1/2-z
loop_
_atom_site_type_symbol
_atom_site_label
_atom_site_fract_x
_atom_site_fract_y
_atom_site_fract_z
Si Si1 0.415385 0.067359 0.074017
Si Si2 0.213341 0.786660 0.250000
Si Si3 0.266795 0.113563 0.837819
Si Si4 0.043456 0.743106 0.075308
Si Si5 0.191963 0.808038 0.750000
Si Si6 0.852116 0.023513 0.265782
Si Si7 0.761551 0.367682 0.287718
O O1 0.434129 0.145639 0.197116
O O2 0.425250 0.983550 0.176761
O O3 0.328100 0.076696 0.977021
O O4 0.287629 0.765975 0.117847
O O5 0.119186 0.775194 0.188308
O O6 0.298164 0.104745 0.644336
O O7 0.179807 0.062382 0.842437
O O8 0.032280 0.804815 0.915266
O O9 0.949025 0.741358 0.151051
O O10 0.185409 0.893214 0.858191
O O11 0.191215 0.717296 0.835405
O O12 0.949175 0.050826 0.250000
O O13 0.668632 0.331369 0.250000
#
# Coordination Sequence:
#
# PCOD9549226 Si02
#       7
#     8   4   8   8   4   8   8
#     4  11  28  38  58  96 139 177 219 278 348 424
#     4  10  22  40  58  92 132 182 198 284 346 398
#     4  10  22  40  62  92 130 169 228 270 341 410
#     4  10  22  40  62  92 130 169 228 270 341 410
#     4   8  18  30  64  90 120 156 220 258 350 376
#     4   9  20  36  67  90 121 170 219 274 324 411
#     4   9  20  36  67  90 121 170 219 274 324 411
#
# _framework density 23.590055
#
# number of rings (size 3 to 8) (size 9 to 14) (size 15 to 20)
#    1.000    1.333    0.000    1.000    9.333    2.667 
#    0.000    0.000   14.667    0.000    0.000    0.000 
#    0.000    0.000    0.000    0.000    0.000    0.000 
#
# Total GULP energy -267260.539972 kJ/mol
# GULP energy per Si atom -5567.927916 kJ/mol
# Density = 2.353636 g / cm^3
# Si number density = 23.590055 Si / 1000 Ang^3
#
#
#
# Elastic Constant Matrix: (Units=GPa)
#
#
# Indices 1 2 3 4 5 6 
#
# 1 76.5006 5.4823 7.9917 0.0000 0.0000 0.0000
# 2 5.4823 76.5020 7.9909 0.0000 0.0000 0.0000
# 3 7.9917 7.9909 71.6904 0.0000 0.0000 0.0000
# 4 0.0000 0.0000 0.0000 30.5277 0.0000 0.0000
# 5 0.0000 0.0000 0.0000 0.0000 30.5273 0.0000
# 6 0.0000 0.0000 0.0000 0.0000 0.0000 35.2011
#
#
#
# Elastic Compliance Matrix: (Units=1/GPa)
#
#
# Indices 1 2 3 4 5 6 
#
# 1 0.013275 -0.000806 -0.001390 0.000000 0.000000 0.000000
# 2 -0.000806 0.013274 -0.001390 0.000000 0.000000 0.000000
# 3 -0.001390 -0.001390 0.014259 0.000000 0.000000 0.000000
# 4 0.000000 0.000000 0.000000 0.032757 0.000000 0.000000
# 5 0.000000 0.000000 0.000000 0.000000 0.032758 0.000000
# 6 0.000000 0.000000 0.000000 0.000000 0.000000 0.028408
#
#
# Mechanical properties :
#
#
# Convention : Reuss Voigt Hill
#
# Bulk Modulus (GPa) = 29.72978 29.73587 29.73283
# Shear Modulus (GPa) = 32.65527 32.79976 32.72751
#
# Velocity S-wave (km/s) = 3.72463 3.73286 3.72875
# Velocity P-wave (km/s) = 5.57917 5.58674 5.58296
#
# Compressibility (1/GPa) = 0.03363630
#
# Stress axis : x y z
#
# Youngs Moduli (GPa) = 75.33089 75.33251 70.13251
#
# Poissons Ratio (x) = 0.06073 0.09748
# Poissons Ratio (y) = 0.06072 0.09747
# Poissons Ratio (z) = 0.10471 0.10469
#
# Static dielectric constant tensor:
#      x y z
#    x 1.954410 0.000000 0.000000 
#    y 0.000000 1.954410 0.000000 
#    z 0.000000 0.000000 2.030680 
# 
# From -- ./inp_files/1552.got.cif
#   From: 2010.05.17/outbox.cif.g08.bks.cpg/sg92_1_cif.got.tgz:1552.got - 2010.06.03 19:35:17.
