data_PCOD9549251
_publ_section_title
;
Structure prediction by ZEFSAII (Michael W. Deem and Ramdas Pophale) SiO2 
 PCOD9549251
Probable space group: P 41 21 2
;
_chemical_formula_sum "Si O2"
_cell_formula_units_Z 48
_cell_length_a 7.888290
_cell_length_b 7.888290
_cell_length_c 30.824692
_cell_angle_alpha 90.000000
_cell_angle_beta 90.000000
_cell_angle_gamma 90.000000
_cell_volume 1918.070132
_symmetry_space_group_name_H-M "P 41 21 2"
_symmetry_group_IT_number 92
_symmetry_cell_setting 'tetragonal'
loop_
_space_group_symop_operation_xyz
x,y,z
1/2-y,1/2+x,1/4+z
-x,-y,1/2+z
1/2+y,1/2-x,3/4+z
1/2+x,1/2-y,3/4-z
1/2-x,1/2+y,1/4-z
y,x,-z
-y,-x,1/2-z
loop_
_atom_site_type_symbol
_atom_site_label
_atom_site_fract_x
_atom_site_fract_y
_atom_site_fract_z
Si Si1 0.265765 0.799065 0.976395
Si Si2 0.090612 0.059741 0.560671
Si Si3 0.113193 0.714033 0.804560
Si Si4 0.883472 0.859641 0.686348
Si Si5 0.603901 0.902280 0.846510
Si Si6 0.171338 0.813652 0.368693
O O1 0.449812 0.869194 0.966996
O O2 0.244754 0.660296 0.937950
O O3 0.114298 0.927071 0.965326
O O4 0.280066 0.716449 0.023312
O O5 0.101587 0.234743 0.535920
O O6 0.952643 0.084550 0.598519
O O7 0.288493 0.049328 0.577790
O O8 0.115407 0.674555 0.855623
O O9 0.120480 0.918795 0.800253
O O10 0.850427 0.728812 0.646144
O O11 0.805051 0.037939 0.670269
O O12 0.652473 0.098343 0.852319
#
# Coordination Sequence:
#
# PCOD9549251 Si02
#       6
#     8   8   8   8   8   8
#     4  10  22  41  70 101 139 170 239 304 337 424
#     4   9  21  42  65 102 131 175 238 289 344 417
#     4  11  19  41  73  98 130 185 229 286 359 419
#     4  12  24  43  62 103 138 186 233 281 369 427
#     4   9  19  42  69  95 131 176 229 293 351 408
#     4  11  24  41  67  94 145 191 223 299 358 433
#
# _framework density 25.025153
#
# number of rings (size 3 to 8) (size 9 to 14) (size 15 to 20)
#    1.000    0.667    3.333    1.500    2.333    0.667 
#   15.000    0.000    0.000    4.000    0.000    0.000 
#    0.000    0.000    0.000    0.000    0.000    0.000 
#
# Total GULP energy -267580.969522 kJ/mol
# GULP energy per Si atom -5574.603532 kJ/mol
# Density = 2.496819 g / cm^3
# Si number density = 25.025153 Si / 1000 Ang^3
#
#
#
# Elastic Constant Matrix: (Units=GPa)
#
#
# Indices 1 2 3 4 5 6 
#
# 1 89.5977 12.1589 -2.5827 0.0000 0.0000 0.0000
# 2 12.1589 89.5977 -2.5827 0.0000 0.0000 0.0000
# 3 -2.5827 -2.5827 77.0158 0.0000 0.0000 0.0000
# 4 0.0000 0.0000 0.0000 -18.3388 0.0000 0.0000
# 5 0.0000 0.0000 0.0000 0.0000 -18.3388 0.0000
# 6 0.0000 0.0000 0.0000 0.0000 0.0000 24.6017
#
#
#
# Elastic Compliance Matrix: (Units=1/GPa)
#
#
# Indices 1 2 3 4 5 6 
#
# 1 0.011379 -0.001535 0.000330 0.000000 0.000000 0.000000
# 2 -0.001535 0.011379 0.000330 0.000000 0.000000 0.000000
# 3 0.000330 0.000330 0.013006 0.000000 0.000000 0.000000
# 4 0.000000 0.000000 0.000000 -0.054529 0.000000 0.000000
# 5 0.000000 0.000000 0.000000 0.000000 -0.054529 0.000000
# 6 0.000000 0.000000 0.000000 0.000000 0.000000 0.040648
#
#
# Mechanical properties :
#
#
# Convention : Reuss Voigt Hill
#
# Bulk Modulus (GPa) = 29.39860 30.02203 29.71032
# Shear Modulus (GPa) = -255.62679 14.19934 -120.71372
#
# Velocity S-wave (km/s) = -10.11779 2.38461 -6.95282
# Velocity P-wave (km/s) = 11.16780 4.42771 7.24966
#
# Compressibility (1/GPa) = 0.03401522
#
# Stress axis : x y z
#
# Youngs Moduli (GPa) = 87.88288 87.88288 76.88466
#
# Poissons Ratio (x) = 0.13487 -0.02538
# Poissons Ratio (y) = 0.13487 -0.02538
# Poissons Ratio (z) = -0.02901 -0.02901
#
# Static dielectric constant tensor:
#      x y z
#    x 2.069590 0.000000 0.000000 
#    y 0.000000 2.069590 0.000000 
#    z 0.000000 0.000000 1.992880 
# 
# From -- ./inp_files/4527.got.cif
#   From: 2010.05.17/outbox.cif.g08.bks.cpg/sg92_3_cif.got.tgz:4527.got - 2010.06.03 19:35:17.
