data_PCOD9549166
_publ_section_title
;
Structure prediction by ZEFSAII (Michael W. Deem and Ramdas Pophale) SiO2 
 PCOD9549166
Probable space group: P 41 21 2
;
_chemical_formula_sum "Si O2"
_cell_formula_units_Z 44
_cell_length_a 11.634426
_cell_length_b 11.634426
_cell_length_c 17.378900
_cell_angle_alpha 90.000000
_cell_angle_beta 90.000000
_cell_angle_gamma 90.000000
_cell_volume 2352.405616
_symmetry_space_group_name_H-M "P 41 21 2"
_symmetry_group_IT_number 92
_symmetry_cell_setting 'tetragonal'
loop_
_space_group_symop_operation_xyz
x,y,z
1/2-y,1/2+x,1/4+z
-x,-y,1/2+z
1/2+y,1/2-x,3/4+z
1/2+x,1/2-y,3/4-z
1/2-x,1/2+y,1/4-z
y,x,-z
-y,-x,1/2-z
loop_
_atom_site_type_symbol
_atom_site_label
_atom_site_fract_x
_atom_site_fract_y
_atom_site_fract_z
Si Si1 0.913486 0.086515 0.250000
Si Si2 0.962243 0.511894 0.788466
Si Si3 0.092617 0.948320 0.334442
Si Si4 0.214749 0.528621 0.418568
Si Si5 0.456740 0.146632 0.094582
Si Si6 0.815163 0.891781 0.586183
O O1 0.931958 0.205119 0.206749
O O2 0.015622 0.059910 0.312021
O O3 0.945228 0.614050 0.728374
O O4 0.848987 0.503136 0.839963
O O5 0.989019 0.395419 0.741049
O O6 0.068442 0.526677 0.846029
O O7 0.109720 0.890281 0.250000
O O8 0.219942 0.973265 0.362212
O O9 0.015040 0.868350 0.389100
O O10 0.301143 0.630855 0.396633
O O11 0.321326 0.114276 0.095505
O O12 0.855093 0.855093 0.500000
#
# Coordination Sequence:
#
# PCOD9549166 Si02
#       6
#     4   8   8   8   8   8
#     4   8  20  40  62  80 120 156 196 252 292 356
#     4  10  23  37  60  90 120 156 200 245 311 366
#     4   9  20  36  57  87 116 150 201 245 297 344
#     4  10  21  42  57  90 119 159 202 245 310 361
#     4  11  21  36  58  87 121 155 195 253 297 359
#     4  11  21  34  64  89 117 158 199 257 297 353
#
# _framework density 18.704257999999999
#
# number of rings (size 3 to 8) (size 9 to 14) (size 15 to 20)
#    0.545    1.455    1.818    1.636    5.091    0.000 
#    3.273    7.273    0.000    0.000    0.000    0.000 
#    0.000    0.000    0.000    0.000    0.000    0.000 
#
# Total GULP energy -245201.697502 kJ/mol
# GULP energy per Si atom -5572.765852 kJ/mol
# Density = 1.866169 g / cm^3
# Si number density = 18.704258 Si / 1000 Ang^3
#
#
#
# Elastic Constant Matrix: (Units=GPa)
#
#
# Indices 1 2 3 4 5 6 
#
# 1 73.1757 0.2867 16.9115 0.0000 0.0000 0.0000
# 2 0.2867 73.1757 16.9118 0.0000 0.0000 0.0000
# 3 16.9115 16.9118 72.9553 0.0000 0.0000 0.0000
# 4 0.0000 0.0000 0.0000 20.7934 0.0000 0.0000
# 5 0.0000 0.0000 0.0000 0.0000 20.7932 0.0000
# 6 0.0000 0.0000 0.0000 0.0000 0.0000 6.5610
#
#
#
# Elastic Compliance Matrix: (Units=1/GPa)
#
#
# Indices 1 2 3 4 5 6 
#
# 1 0.014479 0.000760 -0.003532 0.000000 0.000000 0.000000
# 2 0.000760 0.014479 -0.003533 0.000000 0.000000 0.000000
# 3 -0.003532 -0.003533 0.015345 0.000000 0.000000 0.000000
# 4 0.000000 0.000000 0.000000 0.048092 0.000000 0.000000
# 5 0.000000 0.000000 0.000000 0.000000 0.048093 0.000000
# 6 0.000000 0.000000 0.000000 0.000000 0.000000 0.152416
#
#
# Mechanical properties :
#
#
# Convention : Reuss Voigt Hill
#
# Bulk Modulus (GPa) = 31.55327 31.94741 31.75034
# Shear Modulus (GPa) = 15.81885 21.97596 18.89741
#
# Velocity S-wave (km/s) = 2.91131 3.43143 3.18201
# Velocity P-wave (km/s) = 5.31104 5.72861 5.52377
#
# Compressibility (1/GPa) = 0.03169244
#
# Stress axis : x y z
#
# Youngs Moduli (GPa) = 69.06486 69.06473 65.16891
#
# Poissons Ratio (x) = -0.05247 0.23021
# Poissons Ratio (y) = -0.05247 0.23021
# Poissons Ratio (z) = 0.24397 0.24397
#
# Static dielectric constant tensor:
#      x y z
#    x 1.655820 0.000000 0.000000 
#    y 0.000000 1.655820 0.000000 
#    z 0.000000 0.000000 1.685670 
# 
# From -- ./inp_files/3059.got.cif
#   From: 2010.05.17/outbox.cif.g08.bks.cpg/sg92_2_cif.got.tgz:3059.got - 2010.06.03 19:35:17.
