data_PCOD9549358
_publ_section_title
;
Structure prediction by ZEFSAII (Michael W. Deem and Ramdas Pophale) SiO2 
 PCOD9549358
Probable space group: P 41 21 2
;
_chemical_formula_sum "Si O2"
_cell_formula_units_Z 48
_cell_length_a 8.805850
_cell_length_b 8.805850
_cell_length_c 28.266135
_cell_angle_alpha 90.000000
_cell_angle_beta 90.000000
_cell_angle_gamma 90.000000
_cell_volume 2191.840743
_symmetry_space_group_name_H-M "P 41 21 2"
_symmetry_group_IT_number 92
_symmetry_cell_setting 'tetragonal'
loop_
_space_group_symop_operation_xyz
x,y,z
1/2-y,1/2+x,1/4+z
-x,-y,1/2+z
1/2+y,1/2-x,3/4+z
1/2+x,1/2-y,3/4-z
1/2-x,1/2+y,1/4-z
y,x,-z
-y,-x,1/2-z
loop_
_atom_site_type_symbol
_atom_site_label
_atom_site_fract_x
_atom_site_fract_y
_atom_site_fract_z
Si Si1 0.674578 0.325423 0.250000
Si Si2 0.264425 0.988237 0.413088
Si Si3 0.023620 0.374872 0.066418
Si Si4 0.779547 0.478322 0.006479
Si Si5 0.197073 0.134631 0.845825
Si Si6 0.594940 0.469218 0.423633
Si Si7 0.307401 0.307401 0.000000
O O1 0.556560 0.336325 0.206294
O O2 0.856587 0.341719 0.240220
O O3 0.444082 0.997057 0.424634
O O4 0.256121 0.810110 0.399527
O O5 0.209426 0.081677 0.367164
O O6 0.037228 0.290704 0.116174
O O7 0.885085 0.351536 0.030882
O O8 0.167575 0.324341 0.035356
O O9 0.656209 0.502372 0.048255
O O10 0.723818 0.404088 0.958593
O O11 0.020533 0.088794 0.850859
O O12 0.688095 0.548124 0.465561
#
# Coordination Sequence:
#
# PCOD9549358 Si02
#       7
#     4   8   8   8   8   8   4
#     4  10  23  46  65  98 140 178 238 291 346 433
#     4  11  24  43  68 100 134 180 232 290 355 424
#     4  11  27  40  68 100 133 182 235 289 353 426
#     4  11  24  44  66  99 137 184 229 288 358 424
#     4  12  22  44  65 101 136 177 238 292 350 437
#     4  12  23  42  71  92 141 184 222 293 360 413
#     4  12  21  46  63  96 136 182 220 293 358 413
#
# _framework density 21.899398999999999
#
# number of rings (size 3 to 8) (size 9 to 14) (size 15 to 20)
#    0.000    0.667    6.667    0.000    4.667    2.667 
#    0.000    0.000    0.000    0.000    0.000    0.000 
#    0.000    0.000    0.000    0.000    0.000    0.000 
#
# Total GULP energy -267391.331231 kJ/mol
# GULP energy per Si atom -5570.652734 kJ/mol
# Density = 2.184956 g / cm^3
# Si number density = 21.899399 Si / 1000 Ang^3
#
#
#
# Elastic Constant Matrix: (Units=GPa)
#
#
# Indices 1 2 3 4 5 6 
#
# 1 23.1817 39.1081 29.3816 0.0000 0.0000 0.0000
# 2 39.1081 23.1807 29.3819 0.0000 0.0000 0.0000
# 3 29.3816 29.3819 102.8817 0.0000 0.0000 0.0000
# 4 0.0000 0.0000 0.0000 34.6102 0.0000 0.0000
# 5 0.0000 0.0000 0.0000 0.0000 34.6101 0.0000
# 6 0.0000 0.0000 0.0000 0.0000 0.0000 14.5853
#
#
#
# Elastic Compliance Matrix: (Units=1/GPa)
#
#
# Indices 1 2 3 4 5 6 
#
# 1 -0.020405 0.042381 -0.006276 0.000000 0.000000 0.000000
# 2 0.042381 -0.020407 -0.006275 0.000000 0.000000 0.000000
# 3 -0.006276 -0.006275 0.013304 0.000000 0.000000 0.000000
# 4 0.000000 0.000000 0.000000 0.028893 0.000000 0.000000
# 5 0.000000 0.000000 0.000000 0.000000 0.028893 0.000000
# 6 0.000000 0.000000 0.000000 0.000000 0.000000 0.068562
#
#
# Mechanical properties :
#
#
# Convention : Reuss Voigt Hill
#
# Bulk Modulus (GPa) = 31.10334 38.33190 34.71762
# Shear Modulus (GPa) = 100.20240 20.18594 60.19417
#
# Velocity S-wave (km/s) = 6.77164 3.03934 5.24846
# Velocity P-wave (km/s) = 8.68181 5.46429 7.25370
#
# Compressibility (1/GPa) = 0.03215089
#
# Stress axis : x y z
#
# Youngs Moduli (GPa) = -49.00680 -49.00282 75.16311
#
# Poissons Ratio (x) = 2.07678 0.47172
# Poissons Ratio (y) = 2.07694 0.47167
# Poissons Ratio (z) = -0.30757 -0.30751
#
# Static dielectric constant tensor:
#      x y z
#    x 1.913280 0.000000 0.000000 
#    y 0.000000 1.913280 0.000000 
#    z 0.000000 0.000000 1.779750 
# 
# From -- ./inp_files/4566.got.cif
#   From: 2010.05.17/outbox.cif.g08.bks.cpg/sg92_3_cif.got.tgz:4566.got - 2010.06.03 19:35:17.
