data_PCOD9549765
_publ_section_title
;
Structure prediction by ZEFSAII (Michael W. Deem and Ramdas Pophale) SiO2 
 PCOD9549765
Probable space group: P 42 2 2
;
_chemical_formula_sum "Si O2"
_cell_formula_units_Z 60
_cell_length_a 11.614234
_cell_length_b 11.614234
_cell_length_c 20.719598
_cell_angle_alpha 90.000000
_cell_angle_beta 90.000000
_cell_angle_gamma 90.000000
_cell_volume 2794.875513
_symmetry_space_group_name_H-M "P 42 2 2"
_symmetry_group_IT_number 93
_symmetry_cell_setting 'tetragonal'
loop_
_space_group_symop_operation_xyz
x,y,z
-y,x,1/2+z
-x,-y,z
y,-x,1/2+z
x,-y,-z
-x,y,-z
y,x,1/2-z
-y,-x,1/2-z
loop_
_atom_site_type_symbol
_atom_site_label
_atom_site_fract_x
_atom_site_fract_y
_atom_site_fract_z
Si Si1 0.870624 0.490065 0.892727
Si Si2 0.131202 0.959317 0.069495
Si Si3 0.500000 0.500000 0.634174
Si Si4 0.332158 0.383708 0.041072
Si Si5 0.894419 0.572207 0.257453
Si Si6 0.287883 0.602015 0.305609
Si Si7 0.176183 0.997304 0.219557
Si Si8 0.267318 0.748597 0.423896
O O1 0.792510 0.393363 0.926113
O O2 0.878843 0.460308 0.817628
O O3 0.804559 0.609912 0.905281
O O4 0.000000 0.500000 0.918500
O O5 0.149962 0.822837 0.068142
O O6 0.174831 0.995562 0.141095
O O7 0.000000 0.000000 0.069032
O O8 0.183137 0.000000 0.000000
O O9 0.596213 0.431364 0.593049
O O10 0.421659 0.417992 0.676249
O O11 0.347424 0.500000 0.000000
O O12 0.325704 0.283348 0.989127
O O13 0.778733 0.516336 0.288570
O O14 0.945717 0.700969 0.261376
O O15 0.000000 0.500000 0.286043
O O16 0.302645 0.697356 0.250000
O O17 0.230673 0.663577 0.366757
O O18 0.087185 0.087185 0.250000
O O19 0.123641 0.876359 0.250000
#
# Coordination Sequence:
#
# PCOD9549765 Si02
#       8
#     8   8   4   8   8   8   8   8
#     4  10  22  38  63 103 137 182 235 296 366 425
#     4  11  26  46  71 104 134 187 250 305 376 444
#     4  12  22  40  72  98 149 185 244 282 358 447
#     4  10  21  40  62 100 137 184 231 278 355 443
#     4  11  25  41  68 104 140 184 245 298 365 446
#     4  12  24  43  66 105 142 190 229 298 368 430
#     4  11  25  48  74 103 144 193 245 311 379 445
#     4  11  24  42  69  93 146 190 228 302 364 439
#
# _framework density 21.467860000000002
#
# number of rings (size 3 to 8) (size 9 to 14) (size 15 to 20)
#    0.000    1.067    5.333    1.200    3.733    9.867 
#    0.000    0.000    0.000    2.800    0.000    0.000 
#    0.000    0.000    0.000    0.000    0.000    0.000 
#
# Total GULP energy -334284.256102 kJ/mol
# GULP energy per Si atom -5571.404268 kJ/mol
# Density = 2.141900 g / cm^3
# Si number density = 21.467860 Si / 1000 Ang^3
#
#
#
# Elastic Constant Matrix: (Units=GPa)
#
#
# Indices 1 2 3 4 5 6 
#
# 1 105.0848 40.0293 37.1477 0.0000 0.0000 0.0000
# 2 40.0293 105.0849 37.1470 0.0000 0.0000 0.0000
# 3 37.1477 37.1470 130.1485 0.0000 0.0000 0.0000
# 4 0.0000 0.0000 0.0000 2.2862 0.0000 0.0000
# 5 0.0000 0.0000 0.0000 0.0000 2.2889 0.0000
# 6 0.0000 0.0000 0.0000 0.0000 0.0000 40.2199
#
#
#
# Elastic Compliance Matrix: (Units=1/GPa)
#
#
# Indices 1 2 3 4 5 6 
#
# 1 0.011721 -0.003651 -0.002304 0.000000 0.000000 0.000000
# 2 -0.003651 0.011721 -0.002303 0.000000 0.000000 0.000000
# 3 -0.002304 -0.002303 0.008998 0.000000 0.000000 0.000000
# 4 0.000000 0.000000 0.000000 0.437400 0.000000 0.000000
# 5 0.000000 0.000000 0.000000 0.000000 0.436882 0.000000
# 6 0.000000 0.000000 0.000000 0.000000 0.000000 0.024863
#
#
# Mechanical properties :
#
#
# Convention : Reuss Voigt Hill
#
# Bulk Modulus (GPa) = 62.79273 63.21847 63.00560
# Shear Modulus (GPa) = 5.24434 24.02530 14.63482
#
# Velocity S-wave (km/s) = 1.56467 3.34897 2.61379
# Velocity P-wave (km/s) = 5.70766 6.66828 6.20658
#
# Compressibility (1/GPa) = 0.01592541
#
# Stress axis : x y z
#
# Youngs Moduli (GPa) = 85.31694 85.31748 111.12999
#
# Poissons Ratio (x) = 0.31145 0.25599
# Poissons Ratio (y) = 0.31145 0.25598
# Poissons Ratio (z) = 0.19653 0.19652
#
# Static dielectric constant tensor:
#      x y z
#    x 1.802400 0.000000 0.000000 
#    y 0.000000 1.802400 0.000000 
#    z 0.000000 0.000000 1.861280 
# 
# From -- ./inp_files/6350.got.cif
#   From: 2010.05.17/outbox.cif.g08.bks.cpg/sg93_4_cif.got.tgz:6350.got - 2010.06.03 19:38:44.
