data_PCOD9549876
_publ_section_title
;
Structure prediction by ZEFSAII (Michael W. Deem and Ramdas Pophale) SiO2 
 PCOD9549876
Probable space group: P 42 2 2
;
_chemical_formula_sum "Si O2"
_cell_formula_units_Z 26
_cell_length_a 9.418444
_cell_length_b 9.418444
_cell_length_c 11.084923
_cell_angle_alpha 90.000000
_cell_angle_beta 90.000000
_cell_angle_gamma 90.000000
_cell_volume 983.311233
_symmetry_space_group_name_H-M "P 42 2 2"
_symmetry_group_IT_number 93
_symmetry_cell_setting 'tetragonal'
loop_
_space_group_symop_operation_xyz
x,y,z
-y,x,1/2+z
-x,-y,z
y,-x,1/2+z
x,-y,-z
-x,y,-z
y,x,1/2-z
-y,-x,1/2-z
loop_
_atom_site_type_symbol
_atom_site_label
_atom_site_fract_x
_atom_site_fract_y
_atom_site_fract_z
Si Si1 0.597817 0.220999 0.326051
Si Si2 0.305598 0.020197 0.141771
Si Si3 0.340123 0.683918 0.945100
Si Si4 0.000000 0.000000 0.750000
O O1 0.643867 0.356134 0.250000
O O2 0.623973 0.084058 0.241864
O O3 0.706160 0.232608 0.440747
O O4 0.551544 0.264499 0.618275
O O5 0.346696 0.185680 0.146391
O O6 0.139862 0.004651 0.168531
O O7 0.500000 0.661881 0.000000
O O8 0.341283 0.000000 0.000000
#
# Coordination Sequence:
#
# PCOD9549876 Si02
#       4
#     8   8   8   2
#     4  11  23  51  88 128 171 229 303 375 464 551
#     4  12  25  53  83 124 174 232 297 371 466 558
#     4  11  27  51  89 130 179 236 312 391 465 558
#     4  12  26  48  84 118 180 240 290 372 464 586
#
# _framework density 26.441269999999999
#
# number of rings (size 3 to 8) (size 9 to 14) (size 15 to 20)
#    0.000    0.615    4.615    2.308    0.000    5.538 
#   11.077    0.000    0.000    7.385    0.000    0.000 
#    0.000    0.000    0.000    0.000    0.000    0.000 
#
# Total GULP energy -145383.110276 kJ/mol
# GULP energy per Si atom -5591.658088 kJ/mol
# Density = 2.638109 g / cm^3
# Si number density = 26.441270 Si / 1000 Ang^3
#
#
#
# Elastic Constant Matrix: (Units=GPa)
#
#
# Indices 1 2 3 4 5 6 
#
# 1 198.5763 78.6694 95.8532 0.0000 0.0000 0.0000
# 2 78.6694 198.5740 95.8534 0.0000 0.0000 0.0000
# 3 95.8532 95.8534 221.7450 0.0000 0.0000 0.0000
# 4 0.0000 0.0000 0.0000 58.9270 0.0000 0.0000
# 5 0.0000 0.0000 0.0000 0.0000 58.9271 0.0000
# 6 0.0000 0.0000 0.0000 0.0000 0.0000 41.8483
#
#
#
# Elastic Compliance Matrix: (Units=1/GPa)
#
#
# Indices 1 2 3 4 5 6 
#
# 1 0.006742 -0.001598 -0.002224 0.000000 0.000000 0.000000
# 2 -0.001598 0.006742 -0.002224 0.000000 0.000000 0.000000
# 3 -0.002224 -0.002224 0.006432 0.000000 0.000000 0.000000
# 4 0.000000 0.000000 0.000000 0.016970 0.000000 0.000000
# 5 0.000000 0.000000 0.000000 0.000000 0.016970 0.000000
# 6 0.000000 0.000000 0.000000 0.000000 0.000000 0.023896
#
#
# Mechanical properties :
#
#
# Convention : Reuss Voigt Hill
#
# Bulk Modulus (GPa) = 127.77692 128.84971 128.31331
# Shear Modulus (GPa) = 54.08189 55.17510 54.62849
#
# Velocity S-wave (km/s) = 4.52747 4.57300 4.55029
# Velocity P-wave (km/s) = 8.70404 8.75896 8.73155
#
# Compressibility (1/GPa) = 0.00782614
#
# Stress axis : x y z
#
# Youngs Moduli (GPa) = 148.31897 148.31665 155.46522
#
# Poissons Ratio (x) = 0.23695 0.34573
# Poissons Ratio (y) = 0.23696 0.34574
# Poissons Ratio (z) = 0.32984 0.32984
#
# Static dielectric constant tensor:
#      x y z
#    x 2.227730 0.000000 0.000000 
#    y 0.000000 2.227730 0.000000 
#    z 0.000000 0.000000 2.085750 
# 
# From -- ./inp_files/4065.got.cif
#   From: 2010.05.17/outbox.cif.g08.bks.cpg/sg93_3_cif.got.tgz:4065.got - 2010.06.03 19:38:44.
