data_PCOD9549407
_publ_section_title
;
Structure prediction by ZEFSAII (Michael W. Deem and Ramdas Pophale) SiO2 
 PCOD9549407
Probable space group: P 41 21 2
;
_chemical_formula_sum "Si O2"
_cell_formula_units_Z 56
_cell_length_a 14.434134
_cell_length_b 14.434134
_cell_length_c 11.005769
_cell_angle_alpha 90.000000
_cell_angle_beta 90.000000
_cell_angle_gamma 90.000000
_cell_volume 2292.988405
_symmetry_space_group_name_H-M "P 41 21 2"
_symmetry_group_IT_number 92
_symmetry_cell_setting 'tetragonal'
loop_
_space_group_symop_operation_xyz
x,y,z
1/2-y,1/2+x,1/4+z
-x,-y,1/2+z
1/2+y,1/2-x,3/4+z
1/2+x,1/2-y,3/4-z
1/2-x,1/2+y,1/4-z
y,x,-z
-y,-x,1/2-z
loop_
_atom_site_type_symbol
_atom_site_label
_atom_site_fract_x
_atom_site_fract_y
_atom_site_fract_z
Si Si1 0.290797 0.224241 0.134321
Si Si2 0.936062 0.547428 0.145312
Si Si3 0.175213 0.175213 0.500000
Si Si4 0.841071 0.302001 0.054581
Si Si5 0.255627 0.994100 0.378976
Si Si6 0.075204 0.924797 0.250000
Si Si7 0.389904 0.610265 0.392534
Si Si8 0.285616 0.013021 0.771267
O O1 0.283841 0.314715 0.221733
O O2 0.395389 0.191754 0.154055
O O3 0.213928 0.147704 0.177152
O O4 0.257774 0.257774 0.000000
O O5 0.969010 0.490365 0.264210
O O6 0.830299 0.520827 0.105744
O O7 0.947444 0.656152 0.163052
O O8 0.189076 0.257477 0.401488
O O9 0.070661 0.195041 0.546466
O O10 0.836739 0.388771 0.962533
O O11 0.935818 0.301985 0.127536
O O12 0.176861 0.947897 0.296506
O O13 0.991474 0.931297 0.343101
O O14 0.381168 0.618833 0.250000
O O15 0.321137 0.541953 0.465799
#
# Coordination Sequence:
#
# PCOD9549407 Si02
#       8
#     8   8   4   8   8   4   8   8
#     4  10  24  50  74 110 153 209 263 336 407 494
#     4  12  28  51  81 127 162 224 282 354 433 511
#     4  12  26  45  74 113 162 202 274 332 396 518
#     4  11  25  44  76 111 153 204 261 336 404 498
#     4  12  27  48  76 116 164 212 275 340 429 495
#     4  12  28  49  72 121 158 218 270 348 418 526
#     4  10  26  48  75 114 157 211 280 338 420 504
#     4  11  22  48  73 111 158 202 272 335 419 486
#
# _framework density 24.422277999999999
#
# number of rings (size 3 to 8) (size 9 to 14) (size 15 to 20)
#    0.000    0.857    3.571    1.714    7.000    5.143 
#    0.000    0.000    0.000    0.000    0.000    0.000 
#    0.000    0.000    0.000    0.000    0.000    0.000 
#
# Total GULP energy -311959.414527 kJ/mol
# GULP energy per Si atom -5570.703831 kJ/mol
# Density = 2.436669 g / cm^3
# Si number density = 24.422278 Si / 1000 Ang^3
#
#
#
# Elastic Constant Matrix: (Units=GPa)
#
#
# Indices 1 2 3 4 5 6 
#
# 1 106.5630 43.8204 30.9008 0.0000 0.0000 0.0000
# 2 43.8204 106.5601 30.9017 0.0000 0.0000 0.0000
# 3 30.9008 30.9017 100.9982 0.0000 0.0000 0.0000
# 4 0.0000 0.0000 0.0000 41.8278 0.0000 0.0000
# 5 0.0000 0.0000 0.0000 0.0000 41.8284 0.0000
# 6 0.0000 0.0000 0.0000 0.0000 0.0000 40.6936
#
#
#
# Elastic Compliance Matrix: (Units=1/GPa)
#
#
# Indices 1 2 3 4 5 6 
#
# 1 0.011772 -0.004166 -0.002327 0.000000 0.000000 0.000000
# 2 -0.004166 0.011773 -0.002327 0.000000 0.000000 0.000000
# 3 -0.002327 -0.002327 0.011325 0.000000 0.000000 0.000000
# 4 0.000000 0.000000 0.000000 0.023908 0.000000 0.000000
# 5 0.000000 0.000000 0.000000 0.000000 0.023907 0.000000
# 6 0.000000 0.000000 0.000000 0.000000 0.000000 0.024574
#
#
# Mechanical properties :
#
#
# Convention : Reuss Voigt Hill
#
# Bulk Modulus (GPa) = 58.04232 58.37414 58.20823
# Shear Modulus (GPa) = 38.27241 38.76985 38.52113
#
# Velocity S-wave (km/s) = 3.96297 3.98864 3.97583
# Velocity P-wave (km/s) = 6.69013 6.72058 6.70538
#
# Compressibility (1/GPa) = 0.01722881
#
# Stress axis : x y z
#
# Youngs Moduli (GPa) = 84.94650 84.94355 88.29873
#
# Poissons Ratio (x) = 0.35389 0.20547
# Poissons Ratio (y) = 0.35390 0.20550
# Poissons Ratio (z) = 0.19767 0.19769
#
# Static dielectric constant tensor:
#      x y z
#    x 2.038160 0.000000 0.000000 
#    y 0.000000 2.038160 0.000000 
#    z 0.000000 0.000000 2.046470 
# 
# From -- ./inp_files/2301.got.cif
#   From: 2010.05.17/outbox.cif.g08.bks.cpg/sg92_2_cif.got.tgz:2301.got - 2010.06.03 19:35:17.
