data_PCOD9549808
_publ_section_title
;
Structure prediction by ZEFSAII (Michael W. Deem and Ramdas Pophale) SiO2 
 PCOD9549808
Probable space group: P 42 2 2
;
_chemical_formula_sum "Si O2"
_cell_formula_units_Z 56
_cell_length_a 14.508188
_cell_length_b 14.508188
_cell_length_c 11.130054
_cell_angle_alpha 90.000000
_cell_angle_beta 90.000000
_cell_angle_gamma 90.000000
_cell_volume 2342.737453
_symmetry_space_group_name_H-M "P 42 2 2"
_symmetry_group_IT_number 93
_symmetry_cell_setting 'tetragonal'
loop_
_space_group_symop_operation_xyz
x,y,z
-y,x,1/2+z
-x,-y,z
y,-x,1/2+z
x,-y,-z
-x,y,-z
y,x,1/2-z
-y,-x,1/2-z
loop_
_atom_site_type_symbol
_atom_site_label
_atom_site_fract_x
_atom_site_fract_y
_atom_site_fract_z
Si Si1 0.926929 0.717351 0.088362
Si Si2 0.935619 0.327092 0.643296
Si Si3 0.646249 0.410736 0.938795
Si Si4 0.551853 0.756429 0.187511
Si Si5 0.893950 0.928435 0.111350
Si Si6 0.143359 0.644587 0.326967
Si Si7 0.295604 0.226011 0.582738
O O1 0.942809 0.672640 0.213481
O O2 0.932213 0.827464 0.084299
O O3 0.825484 0.702861 0.042179
O O4 0.000000 0.674895 0.000000
O O5 0.839452 0.383042 0.632082
O O6 0.926771 0.217876 0.616847
O O7 0.041114 0.361340 0.614573
O O8 0.718251 0.433191 0.826235
O O9 0.577184 0.334243 0.887817
O O10 0.603474 0.500000 0.000000
O O11 0.695363 0.368234 0.057536
O O12 0.450612 0.800190 0.170337
O O13 0.934186 0.934186 0.250000
O O14 0.910919 0.000000 0.000000
O O15 0.155152 0.677966 0.188170
O O16 0.198305 0.727044 0.391454
#
# Coordination Sequence:
#
# PCOD9549808 Si02
#       7
#     8   8   8   8   8   8   8
#     4  11  21  38  65  99 137 194 250 305 380 465
#     4  11  22  41  70 105 145 188 248 319 390 476
#     4  11  23  44  73 101 145 194 246 309 375 470
#     4  11  24  42  73 108 142 190 251 313 392 467
#     4  10  23  42  65  97 142 199 258 315 393 464
#     4  11  24  41  66 103 142 189 246 313 388 467
#     4  11  22  41  66  94 146 191 241 306 384 461
#
# _framework density 23.903659000000001
#
# number of rings (size 3 to 8) (size 9 to 14) (size 15 to 20)
#    0.000    1.143    4.286    2.143    4.000    0.857 
#    0.000    3.571    0.000    2.571    0.000    0.000 
#    0.000    0.000    0.000    0.000    0.000    0.000 
#
# Total GULP energy -311952.912756 kJ/mol
# GULP energy per Si atom -5570.587728 kJ/mol
# Density = 2.384925 g / cm^3
# Si number density = 23.903659 Si / 1000 Ang^3
#
#
#
# Elastic Constant Matrix: (Units=GPa)
#
#
# Indices 1 2 3 4 5 6 
#
# 1 130.0555 38.4853 34.0050 0.0000 0.0000 0.0000
# 2 38.4853 130.0555 34.0050 0.0000 0.0000 0.0000
# 3 34.0050 34.0050 76.5967 0.0000 0.0000 0.0000
# 4 0.0000 0.0000 0.0000 27.4826 0.0000 0.0000
# 5 0.0000 0.0000 0.0000 0.0000 27.4826 0.0000
# 6 0.0000 0.0000 0.0000 0.0000 0.0000 28.0765
#
#
#
# Elastic Compliance Matrix: (Units=1/GPa)
#
#
# Indices 1 2 3 4 5 6 
#
# 1 0.009074 -0.001846 -0.003209 0.000000 0.000000 0.000000
# 2 -0.001846 0.009074 -0.003209 0.000000 0.000000 0.000000
# 3 -0.003209 -0.003209 0.015905 0.000000 0.000000 0.000000
# 4 0.000000 0.000000 0.000000 0.036387 0.000000 0.000000
# 5 0.000000 0.000000 0.000000 0.000000 0.036387 0.000000
# 6 0.000000 0.000000 0.000000 0.000000 0.000000 0.035617
#
#
# Mechanical properties :
#
#
# Convention : Reuss Voigt Hill
#
# Bulk Modulus (GPa) = 57.06072 61.07757 59.06915
# Shear Modulus (GPa) = 30.33730 31.95582 31.14656
#
# Velocity S-wave (km/s) = 3.56638 3.66027 3.61363
# Velocity P-wave (km/s) = 6.39388 6.59322 6.49431
#
# Compressibility (1/GPa) = 0.01752519
#
# Stress axis : x y z
#
# Youngs Moduli (GPa) = 110.20043 110.20043 62.87490
#
# Poissons Ratio (x) = 0.20345 0.20176
# Poissons Ratio (y) = 0.20345 0.20176
# Poissons Ratio (z) = 0.35363 0.35363
#
# Static dielectric constant tensor:
#      x y z
#    x 1.921060 0.000000 0.000000 
#    y 0.000000 1.921060 0.000000 
#    z 0.000000 0.000000 1.931420 
# 
# From -- ./inp_files/3472.got.cif
#   From: 2010.05.17/outbox.cif.g08.bks.cpg/sg93_2_cif.got.tgz:3472.got - 2010.06.03 19:38:44.
