data_PCOD9549348
_publ_section_title
;
Structure prediction by ZEFSAII (Michael W. Deem and Ramdas Pophale) SiO2 
 PCOD9549348
Probable space group: P 41 21 2
;
_chemical_formula_sum "Si O2"
_cell_formula_units_Z 24
_cell_length_a 7.114552
_cell_length_b 7.114552
_cell_length_c 17.851768
_cell_angle_alpha 90.000000
_cell_angle_beta 90.000000
_cell_angle_gamma 90.000000
_cell_volume 903.600266
_symmetry_space_group_name_H-M "P 41 21 2"
_symmetry_group_IT_number 92
_symmetry_cell_setting 'tetragonal'
loop_
_space_group_symop_operation_xyz
x,y,z
1/2-y,1/2+x,1/4+z
-x,-y,1/2+z
1/2+y,1/2-x,3/4+z
1/2+x,1/2-y,3/4-z
1/2-x,1/2+y,1/4-z
y,x,-z
-y,-x,1/2-z
loop_
_atom_site_type_symbol
_atom_site_label
_atom_site_fract_x
_atom_site_fract_y
_atom_site_fract_z
Si Si1 0.540205 0.667950 0.632178
Si Si2 0.767229 0.479098 0.845491
Si Si3 0.934906 0.522963 0.226302
O O1 0.510958 0.789889 0.706501
O O2 0.491038 0.452929 0.646578
O O3 0.760251 0.684608 0.610756
O O4 0.437095 0.773483 0.563471
O O5 0.862304 0.514685 0.765347
O O6 0.873058 0.591787 0.910748
#
# Coordination Sequence:
#
# PCOD9549348 Si02
#       3
#     8   8   8
#     4  11  22  41  79 111 159 206 261 326 386 470
#     4  11  22  41  79 111 159 206 261 326 386 470
#     4  10  23  44  74 115 152 213 256 313 412 446
#
# _framework density 26.560414999999999
#
# number of rings (size 3 to 8) (size 9 to 14) (size 15 to 20)
#    0.000    1.333    6.667    1.000    0.000    0.000 
#    0.000   13.333   14.667   12.000    0.000    0.000 
#    0.000    0.000    0.000    0.000    0.000    0.000 
#
# Total GULP energy -135005.286840 kJ/mol
# GULP energy per Si atom -5625.220285 kJ/mol
# Density = 2.649996 g / cm^3
# Si number density = 26.560415 Si / 1000 Ang^3
#
#
#
# Elastic Constant Matrix: (Units=GPa)
#
#
# Indices 1 2 3 4 5 6 
#
# 1 164.6834 35.6216 60.7201 0.0000 0.0000 0.0000
# 2 35.6216 164.6834 60.7201 0.0000 0.0000 0.0000
# 3 60.7201 60.7201 184.4379 0.0000 0.0000 0.0000
# 4 0.0000 0.0000 0.0000 43.7228 0.0000 0.0000
# 5 0.0000 0.0000 0.0000 0.0000 43.7228 0.0000
# 6 0.0000 0.0000 0.0000 0.0000 0.0000 32.0478
#
#
#
# Elastic Compliance Matrix: (Units=1/GPa)
#
#
# Indices 1 2 3 4 5 6 
#
# 1 0.006993 -0.000755 -0.002053 0.000000 0.000000 0.000000
# 2 -0.000755 0.006993 -0.002053 0.000000 0.000000 0.000000
# 3 -0.002053 -0.002053 0.006774 0.000000 0.000000 0.000000
# 4 0.000000 0.000000 0.000000 0.022871 0.000000 0.000000
# 5 0.000000 0.000000 0.000000 0.000000 0.022871 0.000000
# 6 0.000000 0.000000 0.000000 0.000000 0.000000 0.031203
#
#
# Mechanical properties :
#
#
# Convention : Reuss Voigt Hill
#
# Bulk Modulus (GPa) = 90.62195 91.99204 91.30700
# Shear Modulus (GPa) = 45.00107 47.68156 46.34132
#
# Velocity S-wave (km/s) = 4.12064 4.24159 4.18155
# Velocity P-wave (km/s) = 7.53876 7.66148 7.60037
#
# Compressibility (1/GPa) = 0.01103485
#
# Stress axis : x y z
#
# Youngs Moduli (GPa) = 143.00465 143.00465 147.62475
#
# Poissons Ratio (x) = 0.10803 0.30314
# Poissons Ratio (y) = 0.10803 0.30314
# Poissons Ratio (z) = 0.29365 0.29365
#
# Static dielectric constant tensor:
#      x y z
#    x 2.087180 0.000000 0.000000 
#    y 0.000000 2.087180 0.000000 
#    z 0.000000 0.000000 1.971150 
# 
# From -- ./inp_files/3665.got.cif
#   From: 2010.05.17/outbox.cif.g08.bks.cpg/sg92_2_cif.got.tgz:3665.got - 2010.06.03 19:35:17.
