data_PCOD9549745
_publ_section_title
;
Structure prediction by ZEFSAII (Michael W. Deem and Ramdas Pophale) SiO2 
 PCOD9549745
Probable space group: P 42 2 2
;
_chemical_formula_sum "Si O2"
_cell_formula_units_Z 40
_cell_length_a 11.351950
_cell_length_b 11.351950
_cell_length_c 15.318417
_cell_angle_alpha 90.000000
_cell_angle_beta 90.000000
_cell_angle_gamma 90.000000
_cell_volume 1974.034902
_symmetry_space_group_name_H-M "P 42 2 2"
_symmetry_group_IT_number 93
_symmetry_cell_setting 'tetragonal'
loop_
_space_group_symop_operation_xyz
x,y,z
-y,x,1/2+z
-x,-y,z
y,-x,1/2+z
x,-y,-z
-x,y,-z
y,x,1/2-z
-y,-x,1/2-z
loop_
_atom_site_type_symbol
_atom_site_label
_atom_site_fract_x
_atom_site_fract_y
_atom_site_fract_z
Si Si1 0.875230 0.135543 0.972153
Si Si2 0.131186 0.328215 0.744572
Si Si3 0.378008 0.133304 0.959842
Si Si4 0.260514 0.873710 0.690578
Si Si5 0.494755 0.141621 0.402913
O O1 0.882619 0.144125 0.868233
O O2 0.751161 0.182788 0.010739
O O3 0.000000 0.195148 0.000000
O O4 0.879255 0.000000 0.000000
O O5 0.214282 0.214282 0.750000
O O6 0.134883 0.380810 0.646039
O O7 0.170374 0.415017 0.823998
O O8 0.995749 0.293371 0.763912
O O9 0.500000 0.185142 0.000000
O O10 0.375243 0.000000 0.000000
O O11 0.236003 0.763998 0.750000
O O12 0.364087 0.836671 0.628239
O O13 0.500000 0.193090 0.500000
O O14 0.500000 0.000000 0.409971
#
# Coordination Sequence:
#
# PCOD9549745 Si02
#       5
#     8   8   8   8   8
#     4  10  21  36  56  91 136 167 203 255 333 391
#     4  11  24  41  62  93 132 168 215 266 329 391
#     4  10  22  36  63  90 129 172 223 269 321 386
#     4  11  23  36  64  91 127 165 214 262 319 388
#     4   9  22  40  61  85 122 169 214 260 311 377
#
# _framework density 20.263065999999998
#
# number of rings (size 3 to 8) (size 9 to 14) (size 15 to 20)
#    0.000    1.800    0.000    3.600   19.600    2.000 
#    0.000    0.000    0.000    0.600    0.000    2.800 
#    0.000    0.000    0.000    0.000    0.000    0.000 
#
# Total GULP energy -222739.997592 kJ/mol
# GULP energy per Si atom -5568.499940 kJ/mol
# Density = 2.021695 g / cm^3
# Si number density = 20.263066 Si / 1000 Ang^3
#
#
#
# Elastic Constant Matrix: (Units=GPa)
#
#
# Indices 1 2 3 4 5 6 
#
# 1 99.2677 14.5368 51.2313 0.0000 0.0000 0.0000
# 2 14.5368 99.2690 51.2322 0.0000 0.0000 0.0000
# 3 51.2313 51.2322 166.5198 0.0000 0.0000 0.0000
# 4 0.0000 0.0000 0.0000 -24.4547 0.0000 0.0000
# 5 0.0000 0.0000 0.0000 0.0000 -24.4507 0.0000
# 6 0.0000 0.0000 0.0000 0.0000 0.0000 -24.1733
#
#
#
# Elastic Compliance Matrix: (Units=1/GPa)
#
#
# Indices 1 2 3 4 5 6 
#
# 1 0.011978 0.000176 -0.003739 0.000000 0.000000 0.000000
# 2 0.000176 0.011978 -0.003739 0.000000 0.000000 0.000000
# 3 -0.003739 -0.003739 0.008306 0.000000 0.000000 0.000000
# 4 0.000000 0.000000 0.000000 -0.040892 0.000000 0.000000
# 5 0.000000 0.000000 0.000000 0.000000 -0.040899 0.000000
# 6 0.000000 0.000000 0.000000 0.000000 0.000000 -0.041368
#
#
# Mechanical properties :
#
#
# Convention : Reuss Voigt Hill
#
# Bulk Modulus (GPa) = 56.63669 66.56189 61.59929
# Shear Modulus (GPa) = -71.01633 1.92134 -34.54750
#
# Velocity S-wave (km/s) = -5.92649 0.97481 -4.13358
# Velocity P-wave (km/s) = 4.33816 5.84698 2.77196
#
# Compressibility (1/GPa) = 0.01765640
#
# Stress axis : x y z
#
# Youngs Moduli (GPa) = 83.48791 83.48874 120.39372
#
# Poissons Ratio (x) = -0.01467 0.45017
# Poissons Ratio (y) = -0.01467 0.45017
# Poissons Ratio (z) = 0.31217 0.31218
#
# Static dielectric constant tensor:
#      x y z
#    x 1.806200 0.000000 0.000000 
#    y 0.000000 1.806180 0.000000 
#    z 0.000000 0.000000 2.494370 
# 
# From -- ./inp_files/4327.got.cif
#   From: 2010.05.17/outbox.cif.g08.bks.cpg/sg93_3_cif.got.tgz:4327.got - 2010.06.03 19:38:44.
