data_PCOD9549294
_publ_section_title
;
Structure prediction by ZEFSAII (Michael W. Deem and Ramdas Pophale) SiO2 
 PCOD9549294
Probable space group: P 41 21 2
;
_chemical_formula_sum "Si O2"
_cell_formula_units_Z 36
_cell_length_a 7.693271
_cell_length_b 7.693271
_cell_length_c 24.956491
_cell_angle_alpha 90.000000
_cell_angle_beta 90.000000
_cell_angle_gamma 90.000000
_cell_volume 1477.085325
_symmetry_space_group_name_H-M "P 41 21 2"
_symmetry_group_IT_number 92
_symmetry_cell_setting 'tetragonal'
loop_
_space_group_symop_operation_xyz
x,y,z
1/2-y,1/2+x,1/4+z
-x,-y,1/2+z
1/2+y,1/2-x,3/4+z
1/2+x,1/2-y,3/4-z
1/2-x,1/2+y,1/4-z
y,x,-z
-y,-x,1/2-z
loop_
_atom_site_type_symbol
_atom_site_label
_atom_site_fract_x
_atom_site_fract_y
_atom_site_fract_z
Si Si1 0.914911 0.914911 0.000000
Si Si2 0.287378 0.267010 0.096259
Si Si3 0.351189 0.712233 0.636868
Si Si4 0.610915 0.801683 0.294567
Si Si5 0.565273 0.919358 0.185808
O O1 0.816907 0.877499 0.055792
O O2 0.114441 0.883494 0.015966
O O3 0.475225 0.357044 0.106165
O O4 0.317605 0.080001 0.070316
O O5 0.203286 0.258434 0.155856
O O6 0.136066 0.362643 0.062941
O O7 0.186680 0.710250 0.598179
O O8 0.408170 0.903436 0.654460
O O9 0.633233 0.934872 0.246372
#
# Coordination Sequence:
#
# PCOD9549294 Si02
#       5
#     4   8   8   8   8
#     4  10  22  44  70  98 144 186 232 302 360 430
#     4  11  24  46  71 102 142 191 243 299 367 438
#     4  11  27  43  75 108 146 190 249 301 372 447
#     4  11  23  45  72 102 142 190 239 302 370 436
#     4  12  25  45  73 104 149 189 245 305 370 444
#
# _framework density 24.372325
#
# number of rings (size 3 to 8) (size 9 to 14) (size 15 to 20)
#    0.000    0.889    4.444    1.333    6.222    3.556 
#    4.000    0.000    0.000    0.000    0.000    0.000 
#    0.000    0.000    0.000    0.000    0.000    0.000 
#
# Total GULP energy -201383.818457 kJ/mol
# GULP energy per Si atom -5593.994957 kJ/mol
# Density = 2.431685 g / cm^3
# Si number density = 24.372325 Si / 1000 Ang^3
#
#
#
# Elastic Constant Matrix: (Units=GPa)
#
#
# Indices 1 2 3 4 5 6 
#
# 1 60.0306 3.1060 20.8762 0.0000 0.0000 0.0000
# 2 3.1060 60.0306 20.8762 0.0000 0.0000 0.0000
# 3 20.8762 20.8762 135.1012 0.0000 0.0000 0.0000
# 4 0.0000 0.0000 0.0000 44.8001 0.0000 0.0000
# 5 0.0000 0.0000 0.0000 0.0000 44.8001 0.0000
# 6 0.0000 0.0000 0.0000 0.0000 0.0000 18.3491
#
#
#
# Elastic Compliance Matrix: (Units=1/GPa)
#
#
# Indices 1 2 3 4 5 6 
#
# 1 0.017604 0.000037 -0.002726 0.000000 0.000000 0.000000
# 2 0.000037 0.017604 -0.002726 0.000000 0.000000 0.000000
# 3 -0.002726 -0.002726 0.008244 0.000000 0.000000 0.000000
# 4 0.000000 0.000000 0.000000 0.022321 0.000000 0.000000
# 5 0.000000 0.000000 0.000000 0.000000 0.022321 0.000000
# 6 0.000000 0.000000 0.000000 0.000000 0.000000 0.054499
#
#
# Mechanical properties :
#
#
# Convention : Reuss Voigt Hill
#
# Bulk Modulus (GPa) = 30.65311 38.31990 34.48650
# Shear Modulus (GPa) = 30.43249 35.61014 33.02131
#
# Velocity S-wave (km/s) = 3.53746 3.82657 3.68485
# Velocity P-wave (km/s) = 5.41194 5.93972 5.68196
#
# Compressibility (1/GPa) = 0.03262312
#
# Stress axis : x y z
#
# Youngs Moduli (GPa) = 56.80448 56.80448 121.29572
#
# Poissons Ratio (x) = -0.00211 0.33065
# Poissons Ratio (y) = -0.00211 0.33065
# Poissons Ratio (z) = 0.15485 0.15485
#
# Static dielectric constant tensor:
#      x y z
#    x 2.012030 0.000000 0.000000 
#    y 0.000000 2.012030 0.000000 
#    z 0.000000 0.000000 1.945140 
# 
# From -- ./inp_files/4106.got.cif
#   From: 2010.05.17/outbox.cif.g08.bks.cpg/sg92_3_cif.got.tgz:4106.got - 2010.06.03 19:35:17.
