data_PCOD9549305
_publ_section_title
;
Structure prediction by ZEFSAII (Michael W. Deem and Ramdas Pophale) SiO2 
 PCOD9549305
Probable space group: P 41 21 2
;
_chemical_formula_sum "Si O2"
_cell_formula_units_Z 36
_cell_length_a 8.963125
_cell_length_b 8.963125
_cell_length_c 20.431443
_cell_angle_alpha 90.000000
_cell_angle_beta 90.000000
_cell_angle_gamma 90.000000
_cell_volume 1641.413295
_symmetry_space_group_name_H-M "P 41 21 2"
_symmetry_group_IT_number 92
_symmetry_cell_setting 'tetragonal'
loop_
_space_group_symop_operation_xyz
x,y,z
1/2-y,1/2+x,1/4+z
-x,-y,1/2+z
1/2+y,1/2-x,3/4+z
1/2+x,1/2-y,3/4-z
1/2-x,1/2+y,1/4-z
y,x,-z
-y,-x,1/2-z
loop_
_atom_site_type_symbol
_atom_site_label
_atom_site_fract_x
_atom_site_fract_y
_atom_site_fract_z
Si Si1 0.780259 0.362039 0.808508
Si Si2 0.137112 0.229337 0.572723
Si Si3 0.968879 0.031122 0.250000
Si Si4 0.369257 0.452229 0.133314
Si Si5 0.672039 0.933705 0.185711
O O1 0.756835 0.243166 0.750000
O O2 0.884207 0.289943 0.864411
O O3 0.611985 0.372808 0.833517
O O4 0.844669 0.525258 0.790764
O O5 0.199796 0.199796 0.500000
O O6 0.246091 0.155127 0.626899
O O7 0.124185 0.403302 0.589095
O O8 0.972617 0.159216 0.575907
O O9 0.020905 0.203159 0.260321
O O10 0.023976 0.953752 0.315181
#
# Coordination Sequence:
#
# PCOD9549305 Si02
#       5
#     8   8   4   8   8
#     4  12  27  46  70 108 143 190 244 309 369 431
#     4  11  24  45  72 106 142 196 240 294 364 443
#     4  10  22  46  68  94 142 190 228 290 360 440
#     4  11  25  46  67 104 143 190 240 297 368 431
#     4  11  24  45  72 105 143 188 246 296 363 441
#
# _framework density 21.932321000000002
#
# number of rings (size 3 to 8) (size 9 to 14) (size 15 to 20)
#    0.000    0.889    2.222    4.667    3.111    1.778 
#    8.000    0.000    0.000    0.000    0.000    0.000 
#    0.000    0.000    0.000    0.000    0.000    0.000 
#
# Total GULP energy -201109.834778 kJ/mol
# GULP energy per Si atom -5586.384299 kJ/mol
# Density = 2.188240 g / cm^3
# Si number density = 21.932321 Si / 1000 Ang^3
#
#
#
# Elastic Constant Matrix: (Units=GPa)
#
#
# Indices 1 2 3 4 5 6 
#
# 1 132.0027 28.2637 19.6338 0.0000 0.0000 0.0000
# 2 28.2637 132.0019 19.6335 0.0000 0.0000 0.0000
# 3 19.6338 19.6335 58.2525 0.0000 0.0000 0.0000
# 4 0.0000 0.0000 0.0000 27.4828 0.0000 0.0000
# 5 0.0000 0.0000 0.0000 0.0000 27.4826 0.0000
# 6 0.0000 0.0000 0.0000 0.0000 0.0000 53.3631
#
#
#
# Elastic Compliance Matrix: (Units=1/GPa)
#
#
# Indices 1 2 3 4 5 6 
#
# 1 0.008220 -0.001419 -0.002292 0.000000 0.000000 0.000000
# 2 -0.001419 0.008220 -0.002292 0.000000 0.000000 0.000000
# 3 -0.002292 -0.002292 0.018712 0.000000 0.000000 0.000000
# 4 0.000000 0.000000 0.000000 0.036386 0.000000 0.000000
# 5 0.000000 0.000000 0.000000 0.000000 0.036387 0.000000
# 6 0.000000 0.000000 0.000000 0.000000 0.000000 0.018740
#
#
# Mechanical properties :
#
#
# Convention : Reuss Voigt Hill
#
# Bulk Modulus (GPa) = 43.20567 50.81324 47.00945
# Shear Modulus (GPa) = 34.15579 38.64744 36.40161
#
# Velocity S-wave (km/s) = 3.95058 4.20232 4.07839
# Velocity P-wave (km/s) = 6.36803 6.83846 6.60743
#
# Compressibility (1/GPa) = 0.02314511
#
# Stress axis : x y z
#
# Youngs Moduli (GPa) = 121.64819 121.64765 53.44200
#
# Poissons Ratio (x) = 0.17264 0.12251
# Poissons Ratio (y) = 0.17264 0.12251
# Poissons Ratio (z) = 0.27886 0.27885
#
# Static dielectric constant tensor:
#      x y z
#    x 1.821230 0.000000 0.000000 
#    y 0.000000 1.821220 0.000000 
#    z 0.000000 0.000000 2.076600 
# 
# From -- ./inp_files/3442.got.cif
#   From: 2010.05.17/outbox.cif.g08.bks.cpg/sg92_2_cif.got.tgz:3442.got - 2010.06.03 19:35:17.
