data_PCOD9549067
_publ_section_title
;
Structure prediction by ZEFSAII (Michael W. Deem and Ramdas Pophale) SiO2 
 PCOD9549067
Probable space group: P 41 21 2
;
_chemical_formula_sum "Si O2"
_cell_formula_units_Z 48
_cell_length_a 9.643211
_cell_length_b 9.643211
_cell_length_c 28.385740
_cell_angle_alpha 90.000000
_cell_angle_beta 90.000000
_cell_angle_gamma 90.000000
_cell_volume 2639.633063
_symmetry_space_group_name_H-M "P 41 21 2"
_symmetry_group_IT_number 92
_symmetry_cell_setting 'tetragonal'
loop_
_space_group_symop_operation_xyz
x,y,z
1/2-y,1/2+x,1/4+z
-x,-y,1/2+z
1/2+y,1/2-x,3/4+z
1/2+x,1/2-y,3/4-z
1/2-x,1/2+y,1/4-z
y,x,-z
-y,-x,1/2-z
loop_
_atom_site_type_symbol
_atom_site_label
_atom_site_fract_x
_atom_site_fract_y
_atom_site_fract_z
Si Si1 0.206248 0.635096 0.912483
Si Si2 0.456948 0.543053 0.250000
Si Si3 0.295927 0.295927 0.500000
Si Si4 0.277678 0.862656 0.396991
Si Si5 0.032456 0.712388 0.999759
Si Si6 0.042843 0.127914 0.897749
Si Si7 0.666372 0.530029 0.094666
O O1 0.211703 0.480443 0.892516
O O2 0.134047 0.639521 0.963149
O O3 0.107842 0.722440 0.877472
O O4 0.364814 0.691773 0.912036
O O5 0.622768 0.559362 0.244582
O O6 0.387909 0.592647 0.201715
O O7 0.334725 0.389379 0.544965
O O8 0.130613 0.313893 0.490143
O O9 0.322777 0.930400 0.446506
O O10 0.367886 0.733023 0.382283
O O11 0.116333 0.823470 0.400838
O O12 0.042554 0.978756 0.872463
#
# Coordination Sequence:
#
# PCOD9549067 Si02
#       7
#     8   4   4   8   8   8   8
#     4  11  22  42  61  94 124 160 206 258 308 368
#     4   9  18  40  65  84 112 168 201 240 313 356
#     4  11  22  40  65  94 120 164 207 256 315 362
#     4  10  23  42  60  90 125 164 202 256 311 359
#     4  10  20  40  66  85 123 159 206 254 301 370
#     4  10  22  42  62  87 126 161 204 252 305 370
#     4  11  23  39  65  93 124 159 203 257 308 369
#
# _framework density 18.184346999999999
#
# number of rings (size 3 to 8) (size 9 to 14) (size 15 to 20)
#    0.000    1.667    3.333    1.000    2.333    2.667 
#    6.000    0.000    0.000    0.000    0.000    0.000 
#    0.000    0.000    0.000    0.000    0.000    0.000 
#
# Total GULP energy -267935.817164 kJ/mol
# GULP energy per Si atom -5581.996191 kJ/mol
# Density = 1.814296 g / cm^3
# Si number density = 18.184347 Si / 1000 Ang^3
#
#
#
# Elastic Constant Matrix: (Units=GPa)
#
#
# Indices 1 2 3 4 5 6 
#
# 1 46.6526 43.7952 23.5048 0.0000 0.0000 0.0000
# 2 43.7952 46.6521 23.5047 0.0000 0.0000 0.0000
# 3 23.5048 23.5047 83.1521 0.0000 0.0000 0.0000
# 4 0.0000 0.0000 0.0000 29.7663 0.0000 0.0000
# 5 0.0000 0.0000 0.0000 0.0000 29.7663 0.0000
# 6 0.0000 0.0000 0.0000 0.0000 0.0000 28.5832
#
#
#
# Elastic Compliance Matrix: (Units=1/GPa)
#
#
# Indices 1 2 3 4 5 6 
#
# 1 0.181478 -0.168518 -0.003663 0.000000 0.000000 0.000000
# 2 -0.168518 0.181480 -0.003664 0.000000 0.000000 0.000000
# 3 -0.003663 -0.003664 0.014097 0.000000 0.000000 0.000000
# 4 0.000000 0.000000 0.000000 0.033595 0.000000 0.000000
# 5 0.000000 0.000000 0.000000 0.000000 0.033595 0.000000
# 6 0.000000 0.000000 0.000000 0.000000 0.000000 0.034986
#
#
# Mechanical properties :
#
#
# Convention : Reuss Voigt Hill
#
# Bulk Modulus (GPa) = 39.42634 39.78513 39.60573
# Shear Modulus (GPa) = 5.95681 23.33331 14.64506
#
# Velocity S-wave (km/s) = 1.81188 3.58600 2.84098
# Velocity P-wave (km/s) = 5.10938 6.25077 5.70867
#
# Compressibility (1/GPa) = 0.02536376
#
# Stress axis : x y z
#
# Youngs Moduli (GPa) = 5.51032 5.51026 70.93563
#
# Poissons Ratio (x) = 0.92858 0.25987
# Poissons Ratio (y) = 0.92859 0.25988
# Poissons Ratio (z) = 0.02019 0.02019
#
# Static dielectric constant tensor:
#      x y z
#    x 1.608610 0.000000 0.000000 
#    y 0.000000 1.608620 0.000000 
#    z 0.000000 0.000000 1.628660 
# 
# From -- ./inp_files/4533.got.cif
#   From: 2010.05.17/outbox.cif.g08.bks.cpg/sg92_3_cif.got.tgz:4533.got - 2010.06.03 19:35:17.
