data_PCOD9549707
_publ_section_title
;
Structure prediction by ZEFSAII (Michael W. Deem and Ramdas Pophale) SiO2 
 PCOD9549707
Probable space group: P 42 2 2
;
_chemical_formula_sum "Si O2"
_cell_formula_units_Z 48
_cell_length_a 20.460093
_cell_length_b 20.460093
_cell_length_c 8.157258
_cell_angle_alpha 90.000000
_cell_angle_beta 90.000000
_cell_angle_gamma 90.000000
_cell_volume 3414.753866
_symmetry_space_group_name_H-M "P 42 2 2"
_symmetry_group_IT_number 93
_symmetry_cell_setting 'tetragonal'
loop_
_space_group_symop_operation_xyz
x,y,z
-y,x,1/2+z
-x,-y,z
y,-x,1/2+z
x,-y,-z
-x,y,-z
y,x,1/2-z
-y,-x,1/2-z
loop_
_atom_site_type_symbol
_atom_site_label
_atom_site_fract_x
_atom_site_fract_y
_atom_site_fract_z
Si Si1 0.212952 0.579912 0.183752
Si Si2 0.579388 0.790181 0.322909
Si Si3 0.568021 0.575686 0.555284
Si Si4 0.578779 0.070956 0.803747
Si Si5 0.708646 0.419779 0.506925
Si Si6 0.927068 0.579561 0.690359
O O1 0.212165 0.500261 0.182797
O O2 0.258212 0.600514 0.335469
O O3 0.138272 0.601303 0.218598
O O4 0.233616 0.600479 0.001938
O O5 0.599777 0.865713 0.296698
O O6 0.600825 0.749305 0.165171
O O7 0.565053 0.500000 0.500000
O O8 0.500000 0.607791 0.500000
O O9 0.574864 0.574864 0.750000
O O10 0.634118 0.603280 0.481055
O O11 0.499540 0.071234 0.796578
O O12 0.601872 0.998795 0.751035
O O13 0.594756 0.079240 0.996643
O O14 0.707768 0.500000 0.500000
#
# Coordination Sequence:
#
# PCOD9549707 Si02
#       6
#     8   8   8   8   8   8
#     4   9  15  23  34  52  68  90 114 128 144 174
#     4   9  15  23  35  50  70  90 112 129 146 171
#     4  10  20  37  52  64  73  81  92 121 168 226
#     4   8  12  18  29  43  65  97 117 139 152 154
#     4   9  17  30  42  55  72  84  95 120 154 195
#     4   8  12  18  29  43  66  94 121 137 150 158
#
# _framework density 14.056651
#
# number of rings (size 3 to 8) (size 9 to 14) (size 15 to 20)
#    0.000    3.167    1.667    2.000    0.000    0.667 
#   12.000    3.333    0.000    0.000    0.000    0.000 
#    0.000    0.000    0.000    0.000    0.000    0.000 
#
# Total GULP energy -267270.964940 kJ/mol
# GULP energy per Si atom -5568.145103 kJ/mol
# Density = 1.402466 g / cm^3
# Si number density = 14.056651 Si / 1000 Ang^3
#
#
#
# Elastic Constant Matrix: (Units=GPa)
#
#
# Indices 1 2 3 4 5 6 
#
# 1 61.4611 -0.0601 28.8413 0.0000 0.0000 0.0000
# 2 -0.0601 61.4611 28.8413 0.0000 0.0000 0.0000
# 3 28.8413 28.8413 92.5761 0.0000 0.0000 0.0000
# 4 0.0000 0.0000 0.0000 2.2594 0.0000 0.0000
# 5 0.0000 0.0000 0.0000 0.0000 2.2594 0.0000
# 6 0.0000 0.0000 0.0000 0.0000 0.0000 -1.3345
#
#
#
# Elastic Compliance Matrix: (Units=1/GPa)
#
#
# Indices 1 2 3 4 5 6 
#
# 1 0.019640 0.003385 -0.007173 0.000000 0.000000 0.000000
# 2 0.003385 0.019640 -0.007173 0.000000 0.000000 0.000000
# 3 -0.007173 -0.007173 0.015272 0.000000 0.000000 0.000000
# 4 0.000000 0.000000 0.000000 0.442590 0.000000 0.000000
# 5 0.000000 0.000000 0.000000 0.000000 0.442590 0.000000
# 6 0.000000 0.000000 0.000000 0.000000 0.000000 -0.749334
#
#
# Mechanical properties :
#
#
# Convention : Reuss Voigt Hill
#
# Bulk Modulus (GPa) = 30.64777 36.74924 33.69850
# Shear Modulus (GPa) = 22.40172 11.16192 16.78182
#
# Velocity S-wave (km/s) = 3.99642 2.82098 3.45899
# Velocity P-wave (km/s) = 6.56852 6.06720 6.32283
#
# Compressibility (1/GPa) = 0.03262881
#
# Stress axis : x y z
#
# Youngs Moduli (GPa) = 50.91662 50.91662 65.48138
#
# Poissons Ratio (x) = -0.17237 0.46972
# Poissons Ratio (y) = -0.17237 0.46972
# Poissons Ratio (z) = 0.36524 0.36524
#
# Static dielectric constant tensor:
#      x y z
#    x 1.464770 0.000000 0.000000 
#    y 0.000000 1.464770 0.000000 
#    z 0.000000 0.000000 1.506920 
# 
# From -- ./inp_files/2196.got.cif
#   From: 2010.05.17/outbox.cif.g08.bks.cpg/sg93_2_cif.got.tgz:2196.got - 2010.06.03 19:38:44.
