data_PCOD9549507
_publ_section_title
;
Structure prediction by ZEFSAII (Michael W. Deem and Ramdas Pophale) SiO2 
 PCOD9549507
Probable space group: P 41 21 2
;
_chemical_formula_sum "Si O2"
_cell_formula_units_Z 40
_cell_length_a 13.430765
_cell_length_b 13.430765
_cell_length_c 8.778449
_cell_angle_alpha 90.000000
_cell_angle_beta 90.000000
_cell_angle_gamma 90.000000
_cell_volume 1583.504460
_symmetry_space_group_name_H-M "P 41 21 2"
_symmetry_group_IT_number 92
_symmetry_cell_setting 'tetragonal'
loop_
_space_group_symop_operation_xyz
x,y,z
1/2-y,1/2+x,1/4+z
-x,-y,1/2+z
1/2+y,1/2-x,3/4+z
1/2+x,1/2-y,3/4-z
1/2-x,1/2+y,1/4-z
y,x,-z
-y,-x,1/2-z
loop_
_atom_site_type_symbol
_atom_site_label
_atom_site_fract_x
_atom_site_fract_y
_atom_site_fract_z
Si Si1 0.404353 0.550689 0.426347
Si Si2 0.652187 0.835741 0.674576
Si Si3 0.149788 0.273625 0.268126
Si Si4 0.985121 0.394509 0.045960
Si Si5 0.050497 0.237123 0.593402
O O1 0.452589 0.452589 0.500000
O O2 0.436521 0.563480 0.250000
O O3 0.284273 0.559625 0.431178
O O4 0.441018 0.641148 0.541984
O O5 0.754950 0.775228 0.686288
O O6 0.563553 0.758524 0.692974
O O7 0.667944 0.912089 0.811807
O O8 0.634838 0.910868 0.534211
O O9 0.175614 0.389765 0.279682
O O10 0.115415 0.242911 0.439464
O O11 0.934498 0.487974 0.959788
#
# Coordination Sequence:
#
# PCOD9549507 Si02
#       5
#     8   8   8   8   8
#     4  11  25  49  79 109 157 202 256 321 394 471
#     4  11  24  46  77 107 155 204 261 323 396 471
#     4  11  28  47  74 118 156 204 269 329 395 485
#     4  12  27  47  76 109 155 205 262 329 401 478
#     4  11  25  48  76 111 158 207 263 324 392 475
#
# _framework density 25.260428999999998
#
# number of rings (size 3 to 8) (size 9 to 14) (size 15 to 20)
#    0.000    0.800    2.000    4.800    8.400    3.200 
#    3.600    0.000    0.000    0.000    0.000    0.000 
#    0.000    0.000    0.000    0.000    0.000    0.000 
#
# Total GULP energy -223076.577059 kJ/mol
# GULP energy per Si atom -5576.914426 kJ/mol
# Density = 2.520293 g / cm^3
# Si number density = 25.260429 Si / 1000 Ang^3
#
#
#
# Elastic Constant Matrix: (Units=GPa)
#
#
# Indices 1 2 3 4 5 6 
#
# 1 116.7484 37.0801 -1.4081 0.0000 0.0000 0.0000
# 2 37.0801 116.7480 -1.4084 0.0000 0.0000 0.0000
# 3 -1.4081 -1.4084 86.8331 0.0000 0.0000 0.0000
# 4 0.0000 0.0000 0.0000 27.3158 0.0000 0.0000
# 5 0.0000 0.0000 0.0000 0.0000 27.3156 0.0000
# 6 0.0000 0.0000 0.0000 0.0000 0.0000 51.5052
#
#
#
# Elastic Compliance Matrix: (Units=1/GPa)
#
#
# Indices 1 2 3 4 5 6 
#
# 1 0.009527 -0.003025 0.000105 0.000000 0.000000 0.000000
# 2 -0.003025 0.009527 0.000105 0.000000 0.000000 0.000000
# 3 0.000105 0.000105 0.011520 0.000000 0.000000 0.000000
# 4 0.000000 0.000000 0.000000 0.036609 0.000000 0.000000
# 5 0.000000 0.000000 0.000000 0.000000 0.036609 0.000000
# 6 0.000000 0.000000 0.000000 0.000000 0.000000 0.019416
#
#
# Mechanical properties :
#
#
# Convention : Reuss Voigt Hill
#
# Bulk Modulus (GPa) = 40.08499 43.20627 41.64563
# Shear Modulus (GPa) = 36.45611 40.29837 38.37724
#
# Velocity S-wave (km/s) = 3.80308 3.99847 3.90200
# Velocity P-wave (km/s) = 5.93192 6.20149 6.06821
#
# Compressibility (1/GPa) = 0.02494699
#
# Stress axis : x y z
#
# Youngs Moduli (GPa) = 104.96083 104.96047 86.80730
#
# Poissons Ratio (x) = 0.31747 -0.00915
# Poissons Ratio (y) = 0.31747 -0.00916
# Poissons Ratio (z) = -0.01107 -0.01107
#
# Static dielectric constant tensor:
#      x y z
#    x 2.128260 0.000000 0.000000 
#    y 0.000000 2.128260 0.000000 
#    z 0.000000 0.000000 2.075630 
# 
# From -- ./inp_files/1302.got.cif
#   From: 2010.05.17/outbox.cif.g08.bks.cpg/sg92_1_cif.got.tgz:1302.got - 2010.06.03 19:35:17.
