data_PCOD9549612
_publ_section_title
;
Structure prediction by ZEFSAII (Michael W. Deem and Ramdas Pophale) SiO2 
 PCOD9549612
Probable space group: P 42 2 2
;
_chemical_formula_sum "Si O2"
_cell_formula_units_Z 38
_cell_length_a 9.616445
_cell_length_b 9.616445
_cell_length_c 18.778940
_cell_angle_alpha 90.000000
_cell_angle_beta 90.000000
_cell_angle_gamma 90.000000
_cell_volume 1736.601527
_symmetry_space_group_name_H-M "P 42 2 2"
_symmetry_group_IT_number 93
_symmetry_cell_setting 'tetragonal'
loop_
_space_group_symop_operation_xyz
x,y,z
-y,x,1/2+z
-x,-y,z
y,-x,1/2+z
x,-y,-z
-x,y,-z
y,x,1/2-z
-y,-x,1/2-z
loop_
_atom_site_type_symbol
_atom_site_label
_atom_site_fract_x
_atom_site_fract_y
_atom_site_fract_z
Si Si1 0.640832 0.067864 0.758408
Si Si2 0.618541 0.598784 0.634243
Si Si3 0.777864 0.222137 0.250000
Si Si4 0.149975 0.439261 0.099801
Si Si5 0.500000 0.000000 0.000000
Si Si6 0.207719 0.659788 0.595097
O O1 0.588680 0.138745 0.685442
O O2 0.690048 0.164972 0.822563
O O3 0.500000 0.000000 0.788571
O O4 0.744646 0.940884 0.740325
O O5 0.500000 0.500000 0.670081
O O6 0.722051 0.681264 0.685929
O O7 0.546117 0.722840 0.590651
O O8 0.699358 0.480133 0.592347
O O9 0.207218 0.294938 0.068538
O O10 0.000000 0.500000 0.079045
O O11 0.390700 0.079754 0.049906
#
# Coordination Sequence:
#
# PCOD9549612 Si02
#       6
#     8   8   4   8   2   8
#     4  11  19  32  56  94 131 166 194 257 329 392
#     4  10  18  30  55  88 119 159 206 264 313 369
#     4  12  17  28  51  88 130 164 200 244 316 390
#     4  10  20  37  62  97 130 159 197 267 339 392
#     4  12  24  44  66  90 120 176 228 272 298 388
#     4  11  22  39  63  90 126 165 220 261 315 383
#
# _framework density 21.881820999999999
#
# number of rings (size 3 to 8) (size 9 to 14) (size 15 to 20)
#    0.000    1.263    7.368    0.947    0.000    3.368 
#    0.000    6.842    0.000    3.789    0.000    0.000 
#    0.000    0.000    0.000    0.000    0.000    0.000 
#
# Total GULP energy -211903.322317 kJ/mol
# GULP energy per Si atom -5576.403219 kJ/mol
# Density = 2.183202 g / cm^3
# Si number density = 21.881821 Si / 1000 Ang^3
#
#
#
# Elastic Constant Matrix: (Units=GPa)
#
#
# Indices 1 2 3 4 5 6 
#
# 1 85.5303 72.8821 20.1724 0.0000 0.0000 0.0000
# 2 72.8821 85.5302 20.1724 0.0000 0.0000 0.0000
# 3 20.1724 20.1724 73.7863 0.0000 0.0000 0.0000
# 4 0.0000 0.0000 0.0000 -3.8875 0.0000 0.0000
# 5 0.0000 0.0000 0.0000 0.0000 -3.8875 0.0000
# 6 0.0000 0.0000 0.0000 0.0000 0.0000 53.7687
#
#
#
# Elastic Compliance Matrix: (Units=1/GPa)
#
#
# Indices 1 2 3 4 5 6 
#
# 1 0.042924 -0.036139 -0.001855 0.000000 0.000000 0.000000
# 2 -0.036139 0.042924 -0.001855 0.000000 0.000000 0.000000
# 3 -0.001855 -0.001855 0.014567 0.000000 0.000000 0.000000
# 4 0.000000 0.000000 0.000000 -0.257232 0.000000 0.000000
# 5 0.000000 0.000000 0.000000 0.000000 -0.257233 0.000000
# 6 0.000000 0.000000 0.000000 0.000000 0.000000 0.018598
#
#
# Mechanical properties :
#
#
# Convention : Reuss Voigt Hill
#
# Bulk Modulus (GPa) = 48.26913 52.36673 50.31793
# Shear Modulus (GPa) = -16.18914 17.97340 0.89213
#
# Velocity S-wave (km/s) = -2.72296 2.86909 0.63921
# Velocity P-wave (km/s) = 3.49584 5.91263 4.85696
#
# Compressibility (1/GPa) = 0.02071718
#
# Stress axis : x y z
#
# Youngs Moduli (GPa) = 23.29704 23.29701 68.64880
#
# Poissons Ratio (x) = 0.84193 0.12734
# Poissons Ratio (y) = 0.84193 0.12734
# Poissons Ratio (z) = 0.04321 0.04322
#
# Static dielectric constant tensor:
#      x y z
#    x 1.508150 0.000000 0.000000 
#    y 0.000000 1.508110 0.000000 
#    z 0.000000 0.000000 1.826220 
# 
# From -- ./inp_files/6775.got.cif
#   From: 2010.05.17/outbox.cif.g08.bks.cpg/sg93_4_cif.got.tgz:6775.got - 2010.06.03 19:38:44.
