data_PCOD9549040
_publ_section_title
;
Structure prediction by ZEFSAII (Michael W. Deem and Ramdas Pophale) SiO2 
 PCOD9549040
Probable space group: P 41 21 2
;
_chemical_formula_sum "Si O2"
_cell_formula_units_Z 44
_cell_length_a 8.561691
_cell_length_b 8.561691
_cell_length_c 28.107323
_cell_angle_alpha 90.000000
_cell_angle_beta 90.000000
_cell_angle_gamma 90.000000
_cell_volume 2060.338528
_symmetry_space_group_name_H-M "P 41 21 2"
_symmetry_group_IT_number 92
_symmetry_cell_setting 'tetragonal'
loop_
_space_group_symop_operation_xyz
x,y,z
1/2-y,1/2+x,1/4+z
-x,-y,1/2+z
1/2+y,1/2-x,3/4+z
1/2+x,1/2-y,3/4-z
1/2-x,1/2+y,1/4-z
y,x,-z
-y,-x,1/2-z
loop_
_atom_site_type_symbol
_atom_site_label
_atom_site_fract_x
_atom_site_fract_y
_atom_site_fract_z
Si Si1 0.858624 0.976101 0.133685
Si Si2 0.816346 0.919453 0.416553
Si Si3 0.925408 0.497004 0.049675
Si Si4 0.009540 0.009540 0.500000
Si Si5 0.014120 0.342985 0.454781
Si Si6 0.689373 0.065433 0.863818
O O1 0.746592 0.979517 0.178462
O O2 0.751058 0.913564 0.089973
O O3 0.937082 0.138970 0.118261
O O4 0.003226 0.863563 0.139983
O O5 0.955540 0.912369 0.454666
O O6 0.808812 0.750938 0.392691
O O7 0.661040 0.974200 0.444120
O O8 0.012906 0.616439 0.085729
O O9 0.908124 0.553559 0.995669
O O10 0.188433 0.969703 0.513921
O O11 0.900506 0.463629 0.426931
#
# Coordination Sequence:
#
# PCOD9549040 Si02
#       6
#     8   8   8   4   8   8
#     4  10  22  42  64  92 130 172 213 263 328 396
#     4  11  22  38  63  94 130 168 211 272 329 385
#     4  11  21  38  64  92 126 167 216 266 323 395
#     4  10  20  38  62  86 122 166 210 256 320 388
#     4  10  22  38  65  92 119 166 216 264 319 390
#     4  11  23  40  63  92 128 167 213 268 329 391
#
# _framework density 21.355713000000002
#
# number of rings (size 3 to 8) (size 9 to 14) (size 15 to 20)
#    0.000    1.455    0.000    7.636    0.000    1.455 
#    0.000    3.636    0.000   27.273    0.000    0.000 
#    0.000    0.000    0.000    0.000    0.000    0.000 
#
# Total GULP energy -245278.600389 kJ/mol
# GULP energy per Si atom -5574.513645 kJ/mol
# Density = 2.130711 g / cm^3
# Si number density = 21.355713 Si / 1000 Ang^3
#
#
#
# Elastic Constant Matrix: (Units=GPa)
#
#
# Indices 1 2 3 4 5 6 
#
# 1 66.5144 40.0068 30.4194 0.0000 0.0000 0.0000
# 2 40.0068 66.5144 30.4194 0.0000 0.0000 0.0000
# 3 30.4194 30.4194 90.4326 0.0000 0.0000 0.0000
# 4 0.0000 0.0000 0.0000 23.2459 0.0000 0.0000
# 5 0.0000 0.0000 0.0000 0.0000 23.2459 0.0000
# 6 0.0000 0.0000 0.0000 0.0000 0.0000 33.4246
#
#
#
# Elastic Compliance Matrix: (Units=1/GPa)
#
#
# Indices 1 2 3 4 5 6 
#
# 1 0.024673 -0.013052 -0.003909 0.000000 0.000000 0.000000
# 2 -0.013052 0.024673 -0.003909 0.000000 0.000000 0.000000
# 3 -0.003909 -0.003909 0.013688 0.000000 0.000000 0.000000
# 4 0.000000 0.000000 0.000000 0.043018 0.000000 0.000000
# 5 0.000000 0.000000 0.000000 0.000000 0.043018 0.000000
# 6 0.000000 0.000000 0.000000 0.000000 0.000000 0.029918
#
#
# Mechanical properties :
#
#
# Convention : Reuss Voigt Hill
#
# Bulk Modulus (GPa) = 46.96378 47.23920 47.10149
# Shear Modulus (GPa) = 21.94664 24.15766 23.05215
#
# Velocity S-wave (km/s) = 3.20921 3.36699 3.28904
# Velocity P-wave (km/s) = 5.98088 6.10603 6.04378
#
# Compressibility (1/GPa) = 0.02129300
#
# Stress axis : x y z
#
# Youngs Moduli (GPa) = 40.53070 40.53070 73.05876
#
# Poissons Ratio (x) = 0.52902 0.28557
# Poissons Ratio (y) = 0.52902 0.28557
# Poissons Ratio (z) = 0.15843 0.15843
#
# Static dielectric constant tensor:
#      x y z
#    x 1.803740 0.000000 0.000000 
#    y 0.000000 1.803740 0.000000 
#    z 0.000000 0.000000 1.810190 
# 
# From -- ./inp_files/4426.got.cif
#   From: 2010.05.17/outbox.cif.g08.bks.cpg/sg92_3_cif.got.tgz:4426.got - 2010.06.03 19:35:17.
