data_PCOD9549017
_publ_section_title
;
Structure prediction by ZEFSAII (Michael W. Deem and Ramdas Pophale) SiO2 
 PCOD9549017
Probable space group: P 41 21 2
;
_chemical_formula_sum "Si O2"
_cell_formula_units_Z 40
_cell_length_a 8.757185
_cell_length_b 8.757185
_cell_length_c 18.850377
_cell_angle_alpha 90.000000
_cell_angle_beta 90.000000
_cell_angle_gamma 90.000000
_cell_volume 1445.603161
_symmetry_space_group_name_H-M "P 41 21 2"
_symmetry_group_IT_number 92
_symmetry_cell_setting 'tetragonal'
loop_
_space_group_symop_operation_xyz
x,y,z
1/2-y,1/2+x,1/4+z
-x,-y,1/2+z
1/2+y,1/2-x,3/4+z
1/2+x,1/2-y,3/4-z
1/2-x,1/2+y,1/4-z
y,x,-z
-y,-x,1/2-z
loop_
_atom_site_type_symbol
_atom_site_label
_atom_site_fract_x
_atom_site_fract_y
_atom_site_fract_z
Si Si1 0.861188 0.662377 0.584725
Si Si2 0.776405 0.148900 0.465550
Si Si3 0.299165 0.913056 0.394280
Si Si4 0.483995 0.254435 0.522554
Si Si5 0.088051 0.176559 0.427222
O O1 0.686526 0.713865 0.584006
O O2 0.892994 0.482621 0.600842
O O3 0.971234 0.731910 0.524797
O O4 0.924253 0.749033 0.654687
O O5 0.841248 0.241205 0.531760
O O6 0.600298 0.207720 0.458990
O O7 0.909435 0.171527 0.407197
O O8 0.222582 0.080989 0.388641
O O9 0.412821 0.412821 0.500000
O O10 0.341680 0.142468 0.543008
O O11 0.076509 0.076509 0.500000
#
# Coordination Sequence:
#
# PCOD9549017 Si02
#       5
#     8   8   8   8   8
#     4  11  22  40  66  94 133 180 228 291 365 436
#     4  10  20  36  62  93 129 174 224 283 355 431
#     4  10  22  40  64  97 135 180 236 292 364 449
#     4  10  22  40  62  92 132 176 231 293 355 436
#     4   9  18  36  59  86 129 172 216 285 348 410
#
# _framework density 27.670109
#
# number of rings (size 3 to 8) (size 9 to 14) (size 15 to 20)
#    0.000    2.000    0.000    4.800    0.000    4.800 
#    0.000    4.000    0.000   18.000    0.000    0.000 
#    0.000    0.000    0.000    0.000    0.000    0.000 
#
# Total GULP energy -223002.226687 kJ/mol
# GULP energy per Si atom -5575.055667 kJ/mol
# Density = 2.760713 g / cm^3
# Si number density = 27.670109 Si / 1000 Ang^3
#
#
#
# Elastic Constant Matrix: (Units=GPa)
#
#
# Indices 1 2 3 4 5 6 
#
# 1 152.1558 82.5845 20.0517 0.0000 0.0000 0.0000
# 2 82.5845 152.1558 20.0517 0.0000 0.0000 0.0000
# 3 20.0517 20.0517 44.8661 0.0000 0.0000 0.0000
# 4 0.0000 0.0000 0.0000 41.7738 0.0000 0.0000
# 5 0.0000 0.0000 0.0000 0.0000 41.7738 0.0000
# 6 0.0000 0.0000 0.0000 0.0000 0.0000 52.1594
#
#
#
# Elastic Compliance Matrix: (Units=1/GPa)
#
#
# Indices 1 2 3 4 5 6 
#
# 1 0.009493 -0.004881 -0.002061 0.000000 0.000000 0.000000
# 2 -0.004881 0.009493 -0.002061 0.000000 0.000000 0.000000
# 3 -0.002061 -0.002061 0.024131 0.000000 0.000000 0.000000
# 4 0.000000 0.000000 0.000000 0.023938 0.000000 0.000000
# 5 0.000000 0.000000 0.000000 0.000000 0.023938 0.000000
# 6 0.000000 0.000000 0.000000 0.000000 0.000000 0.019172
#
#
# Mechanical properties :
#
#
# Convention : Reuss Voigt Hill
#
# Bulk Modulus (GPa) = 39.82445 66.06151 52.94298
# Shear Modulus (GPa) = 36.61859 42.24070 39.42964
#
# Velocity S-wave (km/s) = 3.64180 3.91139 3.77900
# Velocity P-wave (km/s) = 5.66634 6.65771 6.18193
#
# Compressibility (1/GPa) = 0.02511020
#
# Stress axis : x y z
#
# Youngs Moduli (GPa) = 105.34113 105.34113 41.44046
#
# Poissons Ratio (x) = 0.51415 0.08542
# Poissons Ratio (y) = 0.51415 0.08542
# Poissons Ratio (z) = 0.21714 0.21714
#
# Static dielectric constant tensor:
#      x y z
#    x 2.329930 0.000000 0.000000 
#    y 0.000000 2.329930 0.000000 
#    z 0.000000 0.000000 2.582390 
# 
# From -- ./inp_files/3779.got.cif
#   From: 2010.05.17/outbox.cif.g08.bks.cpg/sg92_2_cif.got.tgz:3779.got - 2010.06.03 19:35:17.
