data_PCOD9549060
_publ_section_title
;
Structure prediction by ZEFSAII (Michael W. Deem and Ramdas Pophale) SiO2 
 PCOD9549060
Probable space group: P 41 21 2
;
_chemical_formula_sum "Si O2"
_cell_formula_units_Z 60
_cell_length_a 10.046611
_cell_length_b 10.046611
_cell_length_c 24.680167
_cell_angle_alpha 90.000000
_cell_angle_beta 90.000000
_cell_angle_gamma 90.000000
_cell_volume 2491.077665
_symmetry_space_group_name_H-M "P 41 21 2"
_symmetry_group_IT_number 92
_symmetry_cell_setting 'tetragonal'
loop_
_space_group_symop_operation_xyz
x,y,z
1/2-y,1/2+x,1/4+z
-x,-y,1/2+z
1/2+y,1/2-x,3/4+z
1/2+x,1/2-y,3/4-z
1/2-x,1/2+y,1/4-z
y,x,-z
-y,-x,1/2-z
loop_
_atom_site_type_symbol
_atom_site_label
_atom_site_fract_x
_atom_site_fract_y
_atom_site_fract_z
Si Si1 0.847262 0.317244 0.525738
Si Si2 0.131996 0.131996 0.000000
Si Si3 0.342493 0.397352 0.883828
Si Si4 0.567252 0.886097 0.542241
Si Si5 0.603077 0.914390 0.367559
Si Si6 0.963974 0.129684 0.336032
Si Si7 0.787735 0.930968 0.270399
Si Si8 0.805461 0.102397 0.431360
O O1 0.906388 0.239841 0.577035
O O2 0.917846 0.444208 0.497982
O O3 0.698951 0.370163 0.538884
O O4 0.807667 0.203073 0.481883
O O5 0.283087 0.100950 0.018720
O O6 0.025928 0.112152 0.047272
O O7 0.266596 0.432522 0.939452
O O8 0.378045 0.238288 0.886863
O O9 0.449916 0.514074 0.886350
O O10 0.554394 0.953278 0.601890
O O11 0.654879 0.917630 0.305054
O O12 0.679766 0.023998 0.403567
O O13 0.858894 0.054408 0.298350
O O14 0.046163 0.218738 0.293907
O O15 0.878142 0.188426 0.384681
#
# Coordination Sequence:
#
# PCOD9549060 Si02
#       8
#     8   4   8   8   8   8   8   8
#     4  11  25  41  61 101 137 168 221 276 339 405
#     4  12  24  42  70 100 130 176 236 284 348 384
#     4  11  23  41  66  97 128 168 223 283 329 398
#     4  12  26  42  67 101 131 178 220 281 341 401
#     4  10  23  42  65  96 135 170 222 276 335 399
#     4  10  20  39  69  89 125 177 221 262 331 399
#     4   9  20  39  62  92 127 167 216 268 319 404
#     4  11  23  42  67  94 132 175 218 278 332 404
#
# _framework density 24.08596
#
# number of rings (size 3 to 8) (size 9 to 14) (size 15 to 20)
#    0.000    1.333    2.667    3.200    7.467    1.067 
#    2.400    0.000    0.000    0.000    0.000    0.000 
#    0.000    0.000    0.000    0.000    0.000    0.000 
#
# Total GULP energy -334203.834475 kJ/mol
# GULP energy per Si atom -5570.063908 kJ/mol
# Density = 2.403114 g / cm^3
# Si number density = 24.085960 Si / 1000 Ang^3
#
#
#
# Elastic Constant Matrix: (Units=GPa)
#
#
# Indices 1 2 3 4 5 6 
#
# 1 58.4706 8.1136 27.9130 0.0000 0.0000 0.0000
# 2 8.1136 58.4706 27.9130 0.0000 0.0000 0.0000
# 3 27.9130 27.9130 108.0960 0.0000 0.0000 0.0000
# 4 0.0000 0.0000 0.0000 45.9696 0.0000 0.0000
# 5 0.0000 0.0000 0.0000 0.0000 45.9696 0.0000
# 6 0.0000 0.0000 0.0000 0.0000 0.0000 -59.6329
#
#
#
# Elastic Compliance Matrix: (Units=1/GPa)
#
#
# Indices 1 2 3 4 5 6 
#
# 1 0.019513 -0.000345 -0.004950 0.000000 0.000000 0.000000
# 2 -0.000345 0.019513 -0.004950 0.000000 0.000000 0.000000
# 3 -0.004950 -0.004950 0.011807 0.000000 0.000000 0.000000
# 4 0.000000 0.000000 0.000000 0.021753 0.000000 0.000000
# 5 0.000000 0.000000 0.000000 0.000000 0.021753 0.000000
# 6 0.000000 0.000000 0.000000 0.000000 0.000000 -0.016769
#
#
# Mechanical properties :
#
#
# Convention : Reuss Voigt Hill
#
# Bulk Modulus (GPa) = 32.95389 39.21291 36.08340
# Shear Modulus (GPa) = 46.22103 17.20111 31.71107
#
# Velocity S-wave (km/s) = 4.38540 2.67527 3.63241
# Velocity P-wave (km/s) = 6.27326 5.08512 5.71018
#
# Compressibility (1/GPa) = 0.03034543
#
# Stress axis : x y z
#
# Youngs Moduli (GPa) = 51.24676 51.24676 84.69300
#
# Poissons Ratio (x) = 0.01767 0.41921
# Poissons Ratio (y) = 0.01767 0.41921
# Poissons Ratio (z) = 0.25366 0.25366
#
# Static dielectric constant tensor:
#      x y z
#    x 2.156530 0.000000 0.000000 
#    y 0.000000 2.156530 0.000000 
#    z 0.000000 0.000000 1.954760 
# 
# From -- ./inp_files/3632.got.cif
#   From: 2010.05.17/outbox.cif.g08.bks.cpg/sg92_2_cif.got.tgz:3632.got - 2010.06.03 19:35:17.
