data_PCOD9549295
_publ_section_title
;
Structure prediction by ZEFSAII (Michael W. Deem and Ramdas Pophale) SiO2 
 PCOD9549295
Probable space group: P 41 21 2
;
_chemical_formula_sum "Si O2"
_cell_formula_units_Z 56
_cell_length_a 15.137571
_cell_length_b 15.137571
_cell_length_c 10.232762
_cell_angle_alpha 90.000000
_cell_angle_beta 90.000000
_cell_angle_gamma 90.000000
_cell_volume 2344.797052
_symmetry_space_group_name_H-M "P 41 21 2"
_symmetry_group_IT_number 92
_symmetry_cell_setting 'tetragonal'
loop_
_space_group_symop_operation_xyz
x,y,z
1/2-y,1/2+x,1/4+z
-x,-y,1/2+z
1/2+y,1/2-x,3/4+z
1/2+x,1/2-y,3/4-z
1/2-x,1/2+y,1/4-z
y,x,-z
-y,-x,1/2-z
loop_
_atom_site_type_symbol
_atom_site_label
_atom_site_fract_x
_atom_site_fract_y
_atom_site_fract_z
Si Si1 0.067001 0.189314 0.172157
Si Si2 0.248468 0.886815 0.756024
Si Si3 0.749644 0.986777 0.584541
Si Si4 0.078868 0.749972 0.035627
Si Si5 0.519063 0.381104 0.060313
Si Si6 0.229517 0.310989 0.216428
Si Si7 0.066764 0.444397 0.904912
O O1 0.068632 0.110240 0.276759
O O2 0.158883 0.239861 0.173893
O O3 0.988350 0.256403 0.207103
O O4 0.037090 0.174984 0.022202
O O5 0.145882 0.854119 0.750000
O O6 0.281210 0.889559 0.608730
O O7 0.280883 0.824274 0.874045
O O8 0.795308 0.968410 0.720186
O O9 0.659995 0.933971 0.562680
O O10 0.720677 0.088754 0.580883
O O11 0.174455 0.781911 0.085320
O O12 0.036945 0.665176 0.103622
O O13 0.014974 0.835860 0.054821
O O14 0.441890 0.441890 0.000000
O O15 0.000436 0.457691 0.782713
#
# Coordination Sequence:
#
# PCOD9549295 Si02
#       7
#     8   8   8   8   8   8   8
#     4  11  24  41  73 105 132 181 244 294 362 450
#     4   9  22  45  66  97 141 184 231 298 371 433
#     4  11  23  45  68 102 141 181 238 297 370 436
#     4  11  24  44  67  95 144 185 233 298 373 442
#     4  12  24  43  69 105 145 186 237 307 371 443
#     4  10  22  44  72  97 139 190 231 298 370 442
#     4  12  27  45  72 106 147 196 256 311 374 454
#
# _framework density 23.882662
#
# number of rings (size 3 to 8) (size 9 to 14) (size 15 to 20)
#    0.000    1.143    2.857    2.571    0.000    5.143 
#    7.714    0.000    0.000    0.000    0.000    0.000 
#    0.000    0.000    0.000    0.000    0.000    0.000 
#
# Total GULP energy -312261.592096 kJ/mol
# GULP energy per Si atom -5576.099859 kJ/mol
# Density = 2.382830 g / cm^3
# Si number density = 23.882662 Si / 1000 Ang^3
#
#
#
# Elastic Constant Matrix: (Units=GPa)
#
#
# Indices 1 2 3 4 5 6 
#
# 1 74.4440 -0.3532 15.4482 0.0000 0.0000 0.0000
# 2 -0.3532 74.4450 15.4486 0.0000 0.0000 0.0000
# 3 15.4482 15.4486 82.5115 0.0000 0.0000 0.0000
# 4 0.0000 0.0000 0.0000 19.5486 0.0000 0.0000
# 5 0.0000 0.0000 0.0000 0.0000 19.5492 0.0000
# 6 0.0000 0.0000 0.0000 0.0000 0.0000 24.5488
#
#
#
# Elastic Compliance Matrix: (Units=1/GPa)
#
#
# Indices 1 2 3 4 5 6 
#
# 1 0.014005 0.000635 -0.002741 0.000000 0.000000 0.000000
# 2 0.000635 0.014005 -0.002741 0.000000 0.000000 0.000000
# 3 -0.002741 -0.002741 0.013146 0.000000 0.000000 0.000000
# 4 0.000000 0.000000 0.000000 0.051155 0.000000 0.000000
# 5 0.000000 0.000000 0.000000 0.000000 0.051153 0.000000
# 6 0.000000 0.000000 0.000000 0.000000 0.000000 0.040735
#
#
# Mechanical properties :
#
#
# Convention : Reuss Voigt Hill
#
# Bulk Modulus (GPa) = 31.78469 32.49866 32.14167
# Shear Modulus (GPa) = 24.46438 26.11977 25.29208
#
# Velocity S-wave (km/s) = 3.20403 3.31066 3.25778
# Velocity P-wave (km/s) = 5.19859 5.31518 5.25721
#
# Compressibility (1/GPa) = 0.03146169
#
# Stress axis : x y z
#
# Youngs Moduli (GPa) = 71.40449 71.40537 76.06931
#
# Poissons Ratio (x) = -0.04536 0.20850
# Poissons Ratio (y) = -0.04536 0.20851
# Poissons Ratio (z) = 0.19572 0.19572
#
# Static dielectric constant tensor:
#      x y z
#    x 1.920270 0.000000 0.000000 
#    y 0.000000 1.920270 0.000000 
#    z 0.000000 0.000000 2.235760 
# 
# From -- ./inp_files/2293.got.cif
#   From: 2010.05.17/outbox.cif.g08.bks.cpg/sg92_2_cif.got.tgz:2293.got - 2010.06.03 19:35:17.
