data_PCOD9549015
_publ_section_title
;
Structure prediction by ZEFSAII (Michael W. Deem and Ramdas Pophale) SiO2 
 PCOD9549015
Probable space group: P 41 21 2
;
_chemical_formula_sum "Si O2"
_cell_formula_units_Z 52
_cell_length_a 20.073331
_cell_length_b 20.073331
_cell_length_c 6.130897
_cell_angle_alpha 90.000000
_cell_angle_beta 90.000000
_cell_angle_gamma 90.000000
_cell_volume 2470.375161
_symmetry_space_group_name_H-M "P 41 21 2"
_symmetry_group_IT_number 92
_symmetry_cell_setting 'tetragonal'
loop_
_space_group_symop_operation_xyz
x,y,z
1/2-y,1/2+x,1/4+z
-x,-y,1/2+z
1/2+y,1/2-x,3/4+z
1/2+x,1/2-y,3/4-z
1/2-x,1/2+y,1/4-z
y,x,-z
-y,-x,1/2-z
loop_
_atom_site_type_symbol
_atom_site_label
_atom_site_fract_x
_atom_site_fract_y
_atom_site_fract_z
Si Si1 0.809848 0.291549 0.924983
Si Si2 0.330228 0.330228 0.500000
Si Si3 0.391405 0.118739 0.531236
Si Si4 0.714341 0.957039 0.760908
Si Si5 0.596517 0.756204 0.709038
Si Si6 0.989252 0.588122 0.461017
Si Si7 0.846581 0.828134 0.259182
O O1 0.838336 0.268602 0.692169
O O2 0.825251 0.231946 0.089094
O O3 0.858821 0.349816 0.003288
O O4 0.732673 0.311718 0.961740
O O5 0.393126 0.311598 0.349305
O O6 0.337103 0.068301 0.442261
O O7 0.403680 0.179241 0.364386
O O8 0.460555 0.085233 0.587081
O O9 0.766059 0.897250 0.733930
O O10 0.745632 0.028083 0.823874
O O11 0.664316 0.967034 0.559659
O O12 0.035019 0.567993 0.255217
O O13 0.862596 0.862596 0.500000
O O14 0.853011 0.853011 0.000000
#
# Coordination Sequence:
#
# PCOD9549015 Si02
#       7
#     8   4   8   8   8   8   8
#     4  11  20  40  63  94 130 177 230 285 358 419
#     4  10  20  36  62  86 132 170 212 286 348 426
#     4  11  22  39  64  88 130 186 235 283 346 420
#     4  12  24  41  65  97 135 183 240 300 354 438
#     4  11  23  40  62  99 132 177 237 290 362 435
#     4  12  25  40  57  87 133 192 241 284 338 421
#     4  12  25  42  67  99 135 181 234 302 369 422
#
# _framework density 21.049433000000001
#
# number of rings (size 3 to 8) (size 9 to 14) (size 15 to 20)
#    0.000    0.615    3.846    6.000    2.154    1.231 
#    0.000    0.000    0.000    0.000    0.000    0.000 
#    4.615    0.000    0.000    0.000    0.000    0.000 
#
# Total GULP energy -290078.275320 kJ/mol
# GULP energy per Si atom -5578.428372 kJ/mol
# Density = 2.100152 g / cm^3
# Si number density = 21.049433 Si / 1000 Ang^3
#
#
#
# Elastic Constant Matrix: (Units=GPa)
#
#
# Indices 1 2 3 4 5 6 
#
# 1 67.8790 40.2486 27.8091 0.0000 0.0000 0.0000
# 2 40.2486 67.8790 27.8091 0.0000 0.0000 0.0000
# 3 27.8091 27.8091 100.8652 0.0000 0.0000 0.0000
# 4 0.0000 0.0000 0.0000 37.5112 0.0000 0.0000
# 5 0.0000 0.0000 0.0000 0.0000 37.5112 0.0000
# 6 0.0000 0.0000 0.0000 0.0000 0.0000 37.7677
#
#
#
# Elastic Compliance Matrix: (Units=1/GPa)
#
#
# Indices 1 2 3 4 5 6 
#
# 1 0.023484 -0.012708 -0.002971 0.000000 0.000000 0.000000
# 2 -0.012708 0.023484 -0.002971 0.000000 0.000000 0.000000
# 3 -0.002971 -0.002971 0.011553 0.000000 0.000000 0.000000
# 4 0.000000 0.000000 0.000000 0.026659 0.000000 0.000000
# 5 0.000000 0.000000 0.000000 0.000000 0.026659 0.000000
# 6 0.000000 0.000000 0.000000 0.000000 0.000000 0.026478
#
#
# Mechanical properties :
#
#
# Convention : Reuss Voigt Hill
#
# Bulk Modulus (GPa) = 47.12288 47.59521 47.35904
# Shear Modulus (GPa) = 27.36876 31.94178 29.65527
#
# Velocity S-wave (km/s) = 3.60976 3.89969 3.75752
# Velocity P-wave (km/s) = 6.30945 6.55264 6.43219
#
# Compressibility (1/GPa) = 0.02122111
#
# Stress axis : x y z
#
# Youngs Moduli (GPa) = 42.58162 42.58162 86.56084
#
# Poissons Ratio (x) = 0.54111 0.25719
# Poissons Ratio (y) = 0.54111 0.25719
# Poissons Ratio (z) = 0.12652 0.12652
#
# Static dielectric constant tensor:
#      x y z
#    x 1.795140 0.000000 0.000000 
#    y 0.000000 1.795140 0.000000 
#    z 0.000000 0.000000 1.932820 
# 
# From -- ./inp_files/733.got.cif
#   From: 2010.05.17/outbox.cif.g08.bks.cpg/sg92_1_cif.got.tgz:733.got - 2010.06.03 19:35:17.
