data_PCOD9549233
_publ_section_title
;
Structure prediction by ZEFSAII (Michael W. Deem and Ramdas Pophale) SiO2 
 PCOD9549233
Probable space group: P 41 21 2
;
_chemical_formula_sum "Si O2"
_cell_formula_units_Z 48
_cell_length_a 12.449678
_cell_length_b 12.449678
_cell_length_c 16.252942
_cell_angle_alpha 90.000000
_cell_angle_beta 90.000000
_cell_angle_gamma 90.000000
_cell_volume 2519.116331
_symmetry_space_group_name_H-M "P 41 21 2"
_symmetry_group_IT_number 92
_symmetry_cell_setting 'tetragonal'
loop_
_space_group_symop_operation_xyz
x,y,z
1/2-y,1/2+x,1/4+z
-x,-y,1/2+z
1/2+y,1/2-x,3/4+z
1/2+x,1/2-y,3/4-z
1/2-x,1/2+y,1/4-z
y,x,-z
-y,-x,1/2-z
loop_
_atom_site_type_symbol
_atom_site_label
_atom_site_fract_x
_atom_site_fract_y
_atom_site_fract_z
Si Si1 0.148204 0.981803 0.130642
Si Si2 0.031576 0.451090 0.405256
Si Si3 0.218754 0.542105 0.516652
Si Si4 0.540510 0.540510 0.000000
Si Si5 0.765299 0.245902 0.907901
Si Si6 0.669452 0.330549 0.750000
Si Si7 0.858350 0.452893 0.542470
O O1 0.168156 0.865742 0.094575
O O2 0.171617 0.062040 0.054627
O O3 0.240243 0.995257 0.201159
O O4 0.035498 0.007383 0.173141
O O5 0.921381 0.442803 0.457269
O O6 0.016108 0.556937 0.349161
O O7 0.134936 0.474593 0.461127
O O8 0.048845 0.343844 0.352719
O O9 0.335114 0.486284 0.518299
O O10 0.230870 0.660814 0.476604
O O11 0.755982 0.309954 0.821306
O O12 0.663430 0.169472 0.920865
#
# Coordination Sequence:
#
# PCOD9549233 Si02
#       7
#     8   8   8   4   8   4   8
#     4  11  24  38  68  93 136 166 215 278 328 396
#     4  10  24  42  65  95 126 180 220 270 320 407
#     4  11  24  42  67  92 136 174 225 265 337 398
#     4  12  25  46  58 101 134 178 206 278 331 402
#     4  11  23  38  68  99 128 170 213 285 329 390
#     4  10  23  40  58 103 124 168 214 262 341 382
#     4  10  22  40  63  97 126 160 223 274 325 379
#
# _framework density 19.054300999999999
#
# number of rings (size 3 to 8) (size 9 to 14) (size 15 to 20)
#    0.000    1.333    5.000    0.500    9.333    2.667 
#    0.000    0.000    0.000    0.000    0.000    0.000 
#    0.000    0.000    0.000    0.000    0.000    0.000 
#
# Total GULP energy -267709.827500 kJ/mol
# GULP energy per Si atom -5577.288073 kJ/mol
# Density = 1.901093 g / cm^3
# Si number density = 19.054301 Si / 1000 Ang^3
#
#
#
# Elastic Constant Matrix: (Units=GPa)
#
#
# Indices 1 2 3 4 5 6 
#
# 1 63.9813 49.1271 3.4692 0.0000 0.0000 0.0000
# 2 49.1271 63.9836 3.4715 0.0000 0.0000 0.0000
# 3 3.4692 3.4715 53.7858 0.0000 0.0000 0.0000
# 4 0.0000 0.0000 0.0000 10.8938 0.0000 0.0000
# 5 0.0000 0.0000 0.0000 0.0000 10.8930 0.0000
# 6 0.0000 0.0000 0.0000 0.0000 0.0000 15.3188
#
#
#
# Elastic Compliance Matrix: (Units=1/GPa)
#
#
# Indices 1 2 3 4 5 6 
#
# 1 0.038097 -0.029220 -0.000571 0.000000 0.000000 0.000000
# 2 -0.029220 0.038095 -0.000574 0.000000 0.000000 0.000000
# 3 -0.000571 -0.000574 0.018666 0.000000 0.000000 0.000000
# 4 0.000000 0.000000 0.000000 0.091796 0.000000 0.000000
# 5 0.000000 0.000000 0.000000 0.000000 0.091802 0.000000
# 6 0.000000 0.000000 0.000000 0.000000 0.000000 0.065279
#
#
# Mechanical properties :
#
#
# Convention : Reuss Voigt Hill
#
# Bulk Modulus (GPa) = 29.30180 32.65404 30.97792
# Shear Modulus (GPa) = 12.02382 15.79998 13.91190
#
# Velocity S-wave (km/s) = 2.51475 2.88272 2.70500
# Velocity P-wave (km/s) = 4.88297 5.31551 5.10383
#
# Compressibility (1/GPa) = 0.03412760
#
# Stress axis : x y z
#
# Youngs Moduli (GPa) = 26.24908 26.24990 53.57287
#
# Poissons Ratio (x) = 0.76702 0.03061
# Poissons Ratio (y) = 0.76699 0.03076
# Poissons Ratio (z) = 0.01500 0.01507
#
# Static dielectric constant tensor:
#      x y z
#    x 1.688490 0.000000 0.000000 
#    y 0.000000 1.688490 0.000000 
#    z 0.000000 0.000000 1.682860 
# 
# From -- ./inp_files/3189.got.cif
#   From: 2010.05.17/outbox.cif.g08.bks.cpg/sg92_2_cif.got.tgz:3189.got - 2010.06.03 19:35:17.
