data_PCOD9549822
_publ_section_title
;
Structure prediction by ZEFSAII (Michael W. Deem and Ramdas Pophale) SiO2 
 PCOD9549822
Probable space group: P 42 2 2
;
_chemical_formula_sum "Si O2"
_cell_formula_units_Z 36
_cell_length_a 8.747837
_cell_length_b 8.747837
_cell_length_c 20.349169
_cell_angle_alpha 90.000000
_cell_angle_beta 90.000000
_cell_angle_gamma 90.000000
_cell_volume 1557.213080
_symmetry_space_group_name_H-M "P 42 2 2"
_symmetry_group_IT_number 93
_symmetry_cell_setting 'tetragonal'
loop_
_space_group_symop_operation_xyz
x,y,z
-y,x,1/2+z
-x,-y,z
y,-x,1/2+z
x,-y,-z
-x,y,-z
y,x,1/2-z
-y,-x,1/2-z
loop_
_atom_site_type_symbol
_atom_site_label
_atom_site_fract_x
_atom_site_fract_y
_atom_site_fract_z
Si Si1 0.000000 0.500000 0.000000
Si Si2 0.825663 0.558322 0.427440
Si Si3 0.558008 0.240961 0.207539
Si Si4 0.000000 0.000000 0.500000
Si Si5 0.719781 0.042124 0.739325
Si Si6 0.244221 0.914242 0.589881
O O1 0.900585 0.394902 0.953353
O O2 0.777815 0.500000 0.500000
O O3 0.731242 0.480590 0.368353
O O4 0.826824 0.742774 0.415709
O O5 0.000000 0.500000 0.419568
O O6 0.619745 0.380256 0.250000
O O7 0.407336 0.165327 0.238867
O O8 0.683054 0.106142 0.217966
O O9 0.869634 0.963855 0.555270
O O10 0.882727 0.117274 0.750000
O O11 0.710511 0.025810 0.661160
#
# Coordination Sequence:
#
# PCOD9549822 Si02
#       6
#     2   8   8   2   8   8
#     4  10  24  42  66  98 136 186 214 292 352 430
#     4  11  22  41  70  99 137 179 231 295 353 422
#     4  11  24  42  66  98 135 181 238 283 352 423
#     4  10  24  42  72 106 128 182 234 288 364 414
#     4  11  22  42  64  92 134 173 223 287 345 407
#     4  11  23  44  68  97 142 177 232 289 356 424
#
# _framework density 23.118224999999999
#
# number of rings (size 3 to 8) (size 9 to 14) (size 15 to 20)
#    0.000    1.111    4.444    2.667    0.000    9.778 
#    0.000    2.778    0.000    0.000    0.000    0.000 
#    0.000    0.000    0.000    0.000    0.000    0.000 
#
# Total GULP energy -200742.514034 kJ/mol
# GULP energy per Si atom -5576.180945 kJ/mol
# Density = 2.306561 g / cm^3
# Si number density = 23.118225 Si / 1000 Ang^3
#
#
#
# Elastic Constant Matrix: (Units=GPa)
#
#
# Indices 1 2 3 4 5 6 
#
# 1 49.3395 45.9478 8.9770 0.0000 0.0000 0.0000
# 2 45.9478 49.3376 8.9765 0.0000 0.0000 0.0000
# 3 8.9770 8.9765 189.0001 0.0000 0.0000 0.0000
# 4 0.0000 0.0000 0.0000 45.3452 0.0000 0.0000
# 5 0.0000 0.0000 0.0000 0.0000 45.3444 0.0000
# 6 0.0000 0.0000 0.0000 0.0000 0.0000 37.6914
#
#
#
# Elastic Compliance Matrix: (Units=1/GPa)
#
#
# Indices 1 2 3 4 5 6 
#
# 1 0.152752 -0.142166 -0.000503 0.000000 0.000000 0.000000
# 2 -0.142166 0.152758 -0.000503 0.000000 0.000000 0.000000
# 3 -0.000503 -0.000503 0.005339 0.000000 0.000000 0.000000
# 4 0.000000 0.000000 0.000000 0.022053 0.000000 0.000000
# 5 0.000000 0.000000 0.000000 0.000000 0.022053 0.000000
# 6 0.000000 0.000000 0.000000 0.000000 0.000000 0.026531
#
#
# Mechanical properties :
#
#
# Convention : Reuss Voigt Hill
#
# Bulk Modulus (GPa) = 40.80657 46.16442 43.48549
# Shear Modulus (GPa) = 7.39646 40.59458 23.99552
#
# Velocity S-wave (km/s) = 1.79063 4.19496 3.22522
# Velocity P-wave (km/s) = 4.68665 6.59362 5.72016
#
# Compressibility (1/GPa) = 0.02450586
#
# Stress axis : x y z
#
# Youngs Moduli (GPa) = 6.54655 6.54630 187.30870
#
# Poissons Ratio (x) = 0.93066 0.09426
# Poissons Ratio (y) = 0.93069 0.09416
# Poissons Ratio (z) = 0.00329 0.00329
#
# Static dielectric constant tensor:
#      x y z
#    x 1.855420 0.000000 0.000000 
#    y 0.000000 1.855440 0.000000 
#    z 0.000000 0.000000 1.912380 
# 
# From -- ./inp_files/6124.got.cif
#   From: 2010.05.17/outbox.cif.g08.bks.cpg/sg93_4_cif.got.tgz:6124.got - 2010.06.03 19:38:44.
