data_PCOD9549898
_publ_section_title
;
Structure prediction by ZEFSAII (Michael W. Deem and Ramdas Pophale) SiO2 
 PCOD9549898
Probable space group: P 42 2 2
;
_chemical_formula_sum "Si O2"
_cell_formula_units_Z 16
_cell_length_a 5.228451
_cell_length_b 5.228451
_cell_length_c 25.322449
_cell_angle_alpha 90.000000
_cell_angle_beta 90.000000
_cell_angle_gamma 90.000000
_cell_volume 692.232188
_symmetry_space_group_name_H-M "P 42 2 2"
_symmetry_group_IT_number 93
_symmetry_cell_setting 'tetragonal'
loop_
_space_group_symop_operation_xyz
x,y,z
-y,x,1/2+z
-x,-y,z
y,-x,1/2+z
x,-y,-z
-x,y,-z
y,x,1/2-z
-y,-x,1/2-z
loop_
_atom_site_type_symbol
_atom_site_label
_atom_site_fract_x
_atom_site_fract_y
_atom_site_fract_z
Si Si1 0.238116 0.847954 0.585826
Si Si2 0.500000 0.500000 0.250000
Si Si3 0.000000 0.500000 0.676426
Si Si4 0.500000 0.500000 0.500000
O O1 0.105069 0.715911 0.636319
O O2 0.329812 0.661439 0.540028
O O3 0.500000 0.000000 0.600923
O O4 0.000000 0.000000 0.562843
O O5 0.526916 0.247419 0.213685
#
# Coordination Sequence:
#
# PCOD9549898 Si02
#       4
#     8   2   4   2
#     4  12  28  50  80 115 162 215 264 341 405 510
#     4  12  30  52  88 110 166 214 282 362 434 486
#     4  12  30  53  76 120 150 213 280 346 416 508
#     4  12  28  50  76 130 164 214 276 314 436 486
#
# _framework density 23.113636
#
# number of rings (size 3 to 8) (size 9 to 14) (size 15 to 20)
#    0.000    0.000    0.000    8.250   10.500   15.000 
#    0.000    0.000    0.000    0.000    0.000    0.000 
#    0.000    0.000    0.000    0.000    0.000    0.000 
#
# Total GULP energy -89426.780859 kJ/mol
# GULP energy per Si atom -5589.173804 kJ/mol
# Density = 2.306103 g / cm^3
# Si number density = 23.113636 Si / 1000 Ang^3
#
#
#
# Elastic Constant Matrix: (Units=GPa)
#
#
# Indices 1 2 3 4 5 6 
#
# 1 215.8814 116.4592 108.4461 0.0000 0.0000 0.0000
# 2 116.4592 215.8814 108.4461 0.0000 0.0000 0.0000
# 3 108.4461 108.4461 192.3706 0.0000 0.0000 0.0000
# 4 0.0000 0.0000 0.0000 -52.0896 0.0000 0.0000
# 5 0.0000 0.0000 0.0000 0.0000 -52.0896 0.0000
# 6 0.0000 0.0000 0.0000 0.0000 0.0000 30.9913
#
#
#
# Elastic Compliance Matrix: (Units=1/GPa)
#
#
# Indices 1 2 3 4 5 6 
#
# 1 0.007409 -0.002649 -0.002684 0.000000 0.000000 0.000000
# 2 -0.002649 0.007409 -0.002684 0.000000 0.000000 0.000000
# 3 -0.002684 -0.002684 0.008224 0.000000 0.000000 0.000000
# 4 0.000000 0.000000 0.000000 -0.019198 0.000000 0.000000
# 5 0.000000 0.000000 0.000000 0.000000 -0.019198 0.000000
# 6 0.000000 0.000000 0.000000 0.000000 0.000000 0.032267
#
#
# Mechanical properties :
#
#
# Convention : Reuss Voigt Hill
#
# Bulk Modulus (GPa) = 142.64674 143.42626 143.03650
# Shear Modulus (GPa) = 141.71174 4.74788 73.22981
#
# Velocity S-wave (km/s) = 7.83862 1.43478 5.63483
# Velocity P-wave (km/s) = 11.99061 8.05805 10.21535
#
# Compressibility (1/GPa) = 0.00701032
#
# Stress axis : x y z
#
# Youngs Moduli (GPa) = 134.96720 134.96720 121.59652
#
# Poissons Ratio (x) = 0.35752 0.32631
# Poissons Ratio (y) = 0.35752 0.32631
# Poissons Ratio (z) = 0.36219 0.36219
#
# Static dielectric constant tensor:
#      x y z
#    x 1.892900 0.000000 0.000000 
#    y 0.000000 1.892900 0.000000 
#    z 0.000000 0.000000 1.858990 
# 
# From -- ./inp_files/5616.got.cif
#   From: 2010.05.17/outbox.cif.g08.bks.cpg/sg93_3_cif.got.tgz:5616.got - 2010.06.03 19:38:44.
