data_PCOD9549271
_publ_section_title
;
Structure prediction by ZEFSAII (Michael W. Deem and Ramdas Pophale) SiO2 
 PCOD9549271
Probable space group: P 41 21 2
;
_chemical_formula_sum "Si O2"
_cell_formula_units_Z 52
_cell_length_a 20.682895
_cell_length_b 20.682895
_cell_length_c 5.790854
_cell_angle_alpha 90.000000
_cell_angle_beta 90.000000
_cell_angle_gamma 90.000000
_cell_volume 2477.223949
_symmetry_space_group_name_H-M "P 41 21 2"
_symmetry_group_IT_number 92
_symmetry_cell_setting 'tetragonal'
loop_
_space_group_symop_operation_xyz
x,y,z
1/2-y,1/2+x,1/4+z
-x,-y,1/2+z
1/2+y,1/2-x,3/4+z
1/2+x,1/2-y,3/4-z
1/2-x,1/2+y,1/4-z
y,x,-z
-y,-x,1/2-z
loop_
_atom_site_type_symbol
_atom_site_label
_atom_site_fract_x
_atom_site_fract_y
_atom_site_fract_z
Si Si1 0.891991 0.356127 0.433006
Si Si2 0.528401 0.471600 0.250000
Si Si3 0.320884 0.522674 0.643631
Si Si4 0.285507 0.664022 0.501931
Si Si5 0.685612 0.983375 0.821953
Si Si6 0.328553 0.223771 0.955633
Si Si7 0.239485 0.451816 0.316584
O O1 0.860301 0.423752 0.372663
O O2 0.836745 0.315525 0.560285
O O3 0.921357 0.314540 0.228980
O O4 0.952357 0.355070 0.612452
O O5 0.499882 0.499882 0.500000
O O6 0.606990 0.482724 0.245822
O O7 0.312620 0.592124 0.524303
O O8 0.304108 0.468946 0.452224
O O9 0.256243 0.519116 0.805020
O O10 0.305076 0.694925 0.750000
O O11 0.208940 0.677307 0.473514
O O12 0.310896 0.689104 0.250000
O O13 0.706340 0.986632 0.554254
O O14 0.397592 0.249354 0.874890
O O15 0.284804 0.284804 0.000000
#
# Coordination Sequence:
#
# PCOD9549271 Si02
#       7
#     8   4   8   8   8   8   8
#     4  10  22  43  62 101 141 184 240 295 366 438
#     4  12  32  54  74 108 148 190 250 300 362 446
#     4  11  25  46  74  98 138 187 242 300 359 429
#     4  11  25  40  74 107 135 177 237 303 361 416
#     4  10  23  43  69 103 140 188 242 299 369 440
#     4  10  23  38  63 102 139 178 231 300 363 433
#     4  10  23  42  68  97 140 183 232 297 363 435
#
# _framework density 20.991237999999999
#
# number of rings (size 3 to 8) (size 9 to 14) (size 15 to 20)
#    0.000    1.538    0.769    1.846   14.000    3.692 
#   11.077    0.000    0.000    0.000    0.000    0.000 
#    0.000    0.000    0.000    0.000    0.000    0.000 
#
# Total GULP energy -289714.242199 kJ/mol
# GULP energy per Si atom -5571.427735 kJ/mol
# Density = 2.094346 g / cm^3
# Si number density = 20.991238 Si / 1000 Ang^3
#
#
#
# Elastic Constant Matrix: (Units=GPa)
#
#
# Indices 1 2 3 4 5 6 
#
# 1 90.4109 37.5943 28.6896 0.0000 0.0000 0.0000
# 2 37.5943 90.4103 28.6895 0.0000 0.0000 0.0000
# 3 28.6896 28.6895 90.1940 0.0000 0.0000 0.0000
# 4 0.0000 0.0000 0.0000 34.5367 0.0000 0.0000
# 5 0.0000 0.0000 0.0000 0.0000 34.5366 0.0000
# 6 0.0000 0.0000 0.0000 0.0000 0.0000 25.5167
#
#
#
# Elastic Compliance Matrix: (Units=1/GPa)
#
#
# Indices 1 2 3 4 5 6 
#
# 1 0.014022 -0.004911 -0.002898 0.000000 0.000000 0.000000
# 2 -0.004911 0.014023 -0.002898 0.000000 0.000000 0.000000
# 3 -0.002898 -0.002898 0.012931 0.000000 0.000000 0.000000
# 4 0.000000 0.000000 0.000000 0.028955 0.000000 0.000000
# 5 0.000000 0.000000 0.000000 0.000000 0.028955 0.000000
# 6 0.000000 0.000000 0.000000 0.000000 0.000000 0.039190
#
#
# Mechanical properties :
#
#
# Convention : Reuss Voigt Hill
#
# Bulk Modulus (GPa) = 51.12253 51.21801 51.17027
# Shear Modulus (GPa) = 30.11852 30.65410 30.38631
#
# Velocity S-wave (km/s) = 3.79200 3.82557 3.80882
# Velocity P-wave (km/s) = 6.60148 6.63069 6.61610
#
# Compressibility (1/GPa) = 0.01956085
#
# Stress axis : x y z
#
# Youngs Moduli (GPa) = 71.31441 71.31395 77.33375
#
# Poissons Ratio (x) = 0.35023 0.22413
# Poissons Ratio (y) = 0.35023 0.22413
# Poissons Ratio (z) = 0.20668 0.20668
#
# Static dielectric constant tensor:
#      x y z
#    x 1.777200 0.000000 0.000000 
#    y 0.000000 1.777200 0.000000 
#    z 0.000000 0.000000 1.801930 
# 
# From -- ./inp_files/740.got.cif
#   From: 2010.05.17/outbox.cif.g08.bks.cpg/sg92_1_cif.got.tgz:740.got - 2010.06.03 19:35:17.
