data_PCOD9549757
_publ_section_title
;
Structure prediction by ZEFSAII (Michael W. Deem and Ramdas Pophale) SiO2 
 PCOD9549757
Probable space group: P 42 2 2
;
_chemical_formula_sum "Si O2"
_cell_formula_units_Z 48
_cell_length_a 9.109856
_cell_length_b 9.109856
_cell_length_c 27.771299
_cell_angle_alpha 90.000000
_cell_angle_beta 90.000000
_cell_angle_gamma 90.000000
_cell_volume 2304.725561
_symmetry_space_group_name_H-M "P 42 2 2"
_symmetry_group_IT_number 93
_symmetry_cell_setting 'tetragonal'
loop_
_space_group_symop_operation_xyz
x,y,z
-y,x,1/2+z
-x,-y,z
y,-x,1/2+z
x,-y,-z
-x,y,-z
y,x,1/2-z
-y,-x,1/2-z
loop_
_atom_site_type_symbol
_atom_site_label
_atom_site_fract_x
_atom_site_fract_y
_atom_site_fract_z
Si Si1 0.027208 0.840787 0.944061
Si Si2 0.192938 0.427060 0.946761
Si Si3 0.726272 0.734794 0.392129
Si Si4 0.343249 0.421343 0.616110
Si Si5 0.213651 0.633131 0.205706
Si Si6 0.126326 0.291454 0.207470
O O1 0.932591 0.691657 0.932508
O O2 0.198172 0.814771 0.935809
O O3 0.000000 0.000000 0.920601
O O4 0.000000 0.852776 0.000000
O O5 0.217639 0.560045 0.908494
O O6 0.345638 0.343459 0.936390
O O7 0.174835 0.500000 0.000000
O O8 0.756099 0.564977 0.383488
O O9 0.766357 0.823241 0.344395
O O10 0.500000 0.500000 0.626094
O O11 0.320486 0.300756 0.657355
O O12 0.308393 0.691608 0.250000
O O13 0.193288 0.456975 0.209229
O O14 0.049352 0.697290 0.208480
O O15 0.194718 0.194718 0.250000
#
# Coordination Sequence:
#
# PCOD9549757 Si02
#       6
#     8   8   8   8   8   8
#     4  11  24  42  63  97 138 184 225 268 334 403
#     4  11  21  39  68 101 137 175 223 277 327 404
#     4  11  22  40  69  99 130 173 222 280 332 398
#     4  10  21  38  66 102 132 166 223 283 342 388
#     4  11  23  40  67  95 128 171 220 281 342 401
#     4  11  24  43  66  95 132 173 224 277 343 410
#
# _framework density 20.826772999999999
#
# number of rings (size 3 to 8) (size 9 to 14) (size 15 to 20)
#    0.000    1.167    5.000    2.500    2.333    3.333 
#    6.000    0.833    0.000    2.000    0.000    0.000 
#    0.000    0.000    0.000    0.000    0.000    0.000 
#
# Total GULP energy -267305.516885 kJ/mol
# GULP energy per Si atom -5568.864935 kJ/mol
# Density = 2.077937 g / cm^3
# Si number density = 20.826773 Si / 1000 Ang^3
#
#
#
# Elastic Constant Matrix: (Units=GPa)
#
#
# Indices 1 2 3 4 5 6 
#
# 1 84.4002 47.7586 33.7417 0.0000 0.0000 0.0000
# 2 47.7586 84.4020 33.7419 0.0000 0.0000 0.0000
# 3 33.7417 33.7419 107.3119 0.0000 0.0000 0.0000
# 4 0.0000 0.0000 0.0000 -21.5205 0.0000 0.0000
# 5 0.0000 0.0000 0.0000 0.0000 -21.5189 0.0000
# 6 0.0000 0.0000 0.0000 0.0000 0.0000 32.1172
#
#
#
# Elastic Compliance Matrix: (Units=1/GPa)
#
#
# Indices 1 2 3 4 5 6 
#
# 1 0.018152 -0.009138 -0.002834 0.000000 0.000000 0.000000
# 2 -0.009138 0.018152 -0.002834 0.000000 0.000000 0.000000
# 3 -0.002834 -0.002834 0.011101 0.000000 0.000000 0.000000
# 4 0.000000 0.000000 0.000000 -0.046467 0.000000 0.000000
# 5 0.000000 0.000000 0.000000 0.000000 -0.046471 0.000000
# 6 0.000000 0.000000 0.000000 0.000000 0.000000 0.031136
#
#
# Mechanical properties :
#
#
# Convention : Reuss Voigt Hill
#
# Bulk Modulus (GPa) = 56.20573 56.28872 56.24722
# Shear Modulus (GPa) = 236.43404 8.54035 122.48720
#
# Velocity S-wave (km/s) = 10.66633 2.02721 7.67724
# Velocity P-wave (km/s) = 13.36936 5.70659 10.27874
#
# Compressibility (1/GPa) = 0.01779178
#
# Stress axis : x y z
#
# Youngs Moduli (GPa) = 55.08893 55.09017 90.08264
#
# Poissons Ratio (x) = 0.50344 0.25531
# Poissons Ratio (y) = 0.50343 0.25531
# Poissons Ratio (z) = 0.15613 0.15613
#
# Static dielectric constant tensor:
#      x y z
#    x 1.835460 0.000000 0.000000 
#    y 0.000000 1.835460 0.000000 
#    z 0.000000 0.000000 1.748310 
# 
# From -- ./inp_files/7812.got.cif
#   From: 2010.05.17/outbox.cif.g08.bks.cpg/sg93_4_cif.got.tgz:7812.got - 2010.06.03 19:38:44.
