data_PCOD9549796
_publ_section_title
;
Structure prediction by ZEFSAII (Michael W. Deem and Ramdas Pophale) SiO2 
 PCOD9549796
Probable space group: P 42 2 2
;
_chemical_formula_sum "Si O2"
_cell_formula_units_Z 40
_cell_length_a 8.516347
_cell_length_b 8.516347
_cell_length_c 26.276518
_cell_angle_alpha 90.000000
_cell_angle_beta 90.000000
_cell_angle_gamma 90.000000
_cell_volume 1905.787665
_symmetry_space_group_name_H-M "P 42 2 2"
_symmetry_group_IT_number 93
_symmetry_cell_setting 'tetragonal'
loop_
_space_group_symop_operation_xyz
x,y,z
-y,x,1/2+z
-x,-y,z
y,-x,1/2+z
x,-y,-z
-x,y,-z
y,x,1/2-z
-y,-x,1/2-z
loop_
_atom_site_type_symbol
_atom_site_label
_atom_site_fract_x
_atom_site_fract_y
_atom_site_fract_z
Si Si1 0.000000 0.760798 0.500000
Si Si2 0.500000 0.500000 0.411388
Si Si3 0.835310 0.929335 0.887316
Si Si4 0.000000 0.500000 0.339760
Si Si5 0.833474 0.561023 0.862353
Si Si6 0.509356 0.244795 0.750393
Si Si7 0.746580 0.500000 0.500000
O O1 0.952741 0.843916 0.551978
O O2 0.853597 0.648411 0.488753
O O3 0.511598 0.665202 0.381031
O O4 0.644388 0.474425 0.449797
O O5 0.665816 0.002106 0.870101
O O6 0.827543 0.746468 0.872872
O O7 0.000000 0.000000 0.865745
O O8 0.853532 0.489480 0.301420
O O9 0.839494 0.524064 0.802558
O O10 0.000000 0.500000 0.885393
O O11 0.384112 0.384112 0.750000
O O12 0.682047 0.317954 0.750000
#
# Coordination Sequence:
#
# PCOD9549796 Si02
#       7
#     4   4   8   4   8   8   4
#     4  11  23  46  72 103 143 186 247 301 374 447
#     4  11  24  46  71 102 146 188 245 303 370 424
#     4  12  29  47  74 108 147 195 245 309 378 451
#     4  12  26  47  74 108 150 197 246 308 376 438
#     4  12  27  46  73 109 148 194 250 302 368 449
#     4  11  24  44  72 104 143 191 242 298 360 436
#     4  10  22  42  74 104 138 190 240 308 364 450
#
# _framework density 20.988695
#
# number of rings (size 3 to 8) (size 9 to 14) (size 15 to 20)
#    0.000    0.600    5.000    2.700    5.600    0.000 
#    0.000    3.000    0.000    0.000    0.000    0.000 
#    0.000    0.000    0.000    0.000    0.000    0.000 
#
# Total GULP energy -223271.215555 kJ/mol
# GULP energy per Si atom -5581.780389 kJ/mol
# Density = 2.094092 g / cm^3
# Si number density = 20.988695 Si / 1000 Ang^3
#
#
#
# Elastic Constant Matrix: (Units=GPa)
#
#
# Indices 1 2 3 4 5 6 
#
# 1 52.6136 104.9611 41.0825 0.0000 0.0000 0.0000
# 2 104.9611 52.6210 41.0859 0.0000 0.0000 0.0000
# 3 41.0825 41.0859 120.2491 0.0000 0.0000 0.0000
# 4 0.0000 0.0000 0.0000 56.3251 0.0000 0.0000
# 5 0.0000 0.0000 0.0000 0.0000 56.3260 0.0000
# 6 0.0000 0.0000 0.0000 0.0000 0.0000 17.3673
#
#
#
# Elastic Compliance Matrix: (Units=1/GPa)
#
#
# Indices 1 2 3 4 5 6 
#
# 1 -0.005692 0.013413 -0.002638 0.000000 0.000000 0.000000
# 2 0.013413 -0.005691 -0.002638 0.000000 0.000000 0.000000
# 3 -0.002638 -0.002638 0.010119 0.000000 0.000000 0.000000
# 4 0.000000 0.000000 0.000000 0.017754 0.000000 0.000000
# 5 0.000000 0.000000 0.000000 0.000000 0.017754 0.000000
# 6 0.000000 0.000000 0.000000 0.000000 0.000000 0.057579
#
#
# Mechanical properties :
#
#
# Convention : Reuss Voigt Hill
#
# Bulk Modulus (GPa) = 66.62468 66.63808 66.63138
# Shear Modulus (GPa) = 62.07080 28.56061 45.31571
#
# Velocity S-wave (km/s) = 5.44405 3.69285 4.65160
# Velocity P-wave (km/s) = 8.44564 7.07116 7.78878
#
# Compressibility (1/GPa) = 0.01500945
#
# Stress axis : x y z
#
# Youngs Moduli (GPa) = -175.69333 -175.71646 98.82598
#
# Poissons Ratio (x) = 2.35690 0.26074
# Poissons Ratio (y) = 2.35659 0.26071
# Poissons Ratio (z) = -0.46354 -0.46355
#
# Static dielectric constant tensor:
#      x y z
#    x 1.795030 0.000000 0.000000 
#    y 0.000000 1.795030 0.000000 
#    z 0.000000 0.000000 1.796780 
# 
# From -- ./inp_files/7351.got.cif
#   From: 2010.05.17/outbox.cif.g08.bks.cpg/sg93_4_cif.got.tgz:7351.got - 2010.06.03 19:38:44.
