data_PCOD9549989
_publ_section_title
;
Structure prediction by ZEFSAII (Michael W. Deem and Ramdas Pophale) SiO2 
 PCOD9549989
Probable space group: P 42 21 2
;
_chemical_formula_sum "Si O2"
_cell_formula_units_Z 44
_cell_length_a 9.096146
_cell_length_b 9.096146
_cell_length_c 28.278538
_cell_angle_alpha 90.000000
_cell_angle_beta 90.000000
_cell_angle_gamma 90.000000
_cell_volume 2339.762616
_symmetry_space_group_name_H-M "P 42 21 2"
_symmetry_group_IT_number 94
_symmetry_cell_setting 'tetragonal'
loop_
_space_group_symop_operation_xyz
x,y,z
1/2-y,1/2+x,1/2+z
-x,-y,z
1/2+y,1/2-x,1/2+z
1/2+x,1/2-y,1/2-z
1/2-x,1/2+y,1/2-z
y,x,-z
-y,-x,-z
loop_
_atom_site_type_symbol
_atom_site_label
_atom_site_fract_x
_atom_site_fract_y
_atom_site_fract_z
Si Si1 0.337523 0.506660 0.218298
Si Si2 0.828415 0.204873 0.193512
Si Si3 0.632824 0.178679 0.349446
Si Si4 0.240794 0.004994 0.007341
Si Si5 0.507421 0.319662 0.610957
Si Si6 0.500000 0.000000 0.433746
O O1 0.500000 0.500000 0.197497
O O2 0.276042 0.672204 0.216464
O O3 0.348112 0.427232 0.269156
O O4 0.231442 0.409545 0.186557
O O5 0.979392 0.283722 0.177190
O O6 0.776992 0.124678 0.145664
O O7 0.699077 0.334900 0.364700
O O8 0.609262 0.078779 0.396254
O O9 0.271991 0.998474 0.062973
O O10 0.114715 0.885286 0.000000
O O11 0.367432 0.966358 0.970098
O O12 0.164724 0.164724 0.000000
O O13 0.500000 0.500000 0.601694
#
# Coordination Sequence:
#
# PCOD9549989 Si02
#       6
#     8   8   8   8   8   4
#     4  12  24  39  60  93 127 160 203 255 312 373
#     4  11  22  41  65  89 121 164 209 255 310 379
#     4  11  22  41  65  87 124 171 211 250 311 382
#     4  11  20  37  64  90 117 153 210 265 307 366
#     4  10  19  38  65  89 113 157 214 262 302 370
#     4  12  22  40  66  92 124 168 214 262 318 382
#
# _framework density 18.805326000000001
#
# number of rings (size 3 to 8) (size 9 to 14) (size 15 to 20)
#    0.000    0.909    5.455    4.909    0.000    0.000 
#    3.273    1.818    0.000    0.000    0.000    0.000 
#    0.000    0.000    0.000    0.000    0.000    0.000 
#
# Total GULP energy -245374.360575 kJ/mol
# GULP energy per Si atom -5576.690013 kJ/mol
# Density = 1.876252 g / cm^3
# Si number density = 18.805326 Si / 1000 Ang^3
#
#
#
# Elastic Constant Matrix: (Units=GPa)
#
#
# Indices 1 2 3 4 5 6 
#
# 1 72.6576 43.3478 46.3829 0.0000 0.0000 0.0000
# 2 43.3478 72.6572 46.3826 0.0000 0.0000 0.0000
# 3 46.3829 46.3826 129.1456 0.0000 0.0000 0.0000
# 4 0.0000 0.0000 0.0000 13.5889 0.0000 0.0000
# 5 0.0000 0.0000 0.0000 0.0000 13.5877 0.0000
# 6 0.0000 0.0000 0.0000 0.0000 0.0000 12.8822
#
#
#
# Elastic Compliance Matrix: (Units=1/GPa)
#
#
# Indices 1 2 3 4 5 6 
#
# 1 0.023106 -0.011012 -0.004343 0.000000 0.000000 0.000000
# 2 -0.011012 0.023106 -0.004343 0.000000 0.000000 0.000000
# 3 -0.004343 -0.004343 0.010863 0.000000 0.000000 0.000000
# 4 0.000000 0.000000 0.000000 0.073590 0.000000 0.000000
# 5 0.000000 0.000000 0.000000 0.000000 0.073596 0.000000
# 6 0.000000 0.000000 0.000000 0.000000 0.000000 0.077626
#
#
# Mechanical properties :
#
#
# Convention : Reuss Voigt Hill
#
# Bulk Modulus (GPa) = 56.57204 60.74300 58.65752
# Shear Modulus (GPa) = 15.28220 17.23490 16.25855
#
# Velocity S-wave (km/s) = 2.85380 3.03064 2.94355
# Velocity P-wave (km/s) = 6.40369 6.67963 6.54311
#
# Compressibility (1/GPa) = 0.01767658
#
# Stress axis : x y z
#
# Youngs Moduli (GPa) = 43.27876 43.27865 92.05485
#
# Poissons Ratio (x) = 0.47660 0.39984
# Poissons Ratio (y) = 0.47661 0.39983
# Poissons Ratio (z) = 0.18798 0.18798
#
# Static dielectric constant tensor:
#      x y z
#    x 1.646280 0.000000 0.000000 
#    y 0.000000 1.646270 0.000000 
#    z 0.000000 0.000000 1.689040 
# 
# From -- ./inp_files/5496.got.cif
#   From: 2010.05.17/outbox.cif.g08.bks.cpg/sg94_3_cif.got.tgz:5496.got - 2010.06.03 19:43:16.
