data_PCOD9549467
_publ_section_title
;
Structure prediction by ZEFSAII (Michael W. Deem and Ramdas Pophale) SiO2 
 PCOD9549467
Probable space group: P 41 21 2
;
_chemical_formula_sum "Si O2"
_cell_formula_units_Z 36
_cell_length_a 9.206950
_cell_length_b 9.206950
_cell_length_c 16.491794
_cell_angle_alpha 90.000000
_cell_angle_beta 90.000000
_cell_angle_gamma 90.000000
_cell_volume 1397.975211
_symmetry_space_group_name_H-M "P 41 21 2"
_symmetry_group_IT_number 92
_symmetry_cell_setting 'tetragonal'
loop_
_space_group_symop_operation_xyz
x,y,z
1/2-y,1/2+x,1/4+z
-x,-y,1/2+z
1/2+y,1/2-x,3/4+z
1/2+x,1/2-y,3/4-z
1/2-x,1/2+y,1/4-z
y,x,-z
-y,-x,1/2-z
loop_
_atom_site_type_symbol
_atom_site_label
_atom_site_fract_x
_atom_site_fract_y
_atom_site_fract_z
Si Si1 0.991650 0.722814 0.540880
Si Si2 0.208166 0.959253 0.531815
Si Si3 0.338241 0.630493 0.928591
Si Si4 0.813450 0.186551 0.750000
Si Si5 0.858365 0.528506 0.970377
O O1 0.821227 0.719981 0.559769
O O2 0.061981 0.680569 0.627537
O O3 0.073220 0.860286 0.502398
O O4 0.019466 0.594072 0.478113
O O5 0.303205 0.824306 0.567222
O O6 0.137863 0.068806 0.596606
O O7 0.328949 0.065457 0.491048
O O8 0.314779 0.466084 0.955531
O O9 0.449146 0.719742 0.988910
#
# Coordination Sequence:
#
# PCOD9549467 Si02
#       5
#     8   8   8   4   8
#     4  11  26  45  71 109 152 194 250 312 384 451
#     4  11  22  48  72 110 139 195 257 306 373 453
#     4  11  25  45  76 103 148 201 249 311 381 454
#     4  12  26  46  68 108 150 196 238 320 396 436
#     4  11  22  48  73 103 147 196 256 306 372 461
#
# _framework density 25.751528
#
# number of rings (size 3 to 8) (size 9 to 14) (size 15 to 20)
#    0.000    0.889    6.667    1.333    0.000    3.556 
#   12.000    0.000    0.000    0.000    0.000    0.000 
#    0.000    0.000    0.000    0.000    0.000    0.000 
#
# Total GULP energy -200795.991549 kJ/mol
# GULP energy per Si atom -5577.666432 kJ/mol
# Density = 2.569292 g / cm^3
# Si number density = 25.751528 Si / 1000 Ang^3
#
#
#
# Elastic Constant Matrix: (Units=GPa)
#
#
# Indices 1 2 3 4 5 6 
#
# 1 196.6015 88.6894 10.8687 0.0000 0.0000 0.0000
# 2 88.6894 196.6015 10.8690 0.0000 0.0000 0.0000
# 3 10.8687 10.8690 18.1193 0.0000 0.0000 0.0000
# 4 0.0000 0.0000 0.0000 26.8772 0.0000 0.0000
# 5 0.0000 0.0000 0.0000 0.0000 26.8771 0.0000
# 6 0.0000 0.0000 0.0000 0.0000 0.0000 73.1844
#
#
#
# Elastic Compliance Matrix: (Units=1/GPa)
#
#
# Indices 1 2 3 4 5 6 
#
# 1 0.006470 -0.002797 -0.002203 0.000000 0.000000 0.000000
# 2 -0.002797 0.006470 -0.002203 0.000000 0.000000 0.000000
# 3 -0.002203 -0.002203 0.057833 0.000000 0.000000 0.000000
# 4 0.000000 0.000000 0.000000 0.037206 0.000000 0.000000
# 5 0.000000 0.000000 0.000000 0.000000 0.037206 0.000000
# 6 0.000000 0.000000 0.000000 0.000000 0.000000 0.013664
#
#
# Mechanical properties :
#
#
# Convention : Reuss Voigt Hill
#
# Bulk Modulus (GPa) = 17.74116 70.24181 43.99149
# Shear Modulus (GPa) = 26.03551 45.44742 35.74147
#
# Velocity S-wave (km/s) = 3.18312 4.20556 3.72954
# Velocity P-wave (km/s) = 4.51818 7.13571 5.97211
#
# Compressibility (1/GPa) = 0.05636610
#
# Stress axis : x y z
#
# Youngs Moduli (GPa) = 154.56119 154.56089 17.29114
#
# Poissons Ratio (x) = 0.43229 0.03810
# Poissons Ratio (y) = 0.43229 0.03810
# Poissons Ratio (z) = 0.34053 0.34055
#
# Static dielectric constant tensor:
#      x y z
#    x 2.080090 0.000000 0.000000 
#    y 0.000000 2.080090 0.000000 
#    z 0.000000 0.000000 2.141870 
# 
# From -- ./inp_files/3484.got.cif
#   From: 2010.05.17/outbox.cif.g08.bks.cpg/sg92_2_cif.got.tgz:3484.got - 2010.06.03 19:35:17.
