data_PCOD9549647
_publ_section_title
;
Structure prediction by ZEFSAII (Michael W. Deem and Ramdas Pophale) SiO2 
 PCOD9549647
Probable space group: P 42 2 2
;
_chemical_formula_sum "Si O2"
_cell_formula_units_Z 40
_cell_length_a 15.070775
_cell_length_b 15.070775
_cell_length_c 8.105678
_cell_angle_alpha 90.000000
_cell_angle_beta 90.000000
_cell_angle_gamma 90.000000
_cell_volume 1841.028533
_symmetry_space_group_name_H-M "P 42 2 2"
_symmetry_group_IT_number 93
_symmetry_cell_setting 'tetragonal'
loop_
_space_group_symop_operation_xyz
x,y,z
-y,x,1/2+z
-x,-y,z
y,-x,1/2+z
x,-y,-z
-x,y,-z
y,x,1/2-z
-y,-x,1/2-z
loop_
_atom_site_type_symbol
_atom_site_label
_atom_site_fract_x
_atom_site_fract_y
_atom_site_fract_z
Si Si1 0.828448 0.076565 0.629379
Si Si2 0.380700 0.814450 0.310112
Si Si3 0.812591 0.555781 0.328038
Si Si4 0.648456 0.990016 0.200516
Si Si5 0.267192 0.758988 0.986579
O O1 0.910338 0.089663 0.750000
O O2 0.741358 0.044748 0.728341
O O3 0.811539 0.176501 0.556892
O O4 0.845030 0.000000 0.500000
O O5 0.479122 0.776464 0.288910
O O6 0.316576 0.792184 0.153255
O O7 0.336862 0.771549 0.469725
O O8 0.377726 0.920975 0.297456
O O9 0.817112 0.500000 0.500000
O O10 0.912085 0.578404 0.274777
O O11 0.767565 0.651439 0.358338
O O12 0.654511 0.000000 0.000000
#
# Coordination Sequence:
#
# PCOD9549647 Si02
#       5
#     8   8   8   8   8
#     4  12  24  42  65  93 132 185 231 286 346 405
#     4  10  20  34  61  95 129 173 227 277 341 412
#     4  10  19  33  61  93 132 176 221 281 345 421
#     4  12  20  35  63  94 129 172 219 284 348 418
#     4  10  20  37  59  91 132 178 219 274 344 413
#
# _framework density 21.726984000000002
#
# number of rings (size 3 to 8) (size 9 to 14) (size 15 to 20)
#    0.000    1.200    8.000    0.600    0.000    0.000 
#    0.000    1.000    0.000   15.000    0.000    0.000 
#    0.000  177.600    0.000    0.000    0.000    0.000 
#
# Total GULP energy -223283.984481 kJ/mol
# GULP energy per Si atom -5582.099612 kJ/mol
# Density = 2.167753 g / cm^3
# Si number density = 21.726984 Si / 1000 Ang^3
#
#
#
# Elastic Constant Matrix: (Units=GPa)
#
#
# Indices 1 2 3 4 5 6 
#
# 1 133.9713 71.0298 49.6446 0.0000 0.0000 0.0000
# 2 71.0298 133.9739 49.6452 0.0000 0.0000 0.0000
# 3 49.6446 49.6452 69.4729 0.0000 0.0000 0.0000
# 4 0.0000 0.0000 0.0000 27.8037 0.0000 0.0000
# 5 0.0000 0.0000 0.0000 0.0000 27.8031 0.0000
# 6 0.0000 0.0000 0.0000 0.0000 0.0000 19.6249
#
#
#
# Elastic Compliance Matrix: (Units=1/GPa)
#
#
# Indices 1 2 3 4 5 6 
#
# 1 0.011674 -0.004214 -0.005331 0.000000 0.000000 0.000000
# 2 -0.004214 0.011674 -0.005331 0.000000 0.000000 0.000000
# 3 -0.005331 -0.005331 0.022013 0.000000 0.000000 0.000000
# 4 0.000000 0.000000 0.000000 0.035966 0.000000 0.000000
# 5 0.000000 0.000000 0.000000 0.000000 0.035967 0.000000
# 6 0.000000 0.000000 0.000000 0.000000 0.000000 0.050956
#
#
# Mechanical properties :
#
#
# Convention : Reuss Voigt Hill
#
# Bulk Modulus (GPa) = 64.06390 75.33972 69.70181
# Shear Modulus (GPa) = 24.60589 26.18622 25.39606
#
# Velocity S-wave (km/s) = 3.36892 3.47542 3.42259
# Velocity P-wave (km/s) = 6.68451 7.13132 6.91153
#
# Compressibility (1/GPa) = 0.01560942
#
# Stress axis : x y z
#
# Youngs Moduli (GPa) = 85.66214 85.66369 45.42810
#
# Poissons Ratio (x) = 0.36097 0.24217
# Poissons Ratio (y) = 0.36096 0.24217
# Poissons Ratio (z) = 0.45665 0.45665
#
# Static dielectric constant tensor:
#      x y z
#    x 1.806080 0.000000 0.000000 
#    y 0.000000 1.806070 0.000000 
#    z 0.000000 0.000000 1.903980 
# 
# From -- ./inp_files/1840.got.cif
#   From: 2010.05.17/outbox.cif.g08.bks.cpg/sg93_1_cif.got.tgz:1840.got - 2010.06.03 19:38:44.
