data_PCOD9549475
_publ_section_title
;
Structure prediction by ZEFSAII (Michael W. Deem and Ramdas Pophale) SiO2 
 PCOD9549475
Probable space group: P 41 21 2
;
_chemical_formula_sum "Si O2"
_cell_formula_units_Z 40
_cell_length_a 9.068955
_cell_length_b 9.068955
_cell_length_c 21.523848
_cell_angle_alpha 90.000000
_cell_angle_beta 90.000000
_cell_angle_gamma 90.000000
_cell_volume 1770.249214
_symmetry_space_group_name_H-M "P 41 21 2"
_symmetry_group_IT_number 92
_symmetry_cell_setting 'tetragonal'
loop_
_space_group_symop_operation_xyz
x,y,z
1/2-y,1/2+x,1/4+z
-x,-y,1/2+z
1/2+y,1/2-x,3/4+z
1/2+x,1/2-y,3/4-z
1/2-x,1/2+y,1/4-z
y,x,-z
-y,-x,1/2-z
loop_
_atom_site_type_symbol
_atom_site_label
_atom_site_fract_x
_atom_site_fract_y
_atom_site_fract_z
Si Si1 0.106104 0.705703 0.147965
Si Si2 0.806082 0.196644 0.989222
Si Si3 0.087049 0.164401 0.318294
Si Si4 0.181648 0.818353 0.750000
Si Si5 0.656814 0.343187 0.750000
Si Si6 0.970085 0.631710 0.930115
O O1 0.143922 0.743499 0.076927
O O2 0.251798 0.715728 0.190482
O O3 0.984964 0.826564 0.168087
O O4 0.022425 0.548111 0.160523
O O5 0.981258 0.184339 0.997050
O O6 0.738710 0.355268 0.004918
O O7 0.733522 0.100240 0.043691
O O8 0.101257 0.285819 0.371704
O O9 0.915791 0.133873 0.308391
O O10 0.146432 0.649716 0.734672
#
# Coordination Sequence:
#
# PCOD9549475 Si02
#       6
#     8   8   8   4   4   8
#     4  11  26  46  67 101 143 184 239 296 365 443
#     4  11  25  44  67  97 137 184 232 292 362 435
#     4  11  24  42  66  97 133 176 227 289 356 427
#     4  12  22  40  68  98 126 170 228 284 352 428
#     4  12  26  44  70 100 140 190 238 302 364 432
#     4  11  23  44  71  99 136 180 233 296 363 443
#
# _framework density 22.595690999999999
#
# number of rings (size 3 to 8) (size 9 to 14) (size 15 to 20)
#    0.000    0.800    0.000    8.400    0.000   11.200 
#    0.000    0.000    0.000    0.000    0.000    0.000 
#    0.000    0.000    0.000    0.000    0.000    0.000 
#
# Total GULP energy -223497.692523 kJ/mol
# GULP energy per Si atom -5587.442313 kJ/mol
# Density = 2.254426 g / cm^3
# Si number density = 22.595691 Si / 1000 Ang^3
#
#
#
# Elastic Constant Matrix: (Units=GPa)
#
#
# Indices 1 2 3 4 5 6 
#
# 1 85.8143 44.8572 44.6830 0.0000 0.0000 0.0000
# 2 44.8572 85.8133 44.6839 0.0000 0.0000 0.0000
# 3 44.6830 44.6839 116.2100 0.0000 0.0000 0.0000
# 4 0.0000 0.0000 0.0000 38.6778 0.0000 0.0000
# 5 0.0000 0.0000 0.0000 0.0000 38.6779 0.0000
# 6 0.0000 0.0000 0.0000 0.0000 0.0000 20.7443
#
#
#
# Elastic Compliance Matrix: (Units=1/GPa)
#
#
# Indices 1 2 3 4 5 6 
#
# 1 0.017399 -0.007016 -0.003992 0.000000 0.000000 0.000000
# 2 -0.007016 0.017400 -0.003993 0.000000 0.000000 0.000000
# 3 -0.003992 -0.003993 0.011675 0.000000 0.000000 0.000000
# 4 0.000000 0.000000 0.000000 0.025855 0.000000 0.000000
# 5 0.000000 0.000000 0.000000 0.000000 0.025855 0.000000
# 6 0.000000 0.000000 0.000000 0.000000 0.000000 0.048206
#
#
# Mechanical properties :
#
#
# Convention : Reuss Voigt Hill
#
# Bulk Modulus (GPa) = 60.70851 61.80951 61.25901
# Shear Modulus (GPa) = 27.49019 29.86090 28.67555
#
# Velocity S-wave (km/s) = 3.49178 3.63923 3.56627
# Velocity P-wave (km/s) = 6.57133 6.71361 6.64285
#
# Compressibility (1/GPa) = 0.01647215
#
# Stress axis : x y z
#
# Youngs Moduli (GPa) = 57.47309 57.47160 85.65061
#
# Poissons Ratio (x) = 0.40324 0.34194
# Poissons Ratio (y) = 0.40325 0.34197
# Poissons Ratio (z) = 0.22945 0.22946
#
# Static dielectric constant tensor:
#      x y z
#    x 1.868120 0.000000 0.000000 
#    y 0.000000 1.868120 0.000000 
#    z 0.000000 0.000000 1.864870 
# 
# From -- ./inp_files/3828.got.cif
#   From: 2010.05.17/outbox.cif.g08.bks.cpg/sg92_2_cif.got.tgz:3828.got - 2010.06.03 19:35:17.
