data_PCOD9549177
_publ_section_title
;
Structure prediction by ZEFSAII (Michael W. Deem and Ramdas Pophale) SiO2 
 PCOD9549177
Probable space group: P 41 21 2
;
_chemical_formula_sum "Si O2"
_cell_formula_units_Z 40
_cell_length_a 8.236002
_cell_length_b 8.236002
_cell_length_c 26.010454
_cell_angle_alpha 90.000000
_cell_angle_beta 90.000000
_cell_angle_gamma 90.000000
_cell_volume 1764.334065
_symmetry_space_group_name_H-M "P 41 21 2"
_symmetry_group_IT_number 92
_symmetry_cell_setting 'tetragonal'
loop_
_space_group_symop_operation_xyz
x,y,z
1/2-y,1/2+x,1/4+z
-x,-y,1/2+z
1/2+y,1/2-x,3/4+z
1/2+x,1/2-y,3/4-z
1/2-x,1/2+y,1/4-z
y,x,-z
-y,-x,1/2-z
loop_
_atom_site_type_symbol
_atom_site_label
_atom_site_fract_x
_atom_site_fract_y
_atom_site_fract_z
Si Si1 0.015800 0.287120 0.911898
Si Si2 0.505128 0.180652 0.724749
Si Si3 0.405878 0.202096 0.615847
Si Si4 0.860797 0.124100 0.684119
Si Si5 0.504405 0.292851 0.438693
O O1 0.195593 0.359101 0.911340
O O2 0.893103 0.435286 0.902126
O O3 0.993110 0.166378 0.864563
O O4 0.992748 0.230629 0.970800
O O5 0.458753 0.274452 0.672240
O O6 0.690317 0.115082 0.716641
O O7 0.365081 0.041328 0.723404
O O8 0.265174 0.079596 0.634112
O O9 0.339249 0.321474 0.573232
O O10 0.040499 0.090730 0.705611
#
# Coordination Sequence:
#
# PCOD9549177 Si02
#       5
#     8   8   8   8   8
#     4  11  22  44  63  99 135 175 232 287 344 419
#     4   9  23  41  66  96 135 170 238 276 345 426
#     4   9  21  42  64  91 140 169 226 291 336 409
#     4  11  22  40  71  92 136 184 218 290 349 404
#     4  10  21  43  65  94 130 177 226 280 350 406
#
# _framework density 22.671446
#
# number of rings (size 3 to 8) (size 9 to 14) (size 15 to 20)
#    1.200    0.800    0.000    4.200    0.000    0.800 
#   18.000    0.000    4.400    0.000    0.000    0.000 
#    0.000    0.000    0.000    0.000    0.000    0.000 
#
# Total GULP energy -222860.320886 kJ/mol
# GULP energy per Si atom -5571.508022 kJ/mol
# Density = 2.261984 g / cm^3
# Si number density = 22.671446 Si / 1000 Ang^3
#
#
#
# Elastic Constant Matrix: (Units=GPa)
#
#
# Indices 1 2 3 4 5 6 
#
# 1 97.4094 10.6883 8.4454 0.0000 0.0000 0.0000
# 2 10.6883 97.4094 8.4454 0.0000 0.0000 0.0000
# 3 8.4454 8.4454 85.0115 0.0000 0.0000 0.0000
# 4 0.0000 0.0000 0.0000 17.7483 0.0000 0.0000
# 5 0.0000 0.0000 0.0000 0.0000 17.7483 0.0000
# 6 0.0000 0.0000 0.0000 0.0000 0.0000 36.1685
#
#
#
# Elastic Compliance Matrix: (Units=1/GPa)
#
#
# Indices 1 2 3 4 5 6 
#
# 1 0.010464 -0.001067 -0.000934 0.000000 0.000000 0.000000
# 2 -0.001067 0.010464 -0.000934 0.000000 0.000000 0.000000
# 3 -0.000934 -0.000934 0.011949 0.000000 0.000000 0.000000
# 4 0.000000 0.000000 0.000000 0.056343 0.000000 0.000000
# 5 0.000000 0.000000 0.000000 0.000000 0.056343 0.000000
# 6 0.000000 0.000000 0.000000 0.000000 0.000000 0.027648
#
#
# Mechanical properties :
#
#
# Convention : Reuss Voigt Hill
#
# Bulk Modulus (GPa) = 37.02598 37.22093 37.12346
# Shear Modulus (GPa) = 26.58404 31.14978 28.86691
#
# Velocity S-wave (km/s) = 3.42801 3.71073 3.57216
# Velocity P-wave (km/s) = 5.65998 5.90021 5.78134
#
# Compressibility (1/GPa) = 0.02700806
#
# Stress axis : x y z
#
# Youngs Moduli (GPa) = 95.56582 95.56582 83.69189
#
# Poissons Ratio (x) = 0.10199 0.07813
# Poissons Ratio (y) = 0.10199 0.07813
# Poissons Ratio (z) = 0.08921 0.08921
#
# Static dielectric constant tensor:
#      x y z
#    x 1.868640 0.000000 0.000000 
#    y 0.000000 1.868640 0.000000 
#    z 0.000000 0.000000 1.926060 
# 
# From -- ./inp_files/4353.got.cif
#   From: 2010.05.17/outbox.cif.g08.bks.cpg/sg92_3_cif.got.tgz:4353.got - 2010.06.03 19:35:17.
