data_PCOD9549468
_publ_section_title
;
Structure prediction by ZEFSAII (Michael W. Deem and Ramdas Pophale) SiO2 
 PCOD9549468
Probable space group: P 41 21 2
;
_chemical_formula_sum "Si O2"
_cell_formula_units_Z 36
_cell_length_a 9.936062
_cell_length_b 9.936062
_cell_length_c 12.817286
_cell_angle_alpha 90.000000
_cell_angle_beta 90.000000
_cell_angle_gamma 90.000000
_cell_volume 1265.390765
_symmetry_space_group_name_H-M "P 41 21 2"
_symmetry_group_IT_number 92
_symmetry_cell_setting 'tetragonal'
loop_
_space_group_symop_operation_xyz
x,y,z
1/2-y,1/2+x,1/4+z
-x,-y,1/2+z
1/2+y,1/2-x,3/4+z
1/2+x,1/2-y,3/4-z
1/2-x,1/2+y,1/4-z
y,x,-z
-y,-x,1/2-z
loop_
_atom_site_type_symbol
_atom_site_label
_atom_site_fract_x
_atom_site_fract_y
_atom_site_fract_z
Si Si1 0.056518 0.232011 0.394194
Si Si2 0.723228 0.003524 0.884913
Si Si3 0.482055 0.253779 0.583449
Si Si4 0.172919 0.469944 0.103442
Si Si5 0.596417 0.403584 0.750000
O O1 0.175365 0.121969 0.390068
O O2 0.956217 0.240690 0.494189
O O3 0.974048 0.225960 0.288565
O O4 0.150338 0.365238 0.390875
O O5 0.737695 0.042143 0.761739
O O6 0.565502 0.041192 0.897105
O O7 0.496897 0.388413 0.651799
O O8 0.624238 0.175827 0.608375
O O9 0.271933 0.544852 0.184478
#
# Coordination Sequence:
#
# PCOD9549468 Si02
#       5
#     8   8   8   8   4
#     4  11  23  38  65  97 128 168 217 263 317 381
#     4  11  23  38  65  97 128 168 217 263 317 381
#     4  12  22  42  67  93 129 169 217 262 317 388
#     4  12  22  42  67  93 129 169 217 262 317 388
#     4  12  24  36  70 104 118 172 218 262 320 380
#
# _framework density 28.44971
#
# number of rings (size 3 to 8) (size 9 to 14) (size 15 to 20)
#    0.000    0.444    6.667    4.000    0.000    0.000 
#    0.000    0.000    0.000   40.000    0.000    0.000 
#    0.000    0.000    0.000    0.000    0.000    0.000 
#
# Total GULP energy -200605.160659 kJ/mol
# GULP energy per Si atom -5572.365574 kJ/mol
# Density = 2.838496 g / cm^3
# Si number density = 28.449710 Si / 1000 Ang^3
#
#
#
# Elastic Constant Matrix: (Units=GPa)
#
#
# Indices 1 2 3 4 5 6 
#
# 1 59.7788 55.3169 29.1281 0.0000 0.0000 0.0000
# 2 55.3169 59.7791 29.1286 0.0000 0.0000 0.0000
# 3 29.1281 29.1286 275.3767 0.0000 0.0000 0.0000
# 4 0.0000 0.0000 0.0000 -2.3313 0.0000 0.0000
# 5 0.0000 0.0000 0.0000 0.0000 -2.3315 0.0000
# 6 0.0000 0.0000 0.0000 0.0000 0.0000 59.1039
#
#
#
# Elastic Compliance Matrix: (Units=1/GPa)
#
#
# Indices 1 2 3 4 5 6 
#
# 1 0.116648 -0.107468 -0.000971 0.000000 0.000000 0.000000
# 2 -0.107468 0.116648 -0.000971 0.000000 0.000000 0.000000
# 3 -0.000971 -0.000971 0.003837 0.000000 0.000000 0.000000
# 4 0.000000 0.000000 0.000000 -0.428943 0.000000 0.000000
# 5 0.000000 0.000000 0.000000 0.000000 -0.428903 0.000000
# 6 0.000000 0.000000 0.000000 0.000000 0.000000 0.016919
#
#
# Mechanical properties :
#
#
# Convention : Reuss Voigt Hill
#
# Bulk Modulus (GPa) = 54.60740 69.12022 61.86381
# Shear Modulus (GPa) = -13.19714 29.64560 8.22423
#
# Velocity S-wave (km/s) = -2.15611 3.23156 1.70208
# Velocity P-wave (km/s) = 3.61076 6.18646 5.06507
#
# Compressibility (1/GPa) = 0.01831254
#
# Stress axis : x y z
#
# Youngs Moduli (GPa) = 8.57281 8.57284 260.63310
#
# Poissons Ratio (x) = 0.92130 0.25303
# Poissons Ratio (y) = 0.92130 0.25313
# Poissons Ratio (z) = 0.00832 0.00833
#
# Static dielectric constant tensor:
#      x y z
#    x 2.269290 0.000000 0.000000 
#    y 0.000000 2.269290 0.000000 
#    z 0.000000 0.000000 2.231290 
# 
# From -- ./inp_files/1999.got.cif
#   From: 2010.05.17/outbox.cif.g08.bks.cpg/sg92_1_cif.got.tgz:1999.got - 2010.06.03 19:35:17.
