data_PCOD9549963
_publ_section_title
;
Structure prediction by ZEFSAII (Michael W. Deem and Ramdas Pophale) SiO2 
 PCOD9549963
Probable space group: P 42 21 2
;
_chemical_formula_sum "Si O2"
_cell_formula_units_Z 64
_cell_length_a 11.552148
_cell_length_b 11.552148
_cell_length_c 24.429777
_cell_angle_alpha 90.000000
_cell_angle_beta 90.000000
_cell_angle_gamma 90.000000
_cell_volume 3260.205615
_symmetry_space_group_name_H-M "P 42 21 2"
_symmetry_group_IT_number 94
_symmetry_cell_setting 'tetragonal'
loop_
_space_group_symop_operation_xyz
x,y,z
1/2-y,1/2+x,1/2+z
-x,-y,z
1/2+y,1/2-x,1/2+z
1/2+x,1/2-y,1/2-z
1/2-x,1/2+y,1/2-z
y,x,-z
-y,-x,-z
loop_
_atom_site_type_symbol
_atom_site_label
_atom_site_fract_x
_atom_site_fract_y
_atom_site_fract_z
Si Si1 0.792953 0.789734 0.937184
Si Si2 0.395223 0.412072 0.261227
Si Si3 0.564525 0.757632 0.559362
Si Si4 0.747642 0.060951 0.934527
Si Si5 0.527985 0.158742 0.720517
Si Si6 0.311153 0.116620 0.657172
Si Si7 0.630677 0.731443 0.156848
Si Si8 0.184079 0.354451 0.678341
O O1 0.721840 0.712959 0.894816
O O2 0.929238 0.761910 0.930912
O O3 0.774132 0.925883 0.927986
O O4 0.762780 0.762780 0.000000
O O5 0.500000 0.500000 0.255998
O O6 0.289464 0.481556 0.286969
O O7 0.351316 0.364333 0.203022
O O8 0.422102 0.295541 0.295893
O O9 0.579679 0.797933 0.496387
O O10 0.634860 0.637629 0.567220
O O11 0.619854 0.843751 0.603213
O O12 0.670246 0.104626 0.884011
O O13 0.412466 0.090362 0.701693
O O14 0.642068 0.151713 0.683410
O O15 0.574834 0.136093 0.781710
O O16 0.230249 0.221565 0.677476
O O17 0.235014 0.005412 0.644306
#
# Coordination Sequence:
#
# PCOD9549963 Si02
#       8
#     8   8   8   8   8   8   8   8
#     4  10  20  34  54  80 114 145 184 231 280 338
#     4  10  22  37  57  80 111 149 186 231 275 333
#     4   9  17  32  56  82 111 143 185 228 286 336
#     4   9  18  32  53  86 114 141 175 235 291 335
#     4  10  20  36  53  82 110 147 186 225 275 330
#     4  10  19  35  56  80 110 150 191 226 268 339
#     4  11  22  37  56  81 109 151 189 229 273 334
#     4   9  20  34  56  85 113 141 185 228 282 334
#
# _framework density 19.630665
#
# number of rings (size 3 to 8) (size 9 to 14) (size 15 to 20)
#    0.000    2.250    1.250    1.500    1.750    1.500 
#    6.750    1.250    0.000    3.375    0.000    0.000 
#    0.000    0.000    0.000    0.000    0.000    0.000 
#
# Total GULP energy -357237.373323 kJ/mol
# GULP energy per Si atom -5581.833958 kJ/mol
# Density = 1.958599 g / cm^3
# Si number density = 19.630665 Si / 1000 Ang^3
#
#
#
# Elastic Constant Matrix: (Units=GPa)
#
#
# Indices 1 2 3 4 5 6 
#
# 1 25.8816 15.0977 22.9904 0.0000 0.0000 0.0000
# 2 15.0977 25.8816 22.9904 0.0000 0.0000 0.0000
# 3 22.9904 22.9904 112.0935 0.0000 0.0000 0.0000
# 4 0.0000 0.0000 0.0000 27.1276 0.0000 0.0000
# 5 0.0000 0.0000 0.0000 0.0000 27.1276 0.0000
# 6 0.0000 0.0000 0.0000 0.0000 0.0000 13.4094
#
#
#
# Elastic Compliance Matrix: (Units=1/GPa)
#
#
# Indices 1 2 3 4 5 6 
#
# 1 0.062214 -0.030517 -0.006501 0.000000 0.000000 0.000000
# 2 -0.030517 0.062214 -0.006501 0.000000 0.000000 0.000000
# 3 -0.006501 -0.006501 0.011588 0.000000 0.000000 0.000000
# 4 0.000000 0.000000 0.000000 0.036863 0.000000 0.000000
# 5 0.000000 0.000000 0.000000 0.000000 0.036863 0.000000
# 6 0.000000 0.000000 0.000000 0.000000 0.000000 0.074574
#
#
# Mechanical properties :
#
#
# Convention : Reuss Voigt Hill
#
# Bulk Modulus (GPa) = 20.41741 31.77930 26.09836
# Shear Modulus (GPa) = 12.89722 20.38481 16.64102
#
# Velocity S-wave (km/s) = 2.56597 3.22594 2.91470
# Velocity P-wave (km/s) = 4.38204 5.48629 4.96496
#
# Compressibility (1/GPa) = 0.04897780
#
# Stress axis : x y z
#
# Youngs Moduli (GPa) = 16.07353 16.07353 86.29714
#
# Poissons Ratio (x) = 0.49052 0.56103
# Poissons Ratio (y) = 0.49052 0.56103
# Poissons Ratio (z) = 0.10450 0.10450
#
# Static dielectric constant tensor:
#      x y z
#    x 1.687960 0.000000 0.000000 
#    y 0.000000 1.687960 0.000000 
#    z 0.000000 0.000000 1.724770 
# 
# From -- ./inp_files/5182.got.cif
#   From: 2010.05.17/outbox.cif.g08.bks.cpg/sg94_3_cif.got.tgz:5182.got - 2010.06.03 19:43:16.
