data_PCOD9549711
_publ_section_title
;
Structure prediction by ZEFSAII (Michael W. Deem and Ramdas Pophale) SiO2 
 PCOD9549711
Probable space group: P 42 2 2
;
_chemical_formula_sum "Si O2"
_cell_formula_units_Z 32
_cell_length_a 13.539359
_cell_length_b 13.539359
_cell_length_c 7.964177
_cell_angle_alpha 90.000000
_cell_angle_beta 90.000000
_cell_angle_gamma 90.000000
_cell_volume 1459.947071
_symmetry_space_group_name_H-M "P 42 2 2"
_symmetry_group_IT_number 93
_symmetry_cell_setting 'tetragonal'
loop_
_space_group_symop_operation_xyz
x,y,z
-y,x,1/2+z
-x,-y,z
y,-x,1/2+z
x,-y,-z
-x,y,-z
y,x,1/2-z
-y,-x,1/2-z
loop_
_atom_site_type_symbol
_atom_site_label
_atom_site_fract_x
_atom_site_fract_y
_atom_site_fract_z
Si Si1 0.474352 0.161784 0.803113
Si Si2 0.706310 0.706310 0.750000
Si Si3 0.651032 0.962146 0.229591
Si Si4 0.000000 0.818232 0.000000
Si Si5 0.787552 0.168020 0.943258
O O1 0.407736 0.255799 0.750372
O O2 0.575839 0.126181 0.710997
O O3 0.410979 0.061609 0.784616
O O4 0.500000 0.174771 0.000000
O O5 0.754037 0.755496 0.583479
O O6 0.702802 0.912109 0.070467
O O7 0.742701 0.990885 0.345977
O O8 0.104578 0.872718 0.995508
O O9 0.793429 0.206572 0.750000
#
# Coordination Sequence:
#
# PCOD9549711 Si02
#       5
#     8   4   8   4   8
#     4  11  22  35  61  98 125 178 233 283 344 413
#     4  12  22  40  62  89 135 178 210 278 362 388
#     4  10  20  37  60  94 136 172 232 291 332 403
#     4  10  20  39  60  97 134 174 222 283 348 405
#     4  10  22  38  59  92 134 171 221 275 328 411
#
# _framework density 21.918600000000001
#
# number of rings (size 3 to 8) (size 9 to 14) (size 15 to 20)
#    0.000    1.500    5.000    1.500    0.000    2.000 
#    0.000    0.000    0.000    4.500    0.000    7.875 
#    0.000    0.000    0.000    0.000    0.000    3.000 
#
# Total GULP energy -178247.711599 kJ/mol
# GULP energy per Si atom -5570.240987 kJ/mol
# Density = 2.186871 g / cm^3
# Si number density = 21.918600 Si / 1000 Ang^3
#
#
#
# Elastic Constant Matrix: (Units=GPa)
#
#
# Indices 1 2 3 4 5 6 
#
# 1 104.5942 50.4322 -2.3127 0.0000 0.0000 0.0000
# 2 50.4322 104.5946 -2.3126 0.0000 0.0000 0.0000
# 3 -2.3127 -2.3126 64.0056 0.0000 0.0000 0.0000
# 4 0.0000 0.0000 0.0000 25.1868 0.0000 0.0000
# 5 0.0000 0.0000 0.0000 0.0000 25.1868 0.0000
# 6 0.0000 0.0000 0.0000 0.0000 0.0000 19.4073
#
#
#
# Elastic Compliance Matrix: (Units=1/GPa)
#
#
# Indices 1 2 3 4 5 6 
#
# 1 0.012460 -0.006003 0.000233 0.000000 0.000000 0.000000
# 2 -0.006003 0.012460 0.000233 0.000000 0.000000 0.000000
# 3 0.000233 0.000233 0.015640 0.000000 0.000000 0.000000
# 4 0.000000 0.000000 0.000000 0.039703 0.000000 0.000000
# 5 0.000000 0.000000 0.000000 0.000000 0.039703 0.000000
# 6 0.000000 0.000000 0.000000 0.000000 0.000000 0.051527
#
#
# Mechanical properties :
#
#
# Convention : Reuss Voigt Hill
#
# Bulk Modulus (GPa) = 33.91127 40.53422 37.22274
# Shear Modulus (GPa) = 25.98800 29.11536 27.55168
#
# Velocity S-wave (km/s) = 3.44708 3.64859 3.54927
# Velocity P-wave (km/s) = 5.59894 6.02353 5.81511
#
# Compressibility (1/GPa) = 0.02948873
#
# Stress axis : x y z
#
# Youngs Moduli (GPa) = 80.25495 80.25524 63.93663
#
# Poissons Ratio (x) = 0.48176 -0.01492
# Poissons Ratio (y) = 0.48175 -0.01492
# Poissons Ratio (z) = -0.01873 -0.01872
#
# Static dielectric constant tensor:
#      x y z
#    x 1.885110 0.000000 0.000000 
#    y 0.000000 1.885110 0.000000 
#    z 0.000000 0.000000 2.094410 
# 
# From -- ./inp_files/1611.got.cif
#   From: 2010.05.17/outbox.cif.g08.bks.cpg/sg93_1_cif.got.tgz:1611.got - 2010.06.03 19:38:44.
