data_PCOD9549519
_publ_section_title
;
Structure prediction by ZEFSAII (Michael W. Deem and Ramdas Pophale) SiO2 
 PCOD9549519
Probable space group: P 41 21 2
;
_chemical_formula_sum "Si O2"
_cell_formula_units_Z 28
_cell_length_a 8.455322
_cell_length_b 8.455322
_cell_length_c 16.306498
_cell_angle_alpha 90.000000
_cell_angle_beta 90.000000
_cell_angle_gamma 90.000000
_cell_volume 1165.791821
_symmetry_space_group_name_H-M "P 41 21 2"
_symmetry_group_IT_number 92
_symmetry_cell_setting 'tetragonal'
loop_
_space_group_symop_operation_xyz
x,y,z
1/2-y,1/2+x,1/4+z
-x,-y,1/2+z
1/2+y,1/2-x,3/4+z
1/2+x,1/2-y,3/4-z
1/2-x,1/2+y,1/4-z
y,x,-z
-y,-x,1/2-z
loop_
_atom_site_type_symbol
_atom_site_label
_atom_site_fract_x
_atom_site_fract_y
_atom_site_fract_z
Si Si1 0.725296 0.274705 0.750000
Si Si2 0.269177 0.525835 0.529010
Si Si3 0.739885 0.412232 0.331216
Si Si4 0.899084 0.253720 0.904091
O O1 0.880261 0.279688 0.807028
O O2 0.723517 0.427676 0.691050
O O3 0.410105 0.410105 0.500000
O O4 0.141958 0.420441 0.578138
O O5 0.337956 0.656831 0.589486
O O6 0.181894 0.602924 0.452147
O O7 0.660870 0.339131 0.250000
O O8 0.703697 0.596526 0.329776
#
# Coordination Sequence:
#
# PCOD9549519 Si02
#       4
#     4   8   8   8
#     4  12  32  52  82 114 166 210 276 332 418 486
#     4  11  27  48  79 115 155 209 274 338 409 483
#     4  11  25  46  80 109 159 206 265 336 406 492
#     4  12  29  52  78 117 162 213 268 337 408 493
#
# _framework density 24.01801
#
# number of rings (size 3 to 8) (size 9 to 14) (size 15 to 20)
#    0.000    0.571    1.429    3.429   18.000    0.000 
#    0.000    0.000    0.000    0.000    0.000    0.000 
#    0.000    0.000    0.000    0.000    0.000    0.000 
#
# Total GULP energy -157100.441556 kJ/mol
# GULP energy per Si atom -5610.730056 kJ/mol
# Density = 2.396334 g / cm^3
# Si number density = 24.018010 Si / 1000 Ang^3
#
#
#
# Elastic Constant Matrix: (Units=GPa)
#
#
# Indices 1 2 3 4 5 6 
#
# 1 36.2784 107.2210 42.0694 0.0000 0.0000 0.0000
# 2 107.2210 36.2745 42.0675 0.0000 0.0000 0.0000
# 3 42.0694 42.0675 131.0098 0.0000 0.0000 0.0000
# 4 0.0000 0.0000 0.0000 37.0400 0.0000 0.0000
# 5 0.0000 0.0000 0.0000 0.0000 37.0408 0.0000
# 6 0.0000 0.0000 0.0000 0.0000 0.0000 36.6849
#
#
#
# Elastic Compliance Matrix: (Units=1/GPa)
#
#
# Indices 1 2 3 4 5 6 
#
# 1 -0.002755 0.011340 -0.002757 0.000000 0.000000 0.000000
# 2 0.011340 -0.002755 -0.002757 0.000000 0.000000 0.000000
# 3 -0.002757 -0.002757 0.009403 0.000000 0.000000 0.000000
# 4 0.000000 0.000000 0.000000 0.026998 0.000000 0.000000
# 5 0.000000 0.000000 0.000000 0.000000 0.026997 0.000000
# 6 0.000000 0.000000 0.000000 0.000000 0.000000 0.027259
#
#
# Mechanical properties :
#
#
# Convention : Reuss Voigt Hill
#
# Bulk Modulus (GPa) = 64.32242 65.14204 64.73223
# Shear Modulus (GPa) = 63.55176 22.96678 43.25927
#
# Velocity S-wave (km/s) = 5.14951 3.09565 4.24856
# Velocity P-wave (km/s) = 7.88642 6.32127 7.14682
#
# Compressibility (1/GPa) = 0.01554668
#
# Stress axis : x y z
#
# Youngs Moduli (GPa) = -362.97310 -362.93096 106.34380
#
# Poissons Ratio (x) = 4.11575 0.29316
# Poissons Ratio (y) = 4.11623 0.29317
# Poissons Ratio (z) = -1.00061 -1.00053
#
# Static dielectric constant tensor:
#      x y z
#    x 1.911060 0.000000 0.000000 
#    y 0.000000 1.911060 0.000000 
#    z 0.000000 0.000000 1.884960 
# 
# From -- ./inp_files/2967.got.cif
#   From: 2010.05.17/outbox.cif.g08.bks.cpg/sg92_2_cif.got.tgz:2967.got - 2010.06.03 19:35:17.
