data_PCOD9549486
_publ_section_title
;
Structure prediction by ZEFSAII (Michael W. Deem and Ramdas Pophale) SiO2 
 PCOD9549486
Probable space group: P 41 21 2
;
_chemical_formula_sum "Si O2"
_cell_formula_units_Z 40
_cell_length_a 14.256611
_cell_length_b 14.256611
_cell_length_c 7.953093
_cell_angle_alpha 90.000000
_cell_angle_beta 90.000000
_cell_angle_gamma 90.000000
_cell_volume 1616.473765
_symmetry_space_group_name_H-M "P 41 21 2"
_symmetry_group_IT_number 92
_symmetry_cell_setting 'tetragonal'
loop_
_space_group_symop_operation_xyz
x,y,z
1/2-y,1/2+x,1/4+z
-x,-y,1/2+z
1/2+y,1/2-x,3/4+z
1/2+x,1/2-y,3/4-z
1/2-x,1/2+y,1/4-z
y,x,-z
-y,-x,1/2-z
loop_
_atom_site_type_symbol
_atom_site_label
_atom_site_fract_x
_atom_site_fract_y
_atom_site_fract_z
Si Si1 0.436460 0.682557 0.883216
Si Si2 0.738480 0.045365 0.654031
Si Si3 0.628023 0.690267 0.754889
Si Si4 0.899252 0.431081 0.083297
Si Si5 0.266136 0.670973 0.085112
O O1 0.386251 0.613750 0.750000
O O2 0.547188 0.670766 0.887698
O O3 0.423025 0.793235 0.852718
O O4 0.376127 0.662672 0.047445
O O5 0.760128 0.073486 0.846891
O O6 0.823712 0.094254 0.553680
O O7 0.646258 0.084856 0.562736
O O8 0.729662 0.933358 0.644660
O O9 0.707582 0.767080 0.797665
O O10 0.970588 0.415897 0.237091
O O11 0.264374 0.735627 0.250000
#
# Coordination Sequence:
#
# PCOD9549486 Si02
#       5
#     8   8   8   8   8
#     4  12  27  47  74 112 147 194 251 310 376 446
#     4  11  23  46  74 104 144 197 243 298 378 451
#     4  11  24  46  75 106 149 197 243 307 376 444
#     4  12  29  46  72 113 145 195 254 310 385 454
#     4  12  24  49  75 104 153 199 245 308 376 454
#
# _framework density 24.74522
#
# number of rings (size 3 to 8) (size 9 to 14) (size 15 to 20)
#    0.000    0.400    6.000    2.400    8.400    0.800 
#    0.000    2.000    0.000    0.000    0.000    0.000 
#    0.000    0.000    0.000    0.000    0.000    0.000 
#
# Total GULP energy -223911.388843 kJ/mol
# GULP energy per Si atom -5597.784721 kJ/mol
# Density = 2.468890 g / cm^3
# Si number density = 24.745220 Si / 1000 Ang^3
#
#
#
# Elastic Constant Matrix: (Units=GPa)
#
#
# Indices 1 2 3 4 5 6 
#
# 1 236.0773 -51.8953 15.3580 0.0000 0.0000 0.0000
# 2 -51.8953 236.0794 15.3600 0.0000 0.0000 0.0000
# 3 15.3580 15.3600 53.2271 0.0000 0.0000 0.0000
# 4 0.0000 0.0000 0.0000 29.2773 0.0000 0.0000
# 5 0.0000 0.0000 0.0000 0.0000 29.2766 0.0000
# 6 0.0000 0.0000 0.0000 0.0000 0.0000 30.7344
#
#
#
# Elastic Compliance Matrix: (Units=1/GPa)
#
#
# Indices 1 2 3 4 5 6 
#
# 1 0.004588 0.001116 -0.001646 0.000000 0.000000 0.000000
# 2 0.001116 0.004588 -0.001646 0.000000 0.000000 0.000000
# 3 -0.001646 -0.001646 0.019737 0.000000 0.000000 0.000000
# 4 0.000000 0.000000 0.000000 0.034156 0.000000 0.000000
# 5 0.000000 0.000000 0.000000 0.000000 0.034157 0.000000
# 6 0.000000 0.000000 0.000000 0.000000 0.000000 0.032537
#
#
# Mechanical properties :
#
#
# Convention : Reuss Voigt Hill
#
# Bulk Modulus (GPa) = 40.71413 53.66991 47.19202
# Shear Modulus (GPa) = 35.13630 54.29508 44.71569
#
# Velocity S-wave (km/s) = 3.77227 4.68927 4.25555
# Velocity P-wave (km/s) = 5.95504 7.14529 6.57714
#
# Compressibility (1/GPa) = 0.02456150
#
# Stress axis : x y z
#
# Youngs Moduli (GPa) = 217.94936 217.95027 50.66547
#
# Poissons Ratio (x) = -0.24316 0.08339
# Poissons Ratio (y) = -0.24316 0.08339
# Poissons Ratio (z) = 0.35871 0.35874
#
# Static dielectric constant tensor:
#      x y z
#    x 1.925210 0.000000 0.000000 
#    y 0.000000 1.925210 0.000000 
#    z 0.000000 0.000000 2.056540 
# 
# From -- ./inp_files/1301.got.cif
#   From: 2010.05.17/outbox.cif.g08.bks.cpg/sg92_1_cif.got.tgz:1301.got - 2010.06.03 19:35:17.
