data_PCOD9549750
_publ_section_title
;
Structure prediction by ZEFSAII (Michael W. Deem and Ramdas Pophale) SiO2 
 PCOD9549750
Probable space group: P 42 2 2
;
_chemical_formula_sum "Si O2"
_cell_formula_units_Z 40
_cell_length_a 14.215150
_cell_length_b 14.215150
_cell_length_c 11.872748
_cell_angle_alpha 90.000000
_cell_angle_beta 90.000000
_cell_angle_gamma 90.000000
_cell_volume 2399.132000
_symmetry_space_group_name_H-M "P 42 2 2"
_symmetry_group_IT_number 93
_symmetry_cell_setting 'tetragonal'
loop_
_space_group_symop_operation_xyz
x,y,z
-y,x,1/2+z
-x,-y,z
y,-x,1/2+z
x,-y,-z
-x,y,-z
y,x,1/2-z
-y,-x,1/2-z
loop_
_atom_site_type_symbol
_atom_site_label
_atom_site_fract_x
_atom_site_fract_y
_atom_site_fract_z
Si Si1 0.175411 0.324023 0.217787
Si Si2 0.894001 0.827668 0.035653
Si Si3 0.727677 0.144556 0.302388
Si Si4 0.108231 0.486141 0.865945
Si Si5 0.974176 0.748792 0.376506
O O1 0.272677 0.272677 0.250000
O O2 0.124451 0.258238 0.122741
O O3 0.174676 0.431511 0.180810
O O4 0.105952 0.315458 0.323000
O O5 0.845760 0.918365 0.093213
O O6 0.856609 0.789084 0.916621
O O7 0.000000 0.848177 0.000000
O O8 0.756293 0.243708 0.250000
O O9 0.618966 0.135413 0.332731
O O10 0.754201 0.059640 0.213998
O O11 0.000000 0.500000 0.827261
O O12 0.108105 0.500000 0.000000
O O13 0.000000 0.711870 0.500000
#
# Coordination Sequence:
#
# PCOD9549750 Si02
#       5
#     8   8   8   8   8
#     4  10  21  37  59  86 115 149 197 248 296 346
#     4  11  20  35  56  80 114 160 202 237 278 348
#     4  12  23  38  57  86 125 151 198 252 295 350
#     4  11  20  36  65  92 109 151 210 251 286 343
#     4  11  22  35  51  79 120 160 190 233 298 343
#
# _framework density 16.672695000000001
#
# number of rings (size 3 to 8) (size 9 to 14) (size 15 to 20)
#    0.000    1.000    8.000    0.000    0.000    0.400 
#    0.000    3.000    0.000    0.600    0.000    1.400 
#    0.000    0.000    0.000    0.000    0.000    0.000 
#
# Total GULP energy -222771.668295 kJ/mol
# GULP energy per Si atom -5569.291707 kJ/mol
# Density = 1.663475 g / cm^3
# Si number density = 16.672695 Si / 1000 Ang^3
#
#
#
# Elastic Constant Matrix: (Units=GPa)
#
#
# Indices 1 2 3 4 5 6 
#
# 1 86.4053 59.7085 26.6893 0.0000 0.0000 0.0000
# 2 59.7085 86.4014 26.6880 0.0000 0.0000 0.0000
# 3 26.6893 26.6880 88.3571 0.0000 0.0000 0.0000
# 4 0.0000 0.0000 0.0000 18.3665 0.0000 0.0000
# 5 0.0000 0.0000 0.0000 0.0000 18.3668 0.0000
# 6 0.0000 0.0000 0.0000 0.0000 0.0000 15.3363
#
#
#
# Elastic Compliance Matrix: (Units=1/GPa)
#
#
# Indices 1 2 3 4 5 6 
#
# 1 0.022576 -0.014884 -0.002324 0.000000 0.000000 0.000000
# 2 -0.014884 0.022577 -0.002324 0.000000 0.000000 0.000000
# 3 -0.002324 -0.002324 0.012721 0.000000 0.000000 0.000000
# 4 0.000000 0.000000 0.000000 0.054447 0.000000 0.000000
# 5 0.000000 0.000000 0.000000 0.000000 0.054446 0.000000
# 6 0.000000 0.000000 0.000000 0.000000 0.000000 0.065205
#
#
# Mechanical properties :
#
#
# Convention : Reuss Voigt Hill
#
# Bulk Modulus (GPa) = 53.15581 54.14839 53.65210
# Shear Modulus (GPa) = 18.03065 20.28579 19.15822
#
# Velocity S-wave (km/s) = 3.29210 3.49192 3.39348
# Velocity P-wave (km/s) = 6.81188 6.98611 6.89955
#
# Compressibility (1/GPa) = 0.01881262
#
# Stress axis : x y z
#
# Youngs Moduli (GPa) = 44.29437 44.29261 78.60727
#
# Poissons Ratio (x) = 0.65924 0.18267
# Poissons Ratio (y) = 0.65927 0.18265
# Poissons Ratio (z) = 0.10293 0.10292
#
# Static dielectric constant tensor:
#      x y z
#    x 1.574100 0.000000 0.000000 
#    y 0.000000 1.574100 0.000000 
#    z 0.000000 0.000000 1.634620 
# 
# From -- ./inp_files/3246.got.cif
#   From: 2010.05.17/outbox.cif.g08.bks.cpg/sg93_2_cif.got.tgz:3246.got - 2010.06.03 19:38:44.
