data_PCOD9549882
_publ_section_title
;
Structure prediction by ZEFSAII (Michael W. Deem and Ramdas Pophale) SiO2 
 PCOD9549882
Probable space group: P 42 2 2
;
_chemical_formula_sum "Si O2"
_cell_formula_units_Z 24
_cell_length_a 10.405451
_cell_length_b 10.405451
_cell_length_c 8.644247
_cell_angle_alpha 90.000000
_cell_angle_beta 90.000000
_cell_angle_gamma 90.000000
_cell_volume 935.942104
_symmetry_space_group_name_H-M "P 42 2 2"
_symmetry_group_IT_number 93
_symmetry_cell_setting 'tetragonal'
loop_
_space_group_symop_operation_xyz
x,y,z
-y,x,1/2+z
-x,-y,z
y,-x,1/2+z
x,-y,-z
-x,y,-z
y,x,1/2-z
-y,-x,1/2-z
loop_
_atom_site_type_symbol
_atom_site_label
_atom_site_fract_x
_atom_site_fract_y
_atom_site_fract_z
Si Si1 0.624211 0.721009 0.601575
Si Si2 0.233751 0.966986 0.324294
Si Si3 0.125226 0.644440 0.575428
O O1 0.500000 0.711937 0.500000
O O2 0.627497 0.627497 0.750000
O O3 0.652268 0.860762 0.673049
O O4 0.742996 0.695242 0.489340
O O5 0.110929 0.889072 0.250000
O O6 0.198169 0.000000 0.500000
O O7 0.306655 0.090553 0.247712
O O8 0.124642 0.500000 0.500000
O O9 0.000000 0.709919 0.500000
#
# Coordination Sequence:
#
# PCOD9549882 Si02
#       3
#     8   8   8
#     4  11  26  51  83 127 167 223 289 353 430 508
#     4  11  26  52  81 122 166 221 289 353 437 514
#     4  11  24  50  81 114 165 222 287 351 421 516
#
# _framework density 25.642613000000001
#
# number of rings (size 3 to 8) (size 9 to 14) (size 15 to 20)
#    0.000    1.000    6.667    0.000    4.667    2.667 
#    6.000   11.667    0.000    2.000    0.000    0.000 
#    0.000    0.000    0.000    0.000    0.000    0.000 
#
# Total GULP energy -133955.146033 kJ/mol
# GULP energy per Si atom -5581.464418 kJ/mol
# Density = 2.558425 g / cm^3
# Si number density = 25.642613 Si / 1000 Ang^3
#
#
#
# Elastic Constant Matrix: (Units=GPa)
#
#
# Indices 1 2 3 4 5 6 
#
# 1 148.6841 86.5032 94.2167 0.0000 0.0000 0.0000
# 2 86.5032 148.6827 94.2162 0.0000 0.0000 0.0000
# 3 94.2167 94.2162 203.2402 0.0000 0.0000 0.0000
# 4 0.0000 0.0000 0.0000 46.2110 0.0000 0.0000
# 5 0.0000 0.0000 0.0000 0.0000 46.2111 0.0000
# 6 0.0000 0.0000 0.0000 0.0000 0.0000 13.0767
#
#
#
# Elastic Compliance Matrix: (Units=1/GPa)
#
#
# Indices 1 2 3 4 5 6 
#
# 1 0.011423 -0.004659 -0.003136 0.000000 0.000000 0.000000
# 2 -0.004659 0.011423 -0.003136 0.000000 0.000000 0.000000
# 3 -0.003136 -0.003136 0.007828 0.000000 0.000000 0.000000
# 4 0.000000 0.000000 0.000000 0.021640 0.000000 0.000000
# 5 0.000000 0.000000 0.000000 0.000000 0.021640 0.000000
# 6 0.000000 0.000000 0.000000 0.000000 0.000000 0.076472
#
#
# Mechanical properties :
#
#
# Convention : Reuss Voigt Hill
#
# Bulk Modulus (GPa) = 113.46584 116.71991 115.09287
# Shear Modulus (GPa) = 28.53480 36.14450 32.33965
#
# Velocity S-wave (km/s) = 3.33947 3.75847 3.55515
# Velocity P-wave (km/s) = 7.69509 8.02817 7.86339
#
# Compressibility (1/GPa) = 0.00881323
#
# Stress axis : x y z
#
# Youngs Moduli (GPa) = 87.54074 87.53995 127.75344
#
# Poissons Ratio (x) = 0.40785 0.40060
# Poissons Ratio (y) = 0.40785 0.40060
# Poissons Ratio (z) = 0.27451 0.27450
#
# Static dielectric constant tensor:
#      x y z
#    x 2.052990 0.000000 0.000000 
#    y 0.000000 2.052990 0.000000 
#    z 0.000000 0.000000 2.475870 
# 
# From -- ./inp_files/1279.got.cif
#   From: 2010.05.17/outbox.cif.g08.bks.cpg/sg93_1_cif.got.tgz:1279.got - 2010.06.03 19:38:44.
