data_PCOD9549379
_publ_section_title
;
Structure prediction by ZEFSAII (Michael W. Deem and Ramdas Pophale) SiO2 
 PCOD9549379
Probable space group: P 41 21 2
;
_chemical_formula_sum "Si O2"
_cell_formula_units_Z 24
_cell_length_a 6.662708
_cell_length_b 6.662708
_cell_length_c 20.569351
_cell_angle_alpha 90.000000
_cell_angle_beta 90.000000
_cell_angle_gamma 90.000000
_cell_volume 913.108004
_symmetry_space_group_name_H-M "P 41 21 2"
_symmetry_group_IT_number 92
_symmetry_cell_setting 'tetragonal'
loop_
_space_group_symop_operation_xyz
x,y,z
1/2-y,1/2+x,1/4+z
-x,-y,1/2+z
1/2+y,1/2-x,3/4+z
1/2+x,1/2-y,3/4-z
1/2-x,1/2+y,1/4-z
y,x,-z
-y,-x,1/2-z
loop_
_atom_site_type_symbol
_atom_site_label
_atom_site_fract_x
_atom_site_fract_y
_atom_site_fract_z
Si Si1 0.302333 0.621542 0.474820
Si Si2 0.766603 0.943196 0.938579
Si Si3 0.098557 0.781305 0.596117
O O1 0.342015 0.852914 0.456792
O O2 0.215726 0.530725 0.407960
O O3 0.179829 0.313215 0.622714
O O4 0.143463 0.645099 0.533775
O O5 0.002006 0.988105 0.923513
O O6 0.792342 0.792342 0.000000
O O7 0.002331 0.997670 0.750000
#
# Coordination Sequence:
#
# PCOD9549379 Si02
#       3
#     8   8   8
#     4  11  24  49  81 118 163 221 275 345 413 495
#     4  10  24  43  78 111 155 208 266 336 410 482
#     4  11  23  49  78 116 166 210 280 345 414 490
#
# _framework density 26.283860000000001
#
# number of rings (size 3 to 8) (size 9 to 14) (size 15 to 20)
#    0.000    1.333    3.333    1.000    0.000    2.667 
#    6.000    0.000    0.000    0.000    0.000    0.000 
#    0.000    0.000    0.000    0.000    0.000    0.000 
#
# Total GULP energy -134307.313063 kJ/mol
# GULP energy per Si atom -5596.138044 kJ/mol
# Density = 2.622404 g / cm^3
# Si number density = 26.283860 Si / 1000 Ang^3
#
#
#
# Elastic Constant Matrix: (Units=GPa)
#
#
# Indices 1 2 3 4 5 6 
#
# 1 123.4813 97.6211 60.5246 0.0000 0.0000 0.0000
# 2 97.6211 123.4814 60.5248 0.0000 0.0000 0.0000
# 3 60.5246 60.5248 171.8875 0.0000 0.0000 0.0000
# 4 0.0000 0.0000 0.0000 49.8169 0.0000 0.0000
# 5 0.0000 0.0000 0.0000 0.0000 49.8171 0.0000
# 6 0.0000 0.0000 0.0000 0.0000 0.0000 30.4511
#
#
#
# Elastic Compliance Matrix: (Units=1/GPa)
#
#
# Indices 1 2 3 4 5 6 
#
# 1 0.022136 -0.016533 -0.001973 0.000000 0.000000 0.000000
# 2 -0.016533 0.022136 -0.001973 0.000000 0.000000 0.000000
# 3 -0.001973 -0.001973 0.007207 0.000000 0.000000 0.000000
# 4 0.000000 0.000000 0.000000 0.020074 0.000000 0.000000
# 5 0.000000 0.000000 0.000000 0.000000 0.020073 0.000000
# 6 0.000000 0.000000 0.000000 0.000000 0.000000 0.032840
#
#
# Mechanical properties :
#
#
# Convention : Reuss Voigt Hill
#
# Bulk Modulus (GPa) = 95.04429 95.13235 95.08832
# Shear Modulus (GPa) = 29.59787 39.36233 34.48010
#
# Velocity S-wave (km/s) = 3.35936 3.87406 3.62586
# Velocity P-wave (km/s) = 7.16144 7.50226 7.33383
#
# Compressibility (1/GPa) = 0.01052141
#
# Stress axis : x y z
#
# Youngs Moduli (GPa) = 45.17500 45.17499 138.75141
#
# Poissons Ratio (x) = 0.74689 0.27374
# Poissons Ratio (y) = 0.74689 0.27374
# Poissons Ratio (z) = 0.08912 0.08913
#
# Static dielectric constant tensor:
#      x y z
#    x 2.134940 0.000000 0.000000 
#    y 0.000000 2.134940 0.000000 
#    z 0.000000 0.000000 2.063780 
# 
# From -- ./inp_files/2882.got.cif
#   From: 2010.05.17/outbox.cif.g08.bks.cpg/sg92_2_cif.got.tgz:2882.got - 2010.06.03 19:35:17.
