data_PCOD9549832
_publ_section_title
;
Structure prediction by ZEFSAII (Michael W. Deem and Ramdas Pophale) SiO2 
 PCOD9549832
Probable space group: P 42 2 2
;
_chemical_formula_sum "Si O2"
_cell_formula_units_Z 14
_cell_length_a 5.063194
_cell_length_b 5.063194
_cell_length_c 22.019790
_cell_angle_alpha 90.000000
_cell_angle_beta 90.000000
_cell_angle_gamma 90.000000
_cell_volume 564.497872
_symmetry_space_group_name_H-M "P 42 2 2"
_symmetry_group_IT_number 93
_symmetry_cell_setting 'tetragonal'
loop_
_space_group_symop_operation_xyz
x,y,z
-y,x,1/2+z
-x,-y,z
y,-x,1/2+z
x,-y,-z
-x,y,-z
y,x,1/2-z
-y,-x,1/2-z
loop_
_atom_site_type_symbol
_atom_site_label
_atom_site_fract_x
_atom_site_fract_y
_atom_site_fract_z
Si Si1 0.500000 0.000000 0.083543
Si Si2 0.241025 0.683172 0.818413
Si Si3 0.500000 0.500000 0.000000
O O1 0.279650 0.103159 0.129569
O O2 0.600267 0.264081 0.046596
O O3 0.500000 0.500000 0.817727
O O4 0.209805 0.790196 0.750000
O O5 0.000000 0.500000 0.833187
#
# Coordination Sequence:
#
# PCOD9549832 Si02
#       3
#     4   8   2
#     4  11  22  48  76 112 160 211 284 322 416 485
#     4  11  24  45  76 116 156 203 262 342 413 478
#     4  10  24  46  80 106 166 222 266 336 390 502
#
# _framework density 24.800799000000001
#
# number of rings (size 3 to 8) (size 9 to 14) (size 15 to 20)
#    0.000    1.143    5.714    0.000    0.000    2.286 
#    0.000    1.429   12.571    0.000    0.000    0.000 
#    0.000    0.000    0.000    0.000    0.000    0.000 
#
# Total GULP energy -78010.797522 kJ/mol
# GULP energy per Si atom -5572.199823 kJ/mol
# Density = 2.474435 g / cm^3
# Si number density = 24.800799 Si / 1000 Ang^3
#
#
#
# Elastic Constant Matrix: (Units=GPa)
#
#
# Indices 1 2 3 4 5 6 
#
# 1 178.9161 95.8258 72.0547 0.0000 0.0000 0.0000
# 2 95.8258 178.9145 72.0545 0.0000 0.0000 0.0000
# 3 72.0547 72.0545 200.6730 0.0000 0.0000 0.0000
# 4 0.0000 0.0000 0.0000 -16.7166 0.0000 0.0000
# 5 0.0000 0.0000 0.0000 0.0000 -16.7165 0.0000
# 6 0.0000 0.0000 0.0000 0.0000 0.0000 61.2833
#
#
#
# Elastic Compliance Matrix: (Units=1/GPa)
#
#
# Indices 1 2 3 4 5 6 
#
# 1 0.008260 -0.003775 -0.001610 0.000000 0.000000 0.000000
# 2 -0.003775 0.008260 -0.001610 0.000000 0.000000 0.000000
# 3 -0.001610 -0.001610 0.006140 0.000000 0.000000 0.000000
# 4 0.000000 0.000000 0.000000 -0.059821 0.000000 0.000000
# 5 0.000000 0.000000 0.000000 0.000000 -0.059821 0.000000
# 6 0.000000 0.000000 0.000000 0.000000 0.000000 0.016318
#
#
# Mechanical properties :
#
#
# Convention : Reuss Voigt Hill
#
# Bulk Modulus (GPa) = 115.37252 115.37485 115.37369
# Shear Modulus (GPa) = -78.38920 26.80793 -25.79064
#
# Velocity S-wave (km/s) = -5.62816 3.29132 -3.22826
# Velocity P-wave (km/s) = 2.09423 7.81443 5.72063
#
# Compressibility (1/GPa) = 0.00866757
#
# Stress axis : x y z
#
# Youngs Moduli (GPa) = 121.06889 121.06777 162.87841
#
# Poissons Ratio (x) = 0.45708 0.26226
# Poissons Ratio (y) = 0.45709 0.26226
# Poissons Ratio (z) = 0.19494 0.19494
#
# Static dielectric constant tensor:
#      x y z
#    x 1.954010 0.000000 0.000000 
#    y 0.000000 1.954010 0.000000 
#    z 0.000000 0.000000 2.099660 
# 
# From -- ./inp_files/5573.got.cif
#   From: 2010.05.17/outbox.cif.g08.bks.cpg/sg93_3_cif.got.tgz:5573.got - 2010.06.03 19:38:44.
