data_PCOD9549530
_publ_section_title
;
Structure prediction by ZEFSAII (Michael W. Deem and Ramdas Pophale) SiO2 
 PCOD9549530
Probable space group: P 41 21 2
;
_chemical_formula_sum "Si O2"
_cell_formula_units_Z 60
_cell_length_a 12.018147
_cell_length_b 12.018147
_cell_length_c 19.215916
_cell_angle_alpha 90.000000
_cell_angle_beta 90.000000
_cell_angle_gamma 90.000000
_cell_volume 2775.467302
_symmetry_space_group_name_H-M "P 41 21 2"
_symmetry_group_IT_number 92
_symmetry_cell_setting 'tetragonal'
loop_
_space_group_symop_operation_xyz
x,y,z
1/2-y,1/2+x,1/4+z
-x,-y,1/2+z
1/2+y,1/2-x,3/4+z
1/2+x,1/2-y,3/4-z
1/2-x,1/2+y,1/4-z
y,x,-z
-y,-x,1/2-z
loop_
_atom_site_type_symbol
_atom_site_label
_atom_site_fract_x
_atom_site_fract_y
_atom_site_fract_z
Si Si1 0.649455 0.874621 0.756645
Si Si2 0.219732 0.275311 0.597472
Si Si3 0.874333 0.155021 0.561256
Si Si4 0.897416 0.544271 0.015449
Si Si5 0.938650 0.756741 0.481831
Si Si6 0.392804 0.607197 0.750000
Si Si7 0.904081 0.254002 0.706734
Si Si8 0.943279 0.339658 0.112775
O O1 0.671139 0.844430 0.837214
O O2 0.686829 0.766345 0.714570
O O3 0.520419 0.899483 0.737753
O O4 0.718590 0.987219 0.748637
O O5 0.194059 0.364120 0.536868
O O6 0.167524 0.161075 0.567135
O O7 0.343805 0.246725 0.621373
O O8 0.924405 0.187403 0.635875
O O9 0.977010 0.130996 0.509164
O O10 0.796240 0.047935 0.558868
O O11 0.896054 0.447411 0.072302
O O12 0.873235 0.505496 0.936911
O O13 0.860559 0.860559 0.500000
O O14 0.870219 0.660032 0.442850
O O15 0.972819 0.709992 0.557119
O O16 0.818873 0.181128 0.750000
#
# Coordination Sequence:
#
# PCOD9549530 Si02
#       8
#     8   8   8   8   8   4   8   8
#     4  12  22  43  72 104 136 190 240 299 371 441
#     4  12  23  42  68 110 138 179 241 308 376 428
#     4  12  25  44  77 101 141 199 245 310 375 449
#     4  12  24  42  71 106 144 183 247 309 364 446
#     4  11  26  47  69 102 147 197 244 300 376 451
#     4  12  22  42  72 104 144 182 238 308 374 432
#     4  11  27  46  70 106 147 193 255 309 362 453
#     4  12  25  42  72 103 145 191 243 305 371 441
#
# _framework density 21.617979999999999
#
# number of rings (size 3 to 8) (size 9 to 14) (size 15 to 20)
#    0.000    0.267    8.667    0.000    1.867    2.133 
#    0.000    0.000    0.000    0.000    0.000    0.000 
#    0.000    0.000    0.000    0.000    0.000    0.000 
#
# Total GULP energy -335474.649361 kJ/mol
# GULP energy per Si atom -5591.244156 kJ/mol
# Density = 2.156878 g / cm^3
# Si number density = 21.617980 Si / 1000 Ang^3
#
#
#
# Elastic Constant Matrix: (Units=GPa)
#
#
# Indices 1 2 3 4 5 6 
#
# 1 85.8476 34.7871 16.0098 0.0000 0.0000 0.0000
# 2 34.7871 85.8463 16.0096 0.0000 0.0000 0.0000
# 3 16.0098 16.0096 78.1154 0.0000 0.0000 0.0000
# 4 0.0000 0.0000 0.0000 34.1446 0.0000 0.0000
# 5 0.0000 0.0000 0.0000 0.0000 34.1449 0.0000
# 6 0.0000 0.0000 0.0000 0.0000 0.0000 27.2345
#
#
#
# Elastic Compliance Matrix: (Units=1/GPa)
#
#
# Indices 1 2 3 4 5 6 
#
# 1 0.014176 -0.005409 -0.001797 0.000000 0.000000 0.000000
# 2 -0.005409 0.014176 -0.001797 0.000000 0.000000 0.000000
# 3 -0.001797 -0.001797 0.013538 0.000000 0.000000 0.000000
# 4 0.000000 0.000000 0.000000 0.029287 0.000000 0.000000
# 5 0.000000 0.000000 0.000000 0.000000 0.029287 0.000000
# 6 0.000000 0.000000 0.000000 0.000000 0.000000 0.036718
#
#
# Mechanical properties :
#
#
# Convention : Reuss Voigt Hill
#
# Bulk Modulus (GPa) = 41.86871 42.60246 42.23559
# Shear Modulus (GPa) = 30.64700 31.30499 30.97599
#
# Velocity S-wave (km/s) = 3.76927 3.80952 3.78945
# Velocity P-wave (km/s) = 6.19296 6.25297 6.22304
#
# Compressibility (1/GPa) = 0.02388418
#
# Stress axis : x y z
#
# Youngs Moduli (GPa) = 70.54409 70.54303 73.86600
#
# Poissons Ratio (x) = 0.38158 0.13271
# Poissons Ratio (y) = 0.38159 0.13271
# Poissons Ratio (z) = 0.12674 0.12674
#
# Static dielectric constant tensor:
#      x y z
#    x 1.811940 0.000000 0.000000 
#    y 0.000000 1.811950 0.000000 
#    z 0.000000 0.000000 1.794370 
# 
# From -- ./inp_files/3617.got.cif
#   From: 2010.05.17/outbox.cif.g08.bks.cpg/sg92_2_cif.got.tgz:3617.got - 2010.06.03 19:35:17.
