data_PCOD9549461
_publ_section_title
;
Structure prediction by ZEFSAII (Michael W. Deem and Ramdas Pophale) SiO2 
 PCOD9549461
Probable space group: P 41 21 2
;
_chemical_formula_sum "Si O2"
_cell_formula_units_Z 32
_cell_length_a 12.614093
_cell_length_b 12.614093
_cell_length_c 9.121064
_cell_angle_alpha 90.000000
_cell_angle_beta 90.000000
_cell_angle_gamma 90.000000
_cell_volume 1451.301220
_symmetry_space_group_name_H-M "P 41 21 2"
_symmetry_group_IT_number 92
_symmetry_cell_setting 'tetragonal'
loop_
_space_group_symop_operation_xyz
x,y,z
1/2-y,1/2+x,1/4+z
-x,-y,1/2+z
1/2+y,1/2-x,3/4+z
1/2+x,1/2-y,3/4-z
1/2-x,1/2+y,1/4-z
y,x,-z
-y,-x,1/2-z
loop_
_atom_site_type_symbol
_atom_site_label
_atom_site_fract_x
_atom_site_fract_y
_atom_site_fract_z
Si Si1 0.788920 0.211081 0.250000
Si Si2 0.652963 0.317154 0.009301
Si Si3 0.796696 0.019844 0.408048
Si Si4 0.874023 0.480726 0.621338
Si Si5 0.038809 0.038809 0.500000
O O1 0.611509 0.426049 0.388336
O O2 0.914367 0.227981 0.239042
O O3 0.696840 0.397476 0.887792
O O4 0.600090 0.211603 0.946157
O O5 0.742519 0.272270 0.113758
O O6 0.706443 0.046088 0.525058
O O7 0.913524 0.051363 0.465891
O O8 0.929145 0.543048 0.487053
#
# Coordination Sequence:
#
# PCOD9549461 Si02
#       5
#     4   8   8   8   4
#     4  11  26  40  78 103 152 186 250 311 390 446
#     4  11  25  46  74 116 146 200 254 314 387 452
#     4  12  23  47  74 110 144 196 254 320 377 458
#     4  12  30  49  73 104 159 206 257 310 386 465
#     4  11  22  44  78 113 150 180 258 323 374 442
#
# _framework density 22.049178000000001
#
# number of rings (size 3 to 8) (size 9 to 14) (size 15 to 20)
#    0.000    0.500    5.000    1.500    7.000    0.000 
#    0.000    0.000    0.000    0.000    0.000    0.000 
#    0.000    0.000    0.000    0.000    0.000    0.000 
#
# Total GULP energy -178631.496573 kJ/mol
# GULP energy per Si atom -5582.234268 kJ/mol
# Density = 2.199899 g / cm^3
# Si number density = 22.049178 Si / 1000 Ang^3
#
#
#
# Elastic Constant Matrix: (Units=GPa)
#
#
# Indices 1 2 3 4 5 6 
#
# 1 113.7026 74.1358 59.3091 0.0000 0.0000 0.0000
# 2 74.1358 113.7023 59.3090 0.0000 0.0000 0.0000
# 3 59.3091 59.3090 105.2907 0.0000 0.0000 0.0000
# 4 0.0000 0.0000 0.0000 36.3351 0.0000 0.0000
# 5 0.0000 0.0000 0.0000 0.0000 36.3349 0.0000
# 6 0.0000 0.0000 0.0000 0.0000 0.0000 26.6982
#
#
#
# Elastic Compliance Matrix: (Units=1/GPa)
#
#
# Indices 1 2 3 4 5 6 
#
# 1 0.016768 -0.008505 -0.004654 0.000000 0.000000 0.000000
# 2 -0.008505 0.016768 -0.004654 0.000000 0.000000 0.000000
# 3 -0.004654 -0.004654 0.014741 0.000000 0.000000 0.000000
# 4 0.000000 0.000000 0.000000 0.027522 0.000000 0.000000
# 5 0.000000 0.000000 0.000000 0.000000 0.027522 0.000000
# 6 0.000000 0.000000 0.000000 0.000000 0.000000 0.037456
#
#
# Mechanical properties :
#
#
# Convention : Reuss Voigt Hill
#
# Bulk Modulus (GPa) = 79.05583 79.80037 79.42810
# Shear Modulus (GPa) = 27.68214 29.20309 28.44262
#
# Velocity S-wave (km/s) = 3.54711 3.64325 3.59550
# Velocity P-wave (km/s) = 7.26004 7.34631 7.30330
#
# Compressibility (1/GPa) = 0.01264929
#
# Stress axis : x y z
#
# Youngs Moduli (GPa) = 59.63614 59.63594 67.83765
#
# Poissons Ratio (x) = 0.50723 0.31574
# Poissons Ratio (y) = 0.50723 0.31575
# Poissons Ratio (z) = 0.27757 0.27757
#
# Static dielectric constant tensor:
#      x y z
#    x 1.826890 0.000000 0.000000 
#    y 0.000000 1.826890 0.000000 
#    z 0.000000 0.000000 2.024690 
# 
# From -- ./inp_files/1949.got.cif
#   From: 2010.05.17/outbox.cif.g08.bks.cpg/sg92_1_cif.got.tgz:1949.got - 2010.06.03 19:35:17.
