data_PCOD9549172
_publ_section_title
;
Structure prediction by ZEFSAII (Michael W. Deem and Ramdas Pophale) SiO2 
 PCOD9549172
Probable space group: P 41 21 2
;
_chemical_formula_sum "Si O2"
_cell_formula_units_Z 40
_cell_length_a 13.367807
_cell_length_b 13.367807
_cell_length_c 10.101580
_cell_angle_alpha 90.000000
_cell_angle_beta 90.000000
_cell_angle_gamma 90.000000
_cell_volume 1805.134810
_symmetry_space_group_name_H-M "P 41 21 2"
_symmetry_group_IT_number 92
_symmetry_cell_setting 'tetragonal'
loop_
_space_group_symop_operation_xyz
x,y,z
1/2-y,1/2+x,1/4+z
-x,-y,1/2+z
1/2+y,1/2-x,3/4+z
1/2+x,1/2-y,3/4-z
1/2-x,1/2+y,1/4-z
y,x,-z
-y,-x,1/2-z
loop_
_atom_site_type_symbol
_atom_site_label
_atom_site_fract_x
_atom_site_fract_y
_atom_site_fract_z
Si Si1 0.024690 0.196335 0.485753
Si Si2 0.063758 0.245645 0.774269
Si Si3 0.963203 0.132427 0.990386
Si Si4 0.095252 0.246921 0.200068
Si Si5 0.466477 0.079094 0.842178
O O1 0.107386 0.107386 0.500000
O O2 0.040733 0.258303 0.619762
O O3 0.048753 0.247436 0.346980
O O4 0.915562 0.144307 0.482778
O O5 0.166664 0.185538 0.798988
O O6 0.979841 0.176106 0.844380
O O7 0.052378 0.348387 0.852482
O O8 0.008717 0.209520 0.098191
O O9 0.040312 0.040312 0.000000
O O10 0.130064 0.357261 0.161455
O O11 0.491129 0.042938 0.696912
#
# Coordination Sequence:
#
# PCOD9549172 Si02
#       5
#     8   8   8   8   8
#     4   9  18  34  66 101 132 167 215 280 339 386
#     4  10  21  42  67  98 129 174 223 284 325 399
#     4   9  16  34  62  99 134 164 211 277 336 385
#     4  10  21  42  67  94 136 173 220 276 338 397
#     4  12  28  48  67  92 134 180 221 275 340 407
#
# _framework density 22.159009000000001
#
# number of rings (size 3 to 8) (size 9 to 14) (size 15 to 20)
#    0.000    2.000    2.000    1.200    2.800    4.800 
#    7.200    0.000    0.000    0.000    0.000    0.000 
#    0.000    0.000    0.000    0.000    0.000    0.000 
#
# Total GULP energy -223334.678854 kJ/mol
# GULP energy per Si atom -5583.366971 kJ/mol
# Density = 2.210857 g / cm^3
# Si number density = 22.159009 Si / 1000 Ang^3
#
#
#
# Elastic Constant Matrix: (Units=GPa)
#
#
# Indices 1 2 3 4 5 6 
#
# 1 63.5325 29.1268 24.9113 0.0000 0.0000 0.0000
# 2 29.1268 63.5325 24.9113 0.0000 0.0000 0.0000
# 3 24.9113 24.9113 115.6850 0.0000 0.0000 0.0000
# 4 0.0000 0.0000 0.0000 19.7094 0.0000 0.0000
# 5 0.0000 0.0000 0.0000 0.0000 19.7094 0.0000
# 6 0.0000 0.0000 0.0000 0.0000 0.0000 20.6642
#
#
#
# Elastic Compliance Matrix: (Units=1/GPa)
#
#
# Indices 1 2 3 4 5 6 
#
# 1 0.020635 -0.008430 -0.002628 0.000000 0.000000 0.000000
# 2 -0.008430 0.020635 -0.002628 0.000000 0.000000 0.000000
# 3 -0.002628 -0.002628 0.009776 0.000000 0.000000 0.000000
# 4 0.000000 0.000000 0.000000 0.050737 0.000000 0.000000
# 5 0.000000 0.000000 0.000000 0.000000 0.050737 0.000000
# 6 0.000000 0.000000 0.000000 0.000000 0.000000 0.048393
#
#
# Mechanical properties :
#
#
# Convention : Reuss Voigt Hill
#
# Bulk Modulus (GPa) = 42.24074 44.51655 43.37864
# Shear Modulus (GPa) = 21.17049 22.93662 22.05355
#
# Velocity S-wave (km/s) = 3.09429 3.22078 3.15817
# Velocity P-wave (km/s) = 5.64536 5.82790 5.73736
#
# Compressibility (1/GPa) = 0.02367383
#
# Stress axis : x y z
#
# Youngs Moduli (GPa) = 48.46092 48.46092 102.29020
#
# Poissons Ratio (x) = 0.40851 0.26885
# Poissons Ratio (y) = 0.40851 0.26885
# Poissons Ratio (z) = 0.12737 0.12737
#
# Static dielectric constant tensor:
#      x y z
#    x 1.823880 0.000000 0.000000 
#    y 0.000000 1.823880 0.000000 
#    z 0.000000 0.000000 1.803130 
# 
# From -- ./inp_files/1326.got.cif
#   From: 2010.05.17/outbox.cif.g08.bks.cpg/sg92_1_cif.got.tgz:1326.got - 2010.06.03 19:35:17.
