data_PCOD9549690
_publ_section_title
;
Structure prediction by ZEFSAII (Michael W. Deem and Ramdas Pophale) SiO2 
 PCOD9549690
Probable space group: P 42 2 2
;
_chemical_formula_sum "Si O2"
_cell_formula_units_Z 56
_cell_length_a 14.373235
_cell_length_b 14.373235
_cell_length_c 14.872642
_cell_angle_alpha 90.000000
_cell_angle_beta 90.000000
_cell_angle_gamma 90.000000
_cell_volume 3072.537391
_symmetry_space_group_name_H-M "P 42 2 2"
_symmetry_group_IT_number 93
_symmetry_cell_setting 'tetragonal'
loop_
_space_group_symop_operation_xyz
x,y,z
-y,x,1/2+z
-x,-y,z
y,-x,1/2+z
x,-y,-z
-x,y,-z
y,x,1/2-z
-y,-x,1/2-z
loop_
_atom_site_type_symbol
_atom_site_label
_atom_site_fract_x
_atom_site_fract_y
_atom_site_fract_z
Si Si1 0.391293 0.518203 0.608087
Si Si2 0.600433 0.734631 0.379423
Si Si3 0.104510 0.609876 0.520316
Si Si4 0.392895 0.882528 0.771626
Si Si5 0.785195 0.611570 0.919929
Si Si6 0.359714 0.243659 0.860876
Si Si7 0.610102 0.914934 0.726566
O O1 0.500000 0.500000 0.635263
O O2 0.387563 0.500000 0.500000
O O3 0.372954 0.626592 0.627461
O O4 0.310418 0.451693 0.648749
O O5 0.629375 0.798554 0.295726
O O6 0.488351 0.741017 0.393568
O O7 0.632034 0.777133 0.474878
O O8 0.098081 0.500000 0.500000
O O9 0.131959 0.626025 0.623473
O O10 0.185257 0.639632 0.453214
O O11 0.000000 0.647331 0.500000
O O12 0.503275 0.902499 0.759509
O O13 0.351590 0.982828 0.744207
O O14 0.723224 0.685254 0.868743
O O15 0.887453 0.611874 0.877828
O O16 0.344769 0.165589 0.786144
#
# Coordination Sequence:
#
# PCOD9549690 Si02
#       7
#     8   8   8   8   8   8   8
#     4  11  19  34  55  73 116 165 200 234 275 337
#     4  10  20  36  52  73 113 154 198 238 279 336
#     4  11  19  34  55  75 100 138 197 244 298 336
#     4  10  20  36  53  76  99 137 205 245 290 340
#     4  10  20  34  50  75 106 151 190 228 283 338
#     4  12  20  32  56  78 109 151 198 239 280 340
#     4  10  20  34  52  74 102 138 200 246 282 338
#
# _framework density 18.225978000000001
#
# number of rings (size 3 to 8) (size 9 to 14) (size 15 to 20)
#    0.000    1.429    5.714    2.571    0.000    0.571 
#    0.000   10.714    0.000    0.000    0.000    0.000 
#    0.000    0.000    0.000    3.857   32.571    1.857 
#
# Total GULP energy -312474.531666 kJ/mol
# GULP energy per Si atom -5579.902351 kJ/mol
# Density = 1.818449 g / cm^3
# Si number density = 18.225978 Si / 1000 Ang^3
#
#
#
# Elastic Constant Matrix: (Units=GPa)
#
#
# Indices 1 2 3 4 5 6 
#
# 1 68.5585 28.5938 47.7607 0.0000 0.0000 0.0000
# 2 28.5938 68.5585 47.7607 0.0000 0.0000 0.0000
# 3 47.7607 47.7607 121.9561 0.0000 0.0000 0.0000
# 4 0.0000 0.0000 0.0000 20.3087 0.0000 0.0000
# 5 0.0000 0.0000 0.0000 0.0000 20.3087 0.0000
# 6 0.0000 0.0000 0.0000 0.0000 0.0000 6.0582
#
#
#
# Elastic Compliance Matrix: (Units=1/GPa)
#
#
# Indices 1 2 3 4 5 6 
#
# 1 0.020880 -0.004142 -0.006555 0.000000 0.000000 0.000000
# 2 -0.004142 0.020880 -0.006555 0.000000 0.000000 0.000000
# 3 -0.006555 -0.006555 0.013334 0.000000 0.000000 0.000000
# 4 0.000000 0.000000 0.000000 0.049240 0.000000 0.000000
# 5 0.000000 0.000000 0.000000 0.000000 0.049240 0.000000
# 6 0.000000 0.000000 0.000000 0.000000 0.000000 0.165065
#
#
# Mechanical properties :
#
#
# Convention : Reuss Voigt Hill
#
# Bulk Modulus (GPa) = 48.56725 56.36704 52.46715
# Shear Modulus (GPa) = 13.88865 18.33231 16.11048
#
# Velocity S-wave (km/s) = 2.76348 3.17493 2.97632
# Velocity P-wave (km/s) = 6.07351 6.66589 6.37658
#
# Compressibility (1/GPa) = 0.02059001
#
# Stress axis : x y z
#
# Youngs Moduli (GPa) = 47.89252 47.89252 74.99718
#
# Poissons Ratio (x) = 0.19837 0.49161
# Poissons Ratio (y) = 0.19837 0.49161
# Poissons Ratio (z) = 0.31394 0.31394
#
# Static dielectric constant tensor:
#      x y z
#    x 1.656380 0.000000 0.000000 
#    y 0.000000 1.656380 0.000000 
#    z 0.000000 0.000000 1.726330 
# 
# From -- ./inp_files/4518.got.cif
#   From: 2010.05.17/outbox.cif.g08.bks.cpg/sg93_3_cif.got.tgz:4518.got - 2010.06.03 19:38:44.
