data_PCOD9549738
_publ_section_title
;
Structure prediction by ZEFSAII (Michael W. Deem and Ramdas Pophale) SiO2 
 PCOD9549738
Probable space group: P 42 2 2
;
_chemical_formula_sum "Si O2"
_cell_formula_units_Z 56
_cell_length_a 15.293073
_cell_length_b 15.293073
_cell_length_c 12.772500
_cell_angle_alpha 90.000000
_cell_angle_beta 90.000000
_cell_angle_gamma 90.000000
_cell_volume 2987.207800
_symmetry_space_group_name_H-M "P 42 2 2"
_symmetry_group_IT_number 93
_symmetry_cell_setting 'tetragonal'
loop_
_space_group_symop_operation_xyz
x,y,z
-y,x,1/2+z
-x,-y,z
y,-x,1/2+z
x,-y,-z
-x,y,-z
y,x,1/2-z
-y,-x,1/2-z
loop_
_atom_site_type_symbol
_atom_site_label
_atom_site_fract_x
_atom_site_fract_y
_atom_site_fract_z
Si Si1 0.400062 0.623529 0.462791
Si Si2 0.593328 0.900269 0.455074
Si Si3 0.546197 0.644709 0.170391
Si Si4 0.330402 0.856748 0.189465
Si Si5 0.708675 0.780349 0.590410
Si Si6 0.833236 0.537706 0.268836
Si Si7 0.402094 0.976374 0.879694
O O1 0.500000 0.618829 0.500000
O O2 0.348175 0.611666 0.571728
O O3 0.374398 0.545291 0.385691
O O4 0.370827 0.711175 0.406708
O O5 0.500000 0.866621 0.500000
O O6 0.676441 0.844163 0.496473
O O7 0.572814 0.887077 0.331965
O O8 0.602042 0.000000 0.500000
O O9 0.569077 0.569077 0.250000
O O10 0.552991 0.731078 0.239675
O O11 0.279384 0.796604 0.104178
O O12 0.293028 0.835951 0.303417
O O13 0.434798 0.836862 0.198725
O O14 0.330282 0.960497 0.169372
O O15 0.873766 0.597568 0.360894
O O16 0.500000 0.000000 0.837250
O O17 0.402391 0.000000 0.000000
#
# Coordination Sequence:
#
# PCOD9549738 Si02
#       7
#     8   8   8   8   8   8   8
#     4  11  25  38  51  74 109 162 211 256 290 326
#     4  11  22  35  58  82 113 151 195 246 304 363
#     4  11  24  38  52  72 108 153 209 248 288 335
#     4  10  21  34  55  83 103 146 186 241 293 352
#     4  11  21  36  56  77 116 143 198 244 295 345
#     4  11  21  38  55  80 108 148 199 243 302 353
#     4   9  20  35  59  78 107 140 185 235 297 355
#
# _framework density 18.746601999999999
#
# number of rings (size 3 to 8) (size 9 to 14) (size 15 to 20)
#    0.000    1.429    2.857    3.000    8.000    2.286 
#    0.000    0.000    0.000    0.000    0.000    0.000 
#    0.000    0.571    1.143    0.000    0.000    0.000 
#
# Total GULP energy -311823.074780 kJ/mol
# GULP energy per Si atom -5568.269193 kJ/mol
# Density = 1.870393 g / cm^3
# Si number density = 18.746602 Si / 1000 Ang^3
#
#
#
# Elastic Constant Matrix: (Units=GPa)
#
#
# Indices 1 2 3 4 5 6 
#
# 1 58.5402 32.2555 8.6119 0.0000 0.0000 0.0000
# 2 32.2555 58.5402 8.6119 0.0000 0.0000 0.0000
# 3 8.6119 8.6119 55.5029 0.0000 0.0000 0.0000
# 4 0.0000 0.0000 0.0000 19.2183 0.0000 0.0000
# 5 0.0000 0.0000 0.0000 0.0000 19.2183 0.0000
# 6 0.0000 0.0000 0.0000 0.0000 0.0000 27.8204
#
#
#
# Elastic Compliance Matrix: (Units=1/GPa)
#
#
# Indices 1 2 3 4 5 6 
#
# 1 0.024696 -0.013349 -0.001761 0.000000 0.000000 0.000000
# 2 -0.013349 0.024696 -0.001761 0.000000 0.000000 0.000000
# 3 -0.001761 -0.001761 0.018563 0.000000 0.000000 0.000000
# 4 0.000000 0.000000 0.000000 0.052034 0.000000 0.000000
# 5 0.000000 0.000000 0.000000 0.000000 0.052034 0.000000
# 6 0.000000 0.000000 0.000000 0.000000 0.000000 0.035945
#
#
# Mechanical properties :
#
#
# Convention : Reuss Voigt Hill
#
# Bulk Modulus (GPa) = 29.22606 30.17133 29.69869
# Shear Modulus (GPa) = 19.75395 21.45834 20.60614
#
# Velocity S-wave (km/s) = 3.24965 3.38694 3.31901
# Velocity P-wave (km/s) = 5.45016 5.60575 5.52850
#
# Compressibility (1/GPa) = 0.03421604
#
# Stress axis : x y z
#
# Youngs Moduli (GPa) = 40.49185 40.49185 53.86922
#
# Poissons Ratio (x) = 0.54051 0.09485
# Poissons Ratio (y) = 0.54051 0.09485
# Poissons Ratio (z) = 0.07130 0.07130
#
# Static dielectric constant tensor:
#      x y z
#    x 1.709700 0.000000 0.000000 
#    y 0.000000 1.709700 0.000000 
#    z 0.000000 0.000000 1.749870 
# 
# From -- ./inp_files/3497.got.cif
#   From: 2010.05.17/outbox.cif.g08.bks.cpg/sg93_2_cif.got.tgz:3497.got - 2010.06.03 19:38:44.
