data_PCOD9549010
_publ_section_title
;
Structure prediction by ZEFSAII (Michael W. Deem and Ramdas Pophale) SiO2 
 PCOD9549010
Probable space group: P 41 21 2
;
_chemical_formula_sum "Si O2"
_cell_formula_units_Z 40
_cell_length_a 8.726496
_cell_length_b 8.726496
_cell_length_c 25.887129
_cell_angle_alpha 90.000000
_cell_angle_beta 90.000000
_cell_angle_gamma 90.000000
_cell_volume 1971.349721
_symmetry_space_group_name_H-M "P 41 21 2"
_symmetry_group_IT_number 92
_symmetry_cell_setting 'tetragonal'
loop_
_space_group_symop_operation_xyz
x,y,z
1/2-y,1/2+x,1/4+z
-x,-y,1/2+z
1/2+y,1/2-x,3/4+z
1/2+x,1/2-y,3/4-z
1/2-x,1/2+y,1/4-z
y,x,-z
-y,-x,1/2-z
loop_
_atom_site_type_symbol
_atom_site_label
_atom_site_fract_x
_atom_site_fract_y
_atom_site_fract_z
Si Si1 0.890690 0.914048 0.285266
Si Si2 0.470882 0.713315 0.789669
Si Si3 0.156885 0.479025 0.965218
Si Si4 0.767385 0.087557 0.527983
Si Si5 0.095320 0.992739 0.375547
O O1 0.985818 0.767696 0.263521
O O2 0.717830 0.862750 0.277940
O O3 0.944666 0.951293 0.342693
O O4 0.944316 0.055685 0.250000
O O5 0.336426 0.663575 0.750000
O O6 0.530498 0.885900 0.787250
O O7 0.619341 0.615084 0.770204
O O8 0.422829 0.655373 0.845998
O O9 0.264745 0.489275 0.914730
O O10 0.073376 0.317575 0.970145
O O11 0.870830 0.115232 0.578605
#
# Coordination Sequence:
#
# PCOD9549010 Si02
#       5
#     8   8   8   8   8
#     4   9  20  36  53  80 112 140 179 226 272 326
#     4   9  21  39  56  81 116 149 186 231 281 335
#     4  10  21  37  57  82 111 145 186 230 277 332
#     4  10  20  36  58  81 108 147 185 225 276 328
#     4  10  20  36  56  82 112 143 184 228 273 329
#
# _framework density 20.290665000000001
#
# number of rings (size 3 to 8) (size 9 to 14) (size 15 to 20)
#    0.000    2.400    0.000    1.200    0.000   11.200 
#    0.000   20.000    0.000    0.000    0.000    0.000 
#    0.000    0.000    0.000    0.000    0.000    0.000 
#
# Total GULP energy -223310.089756 kJ/mol
# GULP energy per Si atom -5582.752244 kJ/mol
# Density = 2.024448 g / cm^3
# Si number density = 20.290665 Si / 1000 Ang^3
#
#
#
# Elastic Constant Matrix: (Units=GPa)
#
#
# Indices 1 2 3 4 5 6 
#
# 1 29.3960 42.7816 -1.5422 0.0000 0.0000 0.0000
# 2 42.7816 29.3942 -1.5421 0.0000 0.0000 0.0000
# 3 -1.5422 -1.5421 52.6111 0.0000 0.0000 0.0000
# 4 0.0000 0.0000 0.0000 13.4789 0.0000 0.0000
# 5 0.0000 0.0000 0.0000 0.0000 13.4791 0.0000
# 6 0.0000 0.0000 0.0000 0.0000 0.0000 49.5131
#
#
#
# Elastic Compliance Matrix: (Units=1/GPa)
#
#
# Indices 1 2 3 4 5 6 
#
# 1 -0.030414 0.044287 0.000407 0.000000 0.000000 0.000000
# 2 0.044287 -0.030416 0.000407 0.000000 0.000000 0.000000
# 3 0.000407 0.000407 0.019031 0.000000 0.000000 0.000000
# 4 0.000000 0.000000 0.000000 0.074190 0.000000 0.000000
# 5 0.000000 0.000000 0.000000 0.000000 0.074189 0.000000
# 6 0.000000 0.000000 0.000000 0.000000 0.000000 0.020197
#
#
# Mechanical properties :
#
#
# Convention : Reuss Voigt Hill
#
# Bulk Modulus (GPa) = 20.66018 21.19953 20.92985
# Shear Modulus (GPa) = 94.85889 20.07449 57.46669
#
# Velocity S-wave (km/s) = 6.84482 3.14880 5.32759
# Velocity P-wave (km/s) = 8.52484 4.86729 6.94130
#
# Compressibility (1/GPa) = 0.04840230
#
# Stress axis : x y z
#
# Youngs Moduli (GPa) = -32.87959 -32.87755 52.54515
#
# Poissons Ratio (x) = 1.45606 -0.02136
# Poissons Ratio (y) = 1.45615 -0.02137
# Poissons Ratio (z) = 0.01337 0.01337
#
# Static dielectric constant tensor:
#      x y z
#    x 1.733450 0.000000 0.000000 
#    y 0.000000 1.733450 0.000000 
#    z 0.000000 0.000000 1.394620 
# 
# From -- ./inp_files/3784.got.cif
#   From: 2010.05.17/outbox.cif.g08.bks.cpg/sg92_2_cif.got.tgz:3784.got - 2010.06.03 19:35:17.
