data_PCOD9549824
_publ_section_title
;
Structure prediction by ZEFSAII (Michael W. Deem and Ramdas Pophale) SiO2 
 PCOD9549824
Probable space group: P 42 2 2
;
_chemical_formula_sum "Si O2"
_cell_formula_units_Z 20
_cell_length_a 9.960369
_cell_length_b 9.960369
_cell_length_c 9.282761
_cell_angle_alpha 90.000000
_cell_angle_beta 90.000000
_cell_angle_gamma 90.000000
_cell_volume 920.932978
_symmetry_space_group_name_H-M "P 42 2 2"
_symmetry_group_IT_number 93
_symmetry_cell_setting 'tetragonal'
loop_
_space_group_symop_operation_xyz
x,y,z
-y,x,1/2+z
-x,-y,z
y,-x,1/2+z
x,-y,-z
-x,y,-z
y,x,1/2-z
-y,-x,1/2-z
loop_
_atom_site_type_symbol
_atom_site_label
_atom_site_fract_x
_atom_site_fract_y
_atom_site_fract_z
Si Si1 0.869531 0.857665 0.919471
Si Si2 0.248935 0.658927 0.605725
Si Si3 0.500000 0.500000 0.000000
Si Si4 0.500000 0.000000 0.000000
O O1 0.880880 0.880880 0.750000
O O2 0.746657 0.763699 0.960881
O O3 0.000000 0.801528 0.000000
O O4 0.846586 0.000000 0.000000
O O5 0.253466 0.746535 0.750000
O O6 0.391492 0.584273 0.592440
O O7 0.109509 0.575296 0.601330
#
# Coordination Sequence:
#
# PCOD9549824 Si02
#       4
#     8   8   2   2
#     4  11  22  39  67 102 138 175 223 282 349 414
#     4  11  23  45  71 100 141 184 235 290 352 419
#     4  10  26  46  66 100 138 186 240 290 350 418
#     4  10  24  42  74 100 144 186 234 288 352 414
#
# _framework density 21.717105
#
# number of rings (size 3 to 8) (size 9 to 14) (size 15 to 20)
#    0.000    1.200    2.000    5.400    0.000    6.400 
#    0.000    0.000    0.000    0.000    0.000    0.000 
#    0.000    0.000    0.000    0.000    0.000    0.000 
#
# Total GULP energy -111424.991288 kJ/mol
# GULP energy per Si atom -5571.249564 kJ/mol
# Density = 2.166768 g / cm^3
# Si number density = 21.717105 Si / 1000 Ang^3
#
#
#
# Elastic Constant Matrix: (Units=GPa)
#
#
# Indices 1 2 3 4 5 6 
#
# 1 120.9433 66.6150 47.5290 0.0000 0.0000 0.0000
# 2 66.6150 120.9428 47.5289 0.0000 0.0000 0.0000
# 3 47.5290 47.5289 198.1132 0.0000 0.0000 0.0000
# 4 0.0000 0.0000 0.0000 -13.2366 0.0000 0.0000
# 5 0.0000 0.0000 0.0000 0.0000 -13.2322 0.0000
# 6 0.0000 0.0000 0.0000 0.0000 0.0000 17.7583
#
#
#
# Elastic Compliance Matrix: (Units=1/GPa)
#
#
# Indices 1 2 3 4 5 6 
#
# 1 0.012238 -0.006168 -0.001456 0.000000 0.000000 0.000000
# 2 -0.006168 0.012238 -0.001456 0.000000 0.000000 0.000000
# 3 -0.001456 -0.001456 0.005746 0.000000 0.000000 0.000000
# 4 0.000000 0.000000 0.000000 -0.075548 0.000000 0.000000
# 5 0.000000 0.000000 0.000000 0.000000 -0.075573 0.000000
# 6 0.000000 0.000000 0.000000 0.000000 0.000000 0.056312
#
#
# Mechanical properties :
#
#
# Convention : Reuss Voigt Hill
#
# Bulk Modulus (GPa) = 82.91165 84.81610 83.86388
# Shear Modulus (GPa) = -117.90970 16.81302 -50.54834
#
# Velocity S-wave (km/s) = -7.37640 2.78543 -4.82974
# Velocity P-wave (km/s) = 5.85556 7.03453 2.75655
#
# Compressibility (1/GPa) = 0.01206103
#
# Stress axis : x y z
#
# Youngs Moduli (GPa) = 81.71158 81.71130 174.02466
#
# Poissons Ratio (x) = 0.50404 0.25341
# Poissons Ratio (y) = 0.50404 0.25341
# Poissons Ratio (z) = 0.11899 0.11899
#
# Static dielectric constant tensor:
#      x y z
#    x 1.904000 0.000000 0.000000 
#    y 0.000000 1.904000 0.000000 
#    z 0.000000 0.000000 1.778130 
# 
# From -- ./inp_files/1180.got.cif
#   From: 2010.05.17/outbox.cif.g08.bks.cpg/sg93_1_cif.got.tgz:1180.got - 2010.06.03 19:38:44.
