data_PCOD9549097
_publ_section_title
;
Structure prediction by ZEFSAII (Michael W. Deem and Ramdas Pophale) SiO2 
 PCOD9549097
Probable space group: P 41 21 2
;
_chemical_formula_sum "Si O2"
_cell_formula_units_Z 40
_cell_length_a 13.959988
_cell_length_b 13.959988
_cell_length_c 7.702435
_cell_angle_alpha 90.000000
_cell_angle_beta 90.000000
_cell_angle_gamma 90.000000
_cell_volume 1501.060276
_symmetry_space_group_name_H-M "P 41 21 2"
_symmetry_group_IT_number 92
_symmetry_cell_setting 'tetragonal'
loop_
_space_group_symop_operation_xyz
x,y,z
1/2-y,1/2+x,1/4+z
-x,-y,1/2+z
1/2+y,1/2-x,3/4+z
1/2+x,1/2-y,3/4-z
1/2-x,1/2+y,1/4-z
y,x,-z
-y,-x,1/2-z
loop_
_atom_site_type_symbol
_atom_site_label
_atom_site_fract_x
_atom_site_fract_y
_atom_site_fract_z
Si Si1 0.771707 0.650355 0.339168
Si Si2 0.983975 0.123722 0.520644
Si Si3 0.089950 0.200325 0.851544
Si Si4 0.491316 0.200115 0.432337
Si Si5 0.179132 0.411268 0.219984
O O1 0.663253 0.623314 0.281771
O O2 0.818735 0.745976 0.269659
O O3 0.828151 0.562054 0.246407
O O4 0.145631 0.711380 0.295605
O O5 0.014991 0.014991 0.500000
O O6 0.027757 0.150813 0.705322
O O7 0.029025 0.193761 0.372904
O O8 0.132596 0.132596 0.000000
O O9 0.018982 0.284357 0.921568
O O10 0.410923 0.213812 0.579493
O O11 0.569842 0.125173 0.497820
#
# Coordination Sequence:
#
# PCOD9549097 Si02
#       5
#     8   8   8   8   8
#     4   9  22  36  51  85 115 149 199 239 293 353
#     4   9  20  36  55  82 111 148 196 246 299 354
#     4  11  21  38  54  80 121 159 202 240 289 367
#     4  10  21  32  54  78 121 145 193 239 292 358
#     4  11  20  34  54  80 112 165 188 233 300 352
#
# _framework density 26.647832000000001
#
# number of rings (size 3 to 8) (size 9 to 14) (size 15 to 20)
#    1.200    0.800    2.000    2.400    0.000    1.600 
#    0.000    0.000    0.000    0.000    0.000    9.800 
#    0.000    0.000    0.000    0.000    0.000    0.000 
#
# Total GULP energy -222945.709464 kJ/mol
# GULP energy per Si atom -5573.642737 kJ/mol
# Density = 2.658718 g / cm^3
# Si number density = 26.647832 Si / 1000 Ang^3
#
#
#
# Elastic Constant Matrix: (Units=GPa)
#
#
# Indices 1 2 3 4 5 6 
#
# 1 97.9350 58.9140 30.7969 0.0000 0.0000 0.0000
# 2 58.9140 97.9350 30.7969 0.0000 0.0000 0.0000
# 3 30.7969 30.7969 110.2597 0.0000 0.0000 0.0000
# 4 0.0000 0.0000 0.0000 50.1241 0.0000 0.0000
# 5 0.0000 0.0000 0.0000 0.0000 50.1241 0.0000
# 6 0.0000 0.0000 0.0000 0.0000 0.0000 59.0200
#
#
#
# Elastic Compliance Matrix: (Units=1/GPa)
#
#
# Indices 1 2 3 4 5 6 
#
# 1 0.016394 -0.009233 -0.002000 0.000000 0.000000 0.000000
# 2 -0.009233 0.016394 -0.002000 0.000000 0.000000 0.000000
# 3 -0.002000 -0.002000 0.010187 0.000000 0.000000 0.000000
# 4 0.000000 0.000000 0.000000 0.019950 0.000000 0.000000
# 5 0.000000 0.000000 0.000000 0.000000 0.019950 0.000000
# 6 0.000000 0.000000 0.000000 0.000000 0.000000 0.016943
#
#
# Mechanical properties :
#
#
# Convention : Reuss Voigt Hill
#
# Bulk Modulus (GPa) = 60.57587 60.79391 60.68489
# Shear Modulus (GPa) = 37.93940 44.22843 41.08391
#
# Velocity S-wave (km/s) = 3.77733 4.07841 3.93075
# Velocity P-wave (km/s) = 6.46573 6.71128 6.58965
#
# Compressibility (1/GPa) = 0.01650822
#
# Stress axis : x y z
#
# Youngs Moduli (GPa) = 60.99741 60.99741 98.16594
#
# Poissons Ratio (x) = 0.56320 0.19635
# Poissons Ratio (y) = 0.56320 0.19635
# Poissons Ratio (z) = 0.12200 0.12200
#
# Static dielectric constant tensor:
#      x y z
#    x 2.160350 0.000000 0.000000 
#    y 0.000000 2.160350 0.000000 
#    z 0.000000 0.000000 2.058500 
# 
# From -- ./inp_files/1345.got.cif
#   From: 2010.05.17/outbox.cif.g08.bks.cpg/sg92_1_cif.got.tgz:1345.got - 2010.06.03 19:35:17.
