data_PCOD9549787
_publ_section_title
;
Structure prediction by ZEFSAII (Michael W. Deem and Ramdas Pophale) SiO2 
 PCOD9549787
Probable space group: P 42 2 2
;
_chemical_formula_sum "Si O2"
_cell_formula_units_Z 54
_cell_length_a 14.338654
_cell_length_b 14.338654
_cell_length_c 11.936462
_cell_angle_alpha 90.000000
_cell_angle_beta 90.000000
_cell_angle_gamma 90.000000
_cell_volume 2454.100760
_symmetry_space_group_name_H-M "P 42 2 2"
_symmetry_group_IT_number 93
_symmetry_cell_setting 'tetragonal'
loop_
_space_group_symop_operation_xyz
x,y,z
-y,x,1/2+z
-x,-y,z
y,-x,1/2+z
x,-y,-z
-x,y,-z
y,x,1/2-z
-y,-x,1/2-z
loop_
_atom_site_type_symbol
_atom_site_label
_atom_site_fract_x
_atom_site_fract_y
_atom_site_fract_z
Si Si1 0.500000 0.734639 0.500000
Si Si2 0.000000 0.500000 0.000000
Si Si3 0.141697 0.356081 0.577274
Si Si4 0.788917 0.297848 0.060391
Si Si5 0.670727 0.091486 0.641343
Si Si6 0.222392 0.076986 0.749542
Si Si7 0.351292 0.503849 0.238271
Si Si8 0.550521 0.164774 0.841735
O O1 0.591728 0.785884 0.543065
O O2 0.478889 0.680642 0.612880
O O3 0.047345 0.577732 0.917806
O O4 0.245169 0.309493 0.569691
O O5 0.082698 0.270626 0.628169
O O6 0.130027 0.398733 0.453972
O O7 0.122716 0.445470 0.657710
O O8 0.845531 0.272748 0.171083
O O9 0.846046 0.272466 0.948104
O O10 0.621883 0.146576 0.741926
O O11 0.744190 0.017676 0.691464
O O12 0.115786 0.115786 0.750000
O O13 0.435932 0.435932 0.250000
O O14 0.390996 0.609005 0.250000
O O15 0.273492 0.477347 0.329356
#
# Coordination Sequence:
#
# PCOD9549787 Si02
#       8
#     4   2   8   8   8   8   8   8
#     4  12  21  35  57  81 116 162 224 295 330 382
#     4  12  22  36  56  96 124 154 222 282 334 368
#     4  10  23  40  58  83 129 175 210 271 338 411
#     4  11  21  37  62  88 121 167 224 276 337 393
#     4  12  23  36  65  93 127 166 222 292 343 409
#     4  10  22  41  62  92 126 165 208 269 359 425
#     4  11  24  37  53  79 118 172 235 287 330 385
#     4  11  23  39  58  87 124 172 224 271 335 402
#
# _framework density 22.003986999999999
#
# number of rings (size 3 to 8) (size 9 to 14) (size 15 to 20)
#    0.000    1.037    2.963    4.000    0.000    4.148 
#    0.000    1.481    0.000    0.000    0.000    2.074 
#    0.000    9.481    0.000    0.889    0.000    0.000 
#
# Total GULP energy -300829.029961 kJ/mol
# GULP energy per Si atom -5570.907962 kJ/mol
# Density = 2.195391 g / cm^3
# Si number density = 22.003987 Si / 1000 Ang^3
#
#
#
# Elastic Constant Matrix: (Units=GPa)
#
#
# Indices 1 2 3 4 5 6 
#
# 1 65.3098 20.9382 13.2682 0.0000 0.0000 0.0000
# 2 20.9382 65.3103 13.2705 0.0000 0.0000 0.0000
# 3 13.2682 13.2705 91.0069 0.0000 0.0000 0.0000
# 4 0.0000 0.0000 0.0000 45.3905 0.0000 0.0000
# 5 0.0000 0.0000 0.0000 0.0000 45.3890 0.0000
# 6 0.0000 0.0000 0.0000 0.0000 0.0000 -56.0365
#
#
#
# Elastic Compliance Matrix: (Units=1/GPa)
#
#
# Indices 1 2 3 4 5 6 
#
# 1 0.017338 -0.005199 -0.001770 0.000000 0.000000 0.000000
# 2 -0.005199 0.017338 -0.001770 0.000000 0.000000 0.000000
# 3 -0.001770 -0.001770 0.011504 0.000000 0.000000 0.000000
# 4 0.000000 0.000000 0.000000 0.022031 0.000000 0.000000
# 5 0.000000 0.000000 0.000000 0.000000 0.022032 0.000000
# 6 0.000000 0.000000 0.000000 0.000000 0.000000 -0.017846
#
#
# Mechanical properties :
#
#
# Convention : Reuss Voigt Hill
#
# Bulk Modulus (GPa) = 34.84001 35.17565 35.00783
# Shear Modulus (GPa) = 50.28032 18.55863 34.41947
#
# Velocity S-wave (km/s) = 4.78541 2.90732 3.95934
# Velocity P-wave (km/s) = 6.81186 5.22406 6.07010
#
# Compressibility (1/GPa) = 0.02870263
#
# Stress axis : x y z
#
# Youngs Moduli (GPa) = 57.67711 57.67698 86.92393
#
# Poissons Ratio (x) = 0.29985 0.15383
# Poissons Ratio (y) = 0.29986 0.15387
# Poissons Ratio (z) = 0.10207 0.10210
#
# Static dielectric constant tensor:
#      x y z
#    x 1.690870 0.000000 0.000000 
#    y 0.000000 1.690930 0.000000 
#    z 0.000000 0.000000 1.030180 
# 
# From -- ./inp_files/3546.got.cif
#   From: 2010.05.17/outbox.cif.g08.bks.cpg/sg93_2_cif.got.tgz:3546.got - 2010.06.03 19:38:44.
