data_PCOD9549748
_publ_section_title
;
Structure prediction by ZEFSAII (Michael W. Deem and Ramdas Pophale) SiO2 
 PCOD9549748
Probable space group: P 42 2 2
;
_chemical_formula_sum "Si O2"
_cell_formula_units_Z 56
_cell_length_a 12.499100
_cell_length_b 12.499100
_cell_length_c 18.598444
_cell_angle_alpha 90.000000
_cell_angle_beta 90.000000
_cell_angle_gamma 90.000000
_cell_volume 2905.588425
_symmetry_space_group_name_H-M "P 42 2 2"
_symmetry_group_IT_number 93
_symmetry_cell_setting 'tetragonal'
loop_
_space_group_symop_operation_xyz
x,y,z
-y,x,1/2+z
-x,-y,z
y,-x,1/2+z
x,-y,-z
-x,y,-z
y,x,1/2-z
-y,-x,1/2-z
loop_
_atom_site_type_symbol
_atom_site_label
_atom_site_fract_x
_atom_site_fract_y
_atom_site_fract_z
Si Si1 0.437869 0.890727 0.690949
Si Si2 0.736575 0.419323 0.289669
Si Si3 0.870696 0.209267 0.326728
Si Si4 0.124936 0.874714 0.018842
Si Si5 0.292625 0.230908 0.410649
Si Si6 0.463160 0.623388 0.921317
Si Si7 0.240126 0.106968 0.203334
O O1 0.513438 0.803115 0.730336
O O2 0.379317 0.852854 0.618720
O O3 0.341334 0.909352 0.746214
O O4 0.500000 0.000000 0.680113
O O5 0.637492 0.362509 0.250000
O O6 0.810070 0.322886 0.320631
O O7 0.692520 0.489448 0.355638
O O8 0.847083 0.152918 0.250000
O O9 0.841899 0.143705 0.398007
O O10 0.996824 0.224966 0.336604
O O11 0.189149 0.786787 0.972265
O O12 0.000000 0.866648 0.000000
O O13 0.155046 0.000000 0.000000
O O14 0.360383 0.336650 0.424701
O O15 0.210101 0.256858 0.345916
O O16 0.500000 0.500000 0.912351
O O17 0.500000 0.661147 0.000000
O O18 0.135862 0.135862 0.250000
#
# Coordination Sequence:
#
# PCOD9549748 Si02
#       7
#     8   8   8   8   8   8   8
#     4  11  22  39  65  99 135 169 216 275 334 402
#     4  11  23  39  64  96 127 163 221 274 327 388
#     4  11  24  40  65  94 130 178 221 273 324 393
#     4  11  25  42  63  97 138 176 223 275 334 404
#     4  11  23  42  67  95 132 177 214 271 344 403
#     4  11  24  43  65  90 126 172 219 276 331 396
#     4  10  21  36  63  96 128 167 214 267 332 393
#
# _framework density 19.273204
#
# number of rings (size 3 to 8) (size 9 to 14) (size 15 to 20)
#    0.000    1.143    4.286    1.714    4.000    1.714 
#    0.000    2.857    0.000    0.000    0.000    0.000 
#    0.000    0.000    0.000    0.000    0.000    0.000 
#
# Total GULP energy -312522.450274 kJ/mol
# GULP energy per Si atom -5580.758041 kJ/mol
# Density = 1.922934 g / cm^3
# Si number density = 19.273204 Si / 1000 Ang^3
#
#
#
# Elastic Constant Matrix: (Units=GPa)
#
#
# Indices 1 2 3 4 5 6 
#
# 1 80.1462 81.6299 49.7569 0.0000 0.0000 0.0000
# 2 81.6299 80.1510 49.7591 0.0000 0.0000 0.0000
# 3 49.7569 49.7591 117.7532 0.0000 0.0000 0.0000
# 4 0.0000 0.0000 0.0000 22.3794 0.0000 0.0000
# 5 0.0000 0.0000 0.0000 0.0000 22.3752 0.0000
# 6 0.0000 0.0000 0.0000 0.0000 0.0000 28.6216
#
#
#
# Elastic Compliance Matrix: (Units=1/GPa)
#
#
# Indices 1 2 3 4 5 6 
#
# 1 -0.333388 0.341732 -0.003532 0.000000 0.000000 0.000000
# 2 0.341732 -0.333372 -0.003527 0.000000 0.000000 0.000000
# 3 -0.003532 -0.003527 0.011475 0.000000 0.000000 0.000000
# 4 0.000000 0.000000 0.000000 0.044684 0.000000 0.000000
# 5 0.000000 0.000000 0.000000 0.000000 0.044692 0.000000
# 6 0.000000 0.000000 0.000000 0.000000 0.000000 0.034939
#
#
# Mechanical properties :
#
#
# Convention : Reuss Voigt Hill
#
# Bulk Modulus (GPa) = 71.11230 71.14913 71.13071
# Shear Modulus (GPa) = -4.18189 21.13557 8.47684
#
# Velocity S-wave (km/s) = -1.47462 3.31513 2.09948
# Velocity P-wave (km/s) = 5.83761 7.18677 6.54704
#
# Compressibility (1/GPa) = 0.01406227
#
# Stress axis : x y z
#
# Youngs Moduli (GPa) = -2.99950 -2.99965 87.14524
#
# Poissons Ratio (x) = 1.02508 0.30781
# Poissons Ratio (y) = 1.02503 0.30733
# Poissons Ratio (z) = -0.01059 -0.01058
#
# Static dielectric constant tensor:
#      x y z
#    x 1.798930 0.000000 0.000000 
#    y 0.000000 1.799060 0.000000 
#    z 0.000000 0.000000 1.624730 
# 
# From -- ./inp_files/6270.got.cif
#   From: 2010.05.17/outbox.cif.g08.bks.cpg/sg93_4_cif.got.tgz:6270.got - 2010.06.03 19:38:44.
