data_PCOD9549439
_publ_section_title
;
Structure prediction by ZEFSAII (Michael W. Deem and Ramdas Pophale) SiO2 
 PCOD9549439
Probable space group: P 41 21 2
;
_chemical_formula_sum "Si O2"
_cell_formula_units_Z 36
_cell_length_a 11.769981
_cell_length_b 11.769981
_cell_length_c 14.483808
_cell_angle_alpha 90.000000
_cell_angle_beta 90.000000
_cell_angle_gamma 90.000000
_cell_volume 2006.477447
_symmetry_space_group_name_H-M "P 41 21 2"
_symmetry_group_IT_number 92
_symmetry_cell_setting 'tetragonal'
loop_
_space_group_symop_operation_xyz
x,y,z
1/2-y,1/2+x,1/4+z
-x,-y,1/2+z
1/2+y,1/2-x,3/4+z
1/2+x,1/2-y,3/4-z
1/2-x,1/2+y,1/4-z
y,x,-z
-y,-x,1/2-z
loop_
_atom_site_type_symbol
_atom_site_label
_atom_site_fract_x
_atom_site_fract_y
_atom_site_fract_z
Si Si1 0.652544 0.230372 0.537822
Si Si2 0.227819 0.360275 0.917865
Si Si3 0.452060 0.594072 0.574458
Si Si4 0.485040 0.790794 0.228656
Si Si5 0.027517 0.027517 0.000000
O O1 0.775753 0.261484 0.581347
O O2 0.615689 0.330692 0.470326
O O3 0.568430 0.218541 0.626285
O O4 0.661165 0.110867 0.485797
O O5 0.289549 0.479895 0.903032
O O6 0.296073 0.296073 0.000000
O O7 0.100015 0.362409 0.956264
O O8 0.527670 0.527670 0.500000
O O9 0.454944 0.514425 0.663685
O O10 0.487682 0.661656 0.268018
#
# Coordination Sequence:
#
# PCOD9549439 Si02
#       5
#     8   8   8   8   4
#     4  11  22  39  63  92 126 164 209 263 313 376
#     4   9  19  33  62  91 115 151 210 260 300 360
#     4  11  21  38  65  93 121 162 208 264 315 371
#     4  11  21  38  62  94 124 160 213 265 311 379
#     4  12  20  38  64  96 122 160 216 252 320 392
#
# _framework density 17.941890999999998
#
# number of rings (size 3 to 8) (size 9 to 14) (size 15 to 20)
#    0.000    1.333    7.778    0.000    6.222    0.000 
#    0.000    6.667    0.000    0.000    0.000    0.000 
#    0.000    0.000    0.000    0.000    0.000    0.000 
#
# Total GULP energy -200916.403453 kJ/mol
# GULP energy per Si atom -5581.011207 kJ/mol
# Density = 1.790105 g / cm^3
# Si number density = 17.941891 Si / 1000 Ang^3
#
#
#
# Elastic Constant Matrix: (Units=GPa)
#
#
# Indices 1 2 3 4 5 6 
#
# 1 -163.3499 286.4174 4.3912 0.0000 0.0000 0.0000
# 2 286.4174 -163.3499 4.3912 0.0000 0.0000 0.0000
# 3 4.3912 4.3912 45.1782 0.0000 0.0000 0.0000
# 4 0.0000 0.0000 0.0000 17.9409 0.0000 0.0000
# 5 0.0000 0.0000 0.0000 0.0000 17.9409 0.0000
# 6 0.0000 0.0000 0.0000 0.0000 0.0000 20.4049
#
#
#
# Elastic Compliance Matrix: (Units=1/GPa)
#
#
# Indices 1 2 3 4 5 6 
#
# 1 0.002980 0.005203 -0.000795 0.000000 0.000000 0.000000
# 2 0.005203 0.002980 -0.000795 0.000000 0.000000 0.000000
# 3 -0.000795 -0.000795 0.022289 0.000000 0.000000 0.000000
# 4 0.000000 0.000000 0.000000 0.055739 0.000000 0.000000
# 5 0.000000 0.000000 0.000000 0.000000 0.055739 0.000000
# 6 0.000000 0.000000 0.000000 0.000000 0.000000 0.049008
#
#
# Mechanical properties :
#
#
# Convention : Reuss Voigt Hill
#
# Bulk Modulus (GPa) = 28.19068 34.31977 31.25523
# Shear Modulus (GPa) = 25.86213 -27.19076 -0.66431
#
# Velocity S-wave (km/s) = 3.80075 -3.89715 -0.60915
# Velocity P-wave (km/s) = 5.91669 1.03951 4.11866
#
# Compressibility (1/GPa) = 0.03547271
#
# Stress axis : x y z
#
# Youngs Moduli (GPa) = 335.62653 335.62653 44.86488
#
# Poissons Ratio (x) = -1.74622 0.03568
# Poissons Ratio (y) = -1.74622 0.03568
# Poissons Ratio (z) = 0.26692 0.26692
#
# Static dielectric constant tensor:
#      x y z
#    x 1.617680 0.000000 0.000000 
#    y 0.000000 1.617680 0.000000 
#    z 0.000000 0.000000 1.645310 
# 
# From -- ./inp_files/2013.got.cif
#   From: 2010.05.17/outbox.cif.g08.bks.cpg/sg92_2_cif.got.tgz:2013.got - 2010.06.03 19:35:17.
