data_PCOD9549692
_publ_section_title
;
Structure prediction by ZEFSAII (Michael W. Deem and Ramdas Pophale) SiO2 
 PCOD9549692
Probable space group: P 42 2 2
;
_chemical_formula_sum "Si O2"
_cell_formula_units_Z 64
_cell_length_a 21.168036
_cell_length_b 21.168036
_cell_length_c 8.762753
_cell_angle_alpha 90.000000
_cell_angle_beta 90.000000
_cell_angle_gamma 90.000000
_cell_volume 3926.464733
_symmetry_space_group_name_H-M "P 42 2 2"
_symmetry_group_IT_number 93
_symmetry_cell_setting 'tetragonal'
loop_
_space_group_symop_operation_xyz
x,y,z
-y,x,1/2+z
-x,-y,z
y,-x,1/2+z
x,-y,-z
-x,y,-z
y,x,1/2-z
-y,-x,1/2-z
loop_
_atom_site_type_symbol
_atom_site_label
_atom_site_fract_x
_atom_site_fract_y
_atom_site_fract_z
Si Si1 0.361771 0.071583 0.818630
Si Si2 0.500000 0.096769 0.322077
Si Si3 0.615433 0.292436 0.676017
Si Si4 0.277961 0.816925 0.324846
Si Si5 0.615431 0.707565 0.676017
Si Si6 0.771156 0.499999 0.674652
Si Si7 0.071585 0.638229 0.681369
Si Si8 0.277960 0.183076 0.324847
O O1 0.433141 0.075846 0.750804
O O2 0.313053 0.123591 0.753675
O O3 0.339139 0.999999 0.789415
O O4 0.367151 0.081445 0.999999
O O5 0.500000 0.080611 0.500000
O O6 0.500001 0.171478 0.293237
O O7 0.433142 0.075848 0.249195
O O8 0.646376 0.353625 0.750000
O O9 0.595050 0.301231 0.500000
O O10 0.560898 0.269172 0.786596
O O11 0.668836 0.237946 0.675468
O O12 0.216091 0.783910 0.250000
O O13 0.331168 0.762058 0.324529
O O14 0.263692 0.833196 0.500000
O O15 0.646378 0.646378 0.750000
O O16 0.560894 0.730825 0.786595
O O17 0.794190 0.500000 0.500000
O O18 0.123593 0.686945 0.746324
O O19 0.216088 0.216088 0.250000
#
# Coordination Sequence:
#
# PCOD9549692 Si02
#       8
#     8   8   8   8   8   8   8   8
#     4  11  23  37  53  75 106 143 180 217 259 308
#     4  12  23  35  50  73 103 141 181 218 257 303
#     4  10  20  34  52  75 100 128 165 211 260 310
#     4  10  20  34  54  76 103 135 172 216 260 304
#     4  10  20  34  52  75 100 128 165 211 260 310
#     4  12  22  33  53  75 101 133 167 212 259 308
#     4  11  23  37  53  75 106 143 180 217 259 308
#     4  10  20  34  54  76 103 135 172 216 260 304
#
# _framework density 16.299651000000001
#
# number of rings (size 3 to 8) (size 9 to 14) (size 15 to 20)
#    0.000    1.250    2.500    4.875    0.000    5.500 
#    0.000    0.000    0.000    0.375    0.000    2.625 
#    0.000    0.500    0.000    5.250    0.000    2.250 
#
# Total GULP energy -357018.353038 kJ/mol
# GULP energy per Si atom -5578.411766 kJ/mol
# Density = 1.626255 g / cm^3
# Si number density = 16.299651 Si / 1000 Ang^3
#
#
#
# Elastic Constant Matrix: (Units=GPa)
#
#
# Indices 1 2 3 4 5 6 
#
# 1 70.9925 52.0350 42.0073 0.0000 0.0000 0.0000
# 2 52.0350 70.9891 42.0048 0.0000 0.0000 0.0000
# 3 42.0073 42.0048 109.5346 0.0000 0.0000 0.0000
# 4 0.0000 0.0000 0.0000 8.5106 0.0000 0.0000
# 5 0.0000 0.0000 0.0000 0.0000 8.5145 0.0000
# 6 0.0000 0.0000 0.0000 0.0000 0.0000 56.1738
#
#
#
# Elastic Compliance Matrix: (Units=1/GPa)
#
#
# Indices 1 2 3 4 5 6 
#
# 1 0.031883 -0.020871 -0.004224 0.000000 0.000000 0.000000
# 2 -0.020871 0.031884 -0.004223 0.000000 0.000000 0.000000
# 3 -0.004224 -0.004223 0.012369 0.000000 0.000000 0.000000
# 4 0.000000 0.000000 0.000000 0.117501 0.000000 0.000000
# 5 0.000000 0.000000 0.000000 0.000000 0.117447 0.000000
# 6 0.000000 0.000000 0.000000 0.000000 0.000000 0.017802
#
#
# Mechanical properties :
#
#
# Convention : Reuss Voigt Hill
#
# Bulk Modulus (GPa) = 57.14091 58.17892 57.65992
# Shear Modulus (GPa) = 12.71122 22.33772 17.52447
#
# Velocity S-wave (km/s) = 2.79560 3.70596 3.28250
# Velocity P-wave (km/s) = 6.74931 7.35412 7.05819
#
# Compressibility (1/GPa) = 0.01750060
#
# Stress axis : x y z
#
# Youngs Moduli (GPa) = 31.36485 31.36398 80.84948
#
# Poissons Ratio (x) = 0.65460 0.34148
# Poissons Ratio (y) = 0.65461 0.34141
# Poissons Ratio (z) = 0.13247 0.13244
#
# Static dielectric constant tensor:
#      x y z
#    x 1.528070 0.000000 0.000000 
#    y 0.000000 1.528090 0.000000 
#    z 0.000000 0.000000 1.562000 
# 
# From -- ./inp_files/2286.got.cif
#   From: 2010.05.17/outbox.cif.g08.bks.cpg/sg93_2_cif.got.tgz:2286.got - 2010.06.03 19:38:44.
