data_PCOD9549389
_publ_section_title
;
Structure prediction by ZEFSAII (Michael W. Deem and Ramdas Pophale) SiO2 
 PCOD9549389
Probable space group: P 41 21 2
;
_chemical_formula_sum "Si O2"
_cell_formula_units_Z 60
_cell_length_a 11.950603
_cell_length_b 11.950603
_cell_length_c 19.824064
_cell_angle_alpha 90.000000
_cell_angle_beta 90.000000
_cell_angle_gamma 90.000000
_cell_volume 2831.211605
_symmetry_space_group_name_H-M "P 41 21 2"
_symmetry_group_IT_number 92
_symmetry_cell_setting 'tetragonal'
loop_
_space_group_symop_operation_xyz
x,y,z
1/2-y,1/2+x,1/4+z
-x,-y,1/2+z
1/2+y,1/2-x,3/4+z
1/2+x,1/2-y,3/4-z
1/2-x,1/2+y,1/4-z
y,x,-z
-y,-x,1/2-z
loop_
_atom_site_type_symbol
_atom_site_label
_atom_site_fract_x
_atom_site_fract_y
_atom_site_fract_z
Si Si1 0.487208 0.086102 0.231821
Si Si2 0.546070 0.453931 0.250000
Si Si3 0.595351 0.933040 0.589556
Si Si4 0.077496 0.788692 0.454886
Si Si5 0.751530 0.614085 0.054505
Si Si6 0.123239 0.826416 0.175640
Si Si7 0.234699 0.300102 0.701551
Si Si8 0.391555 0.591681 0.598147
O O1 0.424937 0.033432 0.167036
O O2 0.614895 0.112544 0.210177
O O3 0.407052 0.187818 0.256773
O O4 0.486824 0.000524 0.293683
O O5 0.414781 0.440565 0.231957
O O6 0.611421 0.418379 0.180747
O O7 0.584573 0.799309 0.589633
O O8 0.713102 0.969904 0.557796
O O9 0.138697 0.792748 0.382910
O O10 0.165804 0.740903 0.508191
O O11 0.726814 0.661455 0.128529
O O12 0.690782 0.494307 0.061196
O O13 0.690268 0.690268 0.000000
O O14 0.170676 0.829325 0.250000
O O15 0.022443 0.916363 0.169603
O O16 0.140519 0.211007 0.683173
#
# Coordination Sequence:
#
# PCOD9549389 Si02
#       8
#     8   4   8   8   8   8   8   8
#     4  12  25  49  71 111 147 197 250 306 383 459
#     4  10  24  46  72 106 146 188 244 312 380 446
#     4  12  25  46  72 106 142 193 247 298 377 451
#     4  11  25  43  69 105 143 185 246 303 367 442
#     4  12  28  44  77 112 151 196 256 317 380 454
#     4  11  23  43  72  98 141 191 236 298 370 436
#     4  12  25  46  72 105 149 198 241 306 374 452
#     4  11  24  47  73 106 147 193 246 303 375 455
#
# _framework density 21.192340000000002
#
# number of rings (size 3 to 8) (size 9 to 14) (size 15 to 20)
#    0.000    0.533    5.333    2.000    5.600    1.067 
#    0.000    1.333    0.000    0.000    0.000    0.000 
#    0.000    0.000    0.000    0.000    0.000    0.000 
#
# Total GULP energy -335041.283784 kJ/mol
# GULP energy per Si atom -5584.021396 kJ/mol
# Density = 2.114410 g / cm^3
# Si number density = 21.192340 Si / 1000 Ang^3
#
#
#
# Elastic Constant Matrix: (Units=GPa)
#
#
# Indices 1 2 3 4 5 6 
#
# 1 51.6462 32.6831 23.1890 0.0000 0.0000 0.0000
# 2 32.6831 51.6493 23.1898 0.0000 0.0000 0.0000
# 3 23.1890 23.1898 141.2313 0.0000 0.0000 0.0000
# 4 0.0000 0.0000 0.0000 26.4271 0.0000 0.0000
# 5 0.0000 0.0000 0.0000 0.0000 26.4275 0.0000
# 6 0.0000 0.0000 0.0000 0.0000 0.0000 30.2219
#
#
#
# Elastic Compliance Matrix: (Units=1/GPa)
#
#
# Indices 1 2 3 4 5 6 
#
# 1 0.032883 -0.019847 -0.002140 0.000000 0.000000 0.000000
# 2 -0.019847 0.032881 -0.002140 0.000000 0.000000 0.000000
# 3 -0.002140 -0.002140 0.007783 0.000000 0.000000 0.000000
# 4 0.000000 0.000000 0.000000 0.037840 0.000000 0.000000
# 5 0.000000 0.000000 0.000000 0.000000 0.037839 0.000000
# 6 0.000000 0.000000 0.000000 0.000000 0.000000 0.033089
#
#
# Mechanical properties :
#
#
# Convention : Reuss Voigt Hill
#
# Bulk Modulus (GPa) = 39.53735 44.73893 42.13814
# Shear Modulus (GPa) = 20.92028 27.64631 24.28329
#
# Velocity S-wave (km/s) = 3.14532 3.61576 3.38872
# Velocity P-wave (km/s) = 5.64692 6.21196 5.93616
#
# Compressibility (1/GPa) = 0.02529254
#
# Stress axis : x y z
#
# Youngs Moduli (GPa) = 30.41054 30.41233 128.47805
#
# Poissons Ratio (x) = 0.60360 0.27498
# Poissons Ratio (y) = 0.60356 0.27498
# Poissons Ratio (z) = 0.06509 0.06509
#
# Static dielectric constant tensor:
#      x y z
#    x 1.810040 0.000000 0.000000 
#    y 0.000000 1.810040 0.000000 
#    z 0.000000 0.000000 1.763710 
# 
# From -- ./inp_files/3641.got.cif
#   From: 2010.05.17/outbox.cif.g08.bks.cpg/sg92_2_cif.got.tgz:3641.got - 2010.06.03 19:35:17.
