data_PCOD9549260
_publ_section_title
;
Structure prediction by ZEFSAII (Michael W. Deem and Ramdas Pophale) SiO2 
 PCOD9549260
Probable space group: P 41 21 2
;
_chemical_formula_sum "Si O2"
_cell_formula_units_Z 48
_cell_length_a 8.282283
_cell_length_b 8.282283
_cell_length_c 29.630166
_cell_angle_alpha 90.000000
_cell_angle_beta 90.000000
_cell_angle_gamma 90.000000
_cell_volume 2032.517139
_symmetry_space_group_name_H-M "P 41 21 2"
_symmetry_group_IT_number 92
_symmetry_cell_setting 'tetragonal'
loop_
_space_group_symop_operation_xyz
x,y,z
1/2-y,1/2+x,1/4+z
-x,-y,1/2+z
1/2+y,1/2-x,3/4+z
1/2+x,1/2-y,3/4-z
1/2-x,1/2+y,1/4-z
y,x,-z
-y,-x,1/2-z
loop_
_atom_site_type_symbol
_atom_site_label
_atom_site_fract_x
_atom_site_fract_y
_atom_site_fract_z
Si Si1 0.069588 0.141588 0.664041
Si Si2 0.636175 0.868990 0.526038
Si Si3 0.423549 0.948867 0.440046
Si Si4 0.811141 0.594696 0.870341
Si Si5 0.316566 0.552438 0.132948
Si Si6 0.776250 0.192182 0.199165
O O1 0.227657 0.238678 0.647705
O O2 0.982264 0.231104 0.704586
O O3 0.145499 0.968232 0.676714
O O4 0.924323 0.105042 0.628889
O O5 0.785978 0.785978 0.500000
O O6 0.530701 0.948339 0.485832
O O7 0.707235 0.956162 0.571559
O O8 0.405165 0.778206 0.414238
O O9 0.527041 0.039879 0.402304
O O10 0.285853 0.082359 0.448250
O O11 0.690592 0.449749 0.859269
O O12 0.832120 0.630173 0.923076
O O13 0.822542 0.177459 0.250000
#
# Coordination Sequence:
#
# PCOD9549260 Si02
#       6
#     8   8   8   8   8   8
#     4  10  22  42  67  96 140 189 235 300 369 432
#     4  12  22  42  71 107 141 186 251 303 371 441
#     4  11  24  42  69 105 139 192 242 308 373 433
#     4  10  22  43  63  93 137 180 235 292 363 435
#     4  11  22  40  70  98 139 184 235 298 364 437
#     4  10  23  41  65  97 136 188 238 293 364 446
#
# _framework density 23.616038
#
# number of rings (size 3 to 8) (size 9 to 14) (size 15 to 20)
#    0.000    1.333    3.333    1.500    4.667    0.000 
#    0.000    4.167    0.000    0.000    0.000    0.000 
#    0.000    0.000    0.000    0.000    0.000    0.000 
#
# Total GULP energy -267577.109745 kJ/mol
# GULP energy per Si atom -5574.523120 kJ/mol
# Density = 2.356229 g / cm^3
# Si number density = 23.616038 Si / 1000 Ang^3
#
#
#
# Elastic Constant Matrix: (Units=GPa)
#
#
# Indices 1 2 3 4 5 6 
#
# 1 66.8098 24.0277 23.2311 0.0000 0.0000 0.0000
# 2 24.0277 66.8102 23.2314 0.0000 0.0000 0.0000
# 3 23.2311 23.2314 125.8807 0.0000 0.0000 0.0000
# 4 0.0000 0.0000 0.0000 32.3149 0.0000 0.0000
# 5 0.0000 0.0000 0.0000 0.0000 32.3146 0.0000
# 6 0.0000 0.0000 0.0000 0.0000 0.0000 39.8627
#
#
#
# Elastic Compliance Matrix: (Units=1/GPa)
#
#
# Indices 1 2 3 4 5 6 
#
# 1 0.017765 -0.005609 -0.002243 0.000000 0.000000 0.000000
# 2 -0.005609 0.017765 -0.002243 0.000000 0.000000 0.000000
# 3 -0.002243 -0.002243 0.008772 0.000000 0.000000 0.000000
# 4 0.000000 0.000000 0.000000 0.030946 0.000000 0.000000
# 5 0.000000 0.000000 0.000000 0.000000 0.030946 0.000000
# 6 0.000000 0.000000 0.000000 0.000000 0.000000 0.025086
#
#
# Mechanical properties :
#
#
# Convention : Reuss Voigt Hill
#
# Bulk Modulus (GPa) = 41.47540 44.49790 42.98665
# Shear Modulus (GPa) = 31.34635 33.49914 32.42275
#
# Velocity S-wave (km/s) = 3.64721 3.77037 3.70930
# Velocity P-wave (km/s) = 5.94447 6.15121 6.04872
#
# Compressibility (1/GPa) = 0.02411068
#
# Stress axis : x y z
#
# Youngs Moduli (GPa) = 56.28995 56.29021 113.99817
#
# Poissons Ratio (x) = 0.31573 0.25574
# Poissons Ratio (y) = 0.31573 0.25575
# Poissons Ratio (z) = 0.12628 0.12628
#
# Static dielectric constant tensor:
#      x y z
#    x 1.998100 0.000000 0.000000 
#    y 0.000000 1.998100 0.000000 
#    z 0.000000 0.000000 1.949620 
# 
# From -- ./inp_files/4462.got.cif
#   From: 2010.05.17/outbox.cif.g08.bks.cpg/sg92_3_cif.got.tgz:4462.got - 2010.06.03 19:35:17.
