data_PCOD9549445
_publ_section_title
;
Structure prediction by ZEFSAII (Michael W. Deem and Ramdas Pophale) SiO2 
 PCOD9549445
Probable space group: P 41 21 2
;
_chemical_formula_sum "Si O2"
_cell_formula_units_Z 36
_cell_length_a 12.229120
_cell_length_b 12.229120
_cell_length_c 11.046892
_cell_angle_alpha 90.000000
_cell_angle_beta 90.000000
_cell_angle_gamma 90.000000
_cell_volume 1652.077899
_symmetry_space_group_name_H-M "P 41 21 2"
_symmetry_group_IT_number 92
_symmetry_cell_setting 'tetragonal'
loop_
_space_group_symop_operation_xyz
x,y,z
1/2-y,1/2+x,1/4+z
-x,-y,1/2+z
1/2+y,1/2-x,3/4+z
1/2+x,1/2-y,3/4-z
1/2-x,1/2+y,1/4-z
y,x,-z
-y,-x,1/2-z
loop_
_atom_site_type_symbol
_atom_site_label
_atom_site_fract_x
_atom_site_fract_y
_atom_site_fract_z
Si Si1 0.561369 0.959186 0.701643
Si Si2 0.285480 0.419613 0.080759
Si Si3 0.646396 0.646396 0.000000
Si Si4 0.099578 0.137014 0.146925
Si Si5 0.306108 0.252278 0.256564
O O1 0.481912 0.977370 0.588327
O O2 0.611239 0.837072 0.701428
O O3 0.662215 0.041336 0.677718
O O4 0.358682 0.522507 0.047298
O O5 0.322494 0.375001 0.209513
O O6 0.315985 0.315985 0.000000
O O7 0.523525 0.657201 0.056033
O O8 0.737468 0.670283 0.102103
O O9 0.184945 0.221378 0.209017
O O10 0.123546 0.123546 0.000000
#
# Coordination Sequence:
#
# PCOD9549445 Si02
#       5
#     8   8   4   8   8
#     4  11  26  44  70 104 145 191 241 301 369 438
#     4  11  21  43  72  99 137 189 240 289 352 442
#     4  12  26  46  74 114 144 180 248 316 360 438
#     4  11  24  45  74 102 141 196 240 290 368 443
#     4  11  26  44  69 105 145 185 239 300 369 429
#
# _framework density 21.790742000000002
#
# number of rings (size 3 to 8) (size 9 to 14) (size 15 to 20)
#    0.000    0.889    5.556    0.667    3.111    5.333 
#    2.000    0.000    0.000    0.000    0.000    0.000 
#    0.000    0.000    0.000    0.000    0.000    0.000 
#
# Total GULP energy -200680.438156 kJ/mol
# GULP energy per Si atom -5574.456615 kJ/mol
# Density = 2.174115 g / cm^3
# Si number density = 21.790742 Si / 1000 Ang^3
#
#
#
# Elastic Constant Matrix: (Units=GPa)
#
#
# Indices 1 2 3 4 5 6 
#
# 1 72.1756 25.0881 29.1807 0.0000 0.0000 0.0000
# 2 25.0881 72.1756 29.1807 0.0000 0.0000 0.0000
# 3 29.1807 29.1807 134.6235 0.0000 0.0000 0.0000
# 4 0.0000 0.0000 0.0000 33.3550 0.0000 0.0000
# 5 0.0000 0.0000 0.0000 0.0000 33.3550 0.0000
# 6 0.0000 0.0000 0.0000 0.0000 0.0000 24.4539
#
#
#
# Elastic Compliance Matrix: (Units=1/GPa)
#
#
# Indices 1 2 3 4 5 6 
#
# 1 0.016528 -0.004709 -0.002562 0.000000 0.000000 0.000000
# 2 -0.004709 0.016528 -0.002562 0.000000 0.000000 0.000000
# 3 -0.002562 -0.002562 0.008539 0.000000 0.000000 0.000000
# 4 0.000000 0.000000 0.000000 0.029981 0.000000 0.000000
# 5 0.000000 0.000000 0.000000 0.000000 0.029981 0.000000
# 6 0.000000 0.000000 0.000000 0.000000 0.000000 0.040893
#
#
# Mechanical properties :
#
#
# Convention : Reuss Voigt Hill
#
# Bulk Modulus (GPa) = 45.60251 49.54152 47.57201
# Shear Modulus (GPa) = 29.51181 31.26778 30.38980
#
# Velocity S-wave (km/s) = 3.68411 3.79213 3.73851
# Velocity P-wave (km/s) = 6.25058 6.47751 6.36506
#
# Compressibility (1/GPa) = 0.02192862
#
# Stress axis : x y z
#
# Youngs Moduli (GPa) = 60.50430 60.50430 117.11416
#
# Poissons Ratio (x) = 0.28493 0.30002
# Poissons Ratio (y) = 0.28493 0.30002
# Poissons Ratio (z) = 0.15500 0.15500
#
# Static dielectric constant tensor:
#      x y z
#    x 1.805450 0.000000 0.000000 
#    y 0.000000 1.805450 0.000000 
#    z 0.000000 0.000000 1.950300 
# 
# From -- ./inp_files/2022.got.cif
#   From: 2010.05.17/outbox.cif.g08.bks.cpg/sg92_2_cif.got.tgz:2022.got - 2010.06.03 19:35:17.
