data_PCOD9549915
_publ_section_title
;
Structure prediction by ZEFSAII (Michael W. Deem and Ramdas Pophale) SiO2 
 PCOD9549915
Probable space group: P 42 21 2
;
_chemical_formula_sum "Si O2"
_cell_formula_units_Z 38
_cell_length_a 16.144089
_cell_length_b 16.144089
_cell_length_c 6.532152
_cell_angle_alpha 90.000000
_cell_angle_beta 90.000000
_cell_angle_gamma 90.000000
_cell_volume 1702.485290
_symmetry_space_group_name_H-M "P 42 21 2"
_symmetry_group_IT_number 94
_symmetry_cell_setting 'tetragonal'
loop_
_space_group_symop_operation_xyz
x,y,z
1/2-y,1/2+x,1/2+z
-x,-y,z
1/2+y,1/2-x,1/2+z
1/2+x,1/2-y,1/2-z
1/2-x,1/2+y,1/2-z
y,x,-z
-y,-x,-z
loop_
_atom_site_type_symbol
_atom_site_label
_atom_site_fract_x
_atom_site_fract_y
_atom_site_fract_z
Si Si1 0.088526 0.224064 0.068726
Si Si2 0.819118 0.180883 0.500000
Si Si3 0.500000 0.500000 0.000000
Si Si4 0.357099 0.877902 0.661862
Si Si5 0.053538 0.303409 0.481758
Si Si6 0.525157 0.661434 0.739695
O O1 0.085457 0.316659 0.971777
O O2 0.007031 0.174130 0.991106
O O3 0.165729 0.165729 0.000000
O O4 0.092246 0.246036 0.305898
O O5 0.730986 0.159909 0.595670
O O6 0.833114 0.119775 0.307746
O O7 0.577884 0.495916 0.151535
O O8 0.354258 0.974472 0.604305
O O9 0.382342 0.860994 0.896283
O O10 0.017511 0.237053 0.640763
#
# Coordination Sequence:
#
# PCOD9549915 Si02
#       6
#     8   4   2   8   8   8
#     4  11  22  41  63  94 131 174 224 274 337 399
#     4   9  18  41  64  98 132 177 220 277 336 404
#     4  10  16  36  62  88 140 190 208 280 326 386
#     4  10  22  43  66  96 132 173 227 277 341 402
#     4  10  23  42  65  96 131 175 226 285 332 407
#     4   9  20  36  60  93 137 170 228 268 322 402
#
# _framework density 22.320309000000002
#
# number of rings (size 3 to 8) (size 9 to 14) (size 15 to 20)
#    0.000    2.105    1.053    1.263    0.000    7.579 
#    3.789   19.474    0.000    0.000    0.000    0.000 
#    0.000    0.000    0.000    0.000    0.000    0.000 
#
# Total GULP energy -211922.741071 kJ/mol
# GULP energy per Si atom -5576.914239 kJ/mol
# Density = 2.226951 g / cm^3
# Si number density = 22.320309 Si / 1000 Ang^3
#
#
#
# Elastic Constant Matrix: (Units=GPa)
#
#
# Indices 1 2 3 4 5 6 
#
# 1 39.7013 81.2021 31.8474 0.0000 0.0000 0.0000
# 2 81.2021 39.7036 31.8494 0.0000 0.0000 0.0000
# 3 31.8474 31.8494 91.3760 0.0000 0.0000 0.0000
# 4 0.0000 0.0000 0.0000 -66.4464 0.0000 0.0000
# 5 0.0000 0.0000 0.0000 0.0000 -66.4325 0.0000
# 6 0.0000 0.0000 0.0000 0.0000 0.0000 19.9414
#
#
#
# Elastic Compliance Matrix: (Units=1/GPa)
#
#
# Indices 1 2 3 4 5 6 
#
# 1 -0.006983 0.017114 -0.003531 0.000000 0.000000 0.000000
# 2 0.017114 -0.006982 -0.003531 0.000000 0.000000 0.000000
# 3 -0.003531 -0.003531 0.013405 0.000000 0.000000 0.000000
# 4 0.000000 0.000000 0.000000 -0.015050 0.000000 0.000000
# 5 0.000000 0.000000 0.000000 0.000000 -0.015053 0.000000
# 6 0.000000 0.000000 0.000000 0.000000 0.000000 0.050147
#
#
# Mechanical properties :
#
#
# Convention : Reuss Voigt Hill
#
# Bulk Modulus (GPa) = 51.16862 51.17540 51.17201
# Shear Modulus (GPa) = 848.08071 -20.86204 413.60934
#
# Velocity S-wave (km/s) = 19.51369 -3.06055 13.62749
# Velocity P-wave (km/s) = 23.03663 3.23855 16.44954
#
# Compressibility (1/GPa) = 0.01954323
#
# Stress axis : x y z
#
# Youngs Moduli (GPa) = -143.21039 -143.21531 74.59718
#
# Poissons Ratio (x) = 2.45098 0.26343
# Poissons Ratio (y) = 2.45090 0.26340
# Poissons Ratio (z) = -0.50574 -0.50569
#
# Static dielectric constant tensor:
#      x y z
#    x 1.883780 0.000000 0.000000 
#    y 0.000000 1.883780 0.000000 
#    z 0.000000 0.000000 1.920700 
# 
# From -- ./inp_files/361.got.cif
#   From: 2010.05.17/outbox.cif.g08.bks.cpg/sg94_1_cif.got.tgz:361.got - 2010.06.03 19:43:16.
