data_PCOD9549051
_publ_section_title
;
Structure prediction by ZEFSAII (Michael W. Deem and Ramdas Pophale) SiO2 
 PCOD9549051
Probable space group: P 41 21 2
;
_chemical_formula_sum "Si O2"
_cell_formula_units_Z 24
_cell_length_a 9.164044
_cell_length_b 9.164044
_cell_length_c 9.586433
_cell_angle_alpha 90.000000
_cell_angle_beta 90.000000
_cell_angle_gamma 90.000000
_cell_volume 805.065791
_symmetry_space_group_name_H-M "P 41 21 2"
_symmetry_group_IT_number 92
_symmetry_cell_setting 'tetragonal'
loop_
_space_group_symop_operation_xyz
x,y,z
1/2-y,1/2+x,1/4+z
-x,-y,1/2+z
1/2+y,1/2-x,3/4+z
1/2+x,1/2-y,3/4-z
1/2-x,1/2+y,1/4-z
y,x,-z
-y,-x,1/2-z
loop_
_atom_site_type_symbol
_atom_site_label
_atom_site_fract_x
_atom_site_fract_y
_atom_site_fract_z
Si Si1 0.447887 0.252240 0.660886
Si Si2 0.236602 0.517386 0.743477
Si Si3 0.194817 0.042610 0.211442
O O1 0.380482 0.111206 0.590457
O O2 0.368779 0.313738 0.313843
O O3 0.511048 0.230546 0.814832
O O4 0.579907 0.325843 0.571359
O O5 0.380689 0.619312 0.750000
O O6 0.196105 0.528520 0.908424
O O7 0.089031 0.910970 0.250000
#
# Coordination Sequence:
#
# PCOD9549051 Si02
#       3
#     8   8   8
#     4  10  20  38  73 108 145 208 274 330 400 495
#     4  11  21  36  76 103 149 205 272 325 391 492
#     4   9  17  39  66 101 141 209 266 312 410 498
#
# _framework density 29.811226000000001
#
# number of rings (size 3 to 8) (size 9 to 14) (size 15 to 20)
#    0.000    2.000    6.667    1.000    0.000    0.000 
#    0.000    0.000   36.667    6.000    0.000    0.000 
#    0.000    0.000    0.000    0.000    0.000    0.000 
#
# Total GULP energy -134526.127970 kJ/mol
# GULP energy per Si atom -5605.255332 kJ/mol
# Density = 2.974337 g / cm^3
# Si number density = 29.811226 Si / 1000 Ang^3
#
#
#
# Elastic Constant Matrix: (Units=GPa)
#
#
# Indices 1 2 3 4 5 6 
#
# 1 207.9247 109.3915 100.8350 0.0000 0.0000 0.0000
# 2 109.3915 207.9252 100.8358 0.0000 0.0000 0.0000
# 3 100.8350 100.8358 293.7243 0.0000 0.0000 0.0000
# 4 0.0000 0.0000 0.0000 25.9251 0.0000 0.0000
# 5 0.0000 0.0000 0.0000 0.0000 25.9254 0.0000
# 6 0.0000 0.0000 0.0000 0.0000 0.0000 63.4974
#
#
#
# Elastic Compliance Matrix: (Units=1/GPa)
#
#
# Indices 1 2 3 4 5 6 
#
# 1 0.007090 -0.003059 -0.001384 0.000000 0.000000 0.000000
# 2 -0.003059 0.007090 -0.001384 0.000000 0.000000 0.000000
# 3 -0.001384 -0.001384 0.004355 0.000000 0.000000 0.000000
# 4 0.000000 0.000000 0.000000 0.038573 0.000000 0.000000
# 5 0.000000 0.000000 0.000000 0.000000 0.038572 0.000000
# 6 0.000000 0.000000 0.000000 0.000000 0.000000 0.015749
#
#
# Mechanical properties :
#
#
# Convention : Reuss Voigt Hill
#
# Bulk Modulus (GPa) = 145.32225 147.96650 146.64437
# Shear Modulus (GPa) = 39.88040 49.63705 44.75873
#
# Velocity S-wave (km/s) = 3.66151 4.08492 3.87900
# Velocity P-wave (km/s) = 8.16878 8.48475 8.32826
#
# Compressibility (1/GPa) = 0.00688126
#
# Stress axis : x y z
#
# Youngs Moduli (GPa) = 141.04629 141.04622 229.63833
#
# Poissons Ratio (x) = 0.43146 0.31777
# Poissons Ratio (y) = 0.43146 0.31778
# Poissons Ratio (z) = 0.19518 0.19518
#
# Static dielectric constant tensor:
#      x y z
#    x 2.364240 0.000000 0.000000 
#    y 0.000000 2.364230 0.000000 
#    z 0.000000 0.000000 2.576080 
# 
# From -- ./inp_files/1009.got.cif
#   From: 2010.05.17/outbox.cif.g08.bks.cpg/sg92_1_cif.got.tgz:1009.got - 2010.06.03 19:35:17.
