data_PCOD9549710
_publ_section_title
;
Structure prediction by ZEFSAII (Michael W. Deem and Ramdas Pophale) SiO2 
 PCOD9549710
Probable space group: P 42 2 2
;
_chemical_formula_sum "Si O2"
_cell_formula_units_Z 60
_cell_length_a 11.712407
_cell_length_b 11.712407
_cell_length_c 20.648603
_cell_angle_alpha 90.000000
_cell_angle_beta 90.000000
_cell_angle_gamma 90.000000
_cell_volume 2832.585224
_symmetry_space_group_name_H-M "P 42 2 2"
_symmetry_group_IT_number 93
_symmetry_cell_setting 'tetragonal'
loop_
_space_group_symop_operation_xyz
x,y,z
-y,x,1/2+z
-x,-y,z
y,-x,1/2+z
x,-y,-z
-x,y,-z
y,x,1/2-z
-y,-x,1/2-z
loop_
_atom_site_type_symbol
_atom_site_label
_atom_site_fract_x
_atom_site_fract_y
_atom_site_fract_z
Si Si1 0.065687 0.135219 0.823017
Si Si2 0.267757 0.192548 0.911453
Si Si3 0.843282 0.837034 0.100610
Si Si4 0.748701 0.000000 0.000000
Si Si5 0.815296 0.337189 0.703684
Si Si6 0.634436 0.863888 0.491881
Si Si7 0.039212 0.611496 0.214826
Si Si8 0.271931 0.578120 0.294393
O O1 0.090958 0.090958 0.750000
O O2 0.174597 0.122532 0.868834
O O3 0.053649 0.272517 0.822116
O O4 0.942434 0.109671 0.853861
O O5 0.319901 0.091527 0.956231
O O6 0.352750 0.253158 0.860910
O O7 0.204858 0.288847 0.955205
O O8 0.724764 0.843935 0.137831
O O9 0.849764 0.705575 0.075673
O O10 0.832723 0.916738 0.038970
O O11 0.755192 0.244809 0.750000
O O12 0.730646 0.443183 0.694474
O O13 0.934413 0.373807 0.735666
O O14 0.500000 0.830638 0.500000
O O15 0.639745 0.000000 0.500000
O O16 0.157680 0.598438 0.252075
O O17 0.000000 0.500000 0.175045
O O18 0.373513 0.626488 0.250000
#
# Coordination Sequence:
#
# PCOD9549710 Si02
#       8
#     8   8   8   4   8   8   8   8
#     4  12  22  37  62  98 127 164 207 256 331 391
#     4  11  21  41  63  90 124 163 215 260 318 367
#     4  11  24  43  60  93 133 169 211 266 323 383
#     4  10  26  43  61  88 130 172 213 261 310 384
#     4  11  24  41  63  95 135 167 208 260 333 394
#     4  10  22  40  64  91 117 162 223 271 313 363
#     4  10  20  37  59  90 125 161 209 256 303 385
#     4  11  22  41  68  94 126 169 215 265 320 390
#
# _framework density 21.182065000000001
#
# number of rings (size 3 to 8) (size 9 to 14) (size 15 to 20)
#    0.000    1.200    5.333    0.800    0.000    3.467 
#    2.400    3.333    0.000    0.800    0.000    0.000 
#    0.000    0.000    0.000    0.000    0.000    0.000 
#
# Total GULP energy -334779.158902 kJ/mol
# GULP energy per Si atom -5579.652648 kJ/mol
# Density = 2.113385 g / cm^3
# Si number density = 21.182065 Si / 1000 Ang^3
#
#
#
# Elastic Constant Matrix: (Units=GPa)
#
#
# Indices 1 2 3 4 5 6 
#
# 1 84.8708 -4.3129 11.9841 0.0000 0.0000 0.0000
# 2 -4.3129 84.8732 11.9843 0.0000 0.0000 0.0000
# 3 11.9841 11.9843 54.3372 0.0000 0.0000 0.0000
# 4 0.0000 0.0000 0.0000 14.3312 0.0000 0.0000
# 5 0.0000 0.0000 0.0000 0.0000 14.3309 0.0000
# 6 0.0000 0.0000 0.0000 0.0000 0.0000 14.8159
#
#
#
# Elastic Compliance Matrix: (Units=1/GPa)
#
#
# Indices 1 2 3 4 5 6 
#
# 1 0.012249 0.001036 -0.002930 0.000000 0.000000 0.000000
# 2 0.001036 0.012249 -0.002930 0.000000 0.000000 0.000000
# 3 -0.002930 -0.002930 0.019696 0.000000 0.000000 0.000000
# 4 0.000000 0.000000 0.000000 0.069778 0.000000 0.000000
# 5 0.000000 0.000000 0.000000 0.000000 0.069779 0.000000
# 6 0.000000 0.000000 0.000000 0.000000 0.000000 0.067495
#
#
# Mechanical properties :
#
#
# Convention : Reuss Voigt Hill
#
# Bulk Modulus (GPa) = 28.94698 29.26579 29.10638
# Shear Modulus (GPa) = 18.35474 22.32398 20.33936
#
# Velocity S-wave (km/s) = 2.94687 3.24992 3.10210
# Velocity P-wave (km/s) = 5.02734 5.28478 5.15767
#
# Compressibility (1/GPa) = 0.03454592
#
# Stress axis : x y z
#
# Youngs Moduli (GPa) = 81.63931 81.64158 50.77164
#
# Poissons Ratio (x) = -0.08460 0.14876
# Poissons Ratio (y) = -0.08459 0.14876
# Poissons Ratio (z) = 0.23921 0.23921
#
# Static dielectric constant tensor:
#      x y z
#    x 1.818180 0.000000 0.000000 
#    y 0.000000 1.818180 0.000000 
#    z 0.000000 0.000000 1.908180 
# 
# From -- ./inp_files/6345.got.cif
#   From: 2010.05.17/outbox.cif.g08.bks.cpg/sg93_4_cif.got.tgz:6345.got - 2010.06.03 19:38:44.
