data_PCOD9549918
_publ_section_title
;
Structure prediction by ZEFSAII (Michael W. Deem and Ramdas Pophale) SiO2 
 PCOD9549918
Probable space group: P 42 21 2
;
_chemical_formula_sum "Si O2"
_cell_formula_units_Z 40
_cell_length_a 14.922370
_cell_length_b 14.922370
_cell_length_c 8.620408
_cell_angle_alpha 90.000000
_cell_angle_beta 90.000000
_cell_angle_gamma 90.000000
_cell_volume 1919.567682
_symmetry_space_group_name_H-M "P 42 21 2"
_symmetry_group_IT_number 94
_symmetry_cell_setting 'tetragonal'
loop_
_space_group_symop_operation_xyz
x,y,z
1/2-y,1/2+x,1/2+z
-x,-y,z
1/2+y,1/2-x,1/2+z
1/2+x,1/2-y,1/2-z
1/2-x,1/2+y,1/2-z
y,x,-z
-y,-x,-z
loop_
_atom_site_type_symbol
_atom_site_label
_atom_site_fract_x
_atom_site_fract_y
_atom_site_fract_z
Si Si1 0.000000 0.000000 0.500000
Si Si2 0.651628 0.523993 0.248654
Si Si3 0.674111 0.728774 0.164156
Si Si4 0.000000 0.000000 0.000000
Si Si5 0.649738 0.011261 0.588512
Si Si6 0.000000 0.500000 0.157885
Si Si7 0.747567 0.872391 0.406373
O O1 0.004689 0.914743 0.607422
O O2 0.674837 0.628625 0.234199
O O3 0.590857 0.502509 0.398193
O O4 0.730896 0.454879 0.211147
O O5 0.575623 0.765371 0.114967
O O6 0.709257 0.794951 0.296573
O O7 0.727235 0.727235 0.000000
O O8 0.582895 0.032219 0.446800
O O9 0.585307 0.021057 0.735765
O O10 0.683815 0.912720 0.540553
O O11 0.830959 0.830959 0.500000
#
# Coordination Sequence:
#
# PCOD9549918 Si02
#       7
#     2   8   8   2   8   4   8
#     4  10  16  42  76  90 132 190 236 270 376 434
#     4  11  23  47  69 101 140 189 235 301 368 431
#     4  12  26  46  73 106 144 191 247 307 360 440
#     4  10  28  42  68  98 132 186 236 298 360 430
#     4  11  23  48  69 105 138 194 237 302 364 433
#     4  10  24  46  76  96 144 190 248 292 370 446
#     4  12  27  45  72 107 142 189 245 302 367 439
#
# _framework density 20.838027
#
# number of rings (size 3 to 8) (size 9 to 14) (size 15 to 20)
#    0.000    0.800    6.000    0.000    8.400    0.000 
#    3.600    0.000    0.000    0.000    0.000    0.000 
#    0.000    0.000    0.000    0.000    0.000    0.000 
#
# Total GULP energy -223246.592854 kJ/mol
# GULP energy per Si atom -5581.164821 kJ/mol
# Density = 2.079060 g / cm^3
# Si number density = 20.838027 Si / 1000 Ang^3
#
#
#
# Elastic Constant Matrix: (Units=GPa)
#
#
# Indices 1 2 3 4 5 6 
#
# 1 100.9635 47.5279 36.9278 0.0000 0.0000 0.0000
# 2 47.5279 100.9635 36.9278 0.0000 0.0000 0.0000
# 3 36.9278 36.9278 94.5560 0.0000 0.0000 0.0000
# 4 0.0000 0.0000 0.0000 -1.1500 0.0000 0.0000
# 5 0.0000 0.0000 0.0000 0.0000 -1.1500 0.0000
# 6 0.0000 0.0000 0.0000 0.0000 0.0000 42.7348
#
#
#
# Elastic Compliance Matrix: (Units=1/GPa)
#
#
# Indices 1 2 3 4 5 6 
#
# 1 0.013536 -0.005178 -0.003264 0.000000 0.000000 0.000000
# 2 -0.005178 0.013536 -0.003264 0.000000 0.000000 0.000000
# 3 -0.003264 -0.003264 0.013125 0.000000 0.000000 0.000000
# 4 0.000000 0.000000 0.000000 -0.869583 0.000000 0.000000
# 5 0.000000 0.000000 0.000000 0.000000 -0.869583 0.000000
# 6 0.000000 0.000000 0.000000 0.000000 0.000000 0.023400
#
#
# Mechanical properties :
#
#
# Convention : Reuss Voigt Hill
#
# Bulk Modulus (GPa) = 59.57819 59.91670 59.74744
# Shear Modulus (GPa) = -3.03663 19.76026 8.36182
#
# Velocity S-wave (km/s) = -1.20848 3.08275 2.00536
# Velocity P-wave (km/s) = 5.16778 6.44105 5.83922
#
# Compressibility (1/GPa) = 0.01678467
#
# Stress axis : x y z
#
# Youngs Moduli (GPa) = 73.87714 73.87714 76.18908
#
# Poissons Ratio (x) = 0.38255 0.24869
# Poissons Ratio (y) = 0.38255 0.24869
# Poissons Ratio (z) = 0.24114 0.24114
#
# Static dielectric constant tensor:
#      x y z
#    x 1.787770 0.000000 0.000000 
#    y 0.000000 1.787770 0.000000 
#    z 0.000000 0.000000 1.735650 
# 
# From -- ./inp_files/1505.got.cif
#   From: 2010.05.17/outbox.cif.g08.bks.cpg/sg94_1_cif.got.tgz:1505.got - 2010.06.03 19:43:16.
