data_PCOD9549100
_publ_section_title
;
Structure prediction by ZEFSAII (Michael W. Deem and Ramdas Pophale) SiO2 
 PCOD9549100
Probable space group: P 41 21 2
;
_chemical_formula_sum "Si O2"
_cell_formula_units_Z 48
_cell_length_a 18.203232
_cell_length_b 18.203232
_cell_length_c 8.142185
_cell_angle_alpha 90.000000
_cell_angle_beta 90.000000
_cell_angle_gamma 90.000000
_cell_volume 2697.975330
_symmetry_space_group_name_H-M "P 41 21 2"
_symmetry_group_IT_number 92
_symmetry_cell_setting 'tetragonal'
loop_
_space_group_symop_operation_xyz
x,y,z
1/2-y,1/2+x,1/4+z
-x,-y,1/2+z
1/2+y,1/2-x,3/4+z
1/2+x,1/2-y,3/4-z
1/2-x,1/2+y,1/4-z
y,x,-z
-y,-x,1/2-z
loop_
_atom_site_type_symbol
_atom_site_label
_atom_site_fract_x
_atom_site_fract_y
_atom_site_fract_z
Si Si1 0.586113 0.292485 0.722960
Si Si2 0.163767 0.354976 0.911908
Si Si3 0.258339 0.987018 0.714168
Si Si4 0.758539 0.068129 0.560025
Si Si5 0.296762 0.342187 0.675759
Si Si6 0.909761 0.521738 0.202439
O O1 0.641093 0.358908 0.750000
O O2 0.625410 0.215257 0.759442
O O3 0.554838 0.286823 0.537192
O O4 0.512122 0.294352 0.834762
O O5 0.224611 0.326553 0.782175
O O6 0.107404 0.408047 0.817977
O O7 0.205604 0.403692 0.048222
O O8 0.209077 0.928577 0.616448
O O9 0.330555 0.005269 0.612459
O O10 0.282075 0.945195 0.884194
O O11 0.818122 0.131401 0.525393
O O12 0.301262 0.301262 0.500000
O O13 0.951010 0.459598 0.303605
#
# Coordination Sequence:
#
# PCOD9549100 Si02
#       6
#     8   8   8   8   8   8
#     4  10  21  35  59  89 119 155 194 254 309 362
#     4  11  21  37  59  90 115 163 208 248 298 372
#     4   8  21  35  58  80 120 151 199 248 302 360
#     4   9  19  34  64  80 119 150 202 247 299 360
#     4   9  17  37  58  84 108 159 200 250 296 366
#     4  11  25  37  57  87 125 161 202 243 309 369
#
# _framework density 17.791118999999998
#
# number of rings (size 3 to 8) (size 9 to 14) (size 15 to 20)
#    1.000    1.333    0.000    2.500    4.667    0.000 
#    3.000    0.000    7.333    0.000    0.000    0.000 
#    0.000    0.000    0.000    0.000    0.000    0.000 
#
# Total GULP energy -267300.808911 kJ/mol
# GULP energy per Si atom -5568.766852 kJ/mol
# Density = 1.775063 g / cm^3
# Si number density = 17.791119 Si / 1000 Ang^3
#
#
#
# Elastic Constant Matrix: (Units=GPa)
#
#
# Indices 1 2 3 4 5 6 
#
# 1 43.5092 29.2522 7.9644 0.0000 0.0000 0.0000
# 2 29.2522 43.5105 7.9652 0.0000 0.0000 0.0000
# 3 7.9644 7.9652 35.8967 0.0000 0.0000 0.0000
# 4 0.0000 0.0000 0.0000 18.1263 0.0000 0.0000
# 5 0.0000 0.0000 0.0000 0.0000 18.1256 0.0000
# 6 0.0000 0.0000 0.0000 0.0000 0.0000 14.6701
#
#
#
# Elastic Compliance Matrix: (Units=1/GPa)
#
#
# Indices 1 2 3 4 5 6 
#
# 1 0.042292 -0.027846 -0.003205 0.000000 0.000000 0.000000
# 2 -0.027846 0.042291 -0.003206 0.000000 0.000000 0.000000
# 3 -0.003205 -0.003206 0.029280 0.000000 0.000000 0.000000
# 4 0.000000 0.000000 0.000000 0.055168 0.000000 0.000000
# 5 0.000000 0.000000 0.000000 0.000000 0.055171 0.000000
# 6 0.000000 0.000000 0.000000 0.000000 0.000000 0.068166
#
#
# Mechanical properties :
#
#
# Convention : Reuss Voigt Hill
#
# Bulk Modulus (GPa) = 22.05080 23.69778 22.87429
# Shear Modulus (GPa) = 13.29798 15.36670 14.33234
#
# Velocity S-wave (km/s) = 2.73692 2.94211 2.84137
# Velocity P-wave (km/s) = 4.73380 4.98902 4.86308
#
# Compressibility (1/GPa) = 0.04534983
#
# Stress axis : x y z
#
# Youngs Moduli (GPa) = 23.64527 23.64581 34.15301
#
# Poissons Ratio (x) = 0.65845 0.10944
# Poissons Ratio (y) = 0.65843 0.10948
# Poissons Ratio (z) = 0.07577 0.07580
#
# Static dielectric constant tensor:
#      x y z
#    x 1.597500 0.000000 0.000000 
#    y 0.000000 1.597500 0.000000 
#    z 0.000000 0.000000 1.635320 
# 
# From -- ./inp_files/1519.got.cif
#   From: 2010.05.17/outbox.cif.g08.bks.cpg/sg92_1_cif.got.tgz:1519.got - 2010.06.03 19:35:17.
