data_PCOD9549115
_publ_section_title
;
Structure prediction by ZEFSAII (Michael W. Deem and Ramdas Pophale) SiO2 
 PCOD9549115
Probable space group: P 41 21 2
;
_chemical_formula_sum "Si O2"
_cell_formula_units_Z 56
_cell_length_a 11.674731
_cell_length_b 11.674731
_cell_length_c 20.079768
_cell_angle_alpha 90.000000
_cell_angle_beta 90.000000
_cell_angle_gamma 90.000000
_cell_volume 2736.859205
_symmetry_space_group_name_H-M "P 41 21 2"
_symmetry_group_IT_number 92
_symmetry_cell_setting 'tetragonal'
loop_
_space_group_symop_operation_xyz
x,y,z
1/2-y,1/2+x,1/4+z
-x,-y,1/2+z
1/2+y,1/2-x,3/4+z
1/2+x,1/2-y,3/4-z
1/2-x,1/2+y,1/4-z
y,x,-z
-y,-x,1/2-z
loop_
_atom_site_type_symbol
_atom_site_label
_atom_site_fract_x
_atom_site_fract_y
_atom_site_fract_z
Si Si1 0.646921 0.205655 0.205667
Si Si2 0.545485 0.454516 0.750000
Si Si3 0.537991 0.537991 0.500000
Si Si4 0.601000 0.712885 0.703330
Si Si5 0.712261 0.479701 0.015600
Si Si6 0.051441 0.231000 0.111755
Si Si7 0.342877 0.268684 0.930955
Si Si8 0.238777 0.286320 0.327172
O O1 0.687731 0.312270 0.250000
O O2 0.509938 0.205532 0.205505
O O3 0.718206 0.097657 0.233590
O O4 0.696100 0.224032 0.132280
O O5 0.563757 0.583892 0.724300
O O6 0.626299 0.421678 0.812291
O O7 0.419574 0.526548 0.540619
O O8 0.547949 0.653786 0.455156
O O9 0.659141 0.709408 0.630520
O O10 0.692850 0.742456 0.759976
O O11 0.707943 0.435646 0.939910
O O12 0.778304 0.394531 0.062735
O O13 0.136504 0.336434 0.092404
O O14 0.915908 0.243731 0.100437
O O15 0.272766 0.272766 0.000000
#
# Coordination Sequence:
#
# PCOD9549115 Si02
#       8
#     8   4   4   8   8   8   8   8
#     4  12  25  44  69 100 140 175 230 289 338 412
#     4  10  21  37  72  98 128 178 228 287 335 410
#     4  10  21  39  72  96 126 182 236 281 335 410
#     4  11  23  44  68 101 135 179 231 284 343 416
#     4  12  23  45  68  99 140 180 230 283 354 414
#     4  11  21  42  64 101 135 180 229 286 346 404
#     4  10  22  42  66 101 136 176 234 286 339 401
#     4  11  26  41  70 100 137 184 229 278 357 415
#
# _framework density 20.461410999999998
#
# number of rings (size 3 to 8) (size 9 to 14) (size 15 to 20)
#    0.429    0.571    5.000    1.714    2.000    1.143 
#    2.571    1.429    0.000    0.000    0.000    0.000 
#    0.000    0.000    0.000    0.000    0.000    0.000 
#
# Total GULP energy -312039.943076 kJ/mol
# GULP energy per Si atom -5572.141841 kJ/mol
# Density = 2.041484 g / cm^3
# Si number density = 20.461411 Si / 1000 Ang^3
#
#
#
# Elastic Constant Matrix: (Units=GPa)
#
#
# Indices 1 2 3 4 5 6 
#
# 1 76.4760 15.0646 11.2587 0.0000 0.0000 0.0000
# 2 15.0646 76.4758 11.2539 0.0000 0.0000 0.0000
# 3 11.2587 11.2539 101.5744 0.0000 0.0000 0.0000
# 4 0.0000 0.0000 0.0000 -136.2330 0.0000 0.0000
# 5 0.0000 0.0000 0.0000 0.0000 -136.6906 0.0000
# 6 0.0000 0.0000 0.0000 0.0000 0.0000 28.1821
#
#
#
# Elastic Compliance Matrix: (Units=1/GPa)
#
#
# Indices 1 2 3 4 5 6 
#
# 1 0.013757 -0.002527 -0.001245 0.000000 0.000000 0.000000
# 2 -0.002527 0.013757 -0.001244 0.000000 0.000000 0.000000
# 3 -0.001245 -0.001244 0.010121 0.000000 0.000000 0.000000
# 4 0.000000 0.000000 0.000000 -0.007340 0.000000 0.000000
# 5 0.000000 0.000000 0.000000 0.000000 -0.007316 0.000000
# 6 0.000000 0.000000 0.000000 0.000000 0.000000 0.035483
#
#
# Mechanical properties :
#
#
# Convention : Reuss Voigt Hill
#
# Bulk Modulus (GPa) = 36.22772 36.63117 36.42945
# Shear Modulus (GPa) = 64.35457 -34.48503 14.93477
#
# Velocity S-wave (km/s) = 5.61426 -4.10978 2.70460
# Velocity P-wave (km/s) = 7.73113 2.13985 5.25317
#
# Compressibility (1/GPa) = 0.02760317
#
# Stress axis : x y z
#
# Youngs Moduli (GPa) = 72.69025 72.69110 98.80607
#
# Poissons Ratio (x) = 0.18367 0.12300
# Poissons Ratio (y) = 0.18367 0.12293
# Poissons Ratio (z) = 0.09049 0.09044
#
# Static dielectric constant tensor:
#      x y z
#    x 1.800550 0.000000 0.000000 
#    y 0.000000 1.800680 0.000000 
#    z 0.000000 0.000000 1.720670 
# 
# From -- ./inp_files/3606.got.cif
#   From: 2010.05.17/outbox.cif.g08.bks.cpg/sg92_2_cif.got.tgz:3606.got - 2010.06.03 19:35:17.
