data_PCOD9549529
_publ_section_title
;
Structure prediction by ZEFSAII (Michael W. Deem and Ramdas Pophale) SiO2 
 PCOD9549529
Probable space group: P 41 21 2
;
_chemical_formula_sum "Si O2"
_cell_formula_units_Z 24
_cell_length_a 9.850106
_cell_length_b 9.850106
_cell_length_c 8.813435
_cell_angle_alpha 90.000000
_cell_angle_beta 90.000000
_cell_angle_gamma 90.000000
_cell_volume 855.119902
_symmetry_space_group_name_H-M "P 41 21 2"
_symmetry_group_IT_number 92
_symmetry_cell_setting 'tetragonal'
loop_
_space_group_symop_operation_xyz
x,y,z
1/2-y,1/2+x,1/4+z
-x,-y,1/2+z
1/2+y,1/2-x,3/4+z
1/2+x,1/2-y,3/4-z
1/2-x,1/2+y,1/4-z
y,x,-z
-y,-x,1/2-z
loop_
_atom_site_type_symbol
_atom_site_label
_atom_site_fract_x
_atom_site_fract_y
_atom_site_fract_z
Si Si1 0.114283 0.590567 0.569403
Si Si2 0.137740 0.742714 0.033487
Si Si3 0.471983 0.471983 0.000000
Si Si4 0.643121 0.356880 0.750000
O O1 0.104651 0.528152 0.403500
O O2 0.183456 0.471355 0.668586
O O3 0.190387 0.733982 0.553879
O O4 0.050597 0.846814 0.135362
O O5 0.217368 0.645858 0.152776
O O6 0.458101 0.599627 0.111804
#
# Coordination Sequence:
#
# PCOD9549529 Si02
#       4
#     8   8   4   4
#     4  12  28  48  82 118 168 232 294 378 452 536
#     4  11  27  50  78 117 171 224 300 357 453 544
#     4  11  26  46  78 115 164 220 286 359 434 530
#     4  11  26  46  78 115 164 220 286 359 434 530
#
# _framework density 28.066240000000001
#
# number of rings (size 3 to 8) (size 9 to 14) (size 15 to 20)
#    0.000    0.667    0.000    5.000   18.667    0.000 
#    0.000    0.000    0.000    0.000    0.000    0.000 
#    0.000    0.000    0.000    0.000    0.000    0.000 
#
# Total GULP energy -134470.711442 kJ/mol
# GULP energy per Si atom -5602.946310 kJ/mol
# Density = 2.800236 g / cm^3
# Si number density = 28.066240 Si / 1000 Ang^3
#
#
#
# Elastic Constant Matrix: (Units=GPa)
#
#
# Indices 1 2 3 4 5 6 
#
# 1 154.3275 103.9301 94.7847 0.0000 0.0000 0.0000
# 2 103.9301 154.3269 94.7848 0.0000 0.0000 0.0000
# 3 94.7847 94.7848 206.2526 0.0000 0.0000 0.0000
# 4 0.0000 0.0000 0.0000 78.0473 0.0000 0.0000
# 5 0.0000 0.0000 0.0000 0.0000 78.0477 0.0000
# 6 0.0000 0.0000 0.0000 0.0000 0.0000 60.0366
#
#
#
# Elastic Compliance Matrix: (Units=1/GPa)
#
#
# Indices 1 2 3 4 5 6 
#
# 1 0.012843 -0.007000 -0.002685 0.000000 0.000000 0.000000
# 2 -0.007000 0.012843 -0.002685 0.000000 0.000000 0.000000
# 3 -0.002685 -0.002685 0.007316 0.000000 0.000000 0.000000
# 4 0.000000 0.000000 0.000000 0.012813 0.000000 0.000000
# 5 0.000000 0.000000 0.000000 0.000000 0.012813 0.000000
# 6 0.000000 0.000000 0.000000 0.000000 0.000000 0.016657
#
#
# Mechanical properties :
#
#
# Convention : Reuss Voigt Hill
#
# Bulk Modulus (GPa) = 121.03942 122.43402 121.73672
# Shear Modulus (GPa) = 48.64841 57.98682 53.31762
#
# Velocity S-wave (km/s) = 4.16786 4.55034 4.36329
# Velocity P-wave (km/s) = 8.14748 8.44543 8.29779
#
# Compressibility (1/GPa) = 0.00826177
#
# Stress axis : x y z
#
# Youngs Moduli (GPa) = 77.86486 77.86442 136.67750
#
# Poissons Ratio (x) = 0.54502 0.36701
# Poissons Ratio (y) = 0.54502 0.36702
# Poissons Ratio (z) = 0.20909 0.20909
#
# Static dielectric constant tensor:
#      x y z
#    x 2.303020 0.000000 0.000000 
#    y 0.000000 2.303020 0.000000 
#    z 0.000000 0.000000 2.133340 
# 
# From -- ./inp_files/1026.got.cif
#   From: 2010.05.17/outbox.cif.g08.bks.cpg/sg92_1_cif.got.tgz:1026.got - 2010.06.03 19:35:17.
