data_PCOD9549033
_publ_section_title
;
Structure prediction by ZEFSAII (Michael W. Deem and Ramdas Pophale) SiO2 
 PCOD9549033
Probable space group: P 41 21 2
;
_chemical_formula_sum "Si O2"
_cell_formula_units_Z 48
_cell_length_a 7.783519
_cell_length_b 7.783519
_cell_length_c 33.718139
_cell_angle_alpha 90.000000
_cell_angle_beta 90.000000
_cell_angle_gamma 90.000000
_cell_volume 2042.751680
_symmetry_space_group_name_H-M "P 41 21 2"
_symmetry_group_IT_number 92
_symmetry_cell_setting 'tetragonal'
loop_
_space_group_symop_operation_xyz
x,y,z
1/2-y,1/2+x,1/4+z
-x,-y,1/2+z
1/2+y,1/2-x,3/4+z
1/2+x,1/2-y,3/4-z
1/2-x,1/2+y,1/4-z
y,x,-z
-y,-x,1/2-z
loop_
_atom_site_type_symbol
_atom_site_label
_atom_site_fract_x
_atom_site_fract_y
_atom_site_fract_z
Si Si1 0.861328 0.138673 0.750000
Si Si2 0.765614 0.697605 0.255565
Si Si3 0.277062 0.722939 0.750000
Si Si4 0.325335 0.355681 0.328863
Si Si5 0.818175 0.622294 0.338270
Si Si6 0.303208 0.767838 0.834959
Si Si7 0.776148 0.295069 0.830345
O O1 0.765379 0.195027 0.789671
O O2 0.056098 0.199660 0.753758
O O3 0.756493 0.485244 0.253585
O O4 0.674597 0.758201 0.214659
O O5 0.722444 0.721727 0.302113
O O6 0.229316 0.819359 0.791292
O O7 0.491453 0.236649 0.330963
O O8 0.235277 0.343562 0.371825
O O9 0.364538 0.555725 0.327689
O O10 0.765953 0.425047 0.337914
O O11 0.762233 0.692448 0.380369
O O12 0.025108 0.638588 0.332665
#
# Coordination Sequence:
#
# PCOD9549033 Si02
#       7
#     4   8   4   8   8   8   8
#     4  10  22  39  62  91 124 162 206 260 314 370
#     4   9  20  39  62  88 121 163 208 258 313 375
#     4   8  18  37  62  87 118 164 210 256 312 378
#     4  11  22  37  60  89 120 162 206 252 312 375
#     4  10  21  40  60  85 119 155 202 256 309 370
#     4  10  20  38  60  84 119 158 205 256 307 370
#     4  11  23  37  60  90 120 159 203 252 314 375
#
# _framework density 23.497713999999998
#
# number of rings (size 3 to 8) (size 9 to 14) (size 15 to 20)
#    0.000    2.000    0.000    3.000    0.000    8.000 
#    0.000    6.667    0.000    5.000    0.000    0.000 
#    0.000    0.000    0.000    0.000    0.000    0.000 
#
# Total GULP energy -267254.038728 kJ/mol
# GULP energy per Si atom -5567.792473 kJ/mol
# Density = 2.344423 g / cm^3
# Si number density = 23.497714 Si / 1000 Ang^3
#
#
#
# Elastic Constant Matrix: (Units=GPa)
#
#
# Indices 1 2 3 4 5 6 
#
# 1 171.0031 -126.6867 24.0079 0.0000 0.0000 0.0000
# 2 -126.6867 170.9912 24.0118 0.0000 0.0000 0.0000
# 3 24.0079 24.0118 262.2811 0.0000 0.0000 0.0000
# 4 0.0000 0.0000 0.0000 40.3206 0.0000 0.0000
# 5 0.0000 0.0000 0.0000 0.0000 40.3207 0.0000
# 6 0.0000 0.0000 0.0000 0.0000 0.0000 30.2424
#
#
#
# Elastic Compliance Matrix: (Units=1/GPa)
#
#
# Indices 1 2 3 4 5 6 
#
# 1 0.014206 0.010847 -0.002293 0.000000 0.000000 0.000000
# 2 0.010847 0.014207 -0.002294 0.000000 0.000000 0.000000
# 3 -0.002293 -0.002294 0.004233 0.000000 0.000000 0.000000
# 4 0.000000 0.000000 0.000000 0.024801 0.000000 0.000000
# 5 0.000000 0.000000 0.000000 0.000000 0.024801 0.000000
# 6 0.000000 0.000000 0.000000 0.000000 0.000000 0.033066
#
#
# Mechanical properties :
#
#
# Convention : Reuss Voigt Hill
#
# Bulk Modulus (GPa) = 22.14066 49.66016 35.90041
# Shear Modulus (GPa) = 42.42725 67.70623 55.06674
#
# Velocity S-wave (km/s) = 4.25383 5.37369 4.84622
# Velocity P-wave (km/s) = 5.79394 7.72541 6.82831
#
# Compressibility (1/GPa) = 0.04516578
#
# Stress axis : x y z
#
# Youngs Moduli (GPa) = 70.39347 70.38823 236.26127
#
# Poissons Ratio (x) = -0.76351 0.54184
# Poissons Ratio (y) = -0.76357 0.54187
# Poissons Ratio (z) = 0.16144 0.16144
#
# Static dielectric constant tensor:
#      x y z
#    x 1.724850 0.000000 0.000000 
#    y 0.000000 1.724830 0.000000 
#    z 0.000000 0.000000 1.930520 
# 
# From -- ./inp_files/4554.got.cif
#   From: 2010.05.17/outbox.cif.g08.bks.cpg/sg92_3_cif.got.tgz:4554.got - 2010.06.03 19:35:17.
