data_PCOD9549974
_publ_section_title
;
Structure prediction by ZEFSAII (Michael W. Deem and Ramdas Pophale) SiO2 
 PCOD9549974
Probable space group: P 42 21 2
;
_chemical_formula_sum "Si O2"
_cell_formula_units_Z 64
_cell_length_a 11.386692
_cell_length_b 11.386692
_cell_length_c 22.413542
_cell_angle_alpha 90.000000
_cell_angle_beta 90.000000
_cell_angle_gamma 90.000000
_cell_volume 2906.067117
_symmetry_space_group_name_H-M "P 42 21 2"
_symmetry_group_IT_number 94
_symmetry_cell_setting 'tetragonal'
loop_
_space_group_symop_operation_xyz
x,y,z
1/2-y,1/2+x,1/2+z
-x,-y,z
1/2+y,1/2-x,1/2+z
1/2+x,1/2-y,1/2-z
1/2-x,1/2+y,1/2-z
y,x,-z
-y,-x,-z
loop_
_atom_site_type_symbol
_atom_site_label
_atom_site_fract_x
_atom_site_fract_y
_atom_site_fract_z
Si Si1 0.860755 0.677612 0.982858
Si Si2 0.265100 0.112483 0.632841
Si Si3 0.548358 0.870924 0.418930
Si Si4 0.927746 0.889379 0.717806
Si Si5 0.907551 0.725824 0.185121
Si Si6 0.183887 0.347559 0.849149
Si Si7 0.432886 0.744947 0.998730
Si Si8 0.460520 0.169592 0.726491
O O1 0.880747 0.668424 0.912566
O O2 0.773293 0.570310 0.000254
O O3 0.797052 0.797052 0.000000
O O4 0.975211 0.661990 0.022008
O O5 0.149080 0.164748 0.664185
O O6 0.288035 0.117921 0.562636
O O7 0.373896 0.162830 0.670047
O O8 0.250849 0.971683 0.645647
O O9 0.505589 0.785718 0.366060
O O10 0.680264 0.881164 0.443558
O O11 0.500000 0.000000 0.401893
O O12 0.834425 0.924701 0.769608
O O13 0.017767 0.797676 0.746366
O O14 0.000000 0.000000 0.696345
O O15 0.773704 0.745043 0.160345
O O16 0.903667 0.606526 0.223223
O O17 0.088856 0.364859 0.796966
O O18 0.389115 0.610886 0.000000
#
# Coordination Sequence:
#
# PCOD9549974 Si02
#       8
#     8   8   8   8   8   8   8   8
#     4  10  19  37  64  86 114 154 206 257 306 367
#     4  10  21  39  60  84 118 163 200 256 318 369
#     4  10  21  37  60  89 120 156 204 261 309 376
#     4  10  22  38  56  86 123 162 205 253 308 379
#     4  10  21  36  58  87 117 158 200 250 316 364
#     4  10  19  36  60  85 115 152 203 256 303 373
#     4  10  23  40  57  90 123 158 201 254 321 377
#     4  10  21  36  59  87 119 157 209 248 304 378
#
# _framework density 22.022888999999999
#
# number of rings (size 3 to 8) (size 9 to 14) (size 15 to 20)
#    0.000    2.000    1.250    1.875    0.000    7.250 
#    4.500    1.250    0.000    0.000    0.000    0.000 
#    0.000    0.000    0.000    0.000    0.000    0.000 
#
# Total GULP energy -357237.407301 kJ/mol
# GULP energy per Si atom -5581.834489 kJ/mol
# Density = 2.197276 g / cm^3
# Si number density = 22.022889 Si / 1000 Ang^3
#
#
#
# Elastic Constant Matrix: (Units=GPa)
#
#
# Indices 1 2 3 4 5 6 
#
# 1 37.6925 27.1017 16.0416 0.0000 0.0000 0.0000
# 2 27.1017 37.6939 16.0417 0.0000 0.0000 0.0000
# 3 16.0416 16.0417 116.9044 0.0000 0.0000 0.0000
# 4 0.0000 0.0000 0.0000 16.4472 0.0000 0.0000
# 5 0.0000 0.0000 0.0000 0.0000 16.4467 0.0000
# 6 0.0000 0.0000 0.0000 0.0000 0.0000 27.1013
#
#
#
# Elastic Compliance Matrix: (Units=1/GPa)
#
#
# Indices 1 2 3 4 5 6 
#
# 1 0.055488 -0.038928 -0.002272 0.000000 0.000000 0.000000
# 2 -0.038928 0.055486 -0.002272 0.000000 0.000000 0.000000
# 3 -0.002272 -0.002272 0.009178 0.000000 0.000000 0.000000
# 4 0.000000 0.000000 0.000000 0.060800 0.000000 0.000000
# 5 0.000000 0.000000 0.000000 0.000000 0.060803 0.000000
# 6 0.000000 0.000000 0.000000 0.000000 0.000000 0.036899
#
#
# Mechanical properties :
#
#
# Convention : Reuss Voigt Hill
#
# Bulk Modulus (GPa) = 30.11529 34.51786 32.31657
# Shear Modulus (GPa) = 13.27434 20.87277 17.07356
#
# Velocity S-wave (km/s) = 2.45776 3.08194 2.78738
# Velocity P-wave (km/s) = 4.66459 5.32655 5.00652
#
# Compressibility (1/GPa) = 0.03320573
#
# Stress axis : x y z
#
# Youngs Moduli (GPa) = 18.02199 18.02268 108.96134
#
# Poissons Ratio (x) = 0.70159 0.24759
# Poissons Ratio (y) = 0.70157 0.24756
# Poissons Ratio (z) = 0.04095 0.04095
#
# Static dielectric constant tensor:
#      x y z
#    x 1.807140 0.000000 0.000000 
#    y 0.000000 1.807130 0.000000 
#    z 0.000000 0.000000 1.811230 
# 
# From -- ./inp_files/5179.got.cif
#   From: 2010.05.17/outbox.cif.g08.bks.cpg/sg94_3_cif.got.tgz:5179.got - 2010.06.03 19:43:16.
