data_PCOD9549948
_publ_section_title
;
Structure prediction by ZEFSAII (Michael W. Deem and Ramdas Pophale) SiO2 
 PCOD9549948
Probable space group: P 42 21 2
;
_chemical_formula_sum "Si O2"
_cell_formula_units_Z 34
_cell_length_a 9.174967
_cell_length_b 9.174967
_cell_length_c 17.503597
_cell_angle_alpha 90.000000
_cell_angle_beta 90.000000
_cell_angle_gamma 90.000000
_cell_volume 1473.453136
_symmetry_space_group_name_H-M "P 42 21 2"
_symmetry_group_IT_number 94
_symmetry_cell_setting 'tetragonal'
loop_
_space_group_symop_operation_xyz
x,y,z
1/2-y,1/2+x,1/2+z
-x,-y,z
1/2+y,1/2-x,1/2+z
1/2+x,1/2-y,1/2-z
1/2-x,1/2+y,1/2-z
y,x,-z
-y,-x,-z
loop_
_atom_site_type_symbol
_atom_site_label
_atom_site_fract_x
_atom_site_fract_y
_atom_site_fract_z
Si Si1 0.011666 0.326129 0.206081
Si Si2 0.174934 0.310804 0.841416
Si Si3 0.658590 0.341411 0.000000
Si Si4 0.377589 0.283507 0.615958
Si Si5 0.665585 0.665585 0.000000
Si Si6 0.500000 0.500000 0.500000
O O1 0.171642 0.261123 0.192030
O O2 0.212763 0.500466 0.331221
O O3 0.000000 0.500000 0.189233
O O4 0.952611 0.292076 0.290990
O O5 0.230761 0.901231 0.846784
O O6 0.225042 0.324026 0.929182
O O7 0.679116 0.221520 0.065261
O O8 0.676891 0.502497 0.033483
O O9 0.482312 0.365677 0.555753
#
# Coordination Sequence:
#
# PCOD9549948 Si02
#       6
#     8   8   4   8   4   2
#     4  12  27  46  72 111 149 204 248 309 383 455
#     4  12  27  48  76 112 151 202 254 317 377 461
#     4  10  26  46  74 106 148 194 244 328 378 456
#     4  11  23  46  75 106 147 192 253 311 377 448
#     4  11  27  50  74 108 150 196 262 316 386 462
#     4  10  18  42  74 106 140 186 242 306 370 422
#
# _framework density 23.075046
#
# number of rings (size 3 to 8) (size 9 to 14) (size 15 to 20)
#    0.000    0.706    2.353    3.529    9.882    0.000 
#    4.235    0.000    0.000    0.000    0.000    0.000 
#    0.000    0.000    0.000    0.000    0.000    0.000 
#
# Total GULP energy -190097.480091 kJ/mol
# GULP energy per Si atom -5591.102356 kJ/mol
# Density = 2.302253 g / cm^3
# Si number density = 23.075046 Si / 1000 Ang^3
#
#
#
# Elastic Constant Matrix: (Units=GPa)
#
#
# Indices 1 2 3 4 5 6 
#
# 1 118.5046 74.2772 41.2298 0.0000 0.0000 0.0000
# 2 74.2772 118.5043 41.2297 0.0000 0.0000 0.0000
# 3 41.2298 41.2297 92.2519 0.0000 0.0000 0.0000
# 4 0.0000 0.0000 0.0000 56.3562 0.0000 0.0000
# 5 0.0000 0.0000 0.0000 0.0000 56.3572 0.0000
# 6 0.0000 0.0000 0.0000 0.0000 0.0000 38.8579
#
#
#
# Elastic Compliance Matrix: (Units=1/GPa)
#
#
# Indices 1 2 3 4 5 6 
#
# 1 0.014512 -0.008099 -0.002866 0.000000 0.000000 0.000000
# 2 -0.008099 0.014512 -0.002866 0.000000 0.000000 0.000000
# 3 -0.002866 -0.002866 0.013402 0.000000 0.000000 0.000000
# 4 0.000000 0.000000 0.000000 0.017744 0.000000 0.000000
# 5 0.000000 0.000000 0.000000 0.000000 0.017744 0.000000
# 6 0.000000 0.000000 0.000000 0.000000 0.000000 0.025735
#
#
# Mechanical properties :
#
#
# Convention : Reuss Voigt Hill
#
# Bulk Modulus (GPa) = 67.73521 71.41489 69.57505
# Shear Modulus (GPa) = 36.70213 41.81588 39.25900
#
# Velocity S-wave (km/s) = 3.99250 4.26158 4.12923
# Velocity P-wave (km/s) = 7.11839 7.43175 7.27676
#
# Compressibility (1/GPa) = 0.01476337
#
# Stress axis : x y z
#
# Youngs Moduli (GPa) = 68.90929 68.90913 74.61649
#
# Poissons Ratio (x) = 0.55807 0.21387
# Poissons Ratio (y) = 0.55807 0.21387
# Poissons Ratio (z) = 0.19751 0.19751
#
# Static dielectric constant tensor:
#      x y z
#    x 1.750180 0.000000 0.000000 
#    y 0.000000 1.750190 0.000000 
#    z 0.000000 0.000000 1.926590 
# 
# From -- ./inp_files/4577.got.cif
#   From: 2010.05.17/outbox.cif.g08.bks.cpg/sg94_3_cif.got.tgz:4577.got - 2010.06.03 19:43:16.
