data_PCOD9549000
_publ_section_title
;
Structure prediction by ZEFSAII (Michael W. Deem and Ramdas Pophale) SiO2 
 PCOD9549000
Probable space group: P 41 21 2
;
_chemical_formula_sum "Si O2"
_cell_formula_units_Z 40
_cell_length_a 8.544313
_cell_length_b 8.544313
_cell_length_c 23.381086
_cell_angle_alpha 90.000000
_cell_angle_beta 90.000000
_cell_angle_gamma 90.000000
_cell_volume 1706.942839
_symmetry_space_group_name_H-M "P 41 21 2"
_symmetry_group_IT_number 92
_symmetry_cell_setting 'tetragonal'
loop_
_space_group_symop_operation_xyz
x,y,z
1/2-y,1/2+x,1/4+z
-x,-y,1/2+z
1/2+y,1/2-x,3/4+z
1/2+x,1/2-y,3/4-z
1/2-x,1/2+y,1/4-z
y,x,-z
-y,-x,1/2-z
loop_
_atom_site_type_symbol
_atom_site_label
_atom_site_fract_x
_atom_site_fract_y
_atom_site_fract_z
Si Si1 0.488727 0.291249 0.723032
Si Si2 0.539377 0.470237 0.892048
Si Si3 0.047501 0.527635 0.614734
Si Si4 0.831206 0.251377 0.913184
Si Si5 0.221418 0.756285 0.815211
O O1 0.652809 0.347192 0.750000
O O2 0.464275 0.409976 0.670431
O O3 0.488561 0.122175 0.693950
O O4 0.360474 0.304399 0.772413
O O5 0.666585 0.335150 0.905665
O O6 0.377533 0.381270 0.882538
O O7 0.581367 0.612069 0.933667
O O8 0.112014 0.360387 0.596907
O O9 0.173789 0.634774 0.648609
O O10 0.892200 0.543339 0.652663
O O11 0.269816 0.730185 0.750000
#
# Coordination Sequence:
#
# PCOD9549000 Si02
#       5
#     8   8   8   8   8
#     4   8  15  32  54  73 101 137 173 218 265 313
#     4   9  19  33  52  76 104 137 176 220 266 320
#     4  10  20  35  56  81 109 145 184 223 276 337
#     4   9  17  33  53  75 101 134 177 222 264 319
#     4  10  21  39  55  79 117 147 178 231 283 327
#
# _framework density 23.433709
#
# number of rings (size 3 to 8) (size 9 to 14) (size 15 to 20)
#    0.000    3.200    0.000    2.400    0.000    1.600 
#    0.000   34.000    0.000    0.000    0.000    0.000 
#    0.000    0.000    0.000    0.000    0.000    0.000 
#
# Total GULP energy -223234.502839 kJ/mol
# GULP energy per Si atom -5580.862571 kJ/mol
# Density = 2.338037 g / cm^3
# Si number density = 23.433709 Si / 1000 Ang^3
#
#
#
# Elastic Constant Matrix: (Units=GPa)
#
#
# Indices 1 2 3 4 5 6 
#
# 1 46.4471 54.8505 18.2776 0.0000 0.0000 0.0000
# 2 54.8505 46.4476 18.2778 0.0000 0.0000 0.0000
# 3 18.2776 18.2778 116.2232 0.0000 0.0000 0.0000
# 4 0.0000 0.0000 0.0000 12.5986 0.0000 0.0000
# 5 0.0000 0.0000 0.0000 0.0000 12.5983 0.0000
# 6 0.0000 0.0000 0.0000 0.0000 0.0000 60.8453
#
#
#
# Elastic Compliance Matrix: (Units=1/GPa)
#
#
# Indices 1 2 3 4 5 6 
#
# 1 -0.054269 0.064735 -0.001646 0.000000 0.000000 0.000000
# 2 0.064735 -0.054269 -0.001646 0.000000 0.000000 0.000000
# 3 -0.001646 -0.001646 0.009122 0.000000 0.000000 0.000000
# 4 0.000000 0.000000 0.000000 0.079374 0.000000 0.000000
# 5 0.000000 0.000000 0.000000 0.000000 0.079376 0.000000
# 6 0.000000 0.000000 0.000000 0.000000 0.000000 0.016435
#
#
# Mechanical properties :
#
#
# Convention : Reuss Voigt Hill
#
# Bulk Modulus (GPa) = 42.60777 43.54774 43.07776
# Shear Modulus (GPa) = -127.24603 25.05592 -51.09506
#
# Velocity S-wave (km/s) = -7.37688 3.27345 -4.67455
# Velocity P-wave (km/s) = 7.37130 5.73681 3.27300
#
# Compressibility (1/GPa) = 0.02346990
#
# Stress axis : x y z
#
# Youngs Moduli (GPa) = -18.42668 -18.42686 109.62730
#
# Poissons Ratio (x) = 1.19286 0.18044
# Poissons Ratio (y) = 1.19285 0.18043
# Poissons Ratio (z) = -0.03033 -0.03033
#
# Static dielectric constant tensor:
#      x y z
#    x 1.944940 0.000000 0.000000 
#    y 0.000000 1.944940 0.000000 
#    z 0.000000 0.000000 1.904360 
# 
# From -- ./inp_files/3756.got.cif
#   From: 2010.05.17/outbox.cif.g08.bks.cpg/sg92_2_cif.got.tgz:3756.got - 2010.06.03 19:35:17.
