data_PCOD9549413
_publ_section_title
;
Structure prediction by ZEFSAII (Michael W. Deem and Ramdas Pophale) SiO2 
 PCOD9549413
Probable space group: P 41 21 2
;
_chemical_formula_sum "Si O2"
_cell_formula_units_Z 32
_cell_length_a 8.792658
_cell_length_b 8.792658
_cell_length_c 18.637217
_cell_angle_alpha 90.000000
_cell_angle_beta 90.000000
_cell_angle_gamma 90.000000
_cell_volume 1440.858803
_symmetry_space_group_name_H-M "P 41 21 2"
_symmetry_group_IT_number 92
_symmetry_cell_setting 'tetragonal'
loop_
_space_group_symop_operation_xyz
x,y,z
1/2-y,1/2+x,1/4+z
-x,-y,1/2+z
1/2+y,1/2-x,3/4+z
1/2+x,1/2-y,3/4-z
1/2-x,1/2+y,1/4-z
y,x,-z
-y,-x,1/2-z
loop_
_atom_site_type_symbol
_atom_site_label
_atom_site_fract_x
_atom_site_fract_y
_atom_site_fract_z
Si Si1 0.560330 0.828087 0.248593
Si Si2 0.014148 0.860361 0.061173
Si Si3 0.996054 0.830198 0.810775
Si Si4 0.513051 0.037069 0.132043
O O1 0.556200 0.661744 0.280067
O O2 0.695375 0.063277 0.138788
O O3 0.487116 0.944803 0.304710
O O4 0.483874 0.877379 0.173649
O O5 0.050232 0.684902 0.077838
O O6 0.956503 0.932833 0.135666
O O7 0.885407 0.885407 0.000000
O O8 0.867731 0.736512 0.767755
O O9 0.107069 0.892932 0.750000
#
# Coordination Sequence:
#
# PCOD9549413 Si02
#       4
#     8   8   8   8
#     4  10  27  41  74 101 144 178 240 294 355 416
#     4  12  27  43  75 104 141 191 238 296 362 424
#     4  10  26  43  75  98 142 181 246 284 356 425
#     4  10  25  45  70 100 143 183 237 290 358 424
#
# _framework density 22.208974000000001
#
# number of rings (size 3 to 8) (size 9 to 14) (size 15 to 20)
#    1.500    0.000    0.000    2.250   17.500    0.000 
#    0.000    0.000    0.000    0.000    0.000    0.000 
#    0.000    0.000    0.000    0.000    0.000    0.000 
#
# Total GULP energy -178433.986992 kJ/mol
# GULP energy per Si atom -5576.062093 kJ/mol
# Density = 2.215843 g / cm^3
# Si number density = 22.208974 Si / 1000 Ang^3
#
#
#
# Elastic Constant Matrix: (Units=GPa)
#
#
# Indices 1 2 3 4 5 6 
#
# 1 43.1322 23.0920 12.8292 0.0000 0.0000 0.0000
# 2 23.0920 43.1340 12.8302 0.0000 0.0000 0.0000
# 3 12.8292 12.8302 46.1096 0.0000 0.0000 0.0000
# 4 0.0000 0.0000 0.0000 33.4778 0.0000 0.0000
# 5 0.0000 0.0000 0.0000 0.0000 33.4772 0.0000
# 6 0.0000 0.0000 0.0000 0.0000 0.0000 19.2500
#
#
#
# Elastic Compliance Matrix: (Units=1/GPa)
#
#
# Indices 1 2 3 4 5 6 
#
# 1 0.033412 -0.016486 -0.004709 0.000000 0.000000 0.000000
# 2 -0.016486 0.033411 -0.004710 0.000000 0.000000 0.000000
# 3 -0.004709 -0.004710 0.024308 0.000000 0.000000 0.000000
# 4 0.000000 0.000000 0.000000 0.029870 0.000000 0.000000
# 5 0.000000 0.000000 0.000000 0.000000 0.029871 0.000000
# 6 0.000000 0.000000 0.000000 0.000000 0.000000 0.051948
#
#
# Mechanical properties :
#
#
# Convention : Reuss Voigt Hill
#
# Bulk Modulus (GPa) = 25.43193 25.54205 25.48699
# Shear Modulus (GPa) = 18.67508 22.81596 20.74552
#
# Velocity S-wave (km/s) = 2.90294 3.20868 3.05963
# Velocity P-wave (km/s) = 4.76572 5.02526 4.89721
#
# Compressibility (1/GPa) = 0.03932065
#
# Stress axis : x y z
#
# Youngs Moduli (GPa) = 29.92970 29.93064 41.13863
#
# Poissons Ratio (x) = 0.49345 0.19371
# Poissons Ratio (y) = 0.49344 0.19374
# Poissons Ratio (z) = 0.14093 0.14096
#
# Static dielectric constant tensor:
#      x y z
#    x 1.849660 0.000000 0.000000 
#    y 0.000000 1.849660 0.000000 
#    z 0.000000 0.000000 1.779640 
# 
# From -- ./inp_files/3340.got.cif
#   From: 2010.05.17/outbox.cif.g08.bks.cpg/sg92_2_cif.got.tgz:3340.got - 2010.06.03 19:35:17.
