data_PCOD9549058
_publ_section_title
;
Structure prediction by ZEFSAII (Michael W. Deem and Ramdas Pophale) SiO2 
 PCOD9549058
Probable space group: P 41 21 2
;
_chemical_formula_sum "Si O2"
_cell_formula_units_Z 48
_cell_length_a 9.661250
_cell_length_b 9.661250
_cell_length_c 27.152377
_cell_angle_alpha 90.000000
_cell_angle_beta 90.000000
_cell_angle_gamma 90.000000
_cell_volume 2534.396124
_symmetry_space_group_name_H-M "P 41 21 2"
_symmetry_group_IT_number 92
_symmetry_cell_setting 'tetragonal'
loop_
_space_group_symop_operation_xyz
x,y,z
1/2-y,1/2+x,1/4+z
-x,-y,1/2+z
1/2+y,1/2-x,3/4+z
1/2+x,1/2-y,3/4-z
1/2-x,1/2+y,1/4-z
y,x,-z
-y,-x,1/2-z
loop_
_atom_site_type_symbol
_atom_site_label
_atom_site_fract_x
_atom_site_fract_y
_atom_site_fract_z
Si Si1 0.676227 0.361512 0.925191
Si Si2 0.060105 0.665543 0.111154
Si Si3 0.135703 0.938683 0.301964
Si Si4 0.859284 0.558131 0.870021
Si Si5 0.420655 0.750819 0.967384
Si Si6 0.711626 0.244592 0.194546
O O1 0.664373 0.196844 0.921916
O O2 0.519892 0.416107 0.928734
O O3 0.751971 0.434992 0.879745
O O4 0.762460 0.406280 0.973868
O O5 0.101960 0.749232 0.159590
O O6 0.004722 0.513014 0.124234
O O7 0.933991 0.741925 0.083677
O O8 0.139613 0.860388 0.250000
O O9 0.148192 0.102993 0.293421
O O10 0.853736 0.631684 0.816668
O O11 0.823478 0.676118 0.910783
O O12 0.582993 0.744972 0.952376
O O13 0.698808 0.301193 0.250000
#
# Coordination Sequence:
#
# PCOD9549058 Si02
#       6
#     8   8   8   8   8   8
#     4  11  22  43  64  90 134 167 206 264 328 394
#     4  11  25  39  60 100 129 162 210 271 327 377
#     4  10  20  39  65  85 122 170 206 244 320 389
#     4  11  22  40  69  92 127 163 221 269 310 391
#     4  10  20  39  66  94 114 173 215 259 319 381
#     4  11  20  40  65  93 121 165 220 264 311 379
#
# _framework density 18.939422
#
# number of rings (size 3 to 8) (size 9 to 14) (size 15 to 20)
#    0.000    1.333    5.000    1.500    0.000    2.667 
#    6.000    0.000    0.000    0.000    0.000    0.000 
#    0.000    0.000    0.000    0.000    0.000    0.000 
#
# Total GULP energy -267898.653664 kJ/mol
# GULP energy per Si atom -5581.221951 kJ/mol
# Density = 1.889632 g / cm^3
# Si number density = 18.939422 Si / 1000 Ang^3
#
#
#
# Elastic Constant Matrix: (Units=GPa)
#
#
# Indices 1 2 3 4 5 6 
#
# 1 67.9373 31.5568 26.8228 0.0000 0.0000 0.0000
# 2 31.5568 67.9370 26.8222 0.0000 0.0000 0.0000
# 3 26.8228 26.8222 46.6613 0.0000 0.0000 0.0000
# 4 0.0000 0.0000 0.0000 25.2926 0.0000 0.0000
# 5 0.0000 0.0000 0.0000 0.0000 25.2927 0.0000
# 6 0.0000 0.0000 0.0000 0.0000 0.0000 16.5294
#
#
#
# Elastic Compliance Matrix: (Units=1/GPa)
#
#
# Indices 1 2 3 4 5 6 
#
# 1 0.021026 -0.006461 -0.008373 0.000000 0.000000 0.000000
# 2 -0.006461 0.021026 -0.008372 0.000000 0.000000 0.000000
# 3 -0.008373 -0.008372 0.031057 0.000000 0.000000 0.000000
# 4 0.000000 0.000000 0.000000 0.039537 0.000000 0.000000
# 5 0.000000 0.000000 0.000000 0.000000 0.039537 0.000000
# 6 0.000000 0.000000 0.000000 0.000000 0.000000 0.060498
#
#
# Mechanical properties :
#
#
# Convention : Reuss Voigt Hill
#
# Bulk Modulus (GPa) = 37.45765 39.21545 38.33655
# Shear Modulus (GPa) = 18.65721 19.91187 19.28454
#
# Velocity S-wave (km/s) = 3.14203 3.24596 3.19442
# Velocity P-wave (km/s) = 5.74314 5.89907 5.82163
#
# Compressibility (1/GPa) = 0.02669682
#
# Stress axis : x y z
#
# Youngs Moduli (GPa) = 47.55936 47.55984 32.19921
#
# Poissons Ratio (x) = 0.30729 0.26960
# Poissons Ratio (y) = 0.30729 0.26958
# Poissons Ratio (z) = 0.39820 0.39818
#
# Static dielectric constant tensor:
#      x y z
#    x 1.651460 0.000000 0.000000 
#    y 0.000000 1.651460 0.000000 
#    z 0.000000 0.000000 1.806810 
# 
# From -- ./inp_files/4456.got.cif
#   From: 2010.05.17/outbox.cif.g08.bks.cpg/sg92_3_cif.got.tgz:4456.got - 2010.06.03 19:35:17.
