data_PCOD9549522
_publ_section_title
;
Structure prediction by ZEFSAII (Michael W. Deem and Ramdas Pophale) SiO2 
 PCOD9549522
Probable space group: P 41 21 2
;
_chemical_formula_sum "Si O2"
_cell_formula_units_Z 48
_cell_length_a 8.187974
_cell_length_b 8.187974
_cell_length_c 29.048121
_cell_angle_alpha 90.000000
_cell_angle_beta 90.000000
_cell_angle_gamma 90.000000
_cell_volume 1947.470801
_symmetry_space_group_name_H-M "P 41 21 2"
_symmetry_group_IT_number 92
_symmetry_cell_setting 'tetragonal'
loop_
_space_group_symop_operation_xyz
x,y,z
1/2-y,1/2+x,1/4+z
-x,-y,1/2+z
1/2+y,1/2-x,3/4+z
1/2+x,1/2-y,3/4-z
1/2-x,1/2+y,1/4-z
y,x,-z
-y,-x,1/2-z
loop_
_atom_site_type_symbol
_atom_site_label
_atom_site_fract_x
_atom_site_fract_y
_atom_site_fract_z
Si Si1 0.743467 0.773580 0.405938
Si Si2 0.218450 0.558773 0.653772
Si Si3 0.096431 0.096431 0.000000
Si Si4 0.882107 0.055344 0.346772
Si Si5 0.029203 0.970798 0.250000
Si Si6 0.582852 0.051591 0.907026
Si Si7 0.635952 0.801350 0.753966
O O1 0.552724 0.804302 0.411410
O O2 0.798054 0.603097 0.384541
O O3 0.788522 0.897623 0.364892
O O4 0.830366 0.817335 0.454061
O O5 0.395006 0.501081 0.638105
O O6 0.197476 0.748965 0.658880
O O7 0.165937 0.467363 0.699943
O O8 0.104906 0.514926 0.610194
O O9 0.146321 0.901419 0.996606
O O10 0.959343 0.031228 0.297917
O O11 0.211033 0.067629 0.253713
O O12 0.662607 0.040276 0.956716
#
# Coordination Sequence:
#
# PCOD9549522 Si02
#       7
#     8   8   4   8   4   8   8
#     4  11  25  49  72 106 149 196 251 320 393 475
#     4  11  27  45  76 106 148 197 258 320 398 476
#     4  12  28  46  80 108 160 198 264 324 408 478
#     4  11  25  49  72 106 149 196 251 320 393 475
#     4  12  28  46  80 108 160 198 264 324 408 478
#     4  11  27  45  76 106 148 197 258 320 398 476
#     4  12  28  48  76 116 150 210 258 328 402 482
#
# _framework density 24.647354
#
# number of rings (size 3 to 8) (size 9 to 14) (size 15 to 20)
#    0.000    0.667    3.333    2.000   14.000    2.667 
#    0.000    0.000    0.000    0.000    0.000    0.000 
#    0.000    0.000    0.000    0.000    0.000    0.000 
#
# Total GULP energy -267996.980614 kJ/mol
# GULP energy per Si atom -5583.270429 kJ/mol
# Density = 2.459126 g / cm^3
# Si number density = 24.647354 Si / 1000 Ang^3
#
#
#
# Elastic Constant Matrix: (Units=GPa)
#
#
# Indices 1 2 3 4 5 6 
#
# 1 67.1390 56.3139 29.7314 0.0000 0.0000 0.0000
# 2 56.3139 67.1390 29.7315 0.0000 0.0000 0.0000
# 3 29.7314 29.7315 191.2882 0.0000 0.0000 0.0000
# 4 0.0000 0.0000 0.0000 42.6924 0.0000 0.0000
# 5 0.0000 0.0000 0.0000 0.0000 42.6922 0.0000
# 6 0.0000 0.0000 0.0000 0.0000 0.0000 39.9078
#
#
#
# Elastic Compliance Matrix: (Units=1/GPa)
#
#
# Indices 1 2 3 4 5 6 
#
# 1 0.050567 -0.041811 -0.001361 0.000000 0.000000 0.000000
# 2 -0.041811 0.050567 -0.001361 0.000000 0.000000 0.000000
# 3 -0.001361 -0.001361 0.005651 0.000000 0.000000 0.000000
# 4 0.000000 0.000000 0.000000 0.023423 0.000000 0.000000
# 5 0.000000 0.000000 0.000000 0.000000 0.023423 0.000000
# 6 0.000000 0.000000 0.000000 0.000000 0.000000 0.025058
#
#
# Mechanical properties :
#
#
# Convention : Reuss Voigt Hill
#
# Bulk Modulus (GPa) = 56.43754 61.90221 59.16987
# Shear Modulus (GPa) = 18.27072 39.04442 28.65757
#
# Velocity S-wave (km/s) = 2.72561 3.98442 3.41354
# Velocity P-wave (km/s) = 5.73175 6.80714 6.29246
#
# Compressibility (1/GPa) = 0.01771870
#
# Stress axis : x y z
#
# Youngs Moduli (GPa) = 19.77573 19.77570 176.96760
#
# Poissons Ratio (x) = 0.82685 0.24082
# Poissons Ratio (y) = 0.82685 0.24084
# Poissons Ratio (z) = 0.02691 0.02691
#
# Static dielectric constant tensor:
#      x y z
#    x 2.066820 0.000000 0.000000 
#    y 0.000000 2.066820 0.000000 
#    z 0.000000 0.000000 1.836200 
# 
# From -- ./inp_files/4561.got.cif
#   From: 2010.05.17/outbox.cif.g08.bks.cpg/sg92_3_cif.got.tgz:4561.got - 2010.06.03 19:35:17.
