data_PCOD9549573
_publ_section_title
;
Structure prediction by ZEFSAII (Michael W. Deem and Ramdas Pophale) SiO2 
 PCOD9549573
Probable space group: P 41 21 2
;
_chemical_formula_sum "Si O2"
_cell_formula_units_Z 28
_cell_length_a 10.951012
_cell_length_b 10.951012
_cell_length_c 10.990364
_cell_angle_alpha 90.000000
_cell_angle_beta 90.000000
_cell_angle_gamma 90.000000
_cell_volume 1318.015708
_symmetry_space_group_name_H-M "P 41 21 2"
_symmetry_group_IT_number 92
_symmetry_cell_setting 'tetragonal'
loop_
_space_group_symop_operation_xyz
x,y,z
1/2-y,1/2+x,1/4+z
-x,-y,1/2+z
1/2+y,1/2-x,3/4+z
1/2+x,1/2-y,3/4-z
1/2-x,1/2+y,1/4-z
y,x,-z
-y,-x,1/2-z
loop_
_atom_site_type_symbol
_atom_site_label
_atom_site_fract_x
_atom_site_fract_y
_atom_site_fract_z
Si Si1 0.165096 0.061444 0.623068
Si Si2 0.952583 0.158816 0.006793
Si Si3 0.414629 0.414629 0.000000
Si Si4 0.930097 0.553064 0.820034
O O1 0.137950 0.137950 0.500000
O O2 0.300410 0.075183 0.669666
O O3 0.056769 0.100782 0.713069
O O4 0.139550 0.919202 0.590365
O O5 0.894678 0.163193 0.871319
O O6 0.986589 0.290015 0.054748
O O7 0.069509 0.069509 0.000000
O O8 0.001719 0.518262 0.697091
#
# Coordination Sequence:
#
# PCOD9549573 Si02
#       4
#     8   8   4   8
#     4   9  20  39  69  95 122 172 221 273 327 396
#     4   9  20  42  68  91 125 176 227 265 328 403
#     4   8  16  40  68  94 118 166 236 262 316 404
#     4  12  27  43  62 102 142 172 219 278 338 398
#
# _framework density 21.244057999999999
#
# number of rings (size 3 to 8) (size 9 to 14) (size 15 to 20)
#    0.000    2.857    0.000    3.429    4.000    4.571 
#   12.857    0.000    0.000    0.000    0.000    0.000 
#    0.000    0.000    0.000    0.000    0.000    0.000 
#
# Total GULP energy -156315.145454 kJ/mol
# GULP energy per Si atom -5582.683766 kJ/mol
# Density = 2.119571 g / cm^3
# Si number density = 21.244058 Si / 1000 Ang^3
#
#
#
# Elastic Constant Matrix: (Units=GPa)
#
#
# Indices 1 2 3 4 5 6 
#
# 1 45.4475 16.2536 7.8557 0.0000 0.0000 0.0000
# 2 16.2536 45.4475 7.8557 0.0000 0.0000 0.0000
# 3 7.8557 7.8557 120.1531 0.0000 0.0000 0.0000
# 4 0.0000 0.0000 0.0000 10.4746 0.0000 0.0000
# 5 0.0000 0.0000 0.0000 0.0000 10.4746 0.0000
# 6 0.0000 0.0000 0.0000 0.0000 0.0000 8.6721
#
#
#
# Elastic Compliance Matrix: (Units=1/GPa)
#
#
# Indices 1 2 3 4 5 6 
#
# 1 0.025368 -0.008886 -0.001078 0.000000 0.000000 0.000000
# 2 -0.008886 0.025368 -0.001078 0.000000 0.000000 0.000000
# 3 -0.001078 -0.001078 0.008464 0.000000 0.000000 0.000000
# 4 0.000000 0.000000 0.000000 0.095469 0.000000 0.000000
# 5 0.000000 0.000000 0.000000 0.000000 0.095469 0.000000
# 6 0.000000 0.000000 0.000000 0.000000 0.000000 0.115313
#
#
# Mechanical properties :
#
#
# Convention : Reuss Voigt Hill
#
# Bulk Modulus (GPa) = 26.94225 30.55311 28.74768
# Shear Modulus (GPa) = 12.50302 17.86315 15.18308
#
# Velocity S-wave (km/s) = 2.42862 2.90289 2.67628
# Velocity P-wave (km/s) = 4.53586 5.06447 4.80744
#
# Compressibility (1/GPa) = 0.03711643
#
# Stress axis : x y z
#
# Youngs Moduli (GPa) = 39.42027 39.42027 118.15273
#
# Poissons Ratio (x) = 0.35029 0.12732
# Poissons Ratio (y) = 0.35029 0.12732
# Poissons Ratio (z) = 0.04248 0.04248
#
# Static dielectric constant tensor:
#      x y z
#    x 1.758270 0.000000 0.000000 
#    y 0.000000 1.758270 0.000000 
#    z 0.000000 0.000000 1.868520 
# 
# From -- ./inp_files/1856.got.cif
#   From: 2010.05.17/outbox.cif.g08.bks.cpg/sg92_1_cif.got.tgz:1856.got - 2010.06.03 19:35:17.
