data_PCOD9549237
_publ_section_title
;
Structure prediction by ZEFSAII (Michael W. Deem and Ramdas Pophale) SiO2 
 PCOD9549237
Probable space group: P 41 21 2
;
_chemical_formula_sum "Si O2"
_cell_formula_units_Z 40
_cell_length_a 8.874635
_cell_length_b 8.874635
_cell_length_c 23.628475
_cell_angle_alpha 90.000000
_cell_angle_beta 90.000000
_cell_angle_gamma 90.000000
_cell_volume 1860.958521
_symmetry_space_group_name_H-M "P 41 21 2"
_symmetry_group_IT_number 92
_symmetry_cell_setting 'tetragonal'
loop_
_space_group_symop_operation_xyz
x,y,z
1/2-y,1/2+x,1/4+z
-x,-y,1/2+z
1/2+y,1/2-x,3/4+z
1/2+x,1/2-y,3/4-z
1/2-x,1/2+y,1/4-z
y,x,-z
-y,-x,1/2-z
loop_
_atom_site_type_symbol
_atom_site_label
_atom_site_fract_x
_atom_site_fract_y
_atom_site_fract_z
Si Si1 0.662154 0.991385 0.973589
Si Si2 0.411908 0.581470 0.347665
Si Si3 0.789653 0.673301 0.685205
Si Si4 0.117049 0.212756 0.408912
Si Si5 0.850677 0.573120 0.801295
O O1 0.758491 0.133220 0.955690
O O2 0.731152 0.851155 0.938277
O O3 0.497593 0.029221 0.949863
O O4 0.694027 0.964644 0.040422
O O5 0.284264 0.623667 0.393488
O O6 0.512380 0.730991 0.338455
O O7 0.518654 0.435321 0.358751
O O8 0.304081 0.519333 0.297515
O O9 0.881103 0.660136 0.743030
O O10 0.149984 0.316859 0.355060
#
# Coordination Sequence:
#
# PCOD9549237 Si02
#       5
#     8   8   8   8   8
#     4  10  22  40  64  98 132 182 224 279 349 400
#     4  11  23  44  65  98 138 178 225 289 340 408
#     4  11  24  42  67  95 136 178 227 277 348 406
#     4  10  22  42  66  93 141 180 226 287 341 407
#     4  12  22  39  70  96 133 174 233 279 340 408
#
# _framework density 21.494301
#
# number of rings (size 3 to 8) (size 9 to 14) (size 15 to 20)
#    0.000    1.200    2.000    4.200    0.000    2.400 
#    3.600    0.000    0.000    0.000    0.000    0.000 
#    0.000    0.000    0.000    0.000    0.000    0.000 
#
# Total GULP energy -223029.397806 kJ/mol
# GULP energy per Si atom -5575.734945 kJ/mol
# Density = 2.144538 g / cm^3
# Si number density = 21.494301 Si / 1000 Ang^3
#
#
#
# Elastic Constant Matrix: (Units=GPa)
#
#
# Indices 1 2 3 4 5 6 
#
# 1 66.5102 23.6222 37.9724 0.0000 0.0000 0.0000
# 2 23.6222 66.5102 37.9724 0.0000 0.0000 0.0000
# 3 37.9724 37.9724 117.1487 0.0000 0.0000 0.0000
# 4 0.0000 0.0000 0.0000 31.4863 0.0000 0.0000
# 5 0.0000 0.0000 0.0000 0.0000 31.4863 0.0000
# 6 0.0000 0.0000 0.0000 0.0000 0.0000 17.5208
#
#
#
# Elastic Compliance Matrix: (Units=1/GPa)
#
#
# Indices 1 2 3 4 5 6 
#
# 1 0.019290 -0.004026 -0.004947 0.000000 0.000000 0.000000
# 2 -0.004026 0.019290 -0.004947 0.000000 0.000000 0.000000
# 3 -0.004947 -0.004947 0.011744 0.000000 0.000000 0.000000
# 4 0.000000 0.000000 0.000000 0.031760 0.000000 0.000000
# 5 0.000000 0.000000 0.000000 0.000000 0.031760 0.000000
# 6 0.000000 0.000000 0.000000 0.000000 0.000000 0.057075
#
#
# Mechanical properties :
#
#
# Convention : Reuss Voigt Hill
#
# Bulk Modulus (GPa) = 44.48290 49.92258 47.20274
# Shear Modulus (GPa) = 24.24187 26.13883 25.19035
#
# Velocity S-wave (km/s) = 3.36196 3.49102 3.42710
# Velocity P-wave (km/s) = 5.98419 6.28697 6.13745
#
# Compressibility (1/GPa) = 0.02248055
#
# Stress axis : x y z
#
# Youngs Moduli (GPa) = 51.84031 51.84031 85.15340
#
# Poissons Ratio (x) = 0.20873 0.42130
# Poissons Ratio (y) = 0.20873 0.42130
# Poissons Ratio (z) = 0.25648 0.25648
#
# Static dielectric constant tensor:
#      x y z
#    x 1.874720 0.000000 0.000000 
#    y 0.000000 1.874720 0.000000 
#    z 0.000000 0.000000 1.828860 
# 
# From -- ./inp_files/3762.got.cif
#   From: 2010.05.17/outbox.cif.g08.bks.cpg/sg92_2_cif.got.tgz:3762.got - 2010.06.03 19:35:17.
