data_PCOD9549353
_publ_section_title
;
Structure prediction by ZEFSAII (Michael W. Deem and Ramdas Pophale) SiO2 
 PCOD9549353
Probable space group: P 41 21 2
;
_chemical_formula_sum "Si O2"
_cell_formula_units_Z 40
_cell_length_a 8.112262
_cell_length_b 8.112262
_cell_length_c 24.879307
_cell_angle_alpha 90.000000
_cell_angle_beta 90.000000
_cell_angle_gamma 90.000000
_cell_volume 1637.277208
_symmetry_space_group_name_H-M "P 41 21 2"
_symmetry_group_IT_number 92
_symmetry_cell_setting 'tetragonal'
loop_
_space_group_symop_operation_xyz
x,y,z
1/2-y,1/2+x,1/4+z
-x,-y,1/2+z
1/2+y,1/2-x,3/4+z
1/2+x,1/2-y,3/4-z
1/2-x,1/2+y,1/4-z
y,x,-z
-y,-x,1/2-z
loop_
_atom_site_type_symbol
_atom_site_label
_atom_site_fract_x
_atom_site_fract_y
_atom_site_fract_z
Si Si1 0.718791 0.469967 0.421034
Si Si2 0.785389 0.834281 0.441129
Si Si3 0.173054 0.224200 0.555566
Si Si4 0.845438 0.970273 0.327784
Si Si5 0.402488 0.860199 0.471627
O O1 0.810284 0.647559 0.418318
O O2 0.681360 0.377147 0.365875
O O3 0.533065 0.500268 0.440888
O O4 0.826985 0.376369 0.465142
O O5 0.863263 0.863263 0.500000
O O6 0.832740 0.953993 0.392544
O O7 0.592114 0.835855 0.455174
O O8 0.130543 0.130543 0.500000
O O9 0.369254 0.250628 0.557006
O O10 0.045253 0.373338 0.547212
O O11 0.797891 0.788638 0.305688
#
# Coordination Sequence:
#
# PCOD9549353 Si02
#       5
#     8   8   8   8   8
#     4  10  23  45  69  98 147 192 243 307 366 446
#     4   9  20  44  75 101 137 202 247 292 383 441
#     4  12  27  43  68 111 139 188 249 303 374 442
#     4  11  23  45  69 104 146 188 250 306 371 442
#     4  10  23  47  71  97 149 195 238 310 366 449
#
# _framework density 24.430806
#
# number of rings (size 3 to 8) (size 9 to 14) (size 15 to 20)
#    0.000    1.600    2.000    3.000    5.600    0.800 
#    3.600    0.000    0.000    0.000    0.000    0.000 
#    0.000    0.000    0.000    0.000    0.000    0.000 
#
# Total GULP energy -222919.732522 kJ/mol
# GULP energy per Si atom -5572.993313 kJ/mol
# Density = 2.437520 g / cm^3
# Si number density = 24.430806 Si / 1000 Ang^3
#
#
#
# Elastic Constant Matrix: (Units=GPa)
#
#
# Indices 1 2 3 4 5 6 
#
# 1 36.4766 43.1839 35.5385 0.0000 0.0000 0.0000
# 2 43.1839 36.4766 35.5385 0.0000 0.0000 0.0000
# 3 35.5385 35.5385 175.0041 0.0000 0.0000 0.0000
# 4 0.0000 0.0000 0.0000 28.7755 0.0000 0.0000
# 5 0.0000 0.0000 0.0000 0.0000 28.7755 0.0000
# 6 0.0000 0.0000 0.0000 0.0000 0.0000 14.0010
#
#
#
# Elastic Compliance Matrix: (Units=1/GPa)
#
#
# Indices 1 2 3 4 5 6 
#
# 1 -0.066881 0.082212 -0.003113 0.000000 0.000000 0.000000
# 2 0.082212 -0.066881 -0.003113 0.000000 0.000000 0.000000
# 3 -0.003113 -0.003113 0.006979 0.000000 0.000000 0.000000
# 4 0.000000 0.000000 0.000000 0.034752 0.000000 0.000000
# 5 0.000000 0.000000 0.000000 0.000000 0.034752 0.000000
# 6 0.000000 0.000000 0.000000 0.000000 0.000000 0.071423
#
#
# Mechanical properties :
#
#
# Convention : Reuss Voigt Hill
#
# Bulk Modulus (GPa) = 39.70214 52.94211 46.32212
# Shear Modulus (GPa) = -38.63090 23.22352 -7.70369
#
# Velocity S-wave (km/s) = -3.98079 3.08650 -1.77767
# Velocity P-wave (km/s) = 2.20064 5.86679 3.84554
#
# Compressibility (1/GPa) = 0.02518756
#
# Stress axis : x y z
#
# Youngs Moduli (GPa) = -14.95202 -14.95202 143.29496
#
# Poissons Ratio (x) = 1.22923 0.44612
# Poissons Ratio (y) = 1.22923 0.44612
# Poissons Ratio (z) = -0.04655 -0.04655
#
# Static dielectric constant tensor:
#      x y z
#    x 1.987080 0.000000 0.000000 
#    y 0.000000 1.987080 0.000000 
#    z 0.000000 0.000000 2.022510 
# 
# From -- ./inp_files/3790.got.cif
#   From: 2010.05.17/outbox.cif.g08.bks.cpg/sg92_2_cif.got.tgz:3790.got - 2010.06.03 19:35:17.
