data_PCOD9549312
_publ_section_title
;
Structure prediction by ZEFSAII (Michael W. Deem and Ramdas Pophale) SiO2 
 PCOD9549312
Probable space group: P 41 21 2
;
_chemical_formula_sum "Si O2"
_cell_formula_units_Z 52
_cell_length_a 16.806744
_cell_length_b 16.806744
_cell_length_c 8.116862
_cell_angle_alpha 90.000000
_cell_angle_beta 90.000000
_cell_angle_gamma 90.000000
_cell_volume 2292.742768
_symmetry_space_group_name_H-M "P 41 21 2"
_symmetry_group_IT_number 92
_symmetry_cell_setting 'tetragonal'
loop_
_space_group_symop_operation_xyz
x,y,z
1/2-y,1/2+x,1/4+z
-x,-y,1/2+z
1/2+y,1/2-x,3/4+z
1/2+x,1/2-y,3/4-z
1/2-x,1/2+y,1/4-z
y,x,-z
-y,-x,1/2-z
loop_
_atom_site_type_symbol
_atom_site_label
_atom_site_fract_x
_atom_site_fract_y
_atom_site_fract_z
Si Si1 0.157016 0.509348 0.938947
Si Si2 0.960752 0.404964 0.241814
Si Si3 0.659582 0.926666 0.472611
Si Si4 0.543478 0.694552 0.718008
Si Si5 0.674418 0.674418 0.000000
Si Si6 0.765598 0.296507 0.016445
Si Si7 0.815498 0.184503 0.750000
Si Si8 0.366706 0.633295 0.750000
O O1 0.195272 0.545598 0.103914
O O2 0.102749 0.432294 0.988204
O O3 0.110406 0.584832 0.866286
O O4 0.213890 0.483049 0.790895
O O5 0.938147 0.465257 0.095429
O O6 0.995691 0.332178 0.142932
O O7 0.696191 0.858450 0.360070
O O8 0.602996 0.671133 0.866686
O O9 0.591101 0.690104 0.543166
O O10 0.460283 0.648338 0.725855
O O11 0.761119 0.677228 0.909475
O O12 0.687049 0.332854 0.098265
O O13 0.762837 0.219019 0.900387
#
# Coordination Sequence:
#
# PCOD9549312 Si02
#       8
#     8   8   8   8   4   8   4   4
#     4  12  24  38  62 101 144 199 241 283 356 445
#     4  12  20  35  53  95 152 192 240 280 332 426
#     4  12  23  38  62  98 149 205 232 280 350 450
#     4  11  26  48  75 102 135 184 256 307 384 414
#     4   9  24  53  78  98 128 195 246 303 364 458
#     4  10  24  45  72 105 146 184 244 289 368 442
#     4  10  22  49  76 100 140 203 240 290 360 468
#     4  11  28  46  70 118 140 172 236 341 364 416
#
# _framework density 22.680260000000001
#
# number of rings (size 3 to 8) (size 9 to 14) (size 15 to 20)
#    0.000    0.923    6.154    0.000    4.308    4.308 
#    0.000    0.000    0.000    0.000    0.000    0.000 
#    0.000    0.000    0.000    0.000    0.000    0.000 
#
# Total GULP energy -289624.187187 kJ/mol
# GULP energy per Si atom -5569.695907 kJ/mol
# Density = 2.262864 g / cm^3
# Si number density = 22.680260 Si / 1000 Ang^3
#
#
#
# Elastic Constant Matrix: (Units=GPa)
#
#
# Indices 1 2 3 4 5 6 
#
# 1 126.0488 1.6654 27.5351 0.0000 0.0000 0.0000
# 2 1.6654 126.0480 27.5356 0.0000 0.0000 0.0000
# 3 27.5351 27.5356 113.4588 0.0000 0.0000 0.0000
# 4 0.0000 0.0000 0.0000 35.5185 0.0000 0.0000
# 5 0.0000 0.0000 0.0000 0.0000 35.5183 0.0000
# 6 0.0000 0.0000 0.0000 0.0000 0.0000 19.6380
#
#
#
# Elastic Compliance Matrix: (Units=1/GPa)
#
#
# Indices 1 2 3 4 5 6 
#
# 1 0.008392 0.000353 -0.002122 0.000000 0.000000 0.000000
# 2 0.000353 0.008392 -0.002122 0.000000 0.000000 0.000000
# 3 -0.002122 -0.002122 0.009844 0.000000 0.000000 0.000000
# 4 0.000000 0.000000 0.000000 0.028154 0.000000 0.000000
# 5 0.000000 0.000000 0.000000 0.000000 0.028154 0.000000
# 6 0.000000 0.000000 0.000000 0.000000 0.000000 0.050922
#
#
# Mechanical properties :
#
#
# Convention : Reuss Voigt Hill
#
# Bulk Modulus (GPa) = 53.06500 53.22530 53.14515
# Shear Modulus (GPa) = 33.80093 38.72293 36.26193
#
# Velocity S-wave (km/s) = 3.86466 4.13648 4.00288
# Velocity P-wave (km/s) = 6.58498 6.80680 6.69681
#
# Compressibility (1/GPa) = 0.01884481
#
# Stress axis : x y z
#
# Youngs Moduli (GPa) = 119.15547 119.15449 101.58551
#
# Poissons Ratio (x) = -0.04203 0.21560
# Poissons Ratio (y) = -0.04203 0.21560
# Poissons Ratio (z) = 0.25289 0.25289
#
# Static dielectric constant tensor:
#      x y z
#    x 1.917480 0.000000 0.000000 
#    y 0.000000 1.917490 0.000000 
#    z 0.000000 0.000000 1.963560 
# 
# From -- ./inp_files/1614.got.cif
#   From: 2010.05.17/outbox.cif.g08.bks.cpg/sg92_1_cif.got.tgz:1614.got - 2010.06.03 19:35:17.
