data_PCOD9549024
_publ_section_title
;
Structure prediction by ZEFSAII (Michael W. Deem and Ramdas Pophale) SiO2 
 PCOD9549024
Probable space group: P 41 21 2
;
_chemical_formula_sum "Si O2"
_cell_formula_units_Z 52
_cell_length_a 18.557817
_cell_length_b 18.557817
_cell_length_c 8.046517
_cell_angle_alpha 90.000000
_cell_angle_beta 90.000000
_cell_angle_gamma 90.000000
_cell_volume 2771.160684
_symmetry_space_group_name_H-M "P 41 21 2"
_symmetry_group_IT_number 92
_symmetry_cell_setting 'tetragonal'
loop_
_space_group_symop_operation_xyz
x,y,z
1/2-y,1/2+x,1/4+z
-x,-y,1/2+z
1/2+y,1/2-x,3/4+z
1/2+x,1/2-y,3/4-z
1/2-x,1/2+y,1/4-z
y,x,-z
-y,-x,1/2-z
loop_
_atom_site_type_symbol
_atom_site_label
_atom_site_fract_x
_atom_site_fract_y
_atom_site_fract_z
Si Si1 0.769211 0.249239 0.551401
Si Si2 0.470444 0.083964 0.590938
Si Si3 0.245681 0.476606 0.534334
Si Si4 0.501435 0.849385 0.642494
Si Si5 0.118774 0.208243 0.123214
Si Si6 0.169291 0.830710 0.750000
Si Si7 0.889905 0.661870 0.368170
O O1 0.772025 0.227976 0.750000
O O2 0.689573 0.279399 0.517207
O O3 0.788111 0.189906 0.418406
O O4 0.821990 0.316270 0.519620
O O5 0.545234 0.052920 0.512639
O O6 0.468241 0.171192 0.577167
O O7 0.410052 0.052483 0.464833
O O8 0.210710 0.488640 0.716081
O O9 0.290996 0.545665 0.473377
O O10 0.301881 0.411072 0.532162
O O11 0.460923 0.819591 0.483132
O O12 0.577411 0.885298 0.597054
O O13 0.142792 0.142792 0.000000
O O14 0.114808 0.282575 0.018227
#
# Coordination Sequence:
#
# PCOD9549024 Si02
#       7
#     8   8   8   8   8   4   8
#     4   9  21  40  60  89 121 163 213 258 311 378
#     4  10  21  32  47  82 122 160 190 235 290 379
#     4  11  24  36  60  88 119 163 218 252 325 380
#     4  11  19  34  50  86 126 159 200 241 299 387
#     4   9  23  41  59  83 114 164 213 265 312 372
#     4  12  22  40  64  94 124 170 202 284 316 374
#     4  10  20  37  55  84 125 164 201 249 305 377
#
# _framework density 18.764700999999999
#
# number of rings (size 3 to 8) (size 9 to 14) (size 15 to 20)
#    0.000    2.154    4.615    0.000    8.615    2.462 
#    0.000    0.000    0.000    3.692    0.000    0.000 
#    0.000    0.000    0.000    0.000    0.000    0.000 
#
# Total GULP energy -289694.774862 kJ/mol
# GULP energy per Si atom -5571.053363 kJ/mol
# Density = 1.872199 g / cm^3
# Si number density = 18.764701 Si / 1000 Ang^3
#
#
#
# Elastic Constant Matrix: (Units=GPa)
#
#
# Indices 1 2 3 4 5 6 
#
# 1 76.4958 54.8048 25.3323 0.0000 0.0000 0.0000
# 2 54.8048 76.4969 25.3324 0.0000 0.0000 0.0000
# 3 25.3323 25.3324 50.2937 0.0000 0.0000 0.0000
# 4 0.0000 0.0000 0.0000 19.0110 0.0000 0.0000
# 5 0.0000 0.0000 0.0000 0.0000 19.0094 0.0000
# 6 0.0000 0.0000 0.0000 0.0000 0.0000 32.6972
#
#
#
# Elastic Compliance Matrix: (Units=1/GPa)
#
#
# Indices 1 2 3 4 5 6 
#
# 1 0.027777 -0.018324 -0.004762 0.000000 0.000000 0.000000
# 2 -0.018324 0.027777 -0.004762 0.000000 0.000000 0.000000
# 3 -0.004762 -0.004762 0.024680 0.000000 0.000000 0.000000
# 4 0.000000 0.000000 0.000000 0.052601 0.000000 0.000000
# 5 0.000000 0.000000 0.000000 0.000000 0.052606 0.000000
# 6 0.000000 0.000000 0.000000 0.000000 0.000000 0.030584
#
#
# Mechanical properties :
#
#
# Convention : Reuss Voigt Hill
#
# Bulk Modulus (GPa) = 40.74910 46.02506 43.38708
# Shear Modulus (GPa) = 17.86361 20.66465 19.26413
#
# Velocity S-wave (km/s) = 3.08876 3.32211 3.20756
# Velocity P-wave (km/s) = 5.87227 6.26865 6.07369
#
# Compressibility (1/GPa) = 0.02454042
#
# Stress axis : x y z
#
# Youngs Moduli (GPa) = 36.00050 36.00105 40.51880
#
# Poissons Ratio (x) = 0.65967 0.19294
# Poissons Ratio (y) = 0.65966 0.19293
# Poissons Ratio (z) = 0.17142 0.17142
#
# Static dielectric constant tensor:
#      x y z
#    x 1.667890 0.000000 0.000000 
#    y 0.000000 1.667890 0.000000 
#    z 0.000000 0.000000 1.670050 
# 
# From -- ./inp_files/1599.got.cif
#   From: 2010.05.17/outbox.cif.g08.bks.cpg/sg92_1_cif.got.tgz:1599.got - 2010.06.03 19:35:17.
