data_PCOD9549778
_publ_section_title
;
Structure prediction by ZEFSAII (Michael W. Deem and Ramdas Pophale) SiO2 
 PCOD9549778
Probable space group: P 42 2 2
;
_chemical_formula_sum "Si O2"
_cell_formula_units_Z 38
_cell_length_a 11.495378
_cell_length_b 11.495378
_cell_length_c 14.508792
_cell_angle_alpha 90.000000
_cell_angle_beta 90.000000
_cell_angle_gamma 90.000000
_cell_volume 1917.245680
_symmetry_space_group_name_H-M "P 42 2 2"
_symmetry_group_IT_number 93
_symmetry_cell_setting 'tetragonal'
loop_
_space_group_symop_operation_xyz
x,y,z
-y,x,1/2+z
-x,-y,z
y,-x,1/2+z
x,-y,-z
-x,y,-z
y,x,1/2-z
-y,-x,1/2-z
loop_
_atom_site_type_symbol
_atom_site_label
_atom_site_fract_x
_atom_site_fract_y
_atom_site_fract_z
Si Si1 0.803886 0.314623 0.838455
Si Si2 0.790902 0.790902 0.750000
Si Si3 0.500000 0.500000 0.250000
Si Si4 0.137202 0.011201 0.610673
Si Si5 0.475470 0.135072 0.782347
Si Si6 0.319300 0.562424 0.592673
O O1 0.741286 0.258715 0.750000
O O2 0.832664 0.444847 0.806148
O O3 0.702074 0.322926 0.914127
O O4 0.911554 0.229129 0.857787
O O5 0.825327 0.869982 0.661525
O O6 0.656280 0.821663 0.769174
O O7 0.485311 0.394084 0.179190
O O8 0.142076 0.000000 0.500000
O O9 0.000000 0.000000 0.635910
O O10 0.525353 0.191856 0.875359
O O11 0.500000 0.000000 0.791386
O O12 0.355957 0.500000 0.500000
#
# Coordination Sequence:
#
# PCOD9549778 Si02
#       6
#     8   4   2   8   8   8
#     4  10  21  45  67  91 138 177 223 288 346 411
#     4  12  24  42  71  95 144 186 228 290 370 416
#     4  12  20  48  68  96 130 180 232 284 338 430
#     4  11  25  43  69 101 132 181 238 283 351 438
#     4  11  23  42  67 101 137 183 232 289 355 419
#     4  11  25  42  69  97 132 180 229 279 350 418
#
# _framework density 19.820098000000002
#
# number of rings (size 3 to 8) (size 9 to 14) (size 15 to 20)
#    0.000    1.053    5.263    2.526    5.895    0.421 
#    0.000    2.105    0.000    0.000    0.000    0.000 
#    0.000    0.000    0.000    0.000    0.000    0.000 
#
# Total GULP energy -211850.306876 kJ/mol
# GULP energy per Si atom -5575.008076 kJ/mol
# Density = 1.977499 g / cm^3
# Si number density = 19.820098 Si / 1000 Ang^3
#
#
#
# Elastic Constant Matrix: (Units=GPa)
#
#
# Indices 1 2 3 4 5 6 
#
# 1 167.9692 67.6739 45.2199 0.0000 0.0000 0.0000
# 2 67.6739 167.9688 45.2193 0.0000 0.0000 0.0000
# 3 45.2199 45.2193 101.6121 0.0000 0.0000 0.0000
# 4 0.0000 0.0000 0.0000 20.7918 0.0000 0.0000
# 5 0.0000 0.0000 0.0000 0.0000 20.7923 0.0000
# 6 0.0000 0.0000 0.0000 0.0000 0.0000 32.8544
#
#
#
# Elastic Compliance Matrix: (Units=1/GPa)
#
#
# Indices 1 2 3 4 5 6 
#
# 1 0.007544 -0.002426 -0.002278 0.000000 0.000000 0.000000
# 2 -0.002426 0.007544 -0.002278 0.000000 0.000000 0.000000
# 3 -0.002278 -0.002278 0.011868 0.000000 0.000000 0.000000
# 4 0.000000 0.000000 0.000000 0.048096 0.000000 0.000000
# 5 0.000000 0.000000 0.000000 0.000000 0.048095 0.000000
# 6 0.000000 0.000000 0.000000 0.000000 0.000000 0.030437
#
#
# Mechanical properties :
#
#
# Convention : Reuss Voigt Hill
#
# Bulk Modulus (GPa) = 76.95896 83.75292 80.35594
# Shear Modulus (GPa) = 29.09022 33.51684 31.30353
#
# Velocity S-wave (km/s) = 3.83523 4.11670 3.97846
# Velocity P-wave (km/s) = 7.65017 8.05882 7.85715
#
# Compressibility (1/GPa) = 0.01299394
#
# Stress axis : x y z
#
# Youngs Moduli (GPa) = 132.55210 132.55225 84.25693
#
# Poissons Ratio (x) = 0.32162 0.19190
# Poissons Ratio (y) = 0.32162 0.19190
# Poissons Ratio (z) = 0.30190 0.30189
#
# Static dielectric constant tensor:
#      x y z
#    x 1.710890 0.000000 0.000000 
#    y 0.000000 1.710890 0.000000 
#    z 0.000000 0.000000 1.692330 
# 
# From -- ./inp_files/4420.got.cif
#   From: 2010.05.17/outbox.cif.g08.bks.cpg/sg93_3_cif.got.tgz:4420.got - 2010.06.03 19:38:44.
