data_PCOD9549812
_publ_section_title
;
Structure prediction by ZEFSAII (Michael W. Deem and Ramdas Pophale) SiO2 
 PCOD9549812
Probable space group: P 42 2 2
;
_chemical_formula_sum "Si O2"
_cell_formula_units_Z 54
_cell_length_a 15.137889
_cell_length_b 15.137889
_cell_length_c 11.511187
_cell_angle_alpha 90.000000
_cell_angle_beta 90.000000
_cell_angle_gamma 90.000000
_cell_volume 2637.853923
_symmetry_space_group_name_H-M "P 42 2 2"
_symmetry_group_IT_number 93
_symmetry_cell_setting 'tetragonal'
loop_
_space_group_symop_operation_xyz
x,y,z
-y,x,1/2+z
-x,-y,z
y,-x,1/2+z
x,-y,-z
-x,y,-z
y,x,1/2-z
-y,-x,1/2-z
loop_
_atom_site_type_symbol
_atom_site_label
_atom_site_fract_x
_atom_site_fract_y
_atom_site_fract_z
Si Si1 0.782939 0.500000 0.000000
Si Si2 0.684833 0.206747 0.907196
Si Si3 0.500000 0.000000 0.000000
Si Si4 0.423517 0.832435 0.134494
Si Si5 0.221350 0.073274 0.236609
Si Si6 0.688172 0.141376 0.535225
Si Si7 0.883492 0.742408 0.783120
Si Si8 0.445445 0.699807 0.741719
O O1 0.846123 0.414211 0.996589
O O2 0.721295 0.480734 0.887431
O O3 0.728669 0.114047 0.873885
O O4 0.760737 0.274582 0.941087
O O5 0.633592 0.239499 0.793200
O O6 0.622630 0.198755 0.016451
O O7 0.467656 0.924929 0.093984
O O8 0.353378 0.862688 0.230835
O O9 0.477023 0.746010 0.180283
O O10 0.133078 0.133078 0.250000
O O11 0.283655 0.088964 0.349695
O O12 0.212685 0.969334 0.226968
O O13 0.736515 0.105734 0.421203
O O14 0.799908 0.799908 0.750000
O O15 0.398964 0.601037 0.750000
#
# Coordination Sequence:
#
# PCOD9549812 Si02
#       8
#     4   8   2   8   8   8   8   8
#     4  12  22  38  71 101 130 180 230 280 344 430
#     4  11  20  44  69  92 135 185 221 275 356 423
#     4  12  24  40  64 102 136 172 232 292 354 416
#     4  12  25  39  67 100 134 175 230 294 347 415
#     4  10  23  43  69  97 135 187 236 281 356 434
#     4  11  22  42  68  97 136 182 229 283 359 428
#     4  12  25  42  66  99 142 180 232 295 349 415
#     4  12  23  42  69 101 136 183 227 283 354 425
#
# _framework density 20.471185999999999
#
# number of rings (size 3 to 8) (size 9 to 14) (size 15 to 20)
#    0.000    0.593    7.407    1.778    0.000    0.296 
#    0.000    0.741    0.000    6.667    0.000    0.000 
#    0.000    0.000    0.000    0.000    0.000    0.000 
#
# Total GULP energy -300637.207606 kJ/mol
# GULP energy per Si atom -5567.355696 kJ/mol
# Density = 2.042459 g / cm^3
# Si number density = 20.471186 Si / 1000 Ang^3
#
#
#
# Elastic Constant Matrix: (Units=GPa)
#
#
# Indices 1 2 3 4 5 6 
#
# 1 54.8694 16.2921 13.0069 0.0000 0.0000 0.0000
# 2 16.2921 54.8691 13.0065 0.0000 0.0000 0.0000
# 3 13.0069 13.0065 90.6034 0.0000 0.0000 0.0000
# 4 0.0000 0.0000 0.0000 23.0744 0.0000 0.0000
# 5 0.0000 0.0000 0.0000 0.0000 23.0738 0.0000
# 6 0.0000 0.0000 0.0000 0.0000 0.0000 1.2038
#
#
#
# Elastic Compliance Matrix: (Units=1/GPa)
#
#
# Indices 1 2 3 4 5 6 
#
# 1 0.020376 -0.005546 -0.002129 0.000000 0.000000 0.000000
# 2 -0.005546 0.020377 -0.002129 0.000000 0.000000 0.000000
# 3 -0.002129 -0.002129 0.011648 0.000000 0.000000 0.000000
# 4 0.000000 0.000000 0.000000 0.043338 0.000000 0.000000
# 5 0.000000 0.000000 0.000000 0.000000 0.043339 0.000000
# 6 0.000000 0.000000 0.000000 0.000000 0.000000 0.830669
#
#
# Mechanical properties :
#
#
# Convention : Reuss Voigt Hill
#
# Bulk Modulus (GPa) = 30.49349 31.66140 31.07744
# Shear Modulus (GPa) = 4.99857 20.00618 12.50237
#
# Velocity S-wave (km/s) = 1.56431 3.12955 2.47398
# Velocity P-wave (km/s) = 4.26508 5.34403 4.83475
#
# Compressibility (1/GPa) = 0.03279389
#
# Stress axis : x y z
#
# Youngs Moduli (GPa) = 49.07629 49.07613 85.84874
#
# Poissons Ratio (x) = 0.27216 0.18278
# Poissons Ratio (y) = 0.27216 0.18277
# Poissons Ratio (z) = 0.10449 0.10448
#
# Static dielectric constant tensor:
#      x y z
#    x 1.767890 0.000000 0.000000 
#    y 0.000000 1.767880 0.000000 
#    z 0.000000 0.000000 1.752510 
# 
# From -- ./inp_files/3542.got.cif
#   From: 2010.05.17/outbox.cif.g08.bks.cpg/sg93_2_cif.got.tgz:3542.got - 2010.06.03 19:38:44.
