data_PCOD9549136
_publ_section_title
;
Structure prediction by ZEFSAII (Michael W. Deem and Ramdas Pophale) SiO2 
 PCOD9549136
Probable space group: P 41 21 2
;
_chemical_formula_sum "Si O2"
_cell_formula_units_Z 40
_cell_length_a 8.767074
_cell_length_b 8.767074
_cell_length_c 25.896135
_cell_angle_alpha 90.000000
_cell_angle_beta 90.000000
_cell_angle_gamma 90.000000
_cell_volume 1990.418021
_symmetry_space_group_name_H-M "P 41 21 2"
_symmetry_group_IT_number 92
_symmetry_cell_setting 'tetragonal'
loop_
_space_group_symop_operation_xyz
x,y,z
1/2-y,1/2+x,1/4+z
-x,-y,1/2+z
1/2+y,1/2-x,3/4+z
1/2+x,1/2-y,3/4-z
1/2-x,1/2+y,1/4-z
y,x,-z
-y,-x,1/2-z
loop_
_atom_site_type_symbol
_atom_site_label
_atom_site_fract_x
_atom_site_fract_y
_atom_site_fract_z
Si Si1 0.365285 0.832715 0.608056
Si Si2 0.562314 0.132030 0.923905
Si Si3 0.103506 0.663423 0.223932
Si Si4 0.349438 0.579685 0.690400
Si Si5 0.802753 0.084580 0.585132
O O1 0.471246 0.938801 0.644177
O O2 0.492800 0.763770 0.569310
O O3 0.300712 0.709419 0.648537
O O4 0.251418 0.931985 0.573269
O O5 0.455148 0.246606 0.892418
O O6 0.733970 0.198869 0.923741
O O7 0.505548 0.106457 0.980946
O O8 0.219968 0.780033 0.250000
O O9 0.194489 0.520845 0.199967
O O10 0.358480 0.641521 0.750000
O O11 0.523842 0.539282 0.676478
#
# Coordination Sequence:
#
# PCOD9549136 Si02
#       5
#     8   8   8   8   8
#     4  10  23  39  60  88 120 158 204 253 305 375
#     4  10  21  40  61  90 121 157 209 254 309 373
#     4  11  22  39  62  88 121 162 206 256 311 374
#     4  11  23  41  60  87 124 160 202 255 313 369
#     4  10  22  39  62  87 120 161 204 252 309 377
#
# _framework density 20.096283
#
# number of rings (size 3 to 8) (size 9 to 14) (size 15 to 20)
#    0.000    1.600    0.000    6.600    0.000    8.000 
#    0.000    3.000    0.000    0.000    0.000    0.000 
#    0.000    0.000    0.000    0.000    0.000    0.000 
#
# Total GULP energy -223113.140752 kJ/mol
# GULP energy per Si atom -5577.828519 kJ/mol
# Density = 2.005054 g / cm^3
# Si number density = 20.096283 Si / 1000 Ang^3
#
#
#
# Elastic Constant Matrix: (Units=GPa)
#
#
# Indices 1 2 3 4 5 6 
#
# 1 66.9037 29.0778 24.0533 0.0000 0.0000 0.0000
# 2 29.0778 66.9038 24.0534 0.0000 0.0000 0.0000
# 3 24.0533 24.0534 118.9876 0.0000 0.0000 0.0000
# 4 0.0000 0.0000 0.0000 32.1735 0.0000 0.0000
# 5 0.0000 0.0000 0.0000 0.0000 32.1736 0.0000
# 6 0.0000 0.0000 0.0000 0.0000 0.0000 35.9816
#
#
#
# Elastic Compliance Matrix: (Units=1/GPa)
#
#
# Indices 1 2 3 4 5 6 
#
# 1 0.019015 -0.007422 -0.002344 0.000000 0.000000 0.000000
# 2 -0.007422 0.019015 -0.002344 0.000000 0.000000 0.000000
# 3 -0.002344 -0.002344 0.009352 0.000000 0.000000 0.000000
# 4 0.000000 0.000000 0.000000 0.031081 0.000000 0.000000
# 5 0.000000 0.000000 0.000000 0.000000 0.031081 0.000000
# 6 0.000000 0.000000 0.000000 0.000000 0.000000 0.027792
#
#
# Mechanical properties :
#
#
# Convention : Reuss Voigt Hill
#
# Bulk Modulus (GPa) = 43.17044 45.24046 44.20545
# Shear Modulus (GPa) = 29.53757 31.77312 30.65534
#
# Velocity S-wave (km/s) = 3.83796 3.98055 3.90990
# Velocity P-wave (km/s) = 6.41626 6.60962 6.51366
#
# Compressibility (1/GPa) = 0.02316400
#
# Stress axis : x y z
#
# Youngs Moduli (GPa) = 52.58983 52.58987 106.93185
#
# Poissons Ratio (x) = 0.39031 0.25060
# Poissons Ratio (y) = 0.39031 0.25061
# Poissons Ratio (z) = 0.12325 0.12325
#
# Static dielectric constant tensor:
#      x y z
#    x 1.716520 0.000000 0.000000 
#    y 0.000000 1.716520 0.000000 
#    z 0.000000 0.000000 1.755080 
# 
# From -- ./inp_files/3761.got.cif
#   From: 2010.05.17/outbox.cif.g08.bks.cpg/sg92_2_cif.got.tgz:3761.got - 2010.06.03 19:35:17.
