data_PCOD9549891
_publ_section_title
;
Structure prediction by ZEFSAII (Michael W. Deem and Ramdas Pophale) SiO2 
 PCOD9549891
Probable space group: P 42 2 2
;
_chemical_formula_sum "Si O2"
_cell_formula_units_Z 20
_cell_length_a 5.262321
_cell_length_b 5.262321
_cell_length_c 28.603094
_cell_angle_alpha 90.000000
_cell_angle_beta 90.000000
_cell_angle_gamma 90.000000
_cell_volume 792.077517
_symmetry_space_group_name_H-M "P 42 2 2"
_symmetry_group_IT_number 93
_symmetry_cell_setting 'tetragonal'
loop_
_space_group_symop_operation_xyz
x,y,z
-y,x,1/2+z
-x,-y,z
y,-x,1/2+z
x,-y,-z
-x,y,-z
y,x,1/2-z
-y,-x,1/2-z
loop_
_atom_site_type_symbol
_atom_site_label
_atom_site_fract_x
_atom_site_fract_y
_atom_site_fract_z
Si Si1 0.243786 0.664029 0.683224
Si Si2 0.000000 0.000000 0.750000
Si Si3 0.000000 0.000000 0.000000
Si Si4 0.666438 0.251664 0.577137
O O1 0.500000 0.500000 0.690474
O O2 0.219125 0.925651 0.712061
O O3 0.211094 0.711015 0.627971
O O4 0.000000 0.500000 0.698510
O O5 0.816108 0.153908 0.965628
O O6 0.500000 0.500000 0.567346
O O7 0.500000 0.000000 0.582540
#
# Coordination Sequence:
#
# PCOD9549891 Si02
#       4
#     8   2   2   8
#     4  11  29  51  80 116 165 214 267 336 413 487
#     4  12  28  44  90 116 160 212 278 340 392 500
#     4  12  28  50  84 118 152 222 272 354 398 512
#     4  11  29  52  78 115 163 209 268 336 412 488
#
# _framework density 25.250057000000002
#
# number of rings (size 3 to 8) (size 9 to 14) (size 15 to 20)
#    0.000    0.800    0.000    2.400   28.000    4.800 
#    0.000    0.000    0.000    0.000    0.000    0.000 
#    0.000    0.000    0.000    0.000    0.000    0.000 
#
# Total GULP energy -111928.709104 kJ/mol
# GULP energy per Si atom -5596.435455 kJ/mol
# Density = 2.519259 g / cm^3
# Si number density = 25.250057 Si / 1000 Ang^3
#
#
#
# Elastic Constant Matrix: (Units=GPa)
#
#
# Indices 1 2 3 4 5 6 
#
# 1 156.1660 80.5494 85.7847 0.0000 0.0000 0.0000
# 2 80.5494 156.1660 85.7847 0.0000 0.0000 0.0000
# 3 85.7847 85.7847 254.5987 0.0000 0.0000 0.0000
# 4 0.0000 0.0000 0.0000 -10.2598 0.0000 0.0000
# 5 0.0000 0.0000 0.0000 0.0000 -10.2598 0.0000
# 6 0.0000 0.0000 0.0000 0.0000 0.0000 -1.2263
#
#
#
# Elastic Compliance Matrix: (Units=1/GPa)
#
#
# Indices 1 2 3 4 5 6 
#
# 1 0.009407 -0.003818 -0.001883 0.000000 0.000000 0.000000
# 2 -0.003818 0.009407 -0.001883 0.000000 0.000000 0.000000
# 3 -0.001883 -0.001883 0.005197 0.000000 0.000000 0.000000
# 4 0.000000 0.000000 0.000000 -0.097467 0.000000 0.000000
# 5 0.000000 0.000000 0.000000 0.000000 -0.097467 0.000000
# 6 0.000000 0.000000 0.000000 0.000000 0.000000 -0.815474
#
#
# Mechanical properties :
#
#
# Convention : Reuss Voigt Hill
#
# Bulk Modulus (GPa) = 113.08925 119.01871 116.05398
# Shear Modulus (GPa) = -5.16379 16.63827 5.73724
#
# Velocity S-wave (km/s) = -1.43161 2.56977 1.50901
# Velocity P-wave (km/s) = 6.49248 7.48621 7.00698
#
# Compressibility (1/GPa) = 0.00884257
#
# Stress axis : x y z
#
# Youngs Moduli (GPa) = 106.30321 106.30321 192.42266
#
# Poissons Ratio (x) = 0.40582 0.36240
# Poissons Ratio (y) = 0.40582 0.36240
# Poissons Ratio (z) = 0.20020 0.20020
#
# Static dielectric constant tensor:
#      x y z
#    x 2.225240 0.000000 0.000000 
#    y 0.000000 2.225240 0.000000 
#    z 0.000000 0.000000 2.044340 
# 
# From -- ./inp_files/7100.got.cif
#   From: 2010.05.17/outbox.cif.g08.bks.cpg/sg93_4_cif.got.tgz:7100.got - 2010.06.03 19:38:44.
