data_PCOD9549455
_publ_section_title
;
Structure prediction by ZEFSAII (Michael W. Deem and Ramdas Pophale) SiO2 
 PCOD9549455
Probable space group: P 41 21 2
;
_chemical_formula_sum "Si O2"
_cell_formula_units_Z 40
_cell_length_a 7.533238
_cell_length_b 7.533238
_cell_length_c 26.876251
_cell_angle_alpha 90.000000
_cell_angle_beta 90.000000
_cell_angle_gamma 90.000000
_cell_volume 1525.218503
_symmetry_space_group_name_H-M "P 41 21 2"
_symmetry_group_IT_number 92
_symmetry_cell_setting 'tetragonal'
loop_
_space_group_symop_operation_xyz
x,y,z
1/2-y,1/2+x,1/4+z
-x,-y,1/2+z
1/2+y,1/2-x,3/4+z
1/2+x,1/2-y,3/4-z
1/2-x,1/2+y,1/4-z
y,x,-z
-y,-x,1/2-z
loop_
_atom_site_type_symbol
_atom_site_label
_atom_site_fract_x
_atom_site_fract_y
_atom_site_fract_z
Si Si1 0.912873 0.306967 0.858506
Si Si2 0.823161 0.054530 0.461316
Si Si3 0.727608 0.177817 0.951087
Si Si4 0.453771 0.813657 0.858098
Si Si5 0.612030 0.769941 0.954007
O O1 0.769641 0.404079 0.822554
O O2 0.848734 0.175896 0.901428
O O3 0.055159 0.224451 0.821034
O O4 0.998627 0.476447 0.888169
O O5 0.724029 0.173261 0.503936
O O6 0.927366 0.190029 0.426310
O O7 0.956398 0.956398 0.500000
O O8 0.659237 0.978784 0.965813
O O9 0.448882 0.760029 0.916183
O O10 0.264224 0.791573 0.834084
O O11 0.643615 0.643615 0.000000
#
# Coordination Sequence:
#
# PCOD9549455 Si02
#       5
#     8   8   8   8   8
#     4  11  27  43  71 105 138 187 237 287 357 421
#     4  12  23  44  71  97 144 190 231 291 354 417
#     4  11  24  43  69  97 142 181 231 286 353 417
#     4  11  22  42  68 101 137 179 236 282 347 422
#     4  11  22  42  68  98 137 186 231 288 354 411
#
# _framework density 26.225752
#
# number of rings (size 3 to 8) (size 9 to 14) (size 15 to 20)
#    0.000    0.800    6.000    1.200    2.800    0.000 
#    0.000    0.000    0.000    0.000    0.000    0.000 
#    0.000    0.000    0.000    0.000    0.000    0.000 
#
# Total GULP energy -223538.182604 kJ/mol
# GULP energy per Si atom -5588.454565 kJ/mol
# Density = 2.616606 g / cm^3
# Si number density = 26.225752 Si / 1000 Ang^3
#
#
#
# Elastic Constant Matrix: (Units=GPa)
#
#
# Indices 1 2 3 4 5 6 
#
# 1 61.7927 1.1552 27.6760 0.0000 0.0000 0.0000
# 2 1.1552 61.7927 27.6760 0.0000 0.0000 0.0000
# 3 27.6760 27.6760 175.5330 0.0000 0.0000 0.0000
# 4 0.0000 0.0000 0.0000 48.6768 0.0000 0.0000
# 5 0.0000 0.0000 0.0000 0.0000 48.6768 0.0000
# 6 0.0000 0.0000 0.0000 0.0000 0.0000 35.5379
#
#
#
# Elastic Compliance Matrix: (Units=1/GPa)
#
#
# Indices 1 2 3 4 5 6 
#
# 1 0.017467 0.000976 -0.002908 0.000000 0.000000 0.000000
# 2 0.000976 0.017467 -0.002908 0.000000 0.000000 0.000000
# 3 -0.002908 -0.002908 0.006614 0.000000 0.000000 0.000000
# 4 0.000000 0.000000 0.000000 0.020544 0.000000 0.000000
# 5 0.000000 0.000000 0.000000 0.000000 0.020544 0.000000
# 6 0.000000 0.000000 0.000000 0.000000 0.000000 0.028139
#
#
# Mechanical properties :
#
#
# Convention : Reuss Voigt Hill
#
# Bulk Modulus (GPa) = 31.37884 45.79253 38.58568
# Shear Modulus (GPa) = 38.14536 42.75240 40.44888
#
# Velocity S-wave (km/s) = 3.81793 4.04191 3.93152
# Velocity P-wave (km/s) = 5.60592 6.26750 5.94592
#
# Compressibility (1/GPa) = 0.03186861
#
# Stress axis : x y z
#
# Youngs Moduli (GPa) = 57.24986 57.24986 151.19663
#
# Poissons Ratio (x) = -0.05587 0.43967
# Poissons Ratio (y) = -0.05587 0.43967
# Poissons Ratio (z) = 0.16648 0.16648
#
# Static dielectric constant tensor:
#      x y z
#    x 2.306820 0.000000 0.000000 
#    y 0.000000 2.306820 0.000000 
#    z 0.000000 0.000000 2.022060 
# 
# From -- ./inp_files/3757.got.cif
#   From: 2010.05.17/outbox.cif.g08.bks.cpg/sg92_2_cif.got.tgz:3757.got - 2010.06.03 19:35:17.
