data_PCOD9549851
_publ_section_title
;
Structure prediction by ZEFSAII (Michael W. Deem and Ramdas Pophale) SiO2 
 PCOD9549851
Probable space group: P 42 2 2
;
_chemical_formula_sum "Si O2"
_cell_formula_units_Z 60
_cell_length_a 12.324209
_cell_length_b 12.324209
_cell_length_c 20.656820
_cell_angle_alpha 90.000000
_cell_angle_beta 90.000000
_cell_angle_gamma 90.000000
_cell_volume 3137.484396
_symmetry_space_group_name_H-M "P 42 2 2"
_symmetry_group_IT_number 93
_symmetry_cell_setting 'tetragonal'
loop_
_space_group_symop_operation_xyz
x,y,z
-y,x,1/2+z
-x,-y,z
y,-x,1/2+z
x,-y,-z
-x,y,-z
y,x,1/2-z
-y,-x,1/2-z
loop_
_atom_site_type_symbol
_atom_site_label
_atom_site_fract_x
_atom_site_fract_y
_atom_site_fract_z
Si Si1 0.120635 0.657372 0.884750
Si Si2 0.522033 0.871027 0.723365
Si Si3 0.624172 0.718422 0.503029
Si Si4 0.128270 0.474452 0.362460
Si Si5 0.226767 0.851262 0.821350
Si Si6 0.696090 0.870711 0.619819
Si Si7 0.932394 0.891364 0.674629
Si Si8 0.500000 0.762064 0.000000
O O1 0.157362 0.577541 0.825664
O O2 0.147654 0.780281 0.865401
O O3 0.991933 0.652056 0.897741
O O4 0.192921 0.632952 0.946327
O O5 0.529006 0.827079 0.796256
O O6 0.632695 0.847729 0.686290
O O7 0.500000 0.000000 0.730639
O O8 0.500000 0.682901 0.500000
O O9 0.660464 0.782617 0.567404
O O10 0.694827 0.611139 0.494202
O O11 0.158524 0.349359 0.345859
O O12 0.173513 0.507368 0.432182
O O13 0.000000 0.500000 0.365410
O O14 0.194913 0.805088 0.750000
O O15 0.202501 0.978380 0.826951
O O16 0.824789 0.874830 0.632594
O O17 0.901637 0.901637 0.750000
O O18 0.000000 0.000000 0.657017
#
# Coordination Sequence:
#
# PCOD9549851 Si02
#       8
#     8   8   8   8   8   8   8   4
#     4  11  20  40  66 100 127 166 222 279 338 394
#     4   9  20  36  67 100 126 158 221 289 325 383
#     4  12  26  45  69  91 128 177 221 286 349 401
#     4  11  25  42  67  94 131 178 232 274 324 398
#     4  12  21  39  67  98 134 176 225 276 334 407
#     4  11  23  39  66 101 137 167 222 278 337 402
#     4  11  22  36  60  97 144 183 210 259 340 409
#     4  12  28  48  62  92 128 184 230 272 342 414
#
# _framework density 19.123601000000001
#
# number of rings (size 3 to 8) (size 9 to 14) (size 15 to 20)
#    0.000    0.933    6.667    0.800    5.600    0.533 
#    0.000    0.667    0.000    0.000    3.467    0.000 
#    0.000    0.000    0.000    0.000    0.000    0.000 
#
# Total GULP energy -334635.784467 kJ/mol
# GULP energy per Si atom -5577.263074 kJ/mol
# Density = 1.908007 g / cm^3
# Si number density = 19.123601 Si / 1000 Ang^3
#
#
#
# Elastic Constant Matrix: (Units=GPa)
#
#
# Indices 1 2 3 4 5 6 
#
# 1 12.8727 81.6238 39.8903 0.0000 0.0000 0.0000
# 2 81.6238 12.8720 39.8892 0.0000 0.0000 0.0000
# 3 39.8903 39.8892 132.1141 0.0000 0.0000 0.0000
# 4 0.0000 0.0000 0.0000 41.8730 0.0000 0.0000
# 5 0.0000 0.0000 0.0000 0.0000 41.8770 0.0000
# 6 0.0000 0.0000 0.0000 0.0000 0.0000 25.2040
#
#
#
# Elastic Compliance Matrix: (Units=1/GPa)
#
#
# Indices 1 2 3 4 5 6 
#
# 1 -0.000171 0.014374 -0.004288 0.000000 0.000000 0.000000
# 2 0.014374 -0.000171 -0.004288 0.000000 0.000000 0.000000
# 3 -0.004288 -0.004288 0.010159 0.000000 0.000000 0.000000
# 4 0.000000 0.000000 0.000000 0.023882 0.000000 0.000000
# 5 0.000000 0.000000 0.000000 0.000000 0.023879 0.000000
# 6 0.000000 0.000000 0.000000 0.000000 0.000000 0.039676
#
#
# Mechanical properties :
#
#
# Convention : Reuss Voigt Hill
#
# Bulk Modulus (GPa) = 46.70438 53.40730 50.05584
# Shear Modulus (GPa) = 53.88137 21.55450 37.71794
#
# Velocity S-wave (km/s) = 5.31380 3.36090 4.44590
# Velocity P-wave (km/s) = 7.88188 6.56116 7.25165
#
# Compressibility (1/GPa) = 0.02141127
#
# Stress axis : x y z
#
# Youngs Moduli (GPa) = -5844.33171 -5843.90404 98.43669
#
# Poissons Ratio (x) = 84.00053 0.42213
# Poissons Ratio (y) = 84.00667 0.42214
# Poissons Ratio (z) = -25.06221 -25.06105
#
# Static dielectric constant tensor:
#      x y z
#    x 1.877340 0.000000 0.000000 
#    y 0.000000 1.877270 0.000000 
#    z 0.000000 0.000000 1.708630 
# 
# From -- ./inp_files/6340.got.cif
#   From: 2010.05.17/outbox.cif.g08.bks.cpg/sg93_4_cif.got.tgz:6340.got - 2010.06.03 19:38:44.
