data_PCOD9549089
_publ_section_title
;
Structure prediction by ZEFSAII (Michael W. Deem and Ramdas Pophale) SiO2 
 PCOD9549089
Probable space group: P 41 21 2
;
_chemical_formula_sum "Si O2"
_cell_formula_units_Z 60
_cell_length_a 16.676874
_cell_length_b 16.676874
_cell_length_c 8.893610
_cell_angle_alpha 90.000000
_cell_angle_beta 90.000000
_cell_angle_gamma 90.000000
_cell_volume 2473.474150
_symmetry_space_group_name_H-M "P 41 21 2"
_symmetry_group_IT_number 92
_symmetry_cell_setting 'tetragonal'
loop_
_space_group_symop_operation_xyz
x,y,z
1/2-y,1/2+x,1/4+z
-x,-y,1/2+z
1/2+y,1/2-x,3/4+z
1/2+x,1/2-y,3/4-z
1/2-x,1/2+y,1/4-z
y,x,-z
-y,-x,1/2-z
loop_
_atom_site_type_symbol
_atom_site_label
_atom_site_fract_x
_atom_site_fract_y
_atom_site_fract_z
Si Si1 0.773952 0.755541 0.328841
Si Si2 0.071718 0.949208 0.035587
Si Si3 0.356676 0.906082 0.360471
Si Si4 0.961581 0.221173 0.194234
Si Si5 0.496307 0.715491 0.738698
Si Si6 0.988522 0.324667 0.921891
Si Si7 0.424171 0.667515 0.460908
Si Si8 0.781086 0.218915 0.250000
O O1 0.741005 0.741005 0.500000
O O2 0.825872 0.674664 0.314078
O O3 0.833256 0.831956 0.342820
O O4 0.732644 0.760115 0.164616
O O5 0.098843 0.013766 0.162459
O O6 0.140288 0.959266 0.906977
O O7 0.062920 0.853383 0.056691
O O8 0.983664 0.983664 0.000000
O O9 0.304232 0.975396 0.438375
O O10 0.452592 0.898828 0.361915
O O11 0.335214 0.911096 0.182413
O O12 0.019205 0.211256 0.335685
O O13 0.875715 0.230976 0.272709
O O14 0.975186 0.299690 0.092987
O O15 0.423356 0.688007 0.636065
O O16 0.032219 0.244617 0.862290
#
# Coordination Sequence:
#
# PCOD9549089 Si02
#       8
#     8   8   8   8   8   8   8   4
#     4  11  22  41  66 100 138 187 228 292 353 419
#     4  11  22  40  63  91 132 185 228 279 351 421
#     4  10  20  43  65  95 128 173 231 279 356 427
#     4  11  21  41  61  97 133 171 234 295 346 425
#     4  11  21  39  65  89 130 173 227 295 343 415
#     4   9  21  39  67  89 126 174 221 283 353 420
#     4   9  22  40  58  90 131 178 225 273 342 419
#     4  12  22  42  72 106 136 184 252 288 356 432
#
# _framework density 24.257379
#
# number of rings (size 3 to 8) (size 9 to 14) (size 15 to 20)
#    0.000    1.600    2.667    1.600    0.000    4.267 
#   13.200    1.333    0.000    0.000    0.000    0.000 
#    0.000    0.000    0.000    0.000    0.000    0.000 
#
# Total GULP energy -334168.330298 kJ/mol
# GULP energy per Si atom -5569.472172 kJ/mol
# Density = 2.420217 g / cm^3
# Si number density = 24.257379 Si / 1000 Ang^3
#
#
#
# Elastic Constant Matrix: (Units=GPa)
#
#
# Indices 1 2 3 4 5 6 
#
# 1 40.6433 39.1748 18.9625 0.0000 0.0000 0.0000
# 2 39.1748 40.6436 18.9629 0.0000 0.0000 0.0000
# 3 18.9625 18.9629 158.9051 0.0000 0.0000 0.0000
# 4 0.0000 0.0000 0.0000 25.5821 0.0000 0.0000
# 5 0.0000 0.0000 0.0000 0.0000 25.5823 0.0000
# 6 0.0000 0.0000 0.0000 0.0000 0.0000 22.7755
#
#
#
# Elastic Compliance Matrix: (Units=1/GPa)
#
#
# Indices 1 2 3 4 5 6 
#
# 1 0.347086 -0.333803 -0.001584 0.000000 0.000000 0.000000
# 2 -0.333803 0.347084 -0.001586 0.000000 0.000000 0.000000
# 3 -0.001584 -0.001586 0.006671 0.000000 0.000000 0.000000
# 4 0.000000 0.000000 0.000000 0.039090 0.000000 0.000000
# 5 0.000000 0.000000 0.000000 0.000000 0.039090 0.000000
# 6 0.000000 0.000000 0.000000 0.000000 0.000000 0.043907
#
#
# Mechanical properties :
#
#
# Convention : Reuss Voigt Hill
#
# Bulk Modulus (GPa) = 37.18209 43.82139 40.50174
# Shear Modulus (GPa) = 3.32041 25.66078 14.49059
#
# Velocity S-wave (km/s) = 1.17124 3.25600 2.44676
# Velocity P-wave (km/s) = 4.14614 5.67801 4.97143
#
# Compressibility (1/GPa) = 0.02689467
#
# Stress axis : x y z
#
# Youngs Moduli (GPa) = 2.88113 2.88115 149.89505
#
# Poissons Ratio (x) = 0.96174 0.23746
# Poissons Ratio (y) = 0.96173 0.23768
# Poissons Ratio (z) = 0.00456 0.00457
#
# Static dielectric constant tensor:
#      x y z
#    x 1.972470 0.000000 0.000000 
#    y 0.000000 1.972480 0.000000 
#    z 0.000000 0.000000 2.045840 
# 
# From -- ./inp_files/1630.got.cif
#   From: 2010.05.17/outbox.cif.g08.bks.cpg/sg92_1_cif.got.tgz:1630.got - 2010.06.03 19:35:17.
