data_PCOD9549587
_publ_section_title
;
Structure prediction by ZEFSAII (Michael W. Deem and Ramdas Pophale) SiO2 
 PCOD9549587
Probable space group: P 41 21 2
;
_chemical_formula_sum "Si O2"
_cell_formula_units_Z 60
_cell_length_a 18.000000
_cell_length_b 18.000000
_cell_length_c 9.000000
_cell_angle_alpha 90.000000
_cell_angle_beta 90.000000
_cell_angle_gamma 90.000000
_cell_volume 2916.000000
_symmetry_space_group_name_H-M "P 41 21 2"
_symmetry_group_IT_number 92
_symmetry_cell_setting 'tetragonal'
loop_
_space_group_symop_operation_xyz
x,y,z
1/2-y,1/2+x,1/4+z
-x,-y,1/2+z
1/2+y,1/2-x,3/4+z
1/2+x,1/2-y,3/4-z
1/2-x,1/2+y,1/4-z
y,x,-z
-y,-x,1/2-z
loop_
_atom_site_type_symbol
_atom_site_label
_atom_site_fract_x
_atom_site_fract_y
_atom_site_fract_z
Si Si1 0.724715 0.318182 0.916113
Si Si2 0.930927 0.867156 0.854571
Si Si3 0.415885 0.327310 0.798724
Si Si4 0.610095 0.825078 0.448803
Si Si5 0.039026 0.750310 0.756724
Si Si6 0.465590 0.465590 0.000000
Si Si7 0.239330 0.340707 0.742715
Si Si8 0.083228 0.521467 0.441549
O O1 0.699287 0.300713 0.750000
O O2 0.812476 0.331287 0.894007
O O3 0.673852 0.382294 0.979854
O O4 0.717030 0.245188 0.016613
O O5 0.995666 0.805385 0.871240
O O6 0.957016 0.949908 0.808185
O O7 0.881803 0.881803 0.000000
O O8 0.428028 0.251387 0.893276
O O9 0.445687 0.302737 0.636660
O O10 0.451175 0.400592 0.875645
O O11 0.326732 0.341036 0.790065
O O12 0.626064 0.809723 0.622136
O O13 0.573349 0.903371 0.408142
O O14 0.115054 0.730350 0.840876
O O15 0.000226 0.671254 0.714277
O O16 0.042438 0.455814 0.348597
#
# Coordination Sequence:
#
# PCOD9549587 Si02
#       8
#     8   8   8   8   8   4   8   8
#     4   9  21  43  71 101 135 183 241 293 354 437
#     4  12  29  43  65 105 153 187 241 301 365 436
#     4  11  22  45  72 104 144 191 246 295 365 442
#     4  10  20  46  73 100 135 184 241 300 361 444
#     4  12  27  46  72 105 152 196 237 306 378 438
#     4  12  28  44  72 110 148 202 242 298 366 452
#     4  10  22  41  75 104 134 185 246 293 363 437
#     4  12  28  49  72 107 146 189 250 315 380 445
#
# _framework density 20.576132000000001
#
# number of rings (size 3 to 8) (size 9 to 14) (size 15 to 20)
#    0.000    1.067    4.000    2.000    7.467    3.200 
#    0.000    0.000    0.000    0.000    0.000    0.000 
#    0.000    0.000    0.000    0.000    0.000    0.000 
#
# Total GULP energy -335123.587661 kJ/mol
# GULP energy per Si atom -5585.393128 kJ/mol
# Density = 2.052930 g / cm^3
# Si number density = 20.576132 Si / 1000 Ang^3
#
#
#
# Elastic Constant Matrix: (Units=GPa)
#
#
# Indices 1 2 3 4 5 6 
#
# 1 86.2108 31.0996 24.6589 0.0000 0.0000 0.0000
# 2 31.0996 86.2117 24.6579 0.0000 0.0000 0.0000
# 3 24.6589 24.6579 67.2234 0.0000 0.0000 0.0000
# 4 0.0000 0.0000 0.0000 33.0074 0.0000 0.0000
# 5 0.0000 0.0000 0.0000 0.0000 33.0071 0.0000
# 6 0.0000 0.0000 0.0000 0.0000 0.0000 32.0264
#
#
#
# Elastic Compliance Matrix: (Units=1/GPa)
#
#
# Indices 1 2 3 4 5 6 
#
# 1 0.014112 -0.004033 -0.003697 0.000000 0.000000 0.000000
# 2 -0.004033 0.014112 -0.003697 0.000000 0.000000 0.000000
# 3 -0.003697 -0.003697 0.017588 0.000000 0.000000 0.000000
# 4 0.000000 0.000000 0.000000 0.030296 0.000000 0.000000
# 5 0.000000 0.000000 0.000000 0.000000 0.030297 0.000000
# 6 0.000000 0.000000 0.000000 0.000000 0.000000 0.031224
#
#
# Mechanical properties :
#
#
# Convention : Reuss Voigt Hill
#
# Bulk Modulus (GPa) = 43.55920 44.49764 44.02842
# Shear Modulus (GPa) = 29.73800 30.22348 29.98074
#
# Velocity S-wave (km/s) = 3.80579 3.83673 3.82129
# Velocity P-wave (km/s) = 6.36614 6.42652 6.39640
#
# Compressibility (1/GPa) = 0.02295726
#
# Stress axis : x y z
#
# Youngs Moduli (GPa) = 70.86211 70.86360 56.85711
#
# Poissons Ratio (x) = 0.28581 0.21021
# Poissons Ratio (y) = 0.28580 0.21019
# Poissons Ratio (z) = 0.26199 0.26196
#
# Static dielectric constant tensor:
#      x y z
#    x 1.753570 0.000000 0.000000 
#    y 0.000000 1.753570 0.000000 
#    z 0.000000 0.000000 1.740470 
# 
# From -- ./inp_files/1626.got.cif
#   From: 2010.05.17/outbox.ucp.g08.bks.cvg/sg92_1_cif.got.tgz:1626.got - 2010.06.11 10:36:43.
