data_PCOD9549046
_publ_section_title
;
Structure prediction by ZEFSAII (Michael W. Deem and Ramdas Pophale) SiO2 
 PCOD9549046
Probable space group: P 41 21 2
;
_chemical_formula_sum "Si O2"
_cell_formula_units_Z 48
_cell_length_a 9.213993
_cell_length_b 9.213993
_cell_length_c 28.355717
_cell_angle_alpha 90.000000
_cell_angle_beta 90.000000
_cell_angle_gamma 90.000000
_cell_volume 2407.334220
_symmetry_space_group_name_H-M "P 41 21 2"
_symmetry_group_IT_number 92
_symmetry_cell_setting 'tetragonal'
loop_
_space_group_symop_operation_xyz
x,y,z
1/2-y,1/2+x,1/4+z
-x,-y,1/2+z
1/2+y,1/2-x,3/4+z
1/2+x,1/2-y,3/4-z
1/2-x,1/2+y,1/4-z
y,x,-z
-y,-x,1/2-z
loop_
_atom_site_type_symbol
_atom_site_label
_atom_site_fract_x
_atom_site_fract_y
_atom_site_fract_z
Si Si1 0.606364 0.802090 0.301655
Si Si2 0.340339 0.548446 0.700909
Si Si3 0.740865 0.549845 0.357243
Si Si4 0.570182 0.949391 0.111816
Si Si5 0.739061 0.755483 0.552678
Si Si6 0.217187 0.426878 0.301229
O O1 0.713804 0.673823 0.317535
O O2 0.433678 0.757488 0.303980
O O3 0.626446 0.850511 0.247735
O O4 0.625432 0.931328 0.338212
O O5 0.366155 0.633846 0.750000
O O6 0.426784 0.632067 0.660035
O O7 0.178761 0.527011 0.681626
O O8 0.403757 0.387683 0.706151
O O9 0.706431 0.629180 0.406806
O O10 0.900869 0.483181 0.364028
O O11 0.641442 0.849971 0.152122
O O12 0.702681 0.702681 0.500000
O O13 0.901426 0.697338 0.559315
#
# Coordination Sequence:
#
# PCOD9549046 Si02
#       6
#     8   8   8   8   8   8
#     4  10  20  38  65  96 122 167 213 260 322 389
#     4  12  24  43  66  90 131 181 210 265 339 402
#     4  11  21  41  65  95 128 169 217 272 328 387
#     4  11  26  39  65 101 133 162 223 277 321 389
#     4   9  18  36  63  94 120 163 215 265 309 384
#     4  11  20  39  65  91 125 169 220 259 321 395
#
# _framework density 19.939066
#
# number of rings (size 3 to 8) (size 9 to 14) (size 15 to 20)
#    0.000    1.333    5.000    1.500    2.333    0.000 
#    0.000    0.000    0.000    0.000    0.000    0.000 
#    0.000    0.000    0.000    0.000    0.000    0.000 
#
# Total GULP energy -267702.018149 kJ/mol
# GULP energy per Si atom -5577.125378 kJ/mol
# Density = 1.989368 g / cm^3
# Si number density = 19.939066 Si / 1000 Ang^3
#
#
#
# Elastic Constant Matrix: (Units=GPa)
#
#
# Indices 1 2 3 4 5 6 
#
# 1 38.7249 16.0013 32.7328 0.0000 0.0000 0.0000
# 2 16.0013 38.7248 32.7328 0.0000 0.0000 0.0000
# 3 32.7328 32.7328 153.1116 0.0000 0.0000 0.0000
# 4 0.0000 0.0000 0.0000 31.3199 0.0000 0.0000
# 5 0.0000 0.0000 0.0000 0.0000 31.3199 0.0000
# 6 0.0000 0.0000 0.0000 0.0000 0.0000 19.3860
#
#
#
# Elastic Compliance Matrix: (Units=1/GPa)
#
#
# Indices 1 2 3 4 5 6 
#
# 1 0.034279 -0.009728 -0.005249 0.000000 0.000000 0.000000
# 2 -0.009728 0.034279 -0.005249 0.000000 0.000000 0.000000
# 3 -0.005249 -0.005249 0.008775 0.000000 0.000000 0.000000
# 4 0.000000 0.000000 0.000000 0.031929 0.000000 0.000000
# 5 0.000000 0.000000 0.000000 0.000000 0.031929 0.000000
# 6 0.000000 0.000000 0.000000 0.000000 0.000000 0.051584
#
#
# Mechanical properties :
#
#
# Convention : Reuss Voigt Hill
#
# Bulk Modulus (GPa) = 27.11239 43.72169 35.41704
# Shear Modulus (GPa) = 20.36494 26.34479 23.35487
#
# Velocity S-wave (km/s) = 3.19934 3.63886 3.42616
# Velocity P-wave (km/s) = 5.22253 6.29527 5.78382
#
# Compressibility (1/GPa) = 0.03688350
#
# Stress axis : x y z
#
# Youngs Moduli (GPa) = 29.17207 29.17202 113.95541
#
# Poissons Ratio (x) = 0.28378 0.59812
# Poissons Ratio (y) = 0.28378 0.59812
# Poissons Ratio (z) = 0.15312 0.15312
#
# Static dielectric constant tensor:
#      x y z
#    x 1.725190 0.000000 0.000000 
#    y 0.000000 1.725190 0.000000 
#    z 0.000000 0.000000 1.808510 
# 
# From -- ./inp_files/4490.got.cif
#   From: 2010.05.17/outbox.cif.g08.bks.cpg/sg92_3_cif.got.tgz:4490.got - 2010.06.03 19:35:17.
