data_PCOD9549481
_publ_section_title
;
Structure prediction by ZEFSAII (Michael W. Deem and Ramdas Pophale) SiO2 
 PCOD9549481
Probable space group: P 41 21 2
;
_chemical_formula_sum "Si O2"
_cell_formula_units_Z 40
_cell_length_a 7.771750
_cell_length_b 7.771750
_cell_length_c 29.406136
_cell_angle_alpha 90.000000
_cell_angle_beta 90.000000
_cell_angle_gamma 90.000000
_cell_volume 1776.133498
_symmetry_space_group_name_H-M "P 41 21 2"
_symmetry_group_IT_number 92
_symmetry_cell_setting 'tetragonal'
loop_
_space_group_symop_operation_xyz
x,y,z
1/2-y,1/2+x,1/4+z
-x,-y,1/2+z
1/2+y,1/2-x,3/4+z
1/2+x,1/2-y,3/4-z
1/2-x,1/2+y,1/4-z
y,x,-z
-y,-x,1/2-z
loop_
_atom_site_type_symbol
_atom_site_label
_atom_site_fract_x
_atom_site_fract_y
_atom_site_fract_z
Si Si1 0.999664 0.744623 0.020115
Si Si2 0.524339 0.303168 0.634060
Si Si3 0.178078 0.671965 0.928644
Si Si4 0.570040 0.641760 0.952151
Si Si5 0.119155 0.577160 0.107314
O O1 0.113368 0.712577 0.065366
O O2 0.826738 0.645647 0.035099
O O3 0.096165 0.654247 0.978266
O O4 0.926996 0.926996 0.000000
O O5 0.360828 0.374395 0.660911
O O6 0.452887 0.299946 0.582089
O O7 0.695102 0.415449 0.630759
O O8 0.578675 0.120286 0.655184
O O9 0.384402 0.663488 0.930103
O O10 0.122444 0.527803 0.893371
O O11 0.546348 0.546348 0.000000
#
# Coordination Sequence:
#
# PCOD9549481 Si02
#       5
#     8   8   8   8   8
#     4  11  25  43  72 105 145 193 242 304 383 449
#     4  12  25  46  75 108 146 194 251 308 376 455
#     4  12  25  46  74 107 149 194 252 312 378 460
#     4  11  23  45  72  99 144 191 239 308 371 441
#     4  12  26  46  76 107 148 198 253 310 384 455
#
# _framework density 22.520831999999999
#
# number of rings (size 3 to 8) (size 9 to 14) (size 15 to 20)
#    0.000    0.400    4.000    4.800    5.600    0.000 
#    0.000    0.000    0.000    0.000    0.000    0.000 
#    0.000    0.000    0.000    0.000    0.000    0.000 
#
# Total GULP energy -223575.845816 kJ/mol
# GULP energy per Si atom -5589.396145 kJ/mol
# Density = 2.246957 g / cm^3
# Si number density = 22.520832 Si / 1000 Ang^3
#
#
#
# Elastic Constant Matrix: (Units=GPa)
#
#
# Indices 1 2 3 4 5 6 
#
# 1 84.9152 12.2379 33.5023 0.0000 0.0000 0.0000
# 2 12.2379 84.9152 33.5023 0.0000 0.0000 0.0000
# 3 33.5023 33.5023 115.4293 0.0000 0.0000 0.0000
# 4 0.0000 0.0000 0.0000 19.9820 0.0000 0.0000
# 5 0.0000 0.0000 0.0000 0.0000 19.9820 0.0000
# 6 0.0000 0.0000 0.0000 0.0000 0.0000 20.0150
#
#
#
# Elastic Compliance Matrix: (Units=1/GPa)
#
#
# Indices 1 2 3 4 5 6 
#
# 1 0.013314 -0.000445 -0.003735 0.000000 0.000000 0.000000
# 2 -0.000445 0.013314 -0.003735 0.000000 0.000000 0.000000
# 3 -0.003735 -0.003735 0.010831 0.000000 0.000000 0.000000
# 4 0.000000 0.000000 0.000000 0.050045 0.000000 0.000000
# 5 0.000000 0.000000 0.000000 0.000000 0.050045 0.000000
# 6 0.000000 0.000000 0.000000 0.000000 0.000000 0.049962
#
#
# Mechanical properties :
#
#
# Convention : Reuss Voigt Hill
#
# Bulk Modulus (GPa) = 46.23399 49.30498 47.76948
# Shear Modulus (GPa) = 23.74699 25.73030 24.73865
#
# Velocity S-wave (km/s) = 3.25075 3.38377 3.31793
# Velocity P-wave (km/s) = 5.88760 6.09977 5.99462
#
# Compressibility (1/GPa) = 0.02162911
#
# Stress axis : x y z
#
# Youngs Moduli (GPa) = 75.10743 75.10743 92.32338
#
# Poissons Ratio (x) = 0.03344 0.34484
# Poissons Ratio (y) = 0.03344 0.34484
# Poissons Ratio (z) = 0.28054 0.28054
#
# Static dielectric constant tensor:
#      x y z
#    x 1.833840 0.000000 0.000000 
#    y 0.000000 1.833840 0.000000 
#    z 0.000000 0.000000 1.893470 
# 
# From -- ./inp_files/4357.got.cif
#   From: 2010.05.17/outbox.cif.g08.bks.cpg/sg92_3_cif.got.tgz:4357.got - 2010.06.03 19:35:17.
