data_PCOD9549871
_publ_section_title
;
Structure prediction by ZEFSAII (Michael W. Deem and Ramdas Pophale) SiO2 
 PCOD9549871
Probable space group: P 42 2 2
;
_chemical_formula_sum "Si O2"
_cell_formula_units_Z 32
_cell_length_a 8.800136
_cell_length_b 8.800136
_cell_length_c 17.011854
_cell_angle_alpha 90.000000
_cell_angle_beta 90.000000
_cell_angle_gamma 90.000000
_cell_volume 1317.438694
_symmetry_space_group_name_H-M "P 42 2 2"
_symmetry_group_IT_number 93
_symmetry_cell_setting 'tetragonal'
loop_
_space_group_symop_operation_xyz
x,y,z
-y,x,1/2+z
-x,-y,z
y,-x,1/2+z
x,-y,-z
-x,y,-z
y,x,1/2-z
-y,-x,1/2-z
loop_
_atom_site_type_symbol
_atom_site_label
_atom_site_fract_x
_atom_site_fract_y
_atom_site_fract_z
Si Si1 0.041537 0.664995 0.091496
Si Si2 0.185949 0.901800 0.916857
Si Si3 0.675935 0.446508 0.585336
Si Si4 0.188952 0.699408 0.333000
O O1 0.217647 0.695311 0.106368
O O2 0.000000 0.500000 0.127030
O O3 0.970814 0.829693 0.115275
O O4 0.000000 0.657946 0.000000
O O5 0.275880 0.739508 0.917473
O O6 0.269658 0.018294 0.859595
O O7 0.177211 0.000000 0.000000
O O8 0.500000 0.500000 0.590358
O O9 0.734329 0.500000 0.500000
O O10 0.764357 0.525912 0.656799
O O11 0.230226 0.769775 0.250000
#
# Coordination Sequence:
#
# PCOD9549871 Si02
#       4
#     8   8   8   8
#     4  11  23  42  68  99 138 187 244 305 374 449
#     4  12  23  42  73 105 139 195 253 304 370 462
#     4  11  23  44  74 106 142 194 257 305 361 453
#     4  12  27  43  67 108 147 186 247 317 382 449
#
# _framework density 24.289556000000001
#
# number of rings (size 3 to 8) (size 9 to 14) (size 15 to 20)
#    0.000    0.500    5.000    3.000    0.000    8.500 
#    0.000    2.500    0.000    0.000    0.000    0.000 
#    0.000    0.000    0.000    0.000    0.000    0.000 
#
# Total GULP energy -178335.229426 kJ/mol
# GULP energy per Si atom -5572.975920 kJ/mol
# Density = 2.423427 g / cm^3
# Si number density = 24.289556 Si / 1000 Ang^3
#
#
#
# Elastic Constant Matrix: (Units=GPa)
#
#
# Indices 1 2 3 4 5 6 
#
# 1 122.7127 23.9507 9.5979 0.0000 0.0000 0.0000
# 2 23.9507 122.7125 9.5978 0.0000 0.0000 0.0000
# 3 9.5979 9.5978 80.5194 0.0000 0.0000 0.0000
# 4 0.0000 0.0000 0.0000 23.3608 0.0000 0.0000
# 5 0.0000 0.0000 0.0000 0.0000 23.3613 0.0000
# 6 0.0000 0.0000 0.0000 0.0000 0.0000 46.7350
#
#
#
# Elastic Compliance Matrix: (Units=1/GPa)
#
#
# Indices 1 2 3 4 5 6 
#
# 1 0.008526 -0.001599 -0.000826 0.000000 0.000000 0.000000
# 2 -0.001599 0.008526 -0.000826 0.000000 0.000000 0.000000
# 3 -0.000826 -0.000826 0.012616 0.000000 0.000000 0.000000
# 4 0.000000 0.000000 0.000000 0.042807 0.000000 0.000000
# 5 0.000000 0.000000 0.000000 0.000000 0.042806 0.000000
# 6 0.000000 0.000000 0.000000 0.000000 0.000000 0.021397
#
#
# Mechanical properties :
#
#
# Convention : Reuss Voigt Hill
#
# Bulk Modulus (GPa) = 43.16579 45.80417 44.48498
# Shear Modulus (GPa) = 33.13422 37.54463 35.33943
#
# Velocity S-wave (km/s) = 3.69743 3.93582 3.81848
# Velocity P-wave (km/s) = 6.00315 6.28910 6.14779
#
# Compressibility (1/GPa) = 0.02316650
#
# Stress axis : x y z
#
# Youngs Moduli (GPa) = 117.28999 117.28981 79.26322
#
# Poissons Ratio (x) = 0.18760 0.06544
# Poissons Ratio (y) = 0.18760 0.06544
# Poissons Ratio (z) = 0.09684 0.09684
#
# Static dielectric constant tensor:
#      x y z
#    x 2.016840 0.000000 0.000000 
#    y 0.000000 2.016840 0.000000 
#    z 0.000000 0.000000 1.933620 
# 
# From -- ./inp_files/5890.got.cif
#   From: 2010.05.17/outbox.cif.g08.bks.cpg/sg93_3_cif.got.tgz:5890.got - 2010.06.03 19:38:44.
