data_PCOD9549252
_publ_section_title
;
Structure prediction by ZEFSAII (Michael W. Deem and Ramdas Pophale) SiO2 
 PCOD9549252
Probable space group: P 41 21 2
;
_chemical_formula_sum "Si O2"
_cell_formula_units_Z 60
_cell_length_a 10.962993
_cell_length_b 10.962993
_cell_length_c 19.916597
_cell_angle_alpha 90.000000
_cell_angle_beta 90.000000
_cell_angle_gamma 90.000000
_cell_volume 2393.720336
_symmetry_space_group_name_H-M "P 41 21 2"
_symmetry_group_IT_number 92
_symmetry_cell_setting 'tetragonal'
loop_
_space_group_symop_operation_xyz
x,y,z
1/2-y,1/2+x,1/4+z
-x,-y,1/2+z
1/2+y,1/2-x,3/4+z
1/2+x,1/2-y,3/4-z
1/2-x,1/2+y,1/4-z
y,x,-z
-y,-x,1/2-z
loop_
_atom_site_type_symbol
_atom_site_label
_atom_site_fract_x
_atom_site_fract_y
_atom_site_fract_z
Si Si1 0.107189 0.407321 0.612191
Si Si2 0.532067 0.858148 0.413828
Si Si3 0.507324 0.492677 0.750000
Si Si4 0.720767 0.835543 0.271393
Si Si5 0.706173 0.453801 0.460047
Si Si6 0.362634 0.362159 0.149057
Si Si7 0.138320 0.406078 0.456011
Si Si8 0.734865 0.535064 0.834726
O O1 0.118516 0.287614 0.655979
O O2 0.148775 0.379174 0.535274
O O3 0.146454 0.525768 0.659591
O O4 0.963616 0.436734 0.603033
O O5 0.504220 0.799808 0.485557
O O6 0.536715 0.743113 0.363133
O O7 0.661880 0.930257 0.420583
O O8 0.538949 0.613138 0.707758
O O9 0.608248 0.484092 0.808374
O O10 0.851645 0.878269 0.244459
O O11 0.743426 0.730554 0.326861
O O12 0.642719 0.769272 0.215152
O O13 0.631189 0.946227 0.289461
O O14 0.648167 0.564630 0.419643
O O15 0.257202 0.403171 0.408103
#
# Coordination Sequence:
#
# PCOD9549252 Si02
#       8
#     8   8   4   8   8   8   8   8
#     4  11  21  41  69 103 130 174 232 290 337 406
#     4  11  22  39  70 102 131 169 236 286 344 400
#     4  10  26  44  66  94 138 188 218 280 364 420
#     4  11  22  44  65  97 137 173 225 281 349 410
#     4  12  26  40  66 104 136 176 227 290 338 412
#     4  11  25  44  63  99 139 179 228 283 356 412
#     4  11  20  41  69  99 130 175 229 284 337 413
#     4  10  22  41  70  95 129 179 227 274 346 414
#
# _framework density 25.065586
#
# number of rings (size 3 to 8) (size 9 to 14) (size 15 to 20)
#    0.000    1.067    6.667    1.200    5.600    0.000 
#    7.200    0.000    0.000    0.000    0.000    0.000 
#    0.000    0.000    0.000    0.000    0.000    0.000 
#
# Total GULP energy -334350.731205 kJ/mol
# GULP energy per Si atom -5572.512187 kJ/mol
# Density = 2.500854 g / cm^3
# Si number density = 25.065586 Si / 1000 Ang^3
#
#
#
# Elastic Constant Matrix: (Units=GPa)
#
#
# Indices 1 2 3 4 5 6 
#
# 1 29.3105 0.5604 5.9198 0.0000 0.0000 0.0000
# 2 0.5604 29.3100 5.9199 0.0000 0.0000 0.0000
# 3 5.9198 5.9199 127.7388 0.0000 0.0000 0.0000
# 4 0.0000 0.0000 0.0000 39.8093 0.0000 0.0000
# 5 0.0000 0.0000 0.0000 0.0000 39.8093 0.0000
# 6 0.0000 0.0000 0.0000 0.0000 0.0000 16.8783
#
#
#
# Elastic Compliance Matrix: (Units=1/GPa)
#
#
# Indices 1 2 3 4 5 6 
#
# 1 0.034443 -0.000339 -0.001580 0.000000 0.000000 0.000000
# 2 -0.000339 0.034444 -0.001581 0.000000 0.000000 0.000000
# 3 -0.001580 -0.001581 0.007975 0.000000 0.000000 0.000000
# 4 0.000000 0.000000 0.000000 0.025120 0.000000 0.000000
# 5 0.000000 0.000000 0.000000 0.000000 0.025120 0.000000
# 6 0.000000 0.000000 0.000000 0.000000 0.000000 0.059248
#
#
# Mechanical properties :
#
#
# Convention : Reuss Voigt Hill
#
# Bulk Modulus (GPa) = 14.31408 23.46216 18.88812
# Shear Modulus (GPa) = 23.08010 30.89666 26.98838
#
# Velocity S-wave (km/s) = 3.03774 3.51470 3.28489
# Velocity P-wave (km/s) = 4.24581 5.08443 4.68392
#
# Compressibility (1/GPa) = 0.06986130
#
# Stress axis : x y z
#
# Youngs Moduli (GPa) = 29.03333 29.03280 125.39237
#
# Poissons Ratio (x) = 0.00985 0.19818
# Poissons Ratio (y) = 0.00985 0.19819
# Poissons Ratio (z) = 0.04589 0.04589
#
# Static dielectric constant tensor:
#      x y z
#    x 2.027400 0.000000 0.000000 
#    y 0.000000 2.027400 0.000000 
#    z 0.000000 0.000000 2.176180 
# 
# From -- ./inp_files/3609.got.cif
#   From: 2010.05.17/outbox.cif.g08.bks.cpg/sg92_2_cif.got.tgz:3609.got - 2010.06.03 19:35:17.
