data_PCOD9549465
_publ_section_title
;
Structure prediction by ZEFSAII (Michael W. Deem and Ramdas Pophale) SiO2 
 PCOD9549465
Probable space group: P 41 21 2
;
_chemical_formula_sum "Si O2"
_cell_formula_units_Z 32
_cell_length_a 11.134271
_cell_length_b 11.134271
_cell_length_c 9.696747
_cell_angle_alpha 90.000000
_cell_angle_beta 90.000000
_cell_angle_gamma 90.000000
_cell_volume 1202.125029
_symmetry_space_group_name_H-M "P 41 21 2"
_symmetry_group_IT_number 92
_symmetry_cell_setting 'tetragonal'
loop_
_space_group_symop_operation_xyz
x,y,z
1/2-y,1/2+x,1/4+z
-x,-y,1/2+z
1/2+y,1/2-x,3/4+z
1/2+x,1/2-y,3/4-z
1/2-x,1/2+y,1/4-z
y,x,-z
-y,-x,1/2-z
loop_
_atom_site_type_symbol
_atom_site_label
_atom_site_fract_x
_atom_site_fract_y
_atom_site_fract_z
Si Si1 0.602353 0.953088 0.569506
Si Si2 0.102102 0.762816 0.976357
Si Si3 0.303779 0.624505 0.593351
Si Si4 0.633610 0.520677 0.612353
O O1 0.557280 0.949655 0.415457
O O2 0.568741 0.831474 0.652381
O O3 0.743309 0.970684 0.578413
O O4 0.082449 0.903384 0.010251
O O5 0.002572 0.734097 0.859301
O O6 0.245685 0.750172 0.952102
O O7 0.342742 0.657258 0.750000
O O8 0.411363 0.595114 0.486730
O O9 0.629795 0.629795 0.500000
#
# Coordination Sequence:
#
# PCOD9549465 Si02
#       4
#     8   8   8   8
#     4  11  24  44  75 107 149 200 260 326 394 473
#     4  11  24  48  76 109 153 203 261 324 393 475
#     4  11  24  46  80 111 153 203 261 329 391 471
#     4  11  22  47  73 100 153 196 251 320 392 473
#
# _framework density 26.619523999999998
#
# number of rings (size 3 to 8) (size 9 to 14) (size 15 to 20)
#    0.000    1.000    5.000    1.500    3.500    1.000 
#    0.000   10.000    0.000    0.000    0.000    0.000 
#    0.000    0.000    0.000    0.000    0.000    0.000 
#
# Total GULP energy -178460.004045 kJ/mol
# GULP energy per Si atom -5576.875126 kJ/mol
# Density = 2.655894 g / cm^3
# Si number density = 26.619524 Si / 1000 Ang^3
#
#
#
# Elastic Constant Matrix: (Units=GPa)
#
#
# Indices 1 2 3 4 5 6 
#
# 1 86.3492 42.6549 10.6293 0.0000 0.0000 0.0000
# 2 42.6549 86.3493 10.6293 0.0000 0.0000 0.0000
# 3 10.6293 10.6293 65.1392 0.0000 0.0000 0.0000
# 4 0.0000 0.0000 0.0000 39.9475 0.0000 0.0000
# 5 0.0000 0.0000 0.0000 0.0000 39.9475 0.0000
# 6 0.0000 0.0000 0.0000 0.0000 0.0000 40.9895
#
#
#
# Elastic Compliance Matrix: (Units=1/GPa)
#
#
# Indices 1 2 3 4 5 6 
#
# 1 0.015426 -0.007460 -0.001300 0.000000 0.000000 0.000000
# 2 -0.007460 0.015426 -0.001300 0.000000 0.000000 0.000000
# 3 -0.001300 -0.001300 0.015776 0.000000 0.000000 0.000000
# 4 0.000000 0.000000 0.000000 0.025033 0.000000 0.000000
# 5 0.000000 0.000000 0.000000 0.000000 0.025033 0.000000
# 6 0.000000 0.000000 0.000000 0.000000 0.000000 0.024396
#
#
# Mechanical properties :
#
#
# Convention : Reuss Voigt Hill
#
# Bulk Modulus (GPa) = 37.72404 40.62941 39.17672
# Shear Modulus (GPa) = 33.32307 35.77185 34.54746
#
# Velocity S-wave (km/s) = 3.54196 3.66979 3.60644
# Velocity P-wave (km/s) = 5.56144 5.76651 5.66490
#
# Compressibility (1/GPa) = 0.02650830
#
# Stress axis : x y z
#
# Youngs Moduli (GPa) = 64.82529 64.82534 63.38757
#
# Poissons Ratio (x) = 0.48361 0.08240
# Poissons Ratio (y) = 0.48361 0.08240
# Poissons Ratio (z) = 0.08426 0.08426
#
# Static dielectric constant tensor:
#      x y z
#    x 2.168990 0.000000 0.000000 
#    y 0.000000 2.168990 0.000000 
#    z 0.000000 0.000000 2.140950 
# 
# From -- ./inp_files/1910.got.cif
#   From: 2010.05.17/outbox.cif.g08.bks.cpg/sg92_1_cif.got.tgz:1910.got - 2010.06.03 19:35:17.
