data_PCOD9549583
_publ_section_title
;
Structure prediction by ZEFSAII (Michael W. Deem and Ramdas Pophale) SiO2 
 PCOD9549583
Probable space group: P 41 21 2
;
_chemical_formula_sum "Si O2"
_cell_formula_units_Z 20
_cell_length_a 7.966321
_cell_length_b 7.966321
_cell_length_c 11.688713
_cell_angle_alpha 90.000000
_cell_angle_beta 90.000000
_cell_angle_gamma 90.000000
_cell_volume 741.792264
_symmetry_space_group_name_H-M "P 41 21 2"
_symmetry_group_IT_number 92
_symmetry_cell_setting 'tetragonal'
loop_
_space_group_symop_operation_xyz
x,y,z
1/2-y,1/2+x,1/4+z
-x,-y,1/2+z
1/2+y,1/2-x,3/4+z
1/2+x,1/2-y,3/4-z
1/2-x,1/2+y,1/4-z
y,x,-z
-y,-x,1/2-z
loop_
_atom_site_type_symbol
_atom_site_label
_atom_site_fract_x
_atom_site_fract_y
_atom_site_fract_z
Si Si1 0.571580 0.291535 0.988364
Si Si2 0.591858 0.746205 0.896305
Si Si3 0.592831 0.407170 0.750000
O O1 0.603562 0.277371 0.853960
O O2 0.402602 0.402602 0.000000
O O3 0.595078 0.129197 0.066989
O O4 0.716422 0.415917 0.039738
O O5 0.604167 0.586968 0.811406
O O6 0.724858 0.724858 0.000000
#
# Coordination Sequence:
#
# PCOD9549583 Si02
#       3
#     8   8   4
#     4   9  19  36  65  89 126 165 212 259 317 385
#     4   9  19  36  66  88 130 172 208 260 328 385
#     4   8  18  38  56  90 128 160 214 260 310 374
#
# _framework density 26.961728000000001
#
# number of rings (size 3 to 8) (size 9 to 14) (size 15 to 20)
#    0.000    4.000    0.000    0.000   11.200    0.000 
#   14.400    0.000   79.200    0.000    0.000    0.000 
#    0.000    0.000    0.000    0.000    0.000    0.000 
#
# Total GULP energy -111826.564522 kJ/mol
# GULP energy per Si atom -5591.328226 kJ/mol
# Density = 2.690036 g / cm^3
# Si number density = 26.961728 Si / 1000 Ang^3
#
#
#
# Elastic Constant Matrix: (Units=GPa)
#
#
# Indices 1 2 3 4 5 6 
#
# 1 94.0193 39.4517 44.7251 0.0000 0.0000 0.0000
# 2 39.4517 94.0199 44.7253 0.0000 0.0000 0.0000
# 3 44.7251 44.7253 242.6753 0.0000 0.0000 0.0000
# 4 0.0000 0.0000 0.0000 46.3822 0.0000 0.0000
# 5 0.0000 0.0000 0.0000 0.0000 46.3818 0.0000
# 6 0.0000 0.0000 0.0000 0.0000 0.0000 49.8865
#
#
#
# Elastic Compliance Matrix: (Units=1/GPa)
#
#
# Indices 1 2 3 4 5 6 
#
# 1 0.013437 -0.004889 -0.001575 0.000000 0.000000 0.000000
# 2 -0.004889 0.013437 -0.001575 0.000000 0.000000 0.000000
# 3 -0.001575 -0.001575 0.004701 0.000000 0.000000 0.000000
# 4 0.000000 0.000000 0.000000 0.021560 0.000000 0.000000
# 5 0.000000 0.000000 0.000000 0.000000 0.021560 0.000000
# 6 0.000000 0.000000 0.000000 0.000000 0.000000 0.020046
#
#
# Mechanical properties :
#
#
# Convention : Reuss Voigt Hill
#
# Bulk Modulus (GPa) = 64.53317 76.50208 70.51762
# Shear Modulus (GPa) = 43.10877 48.65091 45.87984
#
# Velocity S-wave (km/s) = 4.00295 4.25248 4.12960
# Velocity P-wave (km/s) = 6.73438 7.24896 6.99640
#
# Compressibility (1/GPa) = 0.01549591
#
# Stress axis : x y z
#
# Youngs Moduli (GPa) = 74.42152 74.42194 212.70109
#
# Poissons Ratio (x) = 0.36384 0.33509
# Poissons Ratio (y) = 0.36384 0.33509
# Poissons Ratio (z) = 0.11724 0.11725
#
# Static dielectric constant tensor:
#      x y z
#    x 2.159640 0.000000 0.000000 
#    y 0.000000 2.159630 0.000000 
#    z 0.000000 0.000000 2.091380 
# 
# From -- ./inp_files/1788.got.cif
#   From: 2010.05.17/outbox.cif.g08.bks.cpg/sg92_1_cif.got.tgz:1788.got - 2010.06.03 19:35:17.
