data_PCOD9549809
_publ_section_title
;
Structure prediction by ZEFSAII (Michael W. Deem and Ramdas Pophale) SiO2 
 PCOD9549809
Probable space group: P 42 2 2
;
_chemical_formula_sum "Si O2"
_cell_formula_units_Z 30
_cell_length_a 9.273354
_cell_length_b 9.273354
_cell_length_c 19.156693
_cell_angle_alpha 90.000000
_cell_angle_beta 90.000000
_cell_angle_gamma 90.000000
_cell_volume 1647.381623
_symmetry_space_group_name_H-M "P 42 2 2"
_symmetry_group_IT_number 93
_symmetry_cell_setting 'tetragonal'
loop_
_space_group_symop_operation_xyz
x,y,z
-y,x,1/2+z
-x,-y,z
y,-x,1/2+z
x,-y,-z
-x,y,-z
y,x,1/2-z
-y,-x,1/2-z
loop_
_atom_site_type_symbol
_atom_site_label
_atom_site_fract_x
_atom_site_fract_y
_atom_site_fract_z
Si Si1 0.500000 0.000000 0.819502
Si Si2 0.662912 0.436633 0.928365
Si Si3 0.000000 0.000000 0.500000
Si Si4 0.273772 0.492636 0.225737
Si Si5 0.902046 0.286337 0.564216
O O1 0.524402 0.866415 0.769271
O O2 0.360040 0.971324 0.867851
O O3 0.500000 0.500000 0.921771
O O4 0.741091 0.485066 0.857553
O O5 0.664154 0.263889 0.935728
O O6 0.725051 0.500000 0.000000
O O7 0.912774 0.112636 0.549962
O O8 0.339804 0.339804 0.250000
O O9 0.389942 0.610059 0.250000
O O10 0.000000 0.341008 0.500000
#
# Coordination Sequence:
#
# PCOD9549809 Si02
#       5
#     4   8   2   8   8
#     4  12  23  40  71  94 126 188 220 274 331 406
#     4  11  23  40  69  96 127 170 221 284 335 381
#     4   8  24  42  66  94 148 170 216 280 320 410
#     4  11  22  43  60  93 136 163 217 280 330 393
#     4  10  23  42  67  97 133 171 230 265 339 409
#
# _framework density 18.210718
#
# number of rings (size 3 to 8) (size 9 to 14) (size 15 to 20)
#    0.800    0.533    5.333    0.400   11.200    0.000 
#    9.600    0.000    0.000    0.000    0.000    0.000 
#    0.000    0.000    0.000    0.000    0.000    0.000 
#
# Total GULP energy -167081.398665 kJ/mol
# GULP energy per Si atom -5569.379955 kJ/mol
# Density = 1.816927 g / cm^3
# Si number density = 18.210718 Si / 1000 Ang^3
#
#
#
# Elastic Constant Matrix: (Units=GPa)
#
#
# Indices 1 2 3 4 5 6 
#
# 1 116.4536 60.8499 58.0886 0.0000 0.0000 0.0000
# 2 60.8499 116.4562 58.0891 0.0000 0.0000 0.0000
# 3 58.0886 58.0891 196.4877 0.0000 0.0000 0.0000
# 4 0.0000 0.0000 0.0000 27.3432 0.0000 0.0000
# 5 0.0000 0.0000 0.0000 0.0000 27.3452 0.0000
# 6 0.0000 0.0000 0.0000 0.0000 0.0000 14.2257
#
#
#
# Elastic Compliance Matrix: (Units=1/GPa)
#
#
# Indices 1 2 3 4 5 6 
#
# 1 0.012490 -0.005494 -0.002068 0.000000 0.000000 0.000000
# 2 -0.005494 0.012489 -0.002068 0.000000 0.000000 0.000000
# 3 -0.002068 -0.002068 0.006312 0.000000 0.000000 0.000000
# 4 0.000000 0.000000 0.000000 0.036572 0.000000 0.000000
# 5 0.000000 0.000000 0.000000 0.000000 0.036569 0.000000
# 6 0.000000 0.000000 0.000000 0.000000 0.000000 0.070295
#
#
# Mechanical properties :
#
#
# Convention : Reuss Voigt Hill
#
# Bulk Modulus (GPa) = 83.12377 87.05030 85.08704
# Shear Modulus (GPa) = 25.25264 30.60748 27.93006
#
# Velocity S-wave (km/s) = 3.72787 4.10413 3.92052
# Velocity P-wave (km/s) = 8.01710 8.38832 8.20481
#
# Compressibility (1/GPa) = 0.01203025
#
# Stress axis : x y z
#
# Youngs Moduli (GPa) = 80.06614 80.06804 158.42538
#
# Poissons Ratio (x) = 0.43993 0.32763
# Poissons Ratio (y) = 0.43992 0.32762
# Poissons Ratio (z) = 0.16558 0.16558
#
# Static dielectric constant tensor:
#      x y z
#    x 1.493920 0.000000 0.000000 
#    y 0.000000 1.493930 0.000000 
#    z 0.000000 0.000000 1.647750 
# 
# From -- ./inp_files/5928.got.cif
#   From: 2010.05.17/outbox.cif.g08.bks.cpg/sg93_3_cif.got.tgz:5928.got - 2010.06.03 19:38:44.
