data_PCOD9549052
_publ_section_title
;
Structure prediction by ZEFSAII (Michael W. Deem and Ramdas Pophale) SiO2 
 PCOD9549052
Probable space group: P 41 21 2
;
_chemical_formula_sum "Si O2"
_cell_formula_units_Z 48
_cell_length_a 18.344394
_cell_length_b 18.344394
_cell_length_c 7.697395
_cell_angle_alpha 90.000000
_cell_angle_beta 90.000000
_cell_angle_gamma 90.000000
_cell_volume 2590.302666
_symmetry_space_group_name_H-M "P 41 21 2"
_symmetry_group_IT_number 92
_symmetry_cell_setting 'tetragonal'
loop_
_space_group_symop_operation_xyz
x,y,z
1/2-y,1/2+x,1/4+z
-x,-y,1/2+z
1/2+y,1/2-x,3/4+z
1/2+x,1/2-y,3/4-z
1/2-x,1/2+y,1/4-z
y,x,-z
-y,-x,1/2-z
loop_
_atom_site_type_symbol
_atom_site_label
_atom_site_fract_x
_atom_site_fract_y
_atom_site_fract_z
Si Si1 0.656431 0.656431 0.500000
Si Si2 0.028126 0.734063 0.703282
Si Si3 0.563736 0.632176 0.830274
Si Si4 0.629621 0.299661 0.580251
Si Si5 0.912466 0.460443 0.917808
Si Si6 0.897431 0.897431 0.000000
Si Si7 0.691791 0.142344 0.599304
O O1 0.620337 0.624662 0.673793
O O2 0.643316 0.742683 0.484908
O O3 0.063210 0.785103 0.848455
O O4 0.087885 0.715577 0.556315
O O5 0.955645 0.777848 0.639336
O O6 0.994559 0.657319 0.766423
O O7 0.483989 0.615448 0.755458
O O8 0.584011 0.584011 0.000000
O O9 0.663684 0.336317 0.750000
O O10 0.632080 0.355604 0.419724
O O11 0.673834 0.225052 0.540010
O O12 0.938913 0.521492 0.788376
O O13 0.886050 0.385515 0.829107
#
# Coordination Sequence:
#
# PCOD9549052 Si02
#       7
#     4   8   8   8   8   4   8
#     4  12  24  36  62  93 119 166 206 246 314 364
#     4   9  20  40  59  84 125 160 195 256 306 360
#     4  11  24  41  59  88 122 160 205 255 307 363
#     4  10  21  39  62  86 121 160 201 253 304 362
#     4   9  19  36  63  88 123 160 200 253 308 361
#     4  10  26  40  60  87 115 164 208 246 312 364
#     4  10  20  39  60  90 121 162 204 249 307 368
#
# _framework density 18.530653999999998
#
# number of rings (size 3 to 8) (size 9 to 14) (size 15 to 20)
#    0.000    2.000    2.500    0.000    3.500    2.667 
#    1.500    0.000    0.000    0.000    0.000    0.000 
#    0.000    0.000    0.000    0.000    0.000    0.000 
#
# Total GULP energy -267537.676658 kJ/mol
# GULP energy per Si atom -5573.701597 kJ/mol
# Density = 1.848848 g / cm^3
# Si number density = 18.530654 Si / 1000 Ang^3
#
#
#
# Elastic Constant Matrix: (Units=GPa)
#
#
# Indices 1 2 3 4 5 6 
#
# 1 102.5368 45.0486 53.3288 0.0000 0.0000 0.0000
# 2 45.0486 102.5359 53.3296 0.0000 0.0000 0.0000
# 3 53.3288 53.3296 75.8175 0.0000 0.0000 0.0000
# 4 0.0000 0.0000 0.0000 23.6835 0.0000 0.0000
# 5 0.0000 0.0000 0.0000 0.0000 23.6833 0.0000
# 6 0.0000 0.0000 0.0000 0.0000 0.0000 23.4574
#
#
#
# Elastic Compliance Matrix: (Units=1/GPa)
#
#
# Indices 1 2 3 4 5 6 
#
# 1 0.015588 -0.001807 -0.009693 0.000000 0.000000 0.000000
# 2 -0.001807 0.015588 -0.009694 0.000000 0.000000 0.000000
# 3 -0.009693 -0.009694 0.026826 0.000000 0.000000 0.000000
# 4 0.000000 0.000000 0.000000 0.042223 0.000000 0.000000
# 5 0.000000 0.000000 0.000000 0.000000 0.042224 0.000000
# 6 0.000000 0.000000 0.000000 0.000000 0.000000 0.042630
#
#
# Mechanical properties :
#
#
# Convention : Reuss Voigt Hill
#
# Bulk Modulus (GPa) = 64.04320 64.92266 64.48293
# Shear Modulus (GPa) = 21.48940 22.77708 22.13324
#
# Velocity S-wave (km/s) = 3.40908 3.50974 3.45978
# Velocity P-wave (km/s) = 7.08036 7.17883 7.12977
#
# Compressibility (1/GPa) = 0.01561446
#
# Stress axis : x y z
#
# Youngs Moduli (GPa) = 64.15250 64.15044 37.27695
#
# Poissons Ratio (x) = 0.11591 0.36134
# Poissons Ratio (y) = 0.11592 0.36136
# Poissons Ratio (z) = 0.62185 0.62186
#
# Static dielectric constant tensor:
#      x y z
#    x 1.661590 0.000000 0.000000 
#    y 0.000000 1.661580 0.000000 
#    z 0.000000 0.000000 1.591570 
# 
# From -- ./inp_files/1529.got.cif
#   From: 2010.05.17/outbox.cif.g08.bks.cpg/sg92_1_cif.got.tgz:1529.got - 2010.06.03 19:35:17.
