data_PCOD9549400
_publ_section_title
;
Structure prediction by ZEFSAII (Michael W. Deem and Ramdas Pophale) SiO2 
 PCOD9549400
Probable space group: P 41 21 2
;
_chemical_formula_sum "Si O2"
_cell_formula_units_Z 24
_cell_length_a 8.513435
_cell_length_b 8.513435
_cell_length_c 10.448304
_cell_angle_alpha 90.000000
_cell_angle_beta 90.000000
_cell_angle_gamma 90.000000
_cell_volume 757.278190
_symmetry_space_group_name_H-M "P 41 21 2"
_symmetry_group_IT_number 92
_symmetry_cell_setting 'tetragonal'
loop_
_space_group_symop_operation_xyz
x,y,z
1/2-y,1/2+x,1/4+z
-x,-y,1/2+z
1/2+y,1/2-x,3/4+z
1/2+x,1/2-y,3/4-z
1/2-x,1/2+y,1/4-z
y,x,-z
-y,-x,1/2-z
loop_
_atom_site_type_symbol
_atom_site_label
_atom_site_fract_x
_atom_site_fract_y
_atom_site_fract_z
Si Si1 0.335629 0.062807 0.257280
Si Si2 0.893404 0.747840 0.610532
Si Si3 0.897240 0.738827 0.886256
O O1 0.369131 0.939476 0.381023
O O2 0.289304 0.903614 0.166848
O O3 0.708017 0.080572 0.101473
O O4 0.871915 0.871915 0.500000
O O5 0.843938 0.829603 0.750171
O O6 0.067116 0.680342 0.627658
O O7 0.847319 0.847319 0.000000
#
# Coordination Sequence:
#
# PCOD9549400 Si02
#       3
#     8   8   8
#     4  10  24  50  80 116 160 218 272 334 408 488
#     4  10  24  47  82 114 161 211 271 333 407 493
#     4  10  24  47  82 114 161 211 271 333 407 493
#
# _framework density 31.692447999999999
#
# number of rings (size 3 to 8) (size 9 to 14) (size 15 to 20)
#    2.000    0.000    0.000    2.000    0.000    5.333 
#    6.000   10.000    0.000    0.000    0.000    0.000 
#    0.000    0.000    0.000    0.000    0.000    0.000 
#
# Total GULP energy -133638.877934 kJ/mol
# GULP energy per Si atom -5568.286581 kJ/mol
# Density = 3.162031 g / cm^3
# Si number density = 31.692448 Si / 1000 Ang^3
#
#
#
# Elastic Constant Matrix: (Units=GPa)
#
#
# Indices 1 2 3 4 5 6 
#
# 1 120.3961 87.2500 42.8637 0.0000 0.0000 0.0000
# 2 87.2500 120.3961 42.8637 0.0000 0.0000 0.0000
# 3 42.8637 42.8637 265.8451 0.0000 0.0000 0.0000
# 4 0.0000 0.0000 0.0000 60.2281 0.0000 0.0000
# 5 0.0000 0.0000 0.0000 0.0000 60.2281 0.0000
# 6 0.0000 0.0000 0.0000 0.0000 0.0000 108.2294
#
#
#
# Elastic Compliance Matrix: (Units=1/GPa)
#
#
# Indices 1 2 3 4 5 6 
#
# 1 0.017664 -0.012505 -0.000832 0.000000 0.000000 0.000000
# 2 -0.012505 0.017664 -0.000832 0.000000 0.000000 0.000000
# 3 -0.000832 -0.000832 0.004030 0.000000 0.000000 0.000000
# 4 0.000000 0.000000 0.000000 0.016604 0.000000 0.000000
# 5 0.000000 0.000000 0.000000 0.000000 0.016604 0.000000
# 6 0.000000 0.000000 0.000000 0.000000 0.000000 0.009240
#
#
# Mechanical properties :
#
#
# Convention : Reuss Voigt Hill
#
# Bulk Modulus (GPa) = 90.73565 94.73245 92.73405
# Shear Modulus (GPa) = 43.93031 67.98111 55.95571
#
# Velocity S-wave (km/s) = 3.72714 4.63647 4.20644
# Velocity P-wave (km/s) = 6.87126 7.65627 7.27436
#
# Compressibility (1/GPa) = 0.01102103
#
# Stress axis : x y z
#
# Youngs Moduli (GPa) = 56.61106 56.61106 248.14868
#
# Poissons Ratio (x) = 0.70792 0.20643
# Poissons Ratio (y) = 0.70792 0.20643
# Poissons Ratio (z) = 0.04709 0.04709
#
# Static dielectric constant tensor:
#      x y z
#    x 2.525620 0.000000 0.000000 
#    y 0.000000 2.525620 0.000000 
#    z 0.000000 0.000000 3.245880 
# 
# From -- ./inp_files/995.got.cif
#   From: 2010.05.17/outbox.cif.g08.bks.cpg/sg92_1_cif.got.tgz:995.got - 2010.06.03 19:35:17.
