data_PCOD9549214
_publ_section_title
;
Structure prediction by ZEFSAII (Michael W. Deem and Ramdas Pophale) SiO2 
 PCOD9549214
Probable space group: P 41 21 2
;
_chemical_formula_sum "Si O2"
_cell_formula_units_Z 48
_cell_length_a 8.269331
_cell_length_b 8.269331
_cell_length_c 29.152003
_cell_angle_alpha 90.000000
_cell_angle_beta 90.000000
_cell_angle_gamma 90.000000
_cell_volume 1993.467465
_symmetry_space_group_name_H-M "P 41 21 2"
_symmetry_group_IT_number 92
_symmetry_cell_setting 'tetragonal'
loop_
_space_group_symop_operation_xyz
x,y,z
1/2-y,1/2+x,1/4+z
-x,-y,1/2+z
1/2+y,1/2-x,3/4+z
1/2+x,1/2-y,3/4-z
1/2-x,1/2+y,1/4-z
y,x,-z
-y,-x,1/2-z
loop_
_atom_site_type_symbol
_atom_site_label
_atom_site_fract_x
_atom_site_fract_y
_atom_site_fract_z
Si Si1 0.181582 0.143917 0.774234
Si Si2 0.633035 0.507190 0.707426
Si Si3 0.807431 0.904600 0.371981
Si Si4 0.419503 0.968025 0.382706
Si Si5 0.475271 0.146104 0.032348
Si Si6 0.114748 0.647978 0.773609
O O1 0.321283 0.276059 0.786488
O O2 0.162606 0.036351 0.819946
O O3 0.020598 0.226970 0.756619
O O4 0.236907 0.040841 0.730638
O O5 0.516483 0.483518 0.750000
O O6 0.549480 0.439349 0.660936
O O7 0.785458 0.386073 0.713310
O O8 0.617774 0.943926 0.382726
O O9 0.845318 0.712619 0.365989
O O10 0.349141 0.036282 0.334844
O O11 0.367481 0.074271 0.426043
O O12 0.560658 0.990114 0.011392
O O13 0.261557 0.738443 0.750000
#
# Coordination Sequence:
#
# PCOD9549214 Si02
#       6
#     8   8   8   8   8   8
#     4  11  22  42  63  95 135 176 221 277 333 399
#     4  10  22  38  63  97 126 173 218 274 334 394
#     4  11  19  40  69  97 129 172 223 275 343 395
#     4  11  23  43  70 100 136 178 226 288 341 412
#     4  10  22  42  64  93 131 174 225 279 335 393
#     4  11  24  43  63  94 141 180 218 281 344 406
#
# _framework density 24.07865
#
# number of rings (size 3 to 8) (size 9 to 14) (size 15 to 20)
#    0.000    1.333    6.667    2.000    0.000    2.667 
#    6.000    0.000    0.000    0.000    0.000    0.000 
#    0.000    0.000    0.000    0.000    0.000    0.000 
#
# Total GULP energy -267789.893916 kJ/mol
# GULP energy per Si atom -5578.956123 kJ/mol
# Density = 2.402385 g / cm^3
# Si number density = 24.078650 Si / 1000 Ang^3
#
#
#
# Elastic Constant Matrix: (Units=GPa)
#
#
# Indices 1 2 3 4 5 6 
#
# 1 19.2831 49.0283 16.2829 0.0000 0.0000 0.0000
# 2 49.0283 19.2814 16.2826 0.0000 0.0000 0.0000
# 3 16.2829 16.2826 133.6303 0.0000 0.0000 0.0000
# 4 0.0000 0.0000 0.0000 32.9899 0.0000 0.0000
# 5 0.0000 0.0000 0.0000 0.0000 32.9900 0.0000
# 6 0.0000 0.0000 0.0000 0.0000 0.0000 37.3072
#
#
#
# Elastic Compliance Matrix: (Units=1/GPa)
#
#
# Indices 1 2 3 4 5 6 
#
# 1 -0.009038 0.024580 -0.001894 0.000000 0.000000 0.000000
# 2 0.024580 -0.009038 -0.001894 0.000000 0.000000 0.000000
# 3 -0.001894 -0.001894 0.007945 0.000000 0.000000 0.000000
# 4 0.000000 0.000000 0.000000 0.030312 0.000000 0.000000
# 5 0.000000 0.000000 0.000000 0.000000 0.030312 0.000000
# 6 0.000000 0.000000 0.000000 0.000000 0.000000 0.026804
#
#
# Mechanical properties :
#
#
# Convention : Reuss Voigt Hill
#
# Bulk Modulus (GPa) = 31.79298 37.26469 34.52884
# Shear Modulus (GPa) = 108.23071 26.69747 67.46409
#
# Velocity S-wave (km/s) = 6.71166 3.33342 5.29897
# Velocity P-wave (km/s) = 8.56121 5.50685 7.19791
#
# Compressibility (1/GPa) = 0.03145348
#
# Stress axis : x y z
#
# Youngs Moduli (GPa) = -110.64892 -110.63817 125.86786
#
# Poissons Ratio (x) = 2.71947 0.23837
# Poissons Ratio (y) = 2.71974 0.23836
# Poissons Ratio (z) = -0.20954 -0.20952
#
# Static dielectric constant tensor:
#      x y z
#    x 2.053080 0.000000 0.000000 
#    y 0.000000 2.053080 0.000000 
#    z 0.000000 0.000000 2.045420 
# 
# From -- ./inp_files/4523.got.cif
#   From: 2010.05.17/outbox.cif.g08.bks.cpg/sg92_3_cif.got.tgz:4523.got - 2010.06.03 19:35:17.
