data_PCOD9549322
_publ_section_title
;
Structure prediction by ZEFSAII (Michael W. Deem and Ramdas Pophale) SiO2 
 PCOD9549322
Probable space group: P 41 21 2
;
_chemical_formula_sum "Si O2"
_cell_formula_units_Z 48
_cell_length_a 12.042453
_cell_length_b 12.042453
_cell_length_c 15.779825
_cell_angle_alpha 90.000000
_cell_angle_beta 90.000000
_cell_angle_gamma 90.000000
_cell_volume 2288.400861
_symmetry_space_group_name_H-M "P 41 21 2"
_symmetry_group_IT_number 92
_symmetry_cell_setting 'tetragonal'
loop_
_space_group_symop_operation_xyz
x,y,z
1/2-y,1/2+x,1/4+z
-x,-y,1/2+z
1/2+y,1/2-x,3/4+z
1/2+x,1/2-y,3/4-z
1/2-x,1/2+y,1/4-z
y,x,-z
-y,-x,1/2-z
loop_
_atom_site_type_symbol
_atom_site_label
_atom_site_fract_x
_atom_site_fract_y
_atom_site_fract_z
Si Si1 0.365133 0.517698 0.671851
Si Si2 0.485684 0.585410 0.414382
Si Si3 0.121564 0.438722 0.691955
Si Si4 0.589225 0.768833 0.298578
Si Si5 0.427134 0.033505 0.926772
Si Si6 0.295803 0.676129 0.965310
O O1 0.417366 0.582635 0.750000
O O2 0.467832 0.450020 0.628340
O O3 0.251187 0.463282 0.702499
O O4 0.328060 0.601706 0.598021
O O5 0.555689 0.555689 0.500000
O O6 0.553097 0.655343 0.344136
O O7 0.389369 0.664186 0.450670
O O8 0.069262 0.532089 0.630987
O O9 0.119468 0.308555 0.667700
O O10 0.039984 0.441391 0.772028
O O11 0.497989 0.826012 0.237875
O O12 0.701250 0.763600 0.244756
O O13 0.604909 0.861364 0.371168
#
# Coordination Sequence:
#
# PCOD9549322 Si02
#       6
#     8   8   8   8   8   8
#     4  11  23  42  64  95 133 177 221 265 335 400
#     4  10  24  43  63  96 137 173 220 274 331 400
#     4  11  21  42  65  94 131 176 214 275 330 391
#     4  11  22  42  67  98 133 174 220 276 331 387
#     4  10  23  40  68  97 134 168 228 272 327 401
#     4  11  23  41  66  98 133 170 224 275 330 395
#
# _framework density 20.975345000000001
#
# number of rings (size 3 to 8) (size 9 to 14) (size 15 to 20)
#    0.000    1.333    3.333    2.000    0.000    5.333 
#    0.000    0.833    0.000    0.000    0.000    0.000 
#    0.000    0.000    0.000    0.000    0.000    0.000 
#
# Total GULP energy -267794.226346 kJ/mol
# GULP energy per Si atom -5579.046382 kJ/mol
# Density = 2.092760 g / cm^3
# Si number density = 20.975345 Si / 1000 Ang^3
#
#
#
# Elastic Constant Matrix: (Units=GPa)
#
#
# Indices 1 2 3 4 5 6 
#
# 1 71.6900 11.8053 4.5222 0.0000 0.0000 0.0000
# 2 11.8053 71.6921 4.5226 0.0000 0.0000 0.0000
# 3 4.5222 4.5226 58.1509 0.0000 0.0000 0.0000
# 4 0.0000 0.0000 0.0000 16.8570 0.0000 0.0000
# 5 0.0000 0.0000 0.0000 0.0000 16.8564 0.0000
# 6 0.0000 0.0000 0.0000 0.0000 0.0000 17.5885
#
#
#
# Elastic Compliance Matrix: (Units=1/GPa)
#
#
# Indices 1 2 3 4 5 6 
#
# 1 0.014389 -0.002310 -0.000939 0.000000 0.000000 0.000000
# 2 -0.002310 0.014388 -0.000939 0.000000 0.000000 0.000000
# 3 -0.000939 -0.000939 0.017343 0.000000 0.000000 0.000000
# 4 0.000000 0.000000 0.000000 0.059323 0.000000 0.000000
# 5 0.000000 0.000000 0.000000 0.000000 0.059325 0.000000
# 6 0.000000 0.000000 0.000000 0.000000 0.000000 0.056855
#
#
# Mechanical properties :
#
#
# Convention : Reuss Voigt Hill
#
# Bulk Modulus (GPa) = 26.49562 27.02590 26.76076
# Shear Modulus (GPa) = 20.61175 22.30592 21.45884
#
# Velocity S-wave (km/s) = 3.13815 3.26457 3.20199
# Velocity P-wave (km/s) = 5.07837 5.20793 5.14356
#
# Compressibility (1/GPa) = 0.03774208
#
# Stress axis : x y z
#
# Youngs Moduli (GPa) = 69.49948 69.50150 57.66104
#
# Poissons Ratio (x) = 0.16055 0.05416
# Poissons Ratio (y) = 0.16055 0.05416
# Poissons Ratio (z) = 0.06528 0.06529
#
# Static dielectric constant tensor:
#      x y z
#    x 1.761100 0.000000 0.000000 
#    y 0.000000 1.761100 0.000000 
#    z 0.000000 0.000000 1.732810 
# 
# From -- ./inp_files/3135.got.cif
#   From: 2010.05.17/outbox.cif.g08.bks.cpg/sg92_2_cif.got.tgz:3135.got - 2010.06.03 19:35:17.
