data_PCOD9549454
_publ_section_title
;
Structure prediction by ZEFSAII (Michael W. Deem and Ramdas Pophale) SiO2 
 PCOD9549454
Probable space group: P 41 21 2
;
_chemical_formula_sum "Si O2"
_cell_formula_units_Z 36
_cell_length_a 12.839814
_cell_length_b 12.839814
_cell_length_c 9.416951
_cell_angle_alpha 90.000000
_cell_angle_beta 90.000000
_cell_angle_gamma 90.000000
_cell_volume 1552.486297
_symmetry_space_group_name_H-M "P 41 21 2"
_symmetry_group_IT_number 92
_symmetry_cell_setting 'tetragonal'
loop_
_space_group_symop_operation_xyz
x,y,z
1/2-y,1/2+x,1/4+z
-x,-y,1/2+z
1/2+y,1/2-x,3/4+z
1/2+x,1/2-y,3/4-z
1/2-x,1/2+y,1/4-z
y,x,-z
-y,-x,1/2-z
loop_
_atom_site_type_symbol
_atom_site_label
_atom_site_fract_x
_atom_site_fract_y
_atom_site_fract_z
Si Si1 0.391499 0.357899 0.697778
Si Si2 0.898449 0.825018 0.654308
Si Si3 0.743928 0.256073 0.250000
Si Si4 0.873010 0.292481 0.814184
Si Si5 0.277740 0.536230 0.861676
O O1 0.481168 0.353816 0.580274
O O2 0.288293 0.307038 0.632898
O O3 0.428716 0.273731 0.814356
O O4 0.360960 0.462424 0.781218
O O5 0.870175 0.870175 0.500000
O O6 0.878622 0.700776 0.636511
O O7 0.832540 0.888114 0.771713
O O8 0.764626 0.379869 0.249461
O O9 0.787880 0.212121 0.750000
O O10 0.959343 0.304149 0.690559
#
# Coordination Sequence:
#
# PCOD9549454 Si02
#       5
#     8   8   4   8   8
#     4  11  25  41  71 103 148 192 248 309 380 447
#     4  11  22  41  74 107 141 183 249 312 377 458
#     4  12  28  44  68 102 152 192 254 318 360 460
#     4   9  20  41  67  99 141 185 237 302 376 436
#     4  11  25  44  71 103 146 193 248 315 382 439
#
# _framework density 23.188609
#
# number of rings (size 3 to 8) (size 9 to 14) (size 15 to 20)
#    0.000    1.333    4.444    0.000    4.667    0.000 
#    0.000    0.000   14.667    0.000    0.000    0.000 
#    0.000    0.000    0.000    0.000    0.000    0.000 
#
# Total GULP energy -200774.061944 kJ/mol
# GULP energy per Si atom -5577.057276 kJ/mol
# Density = 2.313583 g / cm^3
# Si number density = 23.188609 Si / 1000 Ang^3
#
#
#
# Elastic Constant Matrix: (Units=GPa)
#
#
# Indices 1 2 3 4 5 6 
#
# 1 73.6167 93.9565 30.2412 0.0000 0.0000 0.0000
# 2 93.9565 73.6175 30.2424 0.0000 0.0000 0.0000
# 3 30.2412 30.2424 67.8577 0.0000 0.0000 0.0000
# 4 0.0000 0.0000 0.0000 39.0122 0.0000 0.0000
# 5 0.0000 0.0000 0.0000 0.0000 39.0118 0.0000
# 6 0.0000 0.0000 0.0000 0.0000 0.0000 26.9237
#
#
#
# Elastic Compliance Matrix: (Units=1/GPa)
#
#
# Indices 1 2 3 4 5 6 
#
# 1 -0.021027 0.028139 -0.003170 0.000000 0.000000 0.000000
# 2 0.028139 -0.021027 -0.003169 0.000000 0.000000 0.000000
# 3 -0.003170 -0.003169 0.017562 0.000000 0.000000 0.000000
# 4 0.000000 0.000000 0.000000 0.025633 0.000000 0.000000
# 5 0.000000 0.000000 0.000000 0.000000 0.025633 0.000000
# 6 0.000000 0.000000 0.000000 0.000000 0.000000 0.037142
#
#
# Mechanical properties :
#
#
# Convention : Reuss Voigt Hill
#
# Bulk Modulus (GPa) = 52.33617 58.21912 55.27765
# Shear Modulus (GPa) = 187.37209 25.03299 106.20254
#
# Velocity S-wave (km/s) = 8.99883 3.28920 6.77487
# Velocity P-wave (km/s) = 11.42763 6.29177 9.22434
#
# Compressibility (1/GPa) = 0.01910725
#
# Stress axis : x y z
#
# Youngs Moduli (GPa) = -47.55770 -47.55747 56.94226
#
# Poissons Ratio (x) = 1.33820 0.18049
# Poissons Ratio (y) = 1.33821 0.18044
# Poissons Ratio (z) = -0.15075 -0.15070
#
# Static dielectric constant tensor:
#      x y z
#    x 1.928640 0.000000 0.000000 
#    y 0.000000 1.928640 0.000000 
#    z 0.000000 0.000000 2.057240 
# 
# From -- ./inp_files/2005.got.cif
#   From: 2010.05.17/outbox.cif.g08.bks.cpg/sg92_2_cif.got.tgz:2005.got - 2010.06.03 19:35:17.
