data_PCOD9549660
_publ_section_title
;
Structure prediction by ZEFSAII (Michael W. Deem and Ramdas Pophale) SiO2 
 PCOD9549660
Probable space group: P 42 2 2
;
_chemical_formula_sum "Si O2"
_cell_formula_units_Z 44
_cell_length_a 9.124940
_cell_length_b 9.124940
_cell_length_c 26.615748
_cell_angle_alpha 90.000000
_cell_angle_beta 90.000000
_cell_angle_gamma 90.000000
_cell_volume 2216.147748
_symmetry_space_group_name_H-M "P 42 2 2"
_symmetry_group_IT_number 93
_symmetry_cell_setting 'tetragonal'
loop_
_space_group_symop_operation_xyz
x,y,z
-y,x,1/2+z
-x,-y,z
y,-x,1/2+z
x,-y,-z
-x,y,-z
y,x,1/2-z
-y,-x,1/2-z
loop_
_atom_site_type_symbol
_atom_site_label
_atom_site_fract_x
_atom_site_fract_y
_atom_site_fract_z
Si Si1 0.982827 0.331930 0.676664
Si Si2 0.793644 0.206357 0.250000
Si Si3 0.692259 0.642976 0.377512
Si Si4 0.777948 0.309173 0.404123
Si Si5 0.433291 0.837716 0.336634
Si Si6 0.675249 0.665437 0.008755
O O1 0.062304 0.224115 0.715497
O O2 0.067902 0.320952 0.623521
O O3 0.000000 0.500000 0.695113
O O4 0.816383 0.311474 0.661923
O O5 0.653047 0.206304 0.286319
O O6 0.702083 0.466379 0.387729
O O7 0.549256 0.715141 0.353614
O O8 0.710694 0.704912 0.434180
O O9 0.689896 0.175833 0.379501
O O10 0.773111 0.283893 0.463452
O O11 0.500000 0.000000 0.333081
O O12 0.733532 0.500000 0.000000
O O13 0.500000 0.655004 0.000000
#
# Coordination Sequence:
#
# PCOD9549660 Si02
#       6
#     8   4   8   8   8   8
#     4   9  19  36  57  82 112 144 194 240 284 339
#     4  10  22  42  56  72 112 150 184 250 300 330
#     4  10  19  35  60  87 113 147 188 232 276 349
#     4   9  18  35  56  83 119 152 178 230 285 333
#     4  11  22  38  58  81 110 145 192 238 286 339
#     4   9  15  27  54  88 120 145 181 223 281 344
#
# _framework density 19.854272000000002
#
# number of rings (size 3 to 8) (size 9 to 14) (size 15 to 20)
#    0.000    2.364    1.818    1.091    0.000    0.727 
#    0.000   34.545    0.000    0.000    0.000    5.091 
#    0.000    0.000    0.000    0.000    0.000    0.000 
#
# Total GULP energy -245026.487174 kJ/mol
# GULP energy per Si atom -5568.783799 kJ/mol
# Density = 1.980908 g / cm^3
# Si number density = 19.854272 Si / 1000 Ang^3
#
#
#
# Elastic Constant Matrix: (Units=GPa)
#
#
# Indices 1 2 3 4 5 6 
#
# 1 35.1535 19.8324 21.2528 0.0000 0.0000 0.0000
# 2 19.8324 35.1532 21.2530 0.0000 0.0000 0.0000
# 3 21.2528 21.2530 122.7826 0.0000 0.0000 0.0000
# 4 0.0000 0.0000 0.0000 5.3228 0.0000 0.0000
# 5 0.0000 0.0000 0.0000 0.0000 5.3227 0.0000
# 6 0.0000 0.0000 0.0000 0.0000 0.0000 22.5054
#
#
#
# Elastic Compliance Matrix: (Units=1/GPa)
#
#
# Indices 1 2 3 4 5 6 
#
# 1 0.043133 -0.022137 -0.003634 0.000000 0.000000 0.000000
# 2 -0.022137 0.043133 -0.003634 0.000000 0.000000 0.000000
# 3 -0.003634 -0.003634 0.009403 0.000000 0.000000 0.000000
# 4 0.000000 0.000000 0.000000 0.187871 0.000000 0.000000
# 5 0.000000 0.000000 0.000000 0.000000 0.187873 0.000000
# 6 0.000000 0.000000 0.000000 0.000000 0.000000 0.044434
#
#
# Mechanical properties :
#
#
# Convention : Reuss Voigt Hill
#
# Bulk Modulus (GPa) = 27.13159 35.30731 31.21945
# Shear Modulus (GPa) = 8.51870 15.34692 11.93281
#
# Velocity S-wave (km/s) = 2.07363 2.78326 2.45423
# Velocity P-wave (km/s) = 4.40775 5.30571 4.87744
#
# Compressibility (1/GPa) = 0.03685740
#
# Stress axis : x y z
#
# Youngs Moduli (GPa) = 23.18420 23.18397 106.35347
#
# Poissons Ratio (x) = 0.51323 0.38651
# Poissons Ratio (y) = 0.51323 0.38652
# Poissons Ratio (z) = 0.08426 0.08426
#
# Static dielectric constant tensor:
#      x y z
#    x 1.705590 0.000000 0.000000 
#    y 0.000000 1.705590 0.000000 
#    z 0.000000 0.000000 1.733730 
# 
# From -- ./inp_files/7679.got.cif
#   From: 2010.05.17/outbox.cif.g08.bks.cpg/sg93_4_cif.got.tgz:7679.got - 2010.06.03 19:38:44.
