data_PCOD9549493
_publ_section_title
;
Structure prediction by ZEFSAII (Michael W. Deem and Ramdas Pophale) SiO2 
 PCOD9549493
Probable space group: P 41 21 2
;
_chemical_formula_sum "Si O2"
_cell_formula_units_Z 36
_cell_length_a 8.430666
_cell_length_b 8.430666
_cell_length_c 20.807491
_cell_angle_alpha 90.000000
_cell_angle_beta 90.000000
_cell_angle_gamma 90.000000
_cell_volume 1478.915919
_symmetry_space_group_name_H-M "P 41 21 2"
_symmetry_group_IT_number 92
_symmetry_cell_setting 'tetragonal'
loop_
_space_group_symop_operation_xyz
x,y,z
1/2-y,1/2+x,1/4+z
-x,-y,1/2+z
1/2+y,1/2-x,3/4+z
1/2+x,1/2-y,3/4-z
1/2-x,1/2+y,1/4-z
y,x,-z
-y,-x,1/2-z
loop_
_atom_site_type_symbol
_atom_site_label
_atom_site_fract_x
_atom_site_fract_y
_atom_site_fract_z
Si Si1 0.779322 0.549445 0.559603
Si Si2 0.201741 0.221398 0.282146
Si Si3 0.904409 0.394610 0.348628
Si Si4 0.374805 0.415026 0.822729
Si Si5 0.854926 0.854926 0.500000
O O1 0.682134 0.427436 0.515980
O O2 0.663452 0.640968 0.607801
O O3 0.865549 0.668049 0.511433
O O4 0.924694 0.473268 0.600074
O O5 0.335315 0.176139 0.335343
O O6 0.286480 0.337581 0.231763
O O7 0.040302 0.286777 0.315157
O O8 0.737647 0.434710 0.312362
O O9 0.561359 0.433435 0.811677
#
# Coordination Sequence:
#
# PCOD9549493 Si02
#       5
#     8   8   8   8   4
#     4  11  23  47  80 108 153 210 268 323 407 491
#     4  11  25  49  76 116 160 205 266 331 411 482
#     4  11  26  46  74 115 161 204 258 333 406 478
#     4  11  25  45  74 111 153 201 264 330 389 488
#     4  12  22  44  72 110 146 198 268 314 390 476
#
# _framework density 24.342155000000002
#
# number of rings (size 3 to 8) (size 9 to 14) (size 15 to 20)
#    0.000    0.889    2.222    5.333    6.222    0.000 
#    0.000    5.556    0.000    0.000    0.000    0.000 
#    0.000    0.000    0.000    0.000    0.000    0.000 
#
# Total GULP energy -200738.852158 kJ/mol
# GULP energy per Si atom -5576.079227 kJ/mol
# Density = 2.428675 g / cm^3
# Si number density = 24.342155 Si / 1000 Ang^3
#
#
#
# Elastic Constant Matrix: (Units=GPa)
#
#
# Indices 1 2 3 4 5 6 
#
# 1 102.7828 61.9961 70.4170 0.0000 0.0000 0.0000
# 2 61.9961 102.7828 70.4170 0.0000 0.0000 0.0000
# 3 70.4170 70.4170 151.6940 0.0000 0.0000 0.0000
# 4 0.0000 0.0000 0.0000 49.2333 0.0000 0.0000
# 5 0.0000 0.0000 0.0000 0.0000 49.2333 0.0000
# 6 0.0000 0.0000 0.0000 0.0000 0.0000 61.1470
#
#
#
# Elastic Compliance Matrix: (Units=1/GPa)
#
#
# Indices 1 2 3 4 5 6 
#
# 1 0.017289 -0.007229 -0.004670 0.000000 0.000000 0.000000
# 2 -0.007229 0.017289 -0.004670 0.000000 0.000000 0.000000
# 3 -0.004670 -0.004670 0.010928 0.000000 0.000000 0.000000
# 4 0.000000 0.000000 0.000000 0.020311 0.000000 0.000000
# 5 0.000000 0.000000 0.000000 0.000000 0.020311 0.000000
# 6 0.000000 0.000000 0.000000 0.000000 0.000000 0.016354
#
#
# Mechanical properties :
#
#
# Convention : Reuss Voigt Hill
#
# Bulk Modulus (GPa) = 80.85228 84.76885 82.81057
# Shear Modulus (GPa) = 35.78005 42.21804 38.99905
#
# Velocity S-wave (km/s) = 3.83806 4.16908 4.00699
# Velocity P-wave (km/s) = 7.27516 7.62066 7.44991
#
# Compressibility (1/GPa) = 0.01236823
#
# Stress axis : x y z
#
# Youngs Moduli (GPa) = 57.84055 57.84055 91.50973
#
# Poissons Ratio (x) = 0.41812 0.42734
# Poissons Ratio (y) = 0.41812 0.42734
# Poissons Ratio (z) = 0.27011 0.27011
#
# Static dielectric constant tensor:
#      x y z
#    x 2.086610 0.000000 0.000000 
#    y 0.000000 2.086610 0.000000 
#    z 0.000000 0.000000 1.960800 
# 
# From -- ./inp_files/3459.got.cif
#   From: 2010.05.17/outbox.cif.g08.bks.cpg/sg92_2_cif.got.tgz:3459.got - 2010.06.03 19:35:17.
