data_PCOD9549163
_publ_section_title
;
Structure prediction by ZEFSAII (Michael W. Deem and Ramdas Pophale) SiO2 
 PCOD9549163
Probable space group: P 41 21 2
;
_chemical_formula_sum "Si O2"
_cell_formula_units_Z 48
_cell_length_a 10.832108
_cell_length_b 10.832108
_cell_length_c 18.341320
_cell_angle_alpha 90.000000
_cell_angle_beta 90.000000
_cell_angle_gamma 90.000000
_cell_volume 2152.070780
_symmetry_space_group_name_H-M "P 41 21 2"
_symmetry_group_IT_number 92
_symmetry_cell_setting 'tetragonal'
loop_
_space_group_symop_operation_xyz
x,y,z
1/2-y,1/2+x,1/4+z
-x,-y,1/2+z
1/2+y,1/2-x,3/4+z
1/2+x,1/2-y,3/4-z
1/2-x,1/2+y,1/4-z
y,x,-z
-y,-x,1/2-z
loop_
_atom_site_type_symbol
_atom_site_label
_atom_site_fract_x
_atom_site_fract_y
_atom_site_fract_z
Si Si1 0.363418 0.446853 0.765274
Si Si2 0.190658 0.103759 0.076501
Si Si3 0.556101 0.825722 0.608953
Si Si4 0.806651 0.193350 0.250000
Si Si5 0.202336 0.719864 0.909300
Si Si6 0.896998 0.103003 0.750000
Si Si7 0.907366 0.822119 0.718559
O O1 0.420355 0.579646 0.750000
O O2 0.472752 0.375462 0.808199
O O3 0.238825 0.445979 0.812127
O O4 0.328821 0.384454 0.688755
O O5 0.332564 0.078954 0.099997
O O6 0.137702 0.202051 0.136455
O O7 0.173260 0.173260 0.000000
O O8 0.416071 0.860259 0.589100
O O9 0.596236 0.715067 0.555230
O O10 0.765141 0.253511 0.325803
O O11 0.954069 0.213609 0.238984
O O12 0.316183 0.716966 0.966281
O O13 0.029594 0.102785 0.788028
#
# Coordination Sequence:
#
# PCOD9549163 Si02
#       7
#     8   8   8   4   8   4   8
#     4  11  24  43  73  98 138 189 240 286 356 441
#     4  11  21  39  70 106 132 180 235 297 351 417
#     4  11  22  40  68  96 142 172 235 295 347 414
#     4  11  24  44  68  97 144 188 232 301 362 430
#     4  11  26  42  68 107 134 188 237 291 366 427
#     4   9  18  36  64  93 122 172 218 289 342 398
#     4  10  21  41  69  99 130 178 244 282 350 430
#
# _framework density 22.304099000000001
#
# number of rings (size 3 to 8) (size 9 to 14) (size 15 to 20)
#    0.000    1.333    4.167    2.000    5.833    0.000 
#    0.000    3.333    0.000    0.000    0.000    0.000 
#    0.000    0.000    0.000    0.000    0.000    0.000 
#
# Total GULP energy -267845.830231 kJ/mol
# GULP energy per Si atom -5580.121463 kJ/mol
# Density = 2.225333 g / cm^3
# Si number density = 22.304099 Si / 1000 Ang^3
#
#
#
# Elastic Constant Matrix: (Units=GPa)
#
#
# Indices 1 2 3 4 5 6 
#
# 1 55.8042 37.6521 35.1173 0.0000 0.0000 0.0000
# 2 37.6521 55.8008 35.1194 0.0000 0.0000 0.0000
# 3 35.1173 35.1194 169.4778 0.0000 0.0000 0.0000
# 4 0.0000 0.0000 0.0000 26.8516 0.0000 0.0000
# 5 0.0000 0.0000 0.0000 0.0000 26.8511 0.0000
# 6 0.0000 0.0000 0.0000 0.0000 0.0000 34.7629
#
#
#
# Elastic Compliance Matrix: (Units=1/GPa)
#
#
# Indices 1 2 3 4 5 6 
#
# 1 0.033883 -0.021211 -0.002626 0.000000 0.000000 0.000000
# 2 -0.021211 0.033886 -0.002627 0.000000 0.000000 0.000000
# 3 -0.002626 -0.002627 0.006989 0.000000 0.000000 0.000000
# 4 0.000000 0.000000 0.000000 0.037242 0.000000 0.000000
# 5 0.000000 0.000000 0.000000 0.000000 0.037242 0.000000
# 6 0.000000 0.000000 0.000000 0.000000 0.000000 0.028766
#
#
# Mechanical properties :
#
#
# Convention : Reuss Voigt Hill
#
# Bulk Modulus (GPa) = 45.80402 55.20670 50.50536
# Shear Modulus (GPa) = 20.98967 29.23939 25.11453
#
# Velocity S-wave (km/s) = 3.07101 3.62462 3.35924
# Velocity P-wave (km/s) = 5.75808 6.50559 6.14322
#
# Compressibility (1/GPa) = 0.02183215
#
# Stress axis : x y z
#
# Youngs Moduli (GPa) = 29.51314 29.51051 143.08435
#
# Poissons Ratio (x) = 0.62593 0.37569
# Poissons Ratio (y) = 0.62599 0.37587
# Poissons Ratio (z) = 0.07749 0.07752
#
# Static dielectric constant tensor:
#      x y z
#    x 1.947720 0.000000 0.000000 
#    y 0.000000 1.947720 0.000000 
#    z 0.000000 0.000000 1.889830 
# 
# From -- ./inp_files/3164.got.cif
#   From: 2010.05.17/outbox.cif.g08.bks.cpg/sg92_2_cif.got.tgz:3164.got - 2010.06.03 19:35:17.
