data_PCOD9549378
_publ_section_title
;
Structure prediction by ZEFSAII (Michael W. Deem and Ramdas Pophale) SiO2 
 PCOD9549378
Probable space group: P 41 21 2
;
_chemical_formula_sum "Si O2"
_cell_formula_units_Z 32
_cell_length_a 8.317169
_cell_length_b 8.317169
_cell_length_c 19.046206
_cell_angle_alpha 90.000000
_cell_angle_beta 90.000000
_cell_angle_gamma 90.000000
_cell_volume 1317.527017
_symmetry_space_group_name_H-M "P 41 21 2"
_symmetry_group_IT_number 92
_symmetry_cell_setting 'tetragonal'
loop_
_space_group_symop_operation_xyz
x,y,z
1/2-y,1/2+x,1/4+z
-x,-y,1/2+z
1/2+y,1/2-x,3/4+z
1/2+x,1/2-y,3/4-z
1/2-x,1/2+y,1/4-z
y,x,-z
-y,-x,1/2-z
loop_
_atom_site_type_symbol
_atom_site_label
_atom_site_fract_x
_atom_site_fract_y
_atom_site_fract_z
Si Si1 0.249544 0.586899 0.690590
Si Si2 0.424917 0.084013 0.041003
Si Si3 0.198397 0.695262 0.360733
Si Si4 0.918483 0.055205 0.326917
O O1 0.382301 0.617699 0.750000
O O2 0.333997 0.536770 0.619688
O O3 0.157200 0.754114 0.680778
O O4 0.113833 0.455990 0.709606
O O5 0.370761 0.235742 0.088996
O O6 0.339312 0.927391 0.076678
O O7 0.367628 0.115963 0.961452
O O8 0.360649 0.601914 0.383055
O O9 0.981579 0.018422 0.250000
#
# Coordination Sequence:
#
# PCOD9549378 Si02
#       4
#     8   8   8   8
#     4  10  24  43  72 104 141 187 238 299 357 425
#     4  10  24  45  69 105 138 192 239 296 366 419
#     4  10  24  45  70  98 147 181 243 301 351 440
#     4  10  24  44  67 105 138 187 240 292 360 423
#
# _framework density 24.287925999999999
#
# number of rings (size 3 to 8) (size 9 to 14) (size 15 to 20)
#    0.000    2.000    0.000    0.000   24.500    4.000 
#    4.500    0.000    0.000    0.000    0.000    0.000 
#    0.000    0.000    0.000    0.000    0.000    0.000 
#
# Total GULP energy -179153.404298 kJ/mol
# GULP energy per Si atom -5598.543884 kJ/mol
# Density = 2.423265 g / cm^3
# Si number density = 24.287926 Si / 1000 Ang^3
#
#
#
# Elastic Constant Matrix: (Units=GPa)
#
#
# Indices 1 2 3 4 5 6 
#
# 1 72.4471 63.7748 48.6200 0.0000 0.0000 0.0000
# 2 63.7748 72.4476 48.6200 0.0000 0.0000 0.0000
# 3 48.6200 48.6200 122.2583 0.0000 0.0000 0.0000
# 4 0.0000 0.0000 0.0000 30.6897 0.0000 0.0000
# 5 0.0000 0.0000 0.0000 0.0000 30.6896 0.0000
# 6 0.0000 0.0000 0.0000 0.0000 0.0000 45.4922
#
#
#
# Elastic Compliance Matrix: (Units=1/GPa)
#
#
# Indices 1 2 3 4 5 6 
#
# 1 0.062779 -0.052527 -0.004077 0.000000 0.000000 0.000000
# 2 -0.052527 0.062778 -0.004077 0.000000 0.000000 0.000000
# 3 -0.004077 -0.004077 0.011422 0.000000 0.000000 0.000000
# 4 0.000000 0.000000 0.000000 0.032584 0.000000 0.000000
# 5 0.000000 0.000000 0.000000 0.000000 0.032584 0.000000
# 6 0.000000 0.000000 0.000000 0.000000 0.000000 0.021982
#
#
# Mechanical properties :
#
#
# Convention : Reuss Voigt Hill
#
# Bulk Modulus (GPa) = 64.03178 65.46472 64.74825
# Shear Modulus (GPa) = 14.25735 28.45017 21.35376
#
# Velocity S-wave (km/s) = 2.42547 3.42624 2.96833
# Velocity P-wave (km/s) = 5.85361 6.53179 6.20198
#
# Compressibility (1/GPa) = 0.01561725
#
# Stress axis : x y z
#
# Youngs Moduli (GPa) = 15.92896 15.92910 87.55168
#
# Poissons Ratio (x) = 0.83672 0.35693
# Poissons Ratio (y) = 0.83671 0.35691
# Poissons Ratio (z) = 0.06494 0.06494
#
# Static dielectric constant tensor:
#      x y z
#    x 1.958840 0.000000 0.000000 
#    y 0.000000 1.958840 0.000000 
#    z 0.000000 0.000000 1.821280 
# 
# From -- ./inp_files/3365.got.cif
#   From: 2010.05.17/outbox.cif.g08.bks.cpg/sg92_2_cif.got.tgz:3365.got - 2010.06.03 19:35:17.
