data_PCOD9549675
_publ_section_title
;
Structure prediction by ZEFSAII (Michael W. Deem and Ramdas Pophale) SiO2 
 PCOD9549675
Probable space group: P 42 2 2
;
_chemical_formula_sum "Si O2"
_cell_formula_units_Z 48
_cell_length_a 11.725777
_cell_length_b 11.725777
_cell_length_c 15.340878
_cell_angle_alpha 90.000000
_cell_angle_beta 90.000000
_cell_angle_gamma 90.000000
_cell_volume 2109.276321
_symmetry_space_group_name_H-M "P 42 2 2"
_symmetry_group_IT_number 93
_symmetry_cell_setting 'tetragonal'
loop_
_space_group_symop_operation_xyz
x,y,z
-y,x,1/2+z
-x,-y,z
y,-x,1/2+z
x,-y,-z
-x,y,-z
y,x,1/2-z
-y,-x,1/2-z
loop_
_atom_site_type_symbol
_atom_site_label
_atom_site_fract_x
_atom_site_fract_y
_atom_site_fract_z
Si Si1 0.169680 0.290251 0.076723
Si Si2 0.508759 0.121047 0.684920
Si Si3 0.973289 0.873850 0.895594
Si Si4 0.709813 0.785822 0.622002
Si Si5 0.344284 0.203827 0.181100
Si Si6 0.366858 0.474062 0.602380
O O1 0.197651 0.409905 0.123816
O O2 0.270175 0.197474 0.093503
O O3 0.059950 0.231390 0.121796
O O4 0.164304 0.317489 0.975045
O O5 0.382923 0.169607 0.691028
O O6 0.582328 0.106342 0.773068
O O7 0.500000 0.000000 0.639153
O O8 0.847354 0.832213 0.866915
O O9 0.000000 0.000000 0.859904
O O10 0.000000 0.883069 0.000000
O O11 0.684236 0.651849 0.617913
O O12 0.252335 0.252335 0.250000
O O13 0.439446 0.297658 0.162144
O O14 0.500000 0.500000 0.619519
O O15 0.348848 0.500000 0.500000
#
# Coordination Sequence:
#
# PCOD9549675 Si02
#       6
#     8   8   8   8   8   8
#     4  10  19  37  62  90 121 160 205 265 326 380
#     4  11  22  36  59  91 124 158 206 262 325 383
#     4   9  19  36  60  90 119 156 210 274 325 370
#     4  11  21  35  64  96 123 159 214 268 318 381
#     4  10  22  39  59  82 125 170 197 245 327 391
#     4  11  22  37  60  93 130 163 210 254 315 402
#
# _framework density 22.756620000000002
#
# number of rings (size 3 to 8) (size 9 to 14) (size 15 to 20)
#    0.000    1.667    3.333    2.500    2.333    3.000 
#    3.000    0.000    0.000    5.000    0.000    0.000 
#    0.000    0.000    0.000    0.000    0.000    0.000 
#
# Total GULP energy -267205.585541 kJ/mol
# GULP energy per Si atom -5566.783032 kJ/mol
# Density = 2.270482 g / cm^3
# Si number density = 22.756620 Si / 1000 Ang^3
#
#
#
# Elastic Constant Matrix: (Units=GPa)
#
#
# Indices 1 2 3 4 5 6 
#
# 1 109.5516 31.2218 3.1925 0.0000 0.0000 0.0000
# 2 31.2218 109.5516 3.1925 0.0000 0.0000 0.0000
# 3 3.1925 3.1925 35.6512 0.0000 0.0000 0.0000
# 4 0.0000 0.0000 0.0000 15.9654 0.0000 0.0000
# 5 0.0000 0.0000 0.0000 0.0000 15.9654 0.0000
# 6 0.0000 0.0000 0.0000 0.0000 0.0000 28.6924
#
#
#
# Elastic Compliance Matrix: (Units=1/GPa)
#
#
# Indices 1 2 3 4 5 6 
#
# 1 0.009950 -0.002817 -0.000639 0.000000 0.000000 0.000000
# 2 -0.002817 0.009950 -0.000639 0.000000 0.000000 0.000000
# 3 -0.000639 -0.000639 0.028164 0.000000 0.000000 0.000000
# 4 0.000000 0.000000 0.000000 0.062636 0.000000 0.000000
# 5 0.000000 0.000000 0.000000 0.000000 0.062636 0.000000
# 6 0.000000 0.000000 0.000000 0.000000 0.000000 0.034852
#
#
# Mechanical properties :
#
#
# Convention : Reuss Voigt Hill
#
# Bulk Modulus (GPa) = 25.07880 36.66309 30.87094
# Shear Modulus (GPa) = 21.77065 26.60112 24.18589
#
# Velocity S-wave (km/s) = 3.09637 3.42269 3.26361
# Velocity P-wave (km/s) = 4.88136 5.63610 5.27225
#
# Compressibility (1/GPa) = 0.03987432
#
# Stress axis : x y z
#
# Youngs Moduli (GPa) = 100.50696 100.50696 35.50638
#
# Poissons Ratio (x) = 0.28313 0.02268
# Poissons Ratio (y) = 0.28313 0.02268
# Poissons Ratio (z) = 0.06419 0.06419
#
# Static dielectric constant tensor:
#      x y z
#    x 1.905500 0.000000 0.000000 
#    y 0.000000 1.905500 0.000000 
#    z 0.000000 0.000000 1.925710 
# 
# From -- ./inp_files/5412.got.cif
#   From: 2010.05.17/outbox.cif.g08.bks.cpg/sg93_3_cif.got.tgz:5412.got - 2010.06.03 19:38:44.
