data_PCOD9549501
_publ_section_title
;
Structure prediction by ZEFSAII (Michael W. Deem and Ramdas Pophale) SiO2 
 PCOD9549501
Probable space group: P 41 21 2
;
_chemical_formula_sum "Si O2"
_cell_formula_units_Z 32
_cell_length_a 11.010758
_cell_length_b 11.010758
_cell_length_c 11.845319
_cell_angle_alpha 90.000000
_cell_angle_beta 90.000000
_cell_angle_gamma 90.000000
_cell_volume 1436.088473
_symmetry_space_group_name_H-M "P 41 21 2"
_symmetry_group_IT_number 92
_symmetry_cell_setting 'tetragonal'
loop_
_space_group_symop_operation_xyz
x,y,z
1/2-y,1/2+x,1/4+z
-x,-y,1/2+z
1/2+y,1/2-x,3/4+z
1/2+x,1/2-y,3/4-z
1/2-x,1/2+y,1/4-z
y,x,-z
-y,-x,1/2-z
loop_
_atom_site_type_symbol
_atom_site_label
_atom_site_fract_x
_atom_site_fract_y
_atom_site_fract_z
Si Si1 0.873652 0.202135 0.362746
Si Si2 0.592114 0.794061 0.496676
Si Si3 0.985029 0.779191 0.484936
Si Si4 0.235537 0.059020 0.467580
O O1 0.880793 0.119208 0.250000
O O2 0.812779 0.112543 0.455013
O O3 0.795475 0.317996 0.326673
O O4 0.993159 0.264851 0.415016
O O5 0.706415 0.706415 0.500000
O O6 0.505956 0.748165 0.397023
O O7 0.531107 0.771988 0.617611
O O8 0.653103 0.924639 0.471375
O O9 0.890825 0.890825 0.500000
O O10 0.097010 0.097010 0.500000
#
# Coordination Sequence:
#
# PCOD9549501 Si02
#       4
#     8   8   8   8
#     4  11  26  47  74 111 153 197 252 309 382 452
#     4  11  24  45  76 107 148 194 260 303 385 450
#     4  11  26  46  76 109 149 206 249 322 380 454
#     4  11  25  47  74 109 150 197 248 313 379 456
#
# _framework density 22.282751000000001
#
# number of rings (size 3 to 8) (size 9 to 14) (size 15 to 20)
#    0.000    1.000    2.500    2.250    7.000    2.000 
#   27.000    0.000    0.000    0.000    0.000    0.000 
#    0.000    0.000    0.000    0.000    0.000    0.000 
#
# Total GULP energy -178167.905372 kJ/mol
# GULP energy per Si atom -5567.747043 kJ/mol
# Density = 2.223203 g / cm^3
# Si number density = 22.282751 Si / 1000 Ang^3
#
#
#
# Elastic Constant Matrix: (Units=GPa)
#
#
# Indices 1 2 3 4 5 6 
#
# 1 54.2177 86.2193 29.7686 0.0000 0.0000 0.0000
# 2 86.2193 54.2177 29.7686 0.0000 0.0000 0.0000
# 3 29.7686 29.7686 104.9970 0.0000 0.0000 0.0000
# 4 0.0000 0.0000 0.0000 29.7348 0.0000 0.0000
# 5 0.0000 0.0000 0.0000 0.0000 29.7351 0.0000
# 6 0.0000 0.0000 0.0000 0.0000 0.0000 133.9752
#
#
#
# Elastic Compliance Matrix: (Units=1/GPa)
#
#
# Indices 1 2 3 4 5 6 
#
# 1 -0.011578 0.019671 -0.002295 0.000000 0.000000 0.000000
# 2 0.019671 -0.011577 -0.002295 0.000000 0.000000 0.000000
# 3 -0.002295 -0.002295 0.010825 0.000000 0.000000 0.000000
# 4 0.000000 0.000000 0.000000 0.033631 0.000000 0.000000
# 5 0.000000 0.000000 0.000000 0.000000 0.033630 0.000000
# 6 0.000000 0.000000 0.000000 0.000000 0.000000 0.007464
#
#
# Mechanical properties :
#
#
# Convention : Reuss Voigt Hill
#
# Bulk Modulus (GPa) = 56.07415 56.10504 56.08959
# Shear Modulus (GPa) = 130.97096 43.20075 87.08585
#
# Velocity S-wave (km/s) = 7.67492 4.40790 6.25836
# Velocity P-wave (km/s) = 10.18620 7.15119 8.80052
#
# Compressibility (1/GPa) = 0.01783353
#
# Stress axis : x y z
#
# Youngs Moduli (GPa) = -86.37433 -86.37447 92.37684
#
# Poissons Ratio (x) = 1.69907 0.21197
# Poissons Ratio (y) = 1.69906 0.21197
# Poissons Ratio (z) = -0.19820 -0.19820
#
# Static dielectric constant tensor:
#      x y z
#    x 1.926200 0.000000 0.000000 
#    y 0.000000 1.926200 0.000000 
#    z 0.000000 0.000000 1.890730 
# 
# From -- ./inp_files/1906.got.cif
#   From: 2010.05.17/outbox.cif.g08.bks.cpg/sg92_1_cif.got.tgz:1906.got - 2010.06.03 19:35:17.
