data_PCOD9549734
_publ_section_title
;
Structure prediction by ZEFSAII (Michael W. Deem and Ramdas Pophale) SiO2 
 PCOD9549734
Probable space group: P 42 2 2
;
_chemical_formula_sum "Si O2"
_cell_formula_units_Z 56
_cell_length_a 11.741578
_cell_length_b 11.741578
_cell_length_c 23.417173
_cell_angle_alpha 90.000000
_cell_angle_beta 90.000000
_cell_angle_gamma 90.000000
_cell_volume 3228.400452
_symmetry_space_group_name_H-M "P 42 2 2"
_symmetry_group_IT_number 93
_symmetry_cell_setting 'tetragonal'
loop_
_space_group_symop_operation_xyz
x,y,z
-y,x,1/2+z
-x,-y,z
y,-x,1/2+z
x,-y,-z
-x,y,-z
y,x,1/2-z
-y,-x,1/2-z
loop_
_atom_site_type_symbol
_atom_site_label
_atom_site_fract_x
_atom_site_fract_y
_atom_site_fract_z
Si Si1 0.721889 0.185481 0.396817
Si Si2 0.546099 0.131172 0.758297
Si Si3 0.043224 0.127122 0.096140
Si Si4 0.781143 0.903747 0.198639
Si Si5 0.698225 0.164988 0.202260
Si Si6 0.682240 0.875666 0.479129
Si Si7 0.866208 0.471415 0.870425
O O1 0.794589 0.275647 0.361902
O O2 0.696483 0.198324 0.464094
O O3 0.596596 0.186935 0.369863
O O4 0.789184 0.064003 0.388458
O O5 0.656533 0.153547 0.796775
O O6 0.432444 0.188960 0.781523
O O7 0.580301 0.154797 0.692303
O O8 0.500000 0.000000 0.758498
O O9 0.140303 0.117456 0.144063
O O10 0.100584 0.191200 0.043537
O O11 0.000000 0.000000 0.084604
O O12 0.858482 0.858482 0.250000
O O13 0.744663 0.035534 0.205345
O O14 0.769959 0.230042 0.250000
O O15 0.605533 0.836073 0.425534
O O16 0.636903 0.000000 0.500000
O O17 0.000000 0.500000 0.875748
#
# Coordination Sequence:
#
# PCOD9549734 Si02
#       7
#     8   8   8   8   8   8   8
#     4  11  21  31  52  80 108 145 176 220 272 331
#     4   9  21  34  53  74 107 144 185 224 262 325
#     4  11  21  33  47  74 112 146 175 213 269 332
#     4  11  22  33  52  78 108 147 184 218 270 332
#     4  11  20  36  52  79 110 142 180 225 277 329
#     4  10  21  31  49  77 114 145 180 222 271 331
#     4  11  17  31  50  75 110 141 177 224 274 321
#
# _framework density 17.346050000000002
#
# number of rings (size 3 to 8) (size 9 to 14) (size 15 to 20)
#    0.000    1.429    5.714    2.143    2.000    2.571 
#    0.000    0.000    0.000    1.286    0.000    3.000 
#    0.000    7.714    0.000    0.000    0.000    0.000 
#
# Total GULP energy -311884.722972 kJ/mol
# GULP energy per Si atom -5569.370053 kJ/mol
# Density = 1.730657 g / cm^3
# Si number density = 17.346050 Si / 1000 Ang^3
#
#
#
# Elastic Constant Matrix: (Units=GPa)
#
#
# Indices 1 2 3 4 5 6 
#
# 1 56.0855 24.8947 24.3550 0.0000 0.0000 0.0000
# 2 24.8947 56.0864 24.3544 0.0000 0.0000 0.0000
# 3 24.3550 24.3544 54.6304 0.0000 0.0000 0.0000
# 4 0.0000 0.0000 0.0000 15.1845 0.0000 0.0000
# 5 0.0000 0.0000 0.0000 0.0000 15.1840 0.0000
# 6 0.0000 0.0000 0.0000 0.0000 0.0000 6.2002
#
#
#
# Elastic Compliance Matrix: (Units=1/GPa)
#
#
# Indices 1 2 3 4 5 6 
#
# 1 0.024467 -0.007594 -0.007523 0.000000 0.000000 0.000000
# 2 -0.007594 0.024466 -0.007522 0.000000 0.000000 0.000000
# 3 -0.007523 -0.007522 0.025012 0.000000 0.000000 0.000000
# 4 0.000000 0.000000 0.000000 0.065857 0.000000 0.000000
# 5 0.000000 0.000000 0.000000 0.000000 0.065859 0.000000
# 6 0.000000 0.000000 0.000000 0.000000 0.000000 0.161285
#
#
# Mechanical properties :
#
#
# Convention : Reuss Voigt Hill
#
# Bulk Modulus (GPa) = 34.88050 34.89004 34.88527
# Shear Modulus (GPa) = 11.85457 13.52697 12.69077
#
# Velocity S-wave (km/s) = 2.61706 2.79557 2.70779
# Velocity P-wave (km/s) = 5.41149 5.52975 5.47094
#
# Compressibility (1/GPa) = 0.02866931
#
# Stress axis : x y z
#
# Youngs Moduli (GPa) = 40.87124 40.87253 39.98122
#
# Poissons Ratio (x) = 0.31037 0.30076
# Poissons Ratio (y) = 0.31036 0.30073
# Poissons Ratio (z) = 0.30746 0.30744
#
# Static dielectric constant tensor:
#      x y z
#    x 1.634200 0.000000 0.000000 
#    y 0.000000 1.634190 0.000000 
#    z 0.000000 0.000000 1.645430 
# 
# From -- ./inp_files/6258.got.cif
#   From: 2010.05.17/outbox.cif.g08.bks.cpg/sg93_4_cif.got.tgz:6258.got - 2010.06.03 19:38:44.
