data_PCOD9549384
_publ_section_title
;
Structure prediction by ZEFSAII (Michael W. Deem and Ramdas Pophale) SiO2 
 PCOD9549384
Probable space group: P 41 21 2
;
_chemical_formula_sum "Si O2"
_cell_formula_units_Z 40
_cell_length_a 13.636054
_cell_length_b 13.636054
_cell_length_c 8.714622
_cell_angle_alpha 90.000000
_cell_angle_beta 90.000000
_cell_angle_gamma 90.000000
_cell_volume 1620.413971
_symmetry_space_group_name_H-M "P 41 21 2"
_symmetry_group_IT_number 92
_symmetry_cell_setting 'tetragonal'
loop_
_space_group_symop_operation_xyz
x,y,z
1/2-y,1/2+x,1/4+z
-x,-y,1/2+z
1/2+y,1/2-x,3/4+z
1/2+x,1/2-y,3/4-z
1/2-x,1/2+y,1/4-z
y,x,-z
-y,-x,1/2-z
loop_
_atom_site_type_symbol
_atom_site_label
_atom_site_fract_x
_atom_site_fract_y
_atom_site_fract_z
Si Si1 0.529423 0.114905 0.055222
Si Si2 0.047430 0.910956 0.929418
Si Si3 0.691839 0.212392 0.614094
Si Si4 0.335219 0.228475 0.366985
Si Si5 0.994293 0.245054 0.946213
O O1 0.507571 0.219919 0.979113
O O2 0.563964 0.054161 0.904098
O O3 0.624403 0.123041 0.160490
O O4 0.057888 0.942113 0.750000
O O5 0.077116 0.796876 0.947009
O O6 0.132319 0.968676 0.023400
O O7 0.944963 0.944963 0.000000
O O8 0.772144 0.227857 0.750000
O O9 0.740813 0.285838 0.492978
O O10 0.586589 0.231279 0.692238
O O11 0.697051 0.108365 0.528059
O O12 0.293424 0.293424 0.500000
#
# Coordination Sequence:
#
# PCOD9549384 Si02
#       5
#     8   8   8   8   8
#     4  12  26  47  74 110 143 190 241 295 361 428
#     4  10  24  44  69 100 139 183 236 291 355 420
#     4  11  21  42  71  99 136 183 232 286 353 429
#     4  10  24  49  67 101 147 181 234 295 347 422
#     4  11  22  41  73  99 137 183 231 291 357 422
#
# _framework density 24.685048999999999
#
# number of rings (size 3 to 8) (size 9 to 14) (size 15 to 20)
#    0.000    1.200    4.000    0.600    0.000    9.600 
#   10.800    0.000    0.000    0.000    0.000    0.000 
#    0.000    0.000    0.000    0.000    0.000    0.000 
#
# Total GULP energy -223128.449697 kJ/mol
# GULP energy per Si atom -5578.211242 kJ/mol
# Density = 2.462886 g / cm^3
# Si number density = 24.685049 Si / 1000 Ang^3
#
#
#
# Elastic Constant Matrix: (Units=GPa)
#
#
# Indices 1 2 3 4 5 6 
#
# 1 49.8616 24.9784 1.8999 0.0000 0.0000 0.0000
# 2 24.9784 49.8613 1.8996 0.0000 0.0000 0.0000
# 3 1.8999 1.8996 64.9275 0.0000 0.0000 0.0000
# 4 0.0000 0.0000 0.0000 32.1767 0.0000 0.0000
# 5 0.0000 0.0000 0.0000 0.0000 32.1767 0.0000
# 6 0.0000 0.0000 0.0000 0.0000 0.0000 18.2375
#
#
#
# Elastic Compliance Matrix: (Units=1/GPa)
#
#
# Indices 1 2 3 4 5 6 
#
# 1 0.026785 -0.013403 -0.000392 0.000000 0.000000 0.000000
# 2 -0.013403 0.026785 -0.000391 0.000000 0.000000 0.000000
# 3 -0.000392 -0.000391 0.015425 0.000000 0.000000 0.000000
# 4 0.000000 0.000000 0.000000 0.031078 0.000000 0.000000
# 5 0.000000 0.000000 0.000000 0.000000 0.031078 0.000000
# 6 0.000000 0.000000 0.000000 0.000000 0.000000 0.054832
#
#
# Mechanical properties :
#
#
# Convention : Reuss Voigt Hill
#
# Bulk Modulus (GPa) = 24.61719 24.68958 24.65339
# Shear Modulus (GPa) = 21.93978 25.57635 23.75807
#
# Velocity S-wave (km/s) = 2.98449 3.22235 3.10570
# Velocity P-wave (km/s) = 4.67658 4.88552 4.78219
#
# Compressibility (1/GPa) = 0.04062201
#
# Stress axis : x y z
#
# Youngs Moduli (GPa) = 37.33452 37.33431 64.83107
#
# Poissons Ratio (x) = 0.50040 0.02539
# Poissons Ratio (y) = 0.50040 0.02538
# Poissons Ratio (z) = 0.01462 0.01462
#
# Static dielectric constant tensor:
#      x y z
#    x 2.013510 0.000000 0.000000 
#    y 0.000000 2.013510 0.000000 
#    z 0.000000 0.000000 2.476330 
# 
# From -- ./inp_files/1315.got.cif
#   From: 2010.05.17/outbox.cif.g08.bks.cpg/sg92_1_cif.got.tgz:1315.got - 2010.06.03 19:35:17.
