data_PCOD9549137
_publ_section_title
;
Structure prediction by ZEFSAII (Michael W. Deem and Ramdas Pophale) SiO2 
 PCOD9549137
Probable space group: P 41 21 2
;
_chemical_formula_sum "Si O2"
_cell_formula_units_Z 48
_cell_length_a 8.891047
_cell_length_b 8.891047
_cell_length_c 23.691864
_cell_angle_alpha 90.000000
_cell_angle_beta 90.000000
_cell_angle_gamma 90.000000
_cell_volume 1872.858830
_symmetry_space_group_name_H-M "P 41 21 2"
_symmetry_group_IT_number 92
_symmetry_cell_setting 'tetragonal'
loop_
_space_group_symop_operation_xyz
x,y,z
1/2-y,1/2+x,1/4+z
-x,-y,1/2+z
1/2+y,1/2-x,3/4+z
1/2+x,1/2-y,3/4-z
1/2-x,1/2+y,1/4-z
y,x,-z
-y,-x,1/2-z
loop_
_atom_site_type_symbol
_atom_site_label
_atom_site_fract_x
_atom_site_fract_y
_atom_site_fract_z
Si Si1 0.028040 0.780822 0.880274
Si Si2 0.205482 0.042490 0.773222
Si Si3 0.837732 0.835154 0.401201
Si Si4 0.139825 0.704096 0.571159
Si Si5 0.660350 0.579446 0.357621
Si Si6 0.051260 0.304271 0.499674
O O1 0.202698 0.811630 0.871378
O O2 0.964075 0.640986 0.847673
O O3 0.042548 0.753544 0.946451
O O4 0.922299 0.925888 0.871957
O O5 0.072020 0.927981 0.750000
O O6 0.366331 0.956650 0.768471
O O7 0.174692 0.112574 0.834771
O O8 0.241080 0.175028 0.728728
O O9 0.747160 0.679596 0.403413
O O10 0.014884 0.826587 0.414165
O O11 0.765387 0.971264 0.437938
O O12 0.773127 0.536753 0.307272
O O13 0.186775 0.186775 0.500000
#
# Coordination Sequence:
#
# PCOD9549137 Si02
#       6
#     8   8   8   8   8   8
#     4  10  21  40  63  95 127 174 225 278 334 408
#     4  11  22  41  67 100 135 171 232 293 341 404
#     4  11  24  43  64 104 137 181 226 284 343 424
#     4  11  23  38  67  95 128 176 231 279 338 408
#     4  10  23  39  65  92 142 177 219 278 349 402
#     4   9  19  37  64  90 124 173 219 276 340 398
#
# _framework density 25.629266999999999
#
# number of rings (size 3 to 8) (size 9 to 14) (size 15 to 20)
#    0.000    1.667    1.667    3.000    7.000    1.333 
#    0.000    0.000    0.000    2.000    0.000    0.000 
#    0.000    0.000    0.000    0.000    0.000    0.000 
#
# Total GULP energy -267661.545441 kJ/mol
# GULP energy per Si atom -5576.282197 kJ/mol
# Density = 2.557093 g / cm^3
# Si number density = 25.629267 Si / 1000 Ang^3
#
#
#
# Elastic Constant Matrix: (Units=GPa)
#
#
# Indices 1 2 3 4 5 6 
#
# 1 108.4098 -12.0582 -8.9129 0.0000 0.0000 0.0000
# 2 -12.0582 108.4090 -8.9127 0.0000 0.0000 0.0000
# 3 -8.9129 -8.9127 72.3325 0.0000 0.0000 0.0000
# 4 0.0000 0.0000 0.0000 -5.0117 0.0000 0.0000
# 5 0.0000 0.0000 0.0000 0.0000 -5.0107 0.0000
# 6 0.0000 0.0000 0.0000 0.0000 0.0000 42.0594
#
#
#
# Elastic Compliance Matrix: (Units=1/GPa)
#
#
# Indices 1 2 3 4 5 6 
#
# 1 0.009461 0.001160 0.001309 0.000000 0.000000 0.000000
# 2 0.001160 0.009461 0.001309 0.000000 0.000000 0.000000
# 3 0.001309 0.001309 0.014148 0.000000 0.000000 0.000000
# 4 0.000000 0.000000 0.000000 -0.199535 0.000000 0.000000
# 5 0.000000 0.000000 0.000000 0.000000 -0.199571 0.000000
# 6 0.000000 0.000000 0.000000 0.000000 0.000000 0.023776
#
#
# Mechanical properties :
#
#
# Convention : Reuss Voigt Hill
#
# Bulk Modulus (GPa) = 24.61603 25.48709 25.05156
# Shear Modulus (GPa) = -14.86882 27.67641 6.40380
#
# Velocity S-wave (km/s) = -2.41124 3.28971 1.58242
# Velocity P-wave (km/s) = 1.36872 4.93920 3.62416
#
# Compressibility (1/GPa) = 0.04062394
#
# Stress axis : x y z
#
# Youngs Moduli (GPa) = 105.69859 105.69777 70.68361
#
# Poissons Ratio (x) = -0.12260 -0.09250
# Poissons Ratio (y) = -0.12260 -0.09250
# Poissons Ratio (z) = -0.13833 -0.13833
#
# Static dielectric constant tensor:
#      x y z
#    x 5.218150 0.000000 0.000000 
#    y 0.000000 5.218020 0.000000 
#    z 0.000000 0.000000 2.125380 
# 
# From -- ./inp_files/4477.got.cif
#   From: 2010.05.17/outbox.cif.g08.bks.cpg/sg92_3_cif.got.tgz:4477.got - 2010.06.03 19:35:17.
