data_PCOD9549870
_publ_section_title
;
Structure prediction by ZEFSAII (Michael W. Deem and Ramdas Pophale) SiO2 
 PCOD9549870
Probable space group: P 42 2 2
;
_chemical_formula_sum "Si O2"
_cell_formula_units_Z 40
_cell_length_a 11.785562
_cell_length_b 11.785562
_cell_length_c 14.857496
_cell_angle_alpha 90.000000
_cell_angle_beta 90.000000
_cell_angle_gamma 90.000000
_cell_volume 2063.698345
_symmetry_space_group_name_H-M "P 42 2 2"
_symmetry_group_IT_number 93
_symmetry_cell_setting 'tetragonal'
loop_
_space_group_symop_operation_xyz
x,y,z
-y,x,1/2+z
-x,-y,z
y,-x,1/2+z
x,-y,-z
-x,y,-z
y,x,1/2-z
-y,-x,1/2-z
loop_
_atom_site_type_symbol
_atom_site_label
_atom_site_fract_x
_atom_site_fract_y
_atom_site_fract_z
Si Si1 0.244596 0.752251 0.352812
Si Si2 0.980328 0.129856 0.106901
Si Si3 0.514994 0.136605 0.398053
Si Si4 0.304776 0.877374 0.727695
Si Si5 0.967000 0.368004 0.401151
O O1 0.269130 0.730871 0.250000
O O2 0.154281 0.851616 0.368487
O O3 0.361752 0.810598 0.381750
O O4 0.169360 0.648065 0.390247
O O5 0.054726 0.223493 0.158206
O O6 0.000000 0.000000 0.133540
O O7 0.000000 0.141405 0.000000
O O8 0.500000 0.176491 0.500000
O O9 0.420877 0.161472 0.321795
O O10 0.500000 0.000000 0.399848
O O11 0.234272 0.765729 0.750000
O O12 0.322341 0.959808 0.814929
O O13 0.000000 0.500000 0.402650
O O14 0.000000 0.318589 0.500000
#
# Coordination Sequence:
#
# PCOD9549870 Si02
#       5
#     8   8   8   8   8
#     4  12  22  39  66  89 130 176 220 268 336 407
#     4  11  24  36  58  97 139 174 211 268 345 425
#     4  11  23  41  65  98 134 176 228 276 336 410
#     4  12  24  41  65 100 141 175 226 288 344 413
#     4  11  26  45  66  95 132 180 230 281 345 416
#
# _framework density 19.382676
#
# number of rings (size 3 to 8) (size 9 to 14) (size 15 to 20)
#    0.000    0.600    4.000    4.200    8.400    0.000 
#    0.000    0.000    0.000    5.400    0.000    0.000 
#    0.000    0.000    0.000    0.000    0.000    0.000 
#
# Total GULP energy -222855.535775 kJ/mol
# GULP energy per Si atom -5571.388394 kJ/mol
# Density = 1.933856 g / cm^3
# Si number density = 19.382676 Si / 1000 Ang^3
#
#
#
# Elastic Constant Matrix: (Units=GPa)
#
#
# Indices 1 2 3 4 5 6 
#
# 1 113.3091 44.7079 40.9164 0.0000 0.0000 0.0000
# 2 44.7079 113.3092 40.9170 0.0000 0.0000 0.0000
# 3 40.9164 40.9170 121.9658 0.0000 0.0000 0.0000
# 4 0.0000 0.0000 0.0000 12.4118 0.0000 0.0000
# 5 0.0000 0.0000 0.0000 0.0000 12.4128 0.0000
# 6 0.0000 0.0000 0.0000 0.0000 0.0000 27.0786
#
#
#
# Elastic Compliance Matrix: (Units=1/GPa)
#
#
# Indices 1 2 3 4 5 6 
#
# 1 0.011118 -0.003459 -0.002569 0.000000 0.000000 0.000000
# 2 -0.003459 0.011118 -0.002569 0.000000 0.000000 0.000000
# 3 -0.002569 -0.002569 0.009923 0.000000 0.000000 0.000000
# 4 0.000000 0.000000 0.000000 0.080569 0.000000 0.000000
# 5 0.000000 0.000000 0.000000 0.000000 0.080562 0.000000
# 6 0.000000 0.000000 0.000000 0.000000 0.000000 0.036930
#
#
# Mechanical properties :
#
#
# Convention : Reuss Voigt Hill
#
# Bulk Modulus (GPa) = 66.82978 66.85186 66.84082
# Shear Modulus (GPa) = 19.80961 25.18350 22.49655
#
# Velocity S-wave (km/s) = 3.20038 3.60846 3.41053
# Velocity P-wave (km/s) = 6.94338 7.20602 7.07592
#
# Compressibility (1/GPa) = 0.01496339
#
# Stress axis : x y z
#
# Youngs Moduli (GPa) = 89.94408 89.94379 100.77604
#
# Poissons Ratio (x) = 0.31111 0.25893
# Poissons Ratio (y) = 0.31111 0.25894
# Poissons Ratio (z) = 0.23110 0.23111
#
# Static dielectric constant tensor:
#      x y z
#    x 1.584840 0.000000 0.000000 
#    y 0.000000 1.584780 0.000000 
#    z 0.000000 0.000000 1.703420 
# 
# From -- ./inp_files/4374.got.cif
#   From: 2010.05.17/outbox.cif.g08.bks.cpg/sg93_3_cif.got.tgz:4374.got - 2010.06.03 19:38:44.
