data_PCOD9549103
_publ_section_title
;
Structure prediction by ZEFSAII (Michael W. Deem and Ramdas Pophale) SiO2 
 PCOD9549103
Probable space group: P 41 21 2
;
_chemical_formula_sum "Si O2"
_cell_formula_units_Z 48
_cell_length_a 22.032364
_cell_length_b 22.032364
_cell_length_c 5.505273
_cell_angle_alpha 90.000000
_cell_angle_beta 90.000000
_cell_angle_gamma 90.000000
_cell_volume 2672.397495
_symmetry_space_group_name_H-M "P 41 21 2"
_symmetry_group_IT_number 92
_symmetry_cell_setting 'tetragonal'
loop_
_space_group_symop_operation_xyz
x,y,z
1/2-y,1/2+x,1/4+z
-x,-y,1/2+z
1/2+y,1/2-x,3/4+z
1/2+x,1/2-y,3/4-z
1/2-x,1/2+y,1/4-z
y,x,-z
-y,-x,1/2-z
loop_
_atom_site_type_symbol
_atom_site_label
_atom_site_fract_x
_atom_site_fract_y
_atom_site_fract_z
Si Si1 0.132646 0.380973 0.194281
Si Si2 0.956341 0.576307 0.054899
Si Si3 0.805496 0.711185 0.069901
Si Si4 0.752675 0.055277 0.666523
Si Si5 0.294784 0.387346 0.597797
Si Si6 0.802405 0.429077 0.565476
O O1 0.094195 0.430321 0.343522
O O2 0.167740 0.330542 0.354409
O O3 0.185461 0.414887 0.045027
O O4 0.083073 0.342829 0.050335
O O5 0.025670 0.563044 0.995474
O O6 0.948784 0.646192 0.124106
O O7 0.750651 0.668666 0.163947
O O8 0.862615 0.721637 0.243962
O O9 0.773828 0.773828 0.000000
O O10 0.771333 0.077270 0.394269
O O11 0.744898 0.982890 0.662344
O O12 0.793454 0.075265 0.898810
O O13 0.356538 0.356538 0.500000
#
# Coordination Sequence:
#
# PCOD9549103 Si02
#       6
#     8   8   8   8   8   8
#     4  10  21  36  51  72 108 147 191 234 277 329
#     4  11  25  34  46  67 102 153 203 238 268 311
#     4   9  20  36  56  78 106 146 188 230 284 336
#     4  11  22  34  58  79 110 144 187 229 282 324
#     4  10  21  39  58  80 106 145 191 233 277 336
#     4  11  22  35  52  75 111 143 185 233 283 330
#
# _framework density 17.961402
#
# number of rings (size 3 to 8) (size 9 to 14) (size 15 to 20)
#    0.000    1.667    1.667    2.500   14.000    0.667 
#    0.000    0.000    0.000    0.000    0.000    0.000 
#    0.000    2.667    0.000    0.000    0.000    0.000 
#
# Total GULP energy -267411.617897 kJ/mol
# GULP energy per Si atom -5571.075373 kJ/mol
# Density = 1.792052 g / cm^3
# Si number density = 17.961402 Si / 1000 Ang^3
#
#
#
# Elastic Constant Matrix: (Units=GPa)
#
#
# Indices 1 2 3 4 5 6 
#
# 1 44.0942 9.3877 -2.4103 0.0000 0.0000 0.0000
# 2 9.3877 44.0942 -2.4103 0.0000 0.0000 0.0000
# 3 -2.4103 -2.4103 40.9483 0.0000 0.0000 0.0000
# 4 0.0000 0.0000 0.0000 13.1594 0.0000 0.0000
# 5 0.0000 0.0000 0.0000 0.0000 13.1594 0.0000
# 6 0.0000 0.0000 0.0000 0.0000 0.0000 7.8665
#
#
#
# Elastic Compliance Matrix: (Units=1/GPa)
#
#
# Indices 1 2 3 4 5 6 
#
# 1 0.023805 -0.005008 0.001106 0.000000 0.000000 0.000000
# 2 -0.005008 0.023805 0.001106 0.000000 0.000000 0.000000
# 3 0.001106 0.001106 0.024551 0.000000 0.000000 0.000000
# 4 0.000000 0.000000 0.000000 0.075991 0.000000 0.000000
# 5 0.000000 0.000000 0.000000 0.000000 0.075991 0.000000
# 6 0.000000 0.000000 0.000000 0.000000 0.000000 0.127121
#
#
# Mechanical properties :
#
#
# Convention : Reuss Voigt Hill
#
# Bulk Modulus (GPa) = 15.02124 15.36344 15.19234
# Shear Modulus (GPa) = 13.19100 15.14169 14.16635
#
# Velocity S-wave (km/s) = 2.71294 2.90662 2.81145
# Velocity P-wave (km/s) = 4.26551 4.45384 4.36069
#
# Compressibility (1/GPa) = 0.06657240
#
# Stress axis : x y z
#
# Youngs Moduli (GPa) = 42.00735 42.00735 40.73108
#
# Poissons Ratio (x) = 0.21036 -0.04507
# Poissons Ratio (y) = 0.21036 -0.04507
# Poissons Ratio (z) = -0.04648 -0.04648
#
# Static dielectric constant tensor:
#      x y z
#    x 1.612410 0.000000 0.000000 
#    y 0.000000 1.612410 0.000000 
#    z 0.000000 0.000000 1.751920 
# 
# From -- ./inp_files/630.got.cif
#   From: 2010.05.17/outbox.cif.g08.bks.cpg/sg92_1_cif.got.tgz:630.got - 2010.06.03 19:35:17.
