data_PCOD9549973
_publ_section_title
;
Structure prediction by ZEFSAII (Michael W. Deem and Ramdas Pophale) SiO2 
 PCOD9549973
Probable space group: P 42 21 2
;
_chemical_formula_sum "Si O2"
_cell_formula_units_Z 40
_cell_length_a 8.675164
_cell_length_b 8.675164
_cell_length_c 23.238287
_cell_angle_alpha 90.000000
_cell_angle_beta 90.000000
_cell_angle_gamma 90.000000
_cell_volume 1748.877935
_symmetry_space_group_name_H-M "P 42 21 2"
_symmetry_group_IT_number 94
_symmetry_cell_setting 'tetragonal'
loop_
_space_group_symop_operation_xyz
x,y,z
1/2-y,1/2+x,1/2+z
-x,-y,z
1/2+y,1/2-x,1/2+z
1/2+x,1/2-y,1/2-z
1/2-x,1/2+y,1/2-z
y,x,-z
-y,-x,-z
loop_
_atom_site_type_symbol
_atom_site_label
_atom_site_fract_x
_atom_site_fract_y
_atom_site_fract_z
Si Si1 0.227413 0.805063 0.936362
Si Si2 0.168172 0.934766 0.762221
Si Si3 0.937654 0.166627 0.561364
Si Si4 0.154339 0.602682 0.826956
Si Si5 0.072088 0.330039 0.134520
O O1 0.406809 0.764007 0.948040
O O2 0.170506 0.670936 0.892199
O O3 0.218061 0.964413 0.902352
O O4 0.166352 0.833649 0.000000
O O5 0.168677 0.760332 0.787721
O O6 0.218352 0.983308 0.697901
O O7 0.280517 0.039509 0.801052
O O8 0.000000 0.000000 0.771354
O O9 0.854976 0.145025 0.500000
O O10 0.838045 0.259673 0.607407
O O11 0.000000 0.000000 0.579888
O O12 0.000000 0.500000 0.821945
O O13 0.000000 0.500000 0.130378
#
# Coordination Sequence:
#
# PCOD9549973 Si02
#       5
#     8   8   8   8   8
#     4  10  21  42  63  95 133 177 239 283 351 429
#     4  11  24  45  66 102 140 174 242 296 359 440
#     4  10  19  36  59  95 127 168 230 282 341 421
#     4  11  25  44  72 102 139 194 234 298 367 430
#     4   9  21  40  65  88 134 185 220 292 358 415
#
# _framework density 22.871808000000001
#
# number of rings (size 3 to 8) (size 9 to 14) (size 15 to 20)
#    0.000    1.800    2.000    1.800    0.000    9.600 
#    7.200    0.000    0.000    0.000    0.000    0.000 
#    0.000    0.000    0.000    0.000    0.000    0.000 
#
# Total GULP energy -223062.606744 kJ/mol
# GULP energy per Si atom -5576.565169 kJ/mol
# Density = 2.281975 g / cm^3
# Si number density = 22.871808 Si / 1000 Ang^3
#
#
#
# Elastic Constant Matrix: (Units=GPa)
#
#
# Indices 1 2 3 4 5 6 
#
# 1 66.6773 49.6415 57.5440 0.0000 0.0000 0.0000
# 2 49.6415 66.6768 57.5439 0.0000 0.0000 0.0000
# 3 57.5440 57.5439 149.1724 0.0000 0.0000 0.0000
# 4 0.0000 0.0000 0.0000 40.0624 0.0000 0.0000
# 5 0.0000 0.0000 0.0000 0.0000 40.0627 0.0000
# 6 0.0000 0.0000 0.0000 0.0000 0.0000 28.0082
#
#
#
# Elastic Compliance Matrix: (Units=1/GPa)
#
#
# Indices 1 2 3 4 5 6 
#
# 1 0.036302 -0.022399 -0.005363 0.000000 0.000000 0.000000
# 2 -0.022399 0.036302 -0.005363 0.000000 0.000000 0.000000
# 3 -0.005363 -0.005363 0.010842 0.000000 0.000000 0.000000
# 4 0.000000 0.000000 0.000000 0.024961 0.000000 0.000000
# 5 0.000000 0.000000 0.000000 0.000000 0.024961 0.000000
# 6 0.000000 0.000000 0.000000 0.000000 0.000000 0.035704
#
#
# Mechanical properties :
#
#
# Convention : Reuss Voigt Hill
#
# Bulk Modulus (GPa) = 58.15520 67.99836 63.07678
# Shear Modulus (GPa) = 20.74219 29.47980 25.11099
#
# Velocity S-wave (km/s) = 3.01473 3.59404 3.31705
# Velocity P-wave (km/s) = 6.13187 6.85694 6.50452
#
# Compressibility (1/GPa) = 0.01719537
#
# Stress axis : x y z
#
# Youngs Moduli (GPa) = 27.54657 27.54635 92.23732
#
# Poissons Ratio (x) = 0.61700 0.49471
# Poissons Ratio (y) = 0.61700 0.49471
# Poissons Ratio (z) = 0.14774 0.14774
#
# Static dielectric constant tensor:
#      x y z
#    x 1.803490 0.000000 0.000000 
#    y 0.000000 1.803480 0.000000 
#    z 0.000000 0.000000 1.952570 
# 
# From -- ./inp_files/4962.got.cif
#   From: 2010.05.17/outbox.cif.g08.bks.cpg/sg94_3_cif.got.tgz:4962.got - 2010.06.03 19:43:16.
