data_PCOD9549985
_publ_section_title
;
Structure prediction by ZEFSAII (Michael W. Deem and Ramdas Pophale) SiO2 
 PCOD9549985
Probable space group: P 42 21 2
;
_chemical_formula_sum "Si O2"
_cell_formula_units_Z 48
_cell_length_a 11.909189
_cell_length_b 11.909189
_cell_length_c 19.691987
_cell_angle_alpha 90.000000
_cell_angle_beta 90.000000
_cell_angle_gamma 90.000000
_cell_volume 2792.890544
_symmetry_space_group_name_H-M "P 42 21 2"
_symmetry_group_IT_number 94
_symmetry_cell_setting 'tetragonal'
loop_
_space_group_symop_operation_xyz
x,y,z
1/2-y,1/2+x,1/2+z
-x,-y,z
1/2+y,1/2-x,1/2+z
1/2+x,1/2-y,1/2-z
1/2-x,1/2+y,1/2-z
y,x,-z
-y,-x,-z
loop_
_atom_site_type_symbol
_atom_site_label
_atom_site_fract_x
_atom_site_fract_y
_atom_site_fract_z
Si Si1 0.140587 0.368100 0.176857
Si Si2 0.740608 0.797928 0.072743
Si Si3 0.683318 0.777023 0.673986
Si Si4 0.608784 0.878311 0.299366
Si Si5 0.874793 0.524650 0.855724
Si Si6 0.124392 0.966184 0.072830
O O1 0.202392 0.287483 0.125174
O O2 0.202875 0.362494 0.249715
O O3 0.129559 0.501554 0.165863
O O4 0.010836 0.327877 0.177834
O O5 0.615221 0.818487 0.097262
O O6 0.806473 0.917146 0.066365
O O7 0.742816 0.742816 0.000000
O O8 0.799453 0.712341 0.684162
O O9 0.608718 0.698464 0.624490
O O10 0.687717 0.905334 0.647772
O O11 0.584272 0.890376 0.218408
O O12 0.000000 0.500000 0.880538
O O13 0.096322 0.903679 0.000000
O O14 0.000000 0.000000 0.099414
#
# Coordination Sequence:
#
# PCOD9549985 Si02
#       6
#     8   8   8   8   8   8
#     4  10  21  38  62  89 120 162 204 255 317 368
#     4  12  23  41  61  86 127 164 209 258 317 385
#     4  11  21  38  65  88 125 163 207 259 309 378
#     4  10  19  38  62  92 122 153 208 263 304 372
#     4  11  20  40  62  90 125 168 202 254 319 377
#     4  11  22  39  60  95 129 159 204 270 323 368
#
# _framework density 17.186495000000001
#
# number of rings (size 3 to 8) (size 9 to 14) (size 15 to 20)
#    0.000    1.167    8.333    1.000    0.000    0.000 
#    6.000    0.833    0.000    1.000    0.000    0.000 
#    0.000    0.000    0.000    0.000    0.000    0.000 
#
# Total GULP energy -267417.959177 kJ/mol
# GULP energy per Si atom -5571.207483 kJ/mol
# Density = 1.714738 g / cm^3
# Si number density = 17.186495 Si / 1000 Ang^3
#
#
#
# Elastic Constant Matrix: (Units=GPa)
#
#
# Indices 1 2 3 4 5 6 
#
# 1 110.3236 60.8394 58.3674 0.0000 0.0000 0.0000
# 2 60.8394 110.3240 58.3674 0.0000 0.0000 0.0000
# 3 58.3674 58.3674 100.2935 0.0000 0.0000 0.0000
# 4 0.0000 0.0000 0.0000 15.0175 0.0000 0.0000
# 5 0.0000 0.0000 0.0000 0.0000 15.0172 0.0000
# 6 0.0000 0.0000 0.0000 0.0000 0.0000 33.0242
#
#
#
# Elastic Compliance Matrix: (Units=1/GPa)
#
#
# Indices 1 2 3 4 5 6 
#
# 1 0.014948 -0.005261 -0.005638 0.000000 0.000000 0.000000
# 2 -0.005261 0.014948 -0.005638 0.000000 0.000000 0.000000
# 3 -0.005638 -0.005638 0.016533 0.000000 0.000000 0.000000
# 4 0.000000 0.000000 0.000000 0.066589 0.000000 0.000000
# 5 0.000000 0.000000 0.000000 0.000000 0.066590 0.000000
# 6 0.000000 0.000000 0.000000 0.000000 0.000000 0.030281
#
#
# Mechanical properties :
#
#
# Convention : Reuss Voigt Hill
#
# Bulk Modulus (GPa) = 74.86984 75.12104 74.99544
# Shear Modulus (GPa) = 20.20917 22.16958 21.18938
#
# Velocity S-wave (km/s) = 3.43282 3.59547 3.51509
# Velocity P-wave (km/s) = 7.70520 7.81286 7.75922
#
# Compressibility (1/GPa) = 0.01335651
#
# Stress axis : x y z
#
# Youngs Moduli (GPa) = 66.89900 66.89933 60.48648
#
# Poissons Ratio (x) = 0.35193 0.34101
# Poissons Ratio (y) = 0.35192 0.34100
# Poissons Ratio (z) = 0.37716 0.37716
#
# Static dielectric constant tensor:
#      x y z
#    x 1.582350 0.000000 0.000000 
#    y 0.000000 1.582350 0.000000 
#    z 0.000000 0.000000 1.623520 
# 
# From -- ./inp_files/4089.got.cif
#   From: 2010.05.17/outbox.cif.g08.bks.cpg/sg94_3_cif.got.tgz:4089.got - 2010.06.03 19:43:16.
