data_PCOD9549394
_publ_section_title
;
Structure prediction by ZEFSAII (Michael W. Deem and Ramdas Pophale) SiO2 
 PCOD9549394
Probable space group: P 41 21 2
;
_chemical_formula_sum "Si O2"
_cell_formula_units_Z 20
_cell_length_a 6.905232
_cell_length_b 6.905232
_cell_length_c 14.620551
_cell_angle_alpha 90.000000
_cell_angle_beta 90.000000
_cell_angle_gamma 90.000000
_cell_volume 697.140461
_symmetry_space_group_name_H-M "P 41 21 2"
_symmetry_group_IT_number 92
_symmetry_cell_setting 'tetragonal'
loop_
_space_group_symop_operation_xyz
x,y,z
1/2-y,1/2+x,1/4+z
-x,-y,1/2+z
1/2+y,1/2-x,3/4+z
1/2+x,1/2-y,3/4-z
1/2-x,1/2+y,1/4-z
y,x,-z
-y,-x,1/2-z
loop_
_atom_site_type_symbol
_atom_site_label
_atom_site_fract_x
_atom_site_fract_y
_atom_site_fract_z
Si Si1 0.259827 0.004828 0.819195
Si Si2 0.083273 0.083273 0.000000
Si Si3 0.822788 0.662050 0.200404
O O1 0.146580 0.127589 0.742813
O O2 0.194766 0.787827 0.853107
O O3 0.490447 0.977360 0.802375
O O4 0.214769 0.119692 0.912990
O O5 0.854218 0.100748 0.982202
#
# Coordination Sequence:
#
# PCOD9549394 Si02
#       3
#     8   4   8
#     4  10  24  47  79 117 172 219 300 347 449 510
#     4   8  24  48  70 114 168 218 278 368 428 524
#     4  10  24  46  80 116 171 230 280 369 429 540
#
# _framework density 28.688625999999999
#
# number of rings (size 3 to 8) (size 9 to 14) (size 15 to 20)
#    2.400    0.000    0.000    0.000    5.600    4.800 
#    0.000    0.000    0.000    0.000    0.000    0.000 
#    0.000    0.000    0.000    0.000    0.000    0.000 
#
# Total GULP energy -111575.013808 kJ/mol
# GULP energy per Si atom -5578.750690 kJ/mol
# Density = 2.862333 g / cm^3
# Si number density = 28.688626 Si / 1000 Ang^3
#
#
#
# Elastic Constant Matrix: (Units=GPa)
#
#
# Indices 1 2 3 4 5 6 
#
# 1 152.1945 102.3595 71.4702 0.0000 0.0000 0.0000
# 2 102.3595 152.1945 71.4702 0.0000 0.0000 0.0000
# 3 71.4702 71.4702 111.4662 0.0000 0.0000 0.0000
# 4 0.0000 0.0000 0.0000 53.5164 0.0000 0.0000
# 5 0.0000 0.0000 0.0000 0.0000 53.5164 0.0000
# 6 0.0000 0.0000 0.0000 0.0000 0.0000 77.6657
#
#
#
# Elastic Compliance Matrix: (Units=1/GPa)
#
#
# Indices 1 2 3 4 5 6 
#
# 1 0.013102 -0.006964 -0.003936 0.000000 0.000000 0.000000
# 2 -0.006964 0.013102 -0.003936 0.000000 0.000000 0.000000
# 3 -0.003936 -0.003936 0.014019 0.000000 0.000000 0.000000
# 4 0.000000 0.000000 0.000000 0.018686 0.000000 0.000000
# 5 0.000000 0.000000 0.000000 0.000000 0.018686 0.000000
# 6 0.000000 0.000000 0.000000 0.000000 0.000000 0.012876
#
#
# Mechanical properties :
#
#
# Convention : Reuss Voigt Hill
#
# Bulk Modulus (GPa) = 94.76855 100.71720 97.74288
# Shear Modulus (GPa) = 40.43351 48.31006 44.37178
#
# Velocity S-wave (km/s) = 3.75826 4.10804 3.93704
# Velocity P-wave (km/s) = 7.20679 7.59504 7.40346
#
# Compressibility (1/GPa) = 0.01055202
#
# Stress axis : x y z
#
# Youngs Moduli (GPa) = 76.32173 76.32173 71.33336
#
# Poissons Ratio (x) = 0.53149 0.28077
# Poissons Ratio (y) = 0.53149 0.28077
# Poissons Ratio (z) = 0.30040 0.30040
#
# Static dielectric constant tensor:
#      x y z
#    x 2.270170 0.000000 0.000000 
#    y 0.000000 2.270170 0.000000 
#    z 0.000000 0.000000 2.275940 
# 
# From -- ./inp_files/2859.got.cif
#   From: 2010.05.17/outbox.cif.g08.bks.cpg/sg92_2_cif.got.tgz:2859.got - 2010.06.03 19:35:17.
