data_PCOD9549464
_publ_section_title
;
Structure prediction by ZEFSAII (Michael W. Deem and Ramdas Pophale) SiO2 
 PCOD9549464
Probable space group: P 41 21 2
;
_chemical_formula_sum "Si O2"
_cell_formula_units_Z 48
_cell_length_a 11.892561
_cell_length_b 11.892561
_cell_length_c 16.059027
_cell_angle_alpha 90.000000
_cell_angle_beta 90.000000
_cell_angle_gamma 90.000000
_cell_volume 2271.276480
_symmetry_space_group_name_H-M "P 41 21 2"
_symmetry_group_IT_number 92
_symmetry_cell_setting 'tetragonal'
loop_
_space_group_symop_operation_xyz
x,y,z
1/2-y,1/2+x,1/4+z
-x,-y,1/2+z
1/2+y,1/2-x,3/4+z
1/2+x,1/2-y,3/4-z
1/2-x,1/2+y,1/4-z
y,x,-z
-y,-x,1/2-z
loop_
_atom_site_type_symbol
_atom_site_label
_atom_site_fract_x
_atom_site_fract_y
_atom_site_fract_z
Si Si1 0.546535 0.363210 0.509446
Si Si2 0.052849 0.340036 0.347172
Si Si3 0.279244 0.279244 0.000000
Si Si4 0.982986 0.156079 0.649018
Si Si5 0.469081 0.761633 0.184673
Si Si6 0.878068 0.693300 0.028267
Si Si7 0.518846 0.481155 0.750000
O O1 0.423940 0.423940 0.500000
O O2 0.590959 0.278584 0.439141
O O3 0.631489 0.464982 0.490710
O O4 0.550536 0.292402 0.593386
O O5 0.138314 0.440028 0.321819
O O6 0.049805 0.328031 0.445659
O O7 0.929135 0.344951 0.309214
O O8 0.356258 0.309656 0.079591
O O9 0.149221 0.297711 0.025476
O O10 0.047671 0.252620 0.600143
O O11 0.004349 0.050638 0.585205
O O12 0.506156 0.650398 0.235042
O O13 0.775032 0.775032 0.000000
#
# Coordination Sequence:
#
# PCOD9549464 Si02
#       7
#     8   8   4   8   8   8   4
#     4  12  23  46  75 102 138 189 243 296 359 433
#     4  12  27  45  71 106 144 184 235 302 361 427
#     4  11  28  48  70 107 152 190 242 297 362 446
#     4  12  24  46  76 106 139 194 242 297 357 430
#     4  11  27  46  71 105 144 197 234 299 372 430
#     4  12  27  46  71 110 141 183 241 293 365 420
#     4  11  22  46  74 105 140 190 254 287 354 446
#
# _framework density 21.133492
#
# number of rings (size 3 to 8) (size 9 to 14) (size 15 to 20)
#    0.000    0.333    6.667    0.500    4.667    1.333 
#    3.000    0.000    0.000    0.000    0.000    0.000 
#    0.000    0.000    0.000    0.000    0.000    0.000 
#
# Total GULP energy -267747.950596 kJ/mol
# GULP energy per Si atom -5578.082304 kJ/mol
# Density = 2.108539 g / cm^3
# Si number density = 21.133492 Si / 1000 Ang^3
#
#
#
# Elastic Constant Matrix: (Units=GPa)
#
#
# Indices 1 2 3 4 5 6 
#
# 1 68.6948 31.0941 21.0526 0.0000 0.0000 0.0000
# 2 31.0941 68.6943 21.0525 0.0000 0.0000 0.0000
# 3 21.0526 21.0525 84.9672 0.0000 0.0000 0.0000
# 4 0.0000 0.0000 0.0000 37.7051 0.0000 0.0000
# 5 0.0000 0.0000 0.0000 0.0000 37.7052 0.0000
# 6 0.0000 0.0000 0.0000 0.0000 0.0000 175.5090
#
#
#
# Elastic Compliance Matrix: (Units=1/GPa)
#
#
# Indices 1 2 3 4 5 6 
#
# 1 0.018893 -0.007702 -0.002773 0.000000 0.000000 0.000000
# 2 -0.007702 0.018893 -0.002773 0.000000 0.000000 0.000000
# 3 -0.002773 -0.002773 0.013143 0.000000 0.000000 0.000000
# 4 0.000000 0.000000 0.000000 0.026522 0.000000 0.000000
# 5 0.000000 0.000000 0.000000 0.000000 0.026522 0.000000
# 6 0.000000 0.000000 0.000000 0.000000 0.000000 0.005698
#
#
# Mechanical properties :
#
#
# Convention : Reuss Voigt Hill
#
# Bulk Modulus (GPa) = 40.92622 40.97273 40.94948
# Shear Modulus (GPa) = 34.64733 60.12767 47.38750
#
# Velocity S-wave (km/s) = 4.05341 5.33977 4.74042
# Velocity P-wave (km/s) = 6.42763 7.57939 7.02715
#
# Compressibility (1/GPa) = 0.02443421
#
# Stress axis : x y z
#
# Youngs Moduli (GPa) = 52.92900 52.92857 76.08429
#
# Poissons Ratio (x) = 0.40766 0.21097
# Poissons Ratio (y) = 0.40767 0.21097
# Poissons Ratio (z) = 0.14676 0.14676
#
# Static dielectric constant tensor:
#      x y z
#    x 1.793750 0.000000 0.000000 
#    y 0.000000 1.793750 0.000000 
#    z 0.000000 0.000000 1.704740 
# 
# From -- ./inp_files/3199.got.cif
#   From: 2010.05.17/outbox.cif.g08.bks.cpg/sg92_2_cif.got.tgz:3199.got - 2010.06.03 19:35:17.
