data_PCOD9549390
_publ_section_title
;
Structure prediction by ZEFSAII (Michael W. Deem and Ramdas Pophale) SiO2 
 PCOD9549390
Probable space group: P 41 21 2
;
_chemical_formula_sum "Si O2"
_cell_formula_units_Z 40
_cell_length_a 14.114925
_cell_length_b 14.114925
_cell_length_c 8.013055
_cell_angle_alpha 90.000000
_cell_angle_beta 90.000000
_cell_angle_gamma 90.000000
_cell_volume 1596.449824
_symmetry_space_group_name_H-M "P 41 21 2"
_symmetry_group_IT_number 92
_symmetry_cell_setting 'tetragonal'
loop_
_space_group_symop_operation_xyz
x,y,z
1/2-y,1/2+x,1/4+z
-x,-y,1/2+z
1/2+y,1/2-x,3/4+z
1/2+x,1/2-y,3/4-z
1/2-x,1/2+y,1/4-z
y,x,-z
-y,-x,1/2-z
loop_
_atom_site_type_symbol
_atom_site_label
_atom_site_fract_x
_atom_site_fract_y
_atom_site_fract_z
Si Si1 0.405238 0.076015 0.441215
Si Si2 0.865208 0.721039 0.590208
Si Si3 0.233166 0.480683 0.065704
Si Si4 0.225047 0.972262 0.705214
Si Si5 0.913647 0.068619 0.514630
O O1 0.501456 0.075775 0.334285
O O2 0.317678 0.034944 0.335757
O O3 0.402065 0.186670 0.483845
O O4 0.803566 0.803566 0.500000
O O5 0.953831 0.700919 0.469715
O O6 0.804949 0.625528 0.590884
O O7 0.916666 0.747378 0.765256
O O8 0.346991 0.467821 0.083532
O O9 0.151263 0.958070 0.854899
O O10 0.176093 0.941979 0.531218
O O11 0.007419 0.007419 0.500000
#
# Coordination Sequence:
#
# PCOD9549390 Si02
#       5
#     8   8   8   8   8
#     4  12  26  45  72 113 150 197 248 317 401 451
#     4  11  25  46  75 110 150 202 260 318 396 461
#     4  11  23  43  73 110 148 196 246 321 381 471
#     4  10  24  46  72 106 146 196 249 320 379 466
#     4  10  24  52  73 104 153 204 255 319 395 456
#
# _framework density 25.055596999999999
#
# number of rings (size 3 to 8) (size 9 to 14) (size 15 to 20)
#    0.000    1.200    2.000    3.600   11.200    0.000 
#   18.000    0.000    0.000    0.000    0.000    0.000 
#    0.000    0.000    0.000    0.000    0.000    0.000 
#
# Total GULP energy -223616.354034 kJ/mol
# GULP energy per Si atom -5590.408851 kJ/mol
# Density = 2.499857 g / cm^3
# Si number density = 25.055597 Si / 1000 Ang^3
#
#
#
# Elastic Constant Matrix: (Units=GPa)
#
#
# Indices 1 2 3 4 5 6 
#
# 1 131.8770 28.0181 12.8370 0.0000 0.0000 0.0000
# 2 28.0181 131.8770 12.8370 0.0000 0.0000 0.0000
# 3 12.8370 12.8370 42.0102 0.0000 0.0000 0.0000
# 4 0.0000 0.0000 0.0000 -30.4268 0.0000 0.0000
# 5 0.0000 0.0000 0.0000 0.0000 -30.4268 0.0000
# 6 0.0000 0.0000 0.0000 0.0000 0.0000 46.9697
#
#
#
# Elastic Compliance Matrix: (Units=1/GPa)
#
#
# Indices 1 2 3 4 5 6 
#
# 1 0.008103 -0.001526 -0.002010 0.000000 0.000000 0.000000
# 2 -0.001526 0.008103 -0.002010 0.000000 0.000000 0.000000
# 3 -0.002010 -0.002010 0.025032 0.000000 0.000000 0.000000
# 4 0.000000 0.000000 0.000000 -0.032866 0.000000 0.000000
# 5 0.000000 0.000000 0.000000 0.000000 -0.032866 0.000000
# 6 0.000000 0.000000 0.000000 0.000000 0.000000 0.021290
#
#
# Mechanical properties :
#
#
# Convention : Reuss Voigt Hill
#
# Bulk Modulus (GPa) = 33.17099 45.90539 39.53819
# Shear Modulus (GPa) = 278.78203 14.02803 146.40503
#
# Velocity S-wave (km/s) = 10.55968 2.36874 7.65238
# Velocity P-wave (km/s) = 12.72571 5.08354 9.68984
#
# Compressibility (1/GPa) = 0.03014682
#
# Stress axis : x y z
#
# Youngs Moduli (GPa) = 123.41688 123.41688 39.94902
#
# Poissons Ratio (x) = 0.18831 0.08028
# Poissons Ratio (y) = 0.18831 0.08028
# Poissons Ratio (z) = 0.24803 0.24803
#
# Static dielectric constant tensor:
#      x y z
#    x 2.213040 0.000000 0.000000 
#    y 0.000000 2.213040 0.000000 
#    z 0.000000 0.000000 5.611480 
# 
# From -- ./inp_files/1339.got.cif
#   From: 2010.05.17/outbox.cif.g08.bks.cpg/sg92_1_cif.got.tgz:1339.got - 2010.06.03 19:35:17.
