data_PCOD9549483
_publ_section_title
;
Structure prediction by ZEFSAII (Michael W. Deem and Ramdas Pophale) SiO2 
 PCOD9549483
Probable space group: P 41 21 2
;
_chemical_formula_sum "Si O2"
_cell_formula_units_Z 32
_cell_length_a 15.672646
_cell_length_b 15.672646
_cell_length_c 5.078718
_cell_angle_alpha 90.000000
_cell_angle_beta 90.000000
_cell_angle_gamma 90.000000
_cell_volume 1247.494810
_symmetry_space_group_name_H-M "P 41 21 2"
_symmetry_group_IT_number 92
_symmetry_cell_setting 'tetragonal'
loop_
_space_group_symop_operation_xyz
x,y,z
1/2-y,1/2+x,1/4+z
-x,-y,1/2+z
1/2+y,1/2-x,3/4+z
1/2+x,1/2-y,3/4-z
1/2-x,1/2+y,1/4-z
y,x,-z
-y,-x,1/2-z
loop_
_atom_site_type_symbol
_atom_site_label
_atom_site_fract_x
_atom_site_fract_y
_atom_site_fract_z
Si Si1 0.129241 0.982854 0.937283
Si Si2 0.874623 0.362806 0.279476
Si Si3 0.208744 0.135785 0.736058
Si Si4 0.296260 0.961544 0.225256
O O1 0.088261 0.911740 0.750000
O O2 0.192822 0.958331 0.176377
O O3 0.203232 0.036475 0.790923
O O4 0.051347 0.051347 0.000000
O O5 0.794722 0.326989 0.120841
O O6 0.838861 0.453566 0.391122
O O7 0.944270 0.351889 0.044672
O O8 0.893938 0.313893 0.545740
O O9 0.143608 0.143608 0.500000
O O10 0.181146 0.181146 0.000000
#
# Coordination Sequence:
#
# PCOD9549483 Si02
#       4
#     8   8   8   8
#     4  11  25  48  81 117 155 200 257 323 397 470
#     4  12  26  50  77 114 157 207 268 323 393 469
#     4  11  23  45  75 107 154 209 255 313 388 465
#     4  12  27  49  80 114 159 210 263 329 394 468
#
# _framework density 25.651406999999999
#
# number of rings (size 3 to 8) (size 9 to 14) (size 15 to 20)
#    0.000    0.500    0.000    9.750    0.000    5.000 
#    0.000   16.250    0.000    0.000    0.000    0.000 
#    0.000    0.000    0.000    0.000    0.000    0.000 
#
# Total GULP energy -178396.889371 kJ/mol
# GULP energy per Si atom -5574.902793 kJ/mol
# Density = 2.559302 g / cm^3
# Si number density = 25.651407 Si / 1000 Ang^3
#
#
#
# Elastic Constant Matrix: (Units=GPa)
#
#
# Indices 1 2 3 4 5 6 
#
# 1 104.1277 69.7964 84.4713 0.0000 0.0000 0.0000
# 2 69.7964 104.1291 84.4715 0.0000 0.0000 0.0000
# 3 84.4713 84.4715 212.6630 0.0000 0.0000 0.0000
# 4 0.0000 0.0000 0.0000 56.0536 0.0000 0.0000
# 5 0.0000 0.0000 0.0000 0.0000 56.0549 0.0000
# 6 0.0000 0.0000 0.0000 0.0000 0.0000 17.5882
#
#
#
# Elastic Compliance Matrix: (Units=1/GPa)
#
#
# Indices 1 2 3 4 5 6 
#
# 1 0.019245 -0.009883 -0.003719 0.000000 0.000000 0.000000
# 2 -0.009883 0.019244 -0.003718 0.000000 0.000000 0.000000
# 3 -0.003719 -0.003718 0.007656 0.000000 0.000000 0.000000
# 4 0.000000 0.000000 0.000000 0.017840 0.000000 0.000000
# 5 0.000000 0.000000 0.000000 0.000000 0.017840 0.000000
# 6 0.000000 0.000000 0.000000 0.000000 0.000000 0.056856
#
#
# Mechanical properties :
#
#
# Convention : Reuss Voigt Hill
#
# Bulk Modulus (GPa) = 86.91492 99.82202 93.36847
# Shear Modulus (GPa) = 28.22365 38.08469 33.15417
#
# Velocity S-wave (km/s) = 3.32064 3.85736 3.59902
# Velocity P-wave (km/s) = 6.97559 7.67061 7.33134
#
# Compressibility (1/GPa) = 0.01150550
#
# Stress axis : x y z
#
# Youngs Moduli (GPa) = 51.96246 51.96333 130.61120
#
# Poissons Ratio (x) = 0.51355 0.48568
# Poissons Ratio (y) = 0.51354 0.48567
# Poissons Ratio (z) = 0.19322 0.19322
#
# Static dielectric constant tensor:
#      x y z
#    x 2.142710 0.000000 0.000000 
#    y 0.000000 2.142710 0.000000 
#    z 0.000000 0.000000 2.164330 
# 
# From -- ./inp_files/336.got.cif
#   From: 2010.05.17/outbox.cif.g08.bks.cpg/sg92_1_cif.got.tgz:336.got - 2010.06.03 19:35:17.
