data_PCOD9549391
_publ_section_title
;
Structure prediction by ZEFSAII (Michael W. Deem and Ramdas Pophale) SiO2 
 PCOD9549391
Probable space group: P 41 21 2
;
_chemical_formula_sum "Si O2"
_cell_formula_units_Z 40
_cell_length_a 11.100005
_cell_length_b 11.100005
_cell_length_c 12.586017
_cell_angle_alpha 90.000000
_cell_angle_beta 90.000000
_cell_angle_gamma 90.000000
_cell_volume 1550.724552
_symmetry_space_group_name_H-M "P 41 21 2"
_symmetry_group_IT_number 92
_symmetry_cell_setting 'tetragonal'
loop_
_space_group_symop_operation_xyz
x,y,z
1/2-y,1/2+x,1/4+z
-x,-y,1/2+z
1/2+y,1/2-x,3/4+z
1/2+x,1/2-y,3/4-z
1/2-x,1/2+y,1/4-z
y,x,-z
-y,-x,1/2-z
loop_
_atom_site_type_symbol
_atom_site_label
_atom_site_fract_x
_atom_site_fract_y
_atom_site_fract_z
Si Si1 0.681715 0.744185 0.194046
Si Si2 0.298344 0.073340 0.276315
Si Si3 0.821555 0.347831 0.714582
Si Si4 0.042631 0.201609 0.171047
Si Si5 0.458108 0.425227 0.152831
O O1 0.802746 0.669499 0.167742
O O2 0.594646 0.745946 0.093028
O O3 0.617838 0.666727 0.289711
O O4 0.733865 0.872476 0.240049
O O5 0.285057 0.115156 0.153610
O O6 0.385228 0.959924 0.274984
O O7 0.184229 0.015519 0.337010
O O8 0.790340 0.209660 0.750000
O O9 0.748944 0.408705 0.808159
O O10 0.044657 0.055320 0.157084
O O11 0.547588 0.452413 0.250000
#
# Coordination Sequence:
#
# PCOD9549391 Si02
#       5
#     8   8   8   8   8
#     4  11  24  43  76 107 146 193 255 319 387 452
#     4  12  25  43  77 111 148 202 256 321 388 469
#     4  12  24  40  73 114 142 193 268 317 381 461
#     4  11  24  46  71 114 150 188 260 323 376 470
#     4  10  24  46  74 110 146 193 259 324 382 468
#
# _framework density 25.794394
#
# number of rings (size 3 to 8) (size 9 to 14) (size 15 to 20)
#    0.000    0.800    4.000    3.000    5.600    0.000 
#    0.000    8.000    8.800    0.000    0.000    0.000 
#    0.000    0.000    0.000    0.000    0.000    0.000 
#
# Total GULP energy -223007.766013 kJ/mol
# GULP energy per Si atom -5575.194150 kJ/mol
# Density = 2.573568 g / cm^3
# Si number density = 25.794394 Si / 1000 Ang^3
#
#
#
# Elastic Constant Matrix: (Units=GPa)
#
#
# Indices 1 2 3 4 5 6 
#
# 1 130.0460 2.8572 20.0103 0.0000 0.0000 0.0000
# 2 2.8572 130.0471 20.0102 0.0000 0.0000 0.0000
# 3 20.0103 20.0102 86.8982 0.0000 0.0000 0.0000
# 4 0.0000 0.0000 0.0000 32.6309 0.0000 0.0000
# 5 0.0000 0.0000 0.0000 0.0000 32.6305 0.0000
# 6 0.0000 0.0000 0.0000 0.0000 0.0000 33.1870
#
#
#
# Elastic Compliance Matrix: (Units=1/GPa)
#
#
# Indices 1 2 3 4 5 6 
#
# 1 0.007974 0.000111 -0.001862 0.000000 0.000000 0.000000
# 2 0.000111 0.007974 -0.001862 0.000000 0.000000 0.000000
# 3 -0.001862 -0.001862 0.012365 0.000000 0.000000 0.000000
# 4 0.000000 0.000000 0.000000 0.030646 0.000000 0.000000
# 5 0.000000 0.000000 0.000000 0.000000 0.030646 0.000000
# 6 0.000000 0.000000 0.000000 0.000000 0.000000 0.030132
#
#
# Mechanical properties :
#
#
# Convention : Reuss Voigt Hill
#
# Bulk Modulus (GPa) = 47.42045 48.08298 47.75172
# Shear Modulus (GPa) = 37.31616 39.96390 38.64003
#
# Velocity S-wave (km/s) = 3.80765 3.94042 3.87460
# Velocity P-wave (km/s) = 6.14450 6.27566 6.21042
#
# Compressibility (1/GPa) = 0.02108795
#
# Stress axis : x y z
#
# Youngs Moduli (GPa) = 125.41373 125.41486 80.87262
#
# Poissons Ratio (x) = -0.01396 0.15056
# Poissons Ratio (y) = -0.01396 0.15056
# Poissons Ratio (z) = 0.23349 0.23349
#
# Static dielectric constant tensor:
#      x y z
#    x 2.246670 0.000000 0.000000 
#    y 0.000000 2.246660 0.000000 
#    z 0.000000 0.000000 1.989590 
# 
# From -- ./inp_files/2653.got.cif
#   From: 2010.05.17/outbox.cif.g08.bks.cpg/sg92_2_cif.got.tgz:2653.got - 2010.06.03 19:35:17.
