data_PCOD9549310
_publ_section_title
;
Structure prediction by ZEFSAII (Michael W. Deem and Ramdas Pophale) SiO2 
 PCOD9549310
Probable space group: P 41 21 2
;
_chemical_formula_sum "Si O2"
_cell_formula_units_Z 40
_cell_length_a 13.818332
_cell_length_b 13.818332
_cell_length_c 9.608803
_cell_angle_alpha 90.000000
_cell_angle_beta 90.000000
_cell_angle_gamma 90.000000
_cell_volume 1834.765373
_symmetry_space_group_name_H-M "P 41 21 2"
_symmetry_group_IT_number 92
_symmetry_cell_setting 'tetragonal'
loop_
_space_group_symop_operation_xyz
x,y,z
1/2-y,1/2+x,1/4+z
-x,-y,1/2+z
1/2+y,1/2-x,3/4+z
1/2+x,1/2-y,3/4-z
1/2-x,1/2+y,1/4-z
y,x,-z
-y,-x,1/2-z
loop_
_atom_site_type_symbol
_atom_site_label
_atom_site_fract_x
_atom_site_fract_y
_atom_site_fract_z
Si Si1 0.791436 0.791436 0.500000
Si Si2 0.006151 0.099855 0.623861
Si Si3 0.795539 0.930430 0.253432
Si Si4 0.633141 0.767151 0.734411
Si Si5 0.341330 0.341330 0.500000
Si Si6 0.899303 0.489135 0.113477
O O1 0.786182 0.886307 0.405696
O O2 0.702484 0.787968 0.606647
O O3 0.022546 0.022546 0.500000
O O4 0.114304 0.120956 0.677852
O O5 0.949955 0.192389 0.566117
O O6 0.946525 0.053476 0.750000
O O7 0.821822 0.044180 0.262853
O O8 0.695450 0.925023 0.169181
O O9 0.688572 0.713670 0.860273
O O10 0.581893 0.860173 0.800717
O O11 0.975664 0.438376 0.214401
#
# Coordination Sequence:
#
# PCOD9549310 Si02
#       6
#     4   8   8   8   4   8
#     4  12  30  41  74 111 150 190 240 308 350 468
#     4  12  22  44  74 107 146 187 237 301 373 427
#     4  11  26  44  75 110 138 191 245 306 372 433
#     4  11  26  47  71 108 145 192 238 303 364 443
#     4  10  22  47  76  97 146 184 242 304 368 426
#     4  11  28  52  74  99 142 198 247 306 373 453
#
# _framework density 21.801152999999999
#
# number of rings (size 3 to 8) (size 9 to 14) (size 15 to 20)
#    0.000    0.800    6.000    0.000   15.400    0.000 
#    0.000    0.000    0.000    0.000    0.000    0.000 
#    0.000    0.000    0.000    0.000    0.000    0.000 
#
# Total GULP energy -223908.780459 kJ/mol
# GULP energy per Si atom -5597.719511 kJ/mol
# Density = 2.175153 g / cm^3
# Si number density = 21.801153 Si / 1000 Ang^3
#
#
#
# Elastic Constant Matrix: (Units=GPa)
#
#
# Indices 1 2 3 4 5 6 
#
# 1 69.1659 35.9769 44.5859 0.0000 0.0000 0.0000
# 2 35.9769 69.1655 44.5857 0.0000 0.0000 0.0000
# 3 44.5859 44.5857 159.4023 0.0000 0.0000 0.0000
# 4 0.0000 0.0000 0.0000 51.5584 0.0000 0.0000
# 5 0.0000 0.0000 0.0000 0.0000 51.5586 0.0000
# 6 0.0000 0.0000 0.0000 0.0000 0.0000 21.7331
#
#
#
# Elastic Compliance Matrix: (Units=1/GPa)
#
#
# Indices 1 2 3 4 5 6 
#
# 1 0.021300 -0.008831 -0.003488 0.000000 0.000000 0.000000
# 2 -0.008831 0.021300 -0.003488 0.000000 0.000000 0.000000
# 3 -0.003488 -0.003488 0.008224 0.000000 0.000000 0.000000
# 4 0.000000 0.000000 0.000000 0.019395 0.000000 0.000000
# 5 0.000000 0.000000 0.000000 0.000000 0.019395 0.000000
# 6 0.000000 0.000000 0.000000 0.000000 0.000000 0.046013
#
#
# Mechanical properties :
#
#
# Convention : Reuss Voigt Hill
#
# Bulk Modulus (GPa) = 52.05202 60.89230 56.47216
# Shear Modulus (GPa) = 28.79462 36.47571 32.63517
#
# Velocity S-wave (km/s) = 3.63820 4.09480 3.87324
# Velocity P-wave (km/s) = 6.44797 7.09563 6.77954
#
# Compressibility (1/GPa) = 0.01921155
#
# Stress axis : x y z
#
# Youngs Moduli (GPa) = 46.94916 46.94896 121.58905
#
# Poissons Ratio (x) = 0.41461 0.42405
# Poissons Ratio (y) = 0.41461 0.42405
# Poissons Ratio (z) = 0.16374 0.16374
#
# Static dielectric constant tensor:
#      x y z
#    x 1.804220 0.000000 0.000000 
#    y 0.000000 1.804220 0.000000 
#    z 0.000000 0.000000 1.791690 
# 
# From -- ./inp_files/1367.got.cif
#   From: 2010.05.17/outbox.cif.g08.bks.cpg/sg92_1_cif.got.tgz:1367.got - 2010.06.03 19:35:17.
