data_PCOD9549114
_publ_section_title
;
Structure prediction by ZEFSAII (Michael W. Deem and Ramdas Pophale) SiO2 
 PCOD9549114
Probable space group: P 41 21 2
;
_chemical_formula_sum "Si O2"
_cell_formula_units_Z 56
_cell_length_a 11.090734
_cell_length_b 11.090734
_cell_length_c 18.628294
_cell_angle_alpha 90.000000
_cell_angle_beta 90.000000
_cell_angle_gamma 90.000000
_cell_volume 2291.361766
_symmetry_space_group_name_H-M "P 41 21 2"
_symmetry_group_IT_number 92
_symmetry_cell_setting 'tetragonal'
loop_
_space_group_symop_operation_xyz
x,y,z
1/2-y,1/2+x,1/4+z
-x,-y,1/2+z
1/2+y,1/2-x,3/4+z
1/2+x,1/2-y,3/4-z
1/2-x,1/2+y,1/4-z
y,x,-z
-y,-x,1/2-z
loop_
_atom_site_type_symbol
_atom_site_label
_atom_site_fract_x
_atom_site_fract_y
_atom_site_fract_z
Si Si1 0.354457 0.482656 0.559311
Si Si2 0.678721 0.678721 0.500000
Si Si3 0.243470 0.660474 0.119974
Si Si4 0.886578 0.600654 0.983062
Si Si5 0.957277 0.973272 0.422058
Si Si6 0.378976 0.621025 0.750000
Si Si7 0.399843 0.747810 0.534624
Si Si8 0.538894 0.000355 0.876193
O O1 0.456421 0.456421 0.500000
O O2 0.236610 0.430530 0.522764
O O3 0.402947 0.419577 0.632070
O O4 0.344180 0.625961 0.567517
O O5 0.729726 0.740760 0.426539
O O6 0.537923 0.713366 0.511161
O O7 0.367497 0.586858 0.122444
O O8 0.222111 0.681323 0.035285
O O9 0.135464 0.572906 0.143897
O O10 0.895371 0.743424 0.974946
O O11 0.984485 0.547682 0.038812
O O12 0.912551 0.538594 0.907483
O O13 0.922410 0.922410 0.500000
O O14 0.094033 0.013357 0.442523
O O15 0.414921 0.857183 0.590796
#
# Coordination Sequence:
#
# PCOD9549114 Si02
#       8
#     8   4   8   8   8   4   8   8
#     4  12  23  43  71  98 133 182 236 296 336 433
#     4  10  21  37  68  96 138 170 224 289 333 416
#     4  11  21  43  67 102 137 178 227 292 341 419
#     4  12  25  49  67 103 147 185 246 290 367 426
#     4  10  22  43  68 104 135 174 241 280 355 413
#     4  10  23  43  72 100 140 186 232 299 339 440
#     4  11  22  43  68  99 133 180 233 274 358 409
#     4  11  26  45  68 100 145 187 228 299 357 424
#
# _framework density 24.439613000000001
#
# number of rings (size 3 to 8) (size 9 to 14) (size 15 to 20)
#    0.429    0.571    5.000    1.714    0.000    2.286 
#    5.143    0.000    0.000    0.000    0.000    0.000 
#    0.000    0.000    0.000    0.000    0.000    0.000 
#
# Total GULP energy -312408.566918 kJ/mol
# GULP energy per Si atom -5578.724409 kJ/mol
# Density = 2.438399 g / cm^3
# Si number density = 24.439613 Si / 1000 Ang^3
#
#
#
# Elastic Constant Matrix: (Units=GPa)
#
#
# Indices 1 2 3 4 5 6 
#
# 1 62.7458 18.4402 -5.4477 0.0000 0.0000 0.0000
# 2 18.4402 62.7464 -5.4478 0.0000 0.0000 0.0000
# 3 -5.4477 -5.4478 80.0217 0.0000 0.0000 0.0000
# 4 0.0000 0.0000 0.0000 23.5158 0.0000 0.0000
# 5 0.0000 0.0000 0.0000 0.0000 23.5159 0.0000
# 6 0.0000 0.0000 0.0000 0.0000 0.0000 26.2827
#
#
#
# Elastic Compliance Matrix: (Units=1/GPa)
#
#
# Indices 1 2 3 4 5 6 
#
# 1 0.017501 -0.005070 0.000846 0.000000 0.000000 0.000000
# 2 -0.005070 0.017501 0.000846 0.000000 0.000000 0.000000
# 3 0.000846 0.000846 0.012612 0.000000 0.000000 0.000000
# 4 0.000000 0.000000 0.000000 0.042525 0.000000 0.000000
# 5 0.000000 0.000000 0.000000 0.000000 0.042525 0.000000
# 6 0.000000 0.000000 0.000000 0.000000 0.000000 0.038048
#
#
# Mechanical properties :
#
#
# Convention : Reuss Voigt Hill
#
# Bulk Modulus (GPa) = 24.47453 24.51147 24.49300
# Shear Modulus (GPa) = 26.16650 27.86082 27.01366
#
# Velocity S-wave (km/s) = 3.27564 3.38003 3.32825
# Velocity P-wave (km/s) = 4.93381 5.02832 4.98129
#
# Compressibility (1/GPa) = 0.04085881
#
# Stress axis : x y z
#
# Youngs Moduli (GPa) = 57.14048 57.14101 79.29055
#
# Poissons Ratio (x) = 0.28969 -0.06710
# Poissons Ratio (y) = 0.28969 -0.06710
# Poissons Ratio (z) = -0.04836 -0.04836
#
# Static dielectric constant tensor:
#      x y z
#    x 1.940890 0.000000 0.000000 
#    y 0.000000 1.940890 0.000000 
#    z 0.000000 0.000000 2.158610 
# 
# From -- ./inp_files/3598.got.cif
#   From: 2010.05.17/outbox.cif.g08.bks.cpg/sg92_2_cif.got.tgz:3598.got - 2010.06.03 19:35:17.
