data_PCOD9549153
_publ_section_title
;
Structure prediction by ZEFSAII (Michael W. Deem and Ramdas Pophale) SiO2 
 PCOD9549153
Probable space group: P 41 21 2
;
_chemical_formula_sum "Si O2"
_cell_formula_units_Z 40
_cell_length_a 8.456309
_cell_length_b 8.456309
_cell_length_c 23.740795
_cell_angle_alpha 90.000000
_cell_angle_beta 90.000000
_cell_angle_gamma 90.000000
_cell_volume 1697.684353
_symmetry_space_group_name_H-M "P 41 21 2"
_symmetry_group_IT_number 92
_symmetry_cell_setting 'tetragonal'
loop_
_space_group_symop_operation_xyz
x,y,z
1/2-y,1/2+x,1/4+z
-x,-y,1/2+z
1/2+y,1/2-x,3/4+z
1/2+x,1/2-y,3/4-z
1/2-x,1/2+y,1/4-z
y,x,-z
-y,-x,1/2-z
loop_
_atom_site_type_symbol
_atom_site_label
_atom_site_fract_x
_atom_site_fract_y
_atom_site_fract_z
Si Si1 0.488749 0.273374 0.293691
Si Si2 0.901896 0.750779 0.622628
Si Si3 0.949732 0.193440 0.943791
Si Si4 0.241222 0.158197 0.651285
Si Si5 0.802797 0.485740 0.987756
O O1 0.416280 0.361407 0.239383
O O2 0.590106 0.344744 0.346269
O O3 0.334918 0.203691 0.326941
O O4 0.611912 0.149994 0.268617
O O5 0.748586 0.643712 0.636940
O O6 0.940593 0.811815 0.685987
O O7 0.067137 0.661858 0.609506
O O8 0.868139 0.881453 0.576138
O O9 0.945781 0.359586 0.977618
O O10 0.221522 0.041773 0.703439
#
# Coordination Sequence:
#
# PCOD9549153 Si02
#       5
#     8   8   8   8   8
#     4  10  21  41  66  98 135 190 225 285 347 411
#     4   9  20  39  62 102 134 171 223 296 325 429
#     4   9  20  39  68  96 140 172 232 277 357 401
#     4  10  21  42  63  95 144 171 237 279 340 416
#     4   8  20  38  65  92 143 177 229 282 346 402
#
# _framework density 23.561506000000001
#
# number of rings (size 3 to 8) (size 9 to 14) (size 15 to 20)
#    1.200    1.600    0.000    0.000    2.800    3.200 
#   10.800    3.000    0.000    0.000    0.000    0.000 
#    0.000    0.000    0.000    0.000    0.000    0.000 
#
# Total GULP energy -222746.831247 kJ/mol
# GULP energy per Si atom -5568.670781 kJ/mol
# Density = 2.350788 g / cm^3
# Si number density = 23.561506 Si / 1000 Ang^3
#
#
#
# Elastic Constant Matrix: (Units=GPa)
#
#
# Indices 1 2 3 4 5 6 
#
# 1 33.8722 25.6470 9.2967 0.0000 0.0000 0.0000
# 2 25.6470 33.8722 9.2967 0.0000 0.0000 0.0000
# 3 9.2967 9.2967 115.3912 0.0000 0.0000 0.0000
# 4 0.0000 0.0000 0.0000 45.5275 0.0000 0.0000
# 5 0.0000 0.0000 0.0000 0.0000 45.5275 0.0000
# 6 0.0000 0.0000 0.0000 0.0000 0.0000 36.7306
#
#
#
# Elastic Compliance Matrix: (Units=1/GPa)
#
#
# Indices 1 2 3 4 5 6 
#
# 1 0.069407 -0.052172 -0.001389 0.000000 0.000000 0.000000
# 2 -0.052172 0.069407 -0.001389 0.000000 0.000000 0.000000
# 3 -0.001389 -0.001389 0.008890 0.000000 0.000000 0.000000
# 4 0.000000 0.000000 0.000000 0.021965 0.000000 0.000000
# 5 0.000000 0.000000 0.000000 0.000000 0.021965 0.000000
# 6 0.000000 0.000000 0.000000 0.000000 0.000000 0.027225
#
#
# Mechanical properties :
#
#
# Convention : Reuss Voigt Hill
#
# Bulk Modulus (GPa) = 26.45096 30.17958 28.31527
# Shear Modulus (GPa) = 14.64741 34.81678 24.73210
#
# Velocity S-wave (km/s) = 2.49603 3.84825 3.24340
# Velocity P-wave (km/s) = 4.42240 5.70807 5.10586
#
# Compressibility (1/GPa) = 0.03780581
#
# Stress axis : x y z
#
# Youngs Moduli (GPa) = 14.40785 14.40785 112.48695
#
# Poissons Ratio (x) = 0.75168 0.15620
# Poissons Ratio (y) = 0.75168 0.15620
# Poissons Ratio (z) = 0.02001 0.02001
#
# Static dielectric constant tensor:
#      x y z
#    x 1.922020 0.000000 0.000000 
#    y 0.000000 1.922020 0.000000 
#    z 0.000000 0.000000 1.929290 
# 
# From -- ./inp_files/4363.got.cif
#   From: 2010.05.17/outbox.cif.g08.bks.cpg/sg92_3_cif.got.tgz:4363.got - 2010.06.03 19:35:17.
