data_PCOD9549904
_publ_section_title
;
Structure prediction by ZEFSAII (Michael W. Deem and Ramdas Pophale) SiO2 
 PCOD9549904
Probable space group: P 42 2 2
;
_chemical_formula_sum "Si O2"
_cell_formula_units_Z 16
_cell_length_a 6.916818
_cell_length_b 6.916818
_cell_length_c 13.300094
_cell_angle_alpha 90.000000
_cell_angle_beta 90.000000
_cell_angle_gamma 90.000000
_cell_volume 636.308035
_symmetry_space_group_name_H-M "P 42 2 2"
_symmetry_group_IT_number 93
_symmetry_cell_setting 'tetragonal'
loop_
_space_group_symop_operation_xyz
x,y,z
-y,x,1/2+z
-x,-y,z
y,-x,1/2+z
x,-y,-z
-x,y,-z
y,x,1/2-z
-y,-x,1/2-z
loop_
_atom_site_type_symbol
_atom_site_label
_atom_site_fract_x
_atom_site_fract_y
_atom_site_fract_z
Si Si1 0.232934 0.481247 0.170909
Si Si2 0.785014 0.769263 0.518805
O O1 0.360505 0.360505 0.250000
O O2 0.277515 0.698002 0.128684
O O3 0.000000 0.500000 0.192219
O O4 0.283274 0.356739 0.071311
O O5 0.000000 0.699719 0.500000
O O6 0.789339 0.000000 0.500000
#
# Coordination Sequence:
#
# PCOD9549904 Si02
#       2
#     8   8
#     4   9  17  31  57  96 137 182 244 307 367 446
#     4   8  15  31  56  91 135 184 240 302 370 443
#
# _framework density 25.145050999999999
#
# number of rings (size 3 to 8) (size 9 to 14) (size 15 to 20)
#    0.000    3.500    0.000    3.000    0.000    0.000 
#    0.000   20.000    0.000    7.500    0.000   70.000 
#    0.000    0.000    0.000    2.000    0.000    0.000 
#
# Total GULP energy -89107.971610 kJ/mol
# GULP energy per Si atom -5569.248226 kJ/mol
# Density = 2.508782 g / cm^3
# Si number density = 25.145051 Si / 1000 Ang^3
#
#
#
# Elastic Constant Matrix: (Units=GPa)
#
#
# Indices 1 2 3 4 5 6 
#
# 1 203.4697 48.4927 80.2166 0.0000 0.0000 0.0000
# 2 48.4927 203.4697 80.2166 0.0000 0.0000 0.0000
# 3 80.2166 80.2166 174.7617 0.0000 0.0000 0.0000
# 4 0.0000 0.0000 0.0000 12.1100 0.0000 0.0000
# 5 0.0000 0.0000 0.0000 0.0000 12.1100 0.0000
# 6 0.0000 0.0000 0.0000 0.0000 0.0000 -4.0504
#
#
#
# Elastic Compliance Matrix: (Units=1/GPa)
#
#
# Indices 1 2 3 4 5 6 
#
# 1 0.006030 -0.000422 -0.002574 0.000000 0.000000 0.000000
# 2 -0.000422 0.006030 -0.002574 0.000000 0.000000 0.000000
# 3 -0.002574 -0.002574 0.008085 0.000000 0.000000 0.000000
# 4 0.000000 0.000000 0.000000 0.082577 0.000000 0.000000
# 5 0.000000 0.000000 0.000000 0.000000 0.082577 0.000000
# 6 0.000000 0.000000 0.000000 0.000000 0.000000 -0.246890
#
#
# Mechanical properties :
#
#
# Convention : Reuss Voigt Hill
#
# Bulk Modulus (GPa) = 111.05424 111.06145 111.05784
# Shear Modulus (GPa) = -105.37588 28.88559 -38.24515
#
# Velocity S-wave (km/s) = -6.48060 3.39301 -3.90421
# Velocity P-wave (km/s) = 3.42582 7.72103 4.89275
#
# Compressibility (1/GPa) = 0.00900461
#
# Stress axis : x y z
#
# Youngs Moduli (GPa) = 165.83222 165.83222 123.68500
#
# Poissons Ratio (x) = 0.07004 0.31837
# Poissons Ratio (y) = 0.07004 0.31837
# Poissons Ratio (z) = 0.42686 0.42686
#
# Static dielectric constant tensor:
#      x y z
#    x 2.069250 0.000000 0.000000 
#    y 0.000000 2.069250 0.000000 
#    z 0.000000 0.000000 2.061310 
# 
# From -- ./inp_files/2384.got.cif
#   From: 2010.05.17/outbox.cif.g08.bks.cpg/sg93_2_cif.got.tgz:2384.got - 2010.06.03 19:38:44.
