data_PCOD9549099
_publ_section_title
;
Structure prediction by ZEFSAII (Michael W. Deem and Ramdas Pophale) SiO2 
 PCOD9549099
Probable space group: P 41 21 2
;
_chemical_formula_sum "Si O2"
_cell_formula_units_Z 40
_cell_length_a 7.546221
_cell_length_b 7.546221
_cell_length_c 25.933847
_cell_angle_alpha 90.000000
_cell_angle_beta 90.000000
_cell_angle_gamma 90.000000
_cell_volume 1476.814623
_symmetry_space_group_name_H-M "P 41 21 2"
_symmetry_group_IT_number 92
_symmetry_cell_setting 'tetragonal'
loop_
_space_group_symop_operation_xyz
x,y,z
1/2-y,1/2+x,1/4+z
-x,-y,1/2+z
1/2+y,1/2-x,3/4+z
1/2+x,1/2-y,3/4-z
1/2-x,1/2+y,1/4-z
y,x,-z
-y,-x,1/2-z
loop_
_atom_site_type_symbol
_atom_site_label
_atom_site_fract_x
_atom_site_fract_y
_atom_site_fract_z
Si Si1 0.252666 0.910481 0.335822
Si Si2 0.559601 0.764579 0.087829
Si Si3 0.440538 0.169487 0.762324
Si Si4 0.920707 0.210895 0.429284
Si Si5 0.874152 0.482670 0.576242
O O1 0.403437 0.800231 0.303922
O O2 0.070843 0.818330 0.321276
O O3 0.294127 0.881018 0.396232
O O4 0.295007 0.113277 0.323493
O O5 0.619089 0.601569 0.123035
O O6 0.475778 0.893236 0.131880
O O7 0.727056 0.877035 0.066743
O O8 0.420446 0.774347 0.041123
O O9 0.394259 0.335487 0.726715
O O10 0.520557 0.015548 0.725593
#
# Coordination Sequence:
#
# PCOD9549099 Si02
#       5
#     8   8   8   8   8
#     4  10  21  35  58  85 113 149 185 230 279 330
#     4   9  20  37  58  81 113 147 183 234 278 326
#     4   9  18  35  56  80 112 144 181 229 273 328
#     4   9  19  38  57  82 113 143 187 231 276 331
#     4   9  19  35  53  82 116 145 184 228 275 331
#
# _framework density 27.085321
#
# number of rings (size 3 to 8) (size 9 to 14) (size 15 to 20)
#    0.000    3.200    0.000    0.600    0.000    9.600 
#    0.000   13.000    0.000    9.600    0.000    0.000 
#    0.000    0.000    0.000    0.000    0.000    0.000 
#
# Total GULP energy -223797.967538 kJ/mol
# GULP energy per Si atom -5594.949188 kJ/mol
# Density = 2.702367 g / cm^3
# Si number density = 27.085321 Si / 1000 Ang^3
#
#
#
# Elastic Constant Matrix: (Units=GPa)
#
#
# Indices 1 2 3 4 5 6 
#
# 1 83.8613 25.6634 26.3385 0.0000 0.0000 0.0000
# 2 25.6634 83.8613 26.3385 0.0000 0.0000 0.0000
# 3 26.3385 26.3385 107.3968 0.0000 0.0000 0.0000
# 4 0.0000 0.0000 0.0000 31.8399 0.0000 0.0000
# 5 0.0000 0.0000 0.0000 0.0000 31.8399 0.0000
# 6 0.0000 0.0000 0.0000 0.0000 0.0000 41.0457
#
#
#
# Elastic Compliance Matrix: (Units=1/GPa)
#
#
# Indices 1 2 3 4 5 6 
#
# 1 0.013767 -0.003416 -0.002539 0.000000 0.000000 0.000000
# 2 -0.003416 0.013767 -0.002539 0.000000 0.000000 0.000000
# 3 -0.002539 -0.002539 0.010556 0.000000 0.000000 0.000000
# 4 0.000000 0.000000 0.000000 0.031407 0.000000 0.000000
# 5 0.000000 0.000000 0.000000 0.000000 0.031407 0.000000
# 6 0.000000 0.000000 0.000000 0.000000 0.000000 0.024363
#
#
# Mechanical properties :
#
#
# Convention : Reuss Voigt Hill
#
# Bulk Modulus (GPa) = 47.38291 47.97778 47.68035
# Shear Modulus (GPa) = 33.49218 34.06370 33.77794
#
# Velocity S-wave (km/s) = 3.52027 3.55018 3.53525
# Velocity P-wave (km/s) = 5.83566 5.87852 5.85713
#
# Compressibility (1/GPa) = 0.02110465
#
# Stress axis : x y z
#
# Youngs Moduli (GPa) = 72.63731 72.63731 94.72901
#
# Poissons Ratio (x) = 0.24811 0.24048
# Poissons Ratio (y) = 0.24811 0.24048
# Poissons Ratio (z) = 0.18440 0.18440
#
# Static dielectric constant tensor:
#      x y z
#    x 2.214380 0.000000 0.000000 
#    y 0.000000 2.214380 0.000000 
#    z 0.000000 0.000000 2.116050 
# 
# From -- ./inp_files/4130.got.cif
#   From: 2010.05.17/outbox.cif.g08.bks.cpg/sg92_3_cif.got.tgz:4130.got - 2010.06.03 19:35:17.
