data_PCOD9549508
_publ_section_title
;
Structure prediction by ZEFSAII (Michael W. Deem and Ramdas Pophale) SiO2 
 PCOD9549508
Probable space group: P 41 21 2
;
_chemical_formula_sum "Si O2"
_cell_formula_units_Z 40
_cell_length_a 9.091857
_cell_length_b 9.091857
_cell_length_c 21.760789
_cell_angle_alpha 90.000000
_cell_angle_beta 90.000000
_cell_angle_gamma 90.000000
_cell_volume 1798.787375
_symmetry_space_group_name_H-M "P 41 21 2"
_symmetry_group_IT_number 92
_symmetry_cell_setting 'tetragonal'
loop_
_space_group_symop_operation_xyz
x,y,z
1/2-y,1/2+x,1/4+z
-x,-y,1/2+z
1/2+y,1/2-x,3/4+z
1/2+x,1/2-y,3/4-z
1/2-x,1/2+y,1/4-z
y,x,-z
-y,-x,1/2-z
loop_
_atom_site_type_symbol
_atom_site_label
_atom_site_fract_x
_atom_site_fract_y
_atom_site_fract_z
Si Si1 0.866277 0.747849 0.697728
Si Si2 0.942908 0.057093 0.750000
Si Si3 0.575021 0.963581 0.107128
Si Si4 0.840842 0.313151 0.661694
Si Si5 0.673752 0.682194 0.186134
Si Si6 0.599478 0.400523 0.750000
O O1 0.782604 0.743834 0.632385
O O2 0.741963 0.727402 0.748571
O O3 0.995775 0.626991 0.698046
O O4 0.933424 0.907018 0.712026
O O5 0.927333 0.189383 0.700361
O O6 0.631756 0.830445 0.149395
O O7 0.445140 0.077003 0.126487
O O8 0.707902 0.072790 0.092221
O O9 0.753072 0.403534 0.713832
O O10 0.526750 0.591428 0.199962
#
# Coordination Sequence:
#
# PCOD9549508 Si02
#       6
#     8   4   8   8   8   4
#     4  12  26  46  75 105 148 202 247 307 369 451
#     4  11  26  45  74 110 140 199 247 306 380 444
#     4  12  28  49  73 112 155 197 245 318 370 456
#     4  11  24  47  77 104 146 195 259 303 368 451
#     4  12  29  48  75 111 156 197 251 307 391 440
#     4  11  24  47  74 110 144 203 249 306 364 456
#
# _framework density 22.237200999999999
#
# number of rings (size 3 to 8) (size 9 to 14) (size 15 to 20)
#    0.000    0.400    6.000    1.200    8.400    2.400 
#    0.000    0.000    0.000    0.000    0.000    0.000 
#    0.000    0.000    0.000    0.000    0.000    0.000 
#
# Total GULP energy -223516.781774 kJ/mol
# GULP energy per Si atom -5587.919544 kJ/mol
# Density = 2.218659 g / cm^3
# Si number density = 22.237201 Si / 1000 Ang^3
#
#
#
# Elastic Constant Matrix: (Units=GPa)
#
#
# Indices 1 2 3 4 5 6 
#
# 1 103.1902 58.9130 19.4307 0.0000 0.0000 0.0000
# 2 58.9130 103.1899 19.4308 0.0000 0.0000 0.0000
# 3 19.4307 19.4308 59.6377 0.0000 0.0000 0.0000
# 4 0.0000 0.0000 0.0000 30.4031 0.0000 0.0000
# 5 0.0000 0.0000 0.0000 0.0000 30.4033 0.0000
# 6 0.0000 0.0000 0.0000 0.0000 0.0000 44.3293
#
#
#
# Elastic Compliance Matrix: (Units=1/GPa)
#
#
# Indices 1 2 3 4 5 6 
#
# 1 0.014638 -0.007947 -0.002180 0.000000 0.000000 0.000000
# 2 -0.007947 0.014638 -0.002180 0.000000 0.000000 0.000000
# 3 -0.002180 -0.002180 0.018189 0.000000 0.000000 0.000000
# 4 0.000000 0.000000 0.000000 0.032891 0.000000 0.000000
# 5 0.000000 0.000000 0.000000 0.000000 0.032891 0.000000
# 6 0.000000 0.000000 0.000000 0.000000 0.000000 0.022558
#
#
# Mechanical properties :
#
#
# Convention : Reuss Voigt Hill
#
# Bulk Modulus (GPa) = 43.76190 51.28523 47.52356
# Shear Modulus (GPa) = 29.75526 32.24336 30.99931
#
# Velocity S-wave (km/s) = 3.66195 3.81198 3.73772
# Velocity P-wave (km/s) = 6.13206 6.51827 6.32811
#
# Compressibility (1/GPa) = 0.02285093
#
# Stress axis : x y z
#
# Youngs Moduli (GPa) = 68.31394 68.31364 54.97950
#
# Poissons Ratio (x) = 0.54287 0.11987
# Poissons Ratio (y) = 0.54287 0.11987
# Poissons Ratio (z) = 0.14894 0.14894
#
# Static dielectric constant tensor:
#      x y z
#    x 1.851130 0.000000 0.000000 
#    y 0.000000 1.851130 0.000000 
#    z 0.000000 0.000000 1.805250 
# 
# From -- ./inp_files/3829.got.cif
#   From: 2010.05.17/outbox.cif.g08.bks.cpg/sg92_2_cif.got.tgz:3829.got - 2010.06.03 19:35:17.
