data_PCOD9549503
_publ_section_title
;
Structure prediction by ZEFSAII (Michael W. Deem and Ramdas Pophale) SiO2 
 PCOD9549503
Probable space group: P 41 21 2
;
_chemical_formula_sum "Si O2"
_cell_formula_units_Z 48
_cell_length_a 7.925224
_cell_length_b 7.925224
_cell_length_c 33.962834
_cell_angle_alpha 90.000000
_cell_angle_beta 90.000000
_cell_angle_gamma 90.000000
_cell_volume 2133.177599
_symmetry_space_group_name_H-M "P 41 21 2"
_symmetry_group_IT_number 92
_symmetry_cell_setting 'tetragonal'
loop_
_space_group_symop_operation_xyz
x,y,z
1/2-y,1/2+x,1/4+z
-x,-y,1/2+z
1/2+y,1/2-x,3/4+z
1/2+x,1/2-y,3/4-z
1/2-x,1/2+y,1/4-z
y,x,-z
-y,-x,1/2-z
loop_
_atom_site_type_symbol
_atom_site_label
_atom_site_fract_x
_atom_site_fract_y
_atom_site_fract_z
Si Si1 0.294919 0.428943 0.958063
Si Si2 0.442866 0.061121 0.405354
Si Si3 0.248664 0.999957 0.729841
Si Si4 0.354636 0.372659 0.127657
Si Si5 0.303548 0.406986 0.379878
Si Si6 0.094919 0.573551 0.443633
O O1 0.398847 0.603834 0.956617
O O2 0.349578 0.322759 0.919288
O O3 0.097441 0.470701 0.953803
O O4 0.342106 0.342106 0.000000
O O5 0.434521 0.106961 0.451124
O O6 0.371731 0.218094 0.379824
O O7 0.643061 0.053767 0.397398
O O8 0.310542 0.919379 0.392760
O O9 0.318440 0.116681 0.764997
O O10 0.156371 0.843630 0.750000
O O11 0.479419 0.533531 0.128911
O O12 0.213334 0.412103 0.159754
O O13 0.217791 0.438260 0.422643
#
# Coordination Sequence:
#
# PCOD9549503 Si02
#       6
#     8   8   8   8   8   8
#     4  11  24  47  73 103 149 195 247 307 385 462
#     4  12  24  44  76 105 147 196 250 313 373 461
#     4  11  24  46  68 101 145 198 242 308 381 451
#     4  12  26  48  73 111 148 201 251 316 383 465
#     4  12  23  44  72 105 145 191 251 304 380 452
#     4  12  27  44  72 106 145 192 249 311 380 460
#
# _framework density 22.501639999999998
#
# number of rings (size 3 to 8) (size 9 to 14) (size 15 to 20)
#    0.000    0.333    6.667    2.000    2.333    2.667 
#    3.000    0.833    0.000    0.000    0.000    0.000 
#    0.000    0.000    0.000    0.000    0.000    0.000 
#
# Total GULP energy -268101.361867 kJ/mol
# GULP energy per Si atom -5585.445039 kJ/mol
# Density = 2.245042 g / cm^3
# Si number density = 22.501640 Si / 1000 Ang^3
#
#
#
# Elastic Constant Matrix: (Units=GPa)
#
#
# Indices 1 2 3 4 5 6 
#
# 1 69.1886 -1.9159 34.6986 0.0000 0.0000 0.0000
# 2 -1.9159 69.1903 34.6981 0.0000 0.0000 0.0000
# 3 34.6986 34.6981 145.9617 0.0000 0.0000 0.0000
# 4 0.0000 0.0000 0.0000 35.3062 0.0000 0.0000
# 5 0.0000 0.0000 0.0000 0.0000 35.3065 0.0000
# 6 0.0000 0.0000 0.0000 0.0000 0.0000 18.5885
#
#
#
# Elastic Compliance Matrix: (Units=1/GPa)
#
#
# Indices 1 2 3 4 5 6 
#
# 1 0.016879 0.002815 -0.004682 0.000000 0.000000 0.000000
# 2 0.002815 0.016879 -0.004682 0.000000 0.000000 0.000000
# 3 -0.004682 -0.004682 0.009077 0.000000 0.000000 0.000000
# 4 0.000000 0.000000 0.000000 0.028324 0.000000 0.000000
# 5 0.000000 0.000000 0.000000 0.000000 0.028323 0.000000
# 6 0.000000 0.000000 0.000000 0.000000 0.000000 0.053797
#
#
# Mechanical properties :
#
#
# Convention : Reuss Voigt Hill
#
# Bulk Modulus (GPa) = 33.62653 46.58911 40.10782
# Shear Modulus (GPa) = 28.36272 32.29756 30.33014
#
# Velocity S-wave (km/s) = 3.55417 3.79270 3.67537
# Velocity P-wave (km/s) = 5.64086 6.31895 5.98951
#
# Compressibility (1/GPa) = 0.02973842
#
# Stress axis : x y z
#
# Youngs Moduli (GPa) = 59.24457 59.24645 110.16832
#
# Poissons Ratio (x) = -0.16679 0.51579
# Poissons Ratio (y) = -0.16679 0.51577
# Poissons Ratio (z) = 0.27737 0.27737
#
# Static dielectric constant tensor:
#      x y z
#    x 1.888720 0.000000 0.000000 
#    y 0.000000 1.888720 0.000000 
#    z 0.000000 0.000000 1.887240 
# 
# From -- ./inp_files/4522.got.cif
#   From: 2010.05.17/outbox.cif.g08.bks.cpg/sg92_3_cif.got.tgz:4522.got - 2010.06.03 19:35:17.
