data_PCOD9549946
_publ_section_title
;
Structure prediction by ZEFSAII (Michael W. Deem and Ramdas Pophale) SiO2 
 PCOD9549946
Probable space group: P 42 21 2
;
_chemical_formula_sum "Si O2"
_cell_formula_units_Z 48
_cell_length_a 9.322713
_cell_length_b 9.322713
_cell_length_c 27.748718
_cell_angle_alpha 90.000000
_cell_angle_beta 90.000000
_cell_angle_gamma 90.000000
_cell_volume 2411.723708
_symmetry_space_group_name_H-M "P 42 21 2"
_symmetry_group_IT_number 94
_symmetry_cell_setting 'tetragonal'
loop_
_space_group_symop_operation_xyz
x,y,z
1/2-y,1/2+x,1/2+z
-x,-y,z
1/2+y,1/2-x,1/2+z
1/2+x,1/2-y,1/2-z
1/2-x,1/2+y,1/2-z
y,x,-z
-y,-x,-z
loop_
_atom_site_type_symbol
_atom_site_label
_atom_site_fract_x
_atom_site_fract_y
_atom_site_fract_z
Si Si1 0.770422 0.193347 0.948594
Si Si2 0.640978 0.223464 0.454602
Si Si3 0.165339 0.513175 0.114868
Si Si4 0.967953 0.830803 0.883538
Si Si5 0.655466 0.925976 0.213266
Si Si6 0.153656 0.920879 0.294766
O O1 0.671285 0.210325 0.901435
O O2 0.926020 0.221603 0.925921
O O3 0.762072 0.024911 0.962533
O O4 0.734266 0.265735 0.000000
O O5 0.732197 0.267804 0.500000
O O6 0.661353 0.063187 0.437253
O O7 0.681052 0.312724 0.407175
O O8 0.272297 0.447798 0.153472
O O9 0.000000 0.500000 0.132961
O O10 0.970291 0.739204 0.835406
O O11 0.000000 0.000000 0.874024
O O12 0.645581 0.751051 0.215720
O O13 0.500000 0.000000 0.213233
O O14 0.745867 0.995383 0.256742
O O15 0.000000 0.000000 0.293531
#
# Coordination Sequence:
#
# PCOD9549946 Si02
#       6
#     8   8   8   8   8   8
#     4  10  20  35  62  96 129 174 226 273 325 386
#     4  10  18  38  61  90 127 178 223 274 319 391
#     4  10  23  42  65  94 134 175 219 274 335 392
#     4  10  21  38  69  95 131 171 227 270 325 391
#     4  12  27  47  71 103 132 174 220 275 339 406
#     4  12  27  48  72  98 135 172 221 277 340 406
#
# _framework density 19.902778999999999
#
# number of rings (size 3 to 8) (size 9 to 14) (size 15 to 20)
#    0.000    1.333    3.333    2.000    4.667    0.000 
#    6.000    0.000    0.000    0.000    0.000    0.000 
#    0.000    0.000    0.000    0.000    0.000    0.000 
#
# Total GULP energy -267709.774266 kJ/mol
# GULP energy per Si atom -5577.286964 kJ/mol
# Density = 1.985748 g / cm^3
# Si number density = 19.902779 Si / 1000 Ang^3
#
#
#
# Elastic Constant Matrix: (Units=GPa)
#
#
# Indices 1 2 3 4 5 6 
#
# 1 83.7851 55.4099 46.1074 0.0000 0.0000 0.0000
# 2 55.4099 83.7856 46.1085 0.0000 0.0000 0.0000
# 3 46.1074 46.1085 109.6733 0.0000 0.0000 0.0000
# 4 0.0000 0.0000 0.0000 101.2899 0.0000 0.0000
# 5 0.0000 0.0000 0.0000 0.0000 101.2701 0.0000
# 6 0.0000 0.0000 0.0000 0.0000 0.0000 25.6235
#
#
#
# Elastic Compliance Matrix: (Units=1/GPa)
#
#
# Indices 1 2 3 4 5 6 
#
# 1 0.022600 -0.012642 -0.004186 0.000000 0.000000 0.000000
# 2 -0.012642 0.022600 -0.004186 0.000000 0.000000 0.000000
# 3 -0.004186 -0.004186 0.012638 0.000000 0.000000 0.000000
# 4 0.000000 0.000000 0.000000 0.009873 0.000000 0.000000
# 5 0.000000 0.000000 0.000000 0.000000 0.009875 0.000000
# 6 0.000000 0.000000 0.000000 0.000000 0.000000 0.039027
#
#
# Mechanical properties :
#
#
# Convention : Reuss Voigt Hill
#
# Bulk Modulus (GPa) = 63.25951 63.61062 63.43507
# Shear Modulus (GPa) = 30.50458 54.27790 42.39124
#
# Velocity S-wave (km/s) = 3.91919 5.22788 4.62011
# Velocity P-wave (km/s) = 7.23418 8.27472 7.77188
#
# Compressibility (1/GPa) = 0.01580790
#
# Stress axis : x y z
#
# Youngs Moduli (GPa) = 44.24858 44.24829 79.12708
#
# Poissons Ratio (x) = 0.55939 0.33123
# Poissons Ratio (y) = 0.55940 0.33126
# Poissons Ratio (z) = 0.18523 0.18524
#
# Static dielectric constant tensor:
#      x y z
#    x 1.673820 0.000000 0.000000 
#    y 0.000000 1.673850 0.000000 
#    z 0.000000 0.000000 1.695540 
# 
# From -- ./inp_files/5570.got.cif
#   From: 2010.05.17/outbox.cif.g08.bks.cpg/sg94_3_cif.got.tgz:5570.got - 2010.06.03 19:43:16.
