data_PCOD9549456
_publ_section_title
;
Structure prediction by ZEFSAII (Michael W. Deem and Ramdas Pophale) SiO2 
 PCOD9549456
Probable space group: P 41 21 2
;
_chemical_formula_sum "Si O2"
_cell_formula_units_Z 36
_cell_length_a 10.499742
_cell_length_b 10.499742
_cell_length_c 15.587130
_cell_angle_alpha 90.000000
_cell_angle_beta 90.000000
_cell_angle_gamma 90.000000
_cell_volume 1718.396632
_symmetry_space_group_name_H-M "P 41 21 2"
_symmetry_group_IT_number 92
_symmetry_cell_setting 'tetragonal'
loop_
_space_group_symop_operation_xyz
x,y,z
1/2-y,1/2+x,1/4+z
-x,-y,1/2+z
1/2+y,1/2-x,3/4+z
1/2+x,1/2-y,3/4-z
1/2-x,1/2+y,1/4-z
y,x,-z
-y,-x,1/2-z
loop_
_atom_site_type_symbol
_atom_site_label
_atom_site_fract_x
_atom_site_fract_y
_atom_site_fract_z
Si Si1 0.706410 0.489462 0.791767
Si Si2 0.306434 0.834492 0.093195
Si Si3 0.794746 0.101732 0.158715
Si Si4 0.682206 0.337236 0.439278
Si Si5 0.881300 0.118701 0.750000
O O1 0.619005 0.380996 0.750000
O O2 0.794451 0.544578 0.717317
O O3 0.795727 0.440139 0.867491
O O4 0.618529 0.596642 0.835437
O O5 0.216091 0.856469 0.173484
O O6 0.269675 0.718959 0.030087
O O7 0.851782 0.148219 0.250000
O O8 0.687792 0.204244 0.128387
O O9 0.764846 0.950724 0.165045
O O10 0.639618 0.480579 0.458256
#
# Coordination Sequence:
#
# PCOD9549456 Si02
#       5
#     8   8   8   8   4
#     4  11  22  43  67  96 136 177 229 284 349 424
#     4  11  23  40  69  99 130 184 225 289 351 422
#     4  11  23  44  72 100 142 184 236 298 369 427
#     4  11  24  45  70 103 140 188 240 303 363 443
#     4  12  24  44  74  96 140 194 244 280 378 448
#
# _framework density 20.949760999999999
#
# number of rings (size 3 to 8) (size 9 to 14) (size 15 to 20)
#    0.000    0.889    4.444    2.667    0.000    4.444 
#    8.000    0.000    0.000    0.000    0.000    0.000 
#    0.000    0.000    0.000    0.000    0.000    0.000 
#
# Total GULP energy -200953.641894 kJ/mol
# GULP energy per Si atom -5582.045608 kJ/mol
# Density = 2.090208 g / cm^3
# Si number density = 20.949761 Si / 1000 Ang^3
#
#
#
# Elastic Constant Matrix: (Units=GPa)
#
#
# Indices 1 2 3 4 5 6 
#
# 1 41.8264 50.8452 9.9344 0.0000 0.0000 0.0000
# 2 50.8452 41.8254 9.9334 0.0000 0.0000 0.0000
# 3 9.9344 9.9334 91.1091 0.0000 0.0000 0.0000
# 4 0.0000 0.0000 0.0000 42.3096 0.0000 0.0000
# 5 0.0000 0.0000 0.0000 0.0000 42.3096 0.0000
# 6 0.0000 0.0000 0.0000 0.0000 0.0000 27.0304
#
#
#
# Elastic Compliance Matrix: (Units=1/GPa)
#
#
# Indices 1 2 3 4 5 6 
#
# 1 -0.049911 0.060961 -0.001204 0.000000 0.000000 0.000000
# 2 0.060961 -0.049912 -0.001205 0.000000 0.000000 0.000000
# 3 -0.001204 -0.001205 0.011239 0.000000 0.000000 0.000000
# 4 0.000000 0.000000 0.000000 0.023635 0.000000 0.000000
# 5 0.000000 0.000000 0.000000 0.000000 0.023635 0.000000
# 6 0.000000 0.000000 0.000000 0.000000 0.000000 0.036995
#
#
# Mechanical properties :
#
#
# Convention : Reuss Voigt Hill
#
# Bulk Modulus (GPa) = 35.06566 35.13190 35.09878
# Shear Modulus (GPa) = -44.67620 29.26645 -7.70487
#
# Velocity S-wave (km/s) = -4.62295 3.74168 -1.91984
# Velocity P-wave (km/s) = 3.42364 5.95591 3.44613
#
# Compressibility (1/GPa) = 0.02851793
#
# Stress axis : x y z
#
# Youngs Moduli (GPa) = -20.03552 -20.03510 88.97940
#
# Poissons Ratio (x) = 1.22136 0.10715
# Poissons Ratio (y) = 1.22139 0.10724
# Poissons Ratio (z) = -0.02413 -0.02415
#
# Static dielectric constant tensor:
#      x y z
#    x 1.800770 0.000000 0.000000 
#    y 0.000000 1.800770 0.000000 
#    z 0.000000 0.000000 1.749950 
# 
# From -- ./inp_files/2566.got.cif
#   From: 2010.05.17/outbox.cif.g08.bks.cpg/sg92_2_cif.got.tgz:2566.got - 2010.06.03 19:35:17.
