data_PCOD9549420
_publ_section_title
;
Structure prediction by ZEFSAII (Michael W. Deem and Ramdas Pophale) SiO2 
 PCOD9549420
Probable space group: P 41 21 2
;
_chemical_formula_sum "Si O2"
_cell_formula_units_Z 28
_cell_length_a 15.563417
_cell_length_b 15.563417
_cell_length_c 4.937935
_cell_angle_alpha 90.000000
_cell_angle_beta 90.000000
_cell_angle_gamma 90.000000
_cell_volume 1196.066362
_symmetry_space_group_name_H-M "P 41 21 2"
_symmetry_group_IT_number 92
_symmetry_cell_setting 'tetragonal'
loop_
_space_group_symop_operation_xyz
x,y,z
1/2-y,1/2+x,1/4+z
-x,-y,1/2+z
1/2+y,1/2-x,3/4+z
1/2+x,1/2-y,3/4-z
1/2-x,1/2+y,1/4-z
y,x,-z
-y,-x,1/2-z
loop_
_atom_site_type_symbol
_atom_site_label
_atom_site_fract_x
_atom_site_fract_y
_atom_site_fract_z
Si Si1 0.453209 0.192282 0.354295
Si Si2 0.878011 0.999332 0.130289
Si Si3 0.834217 0.834217 0.500000
Si Si4 0.132386 0.356910 0.139742
O O1 0.475678 0.288081 0.244022
O O2 0.538225 0.154389 0.489375
O O3 0.426655 0.138794 0.094273
O O4 0.383458 0.190753 0.599980
O O5 0.910852 0.089149 0.250000
O O6 0.853844 0.911534 0.290072
O O7 0.965767 0.965767 0.000000
O O8 0.844001 0.731474 0.482508
#
# Coordination Sequence:
#
# PCOD9549420 Si02
#       4
#     8   8   4   8
#     4  11  27  46  76 107 144 196 244 296 365 429
#     4  11  25  44  75 107 147 186 243 306 372 438
#     4  10  26  44  72 104 150 192 232 306 368 430
#     4  11  26  47  73 107 146 192 245 297 361 437
#
# _framework density 23.410074000000002
#
# number of rings (size 3 to 8) (size 9 to 14) (size 15 to 20)
#    0.000    1.143    1.429    1.714   20.000    2.286 
#    0.000    0.000    0.000    0.000    0.000    0.000 
#    0.000    0.000    0.000    0.000    0.000    0.000 
#
# Total GULP energy -155891.996878 kJ/mol
# GULP energy per Si atom -5567.571317 kJ/mol
# Density = 2.335679 g / cm^3
# Si number density = 23.410074 Si / 1000 Ang^3
#
#
#
# Elastic Constant Matrix: (Units=GPa)
#
#
# Indices 1 2 3 4 5 6 
#
# 1 73.6053 36.6884 27.3333 0.0000 0.0000 0.0000
# 2 36.6884 73.6051 27.3335 0.0000 0.0000 0.0000
# 3 27.3333 27.3335 75.6138 0.0000 0.0000 0.0000
# 4 0.0000 0.0000 0.0000 12.6225 0.0000 0.0000
# 5 0.0000 0.0000 0.0000 0.0000 12.6254 0.0000
# 6 0.0000 0.0000 0.0000 0.0000 0.0000 35.3958
#
#
#
# Elastic Compliance Matrix: (Units=1/GPa)
#
#
# Indices 1 2 3 4 5 6 
#
# 1 0.019067 -0.008021 -0.003993 0.000000 0.000000 0.000000
# 2 -0.008021 0.019067 -0.003993 0.000000 0.000000 0.000000
# 3 -0.003993 -0.003993 0.016112 0.000000 0.000000 0.000000
# 4 0.000000 0.000000 0.000000 0.079224 0.000000 0.000000
# 5 0.000000 0.000000 0.000000 0.000000 0.079205 0.000000
# 6 0.000000 0.000000 0.000000 0.000000 0.000000 0.028252
#
#
# Mechanical properties :
#
#
# Convention : Reuss Voigt Hill
#
# Bulk Modulus (GPa) = 44.98059 45.05940 45.01999
# Shear Modulus (GPa) = 17.83477 20.89333 19.36405
#
# Velocity S-wave (km/s) = 2.76314 2.99070 2.87917
# Velocity P-wave (km/s) = 5.42548 5.58707 5.50687
#
# Compressibility (1/GPa) = 0.02223181
#
# Stress axis : x y z
#
# Youngs Moduli (GPa) = 52.44718 52.44697 62.06603
#
# Poissons Ratio (x) = 0.42068 0.24782
# Poissons Ratio (y) = 0.42068 0.24783
# Poissons Ratio (z) = 0.20941 0.20942
#
# Static dielectric constant tensor:
#      x y z
#    x 1.899250 0.000000 0.000000 
#    y 0.000000 1.899260 0.000000 
#    z 0.000000 0.000000 2.039330 
# 
# From -- ./inp_files/239.got.cif
#   From: 2010.05.17/outbox.cif.g08.bks.cpg/sg92_1_cif.got.tgz:239.got - 2010.06.03 19:35:17.
