data_PCOD9549896
_publ_section_title
;
Structure prediction by ZEFSAII (Michael W. Deem and Ramdas Pophale) SiO2 
 PCOD9549896
Probable space group: P 42 2 2
;
_chemical_formula_sum "Si O2"
_cell_formula_units_Z 26
_cell_length_a 14.644965
_cell_length_b 14.644965
_cell_length_c 5.152782
_cell_angle_alpha 90.000000
_cell_angle_beta 90.000000
_cell_angle_gamma 90.000000
_cell_volume 1105.142919
_symmetry_space_group_name_H-M "P 42 2 2"
_symmetry_group_IT_number 93
_symmetry_cell_setting 'tetragonal'
loop_
_space_group_symop_operation_xyz
x,y,z
-y,x,1/2+z
-x,-y,z
y,-x,1/2+z
x,-y,-z
-x,y,-z
y,x,1/2-z
-y,-x,1/2-z
loop_
_atom_site_type_symbol
_atom_site_label
_atom_site_fract_x
_atom_site_fract_y
_atom_site_fract_z
Si Si1 0.205213 0.111083 0.499410
Si Si2 0.396649 0.689386 0.999200
Si Si3 0.500000 0.000000 0.000000
Si Si4 0.409049 0.143572 0.665968
O O1 0.154362 0.154362 0.750000
O O2 0.312976 0.138643 0.517541
O O3 0.198539 0.000000 0.500000
O O4 0.156444 0.156444 0.250000
O O5 0.342189 0.657812 0.750000
O O6 0.500000 0.655747 0.000000
O O7 0.351979 0.648022 0.250000
O O8 0.398227 0.794606 0.076048
O O9 0.433980 0.950812 0.202688
O O10 0.500000 0.173959 0.500000
#
# Coordination Sequence:
#
# PCOD9549896 Si02
#       4
#     8   8   2   8
#     4  12  30  53  83 117 160 213 273 332 404 485
#     4  12  27  49  76 109 155 210 265 320 385 462
#     4  12  26  48  88 114 168 204 262 348 438 480
#     4  12  28  50  81 119 166 201 273 337 426 489
#
# _framework density 23.526368999999999
#
# number of rings (size 3 to 8) (size 9 to 14) (size 15 to 20)
#    0.000    0.000    1.538    6.923    8.615    8.615 
#    0.000    0.000    0.000    0.000    0.000    0.000 
#    0.000    0.000    0.000    0.000    0.000    0.000 
#
# Total GULP energy -145527.008674 kJ/mol
# GULP energy per Si atom -5597.192641 kJ/mol
# Density = 2.347282 g / cm^3
# Si number density = 23.526369 Si / 1000 Ang^3
#
#
#
# Elastic Constant Matrix: (Units=GPa)
#
#
# Indices 1 2 3 4 5 6 
#
# 1 157.0767 70.6249 88.3922 0.0000 0.0000 0.0000
# 2 70.6249 157.0743 88.3917 0.0000 0.0000 0.0000
# 3 88.3922 88.3917 223.8855 0.0000 0.0000 0.0000
# 4 0.0000 0.0000 0.0000 81.1603 0.0000 0.0000
# 5 0.0000 0.0000 0.0000 0.0000 81.1589 0.0000
# 6 0.0000 0.0000 0.0000 0.0000 0.0000 40.1623
#
#
#
# Elastic Compliance Matrix: (Units=1/GPa)
#
#
# Indices 1 2 3 4 5 6 
#
# 1 0.008950 -0.002617 -0.002500 0.000000 0.000000 0.000000
# 2 -0.002617 0.008950 -0.002500 0.000000 0.000000 0.000000
# 3 -0.002500 -0.002500 0.006441 0.000000 0.000000 0.000000
# 4 0.000000 0.000000 0.000000 0.012321 0.000000 0.000000
# 5 0.000000 0.000000 0.000000 0.000000 0.012322 0.000000
# 6 0.000000 0.000000 0.000000 0.000000 0.000000 0.024899
#
#
# Mechanical properties :
#
#
# Convention : Reuss Voigt Hill
#
# Bulk Modulus (GPa) = 109.82340 114.76158 112.29249
# Shear Modulus (GPa) = 54.25723 59.87147 57.06435
#
# Velocity S-wave (km/s) = 4.80753 5.05014 4.93033
# Velocity P-wave (km/s) = 8.80902 9.10445 8.95796
#
# Compressibility (1/GPa) = 0.00910553
#
# Stress axis : x y z
#
# Youngs Moduli (GPa) = 111.73119 111.72941 155.25901
#
# Poissons Ratio (x) = 0.29242 0.38819
# Poissons Ratio (y) = 0.29242 0.38820
# Poissons Ratio (z) = 0.27936 0.27936
#
# Static dielectric constant tensor:
#      x y z
#    x 1.671460 0.000000 0.000000 
#    y 0.000000 1.671430 0.000000 
#    z 0.000000 0.000000 1.849270 
# 
# From -- ./inp_files/252.got.cif
#   From: 2010.05.17/outbox.cif.g08.bks.cpg/sg93_1_cif.got.tgz:252.got - 2010.06.03 19:38:44.
