data_PCOD9549608
_publ_section_title
;
Structure prediction by ZEFSAII (Michael W. Deem and Ramdas Pophale) SiO2 
 PCOD9549608
Probable space group: P 42 2 2
;
_chemical_formula_sum "Si O2"
_cell_formula_units_Z 48
_cell_length_a 21.725491
_cell_length_b 21.725491
_cell_length_c 5.296549
_cell_angle_alpha 90.000000
_cell_angle_beta 90.000000
_cell_angle_gamma 90.000000
_cell_volume 2499.955022
_symmetry_space_group_name_H-M "P 42 2 2"
_symmetry_group_IT_number 93
_symmetry_cell_setting 'tetragonal'
loop_
_space_group_symop_operation_xyz
x,y,z
-y,x,1/2+z
-x,-y,z
y,-x,1/2+z
x,-y,-z
-x,y,-z
y,x,1/2-z
-y,-x,1/2-z
loop_
_atom_site_type_symbol
_atom_site_label
_atom_site_fract_x
_atom_site_fract_y
_atom_site_fract_z
Si Si1 0.173023 0.231021 0.498735
Si Si2 0.636865 0.462960 0.760506
Si Si3 0.183138 0.634455 0.276865
Si Si4 0.072790 0.869379 0.505902
Si Si5 0.775249 0.423191 0.769495
Si Si6 0.517831 0.893940 0.748408
O O1 0.214822 0.214822 0.250000
O O2 0.166504 0.301176 0.591688
O O3 0.108916 0.195210 0.457910
O O4 0.201614 0.201614 0.750000
O O5 0.629255 0.500000 0.500000
O O6 0.601604 0.398396 0.750000
O O7 0.709156 0.452452 0.809739
O O8 0.611077 0.500000 0.000000
O O9 0.227080 0.604886 0.489045
O O10 0.125477 0.588414 0.260203
O O11 0.211122 0.626392 0.994252
O O12 0.090355 0.909646 0.750000
O O13 0.000000 0.861019 0.500000
O O14 0.098340 0.901661 0.250000
O O15 0.831214 0.473663 0.762483
O O16 0.500000 0.928591 0.500000
O O17 0.500000 0.927039 0.000000
#
# Coordination Sequence:
#
# PCOD9549608 Si02
#       6
#     8   8   8   8   8   8
#     4  10  21  35  49  74 112 146 175 215 268 326
#     4  12  25  40  54  67  86 116 160 216 276 331
#     4  10  18  30  49  70  97 131 161 194 251 322
#     4  10  21  37  58  84 116 154 195 239 277 307
#     4  10  19  33  51  71  94 122 163 213 259 310
#     4   8  14  25  42  62  86 115 151 197 241 286
#
# _framework density 19.200347000000001
#
# number of rings (size 3 to 8) (size 9 to 14) (size 15 to 20)
#    0.000    2.000    0.000    6.000    0.000    4.000 
#    0.000    0.000    0.000    0.000    0.000    0.000 
#    0.000    6.000    0.000   30.167    0.000    1.833 
#
# Total GULP energy -267307.011170 kJ/mol
# GULP energy per Si atom -5568.896066 kJ/mol
# Density = 1.915665 g / cm^3
# Si number density = 19.200347 Si / 1000 Ang^3
#
#
#
# Elastic Constant Matrix: (Units=GPa)
#
#
# Indices 1 2 3 4 5 6 
#
# 1 91.1336 40.5988 29.8829 0.0000 0.0000 0.0000
# 2 40.5988 91.1370 29.8833 0.0000 0.0000 0.0000
# 3 29.8829 29.8833 169.2075 0.0000 0.0000 0.0000
# 4 0.0000 0.0000 0.0000 8.0739 0.0000 0.0000
# 5 0.0000 0.0000 0.0000 0.0000 8.0722 0.0000
# 6 0.0000 0.0000 0.0000 0.0000 0.0000 5.4191
#
#
#
# Elastic Compliance Matrix: (Units=1/GPa)
#
#
# Indices 1 2 3 4 5 6 
#
# 1 0.014020 -0.005768 -0.001457 0.000000 0.000000 0.000000
# 2 -0.005768 0.014020 -0.001457 0.000000 0.000000 0.000000
# 3 -0.001457 -0.001457 0.006425 0.000000 0.000000 0.000000
# 4 0.000000 0.000000 0.000000 0.123855 0.000000 0.000000
# 5 0.000000 0.000000 0.000000 0.000000 0.123882 0.000000
# 6 0.000000 0.000000 0.000000 0.000000 0.000000 0.184531
#
#
# Mechanical properties :
#
#
# Convention : Reuss Voigt Hill
#
# Bulk Modulus (GPa) = 58.48097 61.35647 59.91872
# Shear Modulus (GPa) = 10.20828 21.05393 15.63111
#
# Velocity S-wave (km/s) = 2.30830 3.31500 2.85635
# Velocity P-wave (km/s) = 6.13423 6.83210 6.49255
#
# Compressibility (1/GPa) = 0.01709958
#
# Stress axis : x y z
#
# Youngs Moduli (GPa) = 71.32551 71.32822 155.64995
#
# Poissons Ratio (x) = 0.41140 0.22685
# Poissons Ratio (y) = 0.41139 0.22684
# Poissons Ratio (z) = 0.10395 0.10395
#
# Static dielectric constant tensor:
#      x y z
#    x 1.677610 0.000000 0.000000 
#    y 0.000000 1.677610 0.000000 
#    z 0.000000 0.000000 1.730850 
# 
# From -- ./inp_files/672.got.cif
#   From: 2010.05.17/outbox.cif.g08.bks.cpg/sg93_1_cif.got.tgz:672.got - 2010.06.03 19:38:44.
