data_PCOD9549302
_publ_section_title
;
Structure prediction by ZEFSAII (Michael W. Deem and Ramdas Pophale) SiO2 
 PCOD9549302
Probable space group: P 41 21 2
;
_chemical_formula_sum "Si O2"
_cell_formula_units_Z 40
_cell_length_a 10.976472
_cell_length_b 10.976472
_cell_length_c 14.676426
_cell_angle_alpha 90.000000
_cell_angle_beta 90.000000
_cell_angle_gamma 90.000000
_cell_volume 1768.258917
_symmetry_space_group_name_H-M "P 41 21 2"
_symmetry_group_IT_number 92
_symmetry_cell_setting 'tetragonal'
loop_
_space_group_symop_operation_xyz
x,y,z
1/2-y,1/2+x,1/4+z
-x,-y,1/2+z
1/2+y,1/2-x,3/4+z
1/2+x,1/2-y,3/4-z
1/2-x,1/2+y,1/4-z
y,x,-z
-y,-x,1/2-z
loop_
_atom_site_type_symbol
_atom_site_label
_atom_site_fract_x
_atom_site_fract_y
_atom_site_fract_z
Si Si1 0.778901 0.841008 0.652889
Si Si2 0.667992 0.667992 0.500000
Si Si3 0.486317 0.237374 0.605312
Si Si4 0.496267 0.104153 0.796535
Si Si5 0.262876 0.737125 0.750000
Si Si6 0.928650 0.721289 0.169158
O O1 0.741105 0.730493 0.585377
O O2 0.733295 0.821950 0.755819
O O3 0.924409 0.852836 0.647256
O O4 0.705856 0.959361 0.618017
O O5 0.689545 0.532357 0.461425
O O6 0.504813 0.173477 0.701878
O O7 0.551410 0.137704 0.542237
O O8 0.351758 0.248791 0.568039
O O9 0.589221 0.993306 0.819796
O O10 0.251648 0.620282 0.818075
#
# Coordination Sequence:
#
# PCOD9549302 Si02
#       6
#     8   4   8   8   4   8
#     4  11  20  42  74 106 134 186 265 311 360 450
#     4  10  22  45  75 104 138 202 266 320 351 469
#     4  12  23  43  67 107 145 192 248 311 381 458
#     4  11  21  43  78  99 141 207 250 303 370 468
#     4  12  30  43  67 116 166 198 240 322 413 463
#     4  11  24  45  70 110 148 198 256 308 395 454
#
# _framework density 22.621123000000001
#
# number of rings (size 3 to 8) (size 9 to 14) (size 15 to 20)
#    0.000    0.800    6.000    2.400    2.800    0.800 
#    0.000    1.000    4.400    0.000    0.000    0.000 
#    0.000    0.000    0.000    0.000    0.000    0.000 
#
# Total GULP energy -222888.452067 kJ/mol
# GULP energy per Si atom -5572.211302 kJ/mol
# Density = 2.256964 g / cm^3
# Si number density = 22.621123 Si / 1000 Ang^3
#
#
#
# Elastic Constant Matrix: (Units=GPa)
#
#
# Indices 1 2 3 4 5 6 
#
# 1 71.4939 38.4330 18.5586 0.0000 0.0000 0.0000
# 2 38.4330 71.4980 18.5617 0.0000 0.0000 0.0000
# 3 18.5586 18.5617 121.1299 0.0000 0.0000 0.0000
# 4 0.0000 0.0000 0.0000 18.0196 0.0000 0.0000
# 5 0.0000 0.0000 0.0000 0.0000 18.0200 0.0000
# 6 0.0000 0.0000 0.0000 0.0000 0.0000 25.2919
#
#
#
# Elastic Compliance Matrix: (Units=1/GPa)
#
#
# Indices 1 2 3 4 5 6 
#
# 1 0.019920 -0.010326 -0.001470 0.000000 0.000000 0.000000
# 2 -0.010326 0.019919 -0.001470 0.000000 0.000000 0.000000
# 3 -0.001470 -0.001470 0.008706 0.000000 0.000000 0.000000
# 4 0.000000 0.000000 0.000000 0.055495 0.000000 0.000000
# 5 0.000000 0.000000 0.000000 0.000000 0.055494 0.000000
# 6 0.000000 0.000000 0.000000 0.000000 0.000000 0.039538
#
#
# Mechanical properties :
#
#
# Convention : Reuss Voigt Hill
#
# Bulk Modulus (GPa) = 45.42837 46.13651 45.78244
# Shear Modulus (GPa) = 21.46464 24.83754 23.15109
#
# Velocity S-wave (km/s) = 3.08372 3.31717 3.20258
# Velocity P-wave (km/s) = 5.72757 5.92546 5.82736
#
# Compressibility (1/GPa) = 0.02201267
#
# Stress axis : x y z
#
# Youngs Moduli (GPa) = 50.20159 50.20388 114.86262
#
# Poissons Ratio (x) = 0.51841 0.16880
# Poissons Ratio (y) = 0.51839 0.16887
# Poissons Ratio (z) = 0.07378 0.07381
#
# Static dielectric constant tensor:
#      x y z
#    x 1.986070 0.000000 0.000000 
#    y 0.000000 1.986070 0.000000 
#    z 0.000000 0.000000 1.984450 
# 
# From -- ./inp_files/2680.got.cif
#   From: 2010.05.17/outbox.cif.g08.bks.cpg/sg92_2_cif.got.tgz:2680.got - 2010.06.03 19:35:17.
