data_PCOD9549487
_publ_section_title
;
Structure prediction by ZEFSAII (Michael W. Deem and Ramdas Pophale) SiO2 
 PCOD9549487
Probable space group: P 41 21 2
;
_chemical_formula_sum "Si O2"
_cell_formula_units_Z 32
_cell_length_a 7.124433
_cell_length_b 7.124433
_cell_length_c 25.710480
_cell_angle_alpha 90.000000
_cell_angle_beta 90.000000
_cell_angle_gamma 90.000000
_cell_volume 1305.000860
_symmetry_space_group_name_H-M "P 41 21 2"
_symmetry_group_IT_number 92
_symmetry_cell_setting 'tetragonal'
loop_
_space_group_symop_operation_xyz
x,y,z
1/2-y,1/2+x,1/4+z
-x,-y,1/2+z
1/2+y,1/2-x,3/4+z
1/2+x,1/2-y,3/4-z
1/2-x,1/2+y,1/4-z
y,x,-z
-y,-x,1/2-z
loop_
_atom_site_type_symbol
_atom_site_label
_atom_site_fract_x
_atom_site_fract_y
_atom_site_fract_z
Si Si1 0.054944 0.834601 0.693758
Si Si2 0.126669 0.171574 0.057069
Si Si3 0.930315 0.651764 0.853759
Si Si4 0.745627 0.156020 0.911312
O O1 0.140249 0.005413 0.659855
O O2 0.830353 0.836828 0.694702
O O3 0.114386 0.648207 0.661516
O O4 0.145760 0.854241 0.750000
O O5 0.254326 0.253113 0.103450
O O6 0.925687 0.268907 0.065697
O O7 0.114947 0.949410 0.066048
O O8 0.205511 0.205511 0.000000
O O9 0.609265 0.979399 0.908118
#
# Coordination Sequence:
#
# PCOD9549487 Si02
#       4
#     8   8   8   8
#     4  11  26  50  74 110 152 201 253 316 389 451
#     4  11  23  46  75 106 150 200 251 317 384 451
#     4  11  27  45  74 111 151 195 258 316 369 472
#     4  11  24  49  71 109 153 194 258 313 379 463
#
# _framework density 24.521059000000001
#
# number of rings (size 3 to 8) (size 9 to 14) (size 15 to 20)
#    0.000    1.000    5.000    1.500    7.000    2.000 
#    4.500    0.000    0.000    0.000    0.000    0.000 
#    0.000    0.000    0.000    0.000    0.000    0.000 
#
# Total GULP energy -179300.352941 kJ/mol
# GULP energy per Si atom -5603.136029 kJ/mol
# Density = 2.446525 g / cm^3
# Si number density = 24.521059 Si / 1000 Ang^3
#
#
#
# Elastic Constant Matrix: (Units=GPa)
#
#
# Indices 1 2 3 4 5 6 
#
# 1 116.0618 34.5016 -5.7388 0.0000 0.0000 0.0000
# 2 34.5016 116.0618 -5.7390 0.0000 0.0000 0.0000
# 3 -5.7388 -5.7390 101.9135 0.0000 0.0000 0.0000
# 4 0.0000 0.0000 0.0000 18.6591 0.0000 0.0000
# 5 0.0000 0.0000 0.0000 0.0000 18.6592 0.0000
# 6 0.0000 0.0000 0.0000 0.0000 0.0000 53.5830
#
#
#
# Elastic Compliance Matrix: (Units=1/GPa)
#
#
# Indices 1 2 3 4 5 6 
#
# 1 0.009466 -0.002795 0.000376 0.000000 0.000000 0.000000
# 2 -0.002795 0.009466 0.000376 0.000000 0.000000 0.000000
# 3 0.000376 0.000376 0.009855 0.000000 0.000000 0.000000
# 4 0.000000 0.000000 0.000000 0.053593 0.000000 0.000000
# 5 0.000000 0.000000 0.000000 0.000000 0.053593 0.000000
# 6 0.000000 0.000000 0.000000 0.000000 0.000000 0.018663
#
#
# Mechanical properties :
#
#
# Convention : Reuss Voigt Hill
#
# Bulk Modulus (GPa) = 40.48955 42.23163 41.36059
# Shear Modulus (GPa) = 29.94818 38.91449 34.43133
#
# Velocity S-wave (km/s) = 3.49854 3.98802 3.75127
# Velocity P-wave (km/s) = 5.73303 6.20207 5.97216
#
# Compressibility (1/GPa) = 0.02469773
#
# Stress axis : x y z
#
# Youngs Moduli (GPa) = 105.64556 105.64555 101.47603
#
# Poissons Ratio (x) = 0.29531 -0.03812
# Poissons Ratio (y) = 0.29531 -0.03812
# Poissons Ratio (z) = -0.03968 -0.03968
#
# Static dielectric constant tensor:
#      x y z
#    x 1.980680 0.000000 0.000000 
#    y 0.000000 1.980680 0.000000 
#    z 0.000000 0.000000 1.954370 
# 
# From -- ./inp_files/3705.got.cif
#   From: 2010.05.17/outbox.cif.g08.bks.cpg/sg92_2_cif.got.tgz:3705.got - 2010.06.03 19:35:17.
