data_PCOD9549361
_publ_section_title
;
Structure prediction by ZEFSAII (Michael W. Deem and Ramdas Pophale) SiO2 
 PCOD9549361
Probable space group: P 41 21 2
;
_chemical_formula_sum "Si O2"
_cell_formula_units_Z 32
_cell_length_a 7.100998
_cell_length_b 7.100998
_cell_length_c 22.490380
_cell_angle_alpha 90.000000
_cell_angle_beta 90.000000
_cell_angle_gamma 90.000000
_cell_volume 1134.058803
_symmetry_space_group_name_H-M "P 41 21 2"
_symmetry_group_IT_number 92
_symmetry_cell_setting 'tetragonal'
loop_
_space_group_symop_operation_xyz
x,y,z
1/2-y,1/2+x,1/4+z
-x,-y,1/2+z
1/2+y,1/2-x,3/4+z
1/2+x,1/2-y,3/4-z
1/2-x,1/2+y,1/4-z
y,x,-z
-y,-x,1/2-z
loop_
_atom_site_type_symbol
_atom_site_label
_atom_site_fract_x
_atom_site_fract_y
_atom_site_fract_z
Si Si1 0.490869 0.677993 0.082447
Si Si2 0.520582 0.046100 0.234712
Si Si3 0.429826 0.315294 0.141085
Si Si4 0.607853 0.658504 0.204227
O O1 0.469259 0.449432 0.084096
O O2 0.289368 0.760823 0.104635
O O3 0.633820 0.726185 0.135729
O O4 0.546707 0.789825 0.023938
O O5 0.525580 0.127883 0.167839
O O6 0.533089 0.507171 0.308130
O O7 0.485315 0.825007 0.232455
O O8 0.378797 0.187080 0.268175
#
# Coordination Sequence:
#
# PCOD9549361 Si02
#       4
#     8   8   8   8
#     4  10  24  45  82 122 168 233 276 375 430 526
#     4  12  22  49  81 121 169 226 296 354 448 519
#     4  10  23  49  78 119 174 217 300 349 440 529
#     4  10  26  46  81 118 169 229 281 367 427 532
#
# _framework density 28.217231999999999
#
# number of rings (size 3 to 8) (size 9 to 14) (size 15 to 20)
#    1.500    0.000    2.500    2.250    0.000    0.000 
#   13.500    0.000   16.500    0.000    0.000    0.000 
#    0.000    0.000    0.000    0.000    0.000    0.000 
#
# Total GULP energy -178602.220630 kJ/mol
# GULP energy per Si atom -5581.319395 kJ/mol
# Density = 2.815301 g / cm^3
# Si number density = 28.217232 Si / 1000 Ang^3
#
#
#
# Elastic Constant Matrix: (Units=GPa)
#
#
# Indices 1 2 3 4 5 6 
#
# 1 165.2125 65.3846 22.3604 0.0000 0.0000 0.0000
# 2 65.3846 165.2125 22.3604 0.0000 0.0000 0.0000
# 3 22.3604 22.3604 -4.6949 0.0000 0.0000 0.0000
# 4 0.0000 0.0000 0.0000 45.4064 0.0000 0.0000
# 5 0.0000 0.0000 0.0000 0.0000 45.4064 0.0000
# 6 0.0000 0.0000 0.0000 0.0000 0.0000 53.6923
#
#
#
# Elastic Compliance Matrix: (Units=1/GPa)
#
#
# Indices 1 2 3 4 5 6 
#
# 1 0.006136 -0.003881 0.010737 0.000000 0.000000 0.000000
# 2 -0.003881 0.006136 0.010737 0.000000 0.000000 0.000000
# 3 0.010737 0.010737 -0.110725 0.000000 0.000000 0.000000
# 4 0.000000 0.000000 0.000000 0.022023 0.000000 0.000000
# 5 0.000000 0.000000 0.000000 0.000000 0.022023 0.000000
# 6 0.000000 0.000000 0.000000 0.000000 0.000000 0.018625
#
#
# Mechanical properties :
#
#
# Convention : Reuss Voigt Hill
#
# Bulk Modulus (GPa) = -15.80545 60.66011 22.42733
# Shear Modulus (GPa) = -54.31489 43.27601 -5.51944
#
# Velocity S-wave (km/s) = -4.39211 3.92046 -1.40011
# Velocity P-wave (km/s) = 5.59771 6.48364 2.31336
#
# Compressibility (1/GPa) = -0.06326932
#
# Stress axis : x y z
#
# Youngs Moduli (GPa) = 162.97828 162.97828 -9.03139
#
# Poissons Ratio (x) = 0.63259 0.09697
# Poissons Ratio (y) = 0.63259 0.09697
# Poissons Ratio (z) = -1.74985 -1.74985
#
# Static dielectric constant tensor:
#      x y z
#    x 2.182060 0.000000 0.000000 
#    y 0.000000 2.182060 0.000000 
#    z 0.000000 0.000000 2.519470 
# 
# From -- ./inp_files/3710.got.cif
#   From: 2010.05.17/outbox.cif.g08.bks.cpg/sg92_2_cif.got.tgz:3710.got - 2010.06.03 19:35:17.
