data_PCOD9549926
_publ_section_title
;
Structure prediction by ZEFSAII (Michael W. Deem and Ramdas Pophale) SiO2 
 PCOD9549926
Probable space group: P 42 21 2
;
_chemical_formula_sum "Si O2"
_cell_formula_units_Z 56
_cell_length_a 11.672445
_cell_length_b 11.672445
_cell_length_c 22.061949
_cell_angle_alpha 90.000000
_cell_angle_beta 90.000000
_cell_angle_gamma 90.000000
_cell_volume 3005.851692
_symmetry_space_group_name_H-M "P 42 21 2"
_symmetry_group_IT_number 94
_symmetry_cell_setting 'tetragonal'
loop_
_space_group_symop_operation_xyz
x,y,z
1/2-y,1/2+x,1/2+z
-x,-y,z
1/2+y,1/2-x,1/2+z
1/2+x,1/2-y,1/2-z
1/2-x,1/2+y,1/2-z
y,x,-z
-y,-x,-z
loop_
_atom_site_type_symbol
_atom_site_label
_atom_site_fract_x
_atom_site_fract_y
_atom_site_fract_z
Si Si1 0.167327 0.072035 0.261323
Si Si2 0.935168 0.167953 0.240934
Si Si3 0.737455 0.091217 0.964609
Si Si4 0.488426 0.174226 0.589510
Si Si5 0.405361 0.913295 0.698544
Si Si6 0.748243 0.247441 0.857696
Si Si7 0.598490 0.417034 0.573032
O O1 0.287331 0.072153 0.226240
O O2 0.184568 0.151631 0.320541
O O3 0.063402 0.129451 0.223508
O O4 0.125558 0.942112 0.271681
O O5 0.945661 0.277216 0.284448
O O6 0.853407 0.207377 0.186648
O O7 0.696953 0.188313 0.918130
O O8 0.782754 0.985818 0.923318
O O9 0.844757 0.155243 0.000000
O O10 0.659404 0.043341 0.018795
O O11 0.570672 0.091377 0.626844
O O12 0.365186 0.186940 0.623231
O O13 0.561151 0.292565 0.593863
O O14 0.500000 0.000000 0.724991
O O15 0.500000 0.500000 0.597277
O O16 0.590029 0.409972 0.500000
#
# Coordination Sequence:
#
# PCOD9549926 Si02
#       7
#     8   8   8   8   8   8   8
#     4  10  22  38  56  86 115 155 202 237 295 361
#     4  10  22  37  58  82 120 156 195 243 298 355
#     4   9  16  26  48  82 116 149 190 249 300 354
#     4  10  18  29  52  82 116 150 190 244 301 350
#     4  11  23  37  58  83 117 152 195 247 295 354
#     4  10  18  31  54  85 117 148 194 238 293 357
#     4   9  12  22  41  75 114 135 175 231 296 351
#
# _framework density 18.630327000000001
#
# number of rings (size 3 to 8) (size 9 to 14) (size 15 to 20)
#    0.000    2.143    5.714    0.857    4.000    0.000 
#    0.000    0.000    0.000    8.571    0.000   30.000 
#    0.000    0.000    0.000    0.000    0.000    0.000 
#
# Total GULP energy -311744.631899 kJ/mol
# GULP energy per Si atom -5566.868427 kJ/mol
# Density = 1.858792 g / cm^3
# Si number density = 18.630327 Si / 1000 Ang^3
#
#
#
# Elastic Constant Matrix: (Units=GPa)
#
#
# Indices 1 2 3 4 5 6 
#
# 1 84.1095 39.4955 25.6011 0.0000 0.0000 0.0000
# 2 39.4955 84.1096 25.6012 0.0000 0.0000 0.0000
# 3 25.6011 25.6012 73.3159 0.0000 0.0000 0.0000
# 4 0.0000 0.0000 0.0000 27.7879 0.0000 0.0000
# 5 0.0000 0.0000 0.0000 0.0000 27.7879 0.0000
# 6 0.0000 0.0000 0.0000 0.0000 0.0000 25.1925
#
#
#
# Elastic Compliance Matrix: (Units=1/GPa)
#
#
# Indices 1 2 3 4 5 6 
#
# 1 0.015936 -0.006478 -0.003303 0.000000 0.000000 0.000000
# 2 -0.006478 0.015936 -0.003303 0.000000 0.000000 0.000000
# 3 -0.003303 -0.003303 0.015946 0.000000 0.000000 0.000000
# 4 0.000000 0.000000 0.000000 0.035987 0.000000 0.000000
# 5 0.000000 0.000000 0.000000 0.000000 0.035987 0.000000
# 6 0.000000 0.000000 0.000000 0.000000 0.000000 0.039694
#
#
# Mechanical properties :
#
#
# Convention : Reuss Voigt Hill
#
# Bulk Modulus (GPa) = 46.18529 46.99231 46.58880
# Shear Modulus (GPa) = 25.92396 26.20946 26.06671
#
# Velocity S-wave (km/s) = 3.73432 3.75483 3.74459
# Velocity P-wave (km/s) = 6.59073 6.63902 6.61492
#
# Compressibility (1/GPa) = 0.02165191
#
# Stress axis : x y z
#
# Youngs Moduli (GPa) = 62.74923 62.74922 62.71087
#
# Poissons Ratio (x) = 0.40649 0.20712
# Poissons Ratio (y) = 0.40649 0.20712
# Poissons Ratio (z) = 0.20725 0.20725
#
# Static dielectric constant tensor:
#      x y z
#    x 1.682670 0.000000 0.000000 
#    y 0.000000 1.682670 0.000000 
#    z 0.000000 0.000000 1.688690 
# 
# From -- ./inp_files/4742.got.cif
#   From: 2010.05.17/outbox.cif.g08.bks.cpg/sg94_3_cif.got.tgz:4742.got - 2010.06.03 19:43:16.
