data_PCOD9549298
_publ_section_title
;
Structure prediction by ZEFSAII (Michael W. Deem and Ramdas Pophale) SiO2 
 PCOD9549298
Probable space group: P 41 21 2
;
_chemical_formula_sum "Si O2"
_cell_formula_units_Z 56
_cell_length_a 12.159224
_cell_length_b 12.159224
_cell_length_c 18.709279
_cell_angle_alpha 90.000000
_cell_angle_beta 90.000000
_cell_angle_gamma 90.000000
_cell_volume 2766.105689
_symmetry_space_group_name_H-M "P 41 21 2"
_symmetry_group_IT_number 92
_symmetry_cell_setting 'tetragonal'
loop_
_space_group_symop_operation_xyz
x,y,z
1/2-y,1/2+x,1/4+z
-x,-y,1/2+z
1/2+y,1/2-x,3/4+z
1/2+x,1/2-y,3/4-z
1/2-x,1/2+y,1/4-z
y,x,-z
-y,-x,1/2-z
loop_
_atom_site_type_symbol
_atom_site_label
_atom_site_fract_x
_atom_site_fract_y
_atom_site_fract_z
Si Si1 0.521926 0.521926 0.000000
Si Si2 0.479375 0.009976 0.441777
Si Si3 0.291569 0.769574 0.014806
Si Si4 0.375283 0.597467 0.122301
Si Si5 0.013458 0.350587 0.942058
Si Si6 0.504396 0.495605 0.750000
Si Si7 0.763422 0.966876 0.162000
Si Si8 0.963383 0.240849 0.501873
O O1 0.422540 0.520223 0.057886
O O2 0.635934 0.520429 0.044490
O O3 0.490886 0.941349 0.369808
O O4 0.352835 0.011328 0.467097
O O5 0.570497 0.951158 0.492439
O O6 0.503498 0.139473 0.434803
O O7 0.357411 0.709879 0.078898
O O8 0.304033 0.897381 0.030865
O O9 0.341166 0.732093 0.938736
O O10 0.165405 0.739621 0.012015
O O11 0.257708 0.572302 0.159681
O O12 0.465075 0.588114 0.185672
O O13 0.381668 0.485137 0.781979
O O14 0.772036 0.995766 0.079444
#
# Coordination Sequence:
#
# PCOD9549298 Si02
#       8
#     4   8   8   8   8   4   8   8
#     4  10  22  45  67  94 134 178 222 268 338 389
#     4  11  24  43  68  96 133 171 225 269 330 391
#     4  10  24  41  69  93 135 171 219 275 329 393
#     4  11  23  44  64  98 131 175 220 273 327 393
#     4  11  23  44  64  97 129 174 218 271 328 391
#     4  12  26  41  69  98 134 168 228 270 336 391
#     4  10  23  42  66  96 128 174 217 268 329 395
#     4  12  23  44  65 100 132 168 222 279 325 396
#
# _framework density 20.245070999999999
#
# number of rings (size 3 to 8) (size 9 to 14) (size 15 to 20)
#    0.000    1.143    5.714    0.000    2.000    2.857 
#    5.143    0.000    0.000    0.000    0.000    0.000 
#    0.000    0.000    0.000    0.000    0.000    0.000 
#
# Total GULP energy -311804.786438 kJ/mol
# GULP energy per Si atom -5567.942615 kJ/mol
# Density = 2.019899 g / cm^3
# Si number density = 20.245071 Si / 1000 Ang^3
#
#
#
# Elastic Constant Matrix: (Units=GPa)
#
#
# Indices 1 2 3 4 5 6 
#
# 1 59.5872 -7.6641 -10.5793 0.0000 0.0000 0.0000
# 2 -7.6641 59.5870 -10.5792 0.0000 0.0000 0.0000
# 3 -10.5793 -10.5792 58.2959 0.0000 0.0000 0.0000
# 4 0.0000 0.0000 0.0000 16.9442 0.0000 0.0000
# 5 0.0000 0.0000 0.0000 0.0000 16.9443 0.0000
# 6 0.0000 0.0000 0.0000 0.0000 0.0000 18.4395
#
#
#
# Elastic Compliance Matrix: (Units=1/GPa)
#
#
# Indices 1 2 3 4 5 6 
#
# 1 0.017833 0.002964 0.003774 0.000000 0.000000 0.000000
# 2 0.002964 0.017833 0.003774 0.000000 0.000000 0.000000
# 3 0.003774 0.003774 0.018524 0.000000 0.000000 0.000000
# 4 0.000000 0.000000 0.000000 0.059017 0.000000 0.000000
# 5 0.000000 0.000000 0.000000 0.000000 0.059017 0.000000
# 6 0.000000 0.000000 0.000000 0.000000 0.000000 0.054231
#
#
# Mechanical properties :
#
#
# Convention : Reuss Voigt Hill
#
# Bulk Modulus (GPa) = 13.29524 13.31389 13.30457
# Shear Modulus (GPa) = 21.69165 24.21844 22.95504
#
# Velocity S-wave (km/s) = 3.27686 3.46246 3.37093
# Velocity P-wave (km/s) = 4.57148 4.75136 4.66229
#
# Compressibility (1/GPa) = 0.07521486
#
# Stress axis : x y z
#
# Youngs Moduli (GPa) = 56.07453 56.07439 53.98491
#
# Poissons Ratio (x) = -0.16619 -0.20375
# Poissons Ratio (y) = -0.16619 -0.20375
# Poissons Ratio (z) = -0.21164 -0.21163
#
# Static dielectric constant tensor:
#      x y z
#    x 1.741780 0.000000 0.000000 
#    y 0.000000 1.741780 0.000000 
#    z 0.000000 0.000000 1.730230 
# 
# From -- ./inp_files/3592.got.cif
#   From: 2010.05.17/outbox.cif.g08.bks.cpg/sg92_2_cif.got.tgz:3592.got - 2010.06.03 19:35:17.
