data_PCOD9549664
_publ_section_title
;
Structure prediction by ZEFSAII (Michael W. Deem and Ramdas Pophale) SiO2 
 PCOD9549664
Probable space group: P 42 2 2
;
_chemical_formula_sum "Si O2"
_cell_formula_units_Z 64
_cell_length_a 11.759776
_cell_length_b 11.759776
_cell_length_c 20.753119
_cell_angle_alpha 90.000000
_cell_angle_beta 90.000000
_cell_angle_gamma 90.000000
_cell_volume 2869.997214
_symmetry_space_group_name_H-M "P 42 2 2"
_symmetry_group_IT_number 93
_symmetry_cell_setting 'tetragonal'
loop_
_space_group_symop_operation_xyz
x,y,z
-y,x,1/2+z
-x,-y,z
y,-x,1/2+z
x,-y,-z
-x,y,-z
y,x,1/2-z
-y,-x,1/2-z
loop_
_atom_site_type_symbol
_atom_site_label
_atom_site_fract_x
_atom_site_fract_y
_atom_site_fract_z
Si Si1 0.172085 0.269611 0.378303
Si Si2 0.840035 0.557531 0.932049
Si Si3 0.282489 0.944619 0.328637
Si Si4 0.949314 0.878024 0.610749
Si Si5 0.738190 0.218930 0.019603
Si Si6 0.130209 0.525295 0.417875
Si Si7 0.192198 0.380136 0.184403
Si Si8 0.125984 0.440311 0.722022
O O1 0.216264 0.218210 0.446292
O O2 0.165044 0.401266 0.395109
O O3 0.270808 0.267916 0.326203
O O4 0.053202 0.203568 0.364986
O O5 0.926887 0.639396 0.892924
O O6 0.749108 0.654590 0.951818
O O7 0.806359 0.461803 0.879491
O O8 0.873859 0.500000 0.000000
O O9 0.151817 0.914284 0.340305
O O10 0.335779 0.872411 0.270906
O O11 0.314087 0.072121 0.310291
O O12 0.878866 0.810057 0.556228
O O13 0.000000 0.000000 0.588888
O O14 0.607066 0.182869 0.028804
O O15 0.147843 0.595159 0.350835
O O16 0.000000 0.500000 0.432422
O O17 0.204162 0.465425 0.243839
O O18 0.000000 0.500000 0.721684
#
# Coordination Sequence:
#
# PCOD9549664 Si02
#       8
#     8   8   8   8   8   8   8   8
#     4  12  23  37  63  94 130 170 211 262 325 394
#     4  10  19  36  57  88 125 163 218 261 319 378
#     4   9  19  36  60  89 127 172 210 256 316 387
#     4  11  22  38  58  95 138 172 205 254 327 397
#     4  11  24  40  60  91 131 171 219 268 318 391
#     4  11  23  42  65  85 118 173 226 263 321 384
#     4  10  19  37  60  92 128 161 213 266 321 384
#     4   8  18  38  66  86 115 164 218 267 304 377
#
# _framework density 22.299672000000001
#
# number of rings (size 3 to 8) (size 9 to 14) (size 15 to 20)
#    0.000    1.750    3.750    1.875    0.000    3.000 
#    0.000    6.250    0.000    1.500    0.000    5.250 
#    0.000    0.000    0.000    0.000    0.000    0.000 
#
# Total GULP energy -356834.493305 kJ/mol
# GULP energy per Si atom -5575.538958 kJ/mol
# Density = 2.224892 g / cm^3
# Si number density = 22.299672 Si / 1000 Ang^3
#
#
#
# Elastic Constant Matrix: (Units=GPa)
#
#
# Indices 1 2 3 4 5 6 
#
# 1 107.7552 41.4974 18.0182 0.0000 0.0000 0.0000
# 2 41.4974 107.7552 18.0182 0.0000 0.0000 0.0000
# 3 18.0182 18.0182 93.7241 0.0000 0.0000 0.0000
# 4 0.0000 0.0000 0.0000 18.4595 0.0000 0.0000
# 5 0.0000 0.0000 0.0000 0.0000 18.4595 0.0000
# 6 0.0000 0.0000 0.0000 0.0000 0.0000 19.1291
#
#
#
# Elastic Compliance Matrix: (Units=1/GPa)
#
#
# Indices 1 2 3 4 5 6 
#
# 1 0.011059 -0.004033 -0.001351 0.000000 0.000000 0.000000
# 2 -0.004033 0.011059 -0.001351 0.000000 0.000000 0.000000
# 3 -0.001351 -0.001351 0.011189 0.000000 0.000000 0.000000
# 4 0.000000 0.000000 0.000000 0.054173 0.000000 0.000000
# 5 0.000000 0.000000 0.000000 0.000000 0.054173 0.000000
# 6 0.000000 0.000000 0.000000 0.000000 0.000000 0.052276
#
#
# Mechanical properties :
#
#
# Convention : Reuss Voigt Hill
#
# Bulk Modulus (GPa) = 50.40756 51.58911 50.99834
# Shear Modulus (GPa) = 23.36320 26.65633 25.00977
#
# Velocity S-wave (km/s) = 3.24032 3.46116 3.35256
# Velocity P-wave (km/s) = 6.05419 6.25760 6.15674
#
# Compressibility (1/GPa) = 0.01983829
#
# Stress axis : x y z
#
# Youngs Moduli (GPa) = 90.42105 90.42105 89.37370
#
# Poissons Ratio (x) = 0.36468 0.12072
# Poissons Ratio (y) = 0.36468 0.12072
# Poissons Ratio (z) = 0.12214 0.12214
#
# Static dielectric constant tensor:
#      x y z
#    x 1.779090 0.000000 0.000000 
#    y 0.000000 1.779090 0.000000 
#    z 0.000000 0.000000 1.943820 
# 
# From -- ./inp_files/6982.got.cif
#   From: 2010.05.17/outbox.cif.g08.bks.cpg/sg93_4_cif.got.tgz:6982.got - 2010.06.03 19:38:44.
