data_PCOD9549817
_publ_section_title
;
Structure prediction by ZEFSAII (Michael W. Deem and Ramdas Pophale) SiO2 
 PCOD9549817
Probable space group: P 42 2 2
;
_chemical_formula_sum "Si O2"
_cell_formula_units_Z 16
_cell_length_a 5.208598
_cell_length_b 5.208598
_cell_length_c 25.069164
_cell_angle_alpha 90.000000
_cell_angle_beta 90.000000
_cell_angle_gamma 90.000000
_cell_volume 680.113712
_symmetry_space_group_name_H-M "P 42 2 2"
_symmetry_group_IT_number 93
_symmetry_cell_setting 'tetragonal'
loop_
_space_group_symop_operation_xyz
x,y,z
-y,x,1/2+z
-x,-y,z
y,-x,1/2+z
x,-y,-z
-x,y,-z
y,x,1/2-z
-y,-x,1/2-z
loop_
_atom_site_type_symbol
_atom_site_label
_atom_site_fract_x
_atom_site_fract_y
_atom_site_fract_z
Si Si1 0.000000 0.000000 0.750000
Si Si2 0.500000 0.000000 0.500000
Si Si3 0.000000 0.500000 0.324158
Si Si4 0.838557 0.264105 0.896859
O O1 0.746988 0.987180 0.786467
O O2 0.664887 0.827271 0.459343
O O3 0.776532 0.575571 0.365728
O O4 0.000000 0.500000 0.872345
O O5 0.000000 0.000000 0.893075
#
# Coordination Sequence:
#
# PCOD9549817 Si02
#       4
#     2   2   4   8
#     4  12  32  48  88 106 154 214 268 334 396 448
#     4   8  22  46  80 116 152 210 252 312 412 482
#     4  12  28  55  79 116 158 204 274 328 394 466
#     4  10  23  46  80 113 155 204 256 324 391 490
#
# _framework density 23.525475
#
# number of rings (size 3 to 8) (size 9 to 14) (size 15 to 20)
#    1.500    0.000    2.500    0.750    3.500    7.000 
#    0.000    7.500    0.000    0.000    0.000    0.000 
#    0.000    0.000    0.000    0.000    0.000    0.000 
#
# Total GULP energy -89292.577633 kJ/mol
# GULP energy per Si atom -5580.786102 kJ/mol
# Density = 2.347193 g / cm^3
# Si number density = 23.525475 Si / 1000 Ang^3
#
#
#
# Elastic Constant Matrix: (Units=GPa)
#
#
# Indices 1 2 3 4 5 6 
#
# 1 179.5998 69.2389 80.1744 0.0000 0.0000 0.0000
# 2 69.2389 179.5998 80.1744 0.0000 0.0000 0.0000
# 3 80.1744 80.1744 207.2400 0.0000 0.0000 0.0000
# 4 0.0000 0.0000 0.0000 -253.7422 0.0000 0.0000
# 5 0.0000 0.0000 0.0000 0.0000 -253.7422 0.0000
# 6 0.0000 0.0000 0.0000 0.0000 0.0000 40.3230
#
#
#
# Elastic Compliance Matrix: (Units=1/GPa)
#
#
# Indices 1 2 3 4 5 6 
#
# 1 0.007207 -0.001854 -0.002071 0.000000 0.000000 0.000000
# 2 -0.001854 0.007207 -0.002071 0.000000 0.000000 0.000000
# 3 -0.002071 -0.002071 0.006428 0.000000 0.000000 0.000000
# 4 0.000000 0.000000 0.000000 -0.003941 0.000000 0.000000
# 5 0.000000 0.000000 0.000000 0.000000 -0.003941 0.000000
# 6 0.000000 0.000000 0.000000 0.000000 0.000000 0.024800
#
#
# Mechanical properties :
#
#
# Convention : Reuss Voigt Hill
#
# Bulk Modulus (GPa) = 112.99206 113.95722 113.47464
# Shear Modulus (GPa) = 94.87359 -70.97549 11.94905
#
# Velocity S-wave (km/s) = 6.35732 -5.49865 2.25615
# Velocity P-wave (km/s) = 10.10056 2.86907 7.42472
#
# Compressibility (1/GPa) = 0.00885018
#
# Stress axis : x y z
#
# Youngs Moduli (GPa) = 138.75056 138.75056 155.57654
#
# Poissons Ratio (x) = 0.25724 0.32219
# Poissons Ratio (y) = 0.25724 0.32219
# Poissons Ratio (z) = 0.28735 0.28735
#
# Static dielectric constant tensor:
#      x y z
#    x 1.922620 0.000000 0.000000 
#    y 0.000000 1.922620 0.000000 
#    z 0.000000 0.000000 1.907200 
# 
# From -- ./inp_files/7017.got.cif
#   From: 2010.05.17/outbox.cif.g08.bks.cpg/sg93_4_cif.got.tgz:7017.got - 2010.06.03 19:38:44.
