data_PCOD9549639
_publ_section_title
;
Structure prediction by ZEFSAII (Michael W. Deem and Ramdas Pophale) SiO2 
 PCOD9549639
Probable space group: P 42 2 2
;
_chemical_formula_sum "Si O2"
_cell_formula_units_Z 36
_cell_length_a 16.968577
_cell_length_b 16.968577
_cell_length_c 7.644615
_cell_angle_alpha 90.000000
_cell_angle_beta 90.000000
_cell_angle_gamma 90.000000
_cell_volume 2201.133914
_symmetry_space_group_name_H-M "P 42 2 2"
_symmetry_group_IT_number 93
_symmetry_cell_setting 'tetragonal'
loop_
_space_group_symop_operation_xyz
x,y,z
-y,x,1/2+z
-x,-y,z
y,-x,1/2+z
x,-y,-z
-x,y,-z
y,x,1/2-z
-y,-x,1/2-z
loop_
_atom_site_type_symbol
_atom_site_label
_atom_site_fract_x
_atom_site_fract_y
_atom_site_fract_z
Si Si1 0.896627 0.661573 0.181508
Si Si2 0.818042 0.818042 0.250000
Si Si3 0.493939 0.090148 0.791997
Si Si4 0.678937 0.922624 0.726834
Si Si5 0.842665 0.086548 0.085228
O O1 0.838569 0.726118 0.260015
O O2 0.870242 0.571129 0.208455
O O3 0.983677 0.669635 0.267307
O O4 0.910369 0.685204 0.980519
O O5 0.854531 0.857257 0.424003
O O6 0.404988 0.118176 0.763347
O O7 0.500000 0.000000 0.721870
O O8 0.500000 0.088094 0.000000
O O9 0.755896 0.896890 0.832097
O O10 0.900679 0.099322 0.250000
O O11 0.845294 0.000000 0.000000
#
# Coordination Sequence:
#
# PCOD9549639 Si02
#       5
#     8   4   8   8   8
#     4  10  19  32  53  76 104 135 173 215 271 330
#     4  12  22  36  57  76 104 140 181 226 278 330
#     4   9  17  28  48  78 104 130 163 211 266 330
#     4  10  19  34  54  74 101 132 175 223 271 327
#     4  12  25  41  60  75 100 138 186 241 285 328
#
# _framework density 16.355208000000001
#
# number of rings (size 3 to 8) (size 9 to 14) (size 15 to 20)
#    0.000    1.556    4.444    2.000    3.111    3.556 
#    0.000    1.667    0.000    0.000    0.000    0.000 
#    0.000    0.000    0.000    1.000    7.556    3.111 
#
# Total GULP energy -200612.489957 kJ/mol
# GULP energy per Si atom -5572.569165 kJ/mol
# Density = 1.631798 g / cm^3
# Si number density = 16.355208 Si / 1000 Ang^3
#
#
#
# Elastic Constant Matrix: (Units=GPa)
#
#
# Indices 1 2 3 4 5 6 
#
# 1 60.3380 30.3488 25.7574 0.0000 0.0000 0.0000
# 2 30.3488 60.3423 25.7582 0.0000 0.0000 0.0000
# 3 25.7574 25.7582 93.2552 0.0000 0.0000 0.0000
# 4 0.0000 0.0000 0.0000 22.9674 0.0000 0.0000
# 5 0.0000 0.0000 0.0000 0.0000 22.9674 0.0000
# 6 0.0000 0.0000 0.0000 0.0000 0.0000 7.9552
#
#
#
# Elastic Compliance Matrix: (Units=1/GPa)
#
#
# Indices 1 2 3 4 5 6 
#
# 1 0.023212 -0.010132 -0.003613 0.000000 0.000000 0.000000
# 2 -0.010132 0.023210 -0.003612 0.000000 0.000000 0.000000
# 3 -0.003613 -0.003612 0.012719 0.000000 0.000000 0.000000
# 4 0.000000 0.000000 0.000000 0.043540 0.000000 0.000000
# 5 0.000000 0.000000 0.000000 0.000000 0.043540 0.000000
# 6 0.000000 0.000000 0.000000 0.000000 0.000000 0.125704
#
#
# Mechanical properties :
#
#
# Convention : Reuss Voigt Hill
#
# Bulk Modulus (GPa) = 40.93909 41.96269 41.45089
# Shear Modulus (GPa) = 15.88408 19.58274 17.73341
#
# Velocity S-wave (km/s) = 3.11978 3.46401 3.29639
# Velocity P-wave (km/s) = 6.16952 6.45848 6.31565
#
# Compressibility (1/GPa) = 0.02442653
#
# Stress axis : x y z
#
# Youngs Moduli (GPa) = 43.08170 43.08484 78.62354
#
# Poissons Ratio (x) = 0.43654 0.28403
# Poissons Ratio (y) = 0.43651 0.28402
# Poissons Ratio (z) = 0.15563 0.15564
#
# Static dielectric constant tensor:
#      x y z
#    x 1.579630 0.000000 0.000000 
#    y 0.000000 1.579630 0.000000 
#    z 0.000000 0.000000 1.618730 
# 
# From -- ./inp_files/1691.got.cif
#   From: 2010.05.17/outbox.cif.g08.bks.cpg/sg93_1_cif.got.tgz:1691.got - 2010.06.03 19:38:44.
