data_PCOD9549975
_publ_section_title
;
Structure prediction by ZEFSAII (Michael W. Deem and Ramdas Pophale) SiO2 
 PCOD9549975
Probable space group: P 42 21 2
;
_chemical_formula_sum "Si O2"
_cell_formula_units_Z 54
_cell_length_a 14.465271
_cell_length_b 14.465271
_cell_length_c 12.763854
_cell_angle_alpha 90.000000
_cell_angle_beta 90.000000
_cell_angle_gamma 90.000000
_cell_volume 2670.760697
_symmetry_space_group_name_H-M "P 42 21 2"
_symmetry_group_IT_number 94
_symmetry_cell_setting 'tetragonal'
loop_
_space_group_symop_operation_xyz
x,y,z
1/2-y,1/2+x,1/2+z
-x,-y,z
1/2+y,1/2-x,1/2+z
1/2+x,1/2-y,1/2-z
1/2-x,1/2+y,1/2-z
y,x,-z
-y,-x,-z
loop_
_atom_site_type_symbol
_atom_site_label
_atom_site_fract_x
_atom_site_fract_y
_atom_site_fract_z
Si Si1 0.000000 0.000000 0.000000
Si Si2 0.785475 0.290659 0.640320
Si Si3 0.678310 0.185968 0.126976
Si Si4 0.363480 0.636521 0.000000
Si Si5 0.026287 0.789152 0.622854
Si Si6 0.606676 0.987366 0.490448
Si Si7 0.313392 0.116400 0.072784
Si Si8 0.181158 0.961286 0.136816
O O1 0.908416 0.007141 0.072533
O O2 0.816397 0.337236 0.748130
O O3 0.864752 0.219279 0.604876
O O4 0.691858 0.233188 0.648125
O O5 0.778493 0.361974 0.545291
O O6 0.603902 0.130626 0.056827
O O7 0.781828 0.143202 0.116855
O O8 0.665165 0.291479 0.090895
O O9 0.466006 0.653749 0.958784
O O10 0.018530 0.828578 0.739676
O O11 0.993110 0.682259 0.603081
O O12 0.500000 0.000000 0.456280
O O13 0.623036 0.076619 0.565144
O O14 0.270402 0.020318 0.104443
#
# Coordination Sequence:
#
# PCOD9549975 Si02
#       8
#     2   8   8   4   8   8   8   8
#     4  12  26  40  64  82 118 164 228 244 320 358
#     4   9  19  36  55  84 117 163 194 246 292 375
#     4  10  20  37  59  86 126 150 205 246 318 366
#     4  10  19  36  60  86 117 164 192 258 306 364
#     4   9  21  38  60  84 125 155 210 254 306 369
#     4  10  19  38  62  96 119 162 196 259 325 380
#     4  10  19  37  61  83 125 155 202 251 315 357
#     4  11  22  41  58  90 117 165 204 273 295 378
#
# _framework density 20.218958000000001
#
# number of rings (size 3 to 8) (size 9 to 14) (size 15 to 20)
#    0.000    2.074    1.481    2.222    0.000    0.000 
#    8.000   20.741    0.000    0.889    0.000    0.000 
#    0.000    0.000    0.000    0.000    0.000    0.000 
#
# Total GULP energy -300894.405730 kJ/mol
# GULP energy per Si atom -5572.118625 kJ/mol
# Density = 2.017294 g / cm^3
# Si number density = 20.218958 Si / 1000 Ang^3
#
#
#
# Elastic Constant Matrix: (Units=GPa)
#
#
# Indices 1 2 3 4 5 6 
#
# 1 35.4019 -3.5835 4.9319 0.0000 0.0000 0.0000
# 2 -3.5835 35.4018 4.9324 0.0000 0.0000 0.0000
# 3 4.9319 4.9324 84.5747 0.0000 0.0000 0.0000
# 4 0.0000 0.0000 0.0000 17.2237 0.0000 0.0000
# 5 0.0000 0.0000 0.0000 0.0000 17.2236 0.0000
# 6 0.0000 0.0000 0.0000 0.0000 0.0000 23.8115
#
#
#
# Elastic Compliance Matrix: (Units=1/GPa)
#
#
# Indices 1 2 3 4 5 6 
#
# 1 0.028829 0.003178 -0.001866 0.000000 0.000000 0.000000
# 2 0.003178 0.028829 -0.001867 0.000000 0.000000 0.000000
# 3 -0.001866 -0.001867 0.012042 0.000000 0.000000 0.000000
# 4 0.000000 0.000000 0.000000 0.058060 0.000000 0.000000
# 5 0.000000 0.000000 0.000000 0.000000 0.058060 0.000000
# 6 0.000000 0.000000 0.000000 0.000000 0.000000 0.041996
#
#
# Mechanical properties :
#
#
# Convention : Reuss Voigt Hill
#
# Bulk Modulus (GPa) = 14.57951 18.66001 16.61976
# Shear Modulus (GPa) = 19.85795 21.59160 20.72477
#
# Velocity S-wave (km/s) = 3.13732 3.27140 3.20506
# Velocity P-wave (km/s) = 4.51112 4.84958 4.68341
#
# Compressibility (1/GPa) = 0.06858943
#
# Stress axis : x y z
#
# Youngs Moduli (GPa) = 34.68757 34.68738 83.04562
#
# Poissons Ratio (x) = -0.11024 0.15500
# Poissons Ratio (y) = -0.11024 0.15502
# Poissons Ratio (z) = 0.06474 0.06475
#
# Static dielectric constant tensor:
#      x y z
#    x 1.740690 0.000000 0.000000 
#    y 0.000000 1.740690 0.000000 
#    z 0.000000 0.000000 1.729890 
# 
# From -- ./inp_files/2755.got.cif
#   From: 2010.05.17/outbox.cif.g08.bks.cpg/sg94_2_cif.got.tgz:2755.got - 2010.06.03 19:43:16.
