data_PCOD9549762
_publ_section_title
;
Structure prediction by ZEFSAII (Michael W. Deem and Ramdas Pophale) SiO2 
 PCOD9549762
Probable space group: P 42 2 2
;
_chemical_formula_sum "Si O2"
_cell_formula_units_Z 26
_cell_length_a 8.009145
_cell_length_b 8.009145
_cell_length_c 19.039927
_cell_angle_alpha 90.000000
_cell_angle_beta 90.000000
_cell_angle_gamma 90.000000
_cell_volume 1221.342842
_symmetry_space_group_name_H-M "P 42 2 2"
_symmetry_group_IT_number 93
_symmetry_cell_setting 'tetragonal'
loop_
_space_group_symop_operation_xyz
x,y,z
-y,x,1/2+z
-x,-y,z
y,-x,1/2+z
x,-y,-z
-x,y,-z
y,x,1/2-z
-y,-x,1/2-z
loop_
_atom_site_type_symbol
_atom_site_label
_atom_site_fract_x
_atom_site_fract_y
_atom_site_fract_z
Si Si1 0.840752 0.678627 0.629204
Si Si2 0.018496 0.302012 0.079881
Si Si3 0.213447 0.330224 0.325201
Si Si4 0.500000 0.000000 0.000000
O O1 0.766053 0.862070 0.624691
O O2 0.736189 0.521173 0.657605
O O3 0.011878 0.680561 0.673236
O O4 0.892083 0.616308 0.551127
O O5 0.000000 0.500000 0.077096
O O6 0.195753 0.263918 0.115564
O O7 0.000000 0.236060 0.000000
O O8 0.279849 0.279849 0.250000
#
# Coordination Sequence:
#
# PCOD9549762 Si02
#       4
#     8   8   8   2
#     4  10  21  39  66  92 122 171 211 283 333 394
#     4  11  24  40  63  96 134 173 218 274 337 411
#     4  10  23  42  64  94 126 165 227 276 332 406
#     4   8  16  36  66  90 116 150 226 266 326 392
#
# _framework density 21.288041
#
# number of rings (size 3 to 8) (size 9 to 14) (size 15 to 20)
#    0.000    2.154    0.000    4.615    4.308    4.923 
#    0.000    4.615    0.000    0.000    0.000    0.000 
#    0.000    0.000    0.000    0.000    0.000    0.000 
#
# Total GULP energy -145205.231077 kJ/mol
# GULP energy per Si atom -5584.816580 kJ/mol
# Density = 2.123959 g / cm^3
# Si number density = 21.288041 Si / 1000 Ang^3
#
#
#
# Elastic Constant Matrix: (Units=GPa)
#
#
# Indices 1 2 3 4 5 6 
#
# 1 78.0031 19.1818 10.7045 0.0000 0.0000 0.0000
# 2 19.1818 78.0031 10.7045 0.0000 0.0000 0.0000
# 3 10.7045 10.7045 100.0991 0.0000 0.0000 0.0000
# 4 0.0000 0.0000 0.0000 32.6722 0.0000 0.0000
# 5 0.0000 0.0000 0.0000 0.0000 32.6722 0.0000
# 6 0.0000 0.0000 0.0000 0.0000 0.0000 -61.3937
#
#
#
# Elastic Compliance Matrix: (Units=1/GPa)
#
#
# Indices 1 2 3 4 5 6 
#
# 1 0.013769 -0.003231 -0.001127 0.000000 0.000000 0.000000
# 2 -0.003231 0.013769 -0.001127 0.000000 0.000000 0.000000
# 3 -0.001127 -0.001127 0.010231 0.000000 0.000000 0.000000
# 4 0.000000 0.000000 0.000000 0.030607 0.000000 0.000000
# 5 0.000000 0.000000 0.000000 0.000000 0.030607 0.000000
# 6 0.000000 0.000000 0.000000 0.000000 0.000000 -0.016288
#
#
# Mechanical properties :
#
#
# Convention : Reuss Voigt Hill
#
# Bulk Modulus (GPa) = 37.31444 37.47635 37.39539
# Shear Modulus (GPa) = 48.73340 15.15776 31.94558
#
# Velocity S-wave (km/s) = 4.78979 2.67129 3.87801
# Velocity P-wave (km/s) = 6.93944 5.21124 6.13648
#
# Compressibility (1/GPa) = 0.02679928
#
# Stress axis : x y z
#
# Youngs Moduli (GPa) = 72.62547 72.62547 97.74097
#
# Poissons Ratio (x) = 0.23468 0.11015
# Poissons Ratio (y) = 0.23468 0.11015
# Poissons Ratio (z) = 0.08184 0.08184
#
# Static dielectric constant tensor:
#      x y z
#    x 1.762410 0.000000 0.000000 
#    y 0.000000 1.762410 0.000000 
#    z 0.000000 0.000000 1.778790 
# 
# From -- ./inp_files/4894.got.cif
#   From: 2010.05.17/outbox.cif.g08.bks.cpg/sg93_3_cif.got.tgz:4894.got - 2010.06.03 19:38:44.
