data_PCOD9549208
_publ_section_title
;
Structure prediction by ZEFSAII (Michael W. Deem and Ramdas Pophale) SiO2 
 PCOD9549208
Probable space group: P 41 21 2
;
_chemical_formula_sum "Si O2"
_cell_formula_units_Z 40
_cell_length_a 13.292752
_cell_length_b 13.292752
_cell_length_c 10.265276
_cell_angle_alpha 90.000000
_cell_angle_beta 90.000000
_cell_angle_gamma 90.000000
_cell_volume 1813.846099
_symmetry_space_group_name_H-M "P 41 21 2"
_symmetry_group_IT_number 92
_symmetry_cell_setting 'tetragonal'
loop_
_space_group_symop_operation_xyz
x,y,z
1/2-y,1/2+x,1/4+z
-x,-y,1/2+z
1/2+y,1/2-x,3/4+z
1/2+x,1/2-y,3/4-z
1/2-x,1/2+y,1/4-z
y,x,-z
-y,-x,1/2-z
loop_
_atom_site_type_symbol
_atom_site_label
_atom_site_fract_x
_atom_site_fract_y
_atom_site_fract_z
Si Si1 0.255365 0.998340 0.531215
Si Si2 0.100890 0.733410 0.242664
Si Si3 0.114434 0.688224 0.700343
Si Si4 0.397551 0.429430 0.359832
Si Si5 0.776190 0.464710 0.746997
O O1 0.289020 0.949893 0.396145
O O2 0.295435 0.942672 0.662327
O O3 0.136006 0.975861 0.531013
O O4 0.294386 0.111829 0.538997
O O5 0.160062 0.839939 0.250000
O O6 0.183939 0.646780 0.256696
O O7 0.018106 0.725532 0.356680
O O8 0.140267 0.796519 0.634602
O O9 0.031276 0.653457 0.594387
O O10 0.446483 0.446483 0.500000
O O11 0.337093 0.522432 0.303231
#
# Coordination Sequence:
#
# PCOD9549208 Si02
#       5
#     8   8   8   8   8
#     4  11  19  35  54  81 116 147 182 232 285 335
#     4  12  23  37  58  87 120 153 183 236 295 340
#     4   9  20  33  56  82 107 148 187 230 277 335
#     4   8  18  35  55  78 111 146 187 228 275 333
#     4  10  22  37  57  85 119 147 191 233 285 340
#
# _framework density 22.052586000000002
#
# number of rings (size 3 to 8) (size 9 to 14) (size 15 to 20)
#    1.200    0.800    2.000    2.400    0.000    4.800 
#    0.000    0.000    0.000    4.800    0.000    0.000 
#    0.000    0.000    0.000    0.000    0.000    0.000 
#
# Total GULP energy -222709.305872 kJ/mol
# GULP energy per Si atom -5567.732647 kJ/mol
# Density = 2.200239 g / cm^3
# Si number density = 22.052586 Si / 1000 Ang^3
#
#
#
# Elastic Constant Matrix: (Units=GPa)
#
#
# Indices 1 2 3 4 5 6 
#
# 1 86.0640 -8.3322 6.7554 0.0000 0.0000 0.0000
# 2 -8.3322 86.0663 6.7551 0.0000 0.0000 0.0000
# 3 6.7554 6.7551 106.2965 0.0000 0.0000 0.0000
# 4 0.0000 0.0000 0.0000 -2.8435 0.0000 0.0000
# 5 0.0000 0.0000 0.0000 0.0000 -2.8421 0.0000
# 6 0.0000 0.0000 0.0000 0.0000 0.0000 37.5164
#
#
#
# Elastic Compliance Matrix: (Units=1/GPa)
#
#
# Indices 1 2 3 4 5 6 
#
# 1 0.011801 0.001207 -0.000827 0.000000 0.000000 0.000000
# 2 0.001207 0.011801 -0.000827 0.000000 0.000000 0.000000
# 3 -0.000827 -0.000827 0.009513 0.000000 0.000000 0.000000
# 4 0.000000 0.000000 0.000000 -0.351684 0.000000 0.000000
# 5 0.000000 0.000000 0.000000 0.000000 -0.351858 0.000000
# 6 0.000000 0.000000 0.000000 0.000000 0.000000 0.026655
#
#
# Mechanical properties :
#
#
# Convention : Reuss Voigt Hill
#
# Bulk Modulus (GPa) = 31.03425 32.08704 31.56065
# Shear Modulus (GPa) = -7.90964 24.58274 8.33655
#
# Velocity S-wave (km/s) = -1.89592 3.34238 1.94641
# Velocity P-wave (km/s) = 3.05135 5.42929 4.40386
#
# Compressibility (1/GPa) = 0.03222246
#
# Stress axis : x y z
#
# Youngs Moduli (GPa) = 84.73829 84.74057 105.12237
#
# Poissons Ratio (x) = -0.10231 0.08691
# Poissons Ratio (y) = -0.10231 0.08690
# Poissons Ratio (z) = 0.07005 0.07005
#
# Static dielectric constant tensor:
#      x y z
#    x 1.878820 0.000000 0.000000 
#    y 0.000000 1.878820 0.000000 
#    z 0.000000 0.000000 1.858390 
# 
# From -- ./inp_files/2070.got.cif
#   From: 2010.05.17/outbox.cif.g08.bks.cpg/sg92_2_cif.got.tgz:2070.got - 2010.06.03 19:35:17.
