data_PCOD9549969
_publ_section_title
;
Structure prediction by ZEFSAII (Michael W. Deem and Ramdas Pophale) SiO2 
 PCOD9549969
Probable space group: P 42 21 2
;
_chemical_formula_sum "Si O2"
_cell_formula_units_Z 48
_cell_length_a 11.798145
_cell_length_b 11.798145
_cell_length_c 18.243928
_cell_angle_alpha 90.000000
_cell_angle_beta 90.000000
_cell_angle_gamma 90.000000
_cell_volume 2539.485915
_symmetry_space_group_name_H-M "P 42 21 2"
_symmetry_group_IT_number 94
_symmetry_cell_setting 'tetragonal'
loop_
_space_group_symop_operation_xyz
x,y,z
1/2-y,1/2+x,1/2+z
-x,-y,z
1/2+y,1/2-x,1/2+z
1/2+x,1/2-y,1/2-z
1/2-x,1/2+y,1/2-z
y,x,-z
-y,-x,-z
loop_
_atom_site_type_symbol
_atom_site_label
_atom_site_fract_x
_atom_site_fract_y
_atom_site_fract_z
Si Si1 0.382714 0.452877 0.083083
Si Si2 0.916373 0.675506 0.817873
Si Si3 0.741360 0.778661 0.915219
Si Si4 0.505097 0.137032 0.357294
Si Si5 0.647074 0.246778 0.848192
Si Si6 0.161188 0.576482 0.809681
O O1 0.500000 0.500000 0.117403
O O2 0.316367 0.345850 0.116303
O O3 0.292785 0.553577 0.094938
O O4 0.416978 0.416978 0.000000
O O5 0.857309 0.765162 0.870817
O O6 0.898938 0.717832 0.734054
O O7 0.857713 0.553052 0.835349
O O8 0.048116 0.648002 0.826089
O O9 0.684714 0.900909 0.910498
O O10 0.755803 0.755803 0.000000
O O11 0.379483 0.185171 0.371325
O O12 0.555102 0.169666 0.277548
O O13 0.500000 0.000000 0.359341
O O14 0.737060 0.347875 0.839756
#
# Coordination Sequence:
#
# PCOD9549969 Si02
#       6
#     8   8   8   8   8   8
#     4  10  21  37  57  89 125 156 200 259 317 371
#     4  10  20  36  59  84 121 151 206 255 304 375
#     4  11  22  39  59  86 123 164 207 252 304 384
#     4  11  19  38  59  87 123 160 203 258 311 370
#     4  11  20  35  62  86 117 161 200 260 321 359
#     4  10  19  36  58  88 117 155 198 263 314 358
#
# _framework density 18.901464000000001
#
# number of rings (size 3 to 8) (size 9 to 14) (size 15 to 20)
#    0.000    1.500    6.667    1.000    0.000    0.000 
#    3.000    4.167    0.000    1.000    0.000    0.000 
#    0.000    0.000    0.000    0.000    0.000    0.000 
#
# Total GULP energy -267330.439757 kJ/mol
# GULP energy per Si atom -5569.384162 kJ/mol
# Density = 1.885844 g / cm^3
# Si number density = 18.901464 Si / 1000 Ang^3
#
#
#
# Elastic Constant Matrix: (Units=GPa)
#
#
# Indices 1 2 3 4 5 6 
#
# 1 80.1056 31.1101 26.9740 0.0000 0.0000 0.0000
# 2 31.1101 80.1056 26.9740 0.0000 0.0000 0.0000
# 3 26.9740 26.9740 31.8886 0.0000 0.0000 0.0000
# 4 0.0000 0.0000 0.0000 18.4977 0.0000 0.0000
# 5 0.0000 0.0000 0.0000 0.0000 18.4977 0.0000
# 6 0.0000 0.0000 0.0000 0.0000 0.0000 25.2378
#
#
#
# Elastic Compliance Matrix: (Units=1/GPa)
#
#
# Indices 1 2 3 4 5 6 
#
# 1 0.017829 -0.002581 -0.012898 0.000000 0.000000 0.000000
# 2 -0.002581 0.017829 -0.012898 0.000000 0.000000 0.000000
# 3 -0.012898 -0.012898 0.053180 0.000000 0.000000 0.000000
# 4 0.000000 0.000000 0.000000 0.054061 0.000000 0.000000
# 5 0.000000 0.000000 0.000000 0.000000 0.054061 0.000000
# 6 0.000000 0.000000 0.000000 0.000000 0.000000 0.039623
#
#
# Mechanical properties :
#
#
# Convention : Reuss Voigt Hill
#
# Bulk Modulus (GPa) = 31.16863 40.24622 35.70742
# Shear Modulus (GPa) = 16.44565 19.58274 18.01420
#
# Velocity S-wave (km/s) = 2.95290 3.22226 3.09051
# Velocity P-wave (km/s) = 5.30585 5.93151 5.62738
#
# Compressibility (1/GPa) = 0.03208355
#
# Stress axis : x y z
#
# Youngs Moduli (GPa) = 56.08817 56.08817 18.80410
#
# Poissons Ratio (x) = 0.14476 0.24254
# Poissons Ratio (y) = 0.14476 0.24254
# Poissons Ratio (z) = 0.72343 0.72343
#
# Static dielectric constant tensor:
#      x y z
#    x 1.680790 0.000000 0.000000 
#    y 0.000000 1.680790 0.000000 
#    z 0.000000 0.000000 1.679360 
# 
# From -- ./inp_files/4083.got.cif
#   From: 2010.05.17/outbox.cif.g08.bks.cpg/sg94_3_cif.got.tgz:4083.got - 2010.06.03 19:43:16.
