data_PCOD9549338
_publ_section_title
;
Structure prediction by ZEFSAII (Michael W. Deem and Ramdas Pophale) SiO2 
 PCOD9549338
Probable space group: P 41 21 2
;
_chemical_formula_sum "Si O2"
_cell_formula_units_Z 48
_cell_length_a 11.093082
_cell_length_b 11.093082
_cell_length_c 15.749467
_cell_angle_alpha 90.000000
_cell_angle_beta 90.000000
_cell_angle_gamma 90.000000
_cell_volume 1938.073786
_symmetry_space_group_name_H-M "P 41 21 2"
_symmetry_group_IT_number 92
_symmetry_cell_setting 'tetragonal'
loop_
_space_group_symop_operation_xyz
x,y,z
1/2-y,1/2+x,1/4+z
-x,-y,1/2+z
1/2+y,1/2-x,3/4+z
1/2+x,1/2-y,3/4-z
1/2-x,1/2+y,1/4-z
y,x,-z
-y,-x,1/2-z
loop_
_atom_site_type_symbol
_atom_site_label
_atom_site_fract_x
_atom_site_fract_y
_atom_site_fract_z
Si Si1 0.269241 0.481400 0.354328
Si Si2 0.045390 0.168973 0.846646
Si Si3 0.351980 0.518777 0.897196
Si Si4 0.103987 0.561706 0.504610
Si Si5 0.863276 0.575562 0.304951
Si Si6 0.291357 0.457168 0.640823
O O1 0.365535 0.587570 0.347550
O O2 0.167971 0.533102 0.416703
O O3 0.345040 0.370100 0.393314
O O4 0.198824 0.433016 0.272630
O O5 0.087583 0.306065 0.851486
O O6 0.060606 0.140357 0.745273
O O7 0.912543 0.114094 0.862213
O O8 0.214969 0.508243 0.867835
O O9 0.434428 0.612684 0.845943
O O10 0.195306 0.513941 0.577025
O O11 0.989078 0.478062 0.515386
O O12 0.771291 0.589352 0.226258
#
# Coordination Sequence:
#
# PCOD9549338 Si02
#       6
#     8   8   8   8   8   8
#     4  11  24  44  70  95 139 178 233 283 352 423
#     4  10  23  46  65  91 132 189 222 276 347 417
#     4  10  23  43  68  91 133 180 229 272 347 416
#     4  12  24  39  68 105 131 173 229 292 344 412
#     4  12  25  38  67  99 136 167 228 284 344 415
#     4  11  23  42  67  99 130 180 222 287 350 406
#
# _framework density 24.766860000000001
#
# number of rings (size 3 to 8) (size 9 to 14) (size 15 to 20)
#    0.000    1.000    3.333    3.000    4.667    1.333 
#    0.000    0.000    3.667    0.000    0.000    0.000 
#    0.000    0.000    0.000    0.000    0.000    0.000 
#
# Total GULP energy -268703.988047 kJ/mol
# GULP energy per Si atom -5597.999751 kJ/mol
# Density = 2.471049 g / cm^3
# Si number density = 24.766860 Si / 1000 Ang^3
#
#
#
# Elastic Constant Matrix: (Units=GPa)
#
#
# Indices 1 2 3 4 5 6 
#
# 1 88.0638 22.4051 9.3308 0.0000 0.0000 0.0000
# 2 22.4051 88.0638 9.3308 0.0000 0.0000 0.0000
# 3 9.3308 9.3308 85.1409 0.0000 0.0000 0.0000
# 4 0.0000 0.0000 0.0000 32.9065 0.0000 0.0000
# 5 0.0000 0.0000 0.0000 0.0000 32.9065 0.0000
# 6 0.0000 0.0000 0.0000 0.0000 0.0000 34.8198
#
#
#
# Elastic Compliance Matrix: (Units=1/GPa)
#
#
# Indices 1 2 3 4 5 6 
#
# 1 0.012227 -0.003004 -0.001011 0.000000 0.000000 0.000000
# 2 -0.003004 0.012227 -0.001011 0.000000 0.000000 0.000000
# 3 -0.001011 -0.001011 0.011967 0.000000 0.000000 0.000000
# 4 0.000000 0.000000 0.000000 0.030389 0.000000 0.000000
# 5 0.000000 0.000000 0.000000 0.000000 0.030389 0.000000
# 6 0.000000 0.000000 0.000000 0.000000 0.000000 0.028719
#
#
# Mechanical properties :
#
#
# Convention : Reuss Voigt Hill
#
# Bulk Modulus (GPa) = 37.92214 38.15576 38.03895
# Shear Modulus (GPa) = 34.54043 34.80670 34.67356
#
# Velocity S-wave (km/s) = 3.73852 3.75290 3.74571
# Velocity P-wave (km/s) = 5.82926 5.84965 5.83946
#
# Compressibility (1/GPa) = 0.02636982
#
# Stress axis : x y z
#
# Youngs Moduli (GPa) = 81.78846 81.78846 83.56465
#
# Poissons Ratio (x) = 0.24566 0.08447
# Poissons Ratio (y) = 0.24566 0.08447
# Poissons Ratio (z) = 0.08267 0.08267
#
# Static dielectric constant tensor:
#      x y z
#    x 1.937790 0.000000 0.000000 
#    y 0.000000 1.937790 0.000000 
#    z 0.000000 0.000000 1.991350 
# 
# From -- ./inp_files/3089.got.cif
#   From: 2010.05.17/outbox.cif.g08.bks.cpg/sg92_2_cif.got.tgz:3089.got - 2010.06.03 19:35:17.
