data_PCOD9549631
_publ_section_title
;
Structure prediction by ZEFSAII (Michael W. Deem and Ramdas Pophale) SiO2 
 PCOD9549631
Probable space group: P 42 2 2
;
_chemical_formula_sum "Si O2"
_cell_formula_units_Z 58
_cell_length_a 17.441666
_cell_length_b 17.441666
_cell_length_c 8.946949
_cell_angle_alpha 90.000000
_cell_angle_beta 90.000000
_cell_angle_gamma 90.000000
_cell_volume 2721.766680
_symmetry_space_group_name_H-M "P 42 2 2"
_symmetry_group_IT_number 93
_symmetry_cell_setting 'tetragonal'
loop_
_space_group_symop_operation_xyz
x,y,z
-y,x,1/2+z
-x,-y,z
y,-x,1/2+z
x,-y,-z
-x,y,-z
y,x,1/2-z
-y,-x,1/2-z
loop_
_atom_site_type_symbol
_atom_site_label
_atom_site_fract_x
_atom_site_fract_y
_atom_site_fract_z
Si Si1 0.200890 0.540971 0.838191
Si Si2 0.085980 0.681724 0.383563
Si Si3 0.243027 0.396824 0.673685
Si Si4 0.289375 0.339131 0.990674
Si Si5 0.066075 0.353353 0.267449
Si Si6 0.143302 0.095916 0.901568
Si Si7 0.233451 0.163635 0.389958
Si Si8 0.000000 0.000000 0.500000
O O1 0.217951 0.484212 0.700175
O O2 0.121229 0.582566 0.799467
O O3 0.191198 0.500000 0.000000
O O4 0.268687 0.602867 0.874422
O O5 0.169718 0.659541 0.328361
O O6 0.085458 0.656177 0.556812
O O7 0.061179 0.771287 0.390914
O O8 0.025143 0.638701 0.277157
O O9 0.284519 0.382366 0.832522
O O10 0.292229 0.368413 0.530775
O O11 0.217045 0.280888 0.997934
O O12 0.090897 0.279226 0.171204
O O13 0.142464 0.142464 0.750000
O O14 0.142007 0.152272 0.041981
O O15 0.063634 0.049294 0.910134
O O16 0.218631 0.218631 0.250000
#
# Coordination Sequence:
#
# PCOD9549631 Si02
#       8
#     8   8   8   8   8   8   8   2
#     4   9  20  37  58  90 130 169 215 274 331 398
#     4  11  22  39  62  86 121 168 226 273 333 409
#     4  10  18  35  59  87 122 171 215 269 320 396
#     4   9  18  35  57  87 120 166 210 259 324 383
#     4  10  22  38  59  88 124 168 214 273 338 396
#     4  12  26  43  60  87 119 162 226 286 346 403
#     4  11  20  37  62  83 115 162 213 273 330 391
#     4  12  30  44  60  82 122 166 222 302 362 396
#
# _framework density 21.309688000000001
#
# number of rings (size 3 to 8) (size 9 to 14) (size 15 to 20)
#    0.000    1.655    2.759    1.862    1.931    1.103 
#    0.000   10.345    0.000    0.000    0.000    0.000 
#    0.000    0.000   23.448 1012.690    0.000    0.000 
#
# Total GULP energy -322973.279801 kJ/mol
# GULP energy per Si atom -5568.504824 kJ/mol
# Density = 2.126119 g / cm^3
# Si number density = 21.309688 Si / 1000 Ang^3
#
#
#
# Elastic Constant Matrix: (Units=GPa)
#
#
# Indices 1 2 3 4 5 6 
#
# 1 73.2795 60.0514 26.3237 0.0000 0.0000 0.0000
# 2 60.0514 73.2795 26.3237 0.0000 0.0000 0.0000
# 3 26.3237 26.3237 59.3053 0.0000 0.0000 0.0000
# 4 0.0000 0.0000 0.0000 27.6553 0.0000 0.0000
# 5 0.0000 0.0000 0.0000 0.0000 27.6553 0.0000
# 6 0.0000 0.0000 0.0000 0.0000 0.0000 6.3303
#
#
#
# Elastic Compliance Matrix: (Units=1/GPa)
#
#
# Indices 1 2 3 4 5 6 
#
# 1 0.042345 -0.033251 -0.004037 0.000000 0.000000 0.000000
# 2 -0.033251 0.042345 -0.004037 0.000000 0.000000 0.000000
# 3 -0.004037 -0.004037 0.020445 0.000000 0.000000 0.000000
# 4 0.000000 0.000000 0.000000 0.036159 0.000000 0.000000
# 5 0.000000 0.000000 0.000000 0.000000 0.036159 0.000000
# 6 0.000000 0.000000 0.000000 0.000000 0.000000 0.157969
#
#
# Mechanical properties :
#
#
# Convention : Reuss Voigt Hill
#
# Bulk Modulus (GPa) = 44.46983 47.91797 46.19390
# Shear Modulus (GPa) = 11.74899 18.53921 15.14410
#
# Velocity S-wave (km/s) = 2.35062 2.95276 2.66873
# Velocity P-wave (km/s) = 5.31798 5.84468 5.58754
#
# Compressibility (1/GPa) = 0.02248715
#
# Stress axis : x y z
#
# Youngs Moduli (GPa) = 23.61535 23.61535 48.91112
#
# Poissons Ratio (x) = 0.78524 0.19743
# Poissons Ratio (y) = 0.78524 0.19743
# Poissons Ratio (z) = 0.09532 0.09532
#
# Static dielectric constant tensor:
#      x y z
#    x 1.862050 0.000000 0.000000 
#    y 0.000000 1.862050 0.000000 
#    z 0.000000 0.000000 1.606530 
# 
# From -- ./inp_files/2158.got.cif
#   From: 2010.05.17/outbox.cif.g08.bks.cpg/sg93_2_cif.got.tgz:2158.got - 2010.06.03 19:38:44.
