data_PCOD9549106
_publ_section_title
;
Structure prediction by ZEFSAII (Michael W. Deem and Ramdas Pophale) SiO2 
 PCOD9549106
Probable space group: P 41 21 2
;
_chemical_formula_sum "Si O2"
_cell_formula_units_Z 32
_cell_length_a 7.704304
_cell_length_b 7.704304
_cell_length_c 21.903744
_cell_angle_alpha 90.000000
_cell_angle_beta 90.000000
_cell_angle_gamma 90.000000
_cell_volume 1300.125203
_symmetry_space_group_name_H-M "P 41 21 2"
_symmetry_group_IT_number 92
_symmetry_cell_setting 'tetragonal'
loop_
_space_group_symop_operation_xyz
x,y,z
1/2-y,1/2+x,1/4+z
-x,-y,1/2+z
1/2+y,1/2-x,3/4+z
1/2+x,1/2-y,3/4-z
1/2-x,1/2+y,1/4-z
y,x,-z
-y,-x,1/2-z
loop_
_atom_site_type_symbol
_atom_site_label
_atom_site_fract_x
_atom_site_fract_y
_atom_site_fract_z
Si Si1 0.901169 0.149505 0.909408
Si Si2 0.001156 0.378026 0.509329
Si Si3 0.696430 0.279104 0.353442
Si Si4 0.556647 0.214114 0.681252
O O1 0.092110 0.127752 0.936033
O O2 0.877247 0.316365 0.868230
O O3 0.755332 0.139270 0.962262
O O4 0.867409 0.967244 0.873083
O O5 0.160115 0.352628 0.558200
O O6 0.062495 0.307932 0.444582
O O7 0.946686 0.576330 0.513750
O O8 0.732277 0.134853 0.402815
#
# Coordination Sequence:
#
# PCOD9549106 Si02
#       4
#     8   8   8   8
#     4  10  21  36  61  87 116 154 193 246 286 353
#     4   9  21  39  56  90 114 149 202 240 293 350
#     4   9  21  39  59  86 119 152 195 248 295 342
#     4  12  20  38  66  82 122 161 195 238 302 354
#
# _framework density 24.613015000000001
#
# number of rings (size 3 to 8) (size 9 to 14) (size 15 to 20)
#    1.500    0.500    2.500    1.500    0.000    4.000 
#    0.000    0.000    0.000    0.000    0.000    0.000 
#    0.000    0.000    0.000    0.000    0.000    0.000 
#
# Total GULP energy -178813.740680 kJ/mol
# GULP energy per Si atom -5587.929396 kJ/mol
# Density = 2.455699 g / cm^3
# Si number density = 24.613015 Si / 1000 Ang^3
#
#
#
# Elastic Constant Matrix: (Units=GPa)
#
#
# Indices 1 2 3 4 5 6 
#
# 1 137.4264 44.6460 22.3919 0.0000 0.0000 0.0000
# 2 44.6460 137.4264 22.3919 0.0000 0.0000 0.0000
# 3 22.3919 22.3919 50.0884 0.0000 0.0000 0.0000
# 4 0.0000 0.0000 0.0000 27.6283 0.0000 0.0000
# 5 0.0000 0.0000 0.0000 0.0000 27.6283 0.0000
# 6 0.0000 0.0000 0.0000 0.0000 0.0000 19.0902
#
#
#
# Elastic Compliance Matrix: (Units=1/GPa)
#
#
# Indices 1 2 3 4 5 6 
#
# 1 0.008474 -0.002304 -0.002759 0.000000 0.000000 0.000000
# 2 -0.002304 0.008474 -0.002759 0.000000 0.000000 0.000000
# 3 -0.002759 -0.002759 0.022431 0.000000 0.000000 0.000000
# 4 0.000000 0.000000 0.000000 0.036195 0.000000 0.000000
# 5 0.000000 0.000000 0.000000 0.000000 0.036195 0.000000
# 6 0.000000 0.000000 0.000000 0.000000 0.000000 0.052383
#
#
# Mechanical properties :
#
#
# Convention : Reuss Voigt Hill
#
# Bulk Modulus (GPa) = 42.12604 55.97783 49.05193
# Shear Modulus (GPa) = 26.63722 30.57014 28.60368
#
# Velocity S-wave (km/s) = 3.29331 3.52807 3.41271
# Velocity P-wave (km/s) = 5.62261 6.27606 5.95830
#
# Compressibility (1/GPa) = 0.02373829
#
# Stress axis : x y z
#
# Youngs Moduli (GPa) = 118.00107 118.00107 44.58071
#
# Poissons Ratio (x) = 0.27183 0.12298
# Poissons Ratio (y) = 0.27183 0.12298
# Poissons Ratio (z) = 0.32553 0.32553
#
# Static dielectric constant tensor:
#      x y z
#    x 1.965730 0.000000 0.000000 
#    y 0.000000 1.965730 0.000000 
#    z 0.000000 0.000000 1.775550 
# 
# From -- ./inp_files/4034.got.cif
#   From: 2010.05.17/outbox.cif.g08.bks.cpg/sg92_3_cif.got.tgz:4034.got - 2010.06.03 19:35:17.
