data_PCOD9549368
_publ_section_title
;
Structure prediction by ZEFSAII (Michael W. Deem and Ramdas Pophale) SiO2 
 PCOD9549368
Probable space group: P 41 21 2
;
_chemical_formula_sum "Si O2"
_cell_formula_units_Z 56
_cell_length_a 14.778061
_cell_length_b 14.778061
_cell_length_c 12.074854
_cell_angle_alpha 90.000000
_cell_angle_beta 90.000000
_cell_angle_gamma 90.000000
_cell_volume 2637.040489
_symmetry_space_group_name_H-M "P 41 21 2"
_symmetry_group_IT_number 92
_symmetry_cell_setting 'tetragonal'
loop_
_space_group_symop_operation_xyz
x,y,z
1/2-y,1/2+x,1/4+z
-x,-y,1/2+z
1/2+y,1/2-x,3/4+z
1/2+x,1/2-y,3/4-z
1/2-x,1/2+y,1/4-z
y,x,-z
-y,-x,1/2-z
loop_
_atom_site_type_symbol
_atom_site_label
_atom_site_fract_x
_atom_site_fract_y
_atom_site_fract_z
Si Si1 0.025957 0.230120 0.174464
Si Si2 0.353305 0.143327 0.169579
Si Si3 0.703598 0.164230 0.306632
Si Si4 0.946506 0.721351 0.106288
Si Si5 0.053925 0.097809 0.738038
Si Si6 0.270234 0.505477 0.177634
Si Si7 0.808004 0.280232 0.930535
O O1 0.045597 0.149175 0.259484
O O2 0.118254 0.282418 0.150614
O O3 0.943333 0.292682 0.212121
O O4 0.998439 0.194642 0.052571
O O5 0.455842 0.175845 0.158684
O O6 0.328168 0.105631 0.291900
O O7 0.321528 0.063388 0.087241
O O8 0.288853 0.229526 0.148282
O O9 0.790112 0.209889 0.250000
O O10 0.615355 0.207670 0.251409
O O11 0.713204 0.184298 0.436140
O O12 0.954513 0.827114 0.141640
O O13 0.053649 0.157583 0.849833
O O14 0.972158 0.027843 0.750000
O O15 0.251272 0.404414 0.135000
#
# Coordination Sequence:
#
# PCOD9549368 Si02
#       7
#     8   8   8   8   8   8   8
#     4  11  23  41  68  95 131 178 215 283 329 415
#     4  11  24  45  67  99 134 172 228 277 336 403
#     4  11  23  43  65  93 135 175 223 268 336 409
#     4  11  25  44  68  97 138 176 224 280 334 407
#     4  11  22  44  67 102 132 172 233 277 340 399
#     4  10  24  41  67  95 132 172 221 271 347 395
#     4  11  23  43  67  98 133 177 218 277 345 396
#
# _framework density 21.235925999999999
#
# number of rings (size 3 to 8) (size 9 to 14) (size 15 to 20)
#    0.000    1.143    4.286    1.714    6.000    1.143 
#    0.000    4.286    0.000    0.000    0.000    0.000 
#    0.000    0.000    0.000    0.000    0.000    0.000 
#
# Total GULP energy -313035.007136 kJ/mol
# GULP energy per Si atom -5589.910842 kJ/mol
# Density = 2.118759 g / cm^3
# Si number density = 21.235926 Si / 1000 Ang^3
#
#
#
# Elastic Constant Matrix: (Units=GPa)
#
#
# Indices 1 2 3 4 5 6 
#
# 1 89.3190 26.5054 -8.7731 0.0000 0.0000 0.0000
# 2 26.5054 89.3141 -8.7731 0.0000 0.0000 0.0000
# 3 -8.7731 -8.7731 29.5020 0.0000 0.0000 0.0000
# 4 0.0000 0.0000 0.0000 23.5294 0.0000 0.0000
# 5 0.0000 0.0000 0.0000 0.0000 23.5296 0.0000
# 6 0.0000 0.0000 0.0000 0.0000 0.0000 36.6738
#
#
#
# Elastic Compliance Matrix: (Units=1/GPa)
#
#
# Indices 1 2 3 4 5 6 
#
# 1 0.012481 -0.003440 0.002689 0.000000 0.000000 0.000000
# 2 -0.003440 0.012481 0.002689 0.000000 0.000000 0.000000
# 3 0.002689 0.002689 0.035495 0.000000 0.000000 0.000000
# 4 0.000000 0.000000 0.000000 0.042500 0.000000 0.000000
# 5 0.000000 0.000000 0.000000 0.000000 0.042500 0.000000
# 6 0.000000 0.000000 0.000000 0.000000 0.000000 0.027267
#
#
# Mechanical properties :
#
#
# Convention : Reuss Voigt Hill
#
# Bulk Modulus (GPa) = 15.54435 25.11706 20.33070
# Shear Modulus (GPa) = 26.27527 30.02497 28.15012
#
# Velocity S-wave (km/s) = 3.52135 3.76423 3.64481
# Velocity P-wave (km/s) = 4.88558 5.54490 5.22565
#
# Compressibility (1/GPa) = 0.06433204
#
# Stress axis : x y z
#
# Youngs Moduli (GPa) = 80.12412 80.11953 28.17295
#
# Poissons Ratio (x) = 0.27559 -0.07574
# Poissons Ratio (y) = 0.27561 -0.07575
# Poissons Ratio (z) = -0.21542 -0.21542
#
# Static dielectric constant tensor:
#      x y z
#    x 1.794980 0.000000 0.000000 
#    y 0.000000 1.794960 0.000000 
#    z 0.000000 0.000000 2.854700 
# 
# From -- ./inp_files/2270.got.cif
#   From: 2010.05.17/outbox.cif.g08.bks.cpg/sg92_2_cif.got.tgz:2270.got - 2010.06.03 19:35:17.
