data_PCOD9549617
_publ_section_title
;
Structure prediction by ZEFSAII (Michael W. Deem and Ramdas Pophale) SiO2 
 PCOD9549617
Probable space group: P 42 2 2
;
_chemical_formula_sum "Si O2"
_cell_formula_units_Z 56
_cell_length_a 18.220426
_cell_length_b 18.220426
_cell_length_c 12.044886
_cell_angle_alpha 90.000000
_cell_angle_beta 90.000000
_cell_angle_gamma 90.000000
_cell_volume 3998.708514
_symmetry_space_group_name_H-M "P 42 2 2"
_symmetry_group_IT_number 93
_symmetry_cell_setting 'tetragonal'
loop_
_space_group_symop_operation_xyz
x,y,z
-y,x,1/2+z
-x,-y,z
y,-x,1/2+z
x,-y,-z
-x,y,-z
y,x,1/2-z
-y,-x,1/2-z
loop_
_atom_site_type_symbol
_atom_site_label
_atom_site_fract_x
_atom_site_fract_y
_atom_site_fract_z
Si Si1 0.189457 0.807225 0.438977
Si Si2 0.817231 0.965819 0.277283
Si Si3 0.920584 0.417640 0.140701
Si Si4 0.911765 0.924738 0.061687
Si Si5 0.271455 0.817522 0.663750
Si Si6 0.095271 0.413519 0.121846
Si Si7 0.112374 0.724429 0.257682
O O1 0.129047 0.864640 0.483929
O O2 0.243177 0.792249 0.542373
O O3 0.145461 0.741987 0.378340
O O4 0.236069 0.842261 0.339912
O O5 0.860596 0.948943 0.165015
O O6 0.876945 0.975368 0.376864
O O7 0.773174 0.892549 0.309625
O O8 0.762504 0.032720 0.256607
O O9 0.893834 0.501332 0.154007
O O10 0.887442 0.360566 0.226428
O O11 0.008748 0.405471 0.151310
O O12 0.902754 0.401620 0.011536
O O13 0.928509 0.000000 0.000000
O O14 0.243846 0.756155 0.750000
O O15 0.355266 0.846276 0.668571
#
# Coordination Sequence:
#
# PCOD9549617 Si02
#       7
#     8   8   8   8   8   8   8
#     4  10  21  29  44  64  82 115 156 189 236 283
#     4  10  19  28  46  61  76 115 153 198 240 265
#     4   9  17  28  47  67  94 119 142 204 239 280
#     4  10  18  32  42  55  81 110 160 197 237 281
#     4  11  18  30  47  69  88 117 155 192 227 279
#     4   9  17  28  45  73  90 114 158 185 246 281
#     4  11  19  31  45  63  88 115 148 194 239 281
#
# _framework density 14.004522
#
# number of rings (size 3 to 8) (size 9 to 14) (size 15 to 20)
#    0.000    2.000    7.143    0.857    0.000    2.286 
#    0.000    1.429    0.000    0.857    0.000    2.000 
#    0.000    0.000    0.000    2.571    8.000    0.286 
#
# Total GULP energy -311780.659239 kJ/mol
# GULP energy per Si atom -5567.511772 kJ/mol
# Density = 1.397265 g / cm^3
# Si number density = 14.004522 Si / 1000 Ang^3
#
#
#
# Elastic Constant Matrix: (Units=GPa)
#
#
# Indices 1 2 3 4 5 6 
#
# 1 75.6415 31.7421 31.1430 0.0000 0.0000 0.0000
# 2 31.7421 75.6412 31.1436 0.0000 0.0000 0.0000
# 3 31.1430 31.1436 71.1940 0.0000 0.0000 0.0000
# 4 0.0000 0.0000 0.0000 16.8134 0.0000 0.0000
# 5 0.0000 0.0000 0.0000 0.0000 16.8135 0.0000
# 6 0.0000 0.0000 0.0000 0.0000 0.0000 13.2893
#
#
#
# Elastic Compliance Matrix: (Units=1/GPa)
#
#
# Indices 1 2 3 4 5 6 
#
# 1 0.017629 -0.005150 -0.005459 0.000000 0.000000 0.000000
# 2 -0.005150 0.017629 -0.005459 0.000000 0.000000 0.000000
# 3 -0.005459 -0.005459 0.018822 0.000000 0.000000 0.000000
# 4 0.000000 0.000000 0.000000 0.059477 0.000000 0.000000
# 5 0.000000 0.000000 0.000000 0.000000 0.059476 0.000000
# 6 0.000000 0.000000 0.000000 0.000000 0.000000 0.075249
#
#
# Mechanical properties :
#
#
# Convention : Reuss Voigt Hill
#
# Bulk Modulus (GPa) = 45.56971 45.61491 45.59231
# Shear Modulus (GPa) = 17.37731 17.94643 17.66187
#
# Velocity S-wave (km/s) = 3.52637 3.58365 3.55513
# Velocity P-wave (km/s) = 7.01358 7.05448 7.03406
#
# Compressibility (1/GPa) = 0.02194440
#
# Stress axis : x y z
#
# Youngs Moduli (GPa) = 56.72483 56.72417 53.12964
#
# Poissons Ratio (x) = 0.29215 0.29001
# Poissons Ratio (y) = 0.29215 0.29003
# Poissons Ratio (z) = 0.30964 0.30965
#
# Static dielectric constant tensor:
#      x y z
#    x 1.478530 0.000000 0.000000 
#    y 0.000000 1.478530 0.000000 
#    z 0.000000 0.000000 1.472930 
# 
# From -- ./inp_files/3556.got.cif
#   From: 2010.05.17/outbox.cif.g08.bks.cpg/sg93_2_cif.got.tgz:3556.got - 2010.06.03 19:38:44.
