data_PCOD9549567
_publ_section_title
;
Structure prediction by ZEFSAII (Michael W. Deem and Ramdas Pophale) SiO2 
 PCOD9549567
Probable space group: P 41 21 2
;
_chemical_formula_sum "Si O2"
_cell_formula_units_Z 36
_cell_length_a 12.345543
_cell_length_b 12.345543
_cell_length_c 11.182656
_cell_angle_alpha 90.000000
_cell_angle_beta 90.000000
_cell_angle_gamma 90.000000
_cell_volume 1704.375797
_symmetry_space_group_name_H-M "P 41 21 2"
_symmetry_group_IT_number 92
_symmetry_cell_setting 'tetragonal'
loop_
_space_group_symop_operation_xyz
x,y,z
1/2-y,1/2+x,1/4+z
-x,-y,1/2+z
1/2+y,1/2-x,3/4+z
1/2+x,1/2-y,3/4-z
1/2-x,1/2+y,1/4-z
y,x,-z
-y,-x,1/2-z
loop_
_atom_site_type_symbol
_atom_site_label
_atom_site_fract_x
_atom_site_fract_y
_atom_site_fract_z
Si Si1 0.254527 0.655622 0.965503
Si Si2 0.398195 0.601806 0.750000
Si Si3 0.510004 0.919116 0.451757
Si Si4 0.865689 0.130136 0.392278
Si Si5 0.760977 0.903327 0.411152
O O1 0.297338 0.609204 0.840471
O O2 0.178063 0.759122 0.947920
O O3 0.186018 0.566270 0.036981
O O4 0.361252 0.697811 0.033251
O O5 0.392834 0.487748 0.682472
O O6 0.473352 0.989300 0.335209
O O7 0.633769 0.887939 0.426498
O O8 0.859732 0.140269 0.250000
O O9 0.792302 0.028028 0.429797
O O10 0.827180 0.827180 0.500000
#
# Coordination Sequence:
#
# PCOD9549567 Si02
#       5
#     8   4   8   8   8
#     4  12  27  48  74 110 149 201 255 312 384 454
#     4  12  26  46  74 112 152 198 260 316 382 460
#     4  12  28  48  76 112 155 200 254 323 385 464
#     4  12  26  46  75 108 154 195 246 313 378 457
#     4  12  26  49  72 108 147 199 252 308 380 454
#
# _framework density 21.122102999999999
#
# number of rings (size 3 to 8) (size 9 to 14) (size 15 to 20)
#    0.000    0.000    6.667    2.667    3.111    3.556 
#    0.000    0.000    0.000    0.000    0.000    0.000 
#    0.000    0.000    0.000    0.000    0.000    0.000 
#
# Total GULP energy -201450.180048 kJ/mol
# GULP energy per Si atom -5595.838335 kJ/mol
# Density = 2.107403 g / cm^3
# Si number density = 21.122103 Si / 1000 Ang^3
#
#
#
# Elastic Constant Matrix: (Units=GPa)
#
#
# Indices 1 2 3 4 5 6 
#
# 1 89.3743 94.5740 17.6733 0.0000 0.0000 0.0000
# 2 94.5740 89.3792 17.6732 0.0000 0.0000 0.0000
# 3 17.6733 17.6732 87.0868 0.0000 0.0000 0.0000
# 4 0.0000 0.0000 0.0000 20.2737 0.0000 0.0000
# 5 0.0000 0.0000 0.0000 0.0000 20.2734 0.0000
# 6 0.0000 0.0000 0.0000 0.0000 0.0000 28.3347
#
#
#
# Elastic Compliance Matrix: (Units=1/GPa)
#
#
# Indices 1 2 3 4 5 6 
#
# 1 -0.093379 0.099033 -0.001147 0.000000 0.000000 0.000000
# 2 0.099033 -0.093374 -0.001149 0.000000 0.000000 0.000000
# 3 -0.001147 -0.001149 0.011949 0.000000 0.000000 0.000000
# 4 0.000000 0.000000 0.000000 0.049325 0.000000 0.000000
# 5 0.000000 0.000000 0.000000 0.000000 0.049326 0.000000
# 6 0.000000 0.000000 0.000000 0.000000 0.000000 0.035292
#
#
# Mechanical properties :
#
#
# Convention : Reuss Voigt Hill
#
# Bulk Modulus (GPa) = 53.56058 58.40902 55.98480
# Shear Modulus (GPa) = -21.91913 22.83767 0.45927
#
# Velocity S-wave (km/s) = -3.22488 3.29176 0.46681
# Velocity P-wave (km/s) = 3.39796 6.49312 5.18203
#
# Compressibility (1/GPa) = 0.01867045
#
# Stress axis : x y z
#
# Youngs Moduli (GPa) = -10.70905 -10.70967 83.69082
#
# Poissons Ratio (x) = 1.06061 0.09602
# Poissons Ratio (y) = 1.06055 0.09613
# Poissons Ratio (z) = -0.01229 -0.01230
#
# Static dielectric constant tensor:
#      x y z
#    x 1.717500 0.000000 0.000000 
#    y 0.000000 1.717500 0.000000 
#    z 0.000000 0.000000 1.813360 
# 
# From -- ./inp_files/1976.got.cif
#   From: 2010.05.17/outbox.cif.g08.bks.cpg/sg92_1_cif.got.tgz:1976.got - 2010.06.03 19:35:17.
