data_PCOD9549770
_publ_section_title
;
Structure prediction by ZEFSAII (Michael W. Deem and Ramdas Pophale) SiO2 
 PCOD9549770
Probable space group: P 42 2 2
;
_chemical_formula_sum "Si O2"
_cell_formula_units_Z 64
_cell_length_a 11.702349
_cell_length_b 11.702349
_cell_length_c 23.014292
_cell_angle_alpha 90.000000
_cell_angle_beta 90.000000
_cell_angle_gamma 90.000000
_cell_volume 3151.691576
_symmetry_space_group_name_H-M "P 42 2 2"
_symmetry_group_IT_number 93
_symmetry_cell_setting 'tetragonal'
loop_
_space_group_symop_operation_xyz
x,y,z
-y,x,1/2+z
-x,-y,z
y,-x,1/2+z
x,-y,-z
-x,y,-z
y,x,1/2-z
-y,-x,1/2-z
loop_
_atom_site_type_symbol
_atom_site_label
_atom_site_fract_x
_atom_site_fract_y
_atom_site_fract_z
Si Si1 0.443422 0.711653 0.170927
Si Si2 0.782584 0.820426 0.405440
Si Si3 0.372832 0.137004 0.510960
Si Si4 0.257671 0.079703 0.624700
Si Si5 0.559653 0.120603 0.061151
Si Si6 0.350075 0.308852 0.314760
Si Si7 0.415071 0.210244 0.702408
Si Si8 0.960934 0.181657 0.437231
O O1 0.447378 0.785302 0.112029
O O2 0.555125 0.631838 0.177852
O O3 0.328826 0.639754 0.179930
O O4 0.436796 0.791522 0.228432
O O5 0.722126 0.811136 0.468424
O O6 0.738502 0.723312 0.363742
O O7 0.917889 0.813223 0.406190
O O8 0.742540 0.943982 0.382243
O O9 0.500000 0.181567 0.500000
O O10 0.336926 0.144148 0.577325
O O11 0.373250 0.000000 0.500000
O O12 0.321259 0.117031 0.683454
O O13 0.131168 0.116967 0.603092
O O14 0.692699 0.090240 0.051539
O O15 0.500000 0.000000 0.078214
O O16 0.500000 0.155546 0.000000
O O17 0.299441 0.299441 0.250000
O O18 0.456739 0.223000 0.322461
O O19 0.000000 0.130676 0.500000
#
# Coordination Sequence:
#
# PCOD9549770 Si02
#       8
#     8   8   8   8   8   8   8   8
#     4  10  21  41  66  92 122 167 216 264 336 405
#     4  11  23  38  60  89 127 169 216 270 326 393
#     4   9  18  32  54  82 116 159 200 252 317 375
#     4  11  22  38  60  90 126 169 219 267 318 394
#     4  11  22  38  63  97 129 166 210 273 339 396
#     4  10  22  41  64  92 122 163 214 271 332 395
#     4  10  21  41  66  93 123 168 217 269 324 405
#     4  12  22  39  63  92 128 171 219 265 330 405
#
# _framework density 20.306556
#
# number of rings (size 3 to 8) (size 9 to 14) (size 15 to 20)
#    0.000    1.500    3.750    2.250    0.000    3.500 
#    6.750    0.000    0.000    1.500    0.000    0.000 
#    0.000    0.000    0.000    0.000    0.000    0.000 
#
# Total GULP energy -356818.069999 kJ/mol
# GULP energy per Si atom -5575.282344 kJ/mol
# Density = 2.026034 g / cm^3
# Si number density = 20.306556 Si / 1000 Ang^3
#
#
#
# Elastic Constant Matrix: (Units=GPa)
#
#
# Indices 1 2 3 4 5 6 
#
# 1 78.4900 2.0674 26.3632 0.0000 0.0000 0.0000
# 2 2.0674 78.4900 26.3632 0.0000 0.0000 0.0000
# 3 26.3632 26.3632 81.2408 0.0000 0.0000 0.0000
# 4 0.0000 0.0000 0.0000 16.1674 0.0000 0.0000
# 5 0.0000 0.0000 0.0000 0.0000 16.1674 0.0000
# 6 0.0000 0.0000 0.0000 0.0000 0.0000 14.4627
#
#
#
# Elastic Compliance Matrix: (Units=1/GPa)
#
#
# Indices 1 2 3 4 5 6 
#
# 1 0.014423 0.001338 -0.005115 0.000000 0.000000 0.000000
# 2 0.001338 0.014423 -0.005115 0.000000 0.000000 0.000000
# 3 -0.005115 -0.005115 0.015629 0.000000 0.000000 0.000000
# 4 0.000000 0.000000 0.000000 0.061853 0.000000 0.000000
# 5 0.000000 0.000000 0.000000 0.000000 0.061853 0.000000
# 6 0.000000 0.000000 0.000000 0.000000 0.000000 0.069143
#
#
# Mechanical properties :
#
#
# Convention : Reuss Voigt Hill
#
# Bulk Modulus (GPa) = 37.46389 38.64540 38.05465
# Shear Modulus (GPa) = 18.93914 21.58798 20.26356
#
# Velocity S-wave (km/s) = 3.05726 3.26406 3.16236
# Velocity P-wave (km/s) = 5.56342 5.76869 5.66699
#
# Compressibility (1/GPa) = 0.02669237
#
# Stress axis : x y z
#
# Youngs Moduli (GPa) = 69.33315 69.33315 63.98558
#
# Poissons Ratio (x) = -0.09277 0.32726
# Poissons Ratio (y) = -0.09277 0.32726
# Poissons Ratio (z) = 0.35461 0.35461
#
# Static dielectric constant tensor:
#      x y z
#    x 1.741230 0.000000 0.000000 
#    y 0.000000 1.741230 0.000000 
#    z 0.000000 0.000000 1.770720 
# 
# From -- ./inp_files/6955.got.cif
#   From: 2010.05.17/outbox.cif.g08.bks.cpg/sg93_4_cif.got.tgz:6955.got - 2010.06.03 19:38:44.
