data_PCOD9549652
_publ_section_title
;
Structure prediction by ZEFSAII (Michael W. Deem and Ramdas Pophale) SiO2 
 PCOD9549652
Probable space group: P 42 2 2
;
_chemical_formula_sum "Si O2"
_cell_formula_units_Z 60
_cell_length_a 11.930056
_cell_length_b 11.930056
_cell_length_c 20.883559
_cell_angle_alpha 90.000000
_cell_angle_beta 90.000000
_cell_angle_gamma 90.000000
_cell_volume 2972.278350
_symmetry_space_group_name_H-M "P 42 2 2"
_symmetry_group_IT_number 93
_symmetry_cell_setting 'tetragonal'
loop_
_space_group_symop_operation_xyz
x,y,z
-y,x,1/2+z
-x,-y,z
y,-x,1/2+z
x,-y,-z
-x,y,-z
y,x,1/2-z
-y,-x,1/2-z
loop_
_atom_site_type_symbol
_atom_site_label
_atom_site_fract_x
_atom_site_fract_y
_atom_site_fract_z
Si Si1 0.746505 0.550540 0.179426
Si Si2 0.949585 0.738748 0.306836
Si Si3 0.780481 0.700566 0.821486
Si Si4 0.898036 0.921949 0.088910
Si Si5 0.704011 0.043692 0.661199
Si Si6 0.253273 0.593259 0.668054
Si Si7 0.868832 0.377968 0.381693
Si Si8 0.707466 0.000000 0.000000
O O1 0.726916 0.420642 0.167763
O O2 0.866074 0.602863 0.156435
O O3 0.645599 0.626633 0.152721
O O4 0.747241 0.560333 0.256920
O O5 0.980227 0.848505 0.346428
O O6 0.935781 0.754952 0.232096
O O7 0.832288 0.696747 0.335155
O O8 0.038211 0.641206 0.325561
O O9 0.749471 0.749471 0.750000
O O10 0.726646 0.786466 0.871207
O O11 0.911687 0.679500 0.833616
O O12 0.936648 0.798049 0.107812
O O13 0.794354 0.923257 0.039946
O O14 0.000000 0.000000 0.068017
O O15 0.201465 0.490590 0.628905
O O16 0.932528 0.365737 0.448632
#
# Coordination Sequence:
#
# PCOD9549652 Si02
#       8
#     8   8   8   8   8   8   8   4
#     4  10  21  36  58  90 137 174 207 261 346 411
#     4  10  19  34  55  91 127 162 211 268 336 402
#     4  12  22  36  57  97 131 170 220 270 335 409
#     4  11  22  35  59  86 125 172 222 279 334 395
#     4  11  20  35  58  88 131 174 210 264 339 422
#     4  10  19  36  58  89 131 176 209 261 333 417
#     4  11  22  39  62  89 132 170 225 275 325 398
#     4  10  25  44  59  90 130 182 224 284 332 380
#
# _framework density 20.186534000000002
#
# number of rings (size 3 to 8) (size 9 to 14) (size 15 to 20)
#    0.000    1.333    4.000    3.000    0.000    3.200 
#    0.000    5.333    0.000    0.800    0.000    1.867 
#   12.000    0.000    0.000    0.000    0.000    0.000 
#
# Total GULP energy -334926.048360 kJ/mol
# GULP energy per Si atom -5582.100806 kJ/mol
# Density = 2.014059 g / cm^3
# Si number density = 20.186534 Si / 1000 Ang^3
#
#
#
# Elastic Constant Matrix: (Units=GPa)
#
#
# Indices 1 2 3 4 5 6 
#
# 1 90.9159 6.5937 20.8322 0.0000 0.0000 0.0000
# 2 6.5937 90.9159 20.8322 0.0000 0.0000 0.0000
# 3 20.8322 20.8322 71.3159 0.0000 0.0000 0.0000
# 4 0.0000 0.0000 0.0000 17.7941 0.0000 0.0000
# 5 0.0000 0.0000 0.0000 0.0000 17.7941 0.0000
# 6 0.0000 0.0000 0.0000 0.0000 0.0000 33.2149
#
#
#
# Elastic Compliance Matrix: (Units=1/GPa)
#
#
# Indices 1 2 3 4 5 6 
#
# 1 0.011789 -0.000071 -0.003423 0.000000 0.000000 0.000000
# 2 -0.000071 0.011789 -0.003423 0.000000 0.000000 0.000000
# 3 -0.003423 -0.003423 0.016022 0.000000 0.000000 0.000000
# 4 0.000000 0.000000 0.000000 0.056199 0.000000 0.000000
# 5 0.000000 0.000000 0.000000 0.000000 0.056199 0.000000
# 6 0.000000 0.000000 0.000000 0.000000 0.000000 0.030107
#
#
# Mechanical properties :
#
#
# Convention : Reuss Voigt Hill
#
# Bulk Modulus (GPa) = 38.81080 38.85154 38.83117
# Shear Modulus (GPa) = 24.44690 27.41991 25.93340
#
# Velocity S-wave (km/s) = 3.48379 3.68955 3.58814
# Velocity P-wave (km/s) = 5.95401 6.11869 6.03691
#
# Compressibility (1/GPa) = 0.02576602
#
# Stress axis : x y z
#
# Youngs Moduli (GPa) = 84.82752 84.82752 62.41467
#
# Poissons Ratio (x) = 0.00599 0.21364
# Poissons Ratio (y) = 0.00599 0.21364
# Poissons Ratio (z) = 0.29036 0.29036
#
# Static dielectric constant tensor:
#      x y z
#    x 1.769310 0.000000 0.000000 
#    y 0.000000 1.769310 0.000000 
#    z 0.000000 0.000000 1.722870 
# 
# From -- ./inp_files/6339.got.cif
#   From: 2010.05.17/outbox.cif.g08.bks.cpg/sg93_4_cif.got.tgz:6339.got - 2010.06.03 19:38:44.
