data_PCOD9549284
_publ_section_title
;
Structure prediction by ZEFSAII (Michael W. Deem and Ramdas Pophale) SiO2 
 PCOD9549284
Probable space group: P 41 21 2
;
_chemical_formula_sum "Si O2"
_cell_formula_units_Z 48
_cell_length_a 8.851521
_cell_length_b 8.851521
_cell_length_c 28.358613
_cell_angle_alpha 90.000000
_cell_angle_beta 90.000000
_cell_angle_gamma 90.000000
_cell_volume 2221.880994
_symmetry_space_group_name_H-M "P 41 21 2"
_symmetry_group_IT_number 92
_symmetry_cell_setting 'tetragonal'
loop_
_space_group_symop_operation_xyz
x,y,z
1/2-y,1/2+x,1/4+z
-x,-y,1/2+z
1/2+y,1/2-x,3/4+z
1/2+x,1/2-y,3/4-z
1/2-x,1/2+y,1/4-z
y,x,-z
-y,-x,1/2-z
loop_
_atom_site_type_symbol
_atom_site_label
_atom_site_fract_x
_atom_site_fract_y
_atom_site_fract_z
Si Si1 0.244022 0.839527 0.386478
Si Si2 0.632089 0.992194 0.030822
Si Si3 0.501726 0.678760 0.539184
Si Si4 0.917857 0.466437 0.873760
Si Si5 0.668737 0.928699 0.216858
Si Si6 0.591730 0.627888 0.264194
O O1 0.208121 0.661459 0.381804
O O2 0.422142 0.880143 0.386013
O O3 0.157364 0.897383 0.433391
O O4 0.181317 0.919331 0.339693
O O5 0.543578 0.151171 0.024380
O O6 0.575643 0.932979 0.081000
O O7 0.805055 0.037379 0.023541
O O8 0.586174 0.878703 0.989475
O O9 0.607122 0.607122 0.500000
O O10 0.345202 0.587711 0.541982
O O11 0.891509 0.572827 0.829227
O O12 0.619042 0.803782 0.255087
O O13 0.424530 0.575471 0.250000
#
# Coordination Sequence:
#
# PCOD9549284 Si02
#       6
#     8   8   8   8   8   8
#     4  11  24  43  67  95 125 172 215 261 318 382
#     4  10  22  44  64  91 129 167 211 266 315 376
#     4  10  24  42  66  93 129 168 214 263 317 386
#     4  11  24  42  69  94 128 170 216 262 320 379
#     4  11  23  43  64  95 128 165 213 263 321 378
#     4  11  25  42  64  96 130 166 214 265 321 380
#
# _framework density 21.603317000000001
#
# number of rings (size 3 to 8) (size 9 to 14) (size 15 to 20)
#    0.000    1.333    3.333    1.000    7.000    1.333 
#    0.000    0.000    0.000    0.000    0.000    0.000 
#    0.000    0.000    0.000    0.000    0.000    0.000 
#
# Total GULP energy -268397.071956 kJ/mol
# GULP energy per Si atom -5591.605666 kJ/mol
# Density = 2.155415 g / cm^3
# Si number density = 21.603317 Si / 1000 Ang^3
#
#
#
# Elastic Constant Matrix: (Units=GPa)
#
#
# Indices 1 2 3 4 5 6 
#
# 1 7.5824 16.9886 17.2563 0.0000 0.0000 0.0000
# 2 16.9886 7.5797 17.2561 0.0000 0.0000 0.0000
# 3 17.2563 17.2561 99.5030 0.0000 0.0000 0.0000
# 4 0.0000 0.0000 0.0000 25.3052 0.0000 0.0000
# 5 0.0000 0.0000 0.0000 0.0000 25.3057 0.0000
# 6 0.0000 0.0000 0.0000 0.0000 0.0000 34.7848
#
#
#
# Elastic Compliance Matrix: (Units=1/GPa)
#
#
# Indices 1 2 3 4 5 6 
#
# 1 -0.026237 0.080053 -0.009333 0.000000 0.000000 0.000000
# 2 0.080053 -0.026252 -0.009331 0.000000 0.000000 0.000000
# 3 -0.009333 -0.009331 0.013287 0.000000 0.000000 0.000000
# 4 0.000000 0.000000 0.000000 0.039518 0.000000 0.000000
# 5 0.000000 0.000000 0.000000 0.000000 0.039517 0.000000
# 6 0.000000 0.000000 0.000000 0.000000 0.000000 0.028748
#
#
# Mechanical properties :
#
#
# Convention : Reuss Voigt Hill
#
# Bulk Modulus (GPa) = 11.96498 24.18522 18.07510
# Shear Modulus (GPa) = -189.82005 21.29008 -84.26499
#
# Velocity S-wave (km/s) = -9.38386 3.14267 -6.25222
# Velocity P-wave (km/s) = 10.57633 4.93842 6.61327
#
# Compressibility (1/GPa) = 0.08357721
#
# Stress axis : x y z
#
# Youngs Moduli (GPa) = -38.11388 -38.09228 75.26370
#
# Poissons Ratio (x) = 3.04941 0.70243
# Poissons Ratio (y) = 3.05114 0.70225
# Poissons Ratio (z) = -0.35571 -0.35542
#
# Static dielectric constant tensor:
#      x y z
#    x 1.793340 0.000000 0.000000 
#    y 0.000000 1.793350 0.000000 
#    z 0.000000 0.000000 1.759440 
# 
# From -- ./inp_files/4463.got.cif
#   From: 2010.05.17/outbox.cif.g08.bks.cpg/sg92_3_cif.got.tgz:4463.got - 2010.06.03 19:35:17.
