data_PCOD9549018
_publ_section_title
;
Structure prediction by ZEFSAII (Michael W. Deem and Ramdas Pophale) SiO2 
 PCOD9549018
Probable space group: P 41 21 2
;
_chemical_formula_sum "Si O2"
_cell_formula_units_Z 40
_cell_length_a 14.900483
_cell_length_b 14.900483
_cell_length_c 7.034056
_cell_angle_alpha 90.000000
_cell_angle_beta 90.000000
_cell_angle_gamma 90.000000
_cell_volume 1561.732018
_symmetry_space_group_name_H-M "P 41 21 2"
_symmetry_group_IT_number 92
_symmetry_cell_setting 'tetragonal'
loop_
_space_group_symop_operation_xyz
x,y,z
1/2-y,1/2+x,1/4+z
-x,-y,1/2+z
1/2+y,1/2-x,3/4+z
1/2+x,1/2-y,3/4-z
1/2-x,1/2+y,1/4-z
y,x,-z
-y,-x,1/2-z
loop_
_atom_site_type_symbol
_atom_site_label
_atom_site_fract_x
_atom_site_fract_y
_atom_site_fract_z
Si Si1 0.761330 0.228754 0.027196
Si Si2 0.737355 0.525883 0.228318
Si Si3 0.424459 0.374783 0.787696
Si Si4 0.729118 0.412906 0.619123
Si Si5 0.874808 0.470184 0.902489
O O1 0.757538 0.242463 0.250000
O O2 0.731140 0.127395 0.977531
O O3 0.865701 0.218000 0.974989
O O4 0.689348 0.293821 0.935967
O O5 0.633002 0.550502 0.171636
O O6 0.742655 0.462338 0.412101
O O7 0.799101 0.495888 0.057064
O O8 0.525206 0.343177 0.772832
O O9 0.411949 0.411949 0.000000
O O10 0.819392 0.417088 0.742849
O O11 0.920699 0.550491 0.781783
#
# Coordination Sequence:
#
# PCOD9549018 Si02
#       5
#     8   8   8   8   8
#     4  10  20  36  63  92 134 176 231 276 348 426
#     4   9  21  41  61  88 129 181 233 276 346 421
#     4   8  19  37  63  89 124 170 231 285 336 411
#     4  11  21  41  63  93 129 178 230 290 349 413
#     4  12  27  35  56  90 141 184 226 277 346 435
#
# _framework density 25.612589
#
# number of rings (size 3 to 8) (size 9 to 14) (size 15 to 20)
#    1.200    0.800    0.000    3.600    5.600    0.000 
#    0.000    0.000    0.000    0.000    0.000   16.800 
#    0.000    0.000    0.000    0.000    0.000    0.000 
#
# Total GULP energy -223173.845570 kJ/mol
# GULP energy per Si atom -5579.346139 kJ/mol
# Density = 2.555429 g / cm^3
# Si number density = 25.612589 Si / 1000 Ang^3
#
#
#
# Elastic Constant Matrix: (Units=GPa)
#
#
# Indices 1 2 3 4 5 6 
#
# 1 103.4071 81.8821 49.1707 0.0000 0.0000 0.0000
# 2 81.8821 103.4071 49.1708 0.0000 0.0000 0.0000
# 3 49.1707 49.1708 122.4627 0.0000 0.0000 0.0000
# 4 0.0000 0.0000 0.0000 28.9621 0.0000 0.0000
# 5 0.0000 0.0000 0.0000 0.0000 28.9623 0.0000
# 6 0.0000 0.0000 0.0000 0.0000 0.0000 53.4681
#
#
#
# Elastic Compliance Matrix: (Units=1/GPa)
#
#
# Indices 1 2 3 4 5 6 
#
# 1 0.026658 -0.019800 -0.002754 0.000000 0.000000 0.000000
# 2 -0.019800 0.026658 -0.002754 0.000000 0.000000 0.000000
# 3 -0.002754 -0.002754 0.010377 0.000000 0.000000 0.000000
# 4 0.000000 0.000000 0.000000 0.034528 0.000000 0.000000
# 5 0.000000 0.000000 0.000000 0.000000 0.034528 0.000000
# 6 0.000000 0.000000 0.000000 0.000000 0.000000 0.018703
#
#
# Mechanical properties :
#
#
# Convention : Reuss Voigt Hill
#
# Bulk Modulus (GPa) = 76.45856 76.63601 76.54729
# Shear Modulus (GPa) = 24.22181 32.21538 28.21860
#
# Velocity S-wave (km/s) = 3.07856 3.55039 3.32286
# Velocity P-wave (km/s) = 6.52330 6.84055 6.68381
#
# Compressibility (1/GPa) = 0.01307898
#
# Stress axis : x y z
#
# Youngs Moduli (GPa) = 37.51210 37.51209 96.36555
#
# Poissons Ratio (x) = 0.74272 0.26537
# Poissons Ratio (y) = 0.74272 0.26537
# Poissons Ratio (z) = 0.10330 0.10330
#
# Static dielectric constant tensor:
#      x y z
#    x 2.079690 0.000000 0.000000 
#    y 0.000000 2.079700 0.000000 
#    z 0.000000 0.000000 2.043540 
# 
# From -- ./inp_files/1422.got.cif
#   From: 2010.05.17/outbox.cif.g08.bks.cpg/sg92_1_cif.got.tgz:1422.got - 2010.06.03 19:35:17.
