data_PCOD9549751
_publ_section_title
;
Structure prediction by ZEFSAII (Michael W. Deem and Ramdas Pophale) SiO2 
 PCOD9549751
Probable space group: P 42 2 2
;
_chemical_formula_sum "Si O2"
_cell_formula_units_Z 40
_cell_length_a 14.044223
_cell_length_b 14.044223
_cell_length_c 8.814102
_cell_angle_alpha 90.000000
_cell_angle_beta 90.000000
_cell_angle_gamma 90.000000
_cell_volume 1738.495238
_symmetry_space_group_name_H-M "P 42 2 2"
_symmetry_group_IT_number 93
_symmetry_cell_setting 'tetragonal'
loop_
_space_group_symop_operation_xyz
x,y,z
-y,x,1/2+z
-x,-y,z
y,-x,1/2+z
x,-y,-z
-x,y,-z
y,x,1/2-z
-y,-x,1/2-z
loop_
_atom_site_type_symbol
_atom_site_label
_atom_site_fract_x
_atom_site_fract_y
_atom_site_fract_z
Si Si1 0.062407 0.186465 0.633805
Si Si2 0.604062 0.600046 0.070391
Si Si3 0.665677 0.770862 0.886384
Si Si4 0.658247 0.976611 0.327089
Si Si5 0.850041 0.491366 0.181854
O O1 0.117092 0.117092 0.750000
O O2 0.137428 0.268813 0.576049
O O3 0.000000 0.140963 0.500000
O O4 0.988678 0.249175 0.729566
O O5 0.596180 0.596180 0.250000
O O6 0.640072 0.500000 0.000000
O O7 0.500000 0.609168 0.000000
O O8 0.661315 0.692415 0.017150
O O9 0.722797 0.722797 0.750000
O O10 0.560215 0.785668 0.809190
O O11 0.599066 0.882316 0.285377
O O12 0.685741 0.000000 0.500000
O O13 0.580489 0.060335 0.303587
O O14 0.830578 0.500000 0.000000
#
# Coordination Sequence:
#
# PCOD9549751 Si02
#       5
#     8   8   8   8   8
#     4  10  22  42  66  96 134 170 213 275 338 403
#     4  11  23  41  62  86 125 179 232 281 329 388
#     4  10  21  37  59  94 136 175 220 273 331 395
#     4   8  15  33  61  94 132 174 217 266 324 390
#     4   8  15  30  58  95 135 176 219 269 325 382
#
# _framework density 23.008403000000001
#
# number of rings (size 3 to 8) (size 9 to 14) (size 15 to 20)
#    0.000    2.600    0.000    3.600    0.000    4.000 
#    0.000   15.000    0.000    1.800    0.000    2.800 
#    0.000    0.000    0.000    0.400    0.000    0.000 
#
# Total GULP energy -222966.693463 kJ/mol
# GULP energy per Si atom -5574.167337 kJ/mol
# Density = 2.295604 g / cm^3
# Si number density = 23.008403 Si / 1000 Ang^3
#
#
#
# Elastic Constant Matrix: (Units=GPa)
#
#
# Indices 1 2 3 4 5 6 
#
# 1 69.2223 48.9018 51.1406 0.0000 0.0000 0.0000
# 2 48.9018 69.2223 51.1406 0.0000 0.0000 0.0000
# 3 51.1406 51.1406 138.3549 0.0000 0.0000 0.0000
# 4 0.0000 0.0000 0.0000 -14.0668 0.0000 0.0000
# 5 0.0000 0.0000 0.0000 0.0000 -14.0668 0.0000
# 6 0.0000 0.0000 0.0000 0.0000 0.0000 -4.5434
#
#
#
# Elastic Compliance Matrix: (Units=1/GPa)
#
#
# Indices 1 2 3 4 5 6 
#
# 1 0.030831 -0.018380 -0.004602 0.000000 0.000000 0.000000
# 2 -0.018380 0.030831 -0.004602 0.000000 0.000000 0.000000
# 3 -0.004602 -0.004602 0.010630 0.000000 0.000000 0.000000
# 4 0.000000 0.000000 0.000000 -0.071090 0.000000 0.000000
# 5 0.000000 0.000000 0.000000 0.000000 -0.071090 0.000000
# 6 0.000000 0.000000 0.000000 0.000000 0.000000 -0.220099
#
#
# Mechanical properties :
#
#
# Convention : Reuss Voigt Hill
#
# Bulk Modulus (GPa) = 58.40244 64.35170 61.37707
# Shear Modulus (GPa) = -21.82368 1.83905 -9.99232
#
# Velocity S-wave (km/s) = -3.08313 0.89500 -2.08622
# Velocity P-wave (km/s) = 3.57267 5.39421 4.57501
#
# Compressibility (1/GPa) = 0.01712257
#
# Stress axis : x y z
#
# Youngs Moduli (GPa) = 32.43491 32.43491 94.07334
#
# Poissons Ratio (x) = 0.59617 0.43294
# Poissons Ratio (y) = 0.59617 0.43294
# Poissons Ratio (z) = 0.14927 0.14927
#
# Static dielectric constant tensor:
#      x y z
#    x 1.961250 0.000000 0.000000 
#    y 0.000000 1.961250 0.000000 
#    z 0.000000 0.000000 1.484820 
# 
# From -- ./inp_files/1850.got.cif
#   From: 2010.05.17/outbox.cif.g08.bks.cpg/sg93_1_cif.got.tgz:1850.got - 2010.06.03 19:38:44.
