data_PCOD9549135
_publ_section_title
;
Structure prediction by ZEFSAII (Michael W. Deem and Ramdas Pophale) SiO2 
 PCOD9549135
Probable space group: P 41 21 2
;
_chemical_formula_sum "Si O2"
_cell_formula_units_Z 48
_cell_length_a 8.296658
_cell_length_b 8.296658
_cell_length_c 28.618321
_cell_angle_alpha 90.000000
_cell_angle_beta 90.000000
_cell_angle_gamma 90.000000
_cell_volume 1969.928789
_symmetry_space_group_name_H-M "P 41 21 2"
_symmetry_group_IT_number 92
_symmetry_cell_setting 'tetragonal'
loop_
_space_group_symop_operation_xyz
x,y,z
1/2-y,1/2+x,1/4+z
-x,-y,1/2+z
1/2+y,1/2-x,3/4+z
1/2+x,1/2-y,3/4-z
1/2-x,1/2+y,1/4-z
y,x,-z
-y,-x,1/2-z
loop_
_atom_site_type_symbol
_atom_site_label
_atom_site_fract_x
_atom_site_fract_y
_atom_site_fract_z
Si Si1 0.610676 0.402399 0.534860
Si Si2 0.344728 0.875002 0.151453
Si Si3 0.881050 0.345037 0.158149
Si Si4 0.714046 0.421467 0.296026
Si Si5 0.415533 0.052224 0.261852
Si Si6 0.218199 0.024456 0.057187
O O1 0.504309 0.504309 0.500000
O O2 0.723696 0.512332 0.568538
O O3 0.490111 0.288511 0.563814
O O4 0.749874 0.350263 0.497875
O O5 0.536597 0.878985 0.141171
O O6 0.287061 0.912419 0.098547
O O7 0.315135 0.695920 0.169620
O O8 0.694362 0.293517 0.159523
O O9 0.886630 0.504900 0.190369
O O10 0.684439 0.315562 0.250000
O O11 0.575796 0.558233 0.294722
O O12 0.889338 0.488773 0.283917
O O13 0.433899 0.857868 0.268693
#
# Coordination Sequence:
#
# PCOD9549135 Si02
#       6
#     8   8   8   8   8   8
#     4  12  22  39  69  96 126 176 230 280 351 418
#     4  11  23  42  65  94 136 179 232 289 345 430
#     4  10  23  46  64  94 142 175 222 287 360 415
#     4  10  23  43  67  98 139 178 225 296 349 415
#     4  10  21  39  66  96 126 176 228 286 335 411
#     4  11  23  43  67 100 136 182 234 289 351 428
#
# _framework density 24.366364999999998
#
# number of rings (size 3 to 8) (size 9 to 14) (size 15 to 20)
#    0.000    1.333    3.333    3.500    2.333    0.000 
#    3.000    1.667    0.000    0.000    0.000    0.000 
#    0.000    0.000    0.000    0.000    0.000    0.000 
#
# Total GULP energy -267217.043962 kJ/mol
# GULP energy per Si atom -5567.021749 kJ/mol
# Density = 2.431091 g / cm^3
# Si number density = 24.366365 Si / 1000 Ang^3
#
#
#
# Elastic Constant Matrix: (Units=GPa)
#
#
# Indices 1 2 3 4 5 6 
#
# 1 40.6694 16.0202 5.3637 0.0000 0.0000 0.0000
# 2 16.0202 40.6695 5.3637 0.0000 0.0000 0.0000
# 3 5.3637 5.3637 23.0646 0.0000 0.0000 0.0000
# 4 0.0000 0.0000 0.0000 26.2560 0.0000 0.0000
# 5 0.0000 0.0000 0.0000 0.0000 26.2559 0.0000
# 6 0.0000 0.0000 0.0000 0.0000 0.0000 33.2069
#
#
#
# Elastic Compliance Matrix: (Units=1/GPa)
#
#
# Indices 1 2 3 4 5 6 
#
# 1 0.029511 -0.011059 -0.004291 0.000000 0.000000 0.000000
# 2 -0.011059 0.029510 -0.004291 0.000000 0.000000 0.000000
# 3 -0.004291 -0.004291 0.045352 0.000000 0.000000 0.000000
# 4 0.000000 0.000000 0.000000 0.038087 0.000000 0.000000
# 5 0.000000 0.000000 0.000000 0.000000 0.038087 0.000000
# 6 0.000000 0.000000 0.000000 0.000000 0.000000 0.030114
#
#
# Mechanical properties :
#
#
# Convention : Reuss Voigt Hill
#
# Bulk Modulus (GPa) = 15.36288 17.54430 16.45359
# Shear Modulus (GPa) = 18.40677 22.32082 20.36380
#
# Velocity S-wave (km/s) = 2.75147 3.02992 2.89404
# Velocity P-wave (km/s) = 4.05126 4.41094 4.23492
#
# Compressibility (1/GPa) = 0.06509196
#
# Stress axis : x y z
#
# Youngs Moduli (GPa) = 33.88616 33.88627 22.04967
#
# Poissons Ratio (x) = 0.37474 0.09462
# Poissons Ratio (y) = 0.37473 0.09461
# Poissons Ratio (z) = 0.14541 0.14541
#
# Static dielectric constant tensor:
#      x y z
#    x 2.194170 0.000000 0.000000 
#    y 0.000000 2.194170 0.000000 
#    z 0.000000 0.000000 1.922980 
# 
# From -- ./inp_files/4520.got.cif
#   From: 2010.05.17/outbox.cif.g08.bks.cpg/sg92_3_cif.got.tgz:4520.got - 2010.06.03 19:35:17.
