data_PCOD9549553
_publ_section_title
;
Structure prediction by ZEFSAII (Michael W. Deem and Ramdas Pophale) SiO2 
 PCOD9549553
Probable space group: P 41 21 2
;
_chemical_formula_sum "Si O2"
_cell_formula_units_Z 48
_cell_length_a 13.934854
_cell_length_b 13.934854
_cell_length_c 9.818565
_cell_angle_alpha 90.000000
_cell_angle_beta 90.000000
_cell_angle_gamma 90.000000
_cell_volume 1906.570483
_symmetry_space_group_name_H-M "P 41 21 2"
_symmetry_group_IT_number 92
_symmetry_cell_setting 'tetragonal'
loop_
_space_group_symop_operation_xyz
x,y,z
1/2-y,1/2+x,1/4+z
-x,-y,1/2+z
1/2+y,1/2-x,3/4+z
1/2+x,1/2-y,3/4-z
1/2-x,1/2+y,1/4-z
y,x,-z
-y,-x,1/2-z
loop_
_atom_site_type_symbol
_atom_site_label
_atom_site_fract_x
_atom_site_fract_y
_atom_site_fract_z
Si Si1 0.537381 0.712112 0.203473
Si Si2 0.262448 0.760764 0.590356
Si Si3 0.471863 0.204608 0.279480
Si Si4 0.922542 0.519260 0.855104
Si Si5 0.137773 0.067433 0.716798
Si Si6 0.964096 0.186570 0.736929
O O1 0.652460 0.718234 0.198782
O O2 0.504669 0.810233 0.130403
O O3 0.504978 0.707622 0.358873
O O4 0.493627 0.632391 0.105368
O O5 0.265080 0.734921 0.750000
O O6 0.315603 0.861520 0.568420
O O7 0.305600 0.669096 0.514062
O O8 0.540078 0.119268 0.330482
O O9 0.507117 0.300642 0.358099
O O10 0.471784 0.226951 0.118998
O O11 0.942666 0.522154 0.695352
O O12 0.033044 0.103983 0.676574
O O13 0.857833 0.142168 0.750000
#
# Coordination Sequence:
#
# PCOD9549553 Si02
#       6
#     8   8   8   8   8   8
#     4  12  25  51  71 108 152 195 246 308 382 443
#     4  12  23  46  78 103 147 195 251 308 372 454
#     4  12  26  47  75 109 147 200 247 304 379 455
#     4  12  27  49  78 109 147 195 250 306 375 444
#     4  12  27  47  79 109 145 199 253 308 377 457
#     4  12  29  47  72 115 151 190 250 314 380 444
#
# _framework density 25.176093000000002
#
# number of rings (size 3 to 8) (size 9 to 14) (size 15 to 20)
#    0.000    0.000    6.667    2.000    7.000    1.333 
#    6.000    0.000    0.000    0.000    0.000    0.000 
#    0.000    0.000    0.000    0.000    0.000    0.000 
#
# Total GULP energy -269039.274306 kJ/mol
# GULP energy per Si atom -5604.984881 kJ/mol
# Density = 2.511879 g / cm^3
# Si number density = 25.176093 Si / 1000 Ang^3
#
#
#
# Elastic Constant Matrix: (Units=GPa)
#
#
# Indices 1 2 3 4 5 6 
#
# 1 74.0184 4.0650 7.2268 0.0000 0.0000 0.0000
# 2 4.0650 74.0163 7.2270 0.0000 0.0000 0.0000
# 3 7.2268 7.2270 121.3075 0.0000 0.0000 0.0000
# 4 0.0000 0.0000 0.0000 31.9312 0.0000 0.0000
# 5 0.0000 0.0000 0.0000 0.0000 31.9314 0.0000
# 6 0.0000 0.0000 0.0000 0.0000 0.0000 23.8385
#
#
#
# Elastic Compliance Matrix: (Units=1/GPa)
#
#
# Indices 1 2 3 4 5 6 
#
# 1 0.013622 -0.000673 -0.000771 0.000000 0.000000 0.000000
# 2 -0.000673 0.013623 -0.000772 0.000000 0.000000 0.000000
# 3 -0.000771 -0.000772 0.008335 0.000000 0.000000 0.000000
# 4 0.000000 0.000000 0.000000 0.031317 0.000000 0.000000
# 5 0.000000 0.000000 0.000000 0.000000 0.031317 0.000000
# 6 0.000000 0.000000 0.000000 0.000000 0.000000 0.041949
#
#
# Mechanical properties :
#
#
# Convention : Reuss Voigt Hill
#
# Bulk Modulus (GPa) = 32.10366 34.04221 33.07293
# Shear Modulus (GPa) = 32.26250 34.26178 33.26214
#
# Velocity S-wave (km/s) = 3.58365 3.69302 3.63875
# Velocity P-wave (km/s) = 5.46834 5.63343 5.55150
#
# Compressibility (1/GPa) = 0.03114909
#
# Stress axis : x y z
#
# Youngs Moduli (GPa) = 73.40836 73.40627 119.96975
#
# Poissons Ratio (x) = 0.04939 0.09255
# Poissons Ratio (y) = 0.04939 0.09256
# Poissons Ratio (z) = 0.05663 0.05663
#
# Static dielectric constant tensor:
#      x y z
#    x 1.989180 0.000000 0.000000 
#    y 0.000000 1.989180 0.000000 
#    z 0.000000 0.000000 1.961970 
# 
# From -- ./inp_files/2191.got.cif
#   From: 2010.05.17/outbox.cif.g08.bks.cpg/sg92_2_cif.got.tgz:2191.got - 2010.06.03 19:35:17.
