data_PCOD9549217
_publ_section_title
;
Structure prediction by ZEFSAII (Michael W. Deem and Ramdas Pophale) SiO2 
 PCOD9549217
Probable space group: P 41 21 2
;
_chemical_formula_sum "Si O2"
_cell_formula_units_Z 48
_cell_length_a 11.766534
_cell_length_b 11.766534
_cell_length_c 17.601159
_cell_angle_alpha 90.000000
_cell_angle_beta 90.000000
_cell_angle_gamma 90.000000
_cell_volume 2436.903739
_symmetry_space_group_name_H-M "P 41 21 2"
_symmetry_group_IT_number 92
_symmetry_cell_setting 'tetragonal'
loop_
_space_group_symop_operation_xyz
x,y,z
1/2-y,1/2+x,1/4+z
-x,-y,1/2+z
1/2+y,1/2-x,3/4+z
1/2+x,1/2-y,3/4-z
1/2-x,1/2+y,1/4-z
y,x,-z
-y,-x,1/2-z
loop_
_atom_site_type_symbol
_atom_site_label
_atom_site_fract_x
_atom_site_fract_y
_atom_site_fract_z
Si Si1 0.734107 0.885343 0.449809
Si Si2 0.627345 0.773255 0.166695
Si Si3 0.154543 0.519434 0.039436
Si Si4 0.364772 0.682236 0.027095
Si Si5 0.436527 0.985745 0.609739
Si Si6 0.097914 0.783840 0.807499
O O1 0.829367 0.829367 0.500000
O O2 0.614894 0.827139 0.467925
O O3 0.761466 0.881761 0.359838
O O4 0.725950 0.017605 0.469833
O O5 0.734595 0.803644 0.217491
O O6 0.647137 0.650717 0.128446
O O7 0.598728 0.880404 0.110359
O O8 0.275815 0.580775 0.041645
O O9 0.064837 0.528634 0.109034
O O10 0.080606 0.567179 0.969056
O O11 0.487536 0.665285 0.986058
O O12 0.342683 0.931406 0.665996
O O13 0.203356 0.796645 0.750000
#
# Coordination Sequence:
#
# PCOD9549217 Si02
#       6
#     8   8   8   8   8   8
#     4  11  25  41  66  91 126 178 209 259 321 389
#     4  10  22  41  66  92 127 162 217 261 320 387
#     4  11  23  41  62  92 126 159 217 255 312 385
#     4  11  24  40  65  96 129 164 214 268 322 380
#     4  10  22  38  67  92 122 168 206 265 311 380
#     4  11  20  40  66  94 124 164 207 264 329 369
#
# _framework density 19.697126999999998
#
# number of rings (size 3 to 8) (size 9 to 14) (size 15 to 20)
#    0.000    1.333    3.333    2.000   14.000    0.667 
#    0.000    1.667    0.000    0.000    0.000    0.000 
#    0.000    0.000    0.000    0.000    0.000    0.000 
#
# Total GULP energy -267544.328276 kJ/mol
# GULP energy per Si atom -5573.840172 kJ/mol
# Density = 1.965230 g / cm^3
# Si number density = 19.697127 Si / 1000 Ang^3
#
#
#
# Elastic Constant Matrix: (Units=GPa)
#
#
# Indices 1 2 3 4 5 6 
#
# 1 41.6421 81.4210 26.6074 0.0000 0.0000 0.0000
# 2 81.4210 41.6440 26.6077 0.0000 0.0000 0.0000
# 3 26.6074 26.6077 52.7057 0.0000 0.0000 0.0000
# 4 0.0000 0.0000 0.0000 25.3456 0.0000 0.0000
# 5 0.0000 0.0000 0.0000 0.0000 25.3455 0.0000
# 6 0.0000 0.0000 0.0000 0.0000 0.0000 34.8745
#
#
#
# Elastic Compliance Matrix: (Units=1/GPa)
#
#
# Indices 1 2 3 4 5 6 
#
# 1 -0.007372 0.017767 -0.005248 0.000000 0.000000 0.000000
# 2 0.017767 -0.007372 -0.005248 0.000000 0.000000 0.000000
# 3 -0.005248 -0.005248 0.024272 0.000000 0.000000 0.000000
# 4 0.000000 0.000000 0.000000 0.039455 0.000000 0.000000
# 5 0.000000 0.000000 0.000000 0.000000 0.039455 0.000000
# 6 0.000000 0.000000 0.000000 0.000000 0.000000 0.028674
#
#
# Mechanical properties :
#
#
# Convention : Reuss Voigt Hill
#
# Bulk Modulus (GPa) = 41.54404 45.02934 43.28669
# Shear Modulus (GPa) = 45.21166 17.20350 31.20758
#
# Velocity S-wave (km/s) = 4.79617 2.95854 3.98474
# Velocity P-wave (km/s) = 7.19779 5.88057 6.57227
#
# Compressibility (1/GPa) = 0.02407084
#
# Stress axis : x y z
#
# Youngs Moduli (GPa) = -135.63986 -135.64810 41.20005
#
# Poissons Ratio (x) = 2.41010 0.21621
# Poissons Ratio (y) = 2.40996 0.21621
# Poissons Ratio (z) = -0.71180 -0.71186
#
# Static dielectric constant tensor:
#      x y z
#    x 1.696380 0.000000 0.000000 
#    y 0.000000 1.696380 0.000000 
#    z 0.000000 0.000000 1.741810 
# 
# From -- ./inp_files/3129.got.cif
#   From: 2010.05.17/outbox.cif.g08.bks.cpg/sg92_2_cif.got.tgz:3129.got - 2010.06.03 19:35:17.
