data_PCOD9549648
_publ_section_title
;
Structure prediction by ZEFSAII (Michael W. Deem and Ramdas Pophale) SiO2 
 PCOD9549648
Probable space group: P 42 2 2
;
_chemical_formula_sum "Si O2"
_cell_formula_units_Z 46
_cell_length_a 17.341189
_cell_length_b 17.341189
_cell_length_c 9.639266
_cell_angle_alpha 90.000000
_cell_angle_beta 90.000000
_cell_angle_gamma 90.000000
_cell_volume 2898.689572
_symmetry_space_group_name_H-M "P 42 2 2"
_symmetry_group_IT_number 93
_symmetry_cell_setting 'tetragonal'
loop_
_space_group_symop_operation_xyz
x,y,z
-y,x,1/2+z
-x,-y,z
y,-x,1/2+z
x,-y,-z
-x,y,-z
y,x,1/2-z
-y,-x,1/2-z
loop_
_atom_site_type_symbol
_atom_site_label
_atom_site_fract_x
_atom_site_fract_y
_atom_site_fract_z
Si Si1 0.000000 0.878131 0.000000
Si Si2 0.146328 0.230513 0.030888
Si Si3 0.082504 0.246539 0.510133
Si Si4 0.342628 0.082719 0.255895
Si Si5 0.333524 0.907605 0.293511
Si Si6 0.496052 0.093873 0.839211
Si Si7 0.000000 0.000000 0.750000
O O1 0.927653 0.822353 0.001562
O O2 0.999889 0.928691 0.141468
O O3 0.134233 0.278291 0.171063
O O4 0.210192 0.164171 0.031041
O O5 0.144281 0.296292 0.912618
O O6 0.068833 0.316486 0.402983
O O7 0.092354 0.274030 0.666204
O O8 0.000000 0.199988 0.500000
O O9 0.427979 0.116967 0.246752
O O10 0.342083 0.998836 0.330227
O O11 0.416776 0.883050 0.235020
O O12 0.500000 0.000000 0.841482
O O13 0.500000 0.119398 0.000000
#
# Coordination Sequence:
#
# PCOD9549648 Si02
#       7
#     4   8   8   8   8   8   2
#     4  11  26  40  52  65  94 126 182 227 268 302
#     4  12  23  33  46  72 101 128 163 213 268 296
#     4  10  22  33  52  66  93 140 176 205 241 299
#     4  10  19  34  50  72  93 120 164 213 257 305
#     4  10  19  34  50  72  93 120 164 213 257 305
#     4   9  16  31  55  73  87 115 159 206 258 317
#     4  10  28  42  52  66  80 138 192 238 264 286
#
# _framework density 15.86924
#
# number of rings (size 3 to 8) (size 9 to 14) (size 15 to 20)
#    0.000    1.739    3.478    1.043    7.304    0.696 
#    0.000    2.609    0.000    0.000    0.000    0.000 
#    0.000    0.000    0.000    0.000    0.000   60.870 
#
# Total GULP energy -256309.178199 kJ/mol
# GULP energy per Si atom -5571.938657 kJ/mol
# Density = 1.583312 g / cm^3
# Si number density = 15.869240 Si / 1000 Ang^3
#
#
#
# Elastic Constant Matrix: (Units=GPa)
#
#
# Indices 1 2 3 4 5 6 
#
# 1 69.9516 22.6304 22.0373 0.0000 0.0000 0.0000
# 2 22.6304 69.9516 22.0373 0.0000 0.0000 0.0000
# 3 22.0373 22.0373 87.3333 0.0000 0.0000 0.0000
# 4 0.0000 0.0000 0.0000 20.3300 0.0000 0.0000
# 5 0.0000 0.0000 0.0000 0.0000 20.3300 0.0000
# 6 0.0000 0.0000 0.0000 0.0000 0.0000 9.0978
#
#
#
# Elastic Compliance Matrix: (Units=1/GPa)
#
#
# Indices 1 2 3 4 5 6 
#
# 1 0.016704 -0.004428 -0.003098 0.000000 0.000000 0.000000
# 2 -0.004428 0.016704 -0.003098 0.000000 0.000000 0.000000
# 3 -0.003098 -0.003098 0.013014 0.000000 0.000000 0.000000
# 4 0.000000 0.000000 0.000000 0.049188 0.000000 0.000000
# 5 0.000000 0.000000 0.000000 0.000000 0.049188 0.000000
# 6 0.000000 0.000000 0.000000 0.000000 0.000000 0.109916
#
#
# Mechanical properties :
#
#
# Convention : Reuss Voigt Hill
#
# Bulk Modulus (GPa) = 39.72212 40.07184 39.89698
# Shear Modulus (GPa) = 17.58377 20.65367 19.11872
#
# Velocity S-wave (km/s) = 3.33234 3.61153 3.47474
# Velocity P-wave (km/s) = 6.31595 6.53429 6.42605
#
# Compressibility (1/GPa) = 0.02517489
#
# Stress axis : x y z
#
# Youngs Moduli (GPa) = 59.86572 59.86572 76.84224
#
# Poissons Ratio (x) = 0.26509 0.23803
# Poissons Ratio (y) = 0.26509 0.23803
# Poissons Ratio (z) = 0.18544 0.18544
#
# Static dielectric constant tensor:
#      x y z
#    x 1.547540 0.000000 0.000000 
#    y 0.000000 1.547540 0.000000 
#    z 0.000000 0.000000 1.598800 
# 
# From -- ./inp_files/2085.got.cif
#   From: 2010.05.17/outbox.cif.g08.bks.cpg/sg93_2_cif.got.tgz:2085.got - 2010.06.03 19:38:44.
