data_PCOD9549839
_publ_section_title
;
Structure prediction by ZEFSAII (Michael W. Deem and Ramdas Pophale) SiO2 
 PCOD9549839
Probable space group: P 42 2 2
;
_chemical_formula_sum "Si O2"
_cell_formula_units_Z 20
_cell_length_a 5.114972
_cell_length_b 5.114972
_cell_length_c 33.137243
_cell_angle_alpha 90.000000
_cell_angle_beta 90.000000
_cell_angle_gamma 90.000000
_cell_volume 866.967653
_symmetry_space_group_name_H-M "P 42 2 2"
_symmetry_group_IT_number 93
_symmetry_cell_setting 'tetragonal'
loop_
_space_group_symop_operation_xyz
x,y,z
-y,x,1/2+z
-x,-y,z
y,-x,1/2+z
x,-y,-z
-x,y,-z
y,x,1/2-z
-y,-x,1/2-z
loop_
_atom_site_type_symbol
_atom_site_label
_atom_site_fract_x
_atom_site_fract_y
_atom_site_fract_z
Si Si1 0.815369 0.748831 0.929343
Si Si2 0.500000 0.000000 0.692396
Si Si3 0.500000 0.500000 0.135824
Si Si4 0.000000 0.000000 0.250000
Si Si5 0.500000 0.500000 0.500000
O O1 0.596260 0.728109 0.894552
O O2 0.000000 0.500000 0.921693
O O3 0.673900 0.685199 0.971498
O O4 0.000000 0.000000 0.929579
O O5 0.546384 0.252728 0.664440
O O6 0.250003 0.016957 0.721115
#
# Coordination Sequence:
#
# PCOD9549839 Si02
#       5
#     8   4   4   2   2
#     4  11  26  47  75 112 151 205 258 322 387 457
#     4  12  26  48  78 111 156 192 252 309 378 464
#     4  11  26  48  80 115 152 202 254 317 378 458
#     4  12  28  48  76 116 150 200 244 306 388 458
#     4  10  26  46  76 110 160 206 268 326 396 468
#
# _framework density 23.068909000000001
#
# number of rings (size 3 to 8) (size 9 to 14) (size 15 to 20)
#    0.000    0.800    2.000    3.000    2.800   14.400 
#    0.000    0.000    4.400    0.000    0.000    0.000 
#    0.000    0.000    0.000    0.000    0.000    0.000 
#
# Total GULP energy -112059.230955 kJ/mol
# GULP energy per Si atom -5602.961548 kJ/mol
# Density = 2.301640 g / cm^3
# Si number density = 23.068909 Si / 1000 Ang^3
#
#
#
# Elastic Constant Matrix: (Units=GPa)
#
#
# Indices 1 2 3 4 5 6 
#
# 1 224.5940 97.8142 114.0292 0.0000 0.0000 0.0000
# 2 97.8142 224.5940 114.0292 0.0000 0.0000 0.0000
# 3 114.0292 114.0292 221.4055 0.0000 0.0000 0.0000
# 4 0.0000 0.0000 0.0000 -47.8931 0.0000 0.0000
# 5 0.0000 0.0000 0.0000 0.0000 -47.8931 0.0000
# 6 0.0000 0.0000 0.0000 0.0000 0.0000 51.8295
#
#
#
# Elastic Compliance Matrix: (Units=1/GPa)
#
#
# Indices 1 2 3 4 5 6 
#
# 1 0.006383 -0.001504 -0.002513 0.000000 0.000000 0.000000
# 2 -0.001504 0.006383 -0.002513 0.000000 0.000000 0.000000
# 3 -0.002513 -0.002513 0.007105 0.000000 0.000000 0.000000
# 4 0.000000 0.000000 0.000000 -0.020880 0.000000 0.000000
# 5 0.000000 0.000000 0.000000 0.000000 -0.020880 0.000000
# 6 0.000000 0.000000 0.000000 0.000000 0.000000 0.019294
#
#
# Mechanical properties :
#
#
# Convention : Reuss Voigt Hill
#
# Bulk Modulus (GPa) = 146.80454 146.92653 146.86554
# Shear Modulus (GPa) = 392.55975 14.19005 203.37490
#
# Velocity S-wave (km/s) = 13.05901 2.48284 9.39953
# Velocity P-wave (km/s) = 17.06339 8.48810 13.47604
#
# Compressibility (1/GPa) = 0.00681178
#
# Stress axis : x y z
#
# Youngs Moduli (GPa) = 156.65545 156.65545 140.74585
#
# Poissons Ratio (x) = 0.23565 0.35368
# Poissons Ratio (y) = 0.23565 0.35368
# Poissons Ratio (z) = 0.39366 0.39366
#
# Static dielectric constant tensor:
#      x y z
#    x 1.891210 0.000000 0.000000 
#    y 0.000000 1.891210 0.000000 
#    z 0.000000 0.000000 1.861480 
# 
# From -- ./inp_files/7549.got.cif
#   From: 2010.05.17/outbox.cif.g08.bks.cpg/sg93_4_cif.got.tgz:7549.got - 2010.06.03 19:38:44.
