data_PCOD9549988
_publ_section_title
;
Structure prediction by ZEFSAII (Michael W. Deem and Ramdas Pophale) SiO2 
 PCOD9549988
Probable space group: P 42 21 2
;
_chemical_formula_sum "Si O2"
_cell_formula_units_Z 56
_cell_length_a 14.434522
_cell_length_b 14.434522
_cell_length_c 13.667152
_cell_angle_alpha 90.000000
_cell_angle_beta 90.000000
_cell_angle_gamma 90.000000
_cell_volume 2847.625269
_symmetry_space_group_name_H-M "P 42 21 2"
_symmetry_group_IT_number 94
_symmetry_cell_setting 'tetragonal'
loop_
_space_group_symop_operation_xyz
x,y,z
1/2-y,1/2+x,1/2+z
-x,-y,z
1/2+y,1/2-x,1/2+z
1/2+x,1/2-y,1/2-z
1/2-x,1/2+y,1/2-z
y,x,-z
-y,-x,-z
loop_
_atom_site_type_symbol
_atom_site_label
_atom_site_fract_x
_atom_site_fract_y
_atom_site_fract_z
Si Si1 0.554666 0.088111 0.232243
Si Si2 0.331747 0.280180 0.189194
Si Si3 0.733171 0.416107 0.475637
Si Si4 0.963895 0.271598 0.655889
Si Si5 0.144601 0.439947 0.950384
Si Si6 0.819576 0.880390 0.230841
Si Si7 0.498758 0.284008 0.320725
O O1 0.660183 0.062725 0.254119
O O2 0.517655 0.102624 0.121642
O O3 0.526544 0.179040 0.292085
O O4 0.500000 0.000000 0.272121
O O5 0.290349 0.372826 0.144583
O O6 0.399347 0.231261 0.111182
O O7 0.250422 0.207191 0.217160
O O8 0.395973 0.301356 0.282730
O O9 0.685104 0.314897 0.500000
O O10 0.844470 0.412394 0.467287
O O11 0.692564 0.438117 0.369749
O O12 0.704704 0.481930 0.564398
O O13 0.977123 0.328458 0.556261
O O14 0.054704 0.214474 0.682737
O O15 0.924489 0.845806 0.235019
#
# Coordination Sequence:
#
# PCOD9549988 Si02
#       7
#     8   8   8   8   8   8   8
#     4  11  22  37  56  91 121 151 201 253 307 358
#     4  10  21  39  63  90 117 159 215 246 298 370
#     4   9  16  35  61  84 112 160 209 248 292 360
#     4  12  21  39  63  86 125 164 197 251 315 359
#     4  10  20  36  61  88 119 160 211 249 293 367
#     4  10  21  38  60  90 120 160 205 252 309 368
#     4  10  19  38  64  85 122 157 204 261 302 357
#
# _framework density 19.665510000000001
#
# number of rings (size 3 to 8) (size 9 to 14) (size 15 to 20)
#    0.000    1.714    2.857    4.714    0.000    1.143 
#    7.714    3.571    0.000    6.000    0.000    0.000 
#    0.000    0.000    0.000    0.000    0.000    0.000 
#
# Total GULP energy -312411.269835 kJ/mol
# GULP energy per Si atom -5578.772676 kJ/mol
# Density = 1.962075 g / cm^3
# Si number density = 19.665510 Si / 1000 Ang^3
#
#
#
# Elastic Constant Matrix: (Units=GPa)
#
#
# Indices 1 2 3 4 5 6 
#
# 1 -37.1121 80.3031 13.2968 0.0000 0.0000 0.0000
# 2 80.3031 -37.1182 13.3020 0.0000 0.0000 0.0000
# 3 13.2968 13.3020 63.0273 0.0000 0.0000 0.0000
# 4 0.0000 0.0000 0.0000 -64.8503 0.0000 0.0000
# 5 0.0000 0.0000 0.0000 0.0000 -64.8597 0.0000
# 6 0.0000 0.0000 0.0000 0.0000 0.0000 22.6713
#
#
#
# Elastic Compliance Matrix: (Units=1/GPa)
#
#
# Indices 1 2 3 4 5 6 
#
# 1 0.009049 0.017565 -0.005616 0.000000 0.000000 0.000000
# 2 0.017565 0.009047 -0.005615 0.000000 0.000000 0.000000
# 3 -0.005616 -0.005615 0.018236 0.000000 0.000000 0.000000
# 4 0.000000 0.000000 0.000000 -0.015420 0.000000 0.000000
# 5 0.000000 0.000000 0.000000 0.000000 -0.015418 0.000000
# 6 0.000000 0.000000 0.000000 0.000000 0.000000 0.044109
#
#
# Mechanical properties :
#
#
# Convention : Reuss Voigt Hill
#
# Bulk Modulus (GPa) = 20.40823 22.51120 21.45971
# Shear Modulus (GPa) = 93.86258 -29.28139 32.29060
#
# Velocity S-wave (km/s) = 6.91615 -3.86291 4.05655
# Velocity P-wave (km/s) = 8.61265 2.90244 5.73383
#
# Compressibility (1/GPa) = 0.04899984
#
# Stress axis : x y z
#
# Youngs Moduli (GPa) = 110.50622 110.52944 54.83639
#
# Poissons Ratio (x) = -1.94144 0.30797
# Poissons Ratio (y) = -1.94103 0.30791
# Poissons Ratio (z) = 0.62063 0.62063
#
# Static dielectric constant tensor:
#      x y z
#    x 1.843800 0.000000 0.000000 
#    y 0.000000 1.843820 0.000000 
#    z 0.000000 0.000000 1.711660 
# 
# From -- ./inp_files/2714.got.cif
#   From: 2010.05.17/outbox.cif.g08.bks.cpg/sg94_2_cif.got.tgz:2714.got - 2010.06.03 19:43:16.
