data_PCOD9549951
_publ_section_title
;
Structure prediction by ZEFSAII (Michael W. Deem and Ramdas Pophale) SiO2 
 PCOD9549951
Probable space group: P 42 21 2
;
_chemical_formula_sum "Si O2"
_cell_formula_units_Z 48
_cell_length_a 11.128781
_cell_length_b 11.128781
_cell_length_c 17.311255
_cell_angle_alpha 90.000000
_cell_angle_beta 90.000000
_cell_angle_gamma 90.000000
_cell_volume 2143.994890
_symmetry_space_group_name_H-M "P 42 21 2"
_symmetry_group_IT_number 94
_symmetry_cell_setting 'tetragonal'
loop_
_space_group_symop_operation_xyz
x,y,z
1/2-y,1/2+x,1/2+z
-x,-y,z
1/2+y,1/2-x,1/2+z
1/2+x,1/2-y,1/2-z
1/2-x,1/2+y,1/2-z
y,x,-z
-y,-x,-z
loop_
_atom_site_type_symbol
_atom_site_label
_atom_site_fract_x
_atom_site_fract_y
_atom_site_fract_z
Si Si1 0.576888 0.612308 0.799248
Si Si2 0.169541 0.649629 0.887968
Si Si3 0.141690 0.524975 0.522499
Si Si4 0.772756 0.620220 0.908259
Si Si5 0.464259 0.839219 0.726092
Si Si6 0.404663 0.230598 0.335268
O O1 0.500000 0.500000 0.824333
O O2 0.647724 0.664975 0.872956
O O3 0.492493 0.708187 0.758414
O O4 0.672419 0.574536 0.732409
O O5 0.237482 0.526221 0.907363
O O6 0.242471 0.770525 0.869190
O O7 0.088253 0.618459 0.812588
O O8 0.074965 0.673553 0.957043
O O9 0.153091 0.657464 0.486239
O O10 0.224783 0.499604 0.595833
O O11 0.000000 0.500000 0.538120
O O12 0.868569 0.659504 0.842911
O O13 0.399419 0.905112 0.795836
#
# Coordination Sequence:
#
# PCOD9549951 Si02
#       6
#     8   8   8   8   8   8
#     4  10  20  34  55  84 116 154 203 257 315 371
#     4   9  17  32  53  76 107 147 192 245 301 359
#     4   9  18  32  52  78 109 150 197 241 304 379
#     4   9  18  34  56  79 113 155 198 256 310 370
#     4   9  18  31  51  81 109 143 195 253 307 362
#     4  10  19  31  54  83 112 148 196 253 307 370
#
# _framework density 22.388113000000001
#
# number of rings (size 3 to 8) (size 9 to 14) (size 15 to 20)
#    0.000    2.667    0.000    3.000    0.000    2.667 
#    0.000    0.000    0.000   34.000    0.000    9.333 
#    0.000    0.000    0.000    0.000    0.000    0.000 
#
# Total GULP energy -267912.986876 kJ/mol
# GULP energy per Si atom -5581.520560 kJ/mol
# Density = 2.233716 g / cm^3
# Si number density = 22.388113 Si / 1000 Ang^3
#
#
#
# Elastic Constant Matrix: (Units=GPa)
#
#
# Indices 1 2 3 4 5 6 
#
# 1 53.3912 43.7000 38.7522 0.0000 0.0000 0.0000
# 2 43.7000 53.3912 38.7522 0.0000 0.0000 0.0000
# 3 38.7522 38.7522 119.1164 0.0000 0.0000 0.0000
# 4 0.0000 0.0000 0.0000 15.4077 0.0000 0.0000
# 5 0.0000 0.0000 0.0000 0.0000 15.4077 0.0000
# 6 0.0000 0.0000 0.0000 0.0000 0.0000 27.2564
#
#
#
# Elastic Compliance Matrix: (Units=1/GPa)
#
#
# Indices 1 2 3 4 5 6 
#
# 1 0.058550 -0.044637 -0.004526 0.000000 0.000000 0.000000
# 2 -0.044637 0.058550 -0.004526 0.000000 0.000000 0.000000
# 3 -0.004526 -0.004526 0.011340 0.000000 0.000000 0.000000
# 4 0.000000 0.000000 0.000000 0.064903 0.000000 0.000000
# 5 0.000000 0.000000 0.000000 0.000000 0.064903 0.000000
# 6 0.000000 0.000000 0.000000 0.000000 0.000000 0.036689
#
#
# Mechanical properties :
#
#
# Convention : Reuss Voigt Hill
#
# Bulk Modulus (GPa) = 47.48178 52.03419 49.75798
# Shear Modulus (GPa) = 12.21498 18.59397 15.40448
#
# Velocity S-wave (km/s) = 2.33835 2.88502 2.62595
# Velocity P-wave (km/s) = 5.34275 5.86431 5.60959
#
# Compressibility (1/GPa) = 0.02106071
#
# Stress axis : x y z
#
# Youngs Moduli (GPa) = 17.07945 17.07945 88.18179
#
# Poissons Ratio (x) = 0.76238 0.39913
# Poissons Ratio (y) = 0.76238 0.39913
# Poissons Ratio (z) = 0.07731 0.07731
#
# Static dielectric constant tensor:
#      x y z
#    x 1.837830 0.000000 0.000000 
#    y 0.000000 1.837830 0.000000 
#    z 0.000000 0.000000 1.830080 
# 
# From -- ./inp_files/4129.got.cif
#   From: 2010.05.17/outbox.cif.g08.bks.cpg/sg94_3_cif.got.tgz:4129.got - 2010.06.03 19:43:16.
