data_PCOD9549633
_publ_section_title
;
Structure prediction by ZEFSAII (Michael W. Deem and Ramdas Pophale) SiO2 
 PCOD9549633
Probable space group: P 42 2 2
;
_chemical_formula_sum "Si O2"
_cell_formula_units_Z 64
_cell_length_a 12.257468
_cell_length_b 12.257468
_cell_length_c 22.122874
_cell_angle_alpha 90.000000
_cell_angle_beta 90.000000
_cell_angle_gamma 90.000000
_cell_volume 3323.862747
_symmetry_space_group_name_H-M "P 42 2 2"
_symmetry_group_IT_number 93
_symmetry_cell_setting 'tetragonal'
loop_
_space_group_symop_operation_xyz
x,y,z
-y,x,1/2+z
-x,-y,z
y,-x,1/2+z
x,-y,-z
-x,y,-z
y,x,1/2-z
-y,-x,1/2-z
loop_
_atom_site_type_symbol
_atom_site_label
_atom_site_fract_x
_atom_site_fract_y
_atom_site_fract_z
Si Si1 0.200272 0.114319 0.030547
Si Si2 0.503868 0.132760 0.807717
Si Si3 0.267732 0.828020 0.417556
Si Si4 0.094687 0.276762 0.250985
Si Si5 0.550046 0.120843 0.939888
Si Si6 0.863234 0.258451 0.302026
Si Si7 0.268845 0.923310 0.611685
Si Si8 0.505492 0.127297 0.572639
O O1 0.322753 0.101652 0.053148
O O2 0.131176 0.158649 0.086964
O O3 0.204325 0.209566 0.979891
O O4 0.163341 0.000000 0.000000
O O5 0.609709 0.154002 0.767444
O O6 0.522611 0.174076 0.875925
O O7 0.383999 0.168618 0.787803
O O8 0.500000 0.000000 0.808409
O O9 0.191601 0.780181 0.364452
O O10 0.397583 0.805968 0.407653
O O11 0.269579 0.959518 0.420163
O O12 0.179594 0.179594 0.250000
O O13 0.051477 0.279950 0.182492
O O14 0.994940 0.256822 0.297399
O O15 0.500000 0.000000 0.937213
O O16 0.500000 0.174981 0.000000
O O17 0.818885 0.181115 0.250000
O O18 0.371749 0.846161 0.593835
O O19 0.500000 0.127866 0.500000
O O20 0.500000 0.000000 0.593543
#
# Coordination Sequence:
#
# PCOD9549633 Si02
#       8
#     8   8   8   8   8   8   8   8
#     4  12  24  36  59  89 125 157 201 248 318 381
#     4   9  21  37  63  86 118 158 218 261 290 365
#     4  11  23  38  59  89 124 163 199 252 308 370
#     4  11  24  41  60  88 127 168 210 250 309 379
#     4  10  18  36  59  84 112 151 203 259 302 353
#     4  11  23  40  60  93 124 163 205 255 313 367
#     4  11  23  39  59  86 123 169 207 248 304 372
#     4   9  18  37  60  83 116 154 212 256 290 357
#
# _framework density 19.254707
#
# number of rings (size 3 to 8) (size 9 to 14) (size 15 to 20)
#    0.000    1.500    3.750    1.875    7.000    2.750 
#    0.000    0.000    0.000    0.375    0.000    5.250 
#    0.000    0.000    0.000    0.000    0.000    0.000 
#
# Total GULP energy -356714.244499 kJ/mol
# GULP energy per Si atom -5573.660070 kJ/mol
# Density = 1.921088 g / cm^3
# Si number density = 19.254707 Si / 1000 Ang^3
#
#
#
# Elastic Constant Matrix: (Units=GPa)
#
#
# Indices 1 2 3 4 5 6 
#
# 1 81.9934 35.0622 6.7650 0.0000 0.0000 0.0000
# 2 35.0622 81.9945 6.7665 0.0000 0.0000 0.0000
# 3 6.7650 6.7665 40.7945 0.0000 0.0000 0.0000
# 4 0.0000 0.0000 0.0000 12.7470 0.0000 0.0000
# 5 0.0000 0.0000 0.0000 0.0000 12.7450 0.0000
# 6 0.0000 0.0000 0.0000 0.0000 0.0000 -11.6923
#
#
#
# Elastic Compliance Matrix: (Units=1/GPa)
#
#
# Indices 1 2 3 4 5 6 
#
# 1 0.015009 -0.006299 -0.001444 0.000000 0.000000 0.000000
# 2 -0.006299 0.015009 -0.001445 0.000000 0.000000 0.000000
# 3 -0.001444 -0.001445 0.024992 0.000000 0.000000 0.000000
# 4 0.000000 0.000000 0.000000 0.078450 0.000000 0.000000
# 5 0.000000 0.000000 0.000000 0.000000 0.078462 0.000000
# 6 0.000000 0.000000 0.000000 0.000000 0.000000 -0.085526
#
#
# Mechanical properties :
#
#
# Convention : Reuss Voigt Hill
#
# Bulk Modulus (GPa) = 27.29710 33.55219 30.42465
# Shear Modulus (GPa) = 31.85066 13.17251 22.51158
#
# Velocity S-wave (km/s) = 4.07157 2.61840 3.42299
# Velocity P-wave (km/s) = 6.02588 5.15797 5.60874
#
# Compressibility (1/GPa) = 0.03663393
#
# Stress axis : x y z
#
# Youngs Moduli (GPa) = 66.62768 66.62820 40.01236
#
# Poissons Ratio (x) = 0.41968 0.05778
# Poissons Ratio (y) = 0.41968 0.05781
# Poissons Ratio (z) = 0.09622 0.09627
#
# Static dielectric constant tensor:
#      x y z
#    x 1.696740 0.000000 0.000000 
#    y 0.000000 1.696740 0.000000 
#    z 0.000000 0.000000 1.813340 
# 
# From -- ./inp_files/6985.got.cif
#   From: 2010.05.17/outbox.cif.g08.bks.cpg/sg93_4_cif.got.tgz:6985.got - 2010.06.03 19:38:44.
