data_PCOD9549960
_publ_section_title
;
Structure prediction by ZEFSAII (Michael W. Deem and Ramdas Pophale) SiO2 
 PCOD9549960
Probable space group: P 42 21 2
;
_chemical_formula_sum "Si O2"
_cell_formula_units_Z 50
_cell_length_a 14.898562
_cell_length_b 14.898562
_cell_length_c 12.363432
_cell_angle_alpha 90.000000
_cell_angle_beta 90.000000
_cell_angle_gamma 90.000000
_cell_volume 2744.275761
_symmetry_space_group_name_H-M "P 42 21 2"
_symmetry_group_IT_number 94
_symmetry_cell_setting 'tetragonal'
loop_
_space_group_symop_operation_xyz
x,y,z
1/2-y,1/2+x,1/2+z
-x,-y,z
1/2+y,1/2-x,1/2+z
1/2+x,1/2-y,1/2-z
1/2-x,1/2+y,1/2-z
y,x,-z
-y,-x,-z
loop_
_atom_site_type_symbol
_atom_site_label
_atom_site_fract_x
_atom_site_fract_y
_atom_site_fract_z
Si Si1 0.147962 0.909306 0.891524
Si Si2 0.670856 0.060658 0.544181
Si Si3 0.038923 0.899752 0.686649
Si Si4 0.398674 0.729327 0.931570
Si Si5 0.159534 0.399241 0.702096
Si Si6 0.500000 0.500000 0.500000
Si Si7 0.500000 0.000000 0.417237
Si Si8 0.839450 0.160551 0.500000
O O1 0.244509 0.929843 0.844943
O O2 0.082526 0.869055 0.799765
O O3 0.150893 0.849108 0.000000
O O4 0.090850 0.995446 0.931258
O O5 0.662874 0.087453 0.669318
O O6 0.574139 0.049163 0.490510
O O7 0.735636 0.135201 0.489786
O O8 0.719598 0.965789 0.515207
O O9 0.961854 0.836876 0.638155
O O10 0.120766 0.893629 0.601785
O O11 0.000000 0.000000 0.694228
O O12 0.355122 0.799719 0.847667
O O13 0.326818 0.673183 0.000000
O O14 0.075823 0.454273 0.655703
#
# Coordination Sequence:
#
# PCOD9549960 Si02
#       8
#     8   8   8   8   8   2   4   4
#     4  10  20  36  60  88 127 165 204 256 323 384
#     4  10  21  41  61  89 124 160 215 262 318 374
#     4  11  18  34  61  88 124 156 195 260 319 372
#     4  10  23  38  61  96 122 161 216 260 323 390
#     4  11  22  42  62  86 127 169 212 262 322 381
#     4   8  20  36  54  90 128 158 206 244 320 388
#     4  10  24  42  62  84 124 176 216 256 318 392
#     4  10  19  34  59  92 116 149 201 264 308 370
#
# _framework density 18.219743999999999
#
# number of rings (size 3 to 8) (size 9 to 14) (size 15 to 20)
#    0.480    1.280    2.400    3.120    0.000    1.280 
#    2.880    4.000    0.000    0.000    0.000    0.000 
#    0.000    0.000    0.000    0.000    0.000    0.000 
#
# Total GULP energy -278560.750518 kJ/mol
# GULP energy per Si atom -5571.215010 kJ/mol
# Density = 1.817828 g / cm^3
# Si number density = 18.219744 Si / 1000 Ang^3
#
#
#
# Elastic Constant Matrix: (Units=GPa)
#
#
# Indices 1 2 3 4 5 6 
#
# 1 79.3077 32.5329 27.3725 0.0000 0.0000 0.0000
# 2 32.5329 79.3085 27.3721 0.0000 0.0000 0.0000
# 3 27.3725 27.3721 120.4179 0.0000 0.0000 0.0000
# 4 0.0000 0.0000 0.0000 13.4708 0.0000 0.0000
# 5 0.0000 0.0000 0.0000 0.0000 13.4719 0.0000
# 6 0.0000 0.0000 0.0000 0.0000 0.0000 25.0349
#
#
#
# Elastic Compliance Matrix: (Units=1/GPa)
#
#
# Indices 1 2 3 4 5 6 
#
# 1 0.015720 -0.005659 -0.002287 0.000000 0.000000 0.000000
# 2 -0.005659 0.015720 -0.002287 0.000000 0.000000 0.000000
# 3 -0.002287 -0.002287 0.009344 0.000000 0.000000 0.000000
# 4 0.000000 0.000000 0.000000 0.074234 0.000000 0.000000
# 5 0.000000 0.000000 0.000000 0.000000 0.074228 0.000000
# 6 0.000000 0.000000 0.000000 0.000000 0.000000 0.039944
#
#
# Mechanical properties :
#
#
# Convention : Reuss Voigt Hill
#
# Bulk Modulus (GPa) = 49.21788 50.39880 49.80834
# Shear Modulus (GPa) = 19.49857 23.17931 21.33894
#
# Velocity S-wave (km/s) = 3.27492 3.57067 3.42599
# Velocity P-wave (km/s) = 6.43213 6.68740 6.56101
#
# Compressibility (1/GPa) = 0.02031782
#
# Stress axis : x y z
#
# Youngs Moduli (GPa) = 63.61375 63.61466 107.01955
#
# Poissons Ratio (x) = 0.36000 0.24475
# Poissons Ratio (y) = 0.36000 0.24474
# Poissons Ratio (z) = 0.14548 0.14548
#
# Static dielectric constant tensor:
#      x y z
#    x 1.632080 0.000000 0.000000 
#    y 0.000000 1.632080 0.000000 
#    z 0.000000 0.000000 1.650840 
# 
# From -- ./inp_files/2704.got.cif
#   From: 2010.05.17/outbox.cif.g08.bks.cpg/sg94_2_cif.got.tgz:2704.got - 2010.06.03 19:43:16.
