data_PCOD9549236
_publ_section_title
;
Structure prediction by ZEFSAII (Michael W. Deem and Ramdas Pophale) SiO2 
 PCOD9549236
Probable space group: P 41 21 2
;
_chemical_formula_sum "Si O2"
_cell_formula_units_Z 40
_cell_length_a 13.995635
_cell_length_b 13.995635
_cell_length_c 9.291424
_cell_angle_alpha 90.000000
_cell_angle_beta 90.000000
_cell_angle_gamma 90.000000
_cell_volume 1819.983683
_symmetry_space_group_name_H-M "P 41 21 2"
_symmetry_group_IT_number 92
_symmetry_cell_setting 'tetragonal'
loop_
_space_group_symop_operation_xyz
x,y,z
1/2-y,1/2+x,1/4+z
-x,-y,1/2+z
1/2+y,1/2-x,3/4+z
1/2+x,1/2-y,3/4-z
1/2-x,1/2+y,1/4-z
y,x,-z
-y,-x,1/2-z
loop_
_atom_site_type_symbol
_atom_site_label
_atom_site_fract_x
_atom_site_fract_y
_atom_site_fract_z
Si Si1 0.829020 0.946387 0.098768
Si Si2 0.390946 0.236608 0.520588
Si Si3 0.714292 0.799218 0.285418
Si Si4 0.334026 0.135421 0.092453
Si Si5 0.546107 0.165915 0.116641
O O1 0.791581 0.854043 0.186610
O O2 0.811927 0.031404 0.213029
O O3 0.921370 0.921370 0.000000
O O4 0.749810 0.966751 0.979228
O O5 0.289815 0.289815 0.500000
O O6 0.381482 0.212348 0.690027
O O7 0.391938 0.138103 0.428480
O O8 0.696189 0.862197 0.427631
O O9 0.761619 0.700645 0.342095
O O10 0.445801 0.113195 0.107269
O O11 0.290417 0.063903 0.208556
#
# Coordination Sequence:
#
# PCOD9549236 Si02
#       5
#     8   8   8   8   8
#     4  11  21  40  70  91 128 183 231 274 350 420
#     4  11  21  42  66  95 128 176 226 281 337 414
#     4  10  22  40  64  94 134 179 221 282 352 413
#     4  11  22  39  63  97 135 174 221 284 347 420
#     4  11  20  40  61  94 129 171 223 280 345 413
#
# _framework density 21.978217000000001
#
# number of rings (size 3 to 8) (size 9 to 14) (size 15 to 20)
#    0.000    1.200    6.000    1.200    2.800    0.000 
#    3.600    0.000   13.200    0.000    0.000    0.000 
#    0.000    0.000    0.000    0.000    0.000    0.000 
#
# Total GULP energy -222673.675390 kJ/mol
# GULP energy per Si atom -5566.841885 kJ/mol
# Density = 2.192819 g / cm^3
# Si number density = 21.978217 Si / 1000 Ang^3
#
#
#
# Elastic Constant Matrix: (Units=GPa)
#
#
# Indices 1 2 3 4 5 6 
#
# 1 54.1843 22.9102 19.9570 0.0000 0.0000 0.0000
# 2 22.9102 54.1843 19.9570 0.0000 0.0000 0.0000
# 3 19.9570 19.9570 165.9919 0.0000 0.0000 0.0000
# 4 0.0000 0.0000 0.0000 30.0068 0.0000 0.0000
# 5 0.0000 0.0000 0.0000 0.0000 30.0068 0.0000
# 6 0.0000 0.0000 0.0000 0.0000 0.0000 16.0262
#
#
#
# Elastic Compliance Matrix: (Units=1/GPa)
#
#
# Indices 1 2 3 4 5 6 
#
# 1 0.022904 -0.009072 -0.001663 0.000000 0.000000 0.000000
# 2 -0.009072 0.022904 -0.001663 0.000000 0.000000 0.000000
# 3 -0.001663 -0.001663 0.006424 0.000000 0.000000 0.000000
# 4 0.000000 0.000000 0.000000 0.033326 0.000000 0.000000
# 5 0.000000 0.000000 0.000000 0.000000 0.033326 0.000000
# 6 0.000000 0.000000 0.000000 0.000000 0.000000 0.062398
#
#
# Mechanical properties :
#
#
# Convention : Reuss Voigt Hill
#
# Bulk Modulus (GPa) = 36.44797 44.44545 40.44671
# Shear Modulus (GPa) = 23.23183 29.31037 26.27110
#
# Velocity S-wave (km/s) = 3.25474 3.65582 3.46110
# Velocity P-wave (km/s) = 5.54474 6.17142 5.86646
#
# Compressibility (1/GPa) = 0.02743637
#
# Stress axis : x y z
#
# Youngs Moduli (GPa) = 43.66106 43.66106 155.65955
#
# Poissons Ratio (x) = 0.39608 0.25886
# Poissons Ratio (y) = 0.39608 0.25886
# Poissons Ratio (z) = 0.07261 0.07261
#
# Static dielectric constant tensor:
#      x y z
#    x 1.876350 0.000000 0.000000 
#    y 0.000000 1.876350 0.000000 
#    z 0.000000 0.000000 1.928030 
# 
# From -- ./inp_files/1308.got.cif
#   From: 2010.05.17/outbox.cif.g08.bks.cpg/sg92_1_cif.got.tgz:1308.got - 2010.06.03 19:35:17.
