data_PCOD9549994
_publ_section_title
;
Structure prediction by ZEFSAII (Michael W. Deem and Ramdas Pophale) SiO2 
 PCOD9549994
Probable space group: P 42 21 2
;
_chemical_formula_sum "Si O2"
_cell_formula_units_Z 24
_cell_length_a 8.206570
_cell_length_b 8.206570
_cell_length_c 14.448595
_cell_angle_alpha 90.000000
_cell_angle_beta 90.000000
_cell_angle_gamma 90.000000
_cell_volume 973.080959
_symmetry_space_group_name_H-M "P 42 21 2"
_symmetry_group_IT_number 94
_symmetry_cell_setting 'tetragonal'
loop_
_space_group_symop_operation_xyz
x,y,z
1/2-y,1/2+x,1/2+z
-x,-y,z
1/2+y,1/2-x,1/2+z
1/2+x,1/2-y,1/2-z
1/2-x,1/2+y,1/2-z
y,x,-z
-y,-x,-z
loop_
_atom_site_type_symbol
_atom_site_label
_atom_site_fract_x
_atom_site_fract_y
_atom_site_fract_z
Si Si1 0.732455 0.339864 0.598734
Si Si2 0.933732 0.815701 0.586526
Si Si3 0.668535 0.098457 0.758576
O O1 0.643639 0.356361 0.500000
O O2 0.704246 0.173083 0.657887
O O3 0.720847 0.487664 0.672340
O O4 0.920903 0.311144 0.569744
O O5 0.814054 0.814054 0.500000
O O6 0.852489 0.760938 0.680291
O O7 0.000000 0.000000 0.594048
O O8 0.500000 0.000000 0.750858
#
# Coordination Sequence:
#
# PCOD9549994 Si02
#       3
#     8   8   8
#     4  11  22  41  66 100 138 189 240 298 374 432
#     4  10  19  39  68  95 129 185 231 291 364 444
#     4  10  24  41  68 101 143 186 240 309 363 440
#
# _framework density 24.663927000000001
#
# number of rings (size 3 to 8) (size 9 to 14) (size 15 to 20)
#    0.000    1.667    3.333    2.000    0.000    4.000 
#    6.000    0.000    0.000    0.000    0.000    0.000 
#    0.000    0.000    0.000    0.000    0.000    0.000 
#
# Total GULP energy -133871.973565 kJ/mol
# GULP energy per Si atom -5577.998899 kJ/mol
# Density = 2.460779 g / cm^3
# Si number density = 24.663927 Si / 1000 Ang^3
#
#
#
# Elastic Constant Matrix: (Units=GPa)
#
#
# Indices 1 2 3 4 5 6 
#
# 1 64.9208 13.2193 55.6800 0.0000 0.0000 0.0000
# 2 13.2193 64.9205 55.6798 0.0000 0.0000 0.0000
# 3 55.6800 55.6798 221.9361 0.0000 0.0000 0.0000
# 4 0.0000 0.0000 0.0000 31.3036 0.0000 0.0000
# 5 0.0000 0.0000 0.0000 0.0000 31.3037 0.0000
# 6 0.0000 0.0000 0.0000 0.0000 0.0000 21.0867
#
#
#
# Elastic Compliance Matrix: (Units=1/GPa)
#
#
# Indices 1 2 3 4 5 6 
#
# 1 0.019631 0.000289 -0.004997 0.000000 0.000000 0.000000
# 2 0.000289 0.019631 -0.004997 0.000000 0.000000 0.000000
# 3 -0.004997 -0.004997 0.007013 0.000000 0.000000 0.000000
# 4 0.000000 0.000000 0.000000 0.031945 0.000000 0.000000
# 5 0.000000 0.000000 0.000000 0.000000 0.031945 0.000000
# 6 0.000000 0.000000 0.000000 0.000000 0.000000 0.047423
#
#
# Mechanical properties :
#
#
# Convention : Reuss Voigt Hill
#
# Bulk Modulus (GPa) = 37.22633 66.77060 51.99847
# Shear Modulus (GPa) = 26.88824 31.88535 29.38679
#
# Velocity S-wave (km/s) = 3.30538 3.59944 3.45554
# Velocity P-wave (km/s) = 5.44918 6.66375 6.08684
#
# Compressibility (1/GPa) = 0.02686271
#
# Stress axis : x y z
#
# Youngs Moduli (GPa) = 50.94058 50.94039 142.58480
#
# Poissons Ratio (x) = -0.01472 0.71257
# Poissons Ratio (y) = -0.01472 0.71257
# Poissons Ratio (z) = 0.25458 0.25457
#
# Static dielectric constant tensor:
#      x y z
#    x 2.027860 0.000000 0.000000 
#    y 0.000000 2.027860 0.000000 
#    z 0.000000 0.000000 2.053500 
# 
# From -- ./inp_files/2030.got.cif
#   From: 2010.05.17/outbox.cif.g08.bks.cpg/sg94_2_cif.got.tgz:2030.got - 2010.06.03 19:43:16.
