data_PCOD9549401
_publ_section_title
;
Structure prediction by ZEFSAII (Michael W. Deem and Ramdas Pophale) SiO2 
 PCOD9549401
Probable space group: P 41 21 2
;
_chemical_formula_sum "Si O2"
_cell_formula_units_Z 32
_cell_length_a 8.682577
_cell_length_b 8.682577
_cell_length_c 18.610101
_cell_angle_alpha 90.000000
_cell_angle_beta 90.000000
_cell_angle_gamma 90.000000
_cell_volume 1402.962352
_symmetry_space_group_name_H-M "P 41 21 2"
_symmetry_group_IT_number 92
_symmetry_cell_setting 'tetragonal'
loop_
_space_group_symop_operation_xyz
x,y,z
1/2-y,1/2+x,1/4+z
-x,-y,1/2+z
1/2+y,1/2-x,3/4+z
1/2+x,1/2-y,3/4-z
1/2-x,1/2+y,1/4-z
y,x,-z
-y,-x,1/2-z
loop_
_atom_site_type_symbol
_atom_site_label
_atom_site_fract_x
_atom_site_fract_y
_atom_site_fract_z
Si Si1 0.223479 0.435192 0.665117
Si Si2 0.740076 0.249298 0.950661
Si Si3 0.925698 0.308689 0.253983
Si Si4 0.952143 0.910612 0.420129
O O1 0.168347 0.313991 0.725159
O O2 0.146256 0.421068 0.587538
O O3 0.186469 0.597840 0.701948
O O4 0.408142 0.422976 0.656343
O O5 0.624030 0.302086 0.889212
O O6 0.866530 0.126629 0.924773
O O7 0.828586 0.404231 0.974022
O O8 0.867401 0.132600 0.250000
O O9 0.884071 0.884071 0.500000
#
# Coordination Sequence:
#
# PCOD9549401 Si02
#       4
#     8   8   8   8
#     4  11  26  47  71 104 145 188 241 301 352 435
#     4  11  25  44  71 101 140 185 231 296 357 418
#     4  12  24  46  74 103 142 189 240 290 363 431
#     4  10  24  48  65 103 143 181 234 296 352 426
#
# _framework density 22.808879000000001
#
# number of rings (size 3 to 8) (size 9 to 14) (size 15 to 20)
#    0.000    1.000    2.500    3.750    7.000    0.000 
#    4.500    0.000    0.000    0.000    0.000    0.000 
#    0.000    0.000    0.000    0.000    0.000    0.000 
#
# Total GULP energy -178970.928768 kJ/mol
# GULP energy per Si atom -5592.841524 kJ/mol
# Density = 2.275696 g / cm^3
# Si number density = 22.808879 Si / 1000 Ang^3
#
#
#
# Elastic Constant Matrix: (Units=GPa)
#
#
# Indices 1 2 3 4 5 6 
#
# 1 27.1917 2.5383 14.2952 0.0000 0.0000 0.0000
# 2 2.5383 27.1924 14.2943 0.0000 0.0000 0.0000
# 3 14.2952 14.2943 160.2049 0.0000 0.0000 0.0000
# 4 0.0000 0.0000 0.0000 38.3520 0.0000 0.0000
# 5 0.0000 0.0000 0.0000 0.0000 38.3517 0.0000
# 6 0.0000 0.0000 0.0000 0.0000 0.0000 15.2477
#
#
#
# Elastic Compliance Matrix: (Units=1/GPa)
#
#
# Indices 1 2 3 4 5 6 
#
# 1 0.038678 -0.001885 -0.003283 0.000000 0.000000 0.000000
# 2 -0.001885 0.038677 -0.003283 0.000000 0.000000 0.000000
# 3 -0.003283 -0.003283 0.006828 0.000000 0.000000 0.000000
# 4 0.000000 0.000000 0.000000 0.026074 0.000000 0.000000
# 5 0.000000 0.000000 0.000000 0.000000 0.026074 0.000000
# 6 0.000000 0.000000 0.000000 0.000000 0.000000 0.065584
#
#
# Mechanical properties :
#
#
# Convention : Reuss Voigt Hill
#
# Bulk Modulus (GPa) = 14.86293 30.76050 22.81171
# Shear Modulus (GPa) = 20.72602 30.62102 25.67352
#
# Velocity S-wave (km/s) = 3.01771 3.66799 3.35863
# Velocity P-wave (km/s) = 4.32117 5.60842 5.00634
#
# Compressibility (1/GPa) = 0.06728149
#
# Stress axis : x y z
#
# Youngs Moduli (GPa) = 25.85461 25.85544 146.45864
#
# Poissons Ratio (x) = 0.04872 0.48084
# Poissons Ratio (y) = 0.04872 0.48079
# Poissons Ratio (z) = 0.08488 0.08488
#
# Static dielectric constant tensor:
#      x y z
#    x 1.878970 0.000000 0.000000 
#    y 0.000000 1.878970 0.000000 
#    z 0.000000 0.000000 1.859100 
# 
# From -- ./inp_files/3361.got.cif
#   From: 2010.05.17/outbox.cif.g08.bks.cpg/sg92_2_cif.got.tgz:3361.got - 2010.06.03 19:35:17.
