data_PCOD9549860
_publ_section_title
;
Structure prediction by ZEFSAII (Michael W. Deem and Ramdas Pophale) SiO2 
 PCOD9549860
Probable space group: P 42 2 2
;
_chemical_formula_sum "Si O2"
_cell_formula_units_Z 32
_cell_length_a 10.397824
_cell_length_b 10.397824
_cell_length_c 13.064587
_cell_angle_alpha 90.000000
_cell_angle_beta 90.000000
_cell_angle_gamma 90.000000
_cell_volume 1412.474478
_symmetry_space_group_name_H-M "P 42 2 2"
_symmetry_group_IT_number 93
_symmetry_cell_setting 'tetragonal'
loop_
_space_group_symop_operation_xyz
x,y,z
-y,x,1/2+z
-x,-y,z
y,-x,1/2+z
x,-y,-z
-x,y,-z
y,x,1/2-z
-y,-x,1/2-z
loop_
_atom_site_type_symbol
_atom_site_label
_atom_site_fract_x
_atom_site_fract_y
_atom_site_fract_z
Si Si1 0.043131 0.648158 0.761041
Si Si2 0.213941 0.695403 0.354003
Si Si3 0.584008 0.306324 0.845459
Si Si4 0.645094 0.173821 0.530331
O O1 0.173812 0.646217 0.696918
O O2 0.000000 0.500000 0.774069
O O3 0.931520 0.708072 0.689501
O O4 0.081953 0.691935 0.876403
O O5 0.292646 0.707355 0.250000
O O6 0.256522 0.552343 0.387197
O O7 0.259702 0.802044 0.434835
O O8 0.596085 0.403916 0.750000
O O9 0.682399 0.366122 0.924856
O O10 0.500000 0.137084 0.500000
#
# Coordination Sequence:
#
# PCOD9549860 Si02
#       4
#     8   8   8   8
#     4   9  20  39  58  82 121 168 213 251 303 381
#     4  11  22  34  56  90 122 163 210 255 313 378
#     4   9  19  36  57  84 124 163 201 258 318 374
#     4  11  22  36  60  90 123 164 207 260 321 375
#
# _framework density 22.655276000000001
#
# number of rings (size 3 to 8) (size 9 to 14) (size 15 to 20)
#    0.000    2.000    0.000    5.250    0.000    9.000 
#    0.000    3.750    0.000    6.750    0.000   35.000 
#    0.000    0.000    0.000    0.000    0.000    0.000 
#
# Total GULP energy -178318.240002 kJ/mol
# GULP energy per Si atom -5572.445000 kJ/mol
# Density = 2.260371 g / cm^3
# Si number density = 22.655276 Si / 1000 Ang^3
#
#
#
# Elastic Constant Matrix: (Units=GPa)
#
#
# Indices 1 2 3 4 5 6 
#
# 1 104.7675 58.6616 43.9232 0.0000 0.0000 0.0000
# 2 58.6616 104.7721 43.9232 0.0000 0.0000 0.0000
# 3 43.9232 43.9232 121.6044 0.0000 0.0000 0.0000
# 4 0.0000 0.0000 0.0000 36.8473 0.0000 0.0000
# 5 0.0000 0.0000 0.0000 0.0000 36.8474 0.0000
# 6 0.0000 0.0000 0.0000 0.0000 0.0000 6.9357
#
#
#
# Elastic Compliance Matrix: (Units=1/GPa)
#
#
# Indices 1 2 3 4 5 6 
#
# 1 0.014641 -0.007048 -0.002743 0.000000 0.000000 0.000000
# 2 -0.007048 0.014640 -0.002742 0.000000 0.000000 0.000000
# 3 -0.002743 -0.002742 0.010205 0.000000 0.000000 0.000000
# 4 0.000000 0.000000 0.000000 0.027139 0.000000 0.000000
# 5 0.000000 0.000000 0.000000 0.000000 0.027139 0.000000
# 6 0.000000 0.000000 0.000000 0.000000 0.000000 0.144182
#
#
# Mechanical properties :
#
#
# Convention : Reuss Voigt Hill
#
# Bulk Modulus (GPa) = 69.34688 69.35111 69.34899
# Shear Modulus (GPa) = 18.66944 28.43515 23.55229
#
# Velocity S-wave (km/s) = 2.87377 3.54661 3.22777
# Velocity P-wave (km/s) = 6.45658 6.88834 6.67595
#
# Compressibility (1/GPa) = 0.01442026
#
# Stress axis : x y z
#
# Youngs Moduli (GPa) = 68.30184 68.30530 97.99516
#
# Poissons Ratio (x) = 0.48139 0.26877
# Poissons Ratio (y) = 0.48136 0.26874
# Poissons Ratio (z) = 0.18733 0.18732
#
# Static dielectric constant tensor:
#      x y z
#    x 1.918600 0.000000 0.000000 
#    y 0.000000 1.918600 0.000000 
#    z 0.000000 0.000000 1.925800 
# 
# From -- ./inp_files/3023.got.cif
#   From: 2010.05.17/outbox.cif.g08.bks.cpg/sg93_2_cif.got.tgz:3023.got - 2010.06.03 19:38:44.
