data_PCOD9549722
_publ_section_title
;
Structure prediction by ZEFSAII (Michael W. Deem and Ramdas Pophale) SiO2 
 PCOD9549722
Probable space group: P 42 2 2
;
_chemical_formula_sum "Si O2"
_cell_formula_units_Z 40
_cell_length_a 14.802886
_cell_length_b 14.802886
_cell_length_c 8.603879
_cell_angle_alpha 90.000000
_cell_angle_beta 90.000000
_cell_angle_gamma 90.000000
_cell_volume 1885.328719
_symmetry_space_group_name_H-M "P 42 2 2"
_symmetry_group_IT_number 93
_symmetry_cell_setting 'tetragonal'
loop_
_space_group_symop_operation_xyz
x,y,z
-y,x,1/2+z
-x,-y,z
y,-x,1/2+z
x,-y,-z
-x,y,-z
y,x,1/2-z
-y,-x,1/2-z
loop_
_atom_site_type_symbol
_atom_site_label
_atom_site_fract_x
_atom_site_fract_y
_atom_site_fract_z
Si Si1 0.000000 0.000000 0.750000
Si Si2 0.500000 0.771573 0.000000
Si Si3 0.059095 0.416826 0.662648
Si Si4 0.655411 0.500000 0.000000
Si Si5 0.000000 0.154493 0.000000
Si Si6 0.746615 0.146576 0.358859
Si Si7 0.305699 0.308212 0.072249
Si Si8 0.500000 0.500000 0.750000
O O1 0.002375 0.911562 0.855067
O O2 0.539282 0.843274 0.876473
O O3 0.412907 0.712845 0.950569
O O4 0.089412 0.330693 0.766476
O O5 0.000000 0.500000 0.733553
O O6 0.000000 0.394847 0.500000
O O7 0.711877 0.413471 0.956844
O O8 0.588068 0.507609 0.855192
O O9 0.085240 0.219614 0.998599
O O10 0.831294 0.168706 0.250000
O O11 0.731474 0.245062 0.435303
O O12 0.282873 0.282873 0.250000
#
# Coordination Sequence:
#
# PCOD9549722 Si02
#       8
#     2   4   8   4   4   8   8   2
#     4  10  24  50  76 102 136 178 216 294 376 466
#     4  10  21  45  68  98 148 190 250 295 373 434
#     4   9  22  45  76 104 143 198 238 305 378 445
#     4  11  24  40  60  93 136 194 248 305 372 413
#     4  11  26  48  75 106 142 176 231 298 380 445
#     4  12  26  46  75 111 143 189 247 306 364 456
#     4  12  28  42  67 102 149 201 248 313 360 435
#     4  10  20  38  64  86 124 186 256 314 364 418
#
# _framework density 21.216456999999998
#
# number of rings (size 3 to 8) (size 9 to 14) (size 15 to 20)
#    0.000    1.400    4.000    1.200    5.600    4.800 
#    0.000    0.000    0.000    0.000    0.000    0.000 
#    0.000    0.000    0.000    0.000    0.000    0.000 
#
# Total GULP energy -222706.504757 kJ/mol
# GULP energy per Si atom -5567.662619 kJ/mol
# Density = 2.116817 g / cm^3
# Si number density = 21.216457 Si / 1000 Ang^3
#
#
#
# Elastic Constant Matrix: (Units=GPa)
#
#
# Indices 1 2 3 4 5 6 
#
# 1 128.7727 -13.3184 32.6192 0.0000 0.0000 0.0000
# 2 -13.3184 128.7717 32.6220 0.0000 0.0000 0.0000
# 3 32.6192 32.6220 84.3372 0.0000 0.0000 0.0000
# 4 0.0000 0.0000 0.0000 278.8375 0.0000 0.0000
# 5 0.0000 0.0000 0.0000 0.0000 278.8450 0.0000
# 6 0.0000 0.0000 0.0000 0.0000 0.0000 35.2464
#
#
#
# Elastic Compliance Matrix: (Units=1/GPa)
#
#
# Indices 1 2 3 4 5 6 
#
# 1 0.009061 0.002023 -0.004287 0.000000 0.000000 0.000000
# 2 0.002023 0.009061 -0.004287 0.000000 0.000000 0.000000
# 3 -0.004287 -0.004287 0.015174 0.000000 0.000000 0.000000
# 4 0.000000 0.000000 0.000000 0.003586 0.000000 0.000000
# 5 0.000000 0.000000 0.000000 0.000000 0.003586 0.000000
# 6 0.000000 0.000000 0.000000 0.000000 0.000000 0.028372
#
#
# Mechanical properties :
#
#
# Convention : Reuss Voigt Hill
#
# Bulk Modulus (GPa) = 49.52195 49.52522 49.52359
# Shear Modulus (GPa) = 56.38686 137.91638 97.15162
#
# Velocity S-wave (km/s) = 5.16088 8.07128 6.77422
# Velocity P-wave (km/s) = 7.67495 10.50020 9.19671
#
# Compressibility (1/GPa) = 0.02019307
#
# Stress axis : x y z
#
# Youngs Moduli (GPa) = 110.36543 110.36242 65.90384
#
# Poissons Ratio (x) = -0.22328 0.28253
# Poissons Ratio (y) = -0.22329 0.28255
# Poissons Ratio (z) = 0.47314 0.47316
#
# Static dielectric constant tensor:
#      x y z
#    x 1.851430 0.000000 0.000000 
#    y 0.000000 1.851420 0.000000 
#    z 0.000000 0.000000 1.859020 
# 
# From -- ./inp_files/1937.got.cif
#   From: 2010.05.17/outbox.cif.g08.bks.cpg/sg93_1_cif.got.tgz:1937.got - 2010.06.03 19:38:44.
