data_PCOD9549494
_publ_section_title
;
Structure prediction by ZEFSAII (Michael W. Deem and Ramdas Pophale) SiO2 
 PCOD9549494
Probable space group: P 41 21 2
;
_chemical_formula_sum "Si O2"
_cell_formula_units_Z 48
_cell_length_a 8.017758
_cell_length_b 8.017758
_cell_length_c 27.630144
_cell_angle_alpha 90.000000
_cell_angle_beta 90.000000
_cell_angle_gamma 90.000000
_cell_volume 1776.188427
_symmetry_space_group_name_H-M "P 41 21 2"
_symmetry_group_IT_number 92
_symmetry_cell_setting 'tetragonal'
loop_
_space_group_symop_operation_xyz
x,y,z
1/2-y,1/2+x,1/4+z
-x,-y,1/2+z
1/2+y,1/2-x,3/4+z
1/2+x,1/2-y,3/4-z
1/2-x,1/2+y,1/4-z
y,x,-z
-y,-x,1/2-z
loop_
_atom_site_type_symbol
_atom_site_label
_atom_site_fract_x
_atom_site_fract_y
_atom_site_fract_z
Si Si1 0.227746 0.598589 0.689434
Si Si2 0.925262 0.754099 0.740261
Si Si3 0.704234 0.592493 0.326104
Si Si4 0.190405 0.506391 0.981525
Si Si5 0.432323 0.062781 0.660611
Si Si6 0.746495 0.191967 0.670265
O O1 0.423826 0.630135 0.697277
O O2 0.150127 0.437611 0.716236
O O3 0.201926 0.576670 0.631889
O O4 0.095855 0.738552 0.709444
O O5 0.759812 0.721051 0.706855
O O6 0.872409 0.911999 0.773091
O O7 0.935609 0.622687 0.783793
O O8 0.617746 0.650920 0.375786
O O9 0.885414 0.526478 0.344700
O O10 0.163396 0.352936 0.945132
O O11 0.210979 0.428627 0.034508
O O12 0.559610 0.216556 0.651983
#
# Coordination Sequence:
#
# PCOD9549494 Si02
#       6
#     8   8   8   8   8   8
#     4  12  27  51  81 126 172 219 295 361 431 534
#     4  12  26  50  81 121 165 228 276 353 447 508
#     4  12  27  51  82 122 170 225 289 360 446 529
#     4  11  25  49  77 119 159 219 288 345 435 517
#     4  12  26  51  80 123 172 217 294 365 432 532
#     4  11  23  49  78 110 167 219 278 353 429 526
#
# _framework density 27.024159000000001
#
# number of rings (size 3 to 8) (size 9 to 14) (size 15 to 20)
#    0.000    0.333    6.667    1.000    0.000    6.667 
#    9.000    0.000    0.000    0.000    0.000    0.000 
#    0.000    0.000    0.000    0.000    0.000    0.000 
#
# Total GULP energy -267951.642975 kJ/mol
# GULP energy per Si atom -5582.325895 kJ/mol
# Density = 2.696265 g / cm^3
# Si number density = 27.024159 Si / 1000 Ang^3
#
#
#
# Elastic Constant Matrix: (Units=GPa)
#
#
# Indices 1 2 3 4 5 6 
#
# 1 93.6743 5.4528 39.1137 0.0000 0.0000 0.0000
# 2 5.4528 93.6743 39.1137 0.0000 0.0000 0.0000
# 3 39.1137 39.1137 196.7800 0.0000 0.0000 0.0000
# 4 0.0000 0.0000 0.0000 36.3492 0.0000 0.0000
# 5 0.0000 0.0000 0.0000 0.0000 36.3492 0.0000
# 6 0.0000 0.0000 0.0000 0.0000 0.0000 46.8867
#
#
#
# Elastic Compliance Matrix: (Units=1/GPa)
#
#
# Indices 1 2 3 4 5 6 
#
# 1 0.011650 0.000315 -0.002378 0.000000 0.000000 0.000000
# 2 0.000315 0.011650 -0.002378 0.000000 0.000000 0.000000
# 3 -0.002378 -0.002378 0.006027 0.000000 0.000000 0.000000
# 4 0.000000 0.000000 0.000000 0.027511 0.000000 0.000000
# 5 0.000000 0.000000 0.000000 0.000000 0.027511 0.000000
# 6 0.000000 0.000000 0.000000 0.000000 0.000000 0.021328
#
#
# Mechanical properties :
#
#
# Convention : Reuss Voigt Hill
#
# Bulk Modulus (GPa) = 48.91400 61.27657 55.09529
# Shear Modulus (GPa) = 41.19465 43.94691 42.57078
#
# Velocity S-wave (km/s) = 3.90855 4.03700 3.97329
# Velocity P-wave (km/s) = 6.20551 6.66737 6.44058
#
# Compressibility (1/GPa) = 0.02044404
#
# Stress axis : x y z
#
# Youngs Moduli (GPa) = 85.83696 85.83696 165.91292
#
# Poissons Ratio (x) = -0.02703 0.39458
# Poissons Ratio (y) = -0.02703 0.39458
# Poissons Ratio (z) = 0.20414 0.20414
#
# Static dielectric constant tensor:
#      x y z
#    x 2.251410 0.000000 0.000000 
#    y 0.000000 2.251410 0.000000 
#    z 0.000000 0.000000 2.113430 
# 
# From -- ./inp_files/4492.got.cif
#   From: 2010.05.17/outbox.cif.g08.bks.cpg/sg92_3_cif.got.tgz:4492.got - 2010.06.03 19:35:17.
