data_PCOD9549438
_publ_section_title
;
Structure prediction by ZEFSAII (Michael W. Deem and Ramdas Pophale) SiO2 
 PCOD9549438
Probable space group: P 41 21 2
;
_chemical_formula_sum "Si O2"
_cell_formula_units_Z 36
_cell_length_a 10.816286
_cell_length_b 10.816286
_cell_length_c 14.274565
_cell_angle_alpha 90.000000
_cell_angle_beta 90.000000
_cell_angle_gamma 90.000000
_cell_volume 1670.010520
_symmetry_space_group_name_H-M "P 41 21 2"
_symmetry_group_IT_number 92
_symmetry_cell_setting 'tetragonal'
loop_
_space_group_symop_operation_xyz
x,y,z
1/2-y,1/2+x,1/4+z
-x,-y,1/2+z
1/2+y,1/2-x,3/4+z
1/2+x,1/2-y,3/4-z
1/2-x,1/2+y,1/4-z
y,x,-z
-y,-x,1/2-z
loop_
_atom_site_type_symbol
_atom_site_label
_atom_site_fract_x
_atom_site_fract_y
_atom_site_fract_z
Si Si1 0.009029 0.651072 0.519594
Si Si2 0.763807 0.236194 0.250000
Si Si3 0.775975 0.881429 0.823365
Si Si4 0.541890 0.262496 0.538975
Si Si5 0.091323 0.616055 0.089138
O O1 0.149443 0.634325 0.485622
O O2 0.985895 0.750248 0.600840
O O3 0.923074 0.672344 0.429243
O O4 0.975406 0.514142 0.561598
O O5 0.713476 0.300767 0.157345
O O6 0.909613 0.258135 0.259178
O O7 0.894051 0.882383 0.755343
O O8 0.665347 0.845875 0.752705
O O9 0.724283 0.002360 0.875307
#
# Coordination Sequence:
#
# PCOD9549438 Si02
#       5
#     8   4   8   8   8
#     4   9  18  37  64  87 118 156 223 246 293 381
#     4  12  24  36  60  94 126 158 208 266 310 354
#     4  11  23  38  65  92 126 159 210 264 310 365
#     4  11  21  38  60  96 121 164 205 266 308 371
#     4   9  20  39  63  92 116 164 209 259 304 369
#
# _framework density 21.556751999999999
#
# number of rings (size 3 to 8) (size 9 to 14) (size 15 to 20)
#    0.000    1.778    4.444    0.000    3.111    0.889 
#    0.000    6.667    4.889    0.000    0.000    0.000 
#    0.000    0.000    0.000    0.000    0.000    0.000 
#
# Total GULP energy -200763.196128 kJ/mol
# GULP energy per Si atom -5576.755448 kJ/mol
# Density = 2.150769 g / cm^3
# Si number density = 21.556752 Si / 1000 Ang^3
#
#
#
# Elastic Constant Matrix: (Units=GPa)
#
#
# Indices 1 2 3 4 5 6 
#
# 1 26.5033 10.8057 10.0563 0.0000 0.0000 0.0000
# 2 10.8057 26.5023 10.0562 0.0000 0.0000 0.0000
# 3 10.0563 10.0562 108.8967 0.0000 0.0000 0.0000
# 4 0.0000 0.0000 0.0000 26.4629 0.0000 0.0000
# 5 0.0000 0.0000 0.0000 0.0000 26.4630 0.0000
# 6 0.0000 0.0000 0.0000 0.0000 0.0000 7.2557
#
#
#
# Elastic Compliance Matrix: (Units=1/GPa)
#
#
# Indices 1 2 3 4 5 6 
#
# 1 0.045956 -0.017749 -0.002605 0.000000 0.000000 0.000000
# 2 -0.017749 0.045958 -0.002605 0.000000 0.000000 0.000000
# 3 -0.002605 -0.002605 0.009664 0.000000 0.000000 0.000000
# 4 0.000000 0.000000 0.000000 0.037789 0.000000 0.000000
# 5 0.000000 0.000000 0.000000 0.000000 0.037789 0.000000
# 6 0.000000 0.000000 0.000000 0.000000 0.000000 0.137822
#
#
# Mechanical properties :
#
#
# Convention : Reuss Voigt Hill
#
# Bulk Modulus (GPa) = 17.96617 24.85985 21.41301
# Shear Modulus (GPa) = 13.17700 20.76859 16.97279
#
# Velocity S-wave (km/s) = 2.47507 3.10730 2.80903
# Velocity P-wave (km/s) = 4.06453 4.94278 4.52501
#
# Compressibility (1/GPa) = 0.05566015
#
# Stress axis : x y z
#
# Youngs Moduli (GPa) = 21.75988 21.75905 103.47549
#
# Poissons Ratio (x) = 0.38621 0.26954
# Poissons Ratio (y) = 0.38622 0.26955
# Poissons Ratio (z) = 0.05668 0.05668
#
# Static dielectric constant tensor:
#      x y z
#    x 1.819520 0.000000 0.000000 
#    y 0.000000 1.819520 0.000000 
#    z 0.000000 0.000000 1.781680 
# 
# From -- ./inp_files/2556.got.cif
#   From: 2010.05.17/outbox.cif.g08.bks.cpg/sg92_2_cif.got.tgz:2556.got - 2010.06.03 19:35:17.
