data_PCOD9549023
_publ_section_title
;
Structure prediction by ZEFSAII (Michael W. Deem and Ramdas Pophale) SiO2 
 PCOD9549023
Probable space group: P 41 21 2
;
_chemical_formula_sum "Si O2"
_cell_formula_units_Z 48
_cell_length_a 15.407520
_cell_length_b 15.407520
_cell_length_c 7.539757
_cell_angle_alpha 90.000000
_cell_angle_beta 90.000000
_cell_angle_gamma 90.000000
_cell_volume 1789.875525
_symmetry_space_group_name_H-M "P 41 21 2"
_symmetry_group_IT_number 92
_symmetry_cell_setting 'tetragonal'
loop_
_space_group_symop_operation_xyz
x,y,z
1/2-y,1/2+x,1/4+z
-x,-y,1/2+z
1/2+y,1/2-x,3/4+z
1/2+x,1/2-y,3/4-z
1/2-x,1/2+y,1/4-z
y,x,-z
-y,-x,1/2-z
loop_
_atom_site_type_symbol
_atom_site_label
_atom_site_fract_x
_atom_site_fract_y
_atom_site_fract_z
Si Si1 0.467510 0.101767 0.334879
Si Si2 0.566023 0.608381 0.189935
Si Si3 0.484388 0.817683 0.368825
Si Si4 0.709446 0.490387 0.292750
Si Si5 0.211866 0.090666 0.826526
Si Si6 0.746629 0.172224 0.584880
O O1 0.563389 0.068866 0.271419
O O2 0.460041 0.204920 0.293028
O O3 0.405201 0.054963 0.192694
O O4 0.618860 0.542109 0.314721
O O5 0.468832 0.646295 0.195225
O O6 0.632587 0.690365 0.186169
O O7 0.565073 0.565073 0.000000
O O8 0.456975 0.745797 0.520319
O O9 0.450743 0.796456 0.172775
O O10 0.587771 0.810912 0.374235
O O11 0.693062 0.427499 0.127941
O O12 0.240474 0.191054 0.819231
O O13 0.808428 0.191573 0.750000
#
# Coordination Sequence:
#
# PCOD9549023 Si02
#       6
#     8   8   8   8   8   8
#     4  10  22  31  50  81 122 152 177 226 279 362
#     4   9  20  38  60  85 115 155 205 245 293 357
#     4  10  21  35  55  83 121 153 186 232 294 361
#     4  10  20  37  55  84 114 159 191 235 287 353
#     4  10  22  35  58  86 109 153 197 246 292 346
#     4  11  21  38  61  84 122 158 202 249 300 351
#
# _framework density 26.817505000000001
#
# number of rings (size 3 to 8) (size 9 to 14) (size 15 to 20)
#    0.000    2.000    1.667    2.000    4.667    6.667 
#    0.000    0.000    0.000    0.000   13.000    0.000 
#    0.000    0.000    0.000    0.000    0.000    0.000 
#
# Total GULP energy -267281.762243 kJ/mol
# GULP energy per Si atom -5568.370047 kJ/mol
# Density = 2.675647 g / cm^3
# Si number density = 26.817505 Si / 1000 Ang^3
#
#
#
# Elastic Constant Matrix: (Units=GPa)
#
#
# Indices 1 2 3 4 5 6 
#
# 1 118.7687 8.4496 27.9689 0.0000 0.0000 0.0000
# 2 8.4496 118.7540 27.9704 0.0000 0.0000 0.0000
# 3 27.9689 27.9704 91.7403 0.0000 0.0000 0.0000
# 4 0.0000 0.0000 0.0000 24.6792 0.0000 0.0000
# 5 0.0000 0.0000 0.0000 0.0000 24.6790 0.0000
# 6 0.0000 0.0000 0.0000 0.0000 0.0000 42.1864
#
#
#
# Elastic Compliance Matrix: (Units=1/GPa)
#
#
# Indices 1 2 3 4 5 6 
#
# 1 0.009071 0.000006 -0.002767 0.000000 0.000000 0.000000
# 2 0.000006 0.009072 -0.002768 0.000000 0.000000 0.000000
# 3 -0.002767 -0.002768 0.012588 0.000000 0.000000 0.000000
# 4 0.000000 0.000000 0.000000 0.040520 0.000000 0.000000
# 5 0.000000 0.000000 0.000000 0.000000 0.040520 0.000000
# 6 0.000000 0.000000 0.000000 0.000000 0.000000 0.023704
#
#
# Mechanical properties :
#
#
# Convention : Reuss Voigt Hill
#
# Bulk Modulus (GPa) = 50.83052 50.89341 50.86197
# Shear Modulus (GPa) = 32.66020 35.96719 34.31370
#
# Velocity S-wave (km/s) = 3.49358 3.66619 3.58093
# Velocity P-wave (km/s) = 5.93876 6.07784 6.00870
#
# Compressibility (1/GPa) = 0.01967322
#
# Stress axis : x y z
#
# Youngs Moduli (GPa) = 110.24179 110.22608 79.44099
#
# Poissons Ratio (x) = -0.00071 0.21985
# Poissons Ratio (y) = -0.00071 0.21989
# Poissons Ratio (z) = 0.30509 0.30510
#
# Static dielectric constant tensor:
#      x y z
#    x 2.152390 0.000000 0.000000 
#    y 0.000000 2.152390 0.000000 
#    z 0.000000 0.000000 2.085280 
# 
# From -- ./inp_files/1492.got.cif
#   From: 2010.05.17/outbox.cif.g08.bks.cpg/sg92_1_cif.got.tgz:1492.got - 2010.06.03 19:35:17.
