data_PCOD9549906
_publ_section_title
;
Structure prediction by ZEFSAII (Michael W. Deem and Ramdas Pophale) SiO2 
 PCOD9549906
Probable space group: P 42 2 2
;
_chemical_formula_sum "Si O2"
_cell_formula_units_Z 40
_cell_length_a 15.000000
_cell_length_b 15.000000
_cell_length_c 9.000000
_cell_angle_alpha 90.000000
_cell_angle_beta 90.000000
_cell_angle_gamma 90.000000
_cell_volume 2025.000000
_symmetry_space_group_name_H-M "P 42 2 2"
_symmetry_group_IT_number 93
_symmetry_cell_setting 'tetragonal'
loop_
_space_group_symop_operation_xyz
x,y,z
-y,x,1/2+z
-x,-y,z
y,-x,1/2+z
x,-y,-z
-x,y,-z
y,x,1/2-z
-y,-x,1/2-z
loop_
_atom_site_type_symbol
_atom_site_label
_atom_site_fract_x
_atom_site_fract_y
_atom_site_fract_z
Si Si1 0.273557 0.862147 0.030889
Si Si2 0.691836 0.763575 0.402091
Si Si3 0.584281 0.940149 0.756497
Si Si4 0.817496 0.500000 0.000000
Si Si5 0.241505 0.951448 0.707889
Si Si6 0.890921 0.890921 0.750000
O O1 0.364260 0.896969 0.104783
O O2 0.185141 0.878478 0.127190
O O3 0.283466 0.755950 0.019178
O O4 0.253925 0.913149 0.876016
O O5 0.712124 0.712124 0.250000
O O6 0.588122 0.768326 0.438573
O O7 0.739387 0.861855 0.386632
O O8 0.540777 0.875703 0.634313
O O9 0.500000 0.000000 0.802856
O O10 0.669667 0.989715 0.681720
O O11 0.148416 0.009977 0.692533
#
# Coordination Sequence:
#
# PCOD9549906 Si02
#       6
#     8   8   8   4   8   4
#     4  10  22  38  56  86 135 164 206 270 320 380
#     4  10  22  41  58  90 130 169 209 271 324 386
#     4  11  21  35  61  98 122 156 207 272 319 373
#     4  12  23  38  66  94 125 164 216 265 332 388
#     4  10  21  37  58  88 132 166 221 263 315 370
#     4  10  18  32  57  84 116 184 213 250 306 360
#
# _framework density 19.753086
#
# number of rings (size 3 to 8) (size 9 to 14) (size 15 to 20)
#    0.000    1.600    2.000    5.100    0.000    4.000 
#    0.000    4.500    0.000   14.400    0.000    8.400 
#    0.000    0.000    0.000    0.000    0.000    0.000 
#
# Total GULP energy -222798.415306 kJ/mol
# GULP energy per Si atom -5569.960383 kJ/mol
# Density = 1.970813 g / cm^3
# Si number density = 19.753086 Si / 1000 Ang^3
#
#
#
# Elastic Constant Matrix: (Units=GPa)
#
#
# Indices 1 2 3 4 5 6 
#
# 1 124.2200 68.0648 30.8174 0.0000 0.0000 0.0000
# 2 68.0648 124.2200 30.8174 0.0000 0.0000 0.0000
# 3 30.8174 30.8174 61.0211 0.0000 0.0000 0.0000
# 4 0.0000 0.0000 0.0000 25.1679 0.0000 0.0000
# 5 0.0000 0.0000 0.0000 0.0000 25.1679 0.0000
# 6 0.0000 0.0000 0.0000 0.0000 0.0000 44.5101
#
#
#
# Elastic Compliance Matrix: (Units=1/GPa)
#
#
# Indices 1 2 3 4 5 6 
#
# 1 0.012006 -0.005801 -0.003134 0.000000 0.000000 0.000000
# 2 -0.005801 0.012006 -0.003134 0.000000 0.000000 0.000000
# 3 -0.003134 -0.003134 0.019553 0.000000 0.000000 0.000000
# 4 0.000000 0.000000 0.000000 0.039733 0.000000 0.000000
# 5 0.000000 0.000000 0.000000 0.000000 0.039733 0.000000
# 6 0.000000 0.000000 0.000000 0.000000 0.000000 0.022467
#
#
# Mechanical properties :
#
#
# Convention : Reuss Voigt Hill
#
# Bulk Modulus (GPa) = 51.47147 63.20668 57.33907
# Shear Modulus (GPa) = 28.39091 30.95330 29.67210
#
# Velocity S-wave (km/s) = 3.79527 3.96284 3.87996
# Velocity P-wave (km/s) = 6.73197 7.28057 7.01164
#
# Compressibility (1/GPa) = 0.01942824
#
# Stress axis : x y z
#
# Youngs Moduli (GPa) = 83.28861 83.28861 51.14293
#
# Poissons Ratio (x) = 0.48318 0.16027
# Poissons Ratio (y) = 0.48318 0.16027
# Poissons Ratio (z) = 0.26101 0.26101
#
# Static dielectric constant tensor:
#      x y z
#    x 1.716350 0.000000 0.000000 
#    y 0.000000 1.716350 0.000000 
#    z 0.000000 0.000000 1.807470 
# 
# From -- ./inp_files/1878.got.cif
#   From: 2010.05.17/outbox.ucp.g08.bks.cvg/sg93_1_cif.got.tgz:1878.got - 2010.06.11 10:36:56.
