data_PCOD9549174
_publ_section_title
;
Structure prediction by ZEFSAII (Michael W. Deem and Ramdas Pophale) SiO2 
 PCOD9549174
Probable space group: P 41 21 2
;
_chemical_formula_sum "Si O2"
_cell_formula_units_Z 56
_cell_length_a 15.566504
_cell_length_b 15.566504
_cell_length_c 10.976273
_cell_angle_alpha 90.000000
_cell_angle_beta 90.000000
_cell_angle_gamma 90.000000
_cell_volume 2659.727082
_symmetry_space_group_name_H-M "P 41 21 2"
_symmetry_group_IT_number 92
_symmetry_cell_setting 'tetragonal'
loop_
_space_group_symop_operation_xyz
x,y,z
1/2-y,1/2+x,1/4+z
-x,-y,1/2+z
1/2+y,1/2-x,3/4+z
1/2+x,1/2-y,3/4-z
1/2-x,1/2+y,1/4-z
y,x,-z
-y,-x,1/2-z
loop_
_atom_site_type_symbol
_atom_site_label
_atom_site_fract_x
_atom_site_fract_y
_atom_site_fract_z
Si Si1 0.569562 0.170238 0.290442
Si Si2 0.927921 0.614463 0.224327
Si Si3 0.554931 0.783966 0.146176
Si Si4 0.111120 0.872674 0.450128
Si Si5 0.482217 0.482217 0.000000
Si Si6 0.995035 0.170332 0.334797
Si Si7 0.289171 0.289171 0.000000
Si Si8 0.387721 0.865212 0.257218
O O1 0.591292 0.167493 0.147319
O O2 0.480398 0.114053 0.297544
O O3 0.644132 0.125331 0.367473
O O4 0.555327 0.265339 0.340460
O O5 0.892700 0.654257 0.348513
O O6 0.030902 0.612170 0.245527
O O7 0.575485 0.718171 0.254558
O O8 0.469075 0.833582 0.182529
O O9 0.541927 0.726910 0.025421
O O10 0.045271 0.926801 0.367565
O O11 0.140405 0.923519 0.568843
O O12 0.189727 0.854627 0.359368
O O13 0.582292 0.467499 0.030827
O O14 0.194302 0.313475 0.040844
#
# Coordination Sequence:
#
# PCOD9549174 Si02
#       8
#     8   8   8   8   4   8   4   8
#     4  11  23  41  73 112 142 186 236 295 366 430
#     4  10  21  42  70 101 156 196 226 286 372 449
#     4  12  25  42  73 107 144 182 233 304 360 418
#     4  11  25  49  71  96 142 193 239 293 362 423
#     4  11  26  52  76  96 136 203 246 284 360 447
#     4  12  25  45  73 103 138 181 248 296 352 434
#     4  11  26  42  68 100 144 187 244 302 336 425
#     4  11  24  41  67 107 145 189 238 286 363 432
#
# _framework density 21.054791999999999
#
# number of rings (size 3 to 8) (size 9 to 14) (size 15 to 20)
#    0.000    0.857    2.857    4.714    4.000    2.286 
#    0.000    4.286    0.000    0.000    0.000    0.000 
#    0.000    0.000    0.000    0.000    0.000    0.000 
#
# Total GULP energy -313112.757351 kJ/mol
# GULP energy per Si atom -5591.299238 kJ/mol
# Density = 2.100687 g / cm^3
# Si number density = 21.054792 Si / 1000 Ang^3
#
#
#
# Elastic Constant Matrix: (Units=GPa)
#
#
# Indices 1 2 3 4 5 6 
#
# 1 84.5563 70.2359 35.4597 0.0000 0.0000 0.0000
# 2 70.2359 84.5563 35.4597 0.0000 0.0000 0.0000
# 3 35.4597 35.4597 87.3344 0.0000 0.0000 0.0000
# 4 0.0000 0.0000 0.0000 31.8397 0.0000 0.0000
# 5 0.0000 0.0000 0.0000 0.0000 31.8397 0.0000
# 6 0.0000 0.0000 0.0000 0.0000 0.0000 1.8370
#
#
#
# Elastic Compliance Matrix: (Units=1/GPa)
#
#
# Indices 1 2 3 4 5 6 
#
# 1 0.038884 -0.030947 -0.003222 0.000000 0.000000 0.000000
# 2 -0.030947 0.038884 -0.003222 0.000000 0.000000 0.000000
# 3 -0.003222 -0.003222 0.014067 0.000000 0.000000 0.000000
# 4 0.000000 0.000000 0.000000 0.031407 0.000000 0.000000
# 5 0.000000 0.000000 0.000000 0.000000 0.031407 0.000000
# 6 0.000000 0.000000 0.000000 0.000000 0.000000 0.544379
#
#
# Mechanical properties :
#
#
# Convention : Reuss Voigt Hill
#
# Bulk Modulus (GPa) = 58.64926 59.86195 59.25561
# Shear Modulus (GPa) = 6.41441 20.78939 13.60190
#
# Velocity S-wave (km/s) = 1.74732 3.14569 2.54446
# Velocity P-wave (km/s) = 5.65569 6.45655 6.06935
#
# Compressibility (1/GPa) = 0.01705051
#
# Stress axis : x y z
#
# Youngs Moduli (GPa) = 25.71779 25.71779 71.08831
#
# Poissons Ratio (x) = 0.79589 0.22908
# Poissons Ratio (y) = 0.79589 0.22908
# Poissons Ratio (z) = 0.08287 0.08287
#
# Static dielectric constant tensor:
#      x y z
#    x 1.755240 0.000000 0.000000 
#    y 0.000000 1.755240 0.000000 
#    z 0.000000 0.000000 1.797530 
# 
# From -- ./inp_files/2315.got.cif
#   From: 2010.05.17/outbox.cif.g08.bks.cpg/sg92_2_cif.got.tgz:2315.got - 2010.06.03 19:35:17.
