data_PCOD9549192
_publ_section_title
;
Structure prediction by ZEFSAII (Michael W. Deem and Ramdas Pophale) SiO2 
 PCOD9549192
Probable space group: P 41 21 2
;
_chemical_formula_sum "Si O2"
_cell_formula_units_Z 36
_cell_length_a 13.811649
_cell_length_b 13.811649
_cell_length_c 10.086220
_cell_angle_alpha 90.000000
_cell_angle_beta 90.000000
_cell_angle_gamma 90.000000
_cell_volume 1924.063950
_symmetry_space_group_name_H-M "P 41 21 2"
_symmetry_group_IT_number 92
_symmetry_cell_setting 'tetragonal'
loop_
_space_group_symop_operation_xyz
x,y,z
1/2-y,1/2+x,1/4+z
-x,-y,1/2+z
1/2+y,1/2-x,3/4+z
1/2+x,1/2-y,3/4-z
1/2-x,1/2+y,1/4-z
y,x,-z
-y,-x,1/2-z
loop_
_atom_site_type_symbol
_atom_site_label
_atom_site_fract_x
_atom_site_fract_y
_atom_site_fract_z
Si Si1 0.991706 0.403546 0.848619
Si Si2 0.307086 0.173800 0.295864
Si Si3 0.924743 0.147148 0.387646
Si Si4 0.644130 0.718292 0.363902
Si Si5 0.362986 0.637015 0.750000
O O1 0.087579 0.357796 0.781902
O O2 0.949563 0.478761 0.739987
O O3 0.917800 0.314386 0.867878
O O4 0.387707 0.241352 0.366439
O O5 0.258127 0.248904 0.192942
O O6 0.227967 0.140517 0.400942
O O7 0.902504 0.097497 0.250000
O O8 0.036025 0.141709 0.423633
O O9 0.103158 0.856517 0.495854
O O10 0.660891 0.660891 0.500000
#
# Coordination Sequence:
#
# PCOD9549192 Si02
#       5
#     8   8   8   8   4
#     4  12  25  42  71 104 135 185 233 281 342 412
#     4  10  22  44  66  97 142 173 223 288 339 391
#     4  10  24  44  64 100 138 177 225 282 338 411
#     4  10  21  45  65  92 143 176 217 289 342 394
#     4  12  22  40  78  96 130 194 222 276 352 412
#
# _framework density 18.710397
#
# number of rings (size 3 to 8) (size 9 to 14) (size 15 to 20)
#    1.333    0.000    3.333    2.667    0.000    9.778 
#    0.000    0.000    0.000    0.000    0.000    0.000 
#    0.000    0.000    0.000    0.000    0.000    0.000 
#
# Total GULP energy -200784.105730 kJ/mol
# GULP energy per Si atom -5577.336270 kJ/mol
# Density = 1.866781 g / cm^3
# Si number density = 18.710397 Si / 1000 Ang^3
#
#
#
# Elastic Constant Matrix: (Units=GPa)
#
#
# Indices 1 2 3 4 5 6 
#
# 1 17.3426 100.1926 18.9921 0.0000 0.0000 0.0000
# 2 100.1926 17.3750 19.0012 0.0000 0.0000 0.0000
# 3 18.9921 19.0012 91.5643 0.0000 0.0000 0.0000
# 4 0.0000 0.0000 0.0000 -142.9353 0.0000 0.0000
# 5 0.0000 0.0000 0.0000 0.0000 -141.8720 0.0000
# 6 0.0000 0.0000 0.0000 0.0000 0.0000 -11.5317
#
#
#
# Elastic Compliance Matrix: (Units=1/GPa)
#
#
# Indices 1 2 3 4 5 6 
#
# 1 -0.001479 0.010595 -0.001892 0.000000 0.000000 0.000000
# 2 0.010595 -0.001475 -0.001891 0.000000 0.000000 0.000000
# 3 -0.001892 -0.001891 0.011706 0.000000 0.000000 0.000000
# 4 0.000000 0.000000 0.000000 -0.006996 0.000000 0.000000
# 5 0.000000 0.000000 0.000000 0.000000 -0.007049 0.000000
# 6 0.000000 0.000000 0.000000 0.000000 0.000000 -0.086717
#
#
# Mechanical properties :
#
#
# Convention : Reuss Voigt Hill
#
# Bulk Modulus (GPa) = 44.69097 44.73930 44.71513
# Shear Modulus (GPa) = -50.92960 -60.06140 -55.49550
#
# Velocity S-wave (km/s) = -5.22293 -5.67188 -5.45203
# Velocity P-wave (km/s) = 3.52627 4.35089 3.96010
#
# Compressibility (1/GPa) = 0.02237588
#
# Stress axis : x y z
#
# Youngs Moduli (GPa) = -676.32348 -677.76614 85.42449
#
# Poissons Ratio (x) = 7.18118 0.16163
# Poissons Ratio (y) = 7.16589 0.16158
# Poissons Ratio (z) = -1.27963 -1.28199
#
# Static dielectric constant tensor:
#      x y z
#    x 1.967180 0.000000 0.000000 
#    y 0.000000 1.965020 0.000000 
#    z 0.000000 0.000000 1.679650 
# 
# From -- ./inp_files/2026.got.cif
#   From: 2010.05.17/outbox.cif.g08.bks.cpg/sg92_2_cif.got.tgz:2026.got - 2010.06.03 19:35:17.
