data_PCOD9549380
_publ_section_title
;
Structure prediction by ZEFSAII (Michael W. Deem and Ramdas Pophale) SiO2 
 PCOD9549380
Probable space group: P 41 21 2
;
_chemical_formula_sum "Si O2"
_cell_formula_units_Z 36
_cell_length_a 13.113654
_cell_length_b 13.113654
_cell_length_c 10.333600
_cell_angle_alpha 90.000000
_cell_angle_beta 90.000000
_cell_angle_gamma 90.000000
_cell_volume 1777.047711
_symmetry_space_group_name_H-M "P 41 21 2"
_symmetry_group_IT_number 92
_symmetry_cell_setting 'tetragonal'
loop_
_space_group_symop_operation_xyz
x,y,z
1/2-y,1/2+x,1/4+z
-x,-y,1/2+z
1/2+y,1/2-x,3/4+z
1/2+x,1/2-y,3/4-z
1/2-x,1/2+y,1/4-z
y,x,-z
-y,-x,1/2-z
loop_
_atom_site_type_symbol
_atom_site_label
_atom_site_fract_x
_atom_site_fract_y
_atom_site_fract_z
Si Si1 0.027952 0.809546 0.298057
Si Si2 0.682581 0.836757 0.315959
Si Si3 0.366595 0.633406 0.250000
Si Si4 0.244890 0.658220 0.872810
Si Si5 0.914324 0.526811 0.075200
O O1 0.955042 0.870962 0.395331
O O2 0.951548 0.770744 0.186107
O O3 0.085020 0.718743 0.373472
O O4 0.116911 0.883090 0.250000
O O5 0.756876 0.873247 0.430578
O O6 0.754096 0.763130 0.229694
O O7 0.648111 0.930410 0.227431
O O8 0.314932 0.685069 0.750000
O O9 0.127792 0.653772 0.830313
O O10 0.954402 0.501782 0.218376
#
# Coordination Sequence:
#
# PCOD9549380 Si02
#       5
#     8   8   4   8   8
#     4  11  25  44  74  98 142 184 226 289 349 424
#     4  11  23  47  70 101 139 183 236 287 355 414
#     4  10  24  44  66 104 134 182 234 282 350 426
#     4  11  26  46  68 107 141 179 232 290 352 422
#     4  12  25  43  73 105 141 188 236 296 347 417
#
# _framework density 20.258319
#
# number of rings (size 3 to 8) (size 9 to 14) (size 15 to 20)
#    0.000    0.889    3.333    2.667    4.667    1.778 
#    4.000    0.000    0.000    0.000    0.000    0.000 
#    0.000    0.000    0.000    0.000    0.000    0.000 
#
# Total GULP energy -201337.052876 kJ/mol
# GULP energy per Si atom -5592.695913 kJ/mol
# Density = 2.021221 g / cm^3
# Si number density = 20.258319 Si / 1000 Ang^3
#
#
#
# Elastic Constant Matrix: (Units=GPa)
#
#
# Indices 1 2 3 4 5 6 
#
# 1 108.1747 52.5817 36.3770 0.0000 0.0000 0.0000
# 2 52.5817 108.1767 36.3762 0.0000 0.0000 0.0000
# 3 36.3770 36.3762 88.6933 0.0000 0.0000 0.0000
# 4 0.0000 0.0000 0.0000 31.6718 0.0000 0.0000
# 5 0.0000 0.0000 0.0000 0.0000 31.6712 0.0000
# 6 0.0000 0.0000 0.0000 0.0000 0.0000 18.7565
#
#
#
# Elastic Compliance Matrix: (Units=1/GPa)
#
#
# Indices 1 2 3 4 5 6 
#
# 1 0.012813 -0.005175 -0.003133 0.000000 0.000000 0.000000
# 2 -0.005175 0.012813 -0.003133 0.000000 0.000000 0.000000
# 3 -0.003133 -0.003133 0.013845 0.000000 0.000000 0.000000
# 4 0.000000 0.000000 0.000000 0.031574 0.000000 0.000000
# 5 0.000000 0.000000 0.000000 0.000000 0.031574 0.000000
# 6 0.000000 0.000000 0.000000 0.000000 0.000000 0.053315
#
#
# Mechanical properties :
#
#
# Convention : Reuss Voigt Hill
#
# Bulk Modulus (GPa) = 60.27686 61.74605 61.01145
# Shear Modulus (GPa) = 27.12321 28.40055 27.76188
#
# Velocity S-wave (km/s) = 3.66302 3.74828 3.70590
# Velocity P-wave (km/s) = 6.90717 7.01986 6.96374
#
# Compressibility (1/GPa) = 0.01659011
#
# Stress axis : x y z
#
# Youngs Moduli (GPa) = 78.04491 78.04716 72.23056
#
# Poissons Ratio (x) = 0.40386 0.22629
# Poissons Ratio (y) = 0.40385 0.22627
# Poissons Ratio (z) = 0.24451 0.24449
#
# Static dielectric constant tensor:
#      x y z
#    x 1.694390 0.000000 0.000000 
#    y 0.000000 1.694390 0.000000 
#    z 0.000000 0.000000 1.745390 
# 
# From -- ./inp_files/2021.got.cif
#   From: 2010.05.17/outbox.cif.g08.bks.cpg/sg92_2_cif.got.tgz:2021.got - 2010.06.03 19:35:17.
