data_PCOD9549421
_publ_section_title
;
Structure prediction by ZEFSAII (Michael W. Deem and Ramdas Pophale) SiO2 
 PCOD9549421
Probable space group: P 41 21 2
;
_chemical_formula_sum "Si O2"
_cell_formula_units_Z 36
_cell_length_a 11.699099
_cell_length_b 11.699099
_cell_length_c 11.840560
_cell_angle_alpha 90.000000
_cell_angle_beta 90.000000
_cell_angle_gamma 90.000000
_cell_volume 1620.604629
_symmetry_space_group_name_H-M "P 41 21 2"
_symmetry_group_IT_number 92
_symmetry_cell_setting 'tetragonal'
loop_
_space_group_symop_operation_xyz
x,y,z
1/2-y,1/2+x,1/4+z
-x,-y,1/2+z
1/2+y,1/2-x,3/4+z
1/2+x,1/2-y,3/4-z
1/2-x,1/2+y,1/4-z
y,x,-z
-y,-x,1/2-z
loop_
_atom_site_type_symbol
_atom_site_label
_atom_site_fract_x
_atom_site_fract_y
_atom_site_fract_z
Si Si1 0.961718 0.539169 0.600828
Si Si2 0.599718 0.300057 0.635507
Si Si3 0.001929 0.998072 0.250000
Si Si4 0.464177 0.697318 0.678169
Si Si5 0.674002 0.842790 0.743296
O O1 0.997160 0.525814 0.732992
O O2 0.943263 0.673821 0.589699
O O3 0.855252 0.452342 0.585433
O O4 0.637285 0.362716 0.750000
O O5 0.514213 0.384272 0.568980
O O6 0.712117 0.287262 0.557173
O O7 0.009562 0.890284 0.166419
O O8 0.376821 0.623180 0.750000
O O9 0.570030 0.754357 0.741836
O O10 0.395146 0.796620 0.614233
#
# Coordination Sequence:
#
# PCOD9549421 Si02
#       5
#     8   8   4   8   8
#     4  12  26  47  77 111 150 201 257 314 381 460
#     4  11  23  44  77 110 144 203 257 312 377 464
#     4  10  26  44  72 112 144 194 246 318 382 446
#     4  11  25  47  72 107 154 195 250 316 379 458
#     4  11  24  45  77 105 146 204 255 313 380 452
#
# _framework density 22.213930999999999
#
# number of rings (size 3 to 8) (size 9 to 14) (size 15 to 20)
#    0.000    0.889    4.444    0.667    7.778    5.333 
#    2.000    0.000    0.000    0.000    0.000    0.000 
#    0.000    0.000    0.000    0.000    0.000    0.000 
#
# Total GULP energy -201057.127955 kJ/mol
# GULP energy per Si atom -5584.920221 kJ/mol
# Density = 2.216337 g / cm^3
# Si number density = 22.213931 Si / 1000 Ang^3
#
#
#
# Elastic Constant Matrix: (Units=GPa)
#
#
# Indices 1 2 3 4 5 6 
#
# 1 120.7248 36.1580 67.0286 0.0000 0.0000 0.0000
# 2 36.1580 120.7221 67.0338 0.0000 0.0000 0.0000
# 3 67.0286 67.0338 146.2061 0.0000 0.0000 0.0000
# 4 0.0000 0.0000 0.0000 -7.7129 0.0000 0.0000
# 5 0.0000 0.0000 0.0000 0.0000 -7.7429 0.0000
# 6 0.0000 0.0000 0.0000 0.0000 0.0000 1.9129
#
#
#
# Elastic Compliance Matrix: (Units=1/GPa)
#
#
# Indices 1 2 3 4 5 6 
#
# 1 0.011152 -0.000672 -0.004804 0.000000 0.000000 0.000000
# 2 -0.000672 0.011153 -0.004805 0.000000 0.000000 0.000000
# 3 -0.004804 -0.004805 0.011245 0.000000 0.000000 0.000000
# 4 0.000000 0.000000 0.000000 -0.129653 0.000000 0.000000
# 5 0.000000 0.000000 0.000000 0.000000 -0.129151 0.000000
# 6 0.000000 0.000000 0.000000 0.000000 0.000000 0.522764
#
#
# Mechanical properties :
#
#
# Convention : Reuss Voigt Hill
#
# Bulk Modulus (GPa) = 77.00364 80.89930 78.95147
# Shear Modulus (GPa) = 15.50848 11.78694 13.64771
#
# Velocity S-wave (km/s) = 2.64510 2.30600 2.48135
# Velocity P-wave (km/s) = 6.63842 6.60208 6.62028
#
# Compressibility (1/GPa) = 0.01298640
#
# Stress axis : x y z
#
# Youngs Moduli (GPa) = 89.66818 89.66075 88.92491
#
# Poissons Ratio (x) = 0.06029 0.42724
# Poissons Ratio (y) = 0.06030 0.42731
# Poissons Ratio (z) = 0.43081 0.43085
#
# Static dielectric constant tensor:
#      x y z
#    x 1.822510 0.000000 0.000000 
#    y 0.000000 1.822510 0.000000 
#    z 0.000000 0.000000 1.866320 
# 
# From -- ./inp_files/2008.got.cif
#   From: 2010.05.17/outbox.cif.g08.bks.cpg/sg92_2_cif.got.tgz:2008.got - 2010.06.03 19:35:17.
