data_PCOD9549249
_publ_section_title
;
Structure prediction by ZEFSAII (Michael W. Deem and Ramdas Pophale) SiO2 
 PCOD9549249
Probable space group: P 41 21 2
;
_chemical_formula_sum "Si O2"
_cell_formula_units_Z 36
_cell_length_a 12.161240
_cell_length_b 12.161240
_cell_length_c 12.866596
_cell_angle_alpha 90.000000
_cell_angle_beta 90.000000
_cell_angle_gamma 90.000000
_cell_volume 1902.914973
_symmetry_space_group_name_H-M "P 41 21 2"
_symmetry_group_IT_number 92
_symmetry_cell_setting 'tetragonal'
loop_
_space_group_symop_operation_xyz
x,y,z
1/2-y,1/2+x,1/4+z
-x,-y,1/2+z
1/2+y,1/2-x,3/4+z
1/2+x,1/2-y,3/4-z
1/2-x,1/2+y,1/4-z
y,x,-z
-y,-x,1/2-z
loop_
_atom_site_type_symbol
_atom_site_label
_atom_site_fract_x
_atom_site_fract_y
_atom_site_fract_z
Si Si1 0.760056 0.059346 0.924440
Si Si2 0.333123 0.778797 0.575381
Si Si3 0.252191 0.252191 0.000000
Si Si4 0.078482 0.174942 0.165797
Si Si5 0.996269 0.996269 0.500000
Si Si6 0.166249 0.833752 0.750000
O O1 0.763508 0.144332 0.827644
O O2 0.876918 0.034972 0.980567
O O3 0.717696 0.943091 0.889247
O O4 0.677337 0.116714 0.002382
O O5 0.335263 0.670059 0.504539
O O6 0.230008 0.786288 0.651023
O O7 0.247736 0.142044 0.925009
O O8 0.962059 0.194703 0.225010
O O9 0.049963 0.065307 0.101321
#
# Coordination Sequence:
#
# PCOD9549249 Si02
#       6
#     8   8   4   8   4   4
#     4  11  22  43  63  99 127 175 214 277 327 396
#     4  11  25  40  64  94 135 164 218 270 333 386
#     4   9  22  43  69  93 134 164 222 275 338 389
#     4  10  22  41  67  99 121 170 220 276 318 382
#     4  11  19  40  76  94 124 166 236 269 311 386
#     4  12  23  41  65  95 128 174 218 272 321 391
#
# _framework density 18.918344000000001
#
# number of rings (size 3 to 8) (size 9 to 14) (size 15 to 20)
#    0.000    1.333    2.222    3.333    3.111    0.000 
#    4.000    0.000    0.000    0.000    0.000    0.000 
#    0.000    0.000    0.000    0.000    0.000    0.000 
#
# Total GULP energy -200563.071755 kJ/mol
# GULP energy per Si atom -5571.196438 kJ/mol
# Density = 1.887529 g / cm^3
# Si number density = 18.918344 Si / 1000 Ang^3
#
#
#
# Elastic Constant Matrix: (Units=GPa)
#
#
# Indices 1 2 3 4 5 6 
#
# 1 111.2961 80.7129 49.2890 0.0000 0.0000 0.0000
# 2 80.7129 111.2963 49.2878 0.0000 0.0000 0.0000
# 3 49.2890 49.2878 87.6461 0.0000 0.0000 0.0000
# 4 0.0000 0.0000 0.0000 24.3835 0.0000 0.0000
# 5 0.0000 0.0000 0.0000 0.0000 24.3835 0.0000
# 6 0.0000 0.0000 0.0000 0.0000 0.0000 49.7575
#
#
#
# Elastic Compliance Matrix: (Units=1/GPa)
#
#
# Indices 1 2 3 4 5 6 
#
# 1 0.020010 -0.012688 -0.004118 0.000000 0.000000 0.000000
# 2 -0.012688 0.020010 -0.004117 0.000000 0.000000 0.000000
# 3 -0.004118 -0.004117 0.016041 0.000000 0.000000 0.000000
# 4 0.000000 0.000000 0.000000 0.041011 0.000000 0.000000
# 5 0.000000 0.000000 0.000000 0.000000 0.041011 0.000000
# 6 0.000000 0.000000 0.000000 0.000000 0.000000 0.020097
#
#
# Mechanical properties :
#
#
# Convention : Reuss Voigt Hill
#
# Bulk Modulus (GPa) = 70.35155 74.31308 72.33232
# Shear Modulus (GPa) = 24.41831 28.43484 26.42658
#
# Velocity S-wave (km/s) = 3.59656 3.88110 3.74153
# Velocity P-wave (km/s) = 7.38340 7.71039 7.54867
#
# Compressibility (1/GPa) = 0.01421433
#
# Stress axis : x y z
#
# Youngs Moduli (GPa) = 49.97500 49.97597 62.34163
#
# Poissons Ratio (x) = 0.63408 0.25672
# Poissons Ratio (y) = 0.63407 0.25668
# Poissons Ratio (z) = 0.20579 0.20576
#
# Static dielectric constant tensor:
#      x y z
#    x 1.642930 0.000000 0.000000 
#    y 0.000000 1.642930 0.000000 
#    z 0.000000 0.000000 1.701040 
# 
# From -- ./inp_files/2031.got.cif
#   From: 2010.05.17/outbox.cif.g08.bks.cpg/sg92_2_cif.got.tgz:2031.got - 2010.06.03 19:35:17.
