data_PCOD9549691
_publ_section_title
;
Structure prediction by ZEFSAII (Michael W. Deem and Ramdas Pophale) SiO2 
 PCOD9549691
Probable space group: P 42 2 2
;
_chemical_formula_sum "Si O2"
_cell_formula_units_Z 56
_cell_length_a 14.816570
_cell_length_b 14.816570
_cell_length_c 14.981055
_cell_angle_alpha 90.000000
_cell_angle_beta 90.000000
_cell_angle_gamma 90.000000
_cell_volume 3288.802188
_symmetry_space_group_name_H-M "P 42 2 2"
_symmetry_group_IT_number 93
_symmetry_cell_setting 'tetragonal'
loop_
_space_group_symop_operation_xyz
x,y,z
-y,x,1/2+z
-x,-y,z
y,-x,1/2+z
x,-y,-z
-x,y,-z
y,x,1/2-z
-y,-x,1/2-z
loop_
_atom_site_type_symbol
_atom_site_label
_atom_site_fract_x
_atom_site_fract_y
_atom_site_fract_z
Si Si1 0.890618 0.328031 0.899463
Si Si2 0.096220 0.986402 0.841569
Si Si3 0.108969 0.600494 0.702423
Si Si4 0.843602 0.779952 0.625712
Si Si5 0.234524 0.154706 0.079872
Si Si6 0.667359 0.901010 0.598027
Si Si7 0.401568 0.894477 0.215013
O O1 0.873646 0.380289 0.807458
O O2 0.820191 0.246752 0.905032
O O3 0.995666 0.296595 0.894752
O O4 0.886081 0.371364 0.998606
O O5 0.064173 0.935827 0.750000
O O6 0.165596 0.921631 0.888965
O O7 0.151015 0.080383 0.837148
O O8 0.000000 0.000000 0.889479
O O9 0.151895 0.676302 0.639930
O O10 0.137129 0.498369 0.679814
O O11 0.000363 0.608335 0.690604
O O12 0.863122 0.749305 0.524283
O O13 0.750020 0.834041 0.618069
O O14 0.844353 0.688177 0.682363
O O15 0.596480 0.890912 0.677405
#
# Coordination Sequence:
#
# PCOD9549691 Si02
#       7
#     8   8   8   8   8   8   8
#     4   9  18  33  53  76  98 131 164 222 269 311
#     4  11  23  31  48  72  98 142 180 221 255 298
#     4  10  20  34  51  70  97 135 185 218 263 303
#     4  11  22  34  49  72 105 140 176 217 266 306
#     4  11  21  34  50  72 103 137 175 220 258 311
#     4   9  19  33  52  74 103 129 171 213 271 318
#     4  10  21  33  50  69  96 142 177 223 257 307
#
# _framework density 17.027476
#
# number of rings (size 3 to 8) (size 9 to 14) (size 15 to 20)
#    0.000    1.857    1.429    3.000    6.000    3.429 
#    0.000    4.286    0.000    0.000    0.000    0.000 
#    0.000    9.143    0.000   25.143    0.000    0.571 
#
# Total GULP energy -312128.626005 kJ/mol
# GULP energy per Si atom -5573.725464 kJ/mol
# Density = 1.698872 g / cm^3
# Si number density = 17.027476 Si / 1000 Ang^3
#
#
#
# Elastic Constant Matrix: (Units=GPa)
#
#
# Indices 1 2 3 4 5 6 
#
# 1 68.9056 18.5588 31.3547 0.0000 0.0000 0.0000
# 2 18.5588 68.9059 31.3547 0.0000 0.0000 0.0000
# 3 31.3547 31.3547 104.2287 0.0000 0.0000 0.0000
# 4 0.0000 0.0000 0.0000 -20.6833 0.0000 0.0000
# 5 0.0000 0.0000 0.0000 0.0000 -20.6809 0.0000
# 6 0.0000 0.0000 0.0000 0.0000 0.0000 7.3955
#
#
#
# Elastic Compliance Matrix: (Units=1/GPa)
#
#
# Indices 1 2 3 4 5 6 
#
# 1 0.017220 -0.002642 -0.004385 0.000000 0.000000 0.000000
# 2 -0.002642 0.017220 -0.004385 0.000000 0.000000 0.000000
# 3 -0.004385 -0.004385 0.012233 0.000000 0.000000 0.000000
# 4 0.000000 0.000000 0.000000 -0.048348 0.000000 0.000000
# 5 0.000000 0.000000 0.000000 0.000000 -0.048354 0.000000
# 6 0.000000 0.000000 0.000000 0.000000 0.000000 0.135217
#
#
# Mechanical properties :
#
#
# Convention : Reuss Voigt Hill
#
# Bulk Modulus (GPa) = 41.93519 44.95295 43.44407
# Shear Modulus (GPa) = 43.11785 3.92441 23.52113
#
# Velocity S-wave (km/s) = 5.03761 1.51979 3.72070
# Velocity P-wave (km/s) = 7.64971 5.43482 6.63533
#
# Compressibility (1/GPa) = 0.02384632
#
# Stress axis : x y z
#
# Youngs Moduli (GPa) = 58.07285 58.07305 81.74841
#
# Poissons Ratio (x) = 0.15346 0.35848
# Poissons Ratio (y) = 0.15345 0.35848
# Poissons Ratio (z) = 0.25466 0.25466
#
# Static dielectric constant tensor:
#      x y z
#    x 1.573260 0.000000 0.000000 
#    y 0.000000 1.573260 0.000000 
#    z 0.000000 0.000000 1.664010 
# 
# From -- ./inp_files/4529.got.cif
#   From: 2010.05.17/outbox.cif.g08.bks.cpg/sg93_3_cif.got.tgz:4529.got - 2010.06.03 19:38:44.
