data_PCOD9549551
_publ_section_title
;
Structure prediction by ZEFSAII (Michael W. Deem and Ramdas Pophale) SiO2 
 PCOD9549551
Probable space group: P 41 21 2
;
_chemical_formula_sum "Si O2"
_cell_formula_units_Z 32
_cell_length_a 12.051073
_cell_length_b 12.051073
_cell_length_c 10.031590
_cell_angle_alpha 90.000000
_cell_angle_beta 90.000000
_cell_angle_gamma 90.000000
_cell_volume 1456.871368
_symmetry_space_group_name_H-M "P 41 21 2"
_symmetry_group_IT_number 92
_symmetry_cell_setting 'tetragonal'
loop_
_space_group_symop_operation_xyz
x,y,z
1/2-y,1/2+x,1/4+z
-x,-y,1/2+z
1/2+y,1/2-x,3/4+z
1/2+x,1/2-y,3/4-z
1/2-x,1/2+y,1/4-z
y,x,-z
-y,-x,1/2-z
loop_
_atom_site_type_symbol
_atom_site_label
_atom_site_fract_x
_atom_site_fract_y
_atom_site_fract_z
Si Si1 0.401259 0.034869 0.616804
Si Si2 0.376931 0.294266 0.355594
Si Si3 0.812279 0.774427 0.359983
Si Si4 0.506693 0.731992 0.215372
O O1 0.462571 0.952466 0.719390
O O2 0.276194 0.988941 0.610000
O O3 0.426336 0.157397 0.676059
O O4 0.326177 0.326177 0.500000
O O5 0.291639 0.221350 0.268670
O O6 0.372413 0.412158 0.281834
O O7 0.746009 0.746009 0.500000
O O8 0.939790 0.752300 0.398314
O O9 0.791521 0.906625 0.361569
#
# Coordination Sequence:
#
# PCOD9549551 Si02
#       4
#     8   8   8   8
#     4  12  24  39  66 103 136 178 232 289 343 414
#     4  12  23  38  67 109 136 174 242 293 341 410
#     4   8  22  45  69  90 142 190 221 279 352 437
#     4   9  21  45  68  87 143 187 221 278 361 399
#
# _framework density 21.964877999999999
#
# number of rings (size 3 to 8) (size 9 to 14) (size 15 to 20)
#    1.500    0.000    2.500    3.000    0.000    0.000 
#    0.000    5.000    0.000    0.000    0.000    0.000 
#    0.000    0.000    0.000    0.000    0.000    0.000 
#
# Total GULP energy -178143.081804 kJ/mol
# GULP energy per Si atom -5566.971306 kJ/mol
# Density = 2.191489 g / cm^3
# Si number density = 21.964878 Si / 1000 Ang^3
#
#
#
# Elastic Constant Matrix: (Units=GPa)
#
#
# Indices 1 2 3 4 5 6 
#
# 1 44.8788 60.4822 -16.3211 0.0000 0.0000 0.0000
# 2 60.4822 44.8788 -16.3211 0.0000 0.0000 0.0000
# 3 -16.3211 -16.3211 24.1854 0.0000 0.0000 0.0000
# 4 0.0000 0.0000 0.0000 32.8383 0.0000 0.0000
# 5 0.0000 0.0000 0.0000 0.0000 32.8383 0.0000
# 6 0.0000 0.0000 0.0000 0.0000 0.0000 50.7002
#
#
#
# Elastic Compliance Matrix: (Units=1/GPa)
#
#
# Indices 1 2 3 4 5 6 
#
# 1 -0.026044 0.038044 0.008098 0.000000 0.000000 0.000000
# 2 0.038044 -0.026044 0.008098 0.000000 0.000000 0.000000
# 3 0.008098 0.008098 0.052277 0.000000 0.000000 0.000000
# 4 0.000000 0.000000 0.000000 0.030452 0.000000 0.000000
# 5 0.000000 0.000000 0.000000 0.000000 0.030452 0.000000
# 6 0.000000 0.000000 0.000000 0.000000 0.000000 0.019724
#
#
# Mechanical properties :
#
#
# Convention : Reuss Voigt Hill
#
# Bulk Modulus (GPa) = 9.20225 18.84701 14.02463
# Shear Modulus (GPa) = 584.21099 29.01555 306.61327
#
# Velocity S-wave (km/s) = 16.32643 3.63850 11.82775
# Velocity P-wave (km/s) = 18.96317 5.12354 13.88979
#
# Compressibility (1/GPa) = 0.10866908
#
# Stress axis : x y z
#
# Youngs Moduli (GPa) = -38.39599 -38.39599 19.12891
#
# Poissons Ratio (x) = 1.46075 -0.15491
# Poissons Ratio (y) = 1.46075 -0.15491
# Poissons Ratio (z) = 0.31093 0.31093
#
# Static dielectric constant tensor:
#      x y z
#    x 1.851380 0.000000 0.000000 
#    y 0.000000 1.851380 0.000000 
#    z 0.000000 0.000000 1.893180 
# 
# From -- ./inp_files/1932.got.cif
#   From: 2010.05.17/outbox.cif.g08.bks.cpg/sg92_1_cif.got.tgz:1932.got - 2010.06.03 19:35:17.
