data_PCOD9549216
_publ_section_title
;
Structure prediction by ZEFSAII (Michael W. Deem and Ramdas Pophale) SiO2 
 PCOD9549216
Probable space group: P 41 21 2
;
_chemical_formula_sum "Si O2"
_cell_formula_units_Z 56
_cell_length_a 11.272581
_cell_length_b 11.272581
_cell_length_c 18.434610
_cell_angle_alpha 90.000000
_cell_angle_beta 90.000000
_cell_angle_gamma 90.000000
_cell_volume 2342.505846
_symmetry_space_group_name_H-M "P 41 21 2"
_symmetry_group_IT_number 92
_symmetry_cell_setting 'tetragonal'
loop_
_space_group_symop_operation_xyz
x,y,z
1/2-y,1/2+x,1/4+z
-x,-y,1/2+z
1/2+y,1/2-x,3/4+z
1/2+x,1/2-y,3/4-z
1/2-x,1/2+y,1/4-z
y,x,-z
-y,-x,1/2-z
loop_
_atom_site_type_symbol
_atom_site_label
_atom_site_fract_x
_atom_site_fract_y
_atom_site_fract_z
Si Si1 0.820253 0.457019 0.093668
Si Si2 0.343900 0.842892 0.221351
Si Si3 0.319635 0.306158 0.632886
Si Si4 0.427656 0.685780 0.101236
Si Si5 0.004863 0.526737 0.978925
Si Si6 0.661177 0.756166 0.707759
Si Si7 0.375709 0.426294 0.084953
O O1 0.746584 0.577613 0.102750
O O2 0.762698 0.327732 0.110957
O O3 0.920780 0.467716 0.153910
O O4 0.892804 0.469648 0.019507
O O5 0.249956 0.750045 0.250000
O O6 0.428211 0.768553 0.171427
O O7 0.266665 0.931550 0.172546
O O8 0.406180 0.917937 0.281772
O O9 0.434765 0.298090 0.580611
O O10 0.326019 0.335863 0.719718
O O11 0.300944 0.711336 0.060708
O O12 0.421942 0.546523 0.118544
O O13 0.076902 0.631497 0.021483
O O14 0.606927 0.684018 0.639271
O O15 0.419668 0.419668 0.000000
#
# Coordination Sequence:
#
# PCOD9549216 Si02
#       7
#     8   8   8   8   8   8   8
#     4  11  28  48  76 104 147 201 253 308 385 466
#     4  10  22  38  66 102 138 174 236 292 373 430
#     4  11  27  49  69 109 146 198 249 313 374 465
#     4  11  23  40  69 101 135 185 232 302 363 432
#     4  11  24  47  73 101 145 193 245 302 373 460
#     4  10  25  45  69 104 148 187 241 306 379 443
#     4  10  23  40  65 108 140 185 237 298 374 443
#
# _framework density 23.906023999999999
#
# number of rings (size 3 to 8) (size 9 to 14) (size 15 to 20)
#    0.000    1.429    2.857    0.000   10.000    2.857 
#    0.000    2.857    0.000    0.000    0.000    0.000 
#    0.000    0.000    0.000    0.000    0.000    0.000 
#
# Total GULP energy -311974.208442 kJ/mol
# GULP energy per Si atom -5570.968008 kJ/mol
# Density = 2.385161 g / cm^3
# Si number density = 23.906024 Si / 1000 Ang^3
#
#
#
# Elastic Constant Matrix: (Units=GPa)
#
#
# Indices 1 2 3 4 5 6 
#
# 1 103.6560 54.3890 13.2659 0.0000 0.0000 0.0000
# 2 54.3890 103.6563 13.2652 0.0000 0.0000 0.0000
# 3 13.2659 13.2652 60.0955 0.0000 0.0000 0.0000
# 4 0.0000 0.0000 0.0000 27.5737 0.0000 0.0000
# 5 0.0000 0.0000 0.0000 0.0000 27.5744 0.0000
# 6 0.0000 0.0000 0.0000 0.0000 0.0000 45.5256
#
#
#
# Elastic Compliance Matrix: (Units=1/GPa)
#
#
# Indices 1 2 3 4 5 6 
#
# 1 0.013434 -0.006863 -0.001451 0.000000 0.000000 0.000000
# 2 -0.006863 0.013434 -0.001450 0.000000 0.000000 0.000000
# 3 -0.001451 -0.001450 0.017281 0.000000 0.000000 0.000000
# 4 0.000000 0.000000 0.000000 0.036266 0.000000 0.000000
# 5 0.000000 0.000000 0.000000 0.000000 0.036266 0.000000
# 6 0.000000 0.000000 0.000000 0.000000 0.000000 0.021966
#
#
# Mechanical properties :
#
#
# Convention : Reuss Voigt Hill
#
# Bulk Modulus (GPa) = 40.61682 47.69421 44.15552
# Shear Modulus (GPa) = 30.05136 32.56724 31.30930
#
# Velocity S-wave (km/s) = 3.54935 3.69494 3.62288
# Velocity P-wave (km/s) = 5.81587 6.18041 6.00091
#
# Compressibility (1/GPa) = 0.02462034
#
# Stress axis : x y z
#
# Youngs Moduli (GPa) = 74.43695 74.43736 57.86861
#
# Poissons Ratio (x) = 0.51089 0.08394
# Poissons Ratio (y) = 0.51089 0.08393
# Poissons Ratio (z) = 0.10798 0.10796
#
# Static dielectric constant tensor:
#      x y z
#    x 1.996250 0.000000 0.000000 
#    y 0.000000 1.996250 0.000000 
#    z 0.000000 0.000000 1.928170 
# 
# From -- ./inp_files/3574.got.cif
#   From: 2010.05.17/outbox.cif.g08.bks.cpg/sg92_2_cif.got.tgz:3574.got - 2010.06.03 19:35:17.
