data_PCOD9549422
_publ_section_title
;
Structure prediction by ZEFSAII (Michael W. Deem and Ramdas Pophale) SiO2 
 PCOD9549422
Probable space group: P 41 21 2
;
_chemical_formula_sum "Si O2"
_cell_formula_units_Z 52
_cell_length_a 19.847391
_cell_length_b 19.847391
_cell_length_c 5.939972
_cell_angle_alpha 90.000000
_cell_angle_beta 90.000000
_cell_angle_gamma 90.000000
_cell_volume 2339.867412
_symmetry_space_group_name_H-M "P 41 21 2"
_symmetry_group_IT_number 92
_symmetry_cell_setting 'tetragonal'
loop_
_space_group_symop_operation_xyz
x,y,z
1/2-y,1/2+x,1/4+z
-x,-y,1/2+z
1/2+y,1/2-x,3/4+z
1/2+x,1/2-y,3/4-z
1/2-x,1/2+y,1/4-z
y,x,-z
-y,-x,1/2-z
loop_
_atom_site_type_symbol
_atom_site_label
_atom_site_fract_x
_atom_site_fract_y
_atom_site_fract_z
Si Si1 0.496622 0.179288 0.780510
Si Si2 0.474747 0.685780 0.545803
Si Si3 0.154318 0.154318 0.000000
Si Si4 0.114993 0.885008 0.250000
Si Si5 0.834366 0.165634 0.250000
Si Si6 0.820954 0.630440 0.008821
Si Si7 0.747431 0.904433 0.178867
Si Si8 0.939945 0.431815 0.478400
O O1 0.504314 0.238663 0.964938
O O2 0.419527 0.172628 0.704570
O O3 0.541193 0.207703 0.575381
O O4 0.528152 0.107510 0.847017
O O5 0.414680 0.660314 0.387535
O O6 0.537642 0.636501 0.530485
O O7 0.444161 0.695372 0.793178
O O8 0.217605 0.151594 0.834316
O O9 0.134346 0.853900 0.501077
O O10 0.850903 0.244017 0.286308
O O11 0.857183 0.588391 0.204905
O O12 0.866075 0.696602 0.983523
O O13 0.929592 0.480796 0.267384
#
# Coordination Sequence:
#
# PCOD9549422 Si02
#       8
#     8   8   4   4   4   8   8   8
#     4  11  23  44  69 100 144 192 245 306 369 444
#     4  11  24  49  73 104 144 189 244 308 387 449
#     4  10  26  45  74 105 142 185 238 319 380 468
#     4  12  28  53  79 110 148 200 253 319 378 472
#     4  12  30  46  75 113 150 193 259 310 382 460
#     4  12  25  43  71 106 145 196 249 312 374 456
#     4  11  24  46  71 105 145 192 243 309 385 456
#     4  12  25  42  68 105 148 199 257 310 375 456
#
# _framework density 22.223481
#
# number of rings (size 3 to 8) (size 9 to 14) (size 15 to 20)
#    0.000    0.615    3.077    4.154    6.462    1.846 
#    2.769    0.000    0.000    0.000    0.000    0.000 
#    0.000    0.000    0.000    0.000    0.000    0.000 
#
# Total GULP energy -290593.947935 kJ/mol
# GULP energy per Si atom -5588.345153 kJ/mol
# Density = 2.217290 g / cm^3
# Si number density = 22.223481 Si / 1000 Ang^3
#
#
#
# Elastic Constant Matrix: (Units=GPa)
#
#
# Indices 1 2 3 4 5 6 
#
# 1 72.3394 23.2464 7.0115 0.0000 0.0000 0.0000
# 2 23.2464 72.3399 7.0113 0.0000 0.0000 0.0000
# 3 7.0115 7.0113 53.4101 0.0000 0.0000 0.0000
# 4 0.0000 0.0000 0.0000 38.3695 0.0000 0.0000
# 5 0.0000 0.0000 0.0000 0.0000 38.3695 0.0000
# 6 0.0000 0.0000 0.0000 0.0000 0.0000 40.5377
#
#
#
# Elastic Compliance Matrix: (Units=1/GPa)
#
#
# Indices 1 2 3 4 5 6 
#
# 1 0.015518 -0.004851 -0.001400 0.000000 0.000000 0.000000
# 2 -0.004851 0.015518 -0.001400 0.000000 0.000000 0.000000
# 3 -0.001400 -0.001400 0.019091 0.000000 0.000000 0.000000
# 4 0.000000 0.000000 0.000000 0.026062 0.000000 0.000000
# 5 0.000000 0.000000 0.000000 0.000000 0.026062 0.000000
# 6 0.000000 0.000000 0.000000 0.000000 0.000000 0.024668
#
#
# Mechanical properties :
#
#
# Convention : Reuss Voigt Hill
#
# Bulk Modulus (GPa) = 28.71602 30.29199 29.50400
# Shear Modulus (GPa) = 32.50302 34.17670 33.33986
#
# Velocity S-wave (km/s) = 3.82848 3.92582 3.87745
# Velocity P-wave (km/s) = 5.70023 5.84890 5.77504
#
# Compressibility (1/GPa) = 0.03482377
#
# Stress axis : x y z
#
# Youngs Moduli (GPa) = 64.43975 64.44025 52.38154
#
# Poissons Ratio (x) = 0.31261 0.07335
# Poissons Ratio (y) = 0.31260 0.07335
# Poissons Ratio (z) = 0.09024 0.09024
#
# Static dielectric constant tensor:
#      x y z
#    x 1.780490 0.000000 0.000000 
#    y 0.000000 1.780480 0.000000 
#    z 0.000000 0.000000 1.924230 
# 
# From -- ./inp_files/756.got.cif
#   From: 2010.05.17/outbox.cif.g08.bks.cpg/sg92_1_cif.got.tgz:756.got - 2010.06.03 19:35:17.
