data_PCOD9549014
_publ_section_title
;
Structure prediction by ZEFSAII (Michael W. Deem and Ramdas Pophale) SiO2 
 PCOD9549014
Probable space group: P 41 21 2
;
_chemical_formula_sum "Si O2"
_cell_formula_units_Z 48
_cell_length_a 8.725378
_cell_length_b 8.725378
_cell_length_c 28.352997
_cell_angle_alpha 90.000000
_cell_angle_beta 90.000000
_cell_angle_gamma 90.000000
_cell_volume 2158.576641
_symmetry_space_group_name_H-M "P 41 21 2"
_symmetry_group_IT_number 92
_symmetry_cell_setting 'tetragonal'
loop_
_space_group_symop_operation_xyz
x,y,z
1/2-y,1/2+x,1/4+z
-x,-y,1/2+z
1/2+y,1/2-x,3/4+z
1/2+x,1/2-y,3/4-z
1/2-x,1/2+y,1/4-z
y,x,-z
-y,-x,1/2-z
loop_
_atom_site_type_symbol
_atom_site_label
_atom_site_fract_x
_atom_site_fract_y
_atom_site_fract_z
Si Si1 0.276080 0.960171 0.636676
Si Si2 0.773709 0.899662 0.236890
Si Si3 0.741109 0.092461 0.787509
Si Si4 0.930290 0.423929 0.200047
Si Si5 0.424340 0.341022 0.240646
Si Si6 0.665176 0.487251 0.365755
O O1 0.275766 0.004979 0.691195
O O2 0.103981 0.003781 0.619548
O O3 0.384668 0.066538 0.604230
O O4 0.351939 0.793927 0.628656
O O5 0.675856 0.745597 0.240731
O O6 0.943465 0.833489 0.231928
O O7 0.735558 0.002815 0.282034
O O8 0.776813 0.223188 0.750000
O O9 0.562724 0.048763 0.790477
O O10 0.805708 0.103074 0.840918
O O11 0.780947 0.470889 0.230609
O O12 0.494920 0.505081 0.250000
O O13 0.436628 0.310825 0.184818
#
# Coordination Sequence:
#
# PCOD9549014 Si02
#       6
#     8   8   8   8   8   8
#     4  10  20  36  61  89 117 155 204 251 300 354
#     4  10  22  38  57  86 120 152 200 252 297 363
#     4   9  21  39  56  81 119 152 195 246 299 360
#     4  10  20  38  61  83 115 157 195 250 304 354
#     4  11  21  38  59  88 122 155 199 252 301 359
#     4  10  20  36  61  87 118 157 199 252 305 357
#
# _framework density 22.236877
#
# number of rings (size 3 to 8) (size 9 to 14) (size 15 to 20)
#    0.000    2.000    3.333    1.000    0.000    4.000 
#    3.000    0.000    0.000    0.000    0.000    0.000 
#    0.000    0.000    0.000    0.000    0.000    0.000 
#
# Total GULP energy -268098.476799 kJ/mol
# GULP energy per Si atom -5585.384933 kJ/mol
# Density = 2.218627 g / cm^3
# Si number density = 22.236877 Si / 1000 Ang^3
#
#
#
# Elastic Constant Matrix: (Units=GPa)
#
#
# Indices 1 2 3 4 5 6 
#
# 1 7.6638 10.5205 1.8780 0.0000 0.0000 0.0000
# 2 10.5205 7.6625 1.8778 0.0000 0.0000 0.0000
# 3 1.8780 1.8778 45.5994 0.0000 0.0000 0.0000
# 4 0.0000 0.0000 0.0000 20.3007 0.0000 0.0000
# 5 0.0000 0.0000 0.0000 0.0000 20.3009 0.0000
# 6 0.0000 0.0000 0.0000 0.0000 0.0000 37.3525
#
#
#
# Elastic Compliance Matrix: (Units=1/GPa)
#
#
# Indices 1 2 3 4 5 6 
#
# 1 -0.147237 0.202716 -0.002284 0.000000 0.000000 0.000000
# 2 0.202716 -0.147262 -0.002284 0.000000 0.000000 0.000000
# 3 -0.002284 -0.002284 0.022118 0.000000 0.000000 0.000000
# 4 0.000000 0.000000 0.000000 0.049259 0.000000 0.000000
# 5 0.000000 0.000000 0.000000 0.000000 0.049259 0.000000
# 6 0.000000 0.000000 0.000000 0.000000 0.000000 0.026772
#
#
# Mechanical properties :
#
#
# Convention : Reuss Voigt Hill
#
# Bulk Modulus (GPa) = 8.07013 9.94204 9.00608
# Shear Modulus (GPa) = -9.95857 18.70076 4.37109
#
# Velocity S-wave (km/s) = -2.11852 2.90311 1.40355
# Velocity P-wave (km/s) = 1.53203 3.96460 2.58563
#
# Compressibility (1/GPa) = 0.12391372
#
# Stress axis : x y z
#
# Youngs Moduli (GPa) = -6.79176 -6.79063 45.21154
#
# Poissons Ratio (x) = 1.37657 0.10327
# Poissons Ratio (y) = 1.37680 0.10328
# Poissons Ratio (z) = -0.01551 -0.01551
#
# Static dielectric constant tensor:
#      x y z
#    x 1.842690 0.000000 0.000000 
#    y 0.000000 1.842690 0.000000 
#    z 0.000000 0.000000 1.828810 
# 
# From -- ./inp_files/4496.got.cif
#   From: 2010.05.17/outbox.cif.g08.bks.cpg/sg92_3_cif.got.tgz:4496.got - 2010.06.03 19:35:17.
