data_PCOD9549181
_publ_section_title
;
Structure prediction by ZEFSAII (Michael W. Deem and Ramdas Pophale) SiO2 
 PCOD9549181
Probable space group: P 41 21 2
;
_chemical_formula_sum "Si O2"
_cell_formula_units_Z 40
_cell_length_a 14.691723
_cell_length_b 14.691723
_cell_length_c 7.899861
_cell_angle_alpha 90.000000
_cell_angle_beta 90.000000
_cell_angle_gamma 90.000000
_cell_volume 1705.159123
_symmetry_space_group_name_H-M "P 41 21 2"
_symmetry_group_IT_number 92
_symmetry_cell_setting 'tetragonal'
loop_
_space_group_symop_operation_xyz
x,y,z
1/2-y,1/2+x,1/4+z
-x,-y,1/2+z
1/2+y,1/2-x,3/4+z
1/2+x,1/2-y,3/4-z
1/2-x,1/2+y,1/4-z
y,x,-z
-y,-x,1/2-z
loop_
_atom_site_type_symbol
_atom_site_label
_atom_site_fract_x
_atom_site_fract_y
_atom_site_fract_z
Si Si1 0.522153 0.884674 0.434397
Si Si2 0.194534 0.057136 0.183968
Si Si3 0.509912 0.490089 0.750000
Si Si4 0.104720 0.895281 0.750000
Si Si5 0.212362 0.354093 0.316377
Si Si6 0.820991 0.820991 0.000000
Si Si7 0.266895 0.733106 0.250000
O O1 0.438593 0.937537 0.344542
O O2 0.504036 0.779460 0.486622
O O3 0.587946 0.865490 0.273387
O O4 0.163753 0.118229 0.338941
O O5 0.238944 0.126319 0.046547
O O6 0.103015 0.013833 0.111260
O O7 0.419826 0.470549 0.641541
O O8 0.096961 0.795509 0.664521
O O9 0.168845 0.284001 0.446889
O O10 0.255000 0.293306 0.163256
#
# Coordination Sequence:
#
# PCOD9549181 Si02
#       7
#     8   8   4   4   8   4   4
#     4  12  26  44  68 104 145 189 236 297 355 424
#     4  10  21  44  66  97 137 185 233 291 355 430
#     4  11  24  43  66  98 138 177 239 308 364 424
#     4  11  24  43  66 102 136 179 233 306 356 430
#     4  10  21  43  67  99 140 183 240 289 357 435
#     4   9  22  39  72  98 126 195 241 278 356 432
#     4   9  18  41  70  90 132 195 233 274 360 430
#
# _framework density 23.458220000000001
#
# number of rings (size 3 to 8) (size 9 to 14) (size 15 to 20)
#    0.000    1.600    4.000    0.000    2.800    1.600 
#    3.600    0.000    0.000    0.000    0.000    0.000 
#    0.000    0.000    0.000    0.000    0.000    0.000 
#
# Total GULP energy -223339.607143 kJ/mol
# GULP energy per Si atom -5583.490179 kJ/mol
# Density = 2.340483 g / cm^3
# Si number density = 23.458220 Si / 1000 Ang^3
#
#
#
# Elastic Constant Matrix: (Units=GPa)
#
#
# Indices 1 2 3 4 5 6 
#
# 1 25.9199 61.8511 19.7893 0.0000 0.0000 0.0000
# 2 61.8511 25.9172 19.7914 0.0000 0.0000 0.0000
# 3 19.7893 19.7914 70.6992 0.0000 0.0000 0.0000
# 4 0.0000 0.0000 0.0000 34.6082 0.0000 0.0000
# 5 0.0000 0.0000 0.0000 0.0000 34.6084 0.0000
# 6 0.0000 0.0000 0.0000 0.0000 0.0000 32.3038
#
#
#
# Elastic Compliance Matrix: (Units=1/GPa)
#
#
# Indices 1 2 3 4 5 6 
#
# 1 -0.007394 0.020435 -0.003651 0.000000 0.000000 0.000000
# 2 0.020435 -0.007396 -0.003649 0.000000 0.000000 0.000000
# 3 -0.003651 -0.003649 0.016188 0.000000 0.000000 0.000000
# 4 0.000000 0.000000 0.000000 0.028895 0.000000 0.000000
# 5 0.000000 0.000000 0.000000 0.000000 0.028895 0.000000
# 6 0.000000 0.000000 0.000000 0.000000 0.000000 0.030956
#
#
# Mechanical properties :
#
#
# Convention : Reuss Voigt Hill
#
# Bulk Modulus (GPa) = 36.14460 36.15555 36.15008
# Shear Modulus (GPa) = 68.40295 21.71104 45.05700
#
# Velocity S-wave (km/s) = 5.40581 3.04554 4.38737
# Velocity P-wave (km/s) = 7.37599 5.27383 6.41165
#
# Compressibility (1/GPa) = 0.02766665
#
# Stress axis : x y z
#
# Youngs Moduli (GPa) = -135.23566 -135.20982 61.77457
#
# Poissons Ratio (x) = 2.76297 0.22552
# Poissons Ratio (y) = 2.76350 0.22544
# Poissons Ratio (z) = -0.49370 -0.49344
#
# Static dielectric constant tensor:
#      x y z
#    x 1.945020 0.000000 0.000000 
#    y 0.000000 1.945020 0.000000 
#    z 0.000000 0.000000 1.922120 
# 
# From -- ./inp_files/1400.got.cif
#   From: 2010.05.17/outbox.cif.g08.bks.cpg/sg92_1_cif.got.tgz:1400.got - 2010.06.03 19:35:17.
