data_PCOD9549775
_publ_section_title
;
Structure prediction by ZEFSAII (Michael W. Deem and Ramdas Pophale) SiO2 
 PCOD9549775
Probable space group: P 42 2 2
;
_chemical_formula_sum "Si O2"
_cell_formula_units_Z 40
_cell_length_a 11.436572
_cell_length_b 11.436572
_cell_length_c 14.170841
_cell_angle_alpha 90.000000
_cell_angle_beta 90.000000
_cell_angle_gamma 90.000000
_cell_volume 1853.477687
_symmetry_space_group_name_H-M "P 42 2 2"
_symmetry_group_IT_number 93
_symmetry_cell_setting 'tetragonal'
loop_
_space_group_symop_operation_xyz
x,y,z
-y,x,1/2+z
-x,-y,z
y,-x,1/2+z
x,-y,-z
-x,y,-z
y,x,1/2-z
-y,-x,1/2-z
loop_
_atom_site_type_symbol
_atom_site_label
_atom_site_fract_x
_atom_site_fract_y
_atom_site_fract_z
Si Si1 0.807086 0.932861 0.099307
Si Si2 0.215153 0.681740 0.158197
Si Si3 0.741052 0.961626 0.311093
Si Si4 0.363110 0.747822 0.981261
Si Si5 0.726040 0.588020 0.172401
O O1 0.778957 0.988904 0.202351
O O2 0.916346 0.850065 0.126574
O O3 0.692428 0.853165 0.078871
O O4 0.827122 0.000000 0.000000
O O5 0.246523 0.753478 0.250000
O O6 0.255122 0.549051 0.173514
O O7 0.076545 0.686841 0.143182
O O8 0.288424 0.740681 0.075618
O O9 0.653464 0.850414 0.311656
O O10 0.330524 0.630678 0.925024
O O11 0.500000 0.760562 0.000000
O O12 0.636796 0.636796 0.250000
#
# Coordination Sequence:
#
# PCOD9549775 Si02
#       5
#     8   8   8   8   8
#     4  10  21  43  74  98 136 188 233 289 353 422
#     4  12  26  40  66 103 136 177 239 284 346 426
#     4  10  22  46  67  98 141 181 231 289 358 420
#     4  11  24  43  65 101 138 178 236 289 353 422
#     4  11  22  44  69  94 138 188 226 289 355 413
#
# _framework density 21.581050999999999
#
# number of rings (size 3 to 8) (size 9 to 14) (size 15 to 20)
#    0.000    1.200    4.000    3.600    0.000    7.200 
#    3.600   14.000    0.000    0.000    0.000    0.000 
#    0.000    0.000    0.000    0.000    0.000    0.000 
#
# Total GULP energy -223593.538572 kJ/mol
# GULP energy per Si atom -5589.838464 kJ/mol
# Density = 2.153193 g / cm^3
# Si number density = 21.581051 Si / 1000 Ang^3
#
#
#
# Elastic Constant Matrix: (Units=GPa)
#
#
# Indices 1 2 3 4 5 6 
#
# 1 126.2727 18.2002 58.2111 0.0000 0.0000 0.0000
# 2 18.2002 126.2727 58.2110 0.0000 0.0000 0.0000
# 3 58.2111 58.2110 90.3610 0.0000 0.0000 0.0000
# 4 0.0000 0.0000 0.0000 35.1752 0.0000 0.0000
# 5 0.0000 0.0000 0.0000 0.0000 35.1753 0.0000
# 6 0.0000 0.0000 0.0000 0.0000 0.0000 12.1789
#
#
#
# Elastic Compliance Matrix: (Units=1/GPa)
#
#
# Indices 1 2 3 4 5 6 
#
# 1 0.011824 0.002571 -0.009273 0.000000 0.000000 0.000000
# 2 0.002571 0.011824 -0.009273 0.000000 0.000000 0.000000
# 3 -0.009273 -0.009273 0.023014 0.000000 0.000000 0.000000
# 4 0.000000 0.000000 0.000000 0.028429 0.000000 0.000000
# 5 0.000000 0.000000 0.000000 0.000000 0.028429 0.000000
# 6 0.000000 0.000000 0.000000 0.000000 0.000000 0.082109
#
#
# Mechanical properties :
#
#
# Convention : Reuss Voigt Hill
#
# Bulk Modulus (GPa) = 67.97634 68.01678 67.99656
# Shear Modulus (GPa) = 22.47372 30.39147 26.43259
#
# Velocity S-wave (km/s) = 3.23052 3.75673 3.50352
# Velocity P-wave (km/s) = 6.74400 7.09949 6.92403
#
# Compressibility (1/GPa) = 0.01471100
#
# Stress axis : x y z
#
# Youngs Moduli (GPa) = 84.57692 84.57702 43.45220
#
# Poissons Ratio (x) = -0.21741 0.40292
# Poissons Ratio (y) = -0.21741 0.40292
# Poissons Ratio (z) = 0.78426 0.78426
#
# Static dielectric constant tensor:
#      x y z
#    x 1.760550 0.000000 0.000000 
#    y 0.000000 1.760550 0.000000 
#    z 0.000000 0.000000 1.733910 
# 
# From -- ./inp_files/4356.got.cif
#   From: 2010.05.17/outbox.cif.g08.bks.cpg/sg93_3_cif.got.tgz:4356.got - 2010.06.03 19:38:44.
