data_PCOD9549328
_publ_section_title
;
Structure prediction by ZEFSAII (Michael W. Deem and Ramdas Pophale) SiO2 
 PCOD9549328
Probable space group: P 41 21 2
;
_chemical_formula_sum "Si O2"
_cell_formula_units_Z 36
_cell_length_a 11.062676
_cell_length_b 11.062676
_cell_length_c 11.751458
_cell_angle_alpha 90.000000
_cell_angle_beta 90.000000
_cell_angle_gamma 90.000000
_cell_volume 1438.176337
_symmetry_space_group_name_H-M "P 41 21 2"
_symmetry_group_IT_number 92
_symmetry_cell_setting 'tetragonal'
loop_
_space_group_symop_operation_xyz
x,y,z
1/2-y,1/2+x,1/4+z
-x,-y,1/2+z
1/2+y,1/2-x,3/4+z
1/2+x,1/2-y,3/4-z
1/2-x,1/2+y,1/4-z
y,x,-z
-y,-x,1/2-z
loop_
_atom_site_type_symbol
_atom_site_label
_atom_site_fract_x
_atom_site_fract_y
_atom_site_fract_z
Si Si1 0.184344 0.815657 0.750000
Si Si2 0.633643 0.558509 0.232166
Si Si3 0.003501 0.289651 0.929024
Si Si4 0.072513 0.459526 0.485946
Si Si5 0.077917 0.738612 0.202588
O O1 0.093686 0.839480 0.854265
O O2 0.140013 0.678823 0.717490
O O3 0.566468 0.433533 0.250000
O O4 0.545382 0.665458 0.273623
O O5 0.745061 0.554801 0.319975
O O6 0.907908 0.396149 0.959568
O O7 0.026399 0.280534 0.793702
O O8 0.130475 0.330591 0.976902
O O9 0.055521 0.475538 0.626518
O O10 0.140801 0.859200 0.250000
#
# Coordination Sequence:
#
# PCOD9549328 Si02
#       5
#     4   8   8   8   8
#     4  12  28  50  76 118 164 210 270 344 412 474
#     4  11  26  48  70 117 158 204 259 337 409 485
#     4  11  21  45  77 104 148 208 260 318 389 490
#     4  12  27  52  83 118 163 217 278 340 411 501
#     4  10  23  41  72 106 142 202 256 312 391 474
#
# _framework density 25.031700000000001
#
# number of rings (size 3 to 8) (size 9 to 14) (size 15 to 20)
#    0.000    0.889    4.444    0.667    7.778    1.778 
#    2.000    0.000    0.000    0.000    0.000    0.000 
#    0.000    0.000    0.000    0.000    0.000    0.000 
#
# Total GULP energy -200496.952724 kJ/mol
# GULP energy per Si atom -5569.359798 kJ/mol
# Density = 2.497473 g / cm^3
# Si number density = 25.031700 Si / 1000 Ang^3
#
#
#
# Elastic Constant Matrix: (Units=GPa)
#
#
# Indices 1 2 3 4 5 6 
#
# 1 -170.3054 279.5975 18.3475 0.0000 0.0000 0.0000
# 2 279.5975 -170.2911 18.3961 0.0000 0.0000 0.0000
# 3 18.3475 18.3961 204.5854 0.0000 0.0000 0.0000
# 4 0.0000 0.0000 0.0000 32.6555 0.0000 0.0000
# 5 0.0000 0.0000 0.0000 0.0000 32.6566 0.0000
# 6 0.0000 0.0000 0.0000 0.0000 0.0000 39.3898
#
#
#
# Elastic Compliance Matrix: (Units=1/GPa)
#
#
# Indices 1 2 3 4 5 6 
#
# 1 0.003606 0.005828 -0.000847 0.000000 0.000000 0.000000
# 2 0.005828 0.003606 -0.000847 0.000000 0.000000 0.000000
# 3 -0.000847 -0.000847 0.005040 0.000000 0.000000 0.000000
# 4 0.000000 0.000000 0.000000 0.030623 0.000000 0.000000
# 5 0.000000 0.000000 0.000000 0.000000 0.030622 0.000000
# 6 0.000000 0.000000 0.000000 0.000000 0.000000 0.025387
#
#
# Mechanical properties :
#
#
# Convention : Reuss Voigt Hill
#
# Bulk Modulus (GPa) = 48.73441 55.18567 51.96004
# Shear Modulus (GPa) = 51.30587 -9.21643 21.04472
#
# Velocity S-wave (km/s) = 4.53220 -1.92091 2.90267
# Velocity P-wave (km/s) = 6.84830 4.14419 5.66010
#
# Compressibility (1/GPa) = 0.02051938
#
# Stress axis : x y z
#
# Youngs Moduli (GPa) = 277.34865 277.33960 198.40924
#
# Poissons Ratio (x) = -1.61644 0.16814
# Poissons Ratio (y) = -1.61649 0.16804
# Poissons Ratio (z) = 0.23503 0.23488
#
# Static dielectric constant tensor:
#      x y z
#    x 2.033350 0.000000 0.000000 
#    y 0.000000 2.033360 0.000000 
#    z 0.000000 0.000000 2.102910 
# 
# From -- ./inp_files/1978.got.cif
#   From: 2010.05.17/outbox.cif.g08.bks.cpg/sg92_1_cif.got.tgz:1978.got - 2010.06.03 19:35:17.
