data_PCOD9549795
_publ_section_title
;
Structure prediction by ZEFSAII (Michael W. Deem and Ramdas Pophale) SiO2 
 PCOD9549795
Probable space group: P 42 2 2
;
_chemical_formula_sum "Si O2"
_cell_formula_units_Z 64
_cell_length_a 11.715986
_cell_length_b 11.715986
_cell_length_c 22.252589
_cell_angle_alpha 90.000000
_cell_angle_beta 90.000000
_cell_angle_gamma 90.000000
_cell_volume 3054.486674
_symmetry_space_group_name_H-M "P 42 2 2"
_symmetry_group_IT_number 93
_symmetry_cell_setting 'tetragonal'
loop_
_space_group_symop_operation_xyz
x,y,z
-y,x,1/2+z
-x,-y,z
y,-x,1/2+z
x,-y,-z
-x,y,-z
y,x,1/2-z
-y,-x,1/2-z
loop_
_atom_site_type_symbol
_atom_site_label
_atom_site_fract_x
_atom_site_fract_y
_atom_site_fract_z
Si Si1 0.545299 0.374865 0.604772
Si Si2 0.363440 0.998674 0.567499
Si Si3 0.775329 0.373709 0.525436
Si Si4 0.326851 0.816367 0.663913
Si Si5 0.749981 0.305290 0.091095
Si Si6 0.483387 0.873416 0.769248
Si Si7 0.143212 0.725804 0.296640
Si Si8 0.111233 0.698586 0.646592
O O1 0.500000 0.500000 0.620466
O O2 0.648543 0.383387 0.556245
O O3 0.602424 0.300646 0.657371
O O4 0.431854 0.304866 0.585938
O O5 0.320228 0.114355 0.596920
O O6 0.500000 0.000000 0.566407
O O7 0.319707 0.000000 0.500000
O O8 0.332564 0.885048 0.602218
O O9 0.806364 0.500000 0.500000
O O10 0.760897 0.289898 0.468740
O O11 0.863369 0.323477 0.575754
O O12 0.397452 0.881990 0.713991
O O13 0.193872 0.796287 0.672896
O O14 0.714739 0.232936 0.149005
O O15 0.610166 0.833396 0.757820
O O16 0.412797 0.824980 0.824339
O O17 0.500000 0.000000 0.792739
O O18 0.172088 0.827913 0.250000
O O19 0.016824 0.723171 0.328536
#
# Coordination Sequence:
#
# PCOD9549795 Si02
#       8
#     8   8   8   8   8   8   8   8
#     4  11  22  36  62 102 142 175 213 274 353 425
#     4  11  23  38  64  99 133 171 224 273 337 417
#     4  11  22  39  67  99 144 183 221 278 349 427
#     4  11  22  41  70  96 134 177 227 284 341 408
#     4  12  24  40  67  99 136 180 226 280 355 412
#     4  10  22  42  69  94 124 168 224 283 337 407
#     4  11  26  46  69  96 134 178 233 291 349 414
#     4  10  24  44  67  98 134 180 235 283 343 423
#
# _framework density 20.952784000000001
#
# number of rings (size 3 to 8) (size 9 to 14) (size 15 to 20)
#    0.000    1.125    2.500    4.125    7.000    0.500 
#    0.000    1.250    2.750    0.750    0.000    0.000 
#    0.000    0.000    0.000    0.000    0.000    0.000 
#
# Total GULP energy -356571.285950 kJ/mol
# GULP energy per Si atom -5571.426343 kJ/mol
# Density = 2.090509 g / cm^3
# Si number density = 20.952784 Si / 1000 Ang^3
#
#
#
# Elastic Constant Matrix: (Units=GPa)
#
#
# Indices 1 2 3 4 5 6 
#
# 1 79.9183 32.1743 26.4498 0.0000 0.0000 0.0000
# 2 32.1743 79.9177 26.4496 0.0000 0.0000 0.0000
# 3 26.4498 26.4496 115.9121 0.0000 0.0000 0.0000
# 4 0.0000 0.0000 0.0000 39.5861 0.0000 0.0000
# 5 0.0000 0.0000 0.0000 0.0000 39.5870 0.0000
# 6 0.0000 0.0000 0.0000 0.0000 0.0000 21.7350
#
#
#
# Elastic Compliance Matrix: (Units=1/GPa)
#
#
# Indices 1 2 3 4 5 6 
#
# 1 0.015471 -0.005474 -0.002281 0.000000 0.000000 0.000000
# 2 -0.005474 0.015472 -0.002281 0.000000 0.000000 0.000000
# 3 -0.002281 -0.002281 0.009668 0.000000 0.000000 0.000000
# 4 0.000000 0.000000 0.000000 0.025261 0.000000 0.000000
# 5 0.000000 0.000000 0.000000 0.000000 0.025261 0.000000
# 6 0.000000 0.000000 0.000000 0.000000 0.000000 0.046009
#
#
# Mechanical properties :
#
#
# Convention : Reuss Voigt Hill
#
# Bulk Modulus (GPa) = 48.68886 49.54394 49.11640
# Shear Modulus (GPa) = 30.47638 32.89323 31.68481
#
# Velocity S-wave (km/s) = 3.81796 3.96646 3.89292
# Velocity P-wave (km/s) = 6.53633 6.68386 6.61051
#
# Compressibility (1/GPa) = 0.02053858
#
# Stress axis : x y z
#
# Youngs Moduli (GPa) = 64.63516 64.63469 103.42978
#
# Poissons Ratio (x) = 0.35379 0.23597
# Poissons Ratio (y) = 0.35379 0.23596
# Poissons Ratio (z) = 0.14746 0.14746
#
# Static dielectric constant tensor:
#      x y z
#    x 1.776270 0.000000 0.000000 
#    y 0.000000 1.776260 0.000000 
#    z 0.000000 0.000000 1.782700 
# 
# From -- ./inp_files/6952.got.cif
#   From: 2010.05.17/outbox.cif.g08.bks.cpg/sg93_4_cif.got.tgz:6952.got - 2010.06.03 19:38:44.
