data_PCOD9549970
_publ_section_title
;
Structure prediction by ZEFSAII (Michael W. Deem and Ramdas Pophale) SiO2 
 PCOD9549970
Probable space group: P 42 21 2
;
_chemical_formula_sum "Si O2"
_cell_formula_units_Z 56
_cell_length_a 10.981577
_cell_length_b 10.981577
_cell_length_c 21.853014
_cell_angle_alpha 90.000000
_cell_angle_beta 90.000000
_cell_angle_gamma 90.000000
_cell_volume 2635.364953
_symmetry_space_group_name_H-M "P 42 21 2"
_symmetry_group_IT_number 94
_symmetry_cell_setting 'tetragonal'
loop_
_space_group_symop_operation_xyz
x,y,z
1/2-y,1/2+x,1/2+z
-x,-y,z
1/2+y,1/2-x,1/2+z
1/2+x,1/2-y,1/2-z
1/2-x,1/2+y,1/2-z
y,x,-z
-y,-x,-z
loop_
_atom_site_type_symbol
_atom_site_label
_atom_site_fract_x
_atom_site_fract_y
_atom_site_fract_z
Si Si1 0.881685 0.412624 0.585172
Si Si2 0.170971 0.803778 0.358360
Si Si3 0.653928 0.420674 0.807497
Si Si4 0.608974 0.187243 0.747681
Si Si5 0.434291 0.869911 0.558889
Si Si6 0.714455 0.105743 0.154157
Si Si7 0.469491 0.271043 0.316709
O O1 0.886822 0.276502 0.612907
O O2 0.856280 0.411826 0.512907
O O3 0.765323 0.464167 0.621718
O O4 0.000000 0.500000 0.593776
O O5 0.208042 0.729974 0.295793
O O6 0.143698 0.693195 0.405602
O O7 0.045894 0.874293 0.342498
O O8 0.587467 0.292186 0.797885
O O9 0.783010 0.379190 0.837240
O O10 0.659649 0.458653 0.735873
O O11 0.495665 0.178241 0.703556
O O12 0.644160 0.066578 0.783880
O O13 0.534767 0.782719 0.589884
O O14 0.500000 0.000000 0.569357
O O15 0.846486 0.158273 0.168735
#
# Coordination Sequence:
#
# PCOD9549970 Si02
#       7
#     8   8   8   8   8   8   8
#     4  11  24  38  58  87 125 160 214 257 314 365
#     4  10  19  37  61  87 123 160 208 255 307 375
#     4  10  19  36  58  88 124 153 203 247 313 386
#     4   9  20  34  60  87 118 162 194 254 309 381
#     4  10  20  39  63  89 111 162 214 260 306 375
#     4  10  21  38  60  85 120 158 205 252 316 378
#     4  10  22  34  55  88 120 157 194 252 313 372
#
# _framework density 21.249427000000001
#
# number of rings (size 3 to 8) (size 9 to 14) (size 15 to 20)
#    0.000    2.000    2.857    0.429    2.000    1.143 
#    0.000    1.429    0.000    1.714    0.000    0.000 
#    0.000    0.000    0.000    0.000    0.000    0.000 
#
# Total GULP energy -312440.491729 kJ/mol
# GULP energy per Si atom -5579.294495 kJ/mol
# Density = 2.120106 g / cm^3
# Si number density = 21.249427 Si / 1000 Ang^3
#
#
#
# Elastic Constant Matrix: (Units=GPa)
#
#
# Indices 1 2 3 4 5 6 
#
# 1 47.3683 9.0911 25.0212 0.0000 0.0000 0.0000
# 2 9.0911 47.3683 25.0212 0.0000 0.0000 0.0000
# 3 25.0212 25.0212 116.4979 0.0000 0.0000 0.0000
# 4 0.0000 0.0000 0.0000 23.8593 0.0000 0.0000
# 5 0.0000 0.0000 0.0000 0.0000 23.8593 0.0000
# 6 0.0000 0.0000 0.0000 0.0000 0.0000 24.9248
#
#
#
# Elastic Compliance Matrix: (Units=1/GPa)
#
#
# Indices 1 2 3 4 5 6 
#
# 1 0.024001 -0.002124 -0.004699 0.000000 0.000000 0.000000
# 2 -0.002124 0.024001 -0.004699 0.000000 0.000000 0.000000
# 3 -0.004699 -0.004699 0.010602 0.000000 0.000000 0.000000
# 4 0.000000 0.000000 0.000000 0.041912 0.000000 0.000000
# 5 0.000000 0.000000 0.000000 0.000000 0.041912 0.000000
# 6 0.000000 0.000000 0.000000 0.000000 0.000000 0.040121
#
#
# Mechanical properties :
#
#
# Convention : Reuss Voigt Hill
#
# Bulk Modulus (GPa) = 28.12098 36.61130 32.36614
# Shear Modulus (GPa) = 22.99421 24.66873 23.83147
#
# Velocity S-wave (km/s) = 3.29311 3.41091 3.35253
# Velocity P-wave (km/s) = 5.26516 5.72531 5.50005
#
# Compressibility (1/GPa) = 0.03556064
#
# Stress axis : x y z
#
# Youngs Moduli (GPa) = 41.66523 41.66523 94.32046
#
# Poissons Ratio (x) = 0.08851 0.44317
# Poissons Ratio (y) = 0.08851 0.44317
# Poissons Ratio (z) = 0.19577 0.19577
#
# Static dielectric constant tensor:
#      x y z
#    x 1.851560 0.000000 0.000000 
#    y 0.000000 1.851560 0.000000 
#    z 0.000000 0.000000 1.746840 
# 
# From -- ./inp_files/4723.got.cif
#   From: 2010.05.17/outbox.cif.g08.bks.cpg/sg94_3_cif.got.tgz:4723.got - 2010.06.03 19:43:16.
