data_PCOD9549343
_publ_section_title
;
Structure prediction by ZEFSAII (Michael W. Deem and Ramdas Pophale) SiO2 
 PCOD9549343
Probable space group: P 41 21 2
;
_chemical_formula_sum "Si O2"
_cell_formula_units_Z 60
_cell_length_a 17.783415
_cell_length_b 17.783415
_cell_length_c 8.811107
_cell_angle_alpha 90.000000
_cell_angle_beta 90.000000
_cell_angle_gamma 90.000000
_cell_volume 2786.511259
_symmetry_space_group_name_H-M "P 41 21 2"
_symmetry_group_IT_number 92
_symmetry_cell_setting 'tetragonal'
loop_
_space_group_symop_operation_xyz
x,y,z
1/2-y,1/2+x,1/4+z
-x,-y,1/2+z
1/2+y,1/2-x,3/4+z
1/2+x,1/2-y,3/4-z
1/2-x,1/2+y,1/4-z
y,x,-z
-y,-x,1/2-z
loop_
_atom_site_type_symbol
_atom_site_label
_atom_site_fract_x
_atom_site_fract_y
_atom_site_fract_z
Si Si1 0.808010 0.923853 0.570551
Si Si2 0.705693 0.936087 0.315613
Si Si3 0.477469 0.200926 0.246115
Si Si4 0.922464 0.525014 0.891237
Si Si5 0.318549 0.125285 0.304000
Si Si6 0.295214 0.865320 0.987880
Si Si7 0.808025 0.066557 0.745617
Si Si8 0.232196 0.767805 0.750000
O O1 0.865764 0.865764 0.500000
O O2 0.770541 0.962405 0.424547
O O3 0.739785 0.886407 0.665971
O O4 0.840018 0.989300 0.676361
O O5 0.705654 0.847102 0.287529
O O6 0.626332 0.951519 0.402846
O O7 0.708714 0.983687 0.160887
O O8 0.401136 0.153312 0.257513
O O9 0.545461 0.172133 0.139629
O O10 0.451369 0.276537 0.162098
O O11 0.857551 0.586760 0.858332
O O12 0.996139 0.547889 0.801519
O O13 0.281066 0.188052 0.415040
O O14 0.231835 0.833039 0.876518
O O15 0.260041 0.906663 0.133078
O O16 0.867938 0.132063 0.750000
#
# Coordination Sequence:
#
# PCOD9549343 Si02
#       8
#     8   8   8   8   8   8   8   4
#     4  11  25  47  75 102 137 184 240 307 377 442
#     4  11  22  44  65 100 142 187 235 288 364 439
#     4  11  25  46  68 105 146 192 238 298 366 446
#     4  10  23  44  61  97 142 190 231 290 352 440
#     4  11  25  45  70 104 145 192 244 301 367 453
#     4  11  22  42  68  99 139 182 245 297 353 444
#     4  11  25  49  72 102 140 186 244 309 371 436
#     4  12  22  42  70 100 136 188 248 296 358 430
#
# _framework density 21.532301
#
# number of rings (size 3 to 8) (size 9 to 14) (size 15 to 20)
#    0.000    1.067    2.667    3.200    1.867    1.067 
#   16.800    5.333    0.000    0.000    0.000    0.000 
#    0.000    0.000    0.000    0.000    0.000    0.000 
#
# Total GULP energy -334835.124295 kJ/mol
# GULP energy per Si atom -5580.585405 kJ/mol
# Density = 2.148329 g / cm^3
# Si number density = 21.532301 Si / 1000 Ang^3
#
#
#
# Elastic Constant Matrix: (Units=GPa)
#
#
# Indices 1 2 3 4 5 6 
#
# 1 94.5559 68.7243 51.2326 0.0000 0.0000 0.0000
# 2 68.7243 94.5530 51.2325 0.0000 0.0000 0.0000
# 3 51.2326 51.2325 92.9008 0.0000 0.0000 0.0000
# 4 0.0000 0.0000 0.0000 30.9661 0.0000 0.0000
# 5 0.0000 0.0000 0.0000 0.0000 30.9658 0.0000
# 6 0.0000 0.0000 0.0000 0.0000 0.0000 41.7708
#
#
#
# Elastic Compliance Matrix: (Units=1/GPa)
#
#
# Indices 1 2 3 4 5 6 
#
# 1 0.024040 -0.014674 -0.005165 0.000000 0.000000 0.000000
# 2 -0.014674 0.024041 -0.005165 0.000000 0.000000 0.000000
# 3 -0.005165 -0.005165 0.016461 0.000000 0.000000 0.000000
# 4 0.000000 0.000000 0.000000 0.032293 0.000000 0.000000
# 5 0.000000 0.000000 0.000000 0.000000 0.032294 0.000000
# 6 0.000000 0.000000 0.000000 0.000000 0.000000 0.023940
#
#
# Mechanical properties :
#
#
# Convention : Reuss Voigt Hill
#
# Bulk Modulus (GPa) = 68.81142 69.37649 69.09396
# Shear Modulus (GPa) = 24.04756 28.12857 26.08806
#
# Velocity S-wave (km/s) = 3.34550 3.61826 3.48455
# Velocity P-wave (km/s) = 6.85200 7.05304 6.95325
#
# Compressibility (1/GPa) = 0.01453247
#
# Stress axis : x y z
#
# Youngs Moduli (GPa) = 41.59798 41.59621 60.74994
#
# Poissons Ratio (x) = 0.61040 0.31376
# Poissons Ratio (y) = 0.61042 0.31379
# Poissons Ratio (z) = 0.21484 0.21485
#
# Static dielectric constant tensor:
#      x y z
#    x 1.821690 0.000000 0.000000 
#    y 0.000000 1.821690 0.000000 
#    z 0.000000 0.000000 1.869820 
# 
# From -- ./inp_files/1628.got.cif
#   From: 2010.05.17/outbox.cif.g08.bks.cpg/sg92_1_cif.got.tgz:1628.got - 2010.06.03 19:35:17.
