data_PCOD9549754
_publ_section_title
;
Structure prediction by ZEFSAII (Michael W. Deem and Ramdas Pophale) SiO2 
 PCOD9549754
Probable space group: P 42 2 2
;
_chemical_formula_sum "Si O2"
_cell_formula_units_Z 40
_cell_length_a 9.109241
_cell_length_b 9.109241
_cell_length_c 23.162942
_cell_angle_alpha 90.000000
_cell_angle_beta 90.000000
_cell_angle_gamma 90.000000
_cell_volume 1922.020892
_symmetry_space_group_name_H-M "P 42 2 2"
_symmetry_group_IT_number 93
_symmetry_cell_setting 'tetragonal'
loop_
_space_group_symop_operation_xyz
x,y,z
-y,x,1/2+z
-x,-y,z
y,-x,1/2+z
x,-y,-z
-x,y,-z
y,x,1/2-z
-y,-x,1/2-z
loop_
_atom_site_type_symbol
_atom_site_label
_atom_site_fract_x
_atom_site_fract_y
_atom_site_fract_z
Si Si1 0.145158 0.535854 0.847970
Si Si2 0.168128 0.978986 0.068437
Si Si3 0.729243 0.044266 0.760755
Si Si4 0.220402 0.363595 0.369189
Si Si5 0.233887 0.702379 0.346631
O O1 0.070010 0.635397 0.797216
O O2 0.266436 0.635953 0.878149
O O3 0.231705 0.390052 0.828164
O O4 0.000000 0.500000 0.885026
O O5 0.288936 0.093384 0.092684
O O6 0.210152 0.825795 0.097779
O O7 0.000000 0.000000 0.088408
O O8 0.170488 0.000000 0.000000
O O9 0.892145 0.107856 0.750000
O O10 0.660769 0.161944 0.804538
O O11 0.719091 0.890174 0.795802
O O12 0.244765 0.536446 0.369882
#
# Coordination Sequence:
#
# PCOD9549754 Si02
#       5
#     8   8   8   8   8
#     4  11  22  37  57  84 123 164 203 251 309 368
#     4  10  21  40  66  92 118 152 198 257 319 371
#     4   9  20  37  55  81 116 157 200 243 292 352
#     4  10  21  38  59  86 120 156 200 249 303 367
#     4  11  22  39  61  87 121 161 208 257 301 370
#
# _framework density 20.811427999999999
#
# number of rings (size 3 to 8) (size 9 to 14) (size 15 to 20)
#    0.000    1.800    0.000    5.400    0.000    4.800 
#    0.000   21.000    0.000    6.000    0.000    0.000 
#    0.000    0.000    0.000    0.000    0.000    0.000 
#
# Total GULP energy -222971.350779 kJ/mol
# GULP energy per Si atom -5574.283769 kJ/mol
# Density = 2.076406 g / cm^3
# Si number density = 20.811428 Si / 1000 Ang^3
#
#
#
# Elastic Constant Matrix: (Units=GPa)
#
#
# Indices 1 2 3 4 5 6 
#
# 1 100.4206 39.6739 -6.0732 0.0000 0.0000 0.0000
# 2 39.6739 100.4199 -6.0732 0.0000 0.0000 0.0000
# 3 -6.0732 -6.0732 36.6141 0.0000 0.0000 0.0000
# 4 0.0000 0.0000 0.0000 8.5764 0.0000 0.0000
# 5 0.0000 0.0000 0.0000 0.0000 8.5755 0.0000
# 6 0.0000 0.0000 0.0000 0.0000 0.0000 39.9563
#
#
#
# Elastic Compliance Matrix: (Units=1/GPa)
#
#
# Indices 1 2 3 4 5 6 
#
# 1 0.011852 -0.004610 0.001201 0.000000 0.000000 0.000000
# 2 -0.004610 0.011852 0.001201 0.000000 0.000000 0.000000
# 3 0.001201 0.001201 0.027710 0.000000 0.000000 0.000000
# 4 0.000000 0.000000 0.000000 0.116600 0.000000 0.000000
# 5 0.000000 0.000000 0.000000 0.000000 0.116611 0.000000
# 6 0.000000 0.000000 0.000000 0.000000 0.000000 0.025027
#
#
# Mechanical properties :
#
#
# Convention : Reuss Voigt Hill
#
# Bulk Modulus (GPa) = 21.27664 32.50106 26.88885
# Shear Modulus (GPa) = 15.16373 25.41678 20.29026
#
# Velocity S-wave (km/s) = 2.70223 3.49849 3.12582
# Velocity P-wave (km/s) = 4.47010 5.65421 5.09666
#
# Compressibility (1/GPa) = 0.04699990
#
# Stress axis : x y z
#
# Youngs Moduli (GPa) = 84.37391 84.37331 36.08755
#
# Poissons Ratio (x) = 0.38895 -0.04335
# Poissons Ratio (y) = 0.38895 -0.04335
# Poissons Ratio (z) = -0.10136 -0.10136
#
# Static dielectric constant tensor:
#      x y z
#    x 1.831300 0.000000 0.000000 
#    y 0.000000 1.831290 0.000000 
#    z 0.000000 0.000000 1.751080 
# 
# From -- ./inp_files/6684.got.cif
#   From: 2010.05.17/outbox.cif.g08.bks.cpg/sg93_4_cif.got.tgz:6684.got - 2010.06.03 19:38:44.
