data_PCOD9549518
_publ_section_title
;
Structure prediction by ZEFSAII (Michael W. Deem and Ramdas Pophale) SiO2 
 PCOD9549518
Probable space group: P 41 21 2
;
_chemical_formula_sum "Si O2"
_cell_formula_units_Z 28
_cell_length_a 9.366452
_cell_length_b 9.366452
_cell_length_c 14.244745
_cell_angle_alpha 90.000000
_cell_angle_beta 90.000000
_cell_angle_gamma 90.000000
_cell_volume 1249.697505
_symmetry_space_group_name_H-M "P 41 21 2"
_symmetry_group_IT_number 92
_symmetry_cell_setting 'tetragonal'
loop_
_space_group_symop_operation_xyz
x,y,z
1/2-y,1/2+x,1/4+z
-x,-y,1/2+z
1/2+y,1/2-x,3/4+z
1/2+x,1/2-y,3/4-z
1/2-x,1/2+y,1/4-z
y,x,-z
-y,-x,1/2-z
loop_
_atom_site_type_symbol
_atom_site_label
_atom_site_fract_x
_atom_site_fract_y
_atom_site_fract_z
Si Si1 0.105659 0.112401 0.709164
Si Si2 0.329044 0.670957 0.750000
Si Si3 0.394509 0.157073 0.983016
Si Si4 0.128541 0.502978 0.449426
O O1 0.087916 0.131904 0.596677
O O2 0.272105 0.090517 0.729115
O O3 0.035767 0.241927 0.767904
O O4 0.027051 0.972950 0.750000
O O5 0.161755 0.643620 0.727676
O O6 0.326240 0.059190 0.901684
O O7 0.272801 0.272801 0.000000
O O8 0.446557 0.035451 0.053930
#
# Coordination Sequence:
#
# PCOD9549518 Si02
#       4
#     8   4   8   8
#     4  11  26  49  76 117 151 205 259 322 394 469
#     4  12  26  48  84 110 160 208 268 324 398 472
#     4  11  25  46  73 112 154 197 256 326 386 461
#     4  12  23  48  75 111 153 199 257 321 389 467
#
# _framework density 22.405422999999999
#
# number of rings (size 3 to 8) (size 9 to 14) (size 15 to 20)
#    0.000    0.571    4.286    3.429    0.000    2.286 
#   12.857    0.000    0.000    0.000    0.000    0.000 
#    0.000    0.000    0.000    0.000    0.000    0.000 
#
# Total GULP energy -155942.333592 kJ/mol
# GULP energy per Si atom -5569.369057 kJ/mol
# Density = 2.235443 g / cm^3
# Si number density = 22.405423 Si / 1000 Ang^3
#
#
#
# Elastic Constant Matrix: (Units=GPa)
#
#
# Indices 1 2 3 4 5 6 
#
# 1 113.5092 61.3029 24.1688 0.0000 0.0000 0.0000
# 2 61.3029 113.5109 24.1698 0.0000 0.0000 0.0000
# 3 24.1688 24.1698 100.7402 0.0000 0.0000 0.0000
# 4 0.0000 0.0000 0.0000 -3.9661 0.0000 0.0000
# 5 0.0000 0.0000 0.0000 0.0000 -3.9619 0.0000
# 6 0.0000 0.0000 0.0000 0.0000 0.0000 21.7346
#
#
#
# Elastic Compliance Matrix: (Units=1/GPa)
#
#
# Indices 1 2 3 4 5 6 
#
# 1 0.012641 -0.006514 -0.001470 0.000000 0.000000 0.000000
# 2 -0.006514 0.012641 -0.001470 0.000000 0.000000 0.000000
# 3 -0.001470 -0.001470 0.010632 0.000000 0.000000 0.000000
# 4 0.000000 0.000000 0.000000 -0.252140 0.000000 0.000000
# 5 0.000000 0.000000 0.000000 0.000000 -0.252404 0.000000
# 6 0.000000 0.000000 0.000000 0.000000 0.000000 0.046010
#
#
# Mechanical properties :
#
#
# Convention : Reuss Voigt Hill
#
# Bulk Modulus (GPa) = 58.80341 60.78259 59.79300
# Shear Modulus (GPa) = -12.56139 17.30258 2.37059
#
# Velocity S-wave (km/s) = -2.37035 2.78195 1.02973
# Velocity P-wave (km/s) = 4.33713 6.12425 5.30646
#
# Compressibility (1/GPa) = 0.01700582
#
# Stress axis : x y z
#
# Youngs Moduli (GPa) = 79.10929 79.11023 94.05702
#
# Poissons Ratio (x) = 0.51531 0.13825
# Poissons Ratio (y) = 0.51530 0.13826
# Poissons Ratio (z) = 0.11628 0.11629
#
# Static dielectric constant tensor:
#      x y z
#    x 2.076450 0.000000 0.000000 
#    y 0.000000 2.076430 0.000000 
#    z 0.000000 0.000000 2.046380 
# 
# From -- ./inp_files/2952.got.cif
#   From: 2010.05.17/outbox.cif.g08.bks.cpg/sg92_2_cif.got.tgz:2952.got - 2010.06.03 19:35:17.
