data_PCOD9549698
_publ_section_title
;
Structure prediction by ZEFSAII (Michael W. Deem and Ramdas Pophale) SiO2 
 PCOD9549698
Probable space group: P 42 2 2
;
_chemical_formula_sum "Si O2"
_cell_formula_units_Z 40
_cell_length_a 14.272988
_cell_length_b 14.272988
_cell_length_c 9.979688
_cell_angle_alpha 90.000000
_cell_angle_beta 90.000000
_cell_angle_gamma 90.000000
_cell_volume 2033.043941
_symmetry_space_group_name_H-M "P 42 2 2"
_symmetry_group_IT_number 93
_symmetry_cell_setting 'tetragonal'
loop_
_space_group_symop_operation_xyz
x,y,z
-y,x,1/2+z
-x,-y,z
y,-x,1/2+z
x,-y,-z
-x,y,-z
y,x,1/2-z
-y,-x,1/2-z
loop_
_atom_site_type_symbol
_atom_site_label
_atom_site_fract_x
_atom_site_fract_y
_atom_site_fract_z
Si Si1 0.555281 0.695166 0.788546
Si Si2 0.609218 0.802682 0.525174
Si Si3 0.776081 0.082616 0.583544
Si Si4 0.365378 0.728947 0.918573
Si Si5 0.083454 0.743242 0.609546
O O1 0.592089 0.592089 0.750000
O O2 0.601451 0.761273 0.675443
O O3 0.445046 0.700175 0.813928
O O4 0.594960 0.724341 0.931716
O O5 0.500000 0.824399 0.500000
O O6 0.681664 0.885641 0.495156
O O7 0.656754 0.721790 0.431399
O O8 0.851357 0.166050 0.583613
O O9 0.751955 0.052476 0.735473
O O10 0.820384 0.000000 0.500000
O O11 0.336694 0.836420 0.893110
O O12 0.000000 0.733656 0.500000
#
# Coordination Sequence:
#
# PCOD9549698 Si02
#       5
#     8   8   8   8   8
#     4   9  18  34  57  85 117 159 203 248 296 356
#     4  10  20  35  58  83 119 164 197 251 313 357
#     4  10  23  40  60  91 121 150 205 260 306 386
#     4   9  19  37  57  85 122 155 208 251 299 373
#     4  10  22  40  64  88 117 163 199 250 325 375
#
# _framework density 19.674931000000001
#
# number of rings (size 3 to 8) (size 9 to 14) (size 15 to 20)
#    0.000    2.400    0.000    1.200    2.800    4.000 
#    0.000   15.000    0.000    0.000    0.000    0.000 
#    0.000    0.000    0.000    0.000    0.000    0.000 
#
# Total GULP energy -222756.384715 kJ/mol
# GULP energy per Si atom -5568.909618 kJ/mol
# Density = 1.963015 g / cm^3
# Si number density = 19.674931 Si / 1000 Ang^3
#
#
#
# Elastic Constant Matrix: (Units=GPa)
#
#
# Indices 1 2 3 4 5 6 
#
# 1 89.0541 18.6611 40.5490 0.0000 0.0000 0.0000
# 2 18.6611 89.0541 40.5490 0.0000 0.0000 0.0000
# 3 40.5490 40.5490 114.3504 0.0000 0.0000 0.0000
# 4 0.0000 0.0000 0.0000 393.3960 0.0000 0.0000
# 5 0.0000 0.0000 0.0000 0.0000 393.3960 0.0000
# 6 0.0000 0.0000 0.0000 0.0000 0.0000 11.3578
#
#
#
# Elastic Compliance Matrix: (Units=1/GPa)
#
#
# Indices 1 2 3 4 5 6 
#
# 1 0.013436 -0.000770 -0.004491 0.000000 0.000000 0.000000
# 2 -0.000770 0.013436 -0.004491 0.000000 0.000000 0.000000
# 3 -0.004491 -0.004491 0.011930 0.000000 0.000000 0.000000
# 4 0.000000 0.000000 0.000000 0.002542 0.000000 0.000000
# 5 0.000000 0.000000 0.000000 0.000000 0.002542 0.000000
# 6 0.000000 0.000000 0.000000 0.000000 0.000000 0.088045
#
#
# Mechanical properties :
#
#
# Convention : Reuss Voigt Hill
#
# Bulk Modulus (GPa) = 51.82430 54.66408 53.24419
# Shear Modulus (GPa) = 31.67215 172.47659 102.07437
#
# Velocity S-wave (km/s) = 4.01655 9.37302 7.21062
# Velocity P-wave (km/s) = 6.92154 12.04084 9.82063
#
# Compressibility (1/GPa) = 0.01929597
#
# Stress axis : x y z
#
# Youngs Moduli (GPa) = 74.42967 74.42967 83.82128
#
# Poissons Ratio (x) = 0.05734 0.37645
# Poissons Ratio (y) = 0.05734 0.37645
# Poissons Ratio (z) = 0.33427 0.33427
#
# Static dielectric constant tensor:
#      x y z
#    x -0.161200 0.000000 0.000000 
#    y 0.000000 -0.161200 0.000000 
#    z 0.000000 0.000000 3.003570 
# 
# From -- ./inp_files/1805.got.cif
#   From: 2010.05.17/outbox.cif.g08.bks.cpg/sg93_1_cif.got.tgz:1805.got - 2010.06.03 19:38:44.
