data_PCOD9549505
_publ_section_title
;
Structure prediction by ZEFSAII (Michael W. Deem and Ramdas Pophale) SiO2 
 PCOD9549505
Probable space group: P 41 21 2
;
_chemical_formula_sum "Si O2"
_cell_formula_units_Z 40
_cell_length_a 13.945854
_cell_length_b 13.945854
_cell_length_c 8.734343
_cell_angle_alpha 90.000000
_cell_angle_beta 90.000000
_cell_angle_gamma 90.000000
_cell_volume 1698.714803
_symmetry_space_group_name_H-M "P 41 21 2"
_symmetry_group_IT_number 92
_symmetry_cell_setting 'tetragonal'
loop_
_space_group_symop_operation_xyz
x,y,z
1/2-y,1/2+x,1/4+z
-x,-y,1/2+z
1/2+y,1/2-x,3/4+z
1/2+x,1/2-y,3/4-z
1/2-x,1/2+y,1/4-z
y,x,-z
-y,-x,1/2-z
loop_
_atom_site_type_symbol
_atom_site_label
_atom_site_fract_x
_atom_site_fract_y
_atom_site_fract_z
Si Si1 0.096113 0.563504 0.323859
Si Si2 0.847954 0.725209 0.383581
Si Si3 0.404056 0.545980 0.075375
Si Si4 0.747728 0.941258 0.177570
Si Si5 0.789002 0.659079 0.066762
O O1 0.116795 0.642343 0.195119
O O2 0.198944 0.565878 0.405215
O O3 0.025750 0.573326 0.465599
O O4 0.783526 0.783526 0.500000
O O5 0.943981 0.788643 0.349438
O O6 0.800298 0.719219 0.219560
O O7 0.442991 0.557010 0.250000
O O8 0.429772 0.638591 0.965219
O O9 0.452298 0.452298 0.000000
O O10 0.713711 0.048685 0.138871
O O11 0.698078 0.869232 0.054109
O O12 0.685760 0.685760 0.000000
#
# Coordination Sequence:
#
# PCOD9549505 Si02
#       5
#     8   8   8   8   8
#     4  12  27  46  72 106 149 194 247 304 375 455
#     4  11  25  50  71 102 147 198 241 314 367 435
#     4  11  24  46  73 103 146 196 244 303 372 443
#     4  12  25  45  72 110 146 192 240 310 376 444
#     4  12  26  47  75 106 149 189 250 308 373 453
#
# _framework density 23.547211999999998
#
# number of rings (size 3 to 8) (size 9 to 14) (size 15 to 20)
#    0.000    0.400    8.000    0.600    8.400    0.000 
#    0.000    1.000    0.000    0.000    0.000    0.000 
#    0.000    0.000    0.000    0.000    0.000    0.000 
#
# Total GULP energy -222846.351228 kJ/mol
# GULP energy per Si atom -5571.158781 kJ/mol
# Density = 2.349362 g / cm^3
# Si number density = 23.547212 Si / 1000 Ang^3
#
#
#
# Elastic Constant Matrix: (Units=GPa)
#
#
# Indices 1 2 3 4 5 6 
#
# 1 67.9572 31.8545 36.7487 0.0000 0.0000 0.0000
# 2 31.8545 67.9571 36.7491 0.0000 0.0000 0.0000
# 3 36.7487 36.7491 121.1049 0.0000 0.0000 0.0000
# 4 0.0000 0.0000 0.0000 36.4638 0.0000 0.0000
# 5 0.0000 0.0000 0.0000 0.0000 36.4639 0.0000
# 6 0.0000 0.0000 0.0000 0.0000 0.0000 27.6157
#
#
#
# Elastic Compliance Matrix: (Units=1/GPa)
#
#
# Indices 1 2 3 4 5 6 
#
# 1 0.020300 -0.007399 -0.003915 0.000000 0.000000 0.000000
# 2 -0.007399 0.020300 -0.003915 0.000000 0.000000 0.000000
# 3 -0.003915 -0.003915 0.010633 0.000000 0.000000 0.000000
# 4 0.000000 0.000000 0.000000 0.027424 0.000000 0.000000
# 5 0.000000 0.000000 0.000000 0.000000 0.027424 0.000000
# 6 0.000000 0.000000 0.000000 0.000000 0.000000 0.036211
#
#
# Mechanical properties :
#
#
# Convention : Reuss Voigt Hill
#
# Bulk Modulus (GPa) = 48.13065 51.96933 50.04999
# Shear Modulus (GPa) = 27.82776 30.21979 29.02378
#
# Velocity S-wave (km/s) = 3.44144 3.58630 3.51462
# Velocity P-wave (km/s) = 6.02294 6.26633 6.14584
#
# Compressibility (1/GPa) = 0.02077678
#
# Stress axis : x y z
#
# Youngs Moduli (GPa) = 49.26056 49.26027 94.04431
#
# Poissons Ratio (x) = 0.36445 0.36818
# Poissons Ratio (y) = 0.36446 0.36819
# Poissons Ratio (z) = 0.19285 0.19286
#
# Static dielectric constant tensor:
#      x y z
#    x 1.966390 0.000000 0.000000 
#    y 0.000000 1.966390 0.000000 
#    z 0.000000 0.000000 1.961890 
# 
# From -- ./inp_files/1325.got.cif
#   From: 2010.05.17/outbox.cif.g08.bks.cpg/sg92_1_cif.got.tgz:1325.got - 2010.06.03 19:35:17.
