data_PCOD9549388
_publ_section_title
;
Structure prediction by ZEFSAII (Michael W. Deem and Ramdas Pophale) SiO2 
 PCOD9549388
Probable space group: P 41 21 2
;
_chemical_formula_sum "Si O2"
_cell_formula_units_Z 28
_cell_length_a 8.045828
_cell_length_b 8.045828
_cell_length_c 16.093925
_cell_angle_alpha 90.000000
_cell_angle_beta 90.000000
_cell_angle_gamma 90.000000
_cell_volume 1041.845839
_symmetry_space_group_name_H-M "P 41 21 2"
_symmetry_group_IT_number 92
_symmetry_cell_setting 'tetragonal'
loop_
_space_group_symop_operation_xyz
x,y,z
1/2-y,1/2+x,1/4+z
-x,-y,1/2+z
1/2+y,1/2-x,3/4+z
1/2+x,1/2-y,3/4-z
1/2-x,1/2+y,1/4-z
y,x,-z
-y,-x,1/2-z
loop_
_atom_site_type_symbol
_atom_site_label
_atom_site_fract_x
_atom_site_fract_y
_atom_site_fract_z
Si Si1 0.735454 0.055160 0.471081
Si Si2 0.614432 0.385569 0.250000
Si Si3 0.735381 0.047650 0.658193
Si Si4 0.696523 0.396030 0.425927
O O1 0.712216 0.989314 0.564522
O O2 0.624418 0.215624 0.450663
O O3 0.925558 0.118518 0.463588
O O4 0.692966 0.900884 0.413768
O O5 0.737438 0.365444 0.328162
O O6 0.927284 0.102086 0.665910
O O7 0.701099 0.934160 0.738589
#
# Coordination Sequence:
#
# PCOD9549388 Si02
#       4
#     8   4   8   8
#     4  11  25  47  77 109 150 200 250 313 378 446
#     4  10  24  46  70 110 150 194 256 306 378 456
#     4  10  25  44  76 109 144 199 252 300 382 449
#     4  10  24  45  72 107 149 191 244 312 365 447
#
# _framework density 26.87538
#
# number of rings (size 3 to 8) (size 9 to 14) (size 15 to 20)
#    0.000    1.714    0.000    1.714   24.000    2.286 
#    5.143    0.000    0.000    0.000    0.000    0.000 
#    0.000    0.000    0.000    0.000    0.000    0.000 
#
# Total GULP energy -155991.877917 kJ/mol
# GULP energy per Si atom -5571.138497 kJ/mol
# Density = 2.681421 g / cm^3
# Si number density = 26.875380 Si / 1000 Ang^3
#
#
#
# Elastic Constant Matrix: (Units=GPa)
#
#
# Indices 1 2 3 4 5 6 
#
# 1 81.2687 79.8009 5.7537 0.0000 0.0000 0.0000
# 2 79.8009 81.2690 5.7534 0.0000 0.0000 0.0000
# 3 5.7537 5.7534 100.4978 0.0000 0.0000 0.0000
# 4 0.0000 0.0000 0.0000 26.1148 0.0000 0.0000
# 5 0.0000 0.0000 0.0000 0.0000 26.1147 0.0000
# 6 0.0000 0.0000 0.0000 0.0000 0.0000 -3.0356
#
#
#
# Elastic Compliance Matrix: (Units=1/GPa)
#
#
# Indices 1 2 3 4 5 6 
#
# 1 0.343719 -0.337484 -0.000358 0.000000 0.000000 0.000000
# 2 -0.337484 0.343718 -0.000356 0.000000 0.000000 0.000000
# 3 -0.000358 -0.000356 0.009991 0.000000 0.000000 0.000000
# 4 0.000000 0.000000 0.000000 0.038292 0.000000 0.000000
# 5 0.000000 0.000000 0.000000 0.000000 0.038293 0.000000
# 6 0.000000 0.000000 0.000000 0.000000 0.000000 -0.329420
#
#
# Mechanical properties :
#
#
# Convention : Reuss Voigt Hill
#
# Bulk Modulus (GPa) = 47.54725 49.51683 48.53204
# Shear Modulus (GPa) = 4.43262 21.28729 12.85996
#
# Velocity S-wave (km/s) = 1.28565 2.81743 2.18984
# Velocity P-wave (km/s) = 4.46475 5.38967 4.94887
#
# Compressibility (1/GPa) = 0.02103171
#
# Stress axis : x y z
#
# Youngs Moduli (GPa) = 2.90935 2.90936 100.08680
#
# Poissons Ratio (x) = 0.98186 0.03583
# Poissons Ratio (y) = 0.98186 0.03562
# Poissons Ratio (z) = 0.00104 0.00104
#
# Static dielectric constant tensor:
#      x y z
#    x 2.154080 0.000000 0.000000 
#    y 0.000000 2.154080 0.000000 
#    z 0.000000 0.000000 2.090380 
# 
# From -- ./inp_files/2929.got.cif
#   From: 2010.05.17/outbox.cif.g08.bks.cpg/sg92_2_cif.got.tgz:2929.got - 2010.06.03 19:35:17.
