data_PCOD9549935
_publ_section_title
;
Structure prediction by ZEFSAII (Michael W. Deem and Ramdas Pophale) SiO2 
 PCOD9549935
Probable space group: P 42 21 2
;
_chemical_formula_sum "Si O2"
_cell_formula_units_Z 56
_cell_length_a 11.772364
_cell_length_b 11.772364
_cell_length_c 17.580806
_cell_angle_alpha 90.000000
_cell_angle_beta 90.000000
_cell_angle_gamma 90.000000
_cell_volume 2436.498484
_symmetry_space_group_name_H-M "P 42 21 2"
_symmetry_group_IT_number 94
_symmetry_cell_setting 'tetragonal'
loop_
_space_group_symop_operation_xyz
x,y,z
1/2-y,1/2+x,1/2+z
-x,-y,z
1/2+y,1/2-x,1/2+z
1/2+x,1/2-y,1/2-z
1/2-x,1/2+y,1/2-z
y,x,-z
-y,-x,-z
loop_
_atom_site_type_symbol
_atom_site_label
_atom_site_fract_x
_atom_site_fract_y
_atom_site_fract_z
Si Si1 0.784080 0.970342 0.016959
Si Si2 0.952653 0.761390 0.154698
Si Si3 0.713062 0.625851 0.171482
Si Si4 0.066873 0.602104 0.263620
Si Si5 0.321493 0.507702 0.029649
Si Si6 0.420833 0.174352 0.087296
Si Si7 0.812734 0.989287 0.181446
O O1 0.752122 0.002543 0.931024
O O2 0.895484 0.895484 0.000000
O O3 0.685212 0.888764 0.049450
O O4 0.806031 0.039700 0.095081
O O5 0.837555 0.683497 0.163641
O O6 0.043903 0.709586 0.211927
O O7 0.907118 0.888601 0.175456
O O8 0.630101 0.717732 0.132864
O O9 0.676729 0.585008 0.254611
O O10 0.700748 0.514945 0.117463
O O11 0.804944 0.428474 0.288676
O O12 0.000000 0.500000 0.224257
O O13 0.007595 0.617543 0.346052
O O14 0.206883 0.496263 0.983403
O O15 0.406460 0.406460 0.000000
O O16 0.380504 0.619497 0.000000
#
# Coordination Sequence:
#
# PCOD9549935 Si02
#       7
#     8   8   8   8   8   8   8
#     4   9  15  34  57  77 101 149 195 231 265 336
#     4  11  20  36  60  80 113 155 195 231 289 346
#     4  11  18  34  59  81 113 151 183 240 293 338
#     4  11  22  35  54  85 116 143 188 240 283 341
#     4   9  18  30  51  83 117 141 184 237 293 350
#     4  10  18  34  55  82 110 145 189 238 281 338
#     4  10  22  36  56  87 114 141 195 244 278 336
#
# _framework density 22.983801
#
# number of rings (size 3 to 8) (size 9 to 14) (size 15 to 20)
#    0.000    1.857    7.143    0.429    2.000    0.000 
#    0.000    5.714    0.000    0.857    0.000    3.000 
#    0.000    0.000    0.000    0.000    0.000    0.000 
#
# Total GULP energy -311942.961858 kJ/mol
# GULP energy per Si atom -5570.410033 kJ/mol
# Density = 2.293149 g / cm^3
# Si number density = 22.983801 Si / 1000 Ang^3
#
#
#
# Elastic Constant Matrix: (Units=GPa)
#
#
# Indices 1 2 3 4 5 6 
#
# 1 44.9227 28.1476 40.0734 0.0000 0.0000 0.0000
# 2 28.1476 44.9230 40.0734 0.0000 0.0000 0.0000
# 3 40.0734 40.0734 180.6813 0.0000 0.0000 0.0000
# 4 0.0000 0.0000 0.0000 27.2790 0.0000 0.0000
# 5 0.0000 0.0000 0.0000 0.0000 27.2777 0.0000
# 6 0.0000 0.0000 0.0000 0.0000 0.0000 18.8342
#
#
#
# Elastic Compliance Matrix: (Units=1/GPa)
#
#
# Indices 1 2 3 4 5 6 
#
# 1 0.038848 -0.020763 -0.004011 0.000000 0.000000 0.000000
# 2 -0.020763 0.038848 -0.004011 0.000000 0.000000 0.000000
# 3 -0.004011 -0.004011 0.007314 0.000000 0.000000 0.000000
# 4 0.000000 0.000000 0.000000 0.036658 0.000000 0.000000
# 5 0.000000 0.000000 0.000000 0.000000 0.036660 0.000000
# 6 0.000000 0.000000 0.000000 0.000000 0.000000 0.053095
#
#
# Mechanical properties :
#
#
# Convention : Reuss Voigt Hill
#
# Bulk Modulus (GPa) = 36.44391 54.12399 45.28395
# Shear Modulus (GPa) = 17.97650 25.49369 21.73510
#
# Velocity S-wave (km/s) = 2.79971 3.33408 3.07851
# Velocity P-wave (km/s) = 5.13244 6.19850 5.69049
#
# Compressibility (1/GPa) = 0.02743942
#
# Stress axis : x y z
#
# Youngs Moduli (GPa) = 25.74107 25.74126 136.72704
#
# Poissons Ratio (x) = 0.53447 0.54843
# Poissons Ratio (y) = 0.53447 0.54842
# Poissons Ratio (z) = 0.10325 0.10325
#
# Static dielectric constant tensor:
#      x y z
#    x 1.975020 0.000000 0.000000 
#    y 0.000000 1.975020 0.000000 
#    z 0.000000 0.000000 1.883040 
# 
# From -- ./inp_files/4205.got.cif
#   From: 2010.05.17/outbox.cif.g08.bks.cpg/sg94_3_cif.got.tgz:4205.got - 2010.06.03 19:43:16.
