data_PCOD9549081
_publ_section_title
;
Structure prediction by ZEFSAII (Michael W. Deem and Ramdas Pophale) SiO2 
 PCOD9549081
Probable space group: P 41 21 2
;
_chemical_formula_sum "Si O2"
_cell_formula_units_Z 36
_cell_length_a 14.615418
_cell_length_b 14.615418
_cell_length_c 7.055360
_cell_angle_alpha 90.000000
_cell_angle_beta 90.000000
_cell_angle_gamma 90.000000
_cell_volume 1507.098577
_symmetry_space_group_name_H-M "P 41 21 2"
_symmetry_group_IT_number 92
_symmetry_cell_setting 'tetragonal'
loop_
_space_group_symop_operation_xyz
x,y,z
1/2-y,1/2+x,1/4+z
-x,-y,1/2+z
1/2+y,1/2-x,3/4+z
1/2+x,1/2-y,3/4-z
1/2-x,1/2+y,1/4-z
y,x,-z
-y,-x,1/2-z
loop_
_atom_site_type_symbol
_atom_site_label
_atom_site_fract_x
_atom_site_fract_y
_atom_site_fract_z
Si Si1 0.237013 0.288392 0.702982
Si Si2 0.952096 0.375523 0.306334
Si Si3 0.929556 0.224123 0.987215
Si Si4 0.552589 0.552589 0.000000
Si Si5 0.149178 0.087038 0.209365
O O1 0.286450 0.286450 0.500000
O O2 0.175879 0.380244 0.697924
O O3 0.325531 0.259796 0.826292
O O4 0.166813 0.206324 0.702134
O O5 0.967495 0.297753 0.141293
O O6 0.038882 0.409267 0.433400
O O7 0.928984 0.122660 0.080208
O O8 0.998845 0.213284 0.814114
O O9 0.566326 0.447412 0.051056
O O10 0.123267 0.123267 0.000000
#
# Coordination Sequence:
#
# PCOD9549081 Si02
#       5
#     8   8   8   4   8
#     4  10  23  44  68  96 134 181 214 274 342 390
#     4  11  26  44  67  94 133 180 222 273 329 402
#     4  10  22  44  68  95 136 170 215 279 333 388
#     4  10  20  42  62 100 128 166 212 274 336 378
#     4  10  24  40  71 101 128 175 225 282 326 405
#
# _framework density 23.886959999999998
#
# number of rings (size 3 to 8) (size 9 to 14) (size 15 to 20)
#    0.000    1.778    3.333    0.000   15.556    4.444 
#    6.000    0.000    0.000    0.000    0.000    0.000 
#    0.000    0.000    0.000    0.000    0.000    0.000 
#
# Total GULP energy -200795.040983 kJ/mol
# GULP energy per Si atom -5577.640027 kJ/mol
# Density = 2.383259 g / cm^3
# Si number density = 23.886960 Si / 1000 Ang^3
#
#
#
# Elastic Constant Matrix: (Units=GPa)
#
#
# Indices 1 2 3 4 5 6 
#
# 1 143.6531 73.1932 12.7613 0.0000 0.0000 0.0000
# 2 73.1932 143.6531 12.7613 0.0000 0.0000 0.0000
# 3 12.7613 12.7613 44.3471 0.0000 0.0000 0.0000
# 4 0.0000 0.0000 0.0000 15.1624 0.0000 0.0000
# 5 0.0000 0.0000 0.0000 0.0000 15.1624 0.0000
# 6 0.0000 0.0000 0.0000 0.0000 0.0000 41.1678
#
#
#
# Elastic Compliance Matrix: (Units=1/GPa)
#
#
# Indices 1 2 3 4 5 6 
#
# 1 0.009483 -0.004710 -0.001374 0.000000 0.000000 0.000000
# 2 -0.004710 0.009483 -0.001374 0.000000 0.000000 0.000000
# 3 -0.001374 -0.001374 0.023340 0.000000 0.000000 0.000000
# 4 0.000000 0.000000 0.000000 0.065952 0.000000 0.000000
# 5 0.000000 0.000000 0.000000 0.000000 0.065952 0.000000
# 6 0.000000 0.000000 0.000000 0.000000 0.000000 0.024291
#
#
# Mechanical properties :
#
#
# Convention : Reuss Voigt Hill
#
# Bulk Modulus (GPa) = 36.50675 58.78720 47.64698
# Shear Modulus (GPa) = 22.46732 29.82770 26.14751
#
# Velocity S-wave (km/s) = 3.07020 3.53753 3.31212
# Velocity P-wave (km/s) = 5.28057 6.43036 5.88362
#
# Compressibility (1/GPa) = 0.02739219
#
# Stress axis : x y z
#
# Youngs Moduli (GPa) = 105.45359 105.45359 42.84507
#
# Poissons Ratio (x) = 0.49665 0.05885
# Poissons Ratio (y) = 0.49665 0.05885
# Poissons Ratio (z) = 0.14484 0.14484
#
# Static dielectric constant tensor:
#      x y z
#    x 1.977270 0.000000 0.000000 
#    y 0.000000 1.977270 0.000000 
#    z 0.000000 0.000000 2.039500 
# 
# From -- ./inp_files/1233.got.cif
#   From: 2010.05.17/outbox.cif.g08.bks.cpg/sg92_1_cif.got.tgz:1233.got - 2010.06.03 19:35:17.
