data_PCOD9549098
_publ_section_title
;
Structure prediction by ZEFSAII (Michael W. Deem and Ramdas Pophale) SiO2 
 PCOD9549098
Probable space group: P 41 21 2
;
_chemical_formula_sum "Si O2"
_cell_formula_units_Z 48
_cell_length_a 22.892022
_cell_length_b 22.892022
_cell_length_c 5.331028
_cell_angle_alpha 90.000000
_cell_angle_beta 90.000000
_cell_angle_gamma 90.000000
_cell_volume 2793.696816
_symmetry_space_group_name_H-M "P 41 21 2"
_symmetry_group_IT_number 92
_symmetry_cell_setting 'tetragonal'
loop_
_space_group_symop_operation_xyz
x,y,z
1/2-y,1/2+x,1/4+z
-x,-y,1/2+z
1/2+y,1/2-x,3/4+z
1/2+x,1/2-y,3/4-z
1/2-x,1/2+y,1/4-z
y,x,-z
-y,-x,1/2-z
loop_
_atom_site_type_symbol
_atom_site_label
_atom_site_fract_x
_atom_site_fract_y
_atom_site_fract_z
Si Si1 0.865933 0.229216 0.771266
Si Si2 0.829749 0.734657 0.530270
Si Si3 0.313633 0.123081 0.466055
Si Si4 0.941757 0.561995 0.392806
Si Si5 0.638137 0.983706 0.205842
Si Si6 0.085953 0.723262 0.768102
O O1 0.831538 0.168463 0.750000
O O2 0.815673 0.279462 0.775410
O O3 0.906593 0.243952 0.533264
O O4 0.898476 0.236080 0.034393
O O5 0.795257 0.795257 0.500000
O O6 0.868416 0.722318 0.286839
O O7 0.863705 0.725974 0.790708
O O8 0.343262 0.059609 0.481747
O O9 0.365301 0.171492 0.470837
O O10 0.933295 0.509462 0.584738
O O11 0.907694 0.532465 0.155986
O O12 0.937321 0.617637 0.578954
O O13 0.692731 0.023838 0.276666
#
# Coordination Sequence:
#
# PCOD9549098 Si02
#       6
#     8   8   8   8   8   8
#     4   9  18  34  54  72  91 116 159 218 273 318
#     4   9  18  34  54  72  91 116 159 218 273 318
#     4  10  21  34  50  73  95 128 169 214 267 305
#     4  12  22  38  46  62  89 144 187 224 256 290
#     4  12  26  34  52  68 104 136 184 224 264 298
#     4  10  21  34  50  73  95 128 169 214 267 305
#
# _framework density 17.181535
#
# number of rings (size 3 to 8) (size 9 to 14) (size 15 to 20)
#    0.000    1.667    1.667    3.000   11.667    4.000 
#    0.000    0.000    0.000    0.000    0.000    0.000 
#    0.000    0.000    0.000    0.000    0.000   46.667 
#
# Total GULP energy -267384.758220 kJ/mol
# GULP energy per Si atom -5570.515796 kJ/mol
# Density = 1.714243 g / cm^3
# Si number density = 17.181535 Si / 1000 Ang^3
#
#
#
# Elastic Constant Matrix: (Units=GPa)
#
#
# Indices 1 2 3 4 5 6 
#
# 1 37.8622 27.0282 21.8676 0.0000 0.0000 0.0000
# 2 27.0282 37.8625 21.8683 0.0000 0.0000 0.0000
# 3 21.8676 21.8683 110.4656 0.0000 0.0000 0.0000
# 4 0.0000 0.0000 0.0000 20.8430 0.0000 0.0000
# 5 0.0000 0.0000 0.0000 0.0000 20.8434 0.0000
# 6 0.0000 0.0000 0.0000 0.0000 0.0000 35.9704
#
#
#
# Elastic Compliance Matrix: (Units=1/GPa)
#
#
# Indices 1 2 3 4 5 6 
#
# 1 0.055042 -0.037259 -0.003520 0.000000 0.000000 0.000000
# 2 -0.037259 0.055042 -0.003521 0.000000 0.000000 0.000000
# 3 -0.003520 -0.003521 0.010446 0.000000 0.000000 0.000000
# 4 0.000000 0.000000 0.000000 0.047978 0.000000 0.000000
# 5 0.000000 0.000000 0.000000 0.000000 0.047977 0.000000
# 6 0.000000 0.000000 0.000000 0.000000 0.000000 0.027801
#
#
# Mechanical properties :
#
#
# Convention : Reuss Voigt Hill
#
# Bulk Modulus (GPa) = 31.31715 36.41315 33.86515
# Shear Modulus (GPa) = 14.55486 23.22643 18.89065
#
# Velocity S-wave (km/s) = 2.91369 3.68071 3.31943
# Velocity P-wave (km/s) = 5.43933 6.26918 5.86894
#
# Compressibility (1/GPa) = 0.03193139
#
# Stress axis : x y z
#
# Youngs Moduli (GPa) = 18.16798 18.16802 95.72676
#
# Poissons Ratio (x) = 0.67691 0.33697
# Poissons Ratio (y) = 0.67691 0.33703
# Poissons Ratio (z) = 0.06395 0.06396
#
# Static dielectric constant tensor:
#      x y z
#    x 1.590260 0.000000 0.000000 
#    y 0.000000 1.590260 0.000000 
#    z 0.000000 0.000000 1.660960 
# 
# From -- ./inp_files/651.got.cif
#   From: 2010.05.17/outbox.cif.g08.bks.cpg/sg92_1_cif.got.tgz:651.got - 2010.06.03 19:35:17.
