data_PCOD9549223
_publ_section_title
;
Structure prediction by ZEFSAII (Michael W. Deem and Ramdas Pophale) SiO2 
 PCOD9549223
Probable space group: P 41 21 2
;
_chemical_formula_sum "Si O2"
_cell_formula_units_Z 48
_cell_length_a 10.668392
_cell_length_b 10.668392
_cell_length_c 19.204830
_cell_angle_alpha 90.000000
_cell_angle_beta 90.000000
_cell_angle_gamma 90.000000
_cell_volume 2185.789811
_symmetry_space_group_name_H-M "P 41 21 2"
_symmetry_group_IT_number 92
_symmetry_cell_setting 'tetragonal'
loop_
_space_group_symop_operation_xyz
x,y,z
1/2-y,1/2+x,1/4+z
-x,-y,1/2+z
1/2+y,1/2-x,3/4+z
1/2+x,1/2-y,3/4-z
1/2-x,1/2+y,1/4-z
y,x,-z
-y,-x,1/2-z
loop_
_atom_site_type_symbol
_atom_site_label
_atom_site_fract_x
_atom_site_fract_y
_atom_site_fract_z
Si Si1 0.668294 0.469287 0.451682
Si Si2 0.014850 0.275933 0.280007
Si Si3 0.612606 0.131975 0.937392
Si Si4 0.751119 0.714347 0.575931
Si Si5 0.993662 0.401877 0.128030
Si Si6 0.111813 0.264234 0.552963
O O1 0.567127 0.364896 0.476509
O O2 0.783818 0.461082 0.506677
O O3 0.639530 0.616170 0.432448
O O4 0.707877 0.414404 0.377670
O O5 0.994948 0.343595 0.204809
O O6 0.098664 0.367155 0.330968
O O7 0.875636 0.287187 0.310861
O O8 0.696871 0.222672 0.891231
O O9 0.543613 0.045666 0.878772
O O10 0.687259 0.022263 0.976489
O O11 0.771011 0.771011 0.500000
O O12 0.885970 0.658325 0.591335
O O13 0.164873 0.164873 0.500000
#
# Coordination Sequence:
#
# PCOD9549223 Si02
#       6
#     8   8   8   8   8   8
#     4  11  23  40  63  94 129 168 216 267 332 394
#     4  11  24  41  69  98 131 172 224 279 328 400
#     4  10  22  39  65  92 125 175 214 267 332 397
#     4  11  21  39  63  90 127 169 213 266 329 398
#     4  11  22  40  67  96 129 172 225 270 332 398
#     4  10  24  40  66  91 128 169 218 265 327 400
#
# _framework density 21.960025000000002
#
# number of rings (size 3 to 8) (size 9 to 14) (size 15 to 20)
#    0.000    1.333    3.333    2.000   14.000    0.667 
#    0.000    0.000    0.000    0.000    0.000    0.000 
#    0.000    0.000    0.000    0.000    0.000    0.000 
#
# Total GULP energy -267202.163248 kJ/mol
# GULP energy per Si atom -5566.711734 kJ/mol
# Density = 2.191004 g / cm^3
# Si number density = 21.960025 Si / 1000 Ang^3
#
#
#
# Elastic Constant Matrix: (Units=GPa)
#
#
# Indices 1 2 3 4 5 6 
#
# 1 66.7113 27.3022 26.7701 0.0000 0.0000 0.0000
# 2 27.3022 66.7113 26.7701 0.0000 0.0000 0.0000
# 3 26.7701 26.7701 97.2289 0.0000 0.0000 0.0000
# 4 0.0000 0.0000 0.0000 35.9818 0.0000 0.0000
# 5 0.0000 0.0000 0.0000 0.0000 35.9818 0.0000
# 6 0.0000 0.0000 0.0000 0.0000 0.0000 43.1090
#
#
#
# Elastic Compliance Matrix: (Units=1/GPa)
#
#
# Indices 1 2 3 4 5 6 
#
# 1 0.018995 -0.006380 -0.003473 0.000000 0.000000 0.000000
# 2 -0.006380 0.018995 -0.003473 0.000000 0.000000 0.000000
# 3 -0.003473 -0.003473 0.012198 0.000000 0.000000 0.000000
# 4 0.000000 0.000000 0.000000 0.027792 0.000000 0.000000
# 5 0.000000 0.000000 0.000000 0.000000 0.027792 0.000000
# 6 0.000000 0.000000 0.000000 0.000000 0.000000 0.023197
#
#
# Mechanical properties :
#
#
# Convention : Reuss Voigt Hill
#
# Bulk Modulus (GPa) = 42.49140 43.59293 43.04217
# Shear Modulus (GPa) = 30.58747 33.00179 31.79463
#
# Velocity S-wave (km/s) = 3.73617 3.88082 3.80918
# Velocity P-wave (km/s) = 6.16469 6.32259 6.24414
#
# Compressibility (1/GPa) = 0.02353417
#
# Stress axis : x y z
#
# Youngs Moduli (GPa) = 52.64597 52.64597 81.98341
#
# Poissons Ratio (x) = 0.33588 0.28475
# Poissons Ratio (y) = 0.33588 0.28475
# Poissons Ratio (z) = 0.18285 0.18285
#
# Static dielectric constant tensor:
#      x y z
#    x 2.074000 0.000000 0.000000 
#    y 0.000000 2.074000 0.000000 
#    z 0.000000 0.000000 1.796980 
# 
# From -- ./inp_files/3128.got.cif
#   From: 2010.05.17/outbox.cif.g08.bks.cpg/sg92_2_cif.got.tgz:3128.got - 2010.06.03 19:35:17.
