data_PCOD9549578
_publ_section_title
;
Structure prediction by ZEFSAII (Michael W. Deem and Ramdas Pophale) SiO2 
 PCOD9549578
Probable space group: P 41 21 2
;
_chemical_formula_sum "Si O2"
_cell_formula_units_Z 28
_cell_length_a 8.118020
_cell_length_b 8.118020
_cell_length_c 15.470163
_cell_angle_alpha 90.000000
_cell_angle_beta 90.000000
_cell_angle_gamma 90.000000
_cell_volume 1019.518530
_symmetry_space_group_name_H-M "P 41 21 2"
_symmetry_group_IT_number 92
_symmetry_cell_setting 'tetragonal'
loop_
_space_group_symop_operation_xyz
x,y,z
1/2-y,1/2+x,1/4+z
-x,-y,1/2+z
1/2+y,1/2-x,3/4+z
1/2+x,1/2-y,3/4-z
1/2-x,1/2+y,1/4-z
y,x,-z
-y,-x,1/2-z
loop_
_atom_site_type_symbol
_atom_site_label
_atom_site_fract_x
_atom_site_fract_y
_atom_site_fract_z
Si Si1 0.222865 0.942808 0.853235
Si Si2 0.928503 0.129776 0.631971
Si Si3 0.663541 0.336460 0.250000
Si Si4 0.020772 0.359679 0.961869
O O1 0.270337 0.755435 0.834689
O O2 0.361133 0.021167 0.788855
O O3 0.267355 0.014527 0.946772
O O4 0.026821 0.960376 0.840528
O O5 0.922318 0.294924 0.688926
O O6 0.760092 0.030340 0.616530
O O7 0.978720 0.184304 0.534162
#
# Coordination Sequence:
#
# PCOD9549578 Si02
#       4
#     8   8   4   8
#     4  12  29  53  84 125 170 231 287 363 443 520
#     4  12  27  52  82 122 168 217 287 358 428 528
#     4  12  30  54  78 120 176 220 292 368 440 520
#     4  12  27  51  84 122 167 223 289 352 438 521
#
# _framework density 27.463944000000001
#
# number of rings (size 3 to 8) (size 9 to 14) (size 15 to 20)
#    0.000    0.000    5.714    1.714    8.000    4.571 
#    0.000    0.000    0.000    0.000    0.000    0.000 
#    0.000    0.000    0.000    0.000    0.000    0.000 
#
# Total GULP energy -156322.373795 kJ/mol
# GULP energy per Si atom -5582.941921 kJ/mol
# Density = 2.740144 g / cm^3
# Si number density = 27.463944 Si / 1000 Ang^3
#
#
#
# Elastic Constant Matrix: (Units=GPa)
#
#
# Indices 1 2 3 4 5 6 
#
# 1 165.4211 87.0146 55.2245 0.0000 0.0000 0.0000
# 2 87.0146 165.4220 55.2248 0.0000 0.0000 0.0000
# 3 55.2245 55.2248 172.3851 0.0000 0.0000 0.0000
# 4 0.0000 0.0000 0.0000 44.1007 0.0000 0.0000
# 5 0.0000 0.0000 0.0000 0.0000 44.1005 0.0000
# 6 0.0000 0.0000 0.0000 0.0000 0.0000 53.1878
#
#
#
# Elastic Compliance Matrix: (Units=1/GPa)
#
#
# Indices 1 2 3 4 5 6 
#
# 1 0.008681 -0.004073 -0.001476 0.000000 0.000000 0.000000
# 2 -0.004073 0.008681 -0.001476 0.000000 0.000000 0.000000
# 3 -0.001476 -0.001476 0.006747 0.000000 0.000000 0.000000
# 4 0.000000 0.000000 0.000000 0.022675 0.000000 0.000000
# 5 0.000000 0.000000 0.000000 0.000000 0.022675 0.000000
# 6 0.000000 0.000000 0.000000 0.000000 0.000000 0.018801
#
#
# Mechanical properties :
#
#
# Convention : Reuss Voigt Hill
#
# Bulk Modulus (GPa) = 99.43114 99.79512 99.61313
# Shear Modulus (GPa) = 47.32032 48.66209 47.99121
#
# Velocity S-wave (km/s) = 4.15540 4.21391 4.18476
# Velocity P-wave (km/s) = 7.70104 7.75188 7.72650
#
# Compressibility (1/GPa) = 0.01005721
#
# Stress axis : x y z
#
# Youngs Moduli (GPa) = 115.19958 115.20012 148.22248
#
# Poissons Ratio (x) = 0.46926 0.21877
# Poissons Ratio (y) = 0.46925 0.21877
# Poissons Ratio (z) = 0.17003 0.17003
#
# Static dielectric constant tensor:
#      x y z
#    x 2.261870 0.000000 0.000000 
#    y 0.000000 2.261870 0.000000 
#    z 0.000000 0.000000 2.165380 
# 
# From -- ./inp_files/2965.got.cif
#   From: 2010.05.17/outbox.cif.g08.bks.cpg/sg92_2_cif.got.tgz:2965.got - 2010.06.03 19:35:17.
