data_PCOD9549480
_publ_section_title
;
Structure prediction by ZEFSAII (Michael W. Deem and Ramdas Pophale) SiO2 
 PCOD9549480
Probable space group: P 41 21 2
;
_chemical_formula_sum "Si O2"
_cell_formula_units_Z 36
_cell_length_a 11.241777
_cell_length_b 11.241777
_cell_length_c 11.596258
_cell_angle_alpha 90.000000
_cell_angle_beta 90.000000
_cell_angle_gamma 90.000000
_cell_volume 1465.506677
_symmetry_space_group_name_H-M "P 41 21 2"
_symmetry_group_IT_number 92
_symmetry_cell_setting 'tetragonal'
loop_
_space_group_symop_operation_xyz
x,y,z
1/2-y,1/2+x,1/4+z
-x,-y,1/2+z
1/2+y,1/2-x,3/4+z
1/2+x,1/2-y,3/4-z
1/2-x,1/2+y,1/4-z
y,x,-z
-y,-x,1/2-z
loop_
_atom_site_type_symbol
_atom_site_label
_atom_site_fract_x
_atom_site_fract_y
_atom_site_fract_z
Si Si1 0.949943 0.949943 0.000000
Si Si2 0.109848 0.253890 0.653796
Si Si3 0.895205 0.616311 0.387084
Si Si4 0.588162 0.160529 0.606681
Si Si5 0.703643 0.634287 0.828919
O O1 0.880761 0.895696 0.889446
O O2 0.087798 0.919878 0.982226
O O3 0.094272 0.284278 0.789039
O O4 0.234590 0.313539 0.617873
O O5 0.989638 0.309037 0.600045
O O6 0.866220 0.671765 0.511215
O O7 0.022317 0.552736 0.402236
O O8 0.694116 0.167232 0.515411
O O9 0.474004 0.243906 0.595978
#
# Coordination Sequence:
#
# PCOD9549480 Si02
#       5
#     4   8   8   8   8
#     4  12  28  48  72 112 152 192 270 332 382 448
#     4  11  23  45  72 105 150 196 250 318 387 445
#     4   9  20  44  75 101 139 215 251 304 388 466
#     4   9  22  44  74 106 151 203 258 300 390 464
#     4  11  25  46  73 112 152 202 257 326 383 468
#
# _framework density 24.564881
#
# number of rings (size 3 to 8) (size 9 to 14) (size 15 to 20)
#    0.000    1.778    2.222    0.000    3.111    8.000 
#    4.000    6.667    0.000    0.000    0.000    0.000 
#    0.000    0.000    0.000    0.000    0.000    0.000 
#
# Total GULP energy -201121.101975 kJ/mol
# GULP energy per Si atom -5586.697277 kJ/mol
# Density = 2.450897 g / cm^3
# Si number density = 24.564881 Si / 1000 Ang^3
#
#
#
# Elastic Constant Matrix: (Units=GPa)
#
#
# Indices 1 2 3 4 5 6 
#
# 1 85.0090 33.8891 32.0818 0.0000 0.0000 0.0000
# 2 33.8891 85.0090 32.0818 0.0000 0.0000 0.0000
# 3 32.0818 32.0818 120.4082 0.0000 0.0000 0.0000
# 4 0.0000 0.0000 0.0000 16.0506 0.0000 0.0000
# 5 0.0000 0.0000 0.0000 0.0000 16.0506 0.0000
# 6 0.0000 0.0000 0.0000 0.0000 0.0000 44.8654
#
#
#
# Elastic Compliance Matrix: (Units=1/GPa)
#
#
# Indices 1 2 3 4 5 6 
#
# 1 0.014692 -0.004869 -0.002617 0.000000 0.000000 0.000000
# 2 -0.004869 0.014692 -0.002617 0.000000 0.000000 0.000000
# 3 -0.002617 -0.002617 0.009700 0.000000 0.000000 0.000000
# 4 0.000000 0.000000 0.000000 0.062303 0.000000 0.000000
# 5 0.000000 0.000000 0.000000 0.000000 0.062303 0.000000
# 6 0.000000 0.000000 0.000000 0.000000 0.000000 0.022289
#
#
# Mechanical properties :
#
#
# Convention : Reuss Voigt Hill
#
# Bulk Modulus (GPa) = 52.97534 54.05906 53.51720
# Shear Modulus (GPa) = 23.53172 28.21823 25.87498
#
# Velocity S-wave (km/s) = 3.09842 3.39296 3.24903
# Velocity P-wave (km/s) = 5.86622 6.11588 5.99235
#
# Compressibility (1/GPa) = 0.01887671
#
# Stress axis : x y z
#
# Youngs Moduli (GPa) = 68.06238 68.06238 103.09521
#
# Poissons Ratio (x) = 0.33143 0.26983
# Poissons Ratio (y) = 0.33143 0.26983
# Poissons Ratio (z) = 0.17814 0.17814
#
# Static dielectric constant tensor:
#      x y z
#    x 1.969840 0.000000 0.000000 
#    y 0.000000 1.969840 0.000000 
#    z 0.000000 0.000000 2.065100 
# 
# From -- ./inp_files/2573.got.cif
#   From: 2010.05.17/outbox.cif.g08.bks.cpg/sg92_2_cif.got.tgz:2573.got - 2010.06.03 19:35:17.
