data_PCOD9549942
_publ_section_title
;
Structure prediction by ZEFSAII (Michael W. Deem and Ramdas Pophale) SiO2 
 PCOD9549942
Probable space group: P 42 21 2
;
_chemical_formula_sum "Si O2"
_cell_formula_units_Z 44
_cell_length_a 9.257674
_cell_length_b 9.257674
_cell_length_c 26.993563
_cell_angle_alpha 90.000000
_cell_angle_beta 90.000000
_cell_angle_gamma 90.000000
_cell_volume 2313.470573
_symmetry_space_group_name_H-M "P 42 21 2"
_symmetry_group_IT_number 94
_symmetry_cell_setting 'tetragonal'
loop_
_space_group_symop_operation_xyz
x,y,z
1/2-y,1/2+x,1/2+z
-x,-y,z
1/2+y,1/2-x,1/2+z
1/2+x,1/2-y,1/2-z
1/2-x,1/2+y,1/2-z
y,x,-z
-y,-x,-z
loop_
_atom_site_type_symbol
_atom_site_label
_atom_site_fract_x
_atom_site_fract_y
_atom_site_fract_z
Si Si1 0.391106 0.797469 0.598102
Si Si2 0.900400 0.862786 0.799288
Si Si3 0.756923 0.243078 0.500000
Si Si4 0.626565 0.118290 0.232205
Si Si5 0.945405 0.834178 0.546586
Si Si6 0.287372 0.113272 0.619434
O O1 0.363402 0.708573 0.647942
O O2 0.350433 0.735203 0.545176
O O3 0.561528 0.827047 0.599028
O O4 0.297320 0.944778 0.603956
O O5 0.748545 0.883675 0.771124
O O6 0.012033 0.764372 0.767446
O O7 0.000000 0.000000 0.809458
O O8 0.914984 0.251821 0.527066
O O9 0.622641 0.196197 0.178481
O O10 0.500000 0.000000 0.235273
O O11 0.836714 0.836714 0.500000
O O12 0.851114 0.808165 0.595632
O O13 0.000000 0.000000 0.552326
#
# Coordination Sequence:
#
# PCOD9549942 Si02
#       6
#     8   8   4   8   8   8
#     4  10  20  37  59  81 123 163 193 245 318 379
#     4  11  24  40  62  89 129 161 214 268 318 386
#     4  10  19  36  61  86 114 156 207 260 303 362
#     4  11  22  41  65  92 121 171 213 258 322 391
#     4   9  16  28  52  88 114 134 193 261 289 337
#     4  10  18  35  59  86 117 156 195 242 315 373
#
# _framework density 19.019044999999998
#
# number of rings (size 3 to 8) (size 9 to 14) (size 15 to 20)
#    0.000    2.000    7.273    1.091    0.000    2.182 
#    0.000    4.091    4.000    0.000    0.000    0.000 
#    0.000    0.000    0.000    0.000    0.000    0.000 
#
# Total GULP energy -244959.671647 kJ/mol
# GULP energy per Si atom -5567.265265 kJ/mol
# Density = 1.897576 g / cm^3
# Si number density = 19.019045 Si / 1000 Ang^3
#
#
#
# Elastic Constant Matrix: (Units=GPa)
#
#
# Indices 1 2 3 4 5 6 
#
# 1 39.5762 45.6812 58.6345 0.0000 0.0000 0.0000
# 2 45.6812 39.5761 58.6345 0.0000 0.0000 0.0000
# 3 58.6345 58.6345 141.2711 0.0000 0.0000 0.0000
# 4 0.0000 0.0000 0.0000 -3.6007 0.0000 0.0000
# 5 0.0000 0.0000 0.0000 0.0000 -3.6007 0.0000
# 6 0.0000 0.0000 0.0000 0.0000 0.0000 16.7968
#
#
#
# Elastic Compliance Matrix: (Units=1/GPa)
#
#
# Indices 1 2 3 4 5 6 
#
# 1 -0.068233 0.095566 -0.011345 0.000000 0.000000 0.000000
# 2 0.095566 -0.068233 -0.011345 0.000000 0.000000 0.000000
# 3 -0.011345 -0.011345 0.016496 0.000000 0.000000 0.000000
# 4 0.000000 0.000000 0.000000 -0.277724 0.000000 0.000000
# 5 0.000000 0.000000 0.000000 0.000000 -0.277723 0.000000
# 6 0.000000 0.000000 0.000000 0.000000 0.000000 0.059535
#
#
# Mechanical properties :
#
#
# Convention : Reuss Voigt Hill
#
# Bulk Modulus (GPa) = 38.78381 60.70264 49.74322
# Shear Modulus (GPa) = -6.63975 5.75063 -0.44456
#
# Velocity S-wave (km/s) = -1.87048 1.74074 -0.48400
# Velocity P-wave (km/s) = 3.97133 6.00219 5.08909
#
# Compressibility (1/GPa) = 0.02578396
#
# Stress axis : x y z
#
# Youngs Moduli (GPa) = -14.65573 -14.65573 60.62101
#
# Poissons Ratio (x) = 1.40059 0.68773
# Poissons Ratio (y) = 1.40060 0.68774
# Poissons Ratio (z) = -0.16627 -0.16627
#
# Static dielectric constant tensor:
#      x y z
#    x 1.723430 0.000000 0.000000 
#    y 0.000000 1.723430 0.000000 
#    z 0.000000 0.000000 1.683990 
# 
# From -- ./inp_files/5473.got.cif
#   From: 2010.05.17/outbox.cif.g08.bks.cpg/sg94_3_cif.got.tgz:5473.got - 2010.06.03 19:43:16.
