data_PCOD9549485
_publ_section_title
;
Structure prediction by ZEFSAII (Michael W. Deem and Ramdas Pophale) SiO2 
 PCOD9549485
Probable space group: P 41 21 2
;
_chemical_formula_sum "Si O2"
_cell_formula_units_Z 36
_cell_length_a 8.659697
_cell_length_b 8.659697
_cell_length_c 20.375387
_cell_angle_alpha 90.000000
_cell_angle_beta 90.000000
_cell_angle_gamma 90.000000
_cell_volume 1527.957446
_symmetry_space_group_name_H-M "P 41 21 2"
_symmetry_group_IT_number 92
_symmetry_cell_setting 'tetragonal'
loop_
_space_group_symop_operation_xyz
x,y,z
1/2-y,1/2+x,1/4+z
-x,-y,1/2+z
1/2+y,1/2-x,3/4+z
1/2+x,1/2-y,3/4-z
1/2-x,1/2+y,1/4-z
y,x,-z
-y,-x,1/2-z
loop_
_atom_site_type_symbol
_atom_site_label
_atom_site_fract_x
_atom_site_fract_y
_atom_site_fract_z
Si Si1 0.792056 0.002669 0.454153
Si Si2 0.737728 0.737728 0.000000
Si Si3 0.272912 0.408423 0.068013
Si Si4 0.119082 0.220049 0.241412
Si Si5 0.575578 0.399475 0.136793
O O1 0.893079 0.893079 0.500000
O O2 0.661870 0.895979 0.419452
O O3 0.707570 0.121771 0.501083
O O4 0.921746 0.086037 0.409959
O O5 0.560497 0.751731 0.023110
O O6 0.788508 0.848359 0.940324
O O7 0.396189 0.365167 0.123321
O O8 0.332178 0.332178 0.000000
O O9 0.299798 0.590665 0.053905
O O10 0.117659 0.153545 0.315994
#
# Coordination Sequence:
#
# PCOD9549485 Si02
#       5
#     8   4   8   8   8
#     4  11  25  43  68 102 135 176 233 291 345 423
#     4  12  24  44  72 104 132 194 236 288 356 442
#     4   9  22  46  68  99 138 179 224 290 357 417
#     4  11  24  46  70  98 142 187 231 286 365 431
#     4  11  23  46  68 103 137 178 245 284 358 423
#
# _framework density 23.560863999999999
#
# number of rings (size 3 to 8) (size 9 to 14) (size 15 to 20)
#    0.000    1.333    4.444    1.333    3.111    3.556 
#    4.000    0.000    0.000    0.000    0.000    0.000 
#    0.000    0.000    0.000    0.000    0.000    0.000 
#
# Total GULP energy -201414.967809 kJ/mol
# GULP energy per Si atom -5594.860217 kJ/mol
# Density = 2.350724 g / cm^3
# Si number density = 23.560864 Si / 1000 Ang^3
#
#
#
# Elastic Constant Matrix: (Units=GPa)
#
#
# Indices 1 2 3 4 5 6 
#
# 1 107.4060 103.3342 25.4691 0.0000 0.0000 0.0000
# 2 103.3342 107.4060 25.4691 0.0000 0.0000 0.0000
# 3 25.4691 25.4691 74.1463 0.0000 0.0000 0.0000
# 4 0.0000 0.0000 0.0000 42.5849 0.0000 0.0000
# 5 0.0000 0.0000 0.0000 0.0000 42.5849 0.0000
# 6 0.0000 0.0000 0.0000 0.0000 0.0000 55.4780
#
#
#
# Elastic Compliance Matrix: (Units=1/GPa)
#
#
# Indices 1 2 3 4 5 6 
#
# 1 0.125383 -0.120208 -0.001778 0.000000 0.000000 0.000000
# 2 -0.120208 0.125383 -0.001778 0.000000 0.000000 0.000000
# 3 -0.001778 -0.001778 0.014708 0.000000 0.000000 0.000000
# 4 0.000000 0.000000 0.000000 0.023482 0.000000 0.000000
# 5 0.000000 0.000000 0.000000 0.000000 0.023482 0.000000
# 6 0.000000 0.000000 0.000000 0.000000 0.000000 0.018025
#
#
# Mechanical properties :
#
#
# Convention : Reuss Voigt Hill
#
# Bulk Modulus (GPa) = 55.71804 66.38921 61.05363
# Shear Modulus (GPa) = 8.56204 37.10864 22.83534
#
# Velocity S-wave (km/s) = 1.90838 3.97295 3.11659
# Velocity P-wave (km/s) = 5.34376 7.02030 6.23861
#
# Compressibility (1/GPa) = 0.01794751
#
# Stress axis : x y z
#
# Youngs Moduli (GPa) = 7.97557 7.97557 67.99017
#
# Poissons Ratio (x) = 0.95873 0.12086
# Poissons Ratio (y) = 0.95873 0.12086
# Poissons Ratio (z) = 0.01418 0.01418
#
# Static dielectric constant tensor:
#      x y z
#    x 1.907520 0.000000 0.000000 
#    y 0.000000 1.907520 0.000000 
#    z 0.000000 0.000000 1.939270 
# 
# From -- ./inp_files/3450.got.cif
#   From: 2010.05.17/outbox.cif.g08.bks.cpg/sg92_2_cif.got.tgz:3450.got - 2010.06.03 19:35:17.
