data_PCOD9549451
_publ_section_title
;
Structure prediction by ZEFSAII (Michael W. Deem and Ramdas Pophale) SiO2 
 PCOD9549451
Probable space group: P 41 21 2
;
_chemical_formula_sum "Si O2"
_cell_formula_units_Z 56
_cell_length_a 15.482361
_cell_length_b 15.482361
_cell_length_c 12.082248
_cell_angle_alpha 90.000000
_cell_angle_beta 90.000000
_cell_angle_gamma 90.000000
_cell_volume 2896.157159
_symmetry_space_group_name_H-M "P 41 21 2"
_symmetry_group_IT_number 92
_symmetry_cell_setting 'tetragonal'
loop_
_space_group_symop_operation_xyz
x,y,z
1/2-y,1/2+x,1/4+z
-x,-y,1/2+z
1/2+y,1/2-x,3/4+z
1/2+x,1/2-y,3/4-z
1/2-x,1/2+y,1/4-z
y,x,-z
-y,-x,1/2-z
loop_
_atom_site_type_symbol
_atom_site_label
_atom_site_fract_x
_atom_site_fract_y
_atom_site_fract_z
Si Si1 0.319233 0.327493 0.367112
Si Si2 0.453787 0.196971 0.756890
Si Si3 0.620531 0.982773 0.291058
Si Si4 0.953787 0.696971 0.256890
Si Si5 0.172508 0.180767 0.632888
Si Si6 0.739828 0.500000 0.125000
Si Si7 0.517227 0.879469 0.708942
O O1 0.332985 0.332985 0.500000
O O2 0.278291 0.407925 0.300838
O O3 0.250000 0.250000 0.350198
O O4 0.417473 0.309959 0.328854
O O5 0.514818 0.151401 0.666715
O O6 0.500000 0.211940 0.875000
O O7 0.385802 0.118168 0.766305
O O8 0.694242 0.030078 0.220424
O O9 0.533933 0.033933 0.250000
O O10 0.907925 0.778291 0.199162
O O11 0.885802 0.618168 0.266306
O O12 0.014818 0.651401 0.166715
O O13 0.167015 0.167015 0.500000
O O14 0.190041 0.082527 0.671146
O O15 0.805758 0.469922 0.220425
#
# Coordination Sequence:
#
# PCOD9549451 Si02
#       7
#     8   8   8   8   8   8   8
#     4  11  22  41  68  94 125 177 234 278 333 423
#     4  12  24  38  63 101 141 176 219 290 367 423
#     4  12  20  37  64 102 141 176 221 288 362 433
#     4  12  24  38  63 101 141 176 219 290 367 423
#     4  11  22  41  68  94 125 177 234 278 333 423
#     4  12  22  38  70  98 126 180 246 280 334 412
#     4  12  20  37  64 102 141 176 221 288 362 433
#
# _framework density 19.335965999999999
#
# number of rings (size 3 to 8) (size 9 to 14) (size 15 to 20)
#    0.000    0.286    8.571    2.571    0.000    0.000 
#    0.000    1.429    3.143    0.000    0.000    0.000 
#    0.000    0.000    0.000    0.000    0.000    0.000 
#
# Total GULP energy -311783.512077 kJ/mol
# GULP energy per Si atom -5567.562716 kJ/mol
# Density = 1.929196 g / cm^3
# Si number density = 19.335966 Si / 1000 Ang^3
#
#
#
# Elastic Constant Matrix: (Units=GPa)
#
#
# Indices 1 2 3 4 5 6 
#
# 1 84.2626 56.4193 24.8195 0.0000 0.0000 0.0000
# 2 56.4193 84.2626 24.8195 0.0000 0.0000 0.0000
# 3 24.8195 24.8195 114.3989 0.0000 0.0000 0.0000
# 4 0.0000 0.0000 0.0000 24.9193 0.0000 0.0000
# 5 0.0000 0.0000 0.0000 0.0000 24.9193 0.0000
# 6 0.0000 0.0000 0.0000 0.0000 0.0000 31.2674
#
#
#
# Elastic Compliance Matrix: (Units=1/GPa)
#
#
# Indices 1 2 3 4 5 6 
#
# 1 0.021806 -0.014109 -0.001670 0.000000 0.000000 0.000000
# 2 -0.014109 0.021806 -0.001670 0.000000 0.000000 0.000000
# 3 -0.001670 -0.001670 0.009466 0.000000 0.000000 0.000000
# 4 0.000000 0.000000 0.000000 0.040130 0.000000 0.000000
# 5 0.000000 0.000000 0.000000 0.000000 0.040130 0.000000
# 6 0.000000 0.000000 0.000000 0.000000 0.000000 0.031982
#
#
# Mechanical properties :
#
#
# Convention : Reuss Voigt Hill
#
# Bulk Modulus (GPa) = 55.00276 55.00452 55.00364
# Shear Modulus (GPa) = 24.23909 28.01224 26.12567
#
# Velocity S-wave (km/s) = 3.54443 3.81032 3.67978
# Velocity P-wave (km/s) = 6.72742 6.91857 6.82366
#
# Compressibility (1/GPa) = 0.01818091
#
# Stress axis : x y z
#
# Youngs Moduli (GPa) = 45.85809 45.85809 105.64150
#
# Poissons Ratio (x) = 0.64701 0.17642
# Poissons Ratio (y) = 0.64701 0.17642
# Poissons Ratio (z) = 0.07658 0.07658
#
# Static dielectric constant tensor:
#      x y z
#    x 1.704010 0.000000 0.000000 
#    y 0.000000 1.704010 0.000000 
#    z 0.000000 0.000000 1.809990 
# 
# From -- ./inp_files/2257.got.cif
#   From: 2010.05.17/outbox.cif.g08.bks.cpg/sg92_2_cif.got.tgz:2257.got - 2010.06.03 19:35:17.
