data_PCOD9549920
_publ_section_title
;
Structure prediction by ZEFSAII (Michael W. Deem and Ramdas Pophale) SiO2 
 PCOD9549920
Probable space group: P 42 21 2
;
_chemical_formula_sum "Si O2"
_cell_formula_units_Z 64
_cell_length_a 12.482215
_cell_length_b 12.482215
_cell_length_c 22.905780
_cell_angle_alpha 90.000000
_cell_angle_beta 90.000000
_cell_angle_gamma 90.000000
_cell_volume 3568.850888
_symmetry_space_group_name_H-M "P 42 21 2"
_symmetry_group_IT_number 94
_symmetry_cell_setting 'tetragonal'
loop_
_space_group_symop_operation_xyz
x,y,z
1/2-y,1/2+x,1/2+z
-x,-y,z
1/2+y,1/2-x,1/2+z
1/2+x,1/2-y,1/2-z
1/2-x,1/2+y,1/2-z
y,x,-z
-y,-x,-z
loop_
_atom_site_type_symbol
_atom_site_label
_atom_site_fract_x
_atom_site_fract_y
_atom_site_fract_z
Si Si1 0.108738 0.068349 0.067554
Si Si2 0.636269 0.820590 0.432827
Si Si3 0.389739 0.732314 0.828602
Si Si4 0.416793 0.207151 0.249765
Si Si5 0.271585 0.064544 0.856794
Si Si6 0.617013 0.164524 0.181860
Si Si7 0.742830 0.617458 0.209160
Si Si8 0.281849 0.889952 0.065303
O O1 0.109273 0.167429 0.111247
O O2 0.214476 0.997492 0.071928
O O3 0.102736 0.102736 0.000000
O O4 0.000000 0.000000 0.078686
O O5 0.718220 0.889892 0.393995
O O6 0.520883 0.823658 0.401563
O O7 0.624006 0.835499 0.501896
O O8 0.690307 0.702388 0.427658
O O9 0.364526 0.832552 0.785528
O O10 0.291344 0.650123 0.820511
O O11 0.505893 0.693085 0.810753
O O12 0.493340 0.257692 0.299885
O O13 0.499193 0.148612 0.207227
O O14 0.347540 0.292853 0.214837
O O15 0.346126 0.160760 0.833924
O O16 0.701531 0.112447 0.226969
O O17 0.635300 0.122038 0.117406
#
# Coordination Sequence:
#
# PCOD9549920 Si02
#       8
#     8   8   8   8   8   8   8   8
#     4  11  18  29  53  85 112 139 168 222 287 328
#     4   9  16  31  52  77 102 134 179 220 260 329
#     4   9  19  35  56  76 101 141 181 217 269 324
#     4   9  20  37  51  77 109 134 182 227 263 324
#     4  10  19  33  51  78 108 142 179 218 269 331
#     4   9  20  34  53  80 103 138 178 219 274 319
#     4  10  21  36  54  74 106 144 179 225 268 318
#     4  10  17  30  53  80 111 134 170 227 273 325
#
# _framework density 17.932942000000001
#
# number of rings (size 3 to 8) (size 9 to 14) (size 15 to 20)
#    0.000    2.375    2.500    1.500    0.000    8.000 
#    0.000    0.000    2.750    1.500    0.000    3.500 
#    0.000    0.000    0.000    0.000    0.000    0.000 
#
# Total GULP energy -356831.302821 kJ/mol
# GULP energy per Si atom -5575.489107 kJ/mol
# Density = 1.789213 g / cm^3
# Si number density = 17.932942 Si / 1000 Ang^3
#
#
#
# Elastic Constant Matrix: (Units=GPa)
#
#
# Indices 1 2 3 4 5 6 
#
# 1 30.9995 -11.7236 8.6447 0.0000 0.0000 0.0000
# 2 -11.7236 30.9995 8.6447 0.0000 0.0000 0.0000
# 3 8.6447 8.6447 86.0152 0.0000 0.0000 0.0000
# 4 0.0000 0.0000 0.0000 16.3672 0.0000 0.0000
# 5 0.0000 0.0000 0.0000 0.0000 16.3672 0.0000
# 6 0.0000 0.0000 0.0000 0.0000 0.0000 5.4232
#
#
#
# Elastic Compliance Matrix: (Units=1/GPa)
#
#
# Indices 1 2 3 4 5 6 
#
# 1 0.040212 0.016806 -0.005730 0.000000 0.000000 0.000000
# 2 0.016806 0.040212 -0.005730 0.000000 0.000000 0.000000
# 3 -0.005730 -0.005730 0.012778 0.000000 0.000000 0.000000
# 4 0.000000 0.000000 0.000000 0.061098 0.000000 0.000000
# 5 0.000000 0.000000 0.000000 0.000000 0.061098 0.000000
# 6 0.000000 0.000000 0.000000 0.000000 0.000000 0.184394
#
#
# Mechanical properties :
#
#
# Convention : Reuss Voigt Hill
#
# Bulk Modulus (GPa) = 9.62535 17.68284 13.65410
# Shear Modulus (GPa) = 11.79987 17.12806 14.46396
#
# Velocity S-wave (km/s) = 2.56793 3.09385 2.84308
# Velocity P-wave (km/s) = 3.76450 4.75862 4.29045
#
# Compressibility (1/GPa) = 0.10389232
#
# Stress axis : x y z
#
# Youngs Moduli (GPa) = 24.86798 24.86798 78.26145
#
# Poissons Ratio (x) = -0.41793 0.44847
# Poissons Ratio (y) = -0.41793 0.44847
# Poissons Ratio (z) = 0.14250 0.14250
#
# Static dielectric constant tensor:
#      x y z
#    x 1.614650 0.000000 0.000000 
#    y 0.000000 1.614650 0.000000 
#    z 0.000000 0.000000 1.622960 
# 
# From -- ./inp_files/5165.got.cif
#   From: 2010.05.17/outbox.cif.g08.bks.cpg/sg94_3_cif.got.tgz:5165.got - 2010.06.03 19:43:16.
