data_PCOD9549784
_publ_section_title
;
Structure prediction by ZEFSAII (Michael W. Deem and Ramdas Pophale) SiO2 
 PCOD9549784
Probable space group: P 42 2 2
;
_chemical_formula_sum "Si O2"
_cell_formula_units_Z 36
_cell_length_a 17.532396
_cell_length_b 17.532396
_cell_length_c 5.363005
_cell_angle_alpha 90.000000
_cell_angle_beta 90.000000
_cell_angle_gamma 90.000000
_cell_volume 1648.506807
_symmetry_space_group_name_H-M "P 42 2 2"
_symmetry_group_IT_number 93
_symmetry_cell_setting 'tetragonal'
loop_
_space_group_symop_operation_xyz
x,y,z
-y,x,1/2+z
-x,-y,z
y,-x,1/2+z
x,-y,-z
-x,y,-z
y,x,1/2-z
-y,-x,1/2-z
loop_
_atom_site_type_symbol
_atom_site_label
_atom_site_fract_x
_atom_site_fract_y
_atom_site_fract_z
Si Si1 0.414090 0.346170 0.000286
Si Si2 0.725860 0.000000 0.500000
Si Si3 0.428256 0.211114 0.340487
Si Si4 0.160017 0.286947 0.813913
Si Si5 0.925299 0.387966 0.602854
O O1 0.378168 0.378168 0.250000
O O2 0.417840 0.258610 0.085693
O O3 0.500000 0.376141 0.000000
O O4 0.370022 0.370022 0.750000
O O5 0.758247 0.918311 0.600822
O O6 0.674068 0.963444 0.285568
O O7 0.500000 0.243054 0.500000
O O8 0.348572 0.198622 0.491685
O O9 0.446629 0.126381 0.252866
O O10 0.225590 0.225590 0.750000
O O11 0.126591 0.340316 0.592295
O O12 0.000000 0.424821 0.500000
#
# Coordination Sequence:
#
# PCOD9549784 Si02
#       5
#     8   4   8   8   8
#     4  12  29  50  74 100 136 183 240 307 371 432
#     4   8  18  40  57  96 133 170 230 292 348 430
#     4  11  26  41  63  97 141 177 233 299 367 428
#     4  10  22  39  67  97 129 183 235 290 363 436
#     4   9  20  40  64  89 135 181 232 282 350 435
#
# _framework density 21.837944
#
# number of rings (size 3 to 8) (size 9 to 14) (size 15 to 20)
#    0.000    1.778    0.000    2.000    9.333    4.000 
#    0.000   25.556    0.000    0.000    0.000   22.556 
#    0.000    0.000    0.000    0.000    0.000    0.000 
#
# Total GULP energy -200436.879506 kJ/mol
# GULP energy per Si atom -5567.691097 kJ/mol
# Density = 2.178824 g / cm^3
# Si number density = 21.837944 Si / 1000 Ang^3
#
#
#
# Elastic Constant Matrix: (Units=GPa)
#
#
# Indices 1 2 3 4 5 6 
#
# 1 126.3998 45.2373 52.3138 0.0000 0.0000 0.0000
# 2 45.2373 126.3998 52.3138 0.0000 0.0000 0.0000
# 3 52.3138 52.3138 133.7744 0.0000 0.0000 0.0000
# 4 0.0000 0.0000 0.0000 48.9359 0.0000 0.0000
# 5 0.0000 0.0000 0.0000 0.0000 48.9359 0.0000
# 6 0.0000 0.0000 0.0000 0.0000 0.0000 146.5726
#
#
#
# Elastic Compliance Matrix: (Units=1/GPa)
#
#
# Indices 1 2 3 4 5 6 
#
# 1 0.009985 -0.002336 -0.002992 0.000000 0.000000 0.000000
# 2 -0.002336 0.009985 -0.002992 0.000000 0.000000 0.000000
# 3 -0.002992 -0.002992 0.009815 0.000000 0.000000 0.000000
# 4 0.000000 0.000000 0.000000 0.020435 0.000000 0.000000
# 5 0.000000 0.000000 0.000000 0.000000 0.020435 0.000000
# 6 0.000000 0.000000 0.000000 0.000000 0.000000 0.006823
#
#
# Mechanical properties :
#
#
# Convention : Reuss Voigt Hill
#
# Bulk Modulus (GPa) = 76.05414 76.25597 76.15506
# Shear Modulus (GPa) = 50.76228 64.66950 57.71589
#
# Velocity S-wave (km/s) = 4.82654 5.44772 5.14651
# Velocity P-wave (km/s) = 8.12175 8.63510 8.38236
#
# Compressibility (1/GPa) = 0.01314853
#
# Stress axis : x y z
#
# Youngs Moduli (GPa) = 100.14609 100.14609 101.88463
#
# Poissons Ratio (x) = 0.23390 0.30479
# Poissons Ratio (y) = 0.23390 0.30479
# Poissons Ratio (z) = 0.29959 0.29959
#
# Static dielectric constant tensor:
#      x y z
#    x 1.664620 0.000000 0.000000 
#    y 0.000000 1.664620 0.000000 
#    z 0.000000 0.000000 1.727920 
# 
# From -- ./inp_files/491.got.cif
#   From: 2010.05.17/outbox.cif.g08.bks.cpg/sg93_1_cif.got.tgz:491.got - 2010.06.03 19:38:44.
