data_PCOD9549227
_publ_section_title
;
Structure prediction by ZEFSAII (Michael W. Deem and Ramdas Pophale) SiO2 
 PCOD9549227
Probable space group: P 41 21 2
;
_chemical_formula_sum "Si O2"
_cell_formula_units_Z 40
_cell_length_a 8.622039
_cell_length_b 8.622039
_cell_length_c 22.908615
_cell_angle_alpha 90.000000
_cell_angle_beta 90.000000
_cell_angle_gamma 90.000000
_cell_volume 1703.016280
_symmetry_space_group_name_H-M "P 41 21 2"
_symmetry_group_IT_number 92
_symmetry_cell_setting 'tetragonal'
loop_
_space_group_symop_operation_xyz
x,y,z
1/2-y,1/2+x,1/4+z
-x,-y,1/2+z
1/2+y,1/2-x,3/4+z
1/2+x,1/2-y,3/4-z
1/2-x,1/2+y,1/4-z
y,x,-z
-y,-x,1/2-z
loop_
_atom_site_type_symbol
_atom_site_label
_atom_site_fract_x
_atom_site_fract_y
_atom_site_fract_z
Si Si1 0.163936 0.810142 0.565372
Si Si2 0.945542 0.819051 0.244267
Si Si3 0.417763 0.174922 0.123837
Si Si4 0.645059 0.865685 0.409768
Si Si5 0.192363 0.183964 0.564287
O O1 0.267671 0.721541 0.517086
O O2 0.183926 0.996025 0.564599
O O3 0.212398 0.749975 0.630508
O O4 0.989463 0.751340 0.557834
O O5 0.034779 0.727483 0.295181
O O6 0.016458 0.750295 0.184802
O O7 0.003985 0.996016 0.250000
O O8 0.437477 0.990541 0.120109
O O9 0.243919 0.238901 0.125392
O O10 0.520823 0.246044 0.175023
O O11 0.239405 0.239405 0.500000
#
# Coordination Sequence:
#
# PCOD9549227 Si02
#       5
#     8   8   8   8   8
#     4  11  23  42  68  97 131 174 224 281 338 401
#     4   9  21  40  59  86 126 164 206 259 323 396
#     4  10  22  40  60  91 127 166 217 261 321 404
#     4  11  22  40  65  92 127 170 216 272 329 392
#     4  11  24  44  65  94 134 170 217 277 337 403
#
# _framework density 23.487739000000001
#
# number of rings (size 3 to 8) (size 9 to 14) (size 15 to 20)
#    0.000    1.600    0.000    4.800    0.000    5.600 
#    0.000   29.000    0.000    0.000    0.000    0.000 
#    0.000    0.000    0.000    0.000    0.000    0.000 
#
# Total GULP energy -223474.070303 kJ/mol
# GULP energy per Si atom -5586.851758 kJ/mol
# Density = 2.343428 g / cm^3
# Si number density = 23.487739 Si / 1000 Ang^3
#
#
#
# Elastic Constant Matrix: (Units=GPa)
#
#
# Indices 1 2 3 4 5 6 
#
# 1 60.2463 49.9564 -3.3373 0.0000 0.0000 0.0000
# 2 49.9564 60.2459 -3.3363 0.0000 0.0000 0.0000
# 3 -3.3373 -3.3363 84.0696 0.0000 0.0000 0.0000
# 4 0.0000 0.0000 0.0000 18.0959 0.0000 0.0000
# 5 0.0000 0.0000 0.0000 0.0000 18.0971 0.0000
# 6 0.0000 0.0000 0.0000 0.0000 0.0000 34.0474
#
#
#
# Elastic Compliance Matrix: (Units=1/GPa)
#
#
# Indices 1 2 3 4 5 6 
#
# 1 0.053140 -0.044044 0.000362 0.000000 0.000000 0.000000
# 2 -0.044044 0.053140 0.000360 0.000000 0.000000 0.000000
# 3 0.000362 0.000360 0.011924 0.000000 0.000000 0.000000
# 4 0.000000 0.000000 0.000000 0.055261 0.000000 0.000000
# 5 0.000000 0.000000 0.000000 0.000000 0.055257 0.000000
# 6 0.000000 0.000000 0.000000 0.000000 0.000000 0.029371
#
#
# Mechanical properties :
#
#
# Convention : Reuss Voigt Hill
#
# Bulk Modulus (GPa) = 31.68587 32.34750 32.01669
# Shear Modulus (GPa) = 14.07431 24.80002 19.43717
#
# Velocity S-wave (km/s) = 2.45055 3.25294 2.87983
# Velocity P-wave (km/s) = 4.63968 5.28307 4.97179
#
# Compressibility (1/GPa) = 0.03155981
#
# Stress axis : x y z
#
# Youngs Moduli (GPa) = 18.81822 18.81811 83.86755
#
# Poissons Ratio (x) = 0.82883 -0.03033
# Poissons Ratio (y) = 0.82883 -0.03023
# Poissons Ratio (z) = -0.00680 -0.00678
#
# Static dielectric constant tensor:
#      x y z
#    x 1.990170 0.000000 0.000000 
#    y 0.000000 1.990170 0.000000 
#    z 0.000000 0.000000 1.920270 
# 
# From -- ./inp_files/3755.got.cif
#   From: 2010.05.17/outbox.cif.g08.bks.cpg/sg92_2_cif.got.tgz:3755.got - 2010.06.03 19:35:17.
