data_PCOD9549054
_publ_section_title
;
Structure prediction by ZEFSAII (Michael W. Deem and Ramdas Pophale) SiO2 
 PCOD9549054
Probable space group: P 41 21 2
;
_chemical_formula_sum "Si O2"
_cell_formula_units_Z 56
_cell_length_a 15.519099
_cell_length_b 15.519099
_cell_length_c 11.367582
_cell_angle_alpha 90.000000
_cell_angle_beta 90.000000
_cell_angle_gamma 90.000000
_cell_volume 2737.796115
_symmetry_space_group_name_H-M "P 41 21 2"
_symmetry_group_IT_number 92
_symmetry_cell_setting 'tetragonal'
loop_
_space_group_symop_operation_xyz
x,y,z
1/2-y,1/2+x,1/4+z
-x,-y,1/2+z
1/2+y,1/2-x,3/4+z
1/2+x,1/2-y,3/4-z
1/2-x,1/2+y,1/4-z
y,x,-z
-y,-x,1/2-z
loop_
_atom_site_type_symbol
_atom_site_label
_atom_site_fract_x
_atom_site_fract_y
_atom_site_fract_z
Si Si1 0.505633 0.363640 0.989176
Si Si2 0.130775 0.628634 0.910138
Si Si3 0.855657 0.671841 0.560048
Si Si4 0.952580 0.296200 0.624116
Si Si5 0.712997 0.164800 0.323479
Si Si6 0.805828 0.818168 0.247305
Si Si7 0.730809 0.039680 0.529860
O O1 0.608518 0.374945 0.989839
O O2 0.478967 0.307832 0.872783
O O3 0.448782 0.448782 0.000000
O O4 0.483560 0.300101 0.098539
O O5 0.139474 0.526051 0.923843
O O6 0.120548 0.653686 0.774309
O O7 0.062454 0.676391 0.991095
O O8 0.223613 0.662578 0.957269
O O9 0.807435 0.635969 0.445465
O O10 0.819047 0.753310 0.631173
O O11 0.842470 0.592374 0.649807
O O12 0.950928 0.694961 0.519843
O O13 0.786990 0.213011 0.250000
O O14 0.659186 0.237512 0.394967
O O15 0.752940 0.101153 0.420156
#
# Coordination Sequence:
#
# PCOD9549054 Si02
#       7
#     8   8   8   8   8   8   8
#     4  10  22  37  64  96 119 149 214 275 319 359
#     4  10  21  37  56  90 123 166 210 246 310 371
#     4  10  20  39  63  88 125 159 209 252 308 377
#     4  10  21  35  58  92 121 162 205 254 307 372
#     4   9  20  39  63  82 118 172 206 240 308 385
#     4   9  20  39  64  84 120 164 210 256 320 375
#     4  10  22  39  60  97 121 163 208 255 309 380
#
# _framework density 20.454408999999998
#
# number of rings (size 3 to 8) (size 9 to 14) (size 15 to 20)
#    0.000    2.286    0.000    2.571    8.000    4.000 
#    7.714    0.714   15.714    0.000    0.000    0.000 
#    0.000    0.000    0.000    0.000    0.000    0.000 
#
# Total GULP energy -312341.214314 kJ/mol
# GULP energy per Si atom -5577.521684 kJ/mol
# Density = 2.040785 g / cm^3
# Si number density = 20.454409 Si / 1000 Ang^3
#
#
#
# Elastic Constant Matrix: (Units=GPa)
#
#
# Indices 1 2 3 4 5 6 
#
# 1 56.1132 26.2623 35.3095 0.0000 0.0000 0.0000
# 2 26.2623 56.1133 35.3095 0.0000 0.0000 0.0000
# 3 35.3095 35.3095 119.7024 0.0000 0.0000 0.0000
# 4 0.0000 0.0000 0.0000 16.9370 0.0000 0.0000
# 5 0.0000 0.0000 0.0000 0.0000 16.9369 0.0000
# 6 0.0000 0.0000 0.0000 0.0000 0.0000 6.1578
#
#
#
# Elastic Compliance Matrix: (Units=1/GPa)
#
#
# Indices 1 2 3 4 5 6 
#
# 1 0.024874 -0.008626 -0.004793 0.000000 0.000000 0.000000
# 2 -0.008626 0.024874 -0.004793 0.000000 0.000000 0.000000
# 3 -0.004793 -0.004793 0.011182 0.000000 0.000000 0.000000
# 4 0.000000 0.000000 0.000000 0.059042 0.000000 0.000000
# 5 0.000000 0.000000 0.000000 0.000000 0.059043 0.000000
# 6 0.000000 0.000000 0.000000 0.000000 0.000000 0.162395
#
#
# Mechanical properties :
#
#
# Convention : Reuss Voigt Hill
#
# Bulk Modulus (GPa) = 40.80500 47.29905 44.05202
# Shear Modulus (GPa) = 12.95332 17.00952 14.98142
#
# Velocity S-wave (km/s) = 2.51923 2.88684 2.70928
# Velocity P-wave (km/s) = 5.33428 5.85544 5.60093
#
# Compressibility (1/GPa) = 0.02450680
#
# Stress axis : x y z
#
# Youngs Moduli (GPa) = 40.20244 40.20258 89.43218
#
# Poissons Ratio (x) = 0.34677 0.42864
# Poissons Ratio (y) = 0.34677 0.42864
# Poissons Ratio (z) = 0.19269 0.19269
#
# Static dielectric constant tensor:
#      x y z
#    x 1.736860 0.000000 0.000000 
#    y 0.000000 1.736860 0.000000 
#    z 0.000000 0.000000 1.773890 
# 
# From -- ./inp_files/2285.got.cif
#   From: 2010.05.17/outbox.cif.g08.bks.cpg/sg92_2_cif.got.tgz:2285.got - 2010.06.03 19:35:17.
