data_PCOD9549781
_publ_section_title
;
Structure prediction by ZEFSAII (Michael W. Deem and Ramdas Pophale) SiO2 
 PCOD9549781
Probable space group: P 42 2 2
;
_chemical_formula_sum "Si O2"
_cell_formula_units_Z 54
_cell_length_a 14.540548
_cell_length_b 14.540548
_cell_length_c 12.182452
_cell_angle_alpha 90.000000
_cell_angle_beta 90.000000
_cell_angle_gamma 90.000000
_cell_volume 2575.705811
_symmetry_space_group_name_H-M "P 42 2 2"
_symmetry_group_IT_number 93
_symmetry_cell_setting 'tetragonal'
loop_
_space_group_symop_operation_xyz
x,y,z
-y,x,1/2+z
-x,-y,z
y,-x,1/2+z
x,-y,-z
-x,y,-z
y,x,1/2-z
-y,-x,1/2-z
loop_
_atom_site_type_symbol
_atom_site_label
_atom_site_fract_x
_atom_site_fract_y
_atom_site_fract_z
Si Si1 0.545312 0.292405 0.118677
Si Si2 0.372765 0.273919 0.550298
Si Si3 0.753868 0.000000 0.500000
Si Si4 0.239226 0.552862 0.820844
Si Si5 0.000000 0.500000 0.500000
Si Si6 0.037219 0.601491 0.829661
Si Si7 0.354882 0.895594 0.143623
Si Si8 0.815421 0.175445 0.381523
O O1 0.621444 0.370128 0.095729
O O2 0.470847 0.301609 0.215542
O O3 0.608050 0.207354 0.161362
O O4 0.500000 0.272824 0.000000
O O5 0.380392 0.274908 0.417767
O O6 0.459524 0.227142 0.608212
O O7 0.283274 0.218456 0.587001
O O8 0.680176 0.049556 0.579808
O O9 0.814901 0.076159 0.437923
O O10 0.138407 0.584210 0.779700
O O11 0.061405 0.433313 0.570349
O O12 0.000000 0.500000 0.864660
O O13 0.960421 0.643595 0.749375
O O14 0.255389 0.887859 0.086860
O O15 0.827283 0.172718 0.250000
#
# Coordination Sequence:
#
# PCOD9549781 Si02
#       8
#     8   8   4   8   2   8   8   8
#     4  11  22  39  59  85 124 182 232 287 359 445
#     4  10  22  37  59  89 129 177 229 287 373 432
#     4  12  23  36  62  97 142 190 238 286 367 451
#     4  11  21  37  57  89 127 170 226 296 351 436
#     4  12  20  40  64  96 128 170 224 276 360 436
#     4  12  21  33  57  98 131 174 225 296 371 431
#     4  11  22  36  61  92 133 175 222 286 360 433
#     4  11  21  38  59  95 140 184 228 289 362 442
#
# _framework density 20.965126999999999
#
# number of rings (size 3 to 8) (size 9 to 14) (size 15 to 20)
#    0.000    0.889    5.926    3.333    2.074    0.593 
#    0.000    1.481    0.000    4.889    0.000    1.037 
#    0.000    0.000    0.000    0.000    0.000    0.296 
#
# Total GULP energy -301242.345878 kJ/mol
# GULP energy per Si atom -5578.561961 kJ/mol
# Density = 2.091741 g / cm^3
# Si number density = 20.965127 Si / 1000 Ang^3
#
#
#
# Elastic Constant Matrix: (Units=GPa)
#
#
# Indices 1 2 3 4 5 6 
#
# 1 83.1597 41.5755 35.2836 0.0000 0.0000 0.0000
# 2 41.5755 83.1596 35.2837 0.0000 0.0000 0.0000
# 3 35.2836 35.2837 118.3296 0.0000 0.0000 0.0000
# 4 0.0000 0.0000 0.0000 31.1907 0.0000 0.0000
# 5 0.0000 0.0000 0.0000 0.0000 31.1908 0.0000
# 6 0.0000 0.0000 0.0000 0.0000 0.0000 39.0519
#
#
#
# Elastic Compliance Matrix: (Units=1/GPa)
#
#
# Indices 1 2 3 4 5 6 
#
# 1 0.016846 -0.007202 -0.002876 0.000000 0.000000 0.000000
# 2 -0.007202 0.016846 -0.002876 0.000000 0.000000 0.000000
# 3 -0.002876 -0.002876 0.010166 0.000000 0.000000 0.000000
# 4 0.000000 0.000000 0.000000 0.032061 0.000000 0.000000
# 5 0.000000 0.000000 0.000000 0.000000 0.032061 0.000000
# 6 0.000000 0.000000 0.000000 0.000000 0.000000 0.025607
#
#
# Mechanical properties :
#
#
# Convention : Reuss Voigt Hill
#
# Bulk Modulus (GPa) = 55.70691 56.54828 56.12759
# Shear Modulus (GPa) = 30.21589 31.78708 31.00148
#
# Velocity S-wave (km/s) = 3.80049 3.89805 3.84958
# Velocity P-wave (km/s) = 6.77401 6.87683 6.82562
#
# Compressibility (1/GPa) = 0.01795110
#
# Stress axis : x y z
#
# Youngs Moduli (GPa) = 59.36225 59.36212 98.36834
#
# Poissons Ratio (x) = 0.42752 0.28287
# Poissons Ratio (y) = 0.42752 0.28287
# Poissons Ratio (z) = 0.17070 0.17070
#
# Static dielectric constant tensor:
#      x y z
#    x 1.782860 0.000000 0.000000 
#    y 0.000000 1.782860 0.000000 
#    z 0.000000 0.000000 1.809470 
# 
# From -- ./inp_files/3514.got.cif
#   From: 2010.05.17/outbox.cif.g08.bks.cpg/sg93_2_cif.got.tgz:3514.got - 2010.06.03 19:38:44.
