data_PCOD9549952
_publ_section_title
;
Structure prediction by ZEFSAII (Michael W. Deem and Ramdas Pophale) SiO2 
 PCOD9549952
Probable space group: P 42 21 2
;
_chemical_formula_sum "Si O2"
_cell_formula_units_Z 64
_cell_length_a 21.422086
_cell_length_b 21.422086
_cell_length_c 8.442688
_cell_angle_alpha 90.000000
_cell_angle_beta 90.000000
_cell_angle_gamma 90.000000
_cell_volume 3874.398226
_symmetry_space_group_name_H-M "P 42 21 2"
_symmetry_group_IT_number 94
_symmetry_cell_setting 'tetragonal'
loop_
_space_group_symop_operation_xyz
x,y,z
1/2-y,1/2+x,1/2+z
-x,-y,z
1/2+y,1/2-x,1/2+z
1/2+x,1/2-y,1/2-z
1/2-x,1/2+y,1/2-z
y,x,-z
-y,-x,-z
loop_
_atom_site_type_symbol
_atom_site_label
_atom_site_fract_x
_atom_site_fract_y
_atom_site_fract_z
Si Si1 0.549107 0.887517 0.527645
Si Si2 0.376925 0.715985 0.940570
Si Si3 0.208807 0.621602 0.358564
Si Si4 0.126188 0.522529 0.161363
Si Si5 0.834552 0.668496 0.351880
Si Si6 0.257687 0.845307 0.463100
Si Si7 0.255999 0.986707 0.539129
Si Si8 0.697650 0.956116 0.845400
O O1 0.572990 0.949548 0.446727
O O2 0.523183 0.896477 0.703059
O O3 0.606911 0.838920 0.541242
O O4 0.496554 0.856641 0.421152
O O5 0.363370 0.734198 0.758790
O O6 0.348659 0.651342 0.000000
O O7 0.340300 0.769243 0.043084
O O8 0.451562 0.721064 0.970910
O O9 0.161539 0.579579 0.252603
O O10 0.174317 0.682354 0.428638
O O11 0.230143 0.578718 0.506678
O O12 0.176486 0.490918 0.046512
O O13 0.781501 0.663154 0.218736
O O14 0.900520 0.669852 0.259544
O O15 0.202961 0.797039 0.500000
O O16 0.236178 0.916244 0.499724
O O17 0.262883 0.001223 0.725747
#
# Coordination Sequence:
#
# PCOD9549952 Si02
#       8
#     8   8   8   8   8   8   8   8
#     4  11  18  34  50  69  97 139 181 211 253 293
#     4  10  19  34  54  79 104 133 175 220 265 320
#     4   9  18  32  52  77 100 136 174 216 268 302
#     4  10  19  33  53  68  98 141 178 218 253 305
#     4  10  19  34  51  73 102 135 173 215 261 305
#     4  11  21  33  53  78 107 136 170 222 270 320
#     4  10  19  33  52  72 101 139 169 211 275 313
#     4   9  19  31  51  70 101 141 171 209 253 310
#
# _framework density 16.518695000000001
#
# number of rings (size 3 to 8) (size 9 to 14) (size 15 to 20)
#    0.000    2.000    5.000    1.500    0.000    0.000 
#    0.000    1.875    0.000    0.375    0.000    0.000 
#    0.000    0.000    8.500    0.000    0.000    0.000 
#
# Total GULP energy -356744.606976 kJ/mol
# GULP energy per Si atom -5574.134484 kJ/mol
# Density = 1.648110 g / cm^3
# Si number density = 16.518695 Si / 1000 Ang^3
#
#
#
# Elastic Constant Matrix: (Units=GPa)
#
#
# Indices 1 2 3 4 5 6 
#
# 1 45.5231 34.0551 17.6042 0.0000 0.0000 0.0000
# 2 34.0551 45.5306 17.6069 0.0000 0.0000 0.0000
# 3 17.6042 17.6069 75.9665 0.0000 0.0000 0.0000
# 4 0.0000 0.0000 0.0000 14.1009 0.0000 0.0000
# 5 0.0000 0.0000 0.0000 0.0000 14.0998 0.0000
# 6 0.0000 0.0000 0.0000 0.0000 0.0000 14.0299
#
#
#
# Elastic Compliance Matrix: (Units=1/GPa)
#
#
# Indices 1 2 3 4 5 6 
#
# 1 0.050590 -0.036585 -0.003244 0.000000 0.000000 0.000000
# 2 -0.036585 0.050582 -0.003245 0.000000 0.000000 0.000000
# 3 -0.003244 -0.003245 0.014668 0.000000 0.000000 0.000000
# 4 0.000000 0.000000 0.000000 0.070918 0.000000 0.000000
# 5 0.000000 0.000000 0.000000 0.000000 0.070923 0.000000
# 6 0.000000 0.000000 0.000000 0.000000 0.000000 0.071276
#
#
# Mechanical properties :
#
#
# Convention : Reuss Voigt Hill
#
# Bulk Modulus (GPa) = 33.68031 33.95030 33.81530
# Shear Modulus (GPa) = 11.76463 14.96305 13.36384
#
# Velocity S-wave (km/s) = 2.67160 3.01296 2.84740
# Velocity P-wave (km/s) = 5.47267 5.71849 5.59693
#
# Compressibility (1/GPa) = 0.02969094
#
# Stress axis : x y z
#
# Youngs Moduli (GPa) = 19.76680 19.76980 68.17693
#
# Poissons Ratio (x) = 0.72327 0.22118
# Poissons Ratio (y) = 0.72316 0.22127
# Poissons Ratio (z) = 0.06413 0.06416
#
# Static dielectric constant tensor:
#      x y z
#    x 1.565740 0.000000 0.000000 
#    y 0.000000 1.565740 0.000000 
#    z 0.000000 0.000000 1.597220 
# 
# From -- ./inp_files/1801.got.cif
#   From: 2010.05.17/outbox.cif.g08.bks.cpg/sg94_1_cif.got.tgz:1801.got - 2010.06.03 19:43:16.
