data_PCOD9549395
_publ_section_title
;
Structure prediction by ZEFSAII (Michael W. Deem and Ramdas Pophale) SiO2 
 PCOD9549395
Probable space group: P 41 21 2
;
_chemical_formula_sum "Si O2"
_cell_formula_units_Z 32
_cell_length_a 7.020414
_cell_length_b 7.020414
_cell_length_c 26.222002
_cell_angle_alpha 90.000000
_cell_angle_beta 90.000000
_cell_angle_gamma 90.000000
_cell_volume 1292.383169
_symmetry_space_group_name_H-M "P 41 21 2"
_symmetry_group_IT_number 92
_symmetry_cell_setting 'tetragonal'
loop_
_space_group_symop_operation_xyz
x,y,z
1/2-y,1/2+x,1/4+z
-x,-y,1/2+z
1/2+y,1/2-x,3/4+z
1/2+x,1/2-y,3/4-z
1/2-x,1/2+y,1/4-z
y,x,-z
-y,-x,1/2-z
loop_
_atom_site_type_symbol
_atom_site_label
_atom_site_fract_x
_atom_site_fract_y
_atom_site_fract_z
Si Si1 0.333876 0.936894 0.991555
Si Si2 0.887478 0.441590 0.343640
Si Si3 0.069411 0.042010 0.078570
Si Si4 0.236864 0.480752 0.419257
O O1 0.436628 0.774063 0.024263
O O2 0.240076 0.051645 0.038193
O O3 0.493316 0.022207 0.954574
O O4 0.157460 0.903164 0.952361
O O5 0.029042 0.455886 0.392102
O O6 0.850386 0.216956 0.333659
O O7 0.173875 0.979352 0.408485
O O8 0.115061 0.149651 0.130253
#
# Coordination Sequence:
#
# PCOD9549395 Si02
#       4
#     8   8   8   8
#     4  10  25  41  71 102 141 189 237 295 360 430
#     4  11  23  44  75 103 143 191 237 302 366 424
#     4  10  24  47  64 103 151 180 244 303 357 436
#     4  11  23  43  73 109 140 192 244 295 366 435
#
# _framework density 24.760460999999999
#
# number of rings (size 3 to 8) (size 9 to 14) (size 15 to 20)
#    0.000    1.500    2.500    0.750   10.500    0.000 
#    0.000    0.000    5.500    0.000    0.000    0.000 
#    0.000    0.000    0.000    0.000    0.000    0.000 
#
# Total GULP energy -178570.408481 kJ/mol
# GULP energy per Si atom -5580.325265 kJ/mol
# Density = 2.470410 g / cm^3
# Si number density = 24.760461 Si / 1000 Ang^3
#
#
#
# Elastic Constant Matrix: (Units=GPa)
#
#
# Indices 1 2 3 4 5 6 
#
# 1 102.6787 35.5294 33.1168 0.0000 0.0000 0.0000
# 2 35.5294 102.6787 33.1168 0.0000 0.0000 0.0000
# 3 33.1168 33.1168 113.3469 0.0000 0.0000 0.0000
# 4 0.0000 0.0000 0.0000 35.2165 0.0000 0.0000
# 5 0.0000 0.0000 0.0000 0.0000 35.2165 0.0000
# 6 0.0000 0.0000 0.0000 0.0000 0.0000 12.1390
#
#
#
# Elastic Compliance Matrix: (Units=1/GPa)
#
#
# Indices 1 2 3 4 5 6 
#
# 1 0.011653 -0.003239 -0.002458 0.000000 0.000000 0.000000
# 2 -0.003239 0.011653 -0.002458 0.000000 0.000000 0.000000
# 3 -0.002458 -0.002458 0.010259 0.000000 0.000000 0.000000
# 4 0.000000 0.000000 0.000000 0.028396 0.000000 0.000000
# 5 0.000000 0.000000 0.000000 0.000000 0.028396 0.000000
# 6 0.000000 0.000000 0.000000 0.000000 0.000000 0.082379
#
#
# Mechanical properties :
#
#
# Convention : Reuss Voigt Hill
#
# Bulk Modulus (GPa) = 57.96042 58.02558 57.99300
# Shear Modulus (GPa) = 25.66761 30.97716 28.32239
#
# Velocity S-wave (km/s) = 3.22318 3.54089 3.38576
# Velocity P-wave (km/s) = 6.10828 6.34057 6.22551
#
# Compressibility (1/GPa) = 0.01725315
#
# Stress axis : x y z
#
# Youngs Moduli (GPa) = 85.81590 85.81590 97.47628
#
# Poissons Ratio (x) = 0.27799 0.23962
# Poissons Ratio (y) = 0.27799 0.23962
# Poissons Ratio (z) = 0.21095 0.21095
#
# Static dielectric constant tensor:
#      x y z
#    x 2.068190 0.000000 0.000000 
#    y 0.000000 2.068190 0.000000 
#    z 0.000000 0.000000 1.951620 
# 
# From -- ./inp_files/4042.got.cif
#   From: 2010.05.17/outbox.cif.g08.bks.cpg/sg92_3_cif.got.tgz:4042.got - 2010.06.03 19:35:17.
