data_PCOD9549744
_publ_section_title
;
Structure prediction by ZEFSAII (Michael W. Deem and Ramdas Pophale) SiO2 
 PCOD9549744
Probable space group: P 42 2 2
;
_chemical_formula_sum "Si O2"
_cell_formula_units_Z 40
_cell_length_a 11.142777
_cell_length_b 11.142777
_cell_length_c 14.573568
_cell_angle_alpha 90.000000
_cell_angle_beta 90.000000
_cell_angle_gamma 90.000000
_cell_volume 1809.475761
_symmetry_space_group_name_H-M "P 42 2 2"
_symmetry_group_IT_number 93
_symmetry_cell_setting 'tetragonal'
loop_
_space_group_symop_operation_xyz
x,y,z
-y,x,1/2+z
-x,-y,z
y,-x,1/2+z
x,-y,-z
-x,y,-z
y,x,1/2-z
-y,-x,1/2-z
loop_
_atom_site_type_symbol
_atom_site_label
_atom_site_fract_x
_atom_site_fract_y
_atom_site_fract_z
Si Si1 0.010916 0.860779 0.610079
Si Si2 0.805998 0.249216 0.157872
Si Si3 0.293478 0.364146 0.024655
Si Si4 0.200259 0.332398 0.326018
Si Si5 0.941099 0.380095 0.844506
O O1 0.893512 0.799992 0.649631
O O2 0.000000 0.855242 0.500000
O O3 0.126048 0.787738 0.644314
O O4 0.000000 0.000000 0.636702
O O5 0.729904 0.270097 0.250000
O O6 0.947704 0.286539 0.155968
O O7 0.743445 0.306780 0.071045
O O8 0.376934 0.273587 0.085112
O O9 0.171705 0.362767 0.087473
O O10 0.332414 0.500000 0.000000
O O11 0.298408 0.298408 0.250000
O O12 0.106782 0.401076 0.259945
O O13 0.000000 0.500000 0.879824
#
# Coordination Sequence:
#
# PCOD9549744 Si02
#       5
#     8   8   8   8   8
#     4  11  21  31  48  75 123 168 203 237 311 396
#     4  12  23  34  55  87 128 171 213 262 325 400
#     4  11  22  38  61  91 128 175 226 270 317 398
#     4  10  21  36  55  87 129 167 209 263 331 386
#     4  11  22  37  61  94 126 166 221 281 331 395
#
# _framework density 22.10585
#
# number of rings (size 3 to 8) (size 9 to 14) (size 15 to 20)
#    0.000    1.000    6.000    3.000    2.800    0.000 
#    0.000    0.000    0.000    5.400    0.000    4.200 
#    0.000    0.000    0.000    0.000    0.000    0.000 
#
# Total GULP energy -222924.760370 kJ/mol
# GULP energy per Si atom -5573.119009 kJ/mol
# Density = 2.205554 g / cm^3
# Si number density = 22.105850 Si / 1000 Ang^3
#
#
#
# Elastic Constant Matrix: (Units=GPa)
#
#
# Indices 1 2 3 4 5 6 
#
# 1 33.6463 -3.5191 14.4777 0.0000 0.0000 0.0000
# 2 -3.5191 33.6460 14.4775 0.0000 0.0000 0.0000
# 3 14.4777 14.4775 162.0398 0.0000 0.0000 0.0000
# 4 0.0000 0.0000 0.0000 -9.6298 0.0000 0.0000
# 5 0.0000 0.0000 0.0000 0.0000 -9.6265 0.0000
# 6 0.0000 0.0000 0.0000 0.0000 0.0000 10.3041
#
#
#
# Elastic Compliance Matrix: (Units=1/GPa)
#
#
# Indices 1 2 3 4 5 6 
#
# 1 0.031609 0.004702 -0.003244 0.000000 0.000000 0.000000
# 2 0.004702 0.031609 -0.003244 0.000000 0.000000 0.000000
# 3 -0.003244 -0.003244 0.006751 0.000000 0.000000 0.000000
# 4 0.000000 0.000000 0.000000 -0.103844 0.000000 0.000000
# 5 0.000000 0.000000 0.000000 0.000000 -0.103880 0.000000
# 6 0.000000 0.000000 0.000000 0.000000 0.000000 0.097048
#
#
# Mechanical properties :
#
#
# Convention : Reuss Voigt Hill
#
# Bulk Modulus (GPa) = 15.06124 31.13383 23.09754
# Shear Modulus (GPa) = -333.28598 11.80263 -160.74168
#
# Velocity S-wave (km/s) = -12.29209 2.31317 -8.53653
# Velocity P-wave (km/s) = 13.95108 4.60965 9.31085
#
# Compressibility (1/GPa) = 0.06639561
#
# Stress axis : x y z
#
# Youngs Moduli (GPa) = 31.63686 31.63665 148.12535
#
# Poissons Ratio (x) = -0.14875 0.48055
# Poissons Ratio (y) = -0.14875 0.48055
# Poissons Ratio (z) = 0.10264 0.10264
#
# Static dielectric constant tensor:
#      x y z
#    x 1.884690 0.000000 0.000000 
#    y 0.000000 1.884690 0.000000 
#    z 0.000000 0.000000 1.919390 
# 
# From -- ./inp_files/4353.got.cif
#   From: 2010.05.17/outbox.cif.g08.bks.cpg/sg93_3_cif.got.tgz:4353.got - 2010.06.03 19:38:44.
