data_PCOD9549838
_publ_section_title
;
Structure prediction by ZEFSAII (Michael W. Deem and Ramdas Pophale) SiO2 
 PCOD9549838
Probable space group: P 42 2 2
;
_chemical_formula_sum "Si O2"
_cell_formula_units_Z 20
_cell_length_a 5.110702
_cell_length_b 5.110702
_cell_length_c 33.281703
_cell_angle_alpha 90.000000
_cell_angle_beta 90.000000
_cell_angle_gamma 90.000000
_cell_volume 869.293951
_symmetry_space_group_name_H-M "P 42 2 2"
_symmetry_group_IT_number 93
_symmetry_cell_setting 'tetragonal'
loop_
_space_group_symop_operation_xyz
x,y,z
-y,x,1/2+z
-x,-y,z
y,-x,1/2+z
x,-y,-z
-x,y,-z
y,x,1/2-z
-y,-x,1/2-z
loop_
_atom_site_type_symbol
_atom_site_label
_atom_site_fract_x
_atom_site_fract_y
_atom_site_fract_z
Si Si1 0.828748 0.263127 0.065365
Si Si2 0.000000 0.000000 0.250000
Si Si3 0.500000 0.500000 0.000000
Si Si4 0.500000 0.500000 0.137083
Si Si5 0.000000 0.500000 0.307463
O O1 0.716266 0.370937 0.107571
O O2 0.000000 0.500000 0.048752
O O3 0.604246 0.283967 0.032610
O O4 0.000000 0.000000 0.068911
O O5 0.023425 0.749681 0.278791
O O6 0.564454 0.746589 0.165182
#
# Coordination Sequence:
#
# PCOD9549838 Si02
#       5
#     8   2   2   4   4
#     4  11  25  45  72 106 144 198 246 315 378 450
#     4  12  28  48  76 116 150 200 244 306 388 458
#     4  10  26  46  68 110 148 192 262 308 392 460
#     4  11  26  44  76 109 146 194 252 307 372 456
#     4  12  26  48  76 111 156 194 252 309 378 464
#
# _framework density 23.007180999999999
#
# number of rings (size 3 to 8) (size 9 to 14) (size 15 to 20)
#    0.000    0.800    0.000    5.400    8.400    9.600 
#    0.000    0.000    0.000    0.000    0.000    0.000 
#    0.000    0.000    0.000    0.000    0.000    0.000 
#
# Total GULP energy -111490.266054 kJ/mol
# GULP energy per Si atom -5574.513303 kJ/mol
# Density = 2.295482 g / cm^3
# Si number density = 23.007181 Si / 1000 Ang^3
#
#
#
# Elastic Constant Matrix: (Units=GPa)
#
#
# Indices 1 2 3 4 5 6 
#
# 1 165.1335 55.4834 76.1453 0.0000 0.0000 0.0000
# 2 55.4834 165.1335 76.1453 0.0000 0.0000 0.0000
# 3 76.1453 76.1453 186.1943 0.0000 0.0000 0.0000
# 4 0.0000 0.0000 0.0000 29.2652 0.0000 0.0000
# 5 0.0000 0.0000 0.0000 0.0000 29.2652 0.0000
# 6 0.0000 0.0000 0.0000 0.0000 0.0000 47.5218
#
#
#
# Elastic Compliance Matrix: (Units=1/GPa)
#
#
# Indices 1 2 3 4 5 6 
#
# 1 0.007718 -0.001402 -0.002583 0.000000 0.000000 0.000000
# 2 -0.001402 0.007718 -0.002583 0.000000 0.000000 0.000000
# 3 -0.002583 -0.002583 0.007483 0.000000 0.000000 0.000000
# 4 0.000000 0.000000 0.000000 0.034170 0.000000 0.000000
# 5 0.000000 0.000000 0.000000 0.000000 0.034170 0.000000
# 6 0.000000 0.000000 0.000000 0.000000 0.000000 0.021043
#
#
# Mechanical properties :
#
#
# Convention : Reuss Voigt Hill
#
# Bulk Modulus (GPa) = 102.21535 103.55658 102.88596
# Shear Modulus (GPa) = 38.85033 41.78959 40.31996
#
# Velocity S-wave (km/s) = 4.11374 4.26651 4.19082
# Velocity P-wave (km/s) = 8.19072 8.32941 8.26036
#
# Compressibility (1/GPa) = 0.00978327
#
# Stress axis : x y z
#
# Youngs Moduli (GPa) = 129.57086 129.57086 133.63164
#
# Poissons Ratio (x) = 0.18168 0.34515
# Poissons Ratio (y) = 0.18168 0.34515
# Poissons Ratio (z) = 0.33466 0.33466
#
# Static dielectric constant tensor:
#      x y z
#    x 1.632050 0.000000 0.000000 
#    y 0.000000 1.632050 0.000000 
#    z 0.000000 0.000000 1.874660 
# 
# From -- ./inp_files/7040.got.cif
#   From: 2010.05.17/outbox.cif.g08.bks.cpg/sg93_4_cif.got.tgz:7040.got - 2010.06.03 19:38:44.
