data_PCOD9549194
_publ_section_title
;
Structure prediction by ZEFSAII (Michael W. Deem and Ramdas Pophale) SiO2 
 PCOD9549194
Probable space group: P 41 21 2
;
_chemical_formula_sum "Si O2"
_cell_formula_units_Z 48
_cell_length_a 11.516121
_cell_length_b 11.516121
_cell_length_c 17.486666
_cell_angle_alpha 90.000000
_cell_angle_beta 90.000000
_cell_angle_gamma 90.000000
_cell_volume 2319.099882
_symmetry_space_group_name_H-M "P 41 21 2"
_symmetry_group_IT_number 92
_symmetry_cell_setting 'tetragonal'
loop_
_space_group_symop_operation_xyz
x,y,z
1/2-y,1/2+x,1/4+z
-x,-y,1/2+z
1/2+y,1/2-x,3/4+z
1/2+x,1/2-y,3/4-z
1/2-x,1/2+y,1/4-z
y,x,-z
-y,-x,1/2-z
loop_
_atom_site_type_symbol
_atom_site_label
_atom_site_fract_x
_atom_site_fract_y
_atom_site_fract_z
Si Si1 0.769295 0.275495 0.474002
Si Si2 0.761110 0.521756 0.436432
Si Si3 0.001136 0.195080 0.511597
Si Si4 0.708422 0.432603 0.901870
Si Si5 0.495212 0.495212 0.000000
Si Si6 0.327029 0.193973 0.566797
Si Si7 0.717730 0.282271 0.750000
O O1 0.820906 0.407046 0.472061
O O2 0.870364 0.181407 0.483850
O O3 0.672832 0.264467 0.539618
O O4 0.716589 0.250252 0.391370
O O5 0.750854 0.513466 0.345499
O O6 0.629215 0.499066 0.461656
O O7 0.794962 0.649649 0.466966
O O8 0.068947 0.290603 0.462874
O O9 0.080092 0.080092 0.500000
O O10 0.797638 0.538503 0.911045
O O11 0.700509 0.373746 0.818864
O O12 0.591303 0.493463 0.933983
O O13 0.283768 0.283768 0.500000
#
# Coordination Sequence:
#
# PCOD9549194 Si02
#       7
#     8   8   8   8   4   8   4
#     4  11  24  44  70  99 139 185 237 299 361 427
#     4  10  21  45  67  98 135 183 229 293 359 430
#     4  11  23  42  71  97 132 184 233 285 363 431
#     4  11  24  45  68 103 144 182 239 301 352 427
#     4   9  22  38  70  94 135 178 228 289 346 414
#     4  11  24  41  68 102 137 178 239 294 354 427
#     4  11  24  48  68 104 143 190 238 289 380 438
#
# _framework density 20.697686000000001
#
# number of rings (size 3 to 8) (size 9 to 14) (size 15 to 20)
#    0.000    1.333    5.833    0.000    4.667    1.333 
#    9.000    0.000    0.000    0.000    0.000    0.000 
#    0.000    0.000    0.000    0.000    0.000    0.000 
#
# Total GULP energy -267711.337216 kJ/mol
# GULP energy per Si atom -5577.319525 kJ/mol
# Density = 2.065058 g / cm^3
# Si number density = 20.697686 Si / 1000 Ang^3
#
#
#
# Elastic Constant Matrix: (Units=GPa)
#
#
# Indices 1 2 3 4 5 6 
#
# 1 36.7521 83.7776 37.7874 0.0000 0.0000 0.0000
# 2 83.7776 36.7523 37.7876 0.0000 0.0000 0.0000
# 3 37.7874 37.7876 132.4825 0.0000 0.0000 0.0000
# 4 0.0000 0.0000 0.0000 19.7766 0.0000 0.0000
# 5 0.0000 0.0000 0.0000 0.0000 19.7765 0.0000
# 6 0.0000 0.0000 0.0000 0.0000 0.0000 24.4212
#
#
#
# Elastic Compliance Matrix: (Units=1/GPa)
#
#
# Indices 1 2 3 4 5 6 
#
# 1 -0.005581 0.015684 -0.002882 0.000000 0.000000 0.000000
# 2 0.015684 -0.005581 -0.002882 0.000000 0.000000 0.000000
# 3 -0.002882 -0.002882 0.009192 0.000000 0.000000 0.000000
# 4 0.000000 0.000000 0.000000 0.050565 0.000000 0.000000
# 5 0.000000 0.000000 0.000000 0.000000 0.050565 0.000000
# 6 0.000000 0.000000 0.000000 0.000000 0.000000 0.040948
#
#
# Mechanical properties :
#
#
# Convention : Reuss Voigt Hill
#
# Bulk Modulus (GPa) = 55.95302 58.29913 57.12608
# Shear Modulus (GPa) = 39.61195 15.90381 27.75788
#
# Velocity S-wave (km/s) = 4.37949 2.77498 3.66609
# Velocity P-wave (km/s) = 7.25709 6.20448 6.75133
#
# Compressibility (1/GPa) = 0.01787214
#
# Stress axis : x y z
#
# Youngs Moduli (GPa) = -179.18799 -179.18861 108.78886
#
# Poissons Ratio (x) = 2.81047 0.31351
# Poissons Ratio (y) = 2.81046 0.31351
# Poissons Ratio (z) = -0.51639 -0.51639
#
# Static dielectric constant tensor:
#      x y z
#    x 1.806640 0.000000 0.000000 
#    y 0.000000 1.806640 0.000000 
#    z 0.000000 0.000000 1.680990 
# 
# From -- ./inp_files/3185.got.cif
#   From: 2010.05.17/outbox.cif.g08.bks.cpg/sg92_2_cif.got.tgz:3185.got - 2010.06.03 19:35:17.
