data_PCOD9549616
_publ_section_title
;
Structure prediction by ZEFSAII (Michael W. Deem and Ramdas Pophale) SiO2 
 PCOD9549616
Probable space group: P 42 2 2
;
_chemical_formula_sum "Si O2"
_cell_formula_units_Z 24
_cell_length_a 11.716137
_cell_length_b 11.716137
_cell_length_c 9.251206
_cell_angle_alpha 90.000000
_cell_angle_beta 90.000000
_cell_angle_gamma 90.000000
_cell_volume 1269.893307
_symmetry_space_group_name_H-M "P 42 2 2"
_symmetry_group_IT_number 93
_symmetry_cell_setting 'tetragonal'
loop_
_space_group_symop_operation_xyz
x,y,z
-y,x,1/2+z
-x,-y,z
y,-x,1/2+z
x,-y,-z
-x,y,-z
y,x,1/2-z
-y,-x,1/2-z
loop_
_atom_site_type_symbol
_atom_site_label
_atom_site_fract_x
_atom_site_fract_y
_atom_site_fract_z
Si Si1 0.190503 0.374962 0.429736
Si Si2 0.574082 0.265662 0.616600
Si Si3 0.000000 0.000000 0.750000
Si Si4 0.000000 0.808586 0.500000
Si Si5 0.500000 0.500000 0.750000
O O1 0.176677 0.500000 0.500000
O O2 0.191876 0.393376 0.256010
O O3 0.314364 0.320318 0.454727
O O4 0.104291 0.279489 0.484153
O O5 0.500000 0.200351 0.500000
O O6 0.505062 0.379135 0.667619
O O7 0.109135 0.002328 0.858601
#
# Coordination Sequence:
#
# PCOD9549616 Si02
#       5
#     8   8   2   4   2
#     4  10  21  35  56  85 122 152 180 232 285 340
#     4  10  18  31  54  86 120 158 191 217 265 338
#     4  10  24  44  70  78 100 146 204 262 296 360
#     4  11  23  44  62  86 107 145 200 252 312 353
#     4   8  14  26  46  78 118 154 188 216 246 322
#
# _framework density 18.899225000000001
#
# number of rings (size 3 to 8) (size 9 to 14) (size 15 to 20)
#    0.000    2.333    0.000    7.000    0.000    2.667 
#    0.000    0.000    0.000    2.000    0.000    0.000 
#    0.000    0.000    0.000    0.000    0.000    0.000 
#
# Total GULP energy -133662.347501 kJ/mol
# GULP energy per Si atom -5569.264479 kJ/mol
# Density = 1.885621 g / cm^3
# Si number density = 18.899225 Si / 1000 Ang^3
#
#
#
# Elastic Constant Matrix: (Units=GPa)
#
#
# Indices 1 2 3 4 5 6 
#
# 1 100.8369 91.9185 61.9485 0.0000 0.0000 0.0000
# 2 91.9185 100.8369 61.9485 0.0000 0.0000 0.0000
# 3 61.9485 61.9485 106.8494 0.0000 0.0000 0.0000
# 4 0.0000 0.0000 0.0000 25.8487 0.0000 0.0000
# 5 0.0000 0.0000 0.0000 0.0000 25.8487 0.0000
# 6 0.0000 0.0000 0.0000 0.0000 0.0000 14.6645
#
#
#
# Elastic Compliance Matrix: (Units=1/GPa)
#
#
# Indices 1 2 3 4 5 6 
#
# 1 0.060199 -0.051929 -0.004795 0.000000 0.000000 0.000000
# 2 -0.051929 0.060199 -0.004795 0.000000 0.000000 0.000000
# 3 -0.004795 -0.004795 0.014919 0.000000 0.000000 0.000000
# 4 0.000000 0.000000 0.000000 0.038687 0.000000 0.000000
# 5 0.000000 0.000000 0.000000 0.000000 0.038687 0.000000
# 6 0.000000 0.000000 0.000000 0.000000 0.000000 0.068192
#
#
# Mechanical properties :
#
#
# Convention : Reuss Voigt Hill
#
# Bulk Modulus (GPa) = 81.43544 82.23934 81.83739
# Shear Modulus (GPa) = 12.25457 19.45291 15.85374
#
# Velocity S-wave (km/s) = 2.54917 3.21175 2.89944
# Velocity P-wave (km/s) = 7.20050 7.57383 7.38952
#
# Compressibility (1/GPa) = 0.01227967
#
# Stress axis : x y z
#
# Youngs Moduli (GPa) = 16.61161 16.61161 67.03086
#
# Poissons Ratio (x) = 0.86263 0.32138
# Poissons Ratio (y) = 0.86263 0.32138
# Poissons Ratio (z) = 0.07965 0.07965
#
# Static dielectric constant tensor:
#      x y z
#    x 1.679310 0.000000 0.000000 
#    y 0.000000 1.679310 0.000000 
#    z 0.000000 0.000000 1.714170 
# 
# From -- ./inp_files/1358.got.cif
#   From: 2010.05.17/outbox.cif.g08.bks.cpg/sg93_1_cif.got.tgz:1358.got - 2010.06.03 19:38:44.
