data_PCOD9549410
_publ_section_title
;
Structure prediction by ZEFSAII (Michael W. Deem and Ramdas Pophale) SiO2 
 PCOD9549410
Probable space group: P 41 21 2
;
_chemical_formula_sum "Si O2"
_cell_formula_units_Z 40
_cell_length_a 8.902544
_cell_length_b 8.902544
_cell_length_c 21.562350
_cell_angle_alpha 90.000000
_cell_angle_beta 90.000000
_cell_angle_gamma 90.000000
_cell_volume 1708.930295
_symmetry_space_group_name_H-M "P 41 21 2"
_symmetry_group_IT_number 92
_symmetry_cell_setting 'tetragonal'
loop_
_space_group_symop_operation_xyz
x,y,z
1/2-y,1/2+x,1/4+z
-x,-y,1/2+z
1/2+y,1/2-x,3/4+z
1/2+x,1/2-y,3/4-z
1/2-x,1/2+y,1/4-z
y,x,-z
-y,-x,1/2-z
loop_
_atom_site_type_symbol
_atom_site_label
_atom_site_fract_x
_atom_site_fract_y
_atom_site_fract_z
Si Si1 0.755633 0.121309 0.583584
Si Si2 0.180726 0.204967 0.716461
Si Si3 0.100882 0.899119 0.750000
Si Si4 0.144013 0.461467 0.891868
Si Si5 0.235828 0.197349 0.585071
Si Si6 0.026019 0.026019 0.500000
O O1 0.705014 0.241746 0.532011
O O2 0.842123 0.220811 0.634357
O O3 0.879513 0.031349 0.542583
O O4 0.628437 0.010522 0.608907
O O5 0.287043 0.193711 0.656262
O O6 0.059029 0.334398 0.704442
O O7 0.097588 0.047051 0.710110
O O8 0.239981 0.871097 0.795382
O O9 0.185656 0.592226 0.841000
O O10 0.162992 0.055016 0.549482
#
# Coordination Sequence:
#
# PCOD9549410 Si02
#       6
#     8   8   4   8   8   4
#     4  11  23  45  74  97 147 190 230 296 371 409
#     4  10  25  40  68 103 137 176 243 285 348 428
#     4  11  22  41  70  96 134 193 220 297 352 418
#     4   9  24  46  65 105 140 185 237 300 342 447
#     4   8  21  43  65  96 142 171 241 283 339 431
#     4   9  20  41  66  96 136 191 226 289 348 424
#
# _framework density 23.406457
#
# number of rings (size 3 to 8) (size 9 to 14) (size 15 to 20)
#    1.200    1.200    0.000    0.000    5.600    7.200 
#    3.600    0.000    0.000    0.000    0.000    0.000 
#    0.000    0.000    0.000    0.000    0.000    0.000 
#
# Total GULP energy -222695.906583 kJ/mol
# GULP energy per Si atom -5567.397665 kJ/mol
# Density = 2.335318 g / cm^3
# Si number density = 23.406457 Si / 1000 Ang^3
#
#
#
# Elastic Constant Matrix: (Units=GPa)
#
#
# Indices 1 2 3 4 5 6 
#
# 1 75.4285 26.9487 21.8727 0.0000 0.0000 0.0000
# 2 26.9487 75.4289 21.8721 0.0000 0.0000 0.0000
# 3 21.8727 21.8721 53.4221 0.0000 0.0000 0.0000
# 4 0.0000 0.0000 0.0000 21.2214 0.0000 0.0000
# 5 0.0000 0.0000 0.0000 0.0000 21.2216 0.0000
# 6 0.0000 0.0000 0.0000 0.0000 0.0000 38.6155
#
#
#
# Elastic Compliance Matrix: (Units=1/GPa)
#
#
# Indices 1 2 3 4 5 6 
#
# 1 0.016233 -0.004394 -0.004847 0.000000 0.000000 0.000000
# 2 -0.004394 0.016233 -0.004847 0.000000 0.000000 0.000000
# 3 -0.004847 -0.004847 0.022688 0.000000 0.000000 0.000000
# 4 0.000000 0.000000 0.000000 0.047122 0.000000 0.000000
# 5 0.000000 0.000000 0.000000 0.000000 0.047122 0.000000
# 6 0.000000 0.000000 0.000000 0.000000 0.000000 0.025896
#
#
# Mechanical properties :
#
#
# Convention : Reuss Voigt Hill
#
# Bulk Modulus (GPa) = 37.06840 38.40739 37.73789
# Shear Modulus (GPa) = 23.53345 25.11744 24.32545
#
# Velocity S-wave (km/s) = 3.17428 3.27937 3.22726
# Velocity P-wave (km/s) = 5.41350 5.54829 5.48131
#
# Compressibility (1/GPa) = 0.02697715
#
# Stress axis : x y z
#
# Youngs Moduli (GPa) = 61.60248 61.60338 44.07621
#
# Poissons Ratio (x) = 0.27069 0.21365
# Poissons Ratio (y) = 0.27069 0.21364
# Poissons Ratio (z) = 0.29861 0.29859
#
# Static dielectric constant tensor:
#      x y z
#    x 1.932250 0.000000 0.000000 
#    y 0.000000 1.932250 0.000000 
#    z 0.000000 0.000000 1.762950 
# 
# From -- ./inp_files/4180.got.cif
#   From: 2010.05.17/outbox.cif.g08.bks.cpg/sg92_3_cif.got.tgz:4180.got - 2010.06.03 19:35:17.
