data_PCOD9549977
_publ_section_title
;
Structure prediction by ZEFSAII (Michael W. Deem and Ramdas Pophale) SiO2 
 PCOD9549977
Probable space group: P 42 21 2
;
_chemical_formula_sum "Si O2"
_cell_formula_units_Z 44
_cell_length_a 11.969681
_cell_length_b 11.969681
_cell_length_c 12.867018
_cell_angle_alpha 90.000000
_cell_angle_beta 90.000000
_cell_angle_gamma 90.000000
_cell_volume 1843.499657
_symmetry_space_group_name_H-M "P 42 21 2"
_symmetry_group_IT_number 94
_symmetry_cell_setting 'tetragonal'
loop_
_space_group_symop_operation_xyz
x,y,z
1/2-y,1/2+x,1/2+z
-x,-y,z
1/2+y,1/2-x,1/2+z
1/2+x,1/2-y,1/2-z
1/2-x,1/2+y,1/2-z
y,x,-z
-y,-x,-z
loop_
_atom_site_type_symbol
_atom_site_label
_atom_site_fract_x
_atom_site_fract_y
_atom_site_fract_z
Si Si1 0.880211 0.168641 0.170064
Si Si2 0.500000 0.000000 0.638702
Si Si3 0.797994 0.585542 0.489922
Si Si4 0.863065 0.684029 0.801396
Si Si5 0.157229 0.157229 0.500000
Si Si6 0.786284 0.213717 0.500000
Si Si7 0.660144 0.515980 0.161582
O O1 0.805070 0.101344 0.088326
O O2 0.799865 0.256183 0.227706
O O3 0.917643 0.088997 0.261874
O O4 0.958294 0.244391 0.096808
O O5 0.521468 0.894877 0.566148
O O6 0.396675 0.948307 0.701838
O O7 0.852495 0.708708 0.504345
O O8 0.815679 0.715516 0.916383
O O9 0.961990 0.749115 0.741463
O O10 0.088181 0.112569 0.597408
O O11 0.898217 0.208315 0.573248
#
# Coordination Sequence:
#
# PCOD9549977 Si02
#       7
#     8   4   8   8   4   4   8
#     4   9  20  39  62  93 143 191 214 302 377 415
#     4  12  24  36  70 110 132 180 252 298 358 462
#     4  10  19  37  62 103 147 182 231 304 377 424
#     4  11  22  41  67 103 144 182 234 306 368 435
#     4  10  20  37  72  94 138 191 236 300 352 453
#     4  10  26  43  68 104 151 196 238 314 378 447
#     4  11  20  43  69  92 139 194 244 283 374 446
#
# _framework density 23.867645
#
# number of rings (size 3 to 8) (size 9 to 14) (size 15 to 20)
#    0.000    1.818    5.455    1.091    0.000    1.091 
#    0.000    0.000    8.000    0.000    0.000    0.000 
#    0.000    0.000    0.000    0.000    0.000    0.000 
#
# Total GULP energy -245002.960942 kJ/mol
# GULP energy per Si atom -5568.249112 kJ/mol
# Density = 2.381332 g / cm^3
# Si number density = 23.867645 Si / 1000 Ang^3
#
#
#
# Elastic Constant Matrix: (Units=GPa)
#
#
# Indices 1 2 3 4 5 6 
#
# 1 57.7897 18.9036 39.2912 0.0000 0.0000 0.0000
# 2 18.9036 57.7893 39.2911 0.0000 0.0000 0.0000
# 3 39.2912 39.2911 176.3608 0.0000 0.0000 0.0000
# 4 0.0000 0.0000 0.0000 38.4928 0.0000 0.0000
# 5 0.0000 0.0000 0.0000 0.0000 38.4926 0.0000
# 6 0.0000 0.0000 0.0000 0.0000 0.0000 25.5987
#
#
#
# Elastic Compliance Matrix: (Units=1/GPa)
#
#
# Indices 1 2 3 4 5 6 
#
# 1 0.021306 -0.004410 -0.003764 0.000000 0.000000 0.000000
# 2 -0.004410 0.021306 -0.003764 0.000000 0.000000 0.000000
# 3 -0.003764 -0.003764 0.007347 0.000000 0.000000 0.000000
# 4 0.000000 0.000000 0.000000 0.025979 0.000000 0.000000
# 5 0.000000 0.000000 0.000000 0.000000 0.025979 0.000000
# 6 0.000000 0.000000 0.000000 0.000000 0.000000 0.039065
#
#
# Mechanical properties :
#
#
# Convention : Reuss Voigt Hill
#
# Bulk Modulus (GPa) = 38.33999 54.10129 46.22064
# Shear Modulus (GPa) = 28.80956 33.48040 31.14498
#
# Velocity S-wave (km/s) = 3.47804 3.74940 3.61626
# Velocity P-wave (km/s) = 5.67692 6.43897 6.06992
#
# Compressibility (1/GPa) = 0.02608243
#
# Stress axis : x y z
#
# Youngs Moduli (GPa) = 46.93505 46.93468 136.10180
#
# Poissons Ratio (x) = 0.20699 0.51231
# Poissons Ratio (y) = 0.20699 0.51232
# Poissons Ratio (z) = 0.17667 0.17667
#
# Static dielectric constant tensor:
#      x y z
#    x 2.119790 0.000000 0.000000 
#    y 0.000000 2.119790 0.000000 
#    z 0.000000 0.000000 2.004100 
# 
# From -- ./inp_files/2582.got.cif
#   From: 2010.05.17/outbox.cif.g08.bks.cpg/sg94_2_cif.got.tgz:2582.got - 2010.06.03 19:43:16.
