data_PCOD9549834
_publ_section_title
;
Structure prediction by ZEFSAII (Michael W. Deem and Ramdas Pophale) SiO2 
 PCOD9549834
Probable space group: P 42 2 2
;
_chemical_formula_sum "Si O2"
_cell_formula_units_Z 56
_cell_length_a 11.882932
_cell_length_b 11.882932
_cell_length_c 21.767313
_cell_angle_alpha 90.000000
_cell_angle_beta 90.000000
_cell_angle_gamma 90.000000
_cell_volume 3073.633252
_symmetry_space_group_name_H-M "P 42 2 2"
_symmetry_group_IT_number 93
_symmetry_cell_setting 'tetragonal'
loop_
_space_group_symop_operation_xyz
x,y,z
-y,x,1/2+z
-x,-y,z
y,-x,1/2+z
x,-y,-z
-x,y,-z
y,x,1/2-z
-y,-x,1/2-z
loop_
_atom_site_type_symbol
_atom_site_label
_atom_site_fract_x
_atom_site_fract_y
_atom_site_fract_z
Si Si1 0.868712 0.122608 0.510096
Si Si2 0.213093 0.807394 0.857236
Si Si3 0.364932 0.366697 0.425605
Si Si4 0.030296 0.185099 0.792079
Si Si5 0.368450 0.624200 0.428275
Si Si6 0.635081 0.994372 0.808907
Si Si7 0.767807 0.185441 0.114266
O O1 0.852760 0.168870 0.577724
O O2 0.832381 0.205753 0.456778
O O3 0.000000 0.109926 0.500000
O O4 0.813442 0.000000 0.500000
O O5 0.277955 0.694210 0.879889
O O6 0.307384 0.887122 0.827275
O O7 0.099955 0.814319 0.814885
O O8 0.327954 0.496393 0.415861
O O9 0.498927 0.366895 0.417736
O O10 0.348006 0.348514 0.499187
O O11 0.083484 0.083484 0.750000
O O12 0.114514 0.181606 0.849768
O O13 0.043078 0.300142 0.753222
O O14 0.304995 0.707881 0.383213
O O15 0.500000 0.000000 0.805153
O O16 0.681940 0.906838 0.859490
#
# Coordination Sequence:
#
# PCOD9549834 Si02
#       7
#     8   8   8   8   8   8   8
#     4  11  21  34  56  92 125 149 183 233 296 372
#     4  12  21  38  62  89 117 152 198 242 299 360
#     4   9  19  33  56  85 118 157 188 232 285 362
#     4  10  25  41  61  83 115 159 201 247 299 351
#     4   9  18  35  55  84 121 154 190 227 294 355
#     4  11  25  41  57  83 115 154 201 246 288 334
#     4  11  20  38  60  86 118 152 188 241 300 356
#
# _framework density 18.219480999999998
#
# number of rings (size 3 to 8) (size 9 to 14) (size 15 to 20)
#    0.000    1.571    4.286    2.143    0.000    5.143 
#    0.000    0.714    0.000    2.571    0.000    9.000 
#    0.000    0.000    0.000    0.000    0.000    0.000 
#
# Total GULP energy -311833.036995 kJ/mol
# GULP energy per Si atom -5568.447089 kJ/mol
# Density = 1.817801 g / cm^3
# Si number density = 18.219481 Si / 1000 Ang^3
#
#
#
# Elastic Constant Matrix: (Units=GPa)
#
#
# Indices 1 2 3 4 5 6 
#
# 1 108.5039 53.3982 29.2173 0.0000 0.0000 0.0000
# 2 53.3982 108.5039 29.2173 0.0000 0.0000 0.0000
# 3 29.2173 29.2173 68.2583 0.0000 0.0000 0.0000
# 4 0.0000 0.0000 0.0000 15.3917 0.0000 0.0000
# 5 0.0000 0.0000 0.0000 0.0000 15.3917 0.0000
# 6 0.0000 0.0000 0.0000 0.0000 0.0000 27.0337
#
#
#
# Elastic Compliance Matrix: (Units=1/GPa)
#
#
# Indices 1 2 3 4 5 6 
#
# 1 0.012726 -0.005421 -0.003127 0.000000 0.000000 0.000000
# 2 -0.005421 0.012726 -0.003127 0.000000 0.000000 0.000000
# 3 -0.003127 -0.003127 0.017327 0.000000 0.000000 0.000000
# 4 0.000000 0.000000 0.000000 0.064970 0.000000 0.000000
# 5 0.000000 0.000000 0.000000 0.000000 0.064970 0.000000
# 6 0.000000 0.000000 0.000000 0.000000 0.000000 0.036991
#
#
# Mechanical properties :
#
#
# Convention : Reuss Voigt Hill
#
# Bulk Modulus (GPa) = 51.46727 56.54796 54.00762
# Shear Modulus (GPa) = 20.87367 23.12564 21.99965
#
# Velocity S-wave (km/s) = 3.38846 3.56656 3.47865
# Velocity P-wave (km/s) = 6.60444 6.93289 6.77066
#
# Compressibility (1/GPa) = 0.01942982
#
# Stress axis : x y z
#
# Youngs Moduli (GPa) = 78.57897 78.57897 57.71303
#
# Poissons Ratio (x) = 0.42597 0.18046
# Poissons Ratio (y) = 0.42597 0.18046
# Poissons Ratio (z) = 0.24571 0.24571
#
# Static dielectric constant tensor:
#      x y z
#    x 1.663470 0.000000 0.000000 
#    y 0.000000 1.663470 0.000000 
#    z 0.000000 0.000000 1.623330 
# 
# From -- ./inp_files/6267.got.cif
#   From: 2010.05.17/outbox.cif.g08.bks.cpg/sg93_4_cif.got.tgz:6267.got - 2010.06.03 19:38:44.
