data_PCOD9549965
_publ_section_title
;
Structure prediction by ZEFSAII (Michael W. Deem and Ramdas Pophale) SiO2 
 PCOD9549965
Probable space group: P 42 21 2
;
_chemical_formula_sum "Si O2"
_cell_formula_units_Z 56
_cell_length_a 14.589535
_cell_length_b 14.589535
_cell_length_c 14.427930
_cell_angle_alpha 90.000000
_cell_angle_beta 90.000000
_cell_angle_gamma 90.000000
_cell_volume 3071.050281
_symmetry_space_group_name_H-M "P 42 21 2"
_symmetry_group_IT_number 94
_symmetry_cell_setting 'tetragonal'
loop_
_space_group_symop_operation_xyz
x,y,z
1/2-y,1/2+x,1/2+z
-x,-y,z
1/2+y,1/2-x,1/2+z
1/2+x,1/2-y,1/2-z
1/2-x,1/2+y,1/2-z
y,x,-z
-y,-x,-z
loop_
_atom_site_type_symbol
_atom_site_label
_atom_site_fract_x
_atom_site_fract_y
_atom_site_fract_z
Si Si1 0.473100 0.764406 0.128449
Si Si2 0.428088 0.580792 0.782678
Si Si3 0.348331 0.658359 0.399349
Si Si4 0.857072 0.383503 0.396255
Si Si5 0.368713 0.139887 0.899381
Si Si6 0.404390 0.946578 0.203022
Si Si7 0.675998 0.539173 0.053107
O O1 0.454702 0.671465 0.183758
O O2 0.571203 0.812816 0.149140
O O3 0.404630 0.848080 0.151982
O O4 0.478660 0.730273 0.022624
O O5 0.500000 0.500000 0.767105
O O6 0.406593 0.629195 0.685905
O O7 0.475340 0.640195 0.864213
O O8 0.378647 0.621354 0.500000
O O9 0.238954 0.666208 0.408371
O O10 0.382651 0.761943 0.382510
O O11 0.893515 0.403310 0.500540
O O12 0.838815 0.476977 0.340681
O O13 0.426912 0.108307 0.811317
O O14 0.388371 0.248627 0.910734
O O15 0.500000 0.000000 0.187302
O O16 0.593984 0.593984 0.000000
#
# Coordination Sequence:
#
# PCOD9549965 Si02
#       7
#     8   8   8   8   8   8   8
#     4  10  20  36  54  86 121 146 187 247 293 349
#     4  12  23  35  59  88 117 153 193 246 298 355
#     4  10  21  39  59  82 113 158 200 239 287 356
#     4   9  20  37  58  83 115 154 196 240 290 355
#     4  10  19  35  59  82 115 156 200 243 290 351
#     4  10  20  35  57  84 118 152 196 242 294 353
#     4  11  21  35  57  87 115 150 194 242 297 352
#
# _framework density 18.234805000000001
#
# number of rings (size 3 to 8) (size 9 to 14) (size 15 to 20)
#    0.000    1.714    2.857    3.429    0.000    3.143 
#    0.000    0.000    0.000    0.000    7.429    0.000 
#    0.000    0.000    0.000    0.000    0.000    0.000 
#
# Total GULP energy -311932.136225 kJ/mol
# GULP energy per Si atom -5570.216718 kJ/mol
# Density = 1.819330 g / cm^3
# Si number density = 18.234805 Si / 1000 Ang^3
#
#
#
# Elastic Constant Matrix: (Units=GPa)
#
#
# Indices 1 2 3 4 5 6 
#
# 1 67.9948 19.4402 37.0287 0.0000 0.0000 0.0000
# 2 19.4402 67.9950 37.0288 0.0000 0.0000 0.0000
# 3 37.0287 37.0288 109.0175 0.0000 0.0000 0.0000
# 4 0.0000 0.0000 0.0000 31.1104 0.0000 0.0000
# 5 0.0000 0.0000 0.0000 0.0000 31.1103 0.0000
# 6 0.0000 0.0000 0.0000 0.0000 0.0000 19.1503
#
#
#
# Elastic Compliance Matrix: (Units=1/GPa)
#
#
# Indices 1 2 3 4 5 6 
#
# 1 0.018326 -0.002270 -0.005454 0.000000 0.000000 0.000000
# 2 -0.002270 0.018326 -0.005454 0.000000 0.000000 0.000000
# 3 -0.005454 -0.005454 0.012878 0.000000 0.000000 0.000000
# 4 0.000000 0.000000 0.000000 0.032144 0.000000 0.000000
# 5 0.000000 0.000000 0.000000 0.000000 0.032144 0.000000
# 6 0.000000 0.000000 0.000000 0.000000 0.000000 0.052218
#
#
# Mechanical properties :
#
#
# Convention : Reuss Voigt Hill
#
# Bulk Modulus (GPa) = 43.14889 48.00029 45.57459
# Shear Modulus (GPa) = 24.98578 26.37485 25.68031
#
# Velocity S-wave (km/s) = 3.70567 3.80728 3.75682
# Velocity P-wave (km/s) = 6.48256 6.76076 6.62312
#
# Compressibility (1/GPa) = 0.02317557
#
# Stress axis : x y z
#
# Youngs Moduli (GPa) = 54.56773 54.56791 77.65413
#
# Poissons Ratio (x) = 0.12384 0.42350
# Poissons Ratio (y) = 0.12384 0.42350
# Poissons Ratio (z) = 0.29759 0.29760
#
# Static dielectric constant tensor:
#      x y z
#    x 1.648580 0.000000 0.000000 
#    y 0.000000 1.648580 0.000000 
#    z 0.000000 0.000000 1.653760 
# 
# From -- ./inp_files/3546.got.cif
#   From: 2010.05.17/outbox.cif.g08.bks.cpg/sg94_2_cif.got.tgz:3546.got - 2010.06.03 19:43:16.
