data_PCOD9549406
_publ_section_title
;
Structure prediction by ZEFSAII (Michael W. Deem and Ramdas Pophale) SiO2 
 PCOD9549406
Probable space group: P 41 21 2
;
_chemical_formula_sum "Si O2"
_cell_formula_units_Z 28
_cell_length_a 7.490593
_cell_length_b 7.490593
_cell_length_c 19.206398
_cell_angle_alpha 90.000000
_cell_angle_beta 90.000000
_cell_angle_gamma 90.000000
_cell_volume 1077.651468
_symmetry_space_group_name_H-M "P 41 21 2"
_symmetry_group_IT_number 92
_symmetry_cell_setting 'tetragonal'
loop_
_space_group_symop_operation_xyz
x,y,z
1/2-y,1/2+x,1/4+z
-x,-y,1/2+z
1/2+y,1/2-x,3/4+z
1/2+x,1/2-y,3/4-z
1/2-x,1/2+y,1/4-z
y,x,-z
-y,-x,1/2-z
loop_
_atom_site_type_symbol
_atom_site_label
_atom_site_fract_x
_atom_site_fract_y
_atom_site_fract_z
Si Si1 0.622527 0.492258 0.901827
Si Si2 0.344548 0.113616 0.249550
Si Si3 0.888401 0.502838 0.113319
Si Si4 0.527156 0.472845 0.750000
O O1 0.594472 0.340558 0.958800
O O2 0.516763 0.679875 0.904956
O O3 0.594736 0.406824 0.824963
O O4 0.823133 0.565418 0.903608
O O5 0.491143 0.009234 0.204622
O O6 0.345774 0.059441 0.330458
O O7 0.418596 0.317942 0.250175
#
# Coordination Sequence:
#
# PCOD9549406 Si02
#       4
#     8   8   8   4
#     4  11  25  47  77 106 157 200 252 331 385 469
#     4  11  25  48  76 110 157 203 261 326 389 471
#     4  11  26  46  76 115 153 201 268 317 395 477
#     4  10  24  50  64 112 152 190 264 310 384 480
#
# _framework density 25.982424999999999
#
# number of rings (size 3 to 8) (size 9 to 14) (size 15 to 20)
#    0.000    1.143    0.000    5.143   12.000    0.000 
#    5.143    5.714    0.000    0.000    0.000    0.000 
#    0.000    0.000    0.000    0.000    0.000    0.000 
#
# Total GULP energy -156889.703185 kJ/mol
# GULP energy per Si atom -5603.203685 kJ/mol
# Density = 2.592329 g / cm^3
# Si number density = 25.982425 Si / 1000 Ang^3
#
#
#
# Elastic Constant Matrix: (Units=GPa)
#
#
# Indices 1 2 3 4 5 6 
#
# 1 88.3674 11.8335 6.0264 0.0000 0.0000 0.0000
# 2 11.8335 88.3674 6.0259 0.0000 0.0000 0.0000
# 3 6.0264 6.0259 115.7726 0.0000 0.0000 0.0000
# 4 0.0000 0.0000 0.0000 41.2645 0.0000 0.0000
# 5 0.0000 0.0000 0.0000 0.0000 41.2644 0.0000
# 6 0.0000 0.0000 0.0000 0.0000 0.0000 30.7326
#
#
#
# Elastic Compliance Matrix: (Units=1/GPa)
#
#
# Indices 1 2 3 4 5 6 
#
# 1 0.011554 -0.001512 -0.000523 0.000000 0.000000 0.000000
# 2 -0.001512 0.011554 -0.000523 0.000000 0.000000 0.000000
# 3 -0.000523 -0.000523 0.008692 0.000000 0.000000 0.000000
# 4 0.000000 0.000000 0.000000 0.024234 0.000000 0.000000
# 5 0.000000 0.000000 0.000000 0.000000 0.024234 0.000000
# 6 0.000000 0.000000 0.000000 0.000000 0.000000 0.032539
#
#
# Mechanical properties :
#
#
# Convention : Reuss Voigt Hill
#
# Bulk Modulus (GPa) = 37.47183 37.80878 37.64030
# Shear Modulus (GPa) = 39.42674 40.56039 39.99357
#
# Velocity S-wave (km/s) = 3.89966 3.95532 3.92759
# Velocity P-wave (km/s) = 5.89319 5.95338 5.92336
#
# Compressibility (1/GPa) = 0.02668671
#
# Stress axis : x y z
#
# Youngs Moduli (GPa) = 86.54655 86.54665 115.04778
#
# Poissons Ratio (x) = 0.13083 0.06014
# Poissons Ratio (y) = 0.13083 0.06014
# Poissons Ratio (z) = 0.04524 0.04524
#
# Static dielectric constant tensor:
#      x y z
#    x 2.047750 0.000000 0.000000 
#    y 0.000000 2.047750 0.000000 
#    z 0.000000 0.000000 2.068200 
# 
# From -- ./inp_files/2894.got.cif
#   From: 2010.05.17/outbox.cif.g08.bks.cpg/sg92_2_cif.got.tgz:2894.got - 2010.06.03 19:35:17.
