data_PCOD9549756
_publ_section_title
;
Structure prediction by ZEFSAII (Michael W. Deem and Ramdas Pophale) SiO2 
 PCOD9549756
Probable space group: P 42 2 2
;
_chemical_formula_sum "Si O2"
_cell_formula_units_Z 40
_cell_length_a 8.640711
_cell_length_b 8.640711
_cell_length_c 25.043834
_cell_angle_alpha 90.000000
_cell_angle_beta 90.000000
_cell_angle_gamma 90.000000
_cell_volume 1869.819894
_symmetry_space_group_name_H-M "P 42 2 2"
_symmetry_group_IT_number 93
_symmetry_cell_setting 'tetragonal'
loop_
_space_group_symop_operation_xyz
x,y,z
-y,x,1/2+z
-x,-y,z
y,-x,1/2+z
x,-y,-z
-x,y,-z
y,x,1/2-z
-y,-x,1/2-z
loop_
_atom_site_type_symbol
_atom_site_label
_atom_site_fract_x
_atom_site_fract_y
_atom_site_fract_z
Si Si1 0.968357 0.319958 0.438540
Si Si2 0.593832 0.281027 0.682042
Si Si3 0.856405 0.907177 0.356209
Si Si4 0.783443 0.701998 0.875042
Si Si5 0.816720 0.454792 0.294722
O O1 0.789035 0.295586 0.423999
O O2 0.000000 0.500000 0.428337
O O3 0.000000 0.283199 0.500000
O O4 0.071864 0.211097 0.399733
O O5 0.746707 0.176730 0.685188
O O6 0.478439 0.245190 0.633849
O O7 0.492551 0.236817 0.734161
O O8 0.678103 0.446230 0.676775
O O9 0.744764 0.037423 0.380663
O O10 0.000000 0.000000 0.332423
O O11 0.710246 0.791997 0.822966
O O12 0.000000 0.500000 0.299854
#
# Coordination Sequence:
#
# PCOD9549756 Si02
#       5
#     8   8   8   8   8
#     4  10  22  42  68  94 124 171 222 274 346 417
#     4  11  23  38  59  91 129 174 225 276 330 393
#     4  10  21  38  62  89 126 169 218 272 330 398
#     4  11  21  36  60  90 126 167 213 273 331 391
#     4  11  22  38  59  87 129 178 224 271 330 400
#
# _framework density 21.392434000000002
#
# number of rings (size 3 to 8) (size 9 to 14) (size 15 to 20)
#    0.000    1.400    0.000    7.200    0.000    5.200 
#    0.000    7.000    0.000    9.600    0.000    0.000 
#    0.000    0.000    0.000    0.000    0.000    0.000 
#
# Total GULP energy -222936.337745 kJ/mol
# GULP energy per Si atom -5573.408444 kJ/mol
# Density = 2.134374 g / cm^3
# Si number density = 21.392434 Si / 1000 Ang^3
#
#
#
# Elastic Constant Matrix: (Units=GPa)
#
#
# Indices 1 2 3 4 5 6 
#
# 1 123.7638 40.3845 37.5094 0.0000 0.0000 0.0000
# 2 40.3845 123.7638 37.5094 0.0000 0.0000 0.0000
# 3 37.5094 37.5094 79.4845 0.0000 0.0000 0.0000
# 4 0.0000 0.0000 0.0000 -8.8420 0.0000 0.0000
# 5 0.0000 0.0000 0.0000 0.0000 -8.8420 0.0000
# 6 0.0000 0.0000 0.0000 0.0000 0.0000 40.7896
#
#
#
# Elastic Compliance Matrix: (Units=1/GPa)
#
#
# Indices 1 2 3 4 5 6 
#
# 1 0.009880 -0.002113 -0.003665 0.000000 0.000000 0.000000
# 2 -0.002113 0.009880 -0.003665 0.000000 0.000000 0.000000
# 3 -0.003665 -0.003665 0.016041 0.000000 0.000000 0.000000
# 4 0.000000 0.000000 0.000000 -0.113096 0.000000 0.000000
# 5 0.000000 0.000000 0.000000 0.000000 -0.113096 0.000000
# 6 0.000000 0.000000 0.000000 0.000000 0.000000 0.024516
#
#
# Mechanical properties :
#
#
# Convention : Reuss Voigt Hill
#
# Bulk Modulus (GPa) = 59.12500 61.97987 60.55244
# Shear Modulus (GPa) = -35.37336 18.72836 -8.32250
#
# Velocity S-wave (km/s) = -4.07079 2.96204 -1.97455
# Velocity P-wave (km/s) = 2.36710 6.38231 4.81337
#
# Compressibility (1/GPa) = 0.01691332
#
# Stress axis : x y z
#
# Youngs Moduli (GPa) = 101.21151 101.21151 62.34203
#
# Poissons Ratio (x) = 0.21387 0.22851
# Poissons Ratio (y) = 0.21387 0.22851
# Poissons Ratio (z) = 0.37098 0.37098
#
# Static dielectric constant tensor:
#      x y z
#    x 1.908590 0.000000 0.000000 
#    y 0.000000 1.908590 0.000000 
#    z 0.000000 0.000000 1.773270 
# 
# From -- ./inp_files/6730.got.cif
#   From: 2010.05.17/outbox.cif.g08.bks.cpg/sg93_4_cif.got.tgz:6730.got - 2010.06.03 19:38:44.
