data_PCOD9549959
_publ_section_title
;
Structure prediction by ZEFSAII (Michael W. Deem and Ramdas Pophale) SiO2 
 PCOD9549959
Probable space group: P 42 21 2
;
_chemical_formula_sum "Si O2"
_cell_formula_units_Z 28
_cell_length_a 10.251157
_cell_length_b 10.251157
_cell_length_c 12.201869
_cell_angle_alpha 90.000000
_cell_angle_beta 90.000000
_cell_angle_gamma 90.000000
_cell_volume 1282.248288
_symmetry_space_group_name_H-M "P 42 21 2"
_symmetry_group_IT_number 94
_symmetry_cell_setting 'tetragonal'
loop_
_space_group_symop_operation_xyz
x,y,z
1/2-y,1/2+x,1/2+z
-x,-y,z
1/2+y,1/2-x,1/2+z
1/2+x,1/2-y,1/2-z
1/2-x,1/2+y,1/2-z
y,x,-z
-y,-x,-z
loop_
_atom_site_type_symbol
_atom_site_label
_atom_site_fract_x
_atom_site_fract_y
_atom_site_fract_z
Si Si1 0.252413 0.252413 0.000000
Si Si2 0.749977 0.945996 0.549316
Si Si3 0.709232 0.206973 0.270868
Si Si4 0.636888 0.933694 0.326401
O O1 0.244551 0.399237 0.954646
O O2 0.241426 0.164217 0.891383
O O3 0.882903 0.882903 0.500000
O O4 0.722983 0.887833 0.668298
O O5 0.645714 0.905663 0.456003
O O6 0.825779 0.301523 0.233353
O O7 0.735228 0.052899 0.292628
O O8 0.500000 0.000000 0.300119
#
# Coordination Sequence:
#
# PCOD9549959 Si02
#       4
#     4   8   8   8
#     4  10  19  34  58  88 123 162 208 262 319 376
#     4   9  19  35  56  83 116 160 208 253 311 380
#     4  10  21  36  58  91 124 161 210 258 317 385
#     4  10  21  38  60  86 123 166 209 264 319 378
#
# _framework density 21.836645999999998
#
# number of rings (size 3 to 8) (size 9 to 14) (size 15 to 20)
#    0.000    2.286    0.000    2.143    0.000    5.714 
#    0.000    7.143    0.000    0.000    0.000   44.000 
#    0.000    0.000    0.000    0.000    0.000    0.000 
#
# Total GULP energy -155941.057804 kJ/mol
# GULP energy per Si atom -5569.323493 kJ/mol
# Density = 2.178695 g / cm^3
# Si number density = 21.836646 Si / 1000 Ang^3
#
#
#
# Elastic Constant Matrix: (Units=GPa)
#
#
# Indices 1 2 3 4 5 6 
#
# 1 29.9774 54.2913 43.0133 0.0000 0.0000 0.0000
# 2 54.2913 29.9774 43.0133 0.0000 0.0000 0.0000
# 3 43.0133 43.0133 231.1129 0.0000 0.0000 0.0000
# 4 0.0000 0.0000 0.0000 32.6860 0.0000 0.0000
# 5 0.0000 0.0000 0.0000 0.0000 32.6860 0.0000
# 6 0.0000 0.0000 0.0000 0.0000 0.0000 25.2552
#
#
#
# Elastic Compliance Matrix: (Units=1/GPa)
#
#
# Indices 1 2 3 4 5 6 
#
# 1 -0.013239 0.027889 -0.002727 0.000000 0.000000 0.000000
# 2 0.027889 -0.013239 -0.002727 0.000000 0.000000 0.000000
# 3 -0.002727 -0.002727 0.005342 0.000000 0.000000 0.000000
# 4 0.000000 0.000000 0.000000 0.030594 0.000000 0.000000
# 5 0.000000 0.000000 0.000000 0.000000 0.030594 0.000000
# 6 0.000000 0.000000 0.000000 0.000000 0.000000 0.039596
#
#
# Mechanical properties :
#
#
# Convention : Reuss Voigt Hill
#
# Bulk Modulus (GPa) = 42.13025 63.52260 52.82643
# Shear Modulus (GPa) = 117.13195 28.17545 72.65370
#
# Velocity S-wave (km/s) = 7.33188 3.59595 5.77440
# Velocity P-wave (km/s) = 9.53995 6.81133 8.28869
#
# Compressibility (1/GPa) = 0.02373592
#
# Stress axis : x y z
#
# Youngs Moduli (GPa) = -75.53329 -75.53329 187.20245
#
# Poissons Ratio (x) = 2.10658 0.51043
# Poissons Ratio (y) = 2.10658 0.51043
# Poissons Ratio (z) = -0.20595 -0.20595
#
# Static dielectric constant tensor:
#      x y z
#    x 1.866810 0.000000 0.000000 
#    y 0.000000 1.866810 0.000000 
#    z 0.000000 0.000000 1.847740 
# 
# From -- ./inp_files/2117.got.cif
#   From: 2010.05.17/outbox.cif.g08.bks.cpg/sg94_2_cif.got.tgz:2117.got - 2010.06.03 19:43:16.
