data_PCOD9549202
_publ_section_title
;
Structure prediction by ZEFSAII (Michael W. Deem and Ramdas Pophale) SiO2 
 PCOD9549202
Probable space group: P 41 21 2
;
_chemical_formula_sum "Si O2"
_cell_formula_units_Z 56
_cell_length_a 14.124340
_cell_length_b 14.124340
_cell_length_c 11.780200
_cell_angle_alpha 90.000000
_cell_angle_beta 90.000000
_cell_angle_gamma 90.000000
_cell_volume 2350.114329
_symmetry_space_group_name_H-M "P 41 21 2"
_symmetry_group_IT_number 92
_symmetry_cell_setting 'tetragonal'
loop_
_space_group_symop_operation_xyz
x,y,z
1/2-y,1/2+x,1/4+z
-x,-y,1/2+z
1/2+y,1/2-x,3/4+z
1/2+x,1/2-y,3/4-z
1/2-x,1/2+y,1/4-z
y,x,-z
-y,-x,1/2-z
loop_
_atom_site_type_symbol
_atom_site_label
_atom_site_fract_x
_atom_site_fract_y
_atom_site_fract_z
Si Si1 0.274659 0.222063 0.829156
Si Si2 0.179048 0.179048 0.500000
Si Si3 0.417139 0.748611 0.543633
Si Si4 0.650578 0.555787 0.636476
Si Si5 0.987222 0.012779 0.250000
Si Si6 0.522643 0.295015 0.619962
Si Si7 0.956757 0.475482 0.423829
Si Si8 0.873687 0.361752 0.132858
O O1 0.185254 0.266857 0.764299
O O2 0.339653 0.305210 0.878263
O O3 0.230029 0.132253 0.894608
O O4 0.345702 0.166305 0.744489
O O5 0.177009 0.106796 0.395946
O O6 0.170806 0.284317 0.453038
O O7 0.486460 0.707372 0.448578
O O8 0.457578 0.846397 0.591098
O O9 0.542092 0.538824 0.603317
O O10 0.666069 0.523778 0.765187
O O11 0.007492 0.123678 0.225216
O O12 0.465428 0.200368 0.587448
O O13 0.993889 0.535859 0.312123
O O14 0.028272 0.388884 0.405318
#
# Coordination Sequence:
#
# PCOD9549202 Si02
#       8
#     8   4   8   8   4   8   8   8
#     4  10  24  46  77 106 153 213 252 333 405 493
#     4  10  21  48  68 104 153 200 274 324 412 479
#     4  11  25  47  73 112 157 207 267 335 410 488
#     4  11  27  48  74 117 151 206 271 329 411 488
#     4  12  25  48  74 110 147 208 264 326 394 481
#     4  11  24  48  78 108 162 208 270 335 415 493
#     4  12  27  45  76 119 162 212 271 341 414 489
#     4  10  22  44  72 112 149 208 264 328 407 483
#
# _framework density 23.828628999999999
#
# number of rings (size 3 to 8) (size 9 to 14) (size 15 to 20)
#    0.000    1.143    2.857    1.714    6.000    2.286 
#    2.571    0.000    0.000    0.000    0.000    0.000 
#    0.000    0.000    0.000    0.000    0.000    0.000 
#
# Total GULP energy -312533.928026 kJ/mol
# GULP energy per Si atom -5580.963000 kJ/mol
# Density = 2.377439 g / cm^3
# Si number density = 23.828629 Si / 1000 Ang^3
#
#
#
# Elastic Constant Matrix: (Units=GPa)
#
#
# Indices 1 2 3 4 5 6 
#
# 1 73.5960 12.0520 41.2297 0.0000 0.0000 0.0000
# 2 12.0520 73.5965 41.2300 0.0000 0.0000 0.0000
# 3 41.2297 41.2300 118.9989 0.0000 0.0000 0.0000
# 4 0.0000 0.0000 0.0000 32.2883 0.0000 0.0000
# 5 0.0000 0.0000 0.0000 0.0000 32.2883 0.0000
# 6 0.0000 0.0000 0.0000 0.0000 0.0000 38.6699
#
#
#
# Elastic Compliance Matrix: (Units=1/GPa)
#
#
# Indices 1 2 3 4 5 6 
#
# 1 0.016884 0.000636 -0.006070 0.000000 0.000000 0.000000
# 2 0.000636 0.016884 -0.006070 0.000000 0.000000 0.000000
# 3 -0.006070 -0.006070 0.012610 0.000000 0.000000 0.000000
# 4 0.000000 0.000000 0.000000 0.030971 0.000000 0.000000
# 5 0.000000 0.000000 0.000000 0.000000 0.030971 0.000000
# 6 0.000000 0.000000 0.000000 0.000000 0.000000 0.025860
#
#
# Mechanical properties :
#
#
# Convention : Reuss Voigt Hill
#
# Bulk Modulus (GPa) = 42.79209 50.57944 46.68577
# Shear Modulus (GPa) = 30.30693 32.09459 31.20076
#
# Velocity S-wave (km/s) = 3.57020 3.67398 3.62246
# Velocity P-wave (km/s) = 5.91543 6.26657 6.09353
#
# Compressibility (1/GPa) = 0.02336880
#
# Stress axis : x y z
#
# Youngs Moduli (GPa) = 59.22697 59.22726 79.30390
#
# Poissons Ratio (x) = -0.03765 0.48139
# Poissons Ratio (y) = -0.03765 0.48139
# Poissons Ratio (z) = 0.35952 0.35952
#
# Static dielectric constant tensor:
#      x y z
#    x 1.899550 0.000000 0.000000 
#    y 0.000000 1.899550 0.000000 
#    z 0.000000 0.000000 1.970450 
# 
# From -- ./inp_files/2306.got.cif
#   From: 2010.05.17/outbox.cif.g08.bks.cpg/sg92_2_cif.got.tgz:2306.got - 2010.06.03 19:35:17.
