data_PCOD9549250
_publ_section_title
;
Structure prediction by ZEFSAII (Michael W. Deem and Ramdas Pophale) SiO2 
 PCOD9549250
Probable space group: P 41 21 2
;
_chemical_formula_sum "Si O2"
_cell_formula_units_Z 40
_cell_length_a 12.493493
_cell_length_b 12.493493
_cell_length_c 14.382528
_cell_angle_alpha 90.000000
_cell_angle_beta 90.000000
_cell_angle_gamma 90.000000
_cell_volume 2244.930931
_symmetry_space_group_name_H-M "P 41 21 2"
_symmetry_group_IT_number 92
_symmetry_cell_setting 'tetragonal'
loop_
_space_group_symop_operation_xyz
x,y,z
1/2-y,1/2+x,1/4+z
-x,-y,1/2+z
1/2+y,1/2-x,3/4+z
1/2+x,1/2-y,3/4-z
1/2-x,1/2+y,1/4-z
y,x,-z
-y,-x,1/2-z
loop_
_atom_site_type_symbol
_atom_site_label
_atom_site_fract_x
_atom_site_fract_y
_atom_site_fract_z
Si Si1 0.548586 0.548586 0.000000
Si Si2 0.838277 0.854695 0.692497
Si Si3 0.242837 0.242837 0.000000
Si Si4 0.985835 0.328159 0.716665
Si Si5 0.611398 0.966736 0.988924
Si Si6 0.512094 0.237002 0.427827
O O1 0.563625 0.439274 0.943226
O O2 0.548329 0.649453 0.931048
O O3 0.809436 0.807082 0.592891
O O4 0.880548 0.762577 0.763218
O O5 0.741343 0.921069 0.735819
O O6 0.215201 0.369362 0.994603
O O7 0.013721 0.449701 0.746168
O O8 0.000793 0.328027 0.605450
O O9 0.560072 0.850426 0.979052
O O10 0.690256 0.970031 0.076199
#
# Coordination Sequence:
#
# PCOD9549250 Si02
#       6
#     4   8   4   8   8   8
#     4   8  21  46  58  93 132 160 220 258 317 396
#     4  10  23  45  62  95 132 173 220 266 337 386
#     4  12  25  42  68  93 136 184 216 282 333 392
#     4  11  23  44  63  97 129 167 223 270 331 401
#     4  10  22  41  68  96 126 168 219 271 333 391
#     4   9  22  41  64  95 129 168 211 276 320 399
#
# _framework density 17.817920000000001
#
# number of rings (size 3 to 8) (size 9 to 14) (size 15 to 20)
#    1.200    0.800    2.000    0.600    5.600    4.000 
#    7.200    0.000    0.000    0.000    0.000    0.000 
#    0.000    0.000    0.000    0.000    0.000    0.000 
#
# Total GULP energy -222745.628356 kJ/mol
# GULP energy per Si atom -5568.640709 kJ/mol
# Density = 1.777737 g / cm^3
# Si number density = 17.817920 Si / 1000 Ang^3
#
#
#
# Elastic Constant Matrix: (Units=GPa)
#
#
# Indices 1 2 3 4 5 6 
#
# 1 66.4924 -13.2667 26.4983 0.0000 0.0000 0.0000
# 2 -13.2667 66.4924 26.4983 0.0000 0.0000 0.0000
# 3 26.4983 26.4983 115.7819 0.0000 0.0000 0.0000
# 4 0.0000 0.0000 0.0000 20.2356 0.0000 0.0000
# 5 0.0000 0.0000 0.0000 0.0000 20.2356 0.0000
# 6 0.0000 0.0000 0.0000 0.0000 0.0000 28.4542
#
#
#
# Elastic Compliance Matrix: (Units=1/GPa)
#
#
# Indices 1 2 3 4 5 6 
#
# 1 0.018435 0.005898 -0.005569 0.000000 0.000000 0.000000
# 2 0.005898 0.018435 -0.005569 0.000000 0.000000 0.000000
# 3 -0.005569 -0.005569 0.011186 0.000000 0.000000 0.000000
# 4 0.000000 0.000000 0.000000 0.049418 0.000000 0.000000
# 5 0.000000 0.000000 0.000000 0.000000 0.049418 0.000000
# 6 0.000000 0.000000 0.000000 0.000000 0.000000 0.035144
#
#
# Mechanical properties :
#
#
# Convention : Reuss Voigt Hill
#
# Bulk Modulus (GPa) = 26.61267 36.46962 31.54115
# Shear Modulus (GPa) = 24.38518 27.72085 26.05301
#
# Velocity S-wave (km/s) = 3.70344 3.94862 3.82800
# Velocity P-wave (km/s) = 5.76677 6.42660 6.10561
#
# Compressibility (1/GPa) = 0.03757608
#
# Stress axis : x y z
#
# Youngs Moduli (GPa) = 54.24364 54.24364 89.39754
#
# Poissons Ratio (x) = -0.31991 0.49785
# Poissons Ratio (y) = -0.31991 0.49785
# Poissons Ratio (z) = 0.30208 0.30208
#
# Static dielectric constant tensor:
#      x y z
#    x 1.605800 0.000000 0.000000 
#    y 0.000000 1.605800 0.000000 
#    z 0.000000 0.000000 1.588920 
# 
# From -- ./inp_files/2677.got.cif
#   From: 2010.05.17/outbox.cif.g08.bks.cpg/sg92_2_cif.got.tgz:2677.got - 2010.06.03 19:35:17.
