data_PCOD9549581
_publ_section_title
;
Structure prediction by ZEFSAII (Michael W. Deem and Ramdas Pophale) SiO2 
 PCOD9549581
Probable space group: P 41 21 2
;
_chemical_formula_sum "Si O2"
_cell_formula_units_Z 20
_cell_length_a 12.139497
_cell_length_b 12.139497
_cell_length_c 5.148770
_cell_angle_alpha 90.000000
_cell_angle_beta 90.000000
_cell_angle_gamma 90.000000
_cell_volume 758.760783
_symmetry_space_group_name_H-M "P 41 21 2"
_symmetry_group_IT_number 92
_symmetry_cell_setting 'tetragonal'
loop_
_space_group_symop_operation_xyz
x,y,z
1/2-y,1/2+x,1/4+z
-x,-y,1/2+z
1/2+y,1/2-x,3/4+z
1/2+x,1/2-y,3/4-z
1/2-x,1/2+y,1/4-z
y,x,-z
-y,-x,1/2-z
loop_
_atom_site_type_symbol
_atom_site_label
_atom_site_fract_x
_atom_site_fract_y
_atom_site_fract_z
Si Si1 0.635199 0.635199 0.000000
Si Si2 0.397995 0.135406 0.305613
Si Si3 0.075224 0.075224 0.500000
Si Si4 0.684984 0.315017 0.750000
O O1 0.614894 0.765190 0.010930
O O2 0.555014 0.597077 0.768503
O O3 0.370011 0.019889 0.439081
O O4 0.310972 0.162451 0.077974
O O5 0.138870 0.121897 0.748663
#
# Coordination Sequence:
#
# PCOD9549581 Si02
#       4
#     4   8   4   4
#     4  12  29  59  89 139 182 252 308 388 467 575
#     4  12  31  54  93 141 192 247 317 397 484 562
#     4  12  28  56  94 127 183 242 312 374 458 568
#     4  12  29  57  85 136 177 252 294 388 457 573
#
# _framework density 26.358771000000001
#
# number of rings (size 3 to 8) (size 9 to 14) (size 15 to 20)
#    0.000    0.000    4.000    2.400   11.200    1.600 
#    0.000    0.000    0.000    0.000    0.000    0.000 
#    0.000    0.000    0.000    0.000    0.000    0.000 
#
# Total GULP energy -112289.364685 kJ/mol
# GULP energy per Si atom -5614.468234 kJ/mol
# Density = 2.629878 g / cm^3
# Si number density = 26.358771 Si / 1000 Ang^3
#
#
#
# Elastic Constant Matrix: (Units=GPa)
#
#
# Indices 1 2 3 4 5 6 
#
# 1 316.4464 59.5062 89.7939 0.0000 0.0000 0.0000
# 2 59.5062 316.4482 89.7940 0.0000 0.0000 0.0000
# 3 89.7939 89.7940 175.9787 0.0000 0.0000 0.0000
# 4 0.0000 0.0000 0.0000 43.7577 0.0000 0.0000
# 5 0.0000 0.0000 0.0000 0.0000 43.7582 0.0000
# 6 0.0000 0.0000 0.0000 0.0000 0.0000 47.3579
#
#
#
# Elastic Compliance Matrix: (Units=1/GPa)
#
#
# Indices 1 2 3 4 5 6 
#
# 1 0.003705 -0.000187 -0.001795 0.000000 0.000000 0.000000
# 2 -0.000187 0.003705 -0.001795 0.000000 0.000000 0.000000
# 3 -0.001795 -0.001795 0.007514 0.000000 0.000000 0.000000
# 4 0.000000 0.000000 0.000000 0.022853 0.000000 0.000000
# 5 0.000000 0.000000 0.000000 0.000000 0.022853 0.000000
# 6 0.000000 0.000000 0.000000 0.000000 0.000000 0.021116
#
#
# Mechanical properties :
#
#
# Convention : Reuss Voigt Hill
#
# Bulk Modulus (GPa) = 135.69061 143.00680 139.34870
# Shear Modulus (GPa) = 54.49301 64.96003 59.72652
#
# Velocity S-wave (km/s) = 4.55175 4.96971 4.76532
# Velocity P-wave (km/s) = 8.90027 9.34358 9.12462
#
# Compressibility (1/GPa) = 0.00736971
#
# Stress axis : x y z
#
# Youngs Moduli (GPa) = 269.93631 269.93806 133.08536
#
# Poissons Ratio (x) = 0.05058 0.23884
# Poissons Ratio (y) = 0.05058 0.23884
# Poissons Ratio (z) = 0.48445 0.48445
#
# Static dielectric constant tensor:
#      x y z
#    x 2.093620 0.000000 0.000000 
#    y 0.000000 2.093630 0.000000 
#    z 0.000000 0.000000 2.021360 
# 
# From -- ./inp_files/111.got.cif
#   From: 2010.05.17/outbox.cif.g08.bks.cpg/sg92_1_cif.got.tgz:111.got - 2010.06.03 19:35:17.
