data_PCOD9549360
_publ_section_title
;
Structure prediction by ZEFSAII (Michael W. Deem and Ramdas Pophale) SiO2 
 PCOD9549360
Probable space group: P 41 21 2
;
_chemical_formula_sum "Si O2"
_cell_formula_units_Z 40
_cell_length_a 16.900439
_cell_length_b 16.900439
_cell_length_c 5.550950
_cell_angle_alpha 90.000000
_cell_angle_beta 90.000000
_cell_angle_gamma 90.000000
_cell_volume 1585.489197
_symmetry_space_group_name_H-M "P 41 21 2"
_symmetry_group_IT_number 92
_symmetry_cell_setting 'tetragonal'
loop_
_space_group_symop_operation_xyz
x,y,z
1/2-y,1/2+x,1/4+z
-x,-y,1/2+z
1/2+y,1/2-x,3/4+z
1/2+x,1/2-y,3/4-z
1/2-x,1/2+y,1/4-z
y,x,-z
-y,-x,1/2-z
loop_
_atom_site_type_symbol
_atom_site_label
_atom_site_fract_x
_atom_site_fract_y
_atom_site_fract_z
Si Si1 0.506766 0.617429 0.357581
Si Si2 0.646343 0.877239 0.450841
Si Si3 0.291821 0.640215 0.996408
Si Si4 0.768464 0.547334 0.897786
Si Si5 0.105664 0.471514 0.695299
O O1 0.577384 0.577384 0.500000
O O2 0.452619 0.547382 0.250000
O O3 0.448174 0.672002 0.520422
O O4 0.539516 0.676811 0.155174
O O5 0.700432 0.852609 0.681568
O O6 0.616813 0.807245 0.271162
O O7 0.695264 0.956933 0.381010
O O8 0.565952 0.913233 0.549740
O O9 0.329051 0.670950 0.250000
O O10 0.315010 0.684991 0.750000
O O11 0.802288 0.552129 0.166158
O O12 0.075013 0.559690 0.735190
#
# Coordination Sequence:
#
# PCOD9549360 Si02
#       5
#     8   8   8   8   8
#     4  10  23  47  74 100 132 180 247 312 369 436
#     4  11  23  40  63  97 143 185 233 290 356 443
#     4  10  24  44  72 101 139 194 245 304 376 434
#     4  11  23  41  65 101 137 185 232 290 363 436
#     4  12  22  36  64  96 144 191 237 285 356 434
#
# _framework density 25.228805999999999
#
# number of rings (size 3 to 8) (size 9 to 14) (size 15 to 20)
#    0.000    1.200    4.000    1.800    2.800    2.400 
#    3.600    0.000    0.000    0.000    0.000    0.000 
#    0.000    0.000    0.000    0.000    0.000    0.000 
#
# Total GULP energy -222731.778866 kJ/mol
# GULP energy per Si atom -5568.294472 kJ/mol
# Density = 2.517138 g / cm^3
# Si number density = 25.228806 Si / 1000 Ang^3
#
#
#
# Elastic Constant Matrix: (Units=GPa)
#
#
# Indices 1 2 3 4 5 6 
#
# 1 79.8695 38.0197 16.0767 0.0000 0.0000 0.0000
# 2 38.0197 79.8696 16.0747 0.0000 0.0000 0.0000
# 3 16.0767 16.0747 70.3325 0.0000 0.0000 0.0000
# 4 0.0000 0.0000 0.0000 45.0902 0.0000 0.0000
# 5 0.0000 0.0000 0.0000 0.0000 45.0895 0.0000
# 6 0.0000 0.0000 0.0000 0.0000 0.0000 31.7104
#
#
#
# Elastic Compliance Matrix: (Units=1/GPa)
#
#
# Indices 1 2 3 4 5 6 
#
# 1 0.016471 -0.007424 -0.002068 0.000000 0.000000 0.000000
# 2 -0.007424 0.016471 -0.002067 0.000000 0.000000 0.000000
# 3 -0.002068 -0.002067 0.015163 0.000000 0.000000 0.000000
# 4 0.000000 0.000000 0.000000 0.022178 0.000000 0.000000
# 5 0.000000 0.000000 0.000000 0.000000 0.022178 0.000000
# 6 0.000000 0.000000 0.000000 0.000000 0.000000 0.031535
#
#
# Mechanical properties :
#
#
# Convention : Reuss Voigt Hill
#
# Bulk Modulus (GPa) = 40.02333 41.15709 40.59021
# Shear Modulus (GPa) = 32.16595 35.03806 33.60201
#
# Velocity S-wave (km/s) = 3.57454 3.73072 3.65347
# Velocity P-wave (km/s) = 5.73891 5.90818 5.82416
#
# Compressibility (1/GPa) = 0.02498543
#
# Stress axis : x y z
#
# Youngs Moduli (GPa) = 60.71353 60.71431 65.94820
#
# Poissons Ratio (x) = 0.45076 0.13639
# Poissons Ratio (y) = 0.45075 0.13634
# Poissons Ratio (z) = 0.12556 0.12552
#
# Static dielectric constant tensor:
#      x y z
#    x 2.331220 0.000000 0.000000 
#    y 0.000000 2.331240 0.000000 
#    z 0.000000 0.000000 2.386030 
# 
# From -- ./inp_files/402.got.cif
#   From: 2010.05.17/outbox.cif.g08.bks.cpg/sg92_1_cif.got.tgz:402.got - 2010.06.03 19:35:17.
