data_PCOD9549613
_publ_section_title
;
Structure prediction by ZEFSAII (Michael W. Deem and Ramdas Pophale) SiO2 
 PCOD9549613
Probable space group: P 42 2 2
;
_chemical_formula_sum "Si O2"
_cell_formula_units_Z 26
_cell_length_a 14.807081
_cell_length_b 14.807081
_cell_length_c 5.619820
_cell_angle_alpha 90.000000
_cell_angle_beta 90.000000
_cell_angle_gamma 90.000000
_cell_volume 1232.143555
_symmetry_space_group_name_H-M "P 42 2 2"
_symmetry_group_IT_number 93
_symmetry_cell_setting 'tetragonal'
loop_
_space_group_symop_operation_xyz
x,y,z
-y,x,1/2+z
-x,-y,z
y,-x,1/2+z
x,-y,-z
-x,y,-z
y,x,1/2-z
-y,-x,1/2-z
loop_
_atom_site_type_symbol
_atom_site_label
_atom_site_fract_x
_atom_site_fract_y
_atom_site_fract_z
Si Si1 0.673680 0.176106 0.253980
Si Si2 0.000000 0.500000 0.500000
Si Si3 0.008150 0.212971 0.250599
Si Si4 0.858016 0.373165 0.740434
O O1 0.759521 0.240480 0.250000
O O2 0.712299 0.073104 0.246810
O O3 0.617299 0.184120 0.498341
O O4 0.623246 0.197009 0.006205
O O5 0.938289 0.441445 0.676870
O O6 0.000000 0.162596 0.500000
O O7 0.099895 0.271412 0.250274
O O8 0.000000 0.163551 0.000000
#
# Coordination Sequence:
#
# PCOD9549613 Si02
#       4
#     8   2   8   8
#     4  10  18  31  44  63  92 125 167 203 245 299
#     4  12  20  34  52  70 112 126 166 220 268 322
#     4   8  14  27  39  59  84 106 151 191 232 285
#     4  10  20  30  46  69  92 129 160 209 251 306
#
# _framework density 21.10144
#
# number of rings (size 3 to 8) (size 9 to 14) (size 15 to 20)
#    0.000    2.462    4.615    0.923    0.000    2.462 
#    0.000    0.000    0.000    0.000    0.000    0.000 
#    0.000  299.077    0.000    0.000    0.000   21.538 
#
# Total GULP energy -144787.984333 kJ/mol
# GULP energy per Si atom -5568.768628 kJ/mol
# Density = 2.105341 g / cm^3
# Si number density = 21.101440 Si / 1000 Ang^3
#
#
#
# Elastic Constant Matrix: (Units=GPa)
#
#
# Indices 1 2 3 4 5 6 
#
# 1 21.9178 23.1869 10.6578 0.0000 0.0000 0.0000
# 2 23.1869 21.9254 10.6630 0.0000 0.0000 0.0000
# 3 10.6578 10.6630 281.4265 0.0000 0.0000 0.0000
# 4 0.0000 0.0000 0.0000 0.2309 0.0000 0.0000
# 5 0.0000 0.0000 0.0000 0.0000 0.2368 0.0000
# 6 0.0000 0.0000 0.0000 0.0000 0.0000 34.6357
#
#
#
# Elastic Compliance Matrix: (Units=1/GPa)
#
#
# Indices 1 2 3 4 5 6 
#
# 1 -0.383935 0.406444 -0.000860 0.000000 0.000000 0.000000
# 2 0.406444 -0.383806 -0.000850 0.000000 0.000000 0.000000
# 3 -0.000860 -0.000850 0.003618 0.000000 0.000000 0.000000
# 4 0.000000 0.000000 0.000000 4.330364 0.000000 0.000000
# 5 0.000000 0.000000 0.000000 0.000000 4.223197 0.000000
# 6 0.000000 0.000000 0.000000 0.000000 0.000000 0.028872
#
#
# Mechanical properties :
#
#
# Convention : Reuss Voigt Hill
#
# Bulk Modulus (GPa) = 22.05379 46.03168 34.04274
# Shear Modulus (GPa) = 0.71185 25.73814 13.22500
#
# Velocity S-wave (km/s) = 0.58145 3.49626 2.50618
# Velocity P-wave (km/s) = 3.30527 6.17740 4.95404
#
# Compressibility (1/GPa) = 0.04534368
#
# Stress axis : x y z
#
# Youngs Moduli (GPa) = -2.60461 -2.60548 276.38779
#
# Poissons Ratio (x) = 1.05898 0.23769
# Poissons Ratio (y) = 1.05863 0.23497
# Poissons Ratio (z) = -0.00224 -0.00222
#
# Static dielectric constant tensor:
#      x y z
#    x 1.776020 0.000000 0.000000 
#    y 0.000000 1.776000 0.000000 
#    z 0.000000 0.000000 1.941640 
# 
# From -- ./inp_files/254.got.cif
#   From: 2010.05.17/outbox.cif.g08.bks.cpg/sg93_1_cif.got.tgz:254.got - 2010.06.03 19:38:44.
