data_PCOD9549257
_publ_section_title
;
Structure prediction by ZEFSAII (Michael W. Deem and Ramdas Pophale) SiO2 
 PCOD9549257
Probable space group: P 41 21 2
;
_chemical_formula_sum "Si O2"
_cell_formula_units_Z 48
_cell_length_a 8.693276
_cell_length_b 8.693276
_cell_length_c 28.969607
_cell_angle_alpha 90.000000
_cell_angle_beta 90.000000
_cell_angle_gamma 90.000000
_cell_volume 2189.321489
_symmetry_space_group_name_H-M "P 41 21 2"
_symmetry_group_IT_number 92
_symmetry_cell_setting 'tetragonal'
loop_
_space_group_symop_operation_xyz
x,y,z
1/2-y,1/2+x,1/4+z
-x,-y,1/2+z
1/2+y,1/2-x,3/4+z
1/2+x,1/2-y,3/4-z
1/2-x,1/2+y,1/4-z
y,x,-z
-y,-x,1/2-z
loop_
_atom_site_type_symbol
_atom_site_label
_atom_site_fract_x
_atom_site_fract_y
_atom_site_fract_z
Si Si1 0.391966 0.369598 0.758826
Si Si2 0.817367 0.407770 0.569279
Si Si3 0.999056 0.550107 0.893866
Si Si4 0.405653 0.104718 0.020639
Si Si5 0.231304 0.270383 0.337873
Si Si6 0.052731 0.991805 0.300892
O O1 0.461005 0.538996 0.750000
O O2 0.258009 0.352880 0.796829
O O3 0.533240 0.261519 0.773774
O O4 0.330731 0.296123 0.710975
O O5 0.882996 0.527001 0.530750
O O6 0.637059 0.447004 0.574019
O O7 0.902423 0.437655 0.616816
O O8 0.995339 0.512557 0.947974
O O9 0.129500 0.679776 0.888667
O O10 0.841832 0.602872 0.870783
O O11 0.420314 0.276100 0.041450
O O12 0.095997 0.147541 0.326534
O O13 0.982547 0.017454 0.250000
#
# Coordination Sequence:
#
# PCOD9549257 Si02
#       6
#     8   8   8   8   8   8
#     4  12  24  42  68  96 135 176 224 277 338 389
#     4  11  22  41  68  94 126 175 224 273 331 404
#     4  11  25  43  64  96 137 173 225 275 346 401
#     4  10  22  42  64  93 128 174 222 273 325 402
#     4  11  24  44  65  98 139 174 220 289 339 400
#     4   9  18  41  67  88 127 172 222 269 329 395
#
# _framework density 21.924603000000001
#
# number of rings (size 3 to 8) (size 9 to 14) (size 15 to 20)
#    0.000    1.333    6.667    1.500    2.333    4.000 
#    0.000    0.833    0.000    0.000    0.000    0.000 
#    0.000    0.000    0.000    0.000    0.000    0.000 
#
# Total GULP energy -268199.470045 kJ/mol
# GULP energy per Si atom -5587.488959 kJ/mol
# Density = 2.187470 g / cm^3
# Si number density = 21.924603 Si / 1000 Ang^3
#
#
#
# Elastic Constant Matrix: (Units=GPa)
#
#
# Indices 1 2 3 4 5 6 
#
# 1 29.1603 23.5694 2.5598 0.0000 0.0000 0.0000
# 2 23.5694 29.1596 2.5600 0.0000 0.0000 0.0000
# 3 2.5598 2.5600 54.1456 0.0000 0.0000 0.0000
# 4 0.0000 0.0000 0.0000 28.4148 0.0000 0.0000
# 5 0.0000 0.0000 0.0000 0.0000 28.4152 0.0000
# 6 0.0000 0.0000 0.0000 0.0000 0.0000 46.8793
#
#
#
# Elastic Compliance Matrix: (Units=1/GPa)
#
#
# Indices 1 2 3 4 5 6 
#
# 1 0.098961 -0.079910 -0.000900 0.000000 0.000000 0.000000
# 2 -0.079910 0.098964 -0.000901 0.000000 0.000000 0.000000
# 3 -0.000900 -0.000901 0.018554 0.000000 0.000000 0.000000
# 4 0.000000 0.000000 0.000000 0.035193 0.000000 0.000000
# 5 0.000000 0.000000 0.000000 0.000000 0.035192 0.000000
# 6 0.000000 0.000000 0.000000 0.000000 0.000000 0.021331
#
#
# Mechanical properties :
#
#
# Convention : Reuss Voigt Hill
#
# Bulk Modulus (GPa) = 18.84824 18.87154 18.85989
# Shear Modulus (GPa) = 10.21858 26.32695 18.27277
#
# Velocity S-wave (km/s) = 2.16123 3.46901 2.89006
# Velocity P-wave (km/s) = 3.85271 4.96704 4.44493
#
# Compressibility (1/GPa) = 0.05305535
#
# Stress axis : x y z
#
# Youngs Moduli (GPa) = 10.10497 10.10470 53.89707
#
# Poissons Ratio (x) = 0.80747 0.04853
# Poissons Ratio (y) = 0.80749 0.04857
# Poissons Ratio (z) = 0.00910 0.00911
#
# Static dielectric constant tensor:
#      x y z
#    x 1.829770 0.000000 0.000000 
#    y 0.000000 1.829770 0.000000 
#    z 0.000000 0.000000 1.786440 
# 
# From -- ./inp_files/4514.got.cif
#   From: 2010.05.17/outbox.cif.g08.bks.cpg/sg92_3_cif.got.tgz:4514.got - 2010.06.03 19:35:17.
