data_PCOD9549663
_publ_section_title
;
Structure prediction by ZEFSAII (Michael W. Deem and Ramdas Pophale) SiO2 
 PCOD9549663
Probable space group: P 42 2 2
;
_chemical_formula_sum "Si O2"
_cell_formula_units_Z 32
_cell_length_a 16.226653
_cell_length_b 16.226653
_cell_length_c 7.398962
_cell_angle_alpha 90.000000
_cell_angle_beta 90.000000
_cell_angle_gamma 90.000000
_cell_volume 1948.178270
_symmetry_space_group_name_H-M "P 42 2 2"
_symmetry_group_IT_number 93
_symmetry_cell_setting 'tetragonal'
loop_
_space_group_symop_operation_xyz
x,y,z
-y,x,1/2+z
-x,-y,z
y,-x,1/2+z
x,-y,-z
-x,y,-z
y,x,1/2-z
-y,-x,1/2-z
loop_
_atom_site_type_symbol
_atom_site_label
_atom_site_fract_x
_atom_site_fract_y
_atom_site_fract_z
Si Si1 0.905141 0.599203 0.991221
Si Si2 0.365451 0.235482 0.224214
Si Si3 0.350899 0.483090 0.713042
Si Si4 0.348050 0.780944 0.201278
O O1 0.863713 0.633448 0.808721
O O2 0.903992 0.500000 0.000000
O O3 0.844963 0.625741 0.153986
O O4 0.000000 0.626070 0.000000
O O5 0.277929 0.277929 0.250000
O O6 0.432991 0.306272 0.282097
O O7 0.368984 0.214198 0.011338
O O8 0.352739 0.500000 0.500000
O O9 0.439215 0.439215 0.750000
O O10 0.285880 0.414081 0.772647
O O11 0.259925 0.740076 0.250000
#
# Coordination Sequence:
#
# PCOD9549663 Si02
#       4
#     8   8   8   8
#     4  11  23  37  56  82 115 149 186 232 282 334
#     4  11  21  35  58  77 106 151 192 231 279 323
#     4   9  19  33  50  71 104 144 190 237 267 309
#     4  10  19  36  56  78 107 145 187 227 271 325
#
# _framework density 16.425602000000001
#
# number of rings (size 3 to 8) (size 9 to 14) (size 15 to 20)
#    0.000    1.750    5.000    0.000    0.000    1.500 
#    0.000    6.250    0.000    0.000    0.000    0.000 
#    0.000    3.000    0.000    0.000    0.000    0.000 
#
# Total GULP energy -178202.148585 kJ/mol
# GULP energy per Si atom -5568.817143 kJ/mol
# Density = 1.638822 g / cm^3
# Si number density = 16.425602 Si / 1000 Ang^3
#
#
#
# Elastic Constant Matrix: (Units=GPa)
#
#
# Indices 1 2 3 4 5 6 
#
# 1 83.2984 81.9291 41.9034 0.0000 0.0000 0.0000
# 2 81.9291 83.2964 41.9026 0.0000 0.0000 0.0000
# 3 41.9034 41.9026 100.9975 0.0000 0.0000 0.0000
# 4 0.0000 0.0000 0.0000 13.7175 0.0000 0.0000
# 5 0.0000 0.0000 0.0000 0.0000 13.7177 0.0000
# 6 0.0000 0.0000 0.0000 0.0000 0.0000 16.7891
#
#
#
# Elastic Compliance Matrix: (Units=1/GPa)
#
#
# Indices 1 2 3 4 5 6 
#
# 1 0.369231 -0.361569 -0.003182 0.000000 0.000000 0.000000
# 2 -0.361569 0.369238 -0.003179 0.000000 0.000000 0.000000
# 3 -0.003182 -0.003179 0.012540 0.000000 0.000000 0.000000
# 4 0.000000 0.000000 0.000000 0.072900 0.000000 0.000000
# 5 0.000000 0.000000 0.000000 0.000000 0.072899 0.000000
# 6 0.000000 0.000000 0.000000 0.000000 0.000000 0.059562
#
#
# Mechanical properties :
#
#
# Convention : Reuss Voigt Hill
#
# Bulk Modulus (GPa) = 66.00758 66.56250 66.28504
# Shear Modulus (GPa) = 2.94589 15.63533 9.29061
#
# Velocity S-wave (km/s) = 1.34066 3.08861 2.38085
# Velocity P-wave (km/s) = 6.53219 7.30281 6.92822
#
# Compressibility (1/GPa) = 0.01514977
#
# Stress axis : x y z
#
# Youngs Moduli (GPa) = 2.70833 2.70828 79.74346
#
# Poissons Ratio (x) = 0.97923 0.25374
# Poissons Ratio (y) = 0.97925 0.25348
# Poissons Ratio (z) = 0.00862 0.00861
#
# Static dielectric constant tensor:
#      x y z
#    x 1.561880 0.000000 0.000000 
#    y 0.000000 1.561880 0.000000 
#    z 0.000000 0.000000 1.611280 
# 
# From -- ./inp_files/1534.got.cif
#   From: 2010.05.17/outbox.cif.g08.bks.cpg/sg93_1_cif.got.tgz:1534.got - 2010.06.03 19:38:44.
