data_PCOD9549344
_publ_section_title
;
Structure prediction by ZEFSAII (Michael W. Deem and Ramdas Pophale) SiO2 
 PCOD9549344
Probable space group: P 41 21 2
;
_chemical_formula_sum "Si O2"
_cell_formula_units_Z 40
_cell_length_a 7.819185
_cell_length_b 7.819185
_cell_length_c 24.941817
_cell_angle_alpha 90.000000
_cell_angle_beta 90.000000
_cell_angle_gamma 90.000000
_cell_volume 1524.934063
_symmetry_space_group_name_H-M "P 41 21 2"
_symmetry_group_IT_number 92
_symmetry_cell_setting 'tetragonal'
loop_
_space_group_symop_operation_xyz
x,y,z
1/2-y,1/2+x,1/4+z
-x,-y,1/2+z
1/2+y,1/2-x,3/4+z
1/2+x,1/2-y,3/4-z
1/2-x,1/2+y,1/4-z
y,x,-z
-y,-x,1/2-z
loop_
_atom_site_type_symbol
_atom_site_label
_atom_site_fract_x
_atom_site_fract_y
_atom_site_fract_z
Si Si1 0.900636 0.249174 0.095277
Si Si2 0.647884 0.393574 0.009685
Si Si3 0.180168 0.740575 0.405658
Si Si4 0.861609 0.563374 0.427892
Si Si5 0.228002 0.097025 0.557275
O O1 0.777267 0.265307 0.147390
O O2 0.087606 0.316051 0.111232
O O3 0.898201 0.052268 0.077925
O O4 0.806698 0.362019 0.049712
O O5 0.695805 0.313703 0.953194
O O6 0.585846 0.585846 0.000000
O O7 0.487180 0.294082 0.034528
O O8 0.261967 0.905570 0.378252
O O9 0.989700 0.724837 0.429892
O O10 0.989162 0.406776 0.442621
O O11 0.161347 0.161347 0.500000
#
# Coordination Sequence:
#
# PCOD9549344 Si02
#       5
#     8   8   8   8   8
#     4  10  24  43  71 106 145 199 251 311 388 462
#     4  11  24  43  73 107 146 194 247 314 391 467
#     4  11  24  45  69 103 149 191 252 319 380 469
#     4  10  25  43  67 100 142 195 247 312 383 456
#     4  10  23  44  68 102 149 197 254 316 385 466
#
# _framework density 26.230644000000002
#
# number of rings (size 3 to 8) (size 9 to 14) (size 15 to 20)
#    0.000    1.600    0.000    2.400    0.000   22.400 
#    0.000    0.000    0.000    0.000    0.000    1.400 
#    0.000    0.000    0.000    0.000    0.000    0.000 
#
# Total GULP energy -223570.411100 kJ/mol
# GULP energy per Si atom -5589.260277 kJ/mol
# Density = 2.617094 g / cm^3
# Si number density = 26.230644 Si / 1000 Ang^3
#
#
#
# Elastic Constant Matrix: (Units=GPa)
#
#
# Indices 1 2 3 4 5 6 
#
# 1 3.9241 -52.5351 85.6522 0.0000 0.0000 0.0000
# 2 -52.5351 3.9241 85.6522 0.0000 0.0000 0.0000
# 3 85.6522 85.6522 140.4989 0.0000 0.0000 0.0000
# 4 0.0000 0.0000 0.0000 45.9593 0.0000 0.0000
# 5 0.0000 0.0000 0.0000 0.0000 45.9593 0.0000
# 6 0.0000 0.0000 0.0000 0.0000 0.0000 51.7086
#
#
#
# Elastic Compliance Matrix: (Units=1/GPa)
#
#
# Indices 1 2 3 4 5 6 
#
# 1 0.005589 -0.012123 0.003983 0.000000 0.000000 0.000000
# 2 -0.012123 0.005589 0.003983 0.000000 0.000000 0.000000
# 3 0.003983 0.003983 0.002261 0.000000 0.000000 0.000000
# 4 0.000000 0.000000 0.000000 0.021758 0.000000 0.000000
# 5 0.000000 0.000000 0.000000 0.000000 0.021758 0.000000
# 6 0.000000 0.000000 0.000000 0.000000 0.000000 0.019339
#
#
# Mechanical properties :
#
#
# Convention : Reuss Voigt Hill
#
# Bulk Modulus (GPa) = 195.08283 42.87617 118.97950
# Shear Modulus (GPa) = 57.92688 30.69726 44.31207
#
# Velocity S-wave (km/s) = 4.70442 3.42465 4.11460
# Velocity P-wave (km/s) = 10.20012 5.65853 8.24807
#
# Compressibility (1/GPa) = 0.00512603
#
# Stress axis : x y z
#
# Youngs Moduli (GPa) = 178.92573 178.92573 442.33562
#
# Poissons Ratio (x) = 2.16912 -1.76199
# Poissons Ratio (y) = 2.16912 -1.76199
# Poissons Ratio (z) = -0.71273 -0.71273
#
# Static dielectric constant tensor:
#      x y z
#    x 2.123830 0.000000 0.000000 
#    y 0.000000 2.123830 0.000000 
#    z 0.000000 0.000000 2.035270 
# 
# From -- ./inp_files/3787.got.cif
#   From: 2010.05.17/outbox.cif.g08.bks.cpg/sg92_2_cif.got.tgz:3787.got - 2010.06.03 19:35:17.
