data_PCOD9549119
_publ_section_title
;
Structure prediction by ZEFSAII (Michael W. Deem and Ramdas Pophale) SiO2 
 PCOD9549119
Probable space group: P 41 21 2
;
_chemical_formula_sum "Si O2"
_cell_formula_units_Z 40
_cell_length_a 8.579848
_cell_length_b 8.579848
_cell_length_c 25.232744
_cell_angle_alpha 90.000000
_cell_angle_beta 90.000000
_cell_angle_gamma 90.000000
_cell_volume 1857.477961
_symmetry_space_group_name_H-M "P 41 21 2"
_symmetry_group_IT_number 92
_symmetry_cell_setting 'tetragonal'
loop_
_space_group_symop_operation_xyz
x,y,z
1/2-y,1/2+x,1/4+z
-x,-y,1/2+z
1/2+y,1/2-x,3/4+z
1/2+x,1/2-y,3/4-z
1/2-x,1/2+y,1/4-z
y,x,-z
-y,-x,1/2-z
loop_
_atom_site_type_symbol
_atom_site_label
_atom_site_fract_x
_atom_site_fract_y
_atom_site_fract_z
Si Si1 0.573943 0.573943 0.500000
Si Si2 0.542564 0.772484 0.660265
Si Si3 0.832093 0.900318 0.169372
Si Si4 0.566058 0.673931 0.157307
Si Si5 0.209982 0.395451 0.102451
Si Si6 0.577050 0.422951 0.250000
O O1 0.593738 0.400018 0.478046
O O2 0.686595 0.605697 0.549120
O O3 0.426069 0.733148 0.612570
O O4 0.674570 0.637093 0.652000
O O5 0.449344 0.732401 0.714283
O O6 0.616529 0.941969 0.651261
O O7 0.661045 0.833409 0.166304
O O8 0.869064 0.062888 0.139761
O O9 0.396892 0.742059 0.146243
O O10 0.574256 0.565703 0.208911
#
# Coordination Sequence:
#
# PCOD9549119 Si02
#       6
#     4   8   8   8   8   4
#     4  10  21  38  59  84 114 150 195 244 297 358
#     4  10  21  38  59  85 118 157 200 250 307 365
#     4  10  22  40  59  85 121 157 197 249 304 366
#     4  11  22  39  61  88 122 158 201 251 306 366
#     4  11  21  37  61  87 116 156 201 249 305 366
#     4  10  21  38  59  86 120 156 201 256 305 368
#
# _framework density 21.534575
#
# number of rings (size 3 to 8) (size 9 to 14) (size 15 to 20)
#    0.000    1.600    0.000    6.600    0.000    1.600 
#    0.000   15.000    0.000    0.000    0.000    0.000 
#    0.000    0.000    0.000    0.000    0.000    0.000 
#
# Total GULP energy -223129.900168 kJ/mol
# GULP energy per Si atom -5578.247504 kJ/mol
# Density = 2.148556 g / cm^3
# Si number density = 21.534575 Si / 1000 Ang^3
#
#
#
# Elastic Constant Matrix: (Units=GPa)
#
#
# Indices 1 2 3 4 5 6 
#
# 1 80.6695 8.6694 4.5440 0.0000 0.0000 0.0000
# 2 8.6694 80.6698 4.5434 0.0000 0.0000 0.0000
# 3 4.5440 4.5434 46.5139 0.0000 0.0000 0.0000
# 4 0.0000 0.0000 0.0000 9.8748 0.0000 0.0000
# 5 0.0000 0.0000 0.0000 0.0000 9.8748 0.0000
# 6 0.0000 0.0000 0.0000 0.0000 0.0000 33.7877
#
#
#
# Elastic Compliance Matrix: (Units=1/GPa)
#
#
# Indices 1 2 3 4 5 6 
#
# 1 0.012597 -0.001292 -0.001104 0.000000 0.000000 0.000000
# 2 -0.001292 0.012597 -0.001104 0.000000 0.000000 0.000000
# 3 -0.001104 -0.001104 0.021715 0.000000 0.000000 0.000000
# 4 0.000000 0.000000 0.000000 0.101268 0.000000 0.000000
# 5 0.000000 0.000000 0.000000 0.000000 0.101268 0.000000
# 6 0.000000 0.000000 0.000000 0.000000 0.000000 0.029597
#
#
# Mechanical properties :
#
#
# Convention : Reuss Voigt Hill
#
# Bulk Modulus (GPa) = 25.05732 27.04074 26.04903
# Shear Modulus (GPa) = 16.70311 23.38056 20.04184
#
# Velocity S-wave (km/s) = 2.78806 3.29860 3.05402
# Velocity P-wave (km/s) = 4.69313 5.20499 4.95567
#
# Compressibility (1/GPa) = 0.03990849
#
# Stress axis : x y z
#
# Youngs Moduli (GPa) = 79.38221 79.38268 46.05170
#
# Poissons Ratio (x) = 0.10253 0.05086
# Poissons Ratio (y) = 0.10253 0.05085
# Poissons Ratio (z) = 0.08768 0.08766
#
# Static dielectric constant tensor:
#      x y z
#    x 1.830160 0.000000 0.000000 
#    y 0.000000 1.830160 0.000000 
#    z 0.000000 0.000000 1.764940 
# 
# From -- ./inp_files/3822.got.cif
#   From: 2010.05.17/outbox.cif.g08.bks.cpg/sg92_2_cif.got.tgz:3822.got - 2010.06.03 19:35:17.
