data_PCOD9549901
_publ_section_title
;
Structure prediction by ZEFSAII (Michael W. Deem and Ramdas Pophale) SiO2 
 PCOD9549901
Probable space group: P 42 2 2
;
_chemical_formula_sum "Si O2"
_cell_formula_units_Z 20
_cell_length_a 5.282884
_cell_length_b 5.282884
_cell_length_c 28.277269
_cell_angle_alpha 90.000000
_cell_angle_beta 90.000000
_cell_angle_gamma 90.000000
_cell_volume 789.186437
_symmetry_space_group_name_H-M "P 42 2 2"
_symmetry_group_IT_number 93
_symmetry_cell_setting 'tetragonal'
loop_
_space_group_symop_operation_xyz
x,y,z
-y,x,1/2+z
-x,-y,z
y,-x,1/2+z
x,-y,-z
-x,y,-z
y,x,1/2-z
-y,-x,1/2-z
loop_
_atom_site_type_symbol
_atom_site_label
_atom_site_fract_x
_atom_site_fract_y
_atom_site_fract_z
Si Si1 0.252452 0.163885 0.077728
Si Si2 0.000000 0.500000 0.000000
Si Si3 0.000000 0.000000 0.750000
Si Si4 0.258445 0.659031 0.816113
O O1 0.289229 0.297319 0.128059
O O2 0.500000 0.000000 0.067611
O O3 0.000000 0.000000 0.084311
O O4 0.181447 0.342299 0.034385
O O5 0.782367 0.076858 0.788203
O O6 0.500000 0.500000 0.800261
O O7 0.000000 0.500000 0.808303
#
# Coordination Sequence:
#
# PCOD9549901 Si02
#       4
#     8   2   2   8
#     4  12  28  53  82 118 166 218 281 348 427 520
#     4  12  30  54  80 128 164 226 278 358 436 506
#     4  12  30  48  86 116 160 216 288 356 416 522
#     4  12  28  52  83 119 165 219 278 354 435 516
#
# _framework density 25.342549999999999
#
# number of rings (size 3 to 8) (size 9 to 14) (size 15 to 20)
#    0.000    0.000    4.000    3.600    5.600    4.800 
#    0.000    0.000    0.000    0.000    0.000    0.000 
#    0.000    0.000    0.000    0.000    0.000    0.000 
#
# Total GULP energy -112064.981462 kJ/mol
# GULP energy per Si atom -5603.249073 kJ/mol
# Density = 2.528487 g / cm^3
# Si number density = 25.342550 Si / 1000 Ang^3
#
#
#
# Elastic Constant Matrix: (Units=GPa)
#
#
# Indices 1 2 3 4 5 6 
#
# 1 190.8531 117.3763 81.0484 0.0000 0.0000 0.0000
# 2 117.3763 190.8531 81.0484 0.0000 0.0000 0.0000
# 3 81.0484 81.0484 254.8582 0.0000 0.0000 0.0000
# 4 0.0000 0.0000 0.0000 -7.5563 0.0000 0.0000
# 5 0.0000 0.0000 0.0000 0.0000 -7.5563 0.0000
# 6 0.0000 0.0000 0.0000 0.0000 0.0000 62.5264
#
#
#
# Elastic Compliance Matrix: (Units=1/GPa)
#
#
# Indices 1 2 3 4 5 6 
#
# 1 0.008753 -0.004857 -0.001239 0.000000 0.000000 0.000000
# 2 -0.004857 0.008753 -0.001239 0.000000 0.000000 0.000000
# 3 -0.001239 -0.001239 0.004712 0.000000 0.000000 0.000000
# 4 0.000000 0.000000 0.000000 -0.132341 0.000000 0.000000
# 5 0.000000 0.000000 0.000000 0.000000 -0.132341 0.000000
# 6 0.000000 0.000000 0.000000 0.000000 0.000000 0.015993
#
#
# Mechanical properties :
#
#
# Convention : Reuss Voigt Hill
#
# Bulk Modulus (GPa) = 132.48974 132.83451 132.66212
# Shear Modulus (GPa) = -23.89086 33.28886 4.69900
#
# Velocity S-wave (km/s) = -3.07370 3.62823 1.36317
# Velocity P-wave (km/s) = 6.30842 8.37147 7.41207
#
# Compressibility (1/GPa) = 0.00754775
#
# Stress axis : x y z
#
# Youngs Moduli (GPa) = 114.24891 114.24891 212.23517
#
# Poissons Ratio (x) = 0.55490 0.26295
# Poissons Ratio (y) = 0.55490 0.26295
# Poissons Ratio (z) = 0.14155 0.14155
#
# Static dielectric constant tensor:
#      x y z
#    x 1.980650 0.000000 0.000000 
#    y 0.000000 1.980650 0.000000 
#    z 0.000000 0.000000 2.015090 
# 
# From -- ./inp_files/7087.got.cif
#   From: 2010.05.17/outbox.cif.g08.bks.cpg/sg93_4_cif.got.tgz:7087.got - 2010.06.03 19:38:44.
