data_PCOD9549248
_publ_section_title
;
Structure prediction by ZEFSAII (Michael W. Deem and Ramdas Pophale) SiO2 
 PCOD9549248
Probable space group: P 41 21 2
;
_chemical_formula_sum "Si O2"
_cell_formula_units_Z 48
_cell_length_a 9.157343
_cell_length_b 9.157343
_cell_length_c 28.014533
_cell_angle_alpha 90.000000
_cell_angle_beta 90.000000
_cell_angle_gamma 90.000000
_cell_volume 2349.212756
_symmetry_space_group_name_H-M "P 41 21 2"
_symmetry_group_IT_number 92
_symmetry_cell_setting 'tetragonal'
loop_
_space_group_symop_operation_xyz
x,y,z
1/2-y,1/2+x,1/4+z
-x,-y,1/2+z
1/2+y,1/2-x,3/4+z
1/2+x,1/2-y,3/4-z
1/2-x,1/2+y,1/4-z
y,x,-z
-y,-x,1/2-z
loop_
_atom_site_type_symbol
_atom_site_label
_atom_site_fract_x
_atom_site_fract_y
_atom_site_fract_z
Si Si1 0.513930 0.889139 0.934915
Si Si2 0.800369 0.324354 0.574202
Si Si3 0.746275 0.253726 0.250000
Si Si4 0.204424 0.768790 0.522377
Si Si5 0.005702 0.119106 0.901243
Si Si6 0.579622 0.420379 0.750000
Si Si7 0.728765 0.490700 0.163728
O O1 0.611447 0.780975 0.967503
O O2 0.363847 0.899222 0.963901
O O3 0.468764 0.822359 0.883875
O O4 0.600328 0.040239 0.928653
O O5 0.738193 0.312173 0.520537
O O6 0.692913 0.415480 0.607161
O O7 0.818221 0.157917 0.592898
O O8 0.749787 0.376752 0.207452
O O9 0.275192 0.848254 0.567293
O O10 0.092297 0.892263 0.504316
O O11 0.106130 0.150809 0.948628
O O12 0.993841 0.942924 0.899575
#
# Coordination Sequence:
#
# PCOD9549248 Si02
#       7
#     8   8   4   8   8   4   8
#     4  12  26  40  72 102 130 178 235 284 339 417
#     4  11  24  44  63  99 133 176 220 278 339 414
#     4  12  23  48  70  97 142 184 229 302 344 409
#     4  10  22  43  67  95 131 175 222 270 340 405
#     4  10  22  41  67  89 133 170 220 270 340 402
#     4   8  19  42  64  83 124 174 205 258 338 395
#     4  11  22  45  70  95 137 181 222 283 353 401
#
# _framework density 20.432376000000001
#
# number of rings (size 3 to 8) (size 9 to 14) (size 15 to 20)
#    0.000    1.333    3.333    3.000    7.000    2.667 
#    0.000    0.000    0.000    0.000    0.000    0.000 
#    0.000    0.000    0.000    0.000    0.000    0.000 
#
# Total GULP energy -267395.569616 kJ/mol
# GULP energy per Si atom -5570.741034 kJ/mol
# Density = 2.038587 g / cm^3
# Si number density = 20.432376 Si / 1000 Ang^3
#
#
#
# Elastic Constant Matrix: (Units=GPa)
#
#
# Indices 1 2 3 4 5 6 
#
# 1 44.1977 24.5335 36.6799 0.0000 0.0000 0.0000
# 2 24.5335 44.1992 36.6810 0.0000 0.0000 0.0000
# 3 36.6799 36.6810 103.9299 0.0000 0.0000 0.0000
# 4 0.0000 0.0000 0.0000 36.5543 0.0000 0.0000
# 5 0.0000 0.0000 0.0000 0.0000 36.5541 0.0000
# 6 0.0000 0.0000 0.0000 0.0000 0.0000 20.6009
#
#
#
# Elastic Compliance Matrix: (Units=1/GPa)
#
#
# Indices 1 2 3 4 5 6 
#
# 1 0.037098 -0.013755 -0.008238 0.000000 0.000000 0.000000
# 2 -0.013755 0.037097 -0.008238 0.000000 0.000000 0.000000
# 3 -0.008238 -0.008238 0.015437 0.000000 0.000000 0.000000
# 4 0.000000 0.000000 0.000000 0.027357 0.000000 0.000000
# 5 0.000000 0.000000 0.000000 0.000000 0.027357 0.000000
# 6 0.000000 0.000000 0.000000 0.000000 0.000000 0.048542
#
#
# Mechanical properties :
#
#
# Convention : Reuss Voigt Hill
#
# Bulk Modulus (GPa) = 34.28348 43.12395 38.70372
# Shear Modulus (GPa) = 19.00618 25.03735 22.02176
#
# Velocity S-wave (km/s) = 3.05323 3.50434 3.28653
# Velocity P-wave (km/s) = 5.40787 6.12579 5.77799
#
# Compressibility (1/GPa) = 0.02916857
#
# Stress axis : x y z
#
# Youngs Moduli (GPa) = 26.95588 26.95646 64.77912
#
# Poissons Ratio (x) = 0.37078 0.53367
# Poissons Ratio (y) = 0.37077 0.53368
# Poissons Ratio (z) = 0.22207 0.22208
#
# Static dielectric constant tensor:
#      x y z
#    x 1.749930 0.000000 0.000000 
#    y 0.000000 1.749930 0.000000 
#    z 0.000000 0.000000 1.845800 
# 
# From -- ./inp_files/4534.got.cif
#   From: 2010.05.17/outbox.cif.g08.bks.cpg/sg92_3_cif.got.tgz:4534.got - 2010.06.03 19:35:17.
