data_PCOD9549852
_publ_section_title
;
Structure prediction by ZEFSAII (Michael W. Deem and Ramdas Pophale) SiO2 
 PCOD9549852
Probable space group: P 42 2 2
;
_chemical_formula_sum "Si O2"
_cell_formula_units_Z 48
_cell_length_a 22.087626
_cell_length_b 22.087626
_cell_length_c 5.236937
_cell_angle_alpha 90.000000
_cell_angle_beta 90.000000
_cell_angle_gamma 90.000000
_cell_volume 2554.908960
_symmetry_space_group_name_H-M "P 42 2 2"
_symmetry_group_IT_number 93
_symmetry_cell_setting 'tetragonal'
loop_
_space_group_symop_operation_xyz
x,y,z
-y,x,1/2+z
-x,-y,z
y,-x,1/2+z
x,-y,-z
-x,y,-z
y,x,1/2-z
-y,-x,1/2-z
loop_
_atom_site_type_symbol
_atom_site_label
_atom_site_fract_x
_atom_site_fract_y
_atom_site_fract_z
Si Si1 0.562457 0.348796 0.153165
Si Si2 0.141352 0.754666 0.759898
Si Si3 0.431144 0.220412 0.534340
Si Si4 0.144022 0.958645 0.749225
Si Si5 0.167227 0.677264 0.262746
Si Si6 0.269799 0.346786 0.401785
O O1 0.586114 0.413887 0.250000
O O2 0.561901 0.288556 0.337390
O O3 0.500000 0.351766 0.000000
O O4 0.616854 0.329292 0.970001
O O5 0.195696 0.804305 0.750000
O O6 0.080745 0.794623 0.758489
O O7 0.140480 0.708717 0.517610
O O8 0.149349 0.716787 0.020057
O O9 0.500000 0.200750 0.500000
O O10 0.394070 0.167864 0.686915
O O11 0.392360 0.230817 0.274577
O O12 0.088589 0.911412 0.750000
O O13 0.140215 0.000000 0.500000
O O14 0.142246 0.000000 0.000000
O O15 0.237515 0.675354 0.343850
O O16 0.287940 0.287940 0.250000
#
# Coordination Sequence:
#
# PCOD9549852 Si02
#       6
#     8   8   8   8   8   8
#     4  11  22  34  53  70  93 134 187 249 313 386
#     4  11  23  38  59  90 129 166 209 258 309 362
#     4  11  22  36  55  79 112 146 189 247 320 388
#     4  11  24  43  67  99 140 188 231 270 300 329
#     4  11  23  35  56  85 119 158 199 243 316 386
#     4  11  21  34  55  79 104 144 192 244 312 390
#
# _framework density 18.787362999999999
#
# number of rings (size 3 to 8) (size 9 to 14) (size 15 to 20)
#    0.000    1.000    5.000    2.500    2.333    3.667 
#    0.000    0.000    0.000    9.000    0.000    0.000 
#    0.000   10.000    0.000    0.000    0.000    0.000 
#
# Total GULP energy -267302.445353 kJ/mol
# GULP energy per Si atom -5568.800945 kJ/mol
# Density = 1.874460 g / cm^3
# Si number density = 18.787363 Si / 1000 Ang^3
#
#
#
# Elastic Constant Matrix: (Units=GPa)
#
#
# Indices 1 2 3 4 5 6 
#
# 1 95.4680 79.8612 60.0166 0.0000 0.0000 0.0000
# 2 79.8612 95.4688 60.0165 0.0000 0.0000 0.0000
# 3 60.0166 60.0165 144.3064 0.0000 0.0000 0.0000
# 4 0.0000 0.0000 0.0000 24.0572 0.0000 0.0000
# 5 0.0000 0.0000 0.0000 0.0000 24.0576 0.0000
# 6 0.0000 0.0000 0.0000 0.0000 0.0000 30.0157
#
#
#
# Elastic Compliance Matrix: (Units=1/GPa)
#
#
# Indices 1 2 3 4 5 6 
#
# 1 0.036024 -0.028049 -0.003316 0.000000 0.000000 0.000000
# 2 -0.028049 0.036023 -0.003316 0.000000 0.000000 0.000000
# 3 -0.003316 -0.003316 0.009688 0.000000 0.000000 0.000000
# 4 0.000000 0.000000 0.000000 0.041568 0.000000 0.000000
# 5 0.000000 0.000000 0.000000 0.000000 0.041567 0.000000
# 6 0.000000 0.000000 0.000000 0.000000 0.000000 0.033316
#
#
# Mechanical properties :
#
#
# Convention : Reuss Voigt Hill
#
# Bulk Modulus (GPa) = 80.83580 81.67020 81.25300
# Shear Modulus (GPa) = 18.40447 24.64937 21.52692
#
# Velocity S-wave (km/s) = 3.13328 3.62611 3.38867
# Velocity P-wave (km/s) = 7.49734 7.81644 7.65855
#
# Compressibility (1/GPa) = 0.01237076
#
# Stress axis : x y z
#
# Youngs Moduli (GPa) = 27.75959 27.75992 103.21823
#
# Poissons Ratio (x) = 0.77865 0.34232
# Poissons Ratio (y) = 0.77864 0.34230
# Poissons Ratio (z) = 0.09206 0.09206
#
# Static dielectric constant tensor:
#      x y z
#    x 1.707020 0.000000 0.000000 
#    y 0.000000 1.707030 0.000000 
#    z 0.000000 0.000000 1.810010 
# 
# From -- ./inp_files/689.got.cif
#   From: 2010.05.17/outbox.cif.g08.bks.cpg/sg93_1_cif.got.tgz:689.got - 2010.06.03 19:38:44.
