data_PCOD9549212
_publ_section_title
;
Structure prediction by ZEFSAII (Michael W. Deem and Ramdas Pophale) SiO2 
 PCOD9549212
Probable space group: P 41 21 2
;
_chemical_formula_sum "Si O2"
_cell_formula_units_Z 36
_cell_length_a 12.567657
_cell_length_b 12.567657
_cell_length_c 10.722968
_cell_angle_alpha 90.000000
_cell_angle_beta 90.000000
_cell_angle_gamma 90.000000
_cell_volume 1693.649930
_symmetry_space_group_name_H-M "P 41 21 2"
_symmetry_group_IT_number 92
_symmetry_cell_setting 'tetragonal'
loop_
_space_group_symop_operation_xyz
x,y,z
1/2-y,1/2+x,1/4+z
-x,-y,1/2+z
1/2+y,1/2-x,3/4+z
1/2+x,1/2-y,3/4-z
1/2-x,1/2+y,1/4-z
y,x,-z
-y,-x,1/2-z
loop_
_atom_site_type_symbol
_atom_site_label
_atom_site_fract_x
_atom_site_fract_y
_atom_site_fract_z
Si Si1 0.066776 0.169790 0.664211
Si Si2 0.531379 0.687348 0.860850
Si Si3 0.701977 0.750148 0.233662
Si Si4 0.471994 0.914004 0.947687
Si Si5 0.836779 0.163221 0.750000
O O1 0.177306 0.229589 0.688904
O O2 0.023603 0.198908 0.526371
O O3 0.963813 0.185003 0.750124
O O4 0.103375 0.046991 0.673108
O O5 0.651448 0.651812 0.840547
O O6 0.532944 0.802829 0.923933
O O7 0.628105 0.852443 0.220096
O O8 0.709614 0.715011 0.376669
O O9 0.472302 0.982636 0.820274
#
# Coordination Sequence:
#
# PCOD9549212 Si02
#       5
#     8   8   8   8   4
#     4   9  19  37  60  87 120 161 205 255 316 375
#     4   9  19  38  62  85 115 158 210 260 307 373
#     4  10  22  39  62  90 123 165 213 258 314 378
#     4  11  25  41  62  92 126 166 210 261 319 382
#     4  10  22  38  60  92 128 162 200 262 316 368
#
# _framework density 21.255870000000002
#
# number of rings (size 3 to 8) (size 9 to 14) (size 15 to 20)
#    0.000    2.222    0.000    1.333    0.000   13.333 
#    0.000    2.222    0.000    0.000    0.000    0.000 
#    0.000    0.000    0.000    0.000    0.000    0.000 
#
# Total GULP energy -201064.610830 kJ/mol
# GULP energy per Si atom -5585.128079 kJ/mol
# Density = 2.120749 g / cm^3
# Si number density = 21.255870 Si / 1000 Ang^3
#
#
#
# Elastic Constant Matrix: (Units=GPa)
#
#
# Indices 1 2 3 4 5 6 
#
# 1 87.2211 2.3342 36.9009 0.0000 0.0000 0.0000
# 2 2.3342 87.2198 36.9010 0.0000 0.0000 0.0000
# 3 36.9009 36.9010 74.3266 0.0000 0.0000 0.0000
# 4 0.0000 0.0000 0.0000 29.2757 0.0000 0.0000
# 5 0.0000 0.0000 0.0000 0.0000 29.2760 0.0000
# 6 0.0000 0.0000 0.0000 0.0000 0.0000 12.2568
#
#
#
# Elastic Compliance Matrix: (Units=1/GPa)
#
#
# Indices 1 2 3 4 5 6 
#
# 1 0.015339 0.003559 -0.009383 0.000000 0.000000 0.000000
# 2 0.003559 0.015340 -0.009383 0.000000 0.000000 0.000000
# 3 -0.009383 -0.009383 0.022770 0.000000 0.000000 0.000000
# 4 0.000000 0.000000 0.000000 0.034158 0.000000 0.000000
# 5 0.000000 0.000000 0.000000 0.000000 0.034158 0.000000
# 6 0.000000 0.000000 0.000000 0.000000 0.000000 0.081587
#
#
# Mechanical properties :
#
#
# Convention : Reuss Voigt Hill
#
# Bulk Modulus (GPa) = 43.40790 44.55997 43.98393
# Shear Modulus (GPa) = 20.70876 25.67047 23.18962
#
# Velocity S-wave (km/s) = 3.12470 3.47895 3.30657
# Velocity P-wave (km/s) = 5.78656 6.09480 5.94268
#
# Compressibility (1/GPa) = 0.02303728
#
# Stress axis : x y z
#
# Youngs Moduli (GPa) = 65.19176 65.19046 43.91647
#
# Poissons Ratio (x) = -0.23202 0.41205
# Poissons Ratio (y) = -0.23202 0.41205
# Poissons Ratio (z) = 0.61166 0.61166
#
# Static dielectric constant tensor:
#      x y z
#    x 1.755830 0.000000 0.000000 
#    y 0.000000 1.755830 0.000000 
#    z 0.000000 0.000000 1.784390 
# 
# From -- ./inp_files/1990.got.cif
#   From: 2010.05.17/outbox.cif.g08.bks.cpg/sg92_1_cif.got.tgz:1990.got - 2010.06.03 19:35:17.
