data_PCOD9549865
_publ_section_title
;
Structure prediction by ZEFSAII (Michael W. Deem and Ramdas Pophale) SiO2 
 PCOD9549865
Probable space group: P 42 2 2
;
_chemical_formula_sum "Si O2"
_cell_formula_units_Z 34
_cell_length_a 9.670672
_cell_length_b 9.670672
_cell_length_c 17.412027
_cell_angle_alpha 90.000000
_cell_angle_beta 90.000000
_cell_angle_gamma 90.000000
_cell_volume 1628.405794
_symmetry_space_group_name_H-M "P 42 2 2"
_symmetry_group_IT_number 93
_symmetry_cell_setting 'tetragonal'
loop_
_space_group_symop_operation_xyz
x,y,z
-y,x,1/2+z
-x,-y,z
y,-x,1/2+z
x,-y,-z
-x,y,-z
y,x,1/2-z
-y,-x,1/2-z
loop_
_atom_site_type_symbol
_atom_site_label
_atom_site_fract_x
_atom_site_fract_y
_atom_site_fract_z
Si Si1 0.249826 0.928517 0.597968
Si Si2 0.248780 0.751220 0.750000
Si Si3 0.000000 0.000000 0.500000
Si Si4 0.839437 0.465036 0.284818
Si Si5 0.212362 0.500000 0.000000
Si Si6 0.686393 0.755212 0.629075
O O1 0.243235 0.867130 0.683844
O O2 0.105622 0.909101 0.552141
O O3 0.386458 0.872430 0.552508
O O4 0.261624 0.093720 0.605125
O O5 0.391431 0.761311 0.796111
O O6 0.784654 0.405211 0.204308
O O7 0.804669 0.350901 0.347919
O O8 0.000000 0.500000 0.279925
O O9 0.296274 0.590648 0.060367
#
# Coordination Sequence:
#
# PCOD9549865 Si02
#       6
#     8   4   2   8   4   8
#     4  12  25  44  72 105 141 184 240 290 358 426
#     4  12  26  44  70 102 146 184 230 290 352 424
#     4  12  28  36  68 110 140 176 244 302 348 412
#     4  11  24  43  67 106 141 178 229 290 353 409
#     4  12  21  48  79 100 133 192 243 284 343 448
#     4  11  22  42  75  98 137 183 238 282 346 422
#
# _framework density 20.879317
#
# number of rings (size 3 to 8) (size 9 to 14) (size 15 to 20)
#    0.000    0.471    7.059    1.412    3.294    2.353 
#    0.000    2.353    0.000    2.824    0.000    0.000 
#    0.000    0.000    0.000    0.000    0.000    0.000 
#
# Total GULP energy -189848.372527 kJ/mol
# GULP energy per Si atom -5583.775663 kJ/mol
# Density = 2.083179 g / cm^3
# Si number density = 20.879317 Si / 1000 Ang^3
#
#
#
# Elastic Constant Matrix: (Units=GPa)
#
#
# Indices 1 2 3 4 5 6 
#
# 1 73.0109 16.3865 27.9592 0.0000 0.0000 0.0000
# 2 16.3865 73.0106 27.9595 0.0000 0.0000 0.0000
# 3 27.9592 27.9595 125.2540 0.0000 0.0000 0.0000
# 4 0.0000 0.0000 0.0000 32.0378 0.0000 0.0000
# 5 0.0000 0.0000 0.0000 0.0000 32.0374 0.0000
# 6 0.0000 0.0000 0.0000 0.0000 0.0000 25.7447
#
#
#
# Elastic Compliance Matrix: (Units=1/GPa)
#
#
# Indices 1 2 3 4 5 6 
#
# 1 0.015331 -0.002329 -0.002902 0.000000 0.000000 0.000000
# 2 -0.002329 0.015331 -0.002902 0.000000 0.000000 0.000000
# 3 -0.002902 -0.002902 0.009279 0.000000 0.000000 0.000000
# 4 0.000000 0.000000 0.000000 0.031213 0.000000 0.000000
# 5 0.000000 0.000000 0.000000 0.000000 0.031213 0.000000
# 6 0.000000 0.000000 0.000000 0.000000 0.000000 0.038843
#
#
# Mechanical properties :
#
#
# Convention : Reuss Voigt Hill
#
# Bulk Modulus (GPa) = 42.24144 46.20956 44.22550
# Shear Modulus (GPa) = 30.23532 31.22866 30.73199
#
# Velocity S-wave (km/s) = 3.80952 3.87159 3.84068
# Velocity P-wave (km/s) = 6.29484 6.49349 6.39494
#
# Compressibility (1/GPa) = 0.02367343
#
# Stress axis : x y z
#
# Youngs Moduli (GPa) = 65.22824 65.22785 107.76523
#
# Poissons Ratio (x) = 0.15195 0.31275
# Poissons Ratio (y) = 0.15195 0.31276
# Poissons Ratio (z) = 0.18930 0.18930
#
# Static dielectric constant tensor:
#      x y z
#    x 1.783160 0.000000 0.000000 
#    y 0.000000 1.783160 0.000000 
#    z 0.000000 0.000000 1.855840 
# 
# From -- ./inp_files/6114.got.cif
#   From: 2010.05.17/outbox.cif.g08.bks.cpg/sg93_4_cif.got.tgz:6114.got - 2010.06.03 19:38:44.
