data_PCOD9549914
_publ_section_title
;
Structure prediction by ZEFSAII (Michael W. Deem and Ramdas Pophale) SiO2 
 PCOD9549914
Probable space group: P 42 21 2
;
_chemical_formula_sum "Si O2"
_cell_formula_units_Z 40
_cell_length_a 14.682862
_cell_length_b 14.682862
_cell_length_c 10.115427
_cell_angle_alpha 90.000000
_cell_angle_beta 90.000000
_cell_angle_gamma 90.000000
_cell_volume 2180.748861
_symmetry_space_group_name_H-M "P 42 21 2"
_symmetry_group_IT_number 94
_symmetry_cell_setting 'tetragonal'
loop_
_space_group_symop_operation_xyz
x,y,z
1/2-y,1/2+x,1/2+z
-x,-y,z
1/2+y,1/2-x,1/2+z
1/2+x,1/2-y,1/2-z
1/2-x,1/2+y,1/2-z
y,x,-z
-y,-x,-z
loop_
_atom_site_type_symbol
_atom_site_label
_atom_site_fract_x
_atom_site_fract_y
_atom_site_fract_z
Si Si1 0.312012 0.470422 0.992941
Si Si2 0.310124 0.205304 0.110008
Si Si3 0.170904 0.838803 0.143501
Si Si4 0.525037 0.395345 0.266605
Si Si5 0.785655 0.959404 0.214213
O O1 0.225817 0.408067 0.955620
O O2 0.338473 0.531428 0.868150
O O3 0.395897 0.395897 0.000000
O O4 0.296695 0.524373 0.127872
O O5 0.303735 0.273545 0.235723
O O6 0.294630 0.104350 0.163788
O O7 0.237998 0.237998 0.000000
O O8 0.060878 0.855906 0.152965
O O9 0.214541 0.938211 0.160966
O O10 0.196900 0.803101 0.000000
O O11 0.500000 0.500000 0.232799
O O12 0.622856 0.406187 0.331716
#
# Coordination Sequence:
#
# PCOD9549914 Si02
#       5
#     8   8   8   8   8
#     4  10  16  34  52  78 123 159 178 237 294 350
#     4  10  21  38  54  80 121 157 194 232 292 362
#     4  10  21  35  51  82 126 151 177 251 301 345
#     4   9  17  27  51  83 117 146 183 225 304 367
#     4  11  20  30  59  85 110 157 195 232 295 369
#
# _framework density 18.342323
#
# number of rings (size 3 to 8) (size 9 to 14) (size 15 to 20)
#    0.000    2.000    8.000    0.600    2.800    4.400 
#    0.000    0.000    0.000    0.000    0.000   21.000 
#    0.000    0.000    0.000    0.000    0.000    0.000 
#
# Total GULP energy -222929.709738 kJ/mol
# GULP energy per Si atom -5573.242743 kJ/mol
# Density = 1.830057 g / cm^3
# Si number density = 18.342323 Si / 1000 Ang^3
#
#
#
# Elastic Constant Matrix: (Units=GPa)
#
#
# Indices 1 2 3 4 5 6 
#
# 1 40.7749 25.2651 16.5001 0.0000 0.0000 0.0000
# 2 25.2651 40.7750 16.5001 0.0000 0.0000 0.0000
# 3 16.5001 16.5001 102.6974 0.0000 0.0000 0.0000
# 4 0.0000 0.0000 0.0000 13.1701 0.0000 0.0000
# 5 0.0000 0.0000 0.0000 0.0000 13.1700 0.0000
# 6 0.0000 0.0000 0.0000 0.0000 0.0000 25.0830
#
#
#
# Elastic Compliance Matrix: (Units=1/GPa)
#
#
# Indices 1 2 3 4 5 6 
#
# 1 0.040470 -0.024006 -0.002645 0.000000 0.000000 0.000000
# 2 -0.024006 0.040470 -0.002645 0.000000 0.000000 0.000000
# 3 -0.002645 -0.002645 0.010587 0.000000 0.000000 0.000000
# 4 0.000000 0.000000 0.000000 0.075930 0.000000 0.000000
# 5 0.000000 0.000000 0.000000 0.000000 0.075930 0.000000
# 6 0.000000 0.000000 0.000000 0.000000 0.000000 0.039868
#
#
# Mechanical properties :
#
#
# Convention : Reuss Voigt Hill
#
# Bulk Modulus (GPa) = 30.36315 33.41977 31.89146
# Shear Modulus (GPa) = 14.17135 18.68341 16.42738
#
# Velocity S-wave (km/s) = 2.78259 3.19501 2.99590
# Velocity P-wave (km/s) = 5.18780 5.64538 5.42142
#
# Compressibility (1/GPa) = 0.03293466
#
# Stress axis : x y z
#
# Youngs Moduli (GPa) = 24.70978 24.70983 94.45228
#
# Poissons Ratio (x) = 0.59317 0.24985
# Poissons Ratio (y) = 0.59317 0.24985
# Poissons Ratio (z) = 0.06536 0.06536
#
# Static dielectric constant tensor:
#      x y z
#    x 1.654690 0.000000 0.000000 
#    y 0.000000 1.654700 0.000000 
#    z 0.000000 0.000000 1.669840 
# 
# From -- ./inp_files/2491.got.cif
#   From: 2010.05.17/outbox.cif.g08.bks.cpg/sg94_2_cif.got.tgz:2491.got - 2010.06.03 19:43:16.
