data_PCOD9549306
_publ_section_title
;
Structure prediction by ZEFSAII (Michael W. Deem and Ramdas Pophale) SiO2 
 PCOD9549306
Probable space group: P 41 21 2
;
_chemical_formula_sum "Si O2"
_cell_formula_units_Z 56
_cell_length_a 15.266323
_cell_length_b 15.266323
_cell_length_c 12.042283
_cell_angle_alpha 90.000000
_cell_angle_beta 90.000000
_cell_angle_gamma 90.000000
_cell_volume 2806.581917
_symmetry_space_group_name_H-M "P 41 21 2"
_symmetry_group_IT_number 92
_symmetry_cell_setting 'tetragonal'
loop_
_space_group_symop_operation_xyz
x,y,z
1/2-y,1/2+x,1/4+z
-x,-y,1/2+z
1/2+y,1/2-x,3/4+z
1/2+x,1/2-y,3/4-z
1/2-x,1/2+y,1/4-z
y,x,-z
-y,-x,1/2-z
loop_
_atom_site_type_symbol
_atom_site_label
_atom_site_fract_x
_atom_site_fract_y
_atom_site_fract_z
Si Si1 0.181841 0.158052 0.126281
Si Si2 0.995898 0.366846 0.557597
Si Si3 0.333829 0.985293 0.685809
Si Si4 0.458575 0.506900 0.378366
Si Si5 0.014196 0.325059 0.801847
Si Si6 0.109693 0.799775 0.666610
Si Si7 0.827088 0.647396 0.718788
O O1 0.092025 0.103573 0.133541
O O2 0.257633 0.089016 0.158054
O O3 0.179465 0.249542 0.191517
O O4 0.189207 0.189207 0.000000
O O5 0.921219 0.441850 0.564406
O O6 0.089015 0.415190 0.547008
O O7 0.982262 0.312926 0.444897
O O8 0.995078 0.313299 0.671329
O O9 0.368318 0.079861 0.721980
O O10 0.253091 0.962353 0.763870
O O11 0.508474 0.508474 0.500000
O O12 0.495803 0.504198 0.250000
O O13 0.395990 0.422701 0.385984
O O14 0.923524 0.319530 0.869748
O O15 0.191374 0.808627 0.750000
O O16 0.127447 0.748323 0.555803
#
# Coordination Sequence:
#
# PCOD9549306 Si02
#       7
#     8   8   8   8   8   8   8
#     4  11  24  42  65  94 135 173 226 273 332 396
#     4  10  23  38  63  91 138 163 209 276 332 393
#     4  11  21  40  64  93 123 174 212 257 332 398
#     4  10  22  46  69  94 129 178 226 281 330 397
#     4  11  24  41  63 100 132 171 219 282 331 394
#     4  11  25  42  66  94 131 170 220 271 321 398
#     4  12  23  39  69  96 125 177 219 262 338 398
#
# _framework density 19.953097
#
# number of rings (size 3 to 8) (size 9 to 14) (size 15 to 20)
#    0.000    1.143    2.857    4.286    6.000    0.000 
#    5.143    3.571    0.000    0.000    0.000    0.000 
#    0.000    0.000    0.000    0.000    0.000    0.000 
#
# Total GULP energy -312384.406881 kJ/mol
# GULP energy per Si atom -5578.292980 kJ/mol
# Density = 1.990768 g / cm^3
# Si number density = 19.953097 Si / 1000 Ang^3
#
#
#
# Elastic Constant Matrix: (Units=GPa)
#
#
# Indices 1 2 3 4 5 6 
#
# 1 43.2674 9.5834 32.6151 0.0000 0.0000 0.0000
# 2 9.5834 43.2696 32.6159 0.0000 0.0000 0.0000
# 3 32.6151 32.6159 155.8799 0.0000 0.0000 0.0000
# 4 0.0000 0.0000 0.0000 39.1597 0.0000 0.0000
# 5 0.0000 0.0000 0.0000 0.0000 39.1596 0.0000
# 6 0.0000 0.0000 0.0000 0.0000 0.0000 25.3059
#
#
#
# Elastic Compliance Matrix: (Units=1/GPa)
#
#
# Indices 1 2 3 4 5 6 
#
# 1 0.027598 -0.002089 -0.005337 0.000000 0.000000 0.000000
# 2 -0.002089 0.027597 -0.005337 0.000000 0.000000 0.000000
# 3 -0.005337 -0.005337 0.008649 0.000000 0.000000 0.000000
# 4 0.000000 0.000000 0.000000 0.025536 0.000000 0.000000
# 5 0.000000 0.000000 0.000000 0.000000 0.025537 0.000000
# 6 0.000000 0.000000 0.000000 0.000000 0.000000 0.039517
#
#
# Mechanical properties :
#
#
# Convention : Reuss Voigt Hill
#
# Bulk Modulus (GPa) = 26.09870 43.56064 34.82967
# Shear Modulus (GPa) = 25.94271 31.89853 28.92062
#
# Velocity S-wave (km/s) = 3.60972 4.00268 3.81127
# Velocity P-wave (km/s) = 5.52104 6.57578 6.07136
#
# Compressibility (1/GPa) = 0.03831608
#
# Stress axis : x y z
#
# Youngs Moduli (GPa) = 36.23437 36.23618 115.62503
#
# Poissons Ratio (x) = 0.07571 0.61712
# Poissons Ratio (y) = 0.07571 0.61710
# Poissons Ratio (z) = 0.19339 0.19340
#
# Static dielectric constant tensor:
#      x y z
#    x 1.705450 0.000000 0.000000 
#    y 0.000000 1.705450 0.000000 
#    z 0.000000 0.000000 1.745930 
# 
# From -- ./inp_files/2260.got.cif
#   From: 2010.05.17/outbox.cif.g08.bks.cpg/sg92_2_cif.got.tgz:2260.got - 2010.06.03 19:35:17.
