data_PCOD9549285
_publ_section_title
;
Structure prediction by ZEFSAII (Michael W. Deem and Ramdas Pophale) SiO2 
 PCOD9549285
Probable space group: P 41 21 2
;
_chemical_formula_sum "Si O2"
_cell_formula_units_Z 36
_cell_length_a 13.139908
_cell_length_b 13.139908
_cell_length_c 8.696095
_cell_angle_alpha 90.000000
_cell_angle_beta 90.000000
_cell_angle_gamma 90.000000
_cell_volume 1501.443259
_symmetry_space_group_name_H-M "P 41 21 2"
_symmetry_group_IT_number 92
_symmetry_cell_setting 'tetragonal'
loop_
_space_group_symop_operation_xyz
x,y,z
1/2-y,1/2+x,1/4+z
-x,-y,1/2+z
1/2+y,1/2-x,3/4+z
1/2+x,1/2-y,3/4-z
1/2-x,1/2+y,1/4-z
y,x,-z
-y,-x,1/2-z
loop_
_atom_site_type_symbol
_atom_site_label
_atom_site_fract_x
_atom_site_fract_y
_atom_site_fract_z
Si Si1 0.222741 0.444963 0.753889
Si Si2 0.787678 0.386759 0.051327
Si Si3 0.311290 0.311290 0.500000
Si Si4 0.284248 0.121171 0.035714
Si Si5 0.956493 0.874837 0.249096
O O1 0.165736 0.538245 0.676402
O O2 0.289308 0.404636 0.610545
O O3 0.147268 0.364333 0.831791
O O4 0.301145 0.488464 0.878168
O O5 0.808701 0.277547 0.123084
O O6 0.827120 0.408570 0.879975
O O7 0.662879 0.389576 0.040931
O O8 0.228357 0.228357 0.000000
O O9 0.194143 0.047366 0.095476
O O10 0.021531 0.978470 0.250000
#
# Coordination Sequence:
#
# PCOD9549285 Si02
#       5
#     8   8   4   8   8
#     4  12  23  40  71 100 142 194 231 289 371 427
#     4  11  24  45  66 105 148 182 244 310 354 434
#     4  12  24  44  66 104 146 186 240 300 350 434
#     4  10  22  44  65  99 150 188 234 295 368 434
#     4  11  24  41  67 106 147 181 236 305 363 433
#
# _framework density 23.976931
#
# number of rings (size 3 to 8) (size 9 to 14) (size 15 to 20)
#    0.000    0.889    6.667    0.667    4.667    3.556 
#    0.000    0.000    0.000   21.333    0.000    0.000 
#    0.000    0.000    0.000    0.000    0.000    0.000 
#
# Total GULP energy -201166.114859 kJ/mol
# GULP energy per Si atom -5587.947635 kJ/mol
# Density = 2.392236 g / cm^3
# Si number density = 23.976931 Si / 1000 Ang^3
#
#
#
# Elastic Constant Matrix: (Units=GPa)
#
#
# Indices 1 2 3 4 5 6 
#
# 1 71.1834 -14.4282 7.5844 0.0000 0.0000 0.0000
# 2 -14.4282 71.1819 7.5844 0.0000 0.0000 0.0000
# 3 7.5844 7.5844 43.5129 0.0000 0.0000 0.0000
# 4 0.0000 0.0000 0.0000 2.4238 0.0000 0.0000
# 5 0.0000 0.0000 0.0000 0.0000 2.4328 0.0000
# 6 0.0000 0.0000 0.0000 0.0000 0.0000 34.8851
#
#
#
# Elastic Compliance Matrix: (Units=1/GPa)
#
#
# Indices 1 2 3 4 5 6 
#
# 1 0.015081 0.003400 -0.003221 0.000000 0.000000 0.000000
# 2 0.003400 0.015081 -0.003221 0.000000 0.000000 0.000000
# 3 -0.003221 -0.003221 0.024105 0.000000 0.000000 0.000000
# 4 0.000000 0.000000 0.000000 0.412581 0.000000 0.000000
# 5 0.000000 0.000000 0.000000 0.000000 0.411048 0.000000
# 6 0.000000 0.000000 0.000000 0.000000 0.000000 0.028666
#
#
# Mechanical properties :
#
#
# Convention : Reuss Voigt Hill
#
# Bulk Modulus (GPa) = 20.75502 20.81771 20.78636
# Shear Modulus (GPa) = 5.38384 20.29083 12.83733
#
# Velocity S-wave (km/s) = 1.50010 2.91222 2.31639
# Velocity P-wave (km/s) = 3.41693 4.47317 3.98024
#
# Compressibility (1/GPa) = 0.04818112
#
# Stress axis : x y z
#
# Youngs Moduli (GPa) = 66.31042 66.30903 41.48581
#
# Poissons Ratio (x) = -0.22545 0.13363
# Poissons Ratio (y) = -0.22545 0.13364
# Poissons Ratio (z) = 0.21360 0.21360
#
# Static dielectric constant tensor:
#      x y z
#    x 1.963090 0.000000 0.000000 
#    y 0.000000 1.963090 0.000000 
#    z 0.000000 0.000000 1.882390 
# 
# From -- ./inp_files/1217.got.cif
#   From: 2010.05.17/outbox.cif.g08.bks.cpg/sg92_1_cif.got.tgz:1217.got - 2010.06.03 19:35:17.
