data_PCOD9549189
_publ_section_title
;
Structure prediction by ZEFSAII (Michael W. Deem and Ramdas Pophale) SiO2 
 PCOD9549189
Probable space group: P 41 21 2
;
_chemical_formula_sum "Si O2"
_cell_formula_units_Z 32
_cell_length_a 7.466830
_cell_length_b 7.466830
_cell_length_c 22.071545
_cell_angle_alpha 90.000000
_cell_angle_beta 90.000000
_cell_angle_gamma 90.000000
_cell_volume 1230.566993
_symmetry_space_group_name_H-M "P 41 21 2"
_symmetry_group_IT_number 92
_symmetry_cell_setting 'tetragonal'
loop_
_space_group_symop_operation_xyz
x,y,z
1/2-y,1/2+x,1/4+z
-x,-y,1/2+z
1/2+y,1/2-x,3/4+z
1/2+x,1/2-y,3/4-z
1/2-x,1/2+y,1/4-z
y,x,-z
-y,-x,1/2-z
loop_
_atom_site_type_symbol
_atom_site_label
_atom_site_fract_x
_atom_site_fract_y
_atom_site_fract_z
Si Si1 0.650878 0.624753 0.069733
Si Si2 0.583018 0.031780 0.414671
Si Si3 0.535016 0.728744 0.282417
Si Si4 0.862631 0.177252 0.656715
O O1 0.845230 0.586233 0.098665
O O2 0.527135 0.447717 0.075047
O O3 0.557618 0.776381 0.110294
O O4 0.675335 0.675335 0.000000
O O5 0.659905 0.115437 0.477400
O O6 0.579699 0.821609 0.428861
O O7 0.437983 0.562018 0.250000
O O8 0.665699 0.659646 0.334155
O O9 0.375502 0.841325 0.315666
#
# Coordination Sequence:
#
# PCOD9549189 Si02
#       4
#     8   8   8   8
#     4  12  26  48  71 108 149 197 252 315 383 458
#     4  11  26  45  70 109 146 191 254 306 383 457
#     4  10  21  44  71 105 144 191 250 306 372 457
#     4  11  22  46  75 104 146 197 243 312 381 448
#
# _framework density 26.004276000000001
#
# number of rings (size 3 to 8) (size 9 to 14) (size 15 to 20)
#    0.000    1.000    5.000    3.750    3.500    0.000 
#    9.000    0.000    0.000    0.000    0.000    0.000 
#    0.000    0.000    0.000    0.000    0.000    0.000 
#
# Total GULP energy -179299.840224 kJ/mol
# GULP energy per Si atom -5603.120007 kJ/mol
# Density = 2.594509 g / cm^3
# Si number density = 26.004276 Si / 1000 Ang^3
#
#
#
# Elastic Constant Matrix: (Units=GPa)
#
#
# Indices 1 2 3 4 5 6 
#
# 1 119.9684 34.6024 14.9700 0.0000 0.0000 0.0000
# 2 34.6024 119.9686 14.9699 0.0000 0.0000 0.0000
# 3 14.9700 14.9699 173.4225 0.0000 0.0000 0.0000
# 4 0.0000 0.0000 0.0000 39.5570 0.0000 0.0000
# 5 0.0000 0.0000 0.0000 0.0000 39.5571 0.0000
# 6 0.0000 0.0000 0.0000 0.0000 0.0000 46.2191
#
#
#
# Elastic Compliance Matrix: (Units=1/GPa)
#
#
# Indices 1 2 3 4 5 6 
#
# 1 0.009147 -0.002567 -0.000568 0.000000 0.000000 0.000000
# 2 -0.002567 0.009147 -0.000568 0.000000 0.000000 0.000000
# 3 -0.000568 -0.000568 0.005864 0.000000 0.000000 0.000000
# 4 0.000000 0.000000 0.000000 0.025280 0.000000 0.000000
# 5 0.000000 0.000000 0.000000 0.000000 0.025280 0.000000
# 6 0.000000 0.000000 0.000000 0.000000 0.000000 0.021636
#
#
# Mechanical properties :
#
#
# Convention : Reuss Voigt Hill
#
# Bulk Modulus (GPa) = 59.69584 60.27156 59.98370
# Shear Modulus (GPa) = 45.72708 48.32113 47.02410
#
# Velocity S-wave (km/s) = 4.19793 4.31536 4.25705
# Velocity P-wave (km/s) = 6.81930 6.93236 6.87606
#
# Compressibility (1/GPa) = 0.01675159
#
# Stress axis : x y z
#
# Youngs Moduli (GPa) = 109.32662 109.32689 170.52285
#
# Poissons Ratio (x) = 0.28068 0.09685
# Poissons Ratio (y) = 0.28068 0.09685
# Poissons Ratio (z) = 0.06209 0.06209
#
# Static dielectric constant tensor:
#      x y z
#    x 2.053000 0.000000 0.000000 
#    y 0.000000 2.053000 0.000000 
#    z 0.000000 0.000000 2.050440 
# 
# From -- ./inp_files/3717.got.cif
#   From: 2010.05.17/outbox.cif.g08.bks.cpg/sg92_2_cif.got.tgz:3717.got - 2010.06.03 19:35:17.
