data_PCOD9549956
_publ_section_title
;
Structure prediction by ZEFSAII (Michael W. Deem and Ramdas Pophale) SiO2 
 PCOD9549956
Probable space group: P 42 21 2
;
_chemical_formula_sum "Si O2"
_cell_formula_units_Z 40
_cell_length_a 8.727124
_cell_length_b 8.727124
_cell_length_c 26.500941
_cell_angle_alpha 90.000000
_cell_angle_beta 90.000000
_cell_angle_gamma 90.000000
_cell_volume 2018.383042
_symmetry_space_group_name_H-M "P 42 21 2"
_symmetry_group_IT_number 94
_symmetry_cell_setting 'tetragonal'
loop_
_space_group_symop_operation_xyz
x,y,z
1/2-y,1/2+x,1/2+z
-x,-y,z
1/2+y,1/2-x,1/2+z
1/2+x,1/2-y,1/2-z
1/2-x,1/2+y,1/2-z
y,x,-z
-y,-x,-z
loop_
_atom_site_type_symbol
_atom_site_label
_atom_site_fract_x
_atom_site_fract_y
_atom_site_fract_z
Si Si1 0.329835 0.268947 0.218319
Si Si2 0.902581 0.721588 0.363007
Si Si3 0.350251 0.388984 0.942781
Si Si4 0.984318 0.318818 0.639077
Si Si5 0.166663 0.968965 0.185842
O O1 0.484114 0.247205 0.184965
O O2 0.231812 0.397379 0.189447
O O3 0.356944 0.330909 0.274249
O O4 0.231763 0.114681 0.215795
O O5 0.799108 0.574066 0.353355
O O6 0.005866 0.726786 0.413350
O O7 0.779574 0.860030 0.364373
O O8 0.500000 0.500000 0.942154
O O9 0.382381 0.245039 0.906949
O O10 0.333609 0.333609 0.000000
O O11 0.000000 0.500000 0.637124
O O12 0.000000 0.000000 0.162964
#
# Coordination Sequence:
#
# PCOD9549956 Si02
#       5
#     8   8   8   8   8
#     4  11  22  36  53  75 109 150 190 226 273 336
#     4  10  21  37  56  79 110 146 191 237 278 340
#     4   8  16  34  59  82 105 139 184 232 286 347
#     4  10  19  34  55  80 106 138 182 233 282 330
#     4  12  23  35  53  79 111 150 190 231 280 334
#
# _framework density 19.817844999999998
#
# number of rings (size 3 to 8) (size 9 to 14) (size 15 to 20)
#    0.000    1.800    0.000    7.200    0.000    1.600 
#    0.000    4.000    0.000    0.000    0.000    9.800 
#    0.000    1.600    0.000    0.000    0.000    0.000 
#
# Total GULP energy -223385.218447 kJ/mol
# GULP energy per Si atom -5584.630461 kJ/mol
# Density = 1.977274 g / cm^3
# Si number density = 19.817845 Si / 1000 Ang^3
#
#
#
# Elastic Constant Matrix: (Units=GPa)
#
#
# Indices 1 2 3 4 5 6 
#
# 1 103.9301 20.0383 17.9590 0.0000 0.0000 0.0000
# 2 20.0383 103.9301 17.9590 0.0000 0.0000 0.0000
# 3 17.9590 17.9590 98.7260 0.0000 0.0000 0.0000
# 4 0.0000 0.0000 0.0000 14.2024 0.0000 0.0000
# 5 0.0000 0.0000 0.0000 0.0000 14.2024 0.0000
# 6 0.0000 0.0000 0.0000 0.0000 0.0000 30.0108
#
#
#
# Elastic Compliance Matrix: (Units=1/GPa)
#
#
# Indices 1 2 3 4 5 6 
#
# 1 0.010218 -0.001702 -0.001549 0.000000 0.000000 0.000000
# 2 -0.001702 0.010218 -0.001549 0.000000 0.000000 0.000000
# 3 -0.001549 -0.001549 0.010693 0.000000 0.000000 0.000000
# 4 0.000000 0.000000 0.000000 0.070411 0.000000 0.000000
# 5 0.000000 0.000000 0.000000 0.000000 0.070411 0.000000
# 6 0.000000 0.000000 0.000000 0.000000 0.000000 0.033321
#
#
# Mechanical properties :
#
#
# Convention : Reuss Voigt Hill
#
# Bulk Modulus (GPa) = 46.45264 46.49987 46.47625
# Shear Modulus (GPa) = 22.51774 28.39178 25.45476
#
# Velocity S-wave (km/s) = 3.37447 3.78913 3.58779
# Velocity P-wave (km/s) = 6.21879 6.53130 6.37696
#
# Compressibility (1/GPa) = 0.02152730
#
# Stress axis : x y z
#
# Youngs Moduli (GPa) = 97.86894 97.86894 93.52266
#
# Poissons Ratio (x) = 0.16661 0.14487
# Poissons Ratio (y) = 0.16661 0.14487
# Poissons Ratio (z) = 0.15160 0.15160
#
# Static dielectric constant tensor:
#      x y z
#    x 1.723210 0.000000 0.000000 
#    y 0.000000 1.723210 0.000000 
#    z 0.000000 0.000000 1.702300 
# 
# From -- ./inp_files/5256.got.cif
#   From: 2010.05.17/outbox.cif.g08.bks.cpg/sg94_3_cif.got.tgz:5256.got - 2010.06.03 19:43:16.
