data_PCOD9549996
_publ_section_title
;
Structure prediction by ZEFSAII (Michael W. Deem and Ramdas Pophale) SiO2 
 PCOD9549996
Probable space group: P 42 21 2
;
_chemical_formula_sum "Si O2"
_cell_formula_units_Z 30
_cell_length_a 17.201057
_cell_length_b 17.201057
_cell_length_c 5.408593
_cell_angle_alpha 90.000000
_cell_angle_beta 90.000000
_cell_angle_gamma 90.000000
_cell_volume 1600.274820
_symmetry_space_group_name_H-M "P 42 21 2"
_symmetry_group_IT_number 94
_symmetry_cell_setting 'tetragonal'
loop_
_space_group_symop_operation_xyz
x,y,z
1/2-y,1/2+x,1/2+z
-x,-y,z
1/2+y,1/2-x,1/2+z
1/2+x,1/2-y,1/2-z
1/2-x,1/2+y,1/2-z
y,x,-z
-y,-x,-z
loop_
_atom_site_type_symbol
_atom_site_label
_atom_site_fract_x
_atom_site_fract_y
_atom_site_fract_z
Si Si1 0.192370 0.807631 0.500000
Si Si2 0.500000 0.500000 0.000000
Si Si3 0.511937 0.809960 0.594071
Si Si4 0.546489 0.639447 0.688451
Si Si5 0.845652 0.608461 0.903418
O O1 0.172953 0.872526 0.295206
O O2 0.173928 0.721678 0.408645
O O3 0.586439 0.500654 0.119813
O O4 0.503578 0.715900 0.591619
O O5 0.429728 0.852836 0.590828
O O6 0.559560 0.833776 0.348398
O O7 0.556060 0.833015 0.849680
O O8 0.574042 0.574042 0.500000
#
# Coordination Sequence:
#
# PCOD9549996 Si02
#       5
#     4   2   8   8   8
#     4   9  20  39  62  84 123 168 207 246 318 384
#     4  10  22  36  60  94 120 164 204 268 304 382
#     4  11  24  41  67  92 127 168 212 261 320 376
#     4  10  19  40  62  85 126 166 205 253 328 377
#     4  11  23  42  63  94 124 167 212 262 315 376
#
# _framework density 18.746779
#
# number of rings (size 3 to 8) (size 9 to 14) (size 15 to 20)
#    0.000    1.600    2.667    2.000    0.000    3.200 
#    4.800    2.667    0.000    0.000    0.000    0.000 
#    0.000    0.000    0.000    0.000    0.000    0.000 
#
# Total GULP energy -167165.540311 kJ/mol
# GULP energy per Si atom -5572.184677 kJ/mol
# Density = 1.870411 g / cm^3
# Si number density = 18.746779 Si / 1000 Ang^3
#
#
#
# Elastic Constant Matrix: (Units=GPa)
#
#
# Indices 1 2 3 4 5 6 
#
# 1 113.3563 114.7932 54.6301 0.0000 0.0000 0.0000
# 2 114.7932 113.3557 54.6293 0.0000 0.0000 0.0000
# 3 54.6301 54.6293 109.4776 0.0000 0.0000 0.0000
# 4 0.0000 0.0000 0.0000 -471.6905 0.0000 0.0000
# 5 0.0000 0.0000 0.0000 0.0000 -471.1715 0.0000
# 6 0.0000 0.0000 0.0000 0.0000 0.0000 35.9726
#
#
#
# Elastic Compliance Matrix: (Units=1/GPa)
#
#
# Indices 1 2 3 4 5 6 
#
# 1 -0.345030 0.350789 -0.002871 0.000000 0.000000 0.000000
# 2 0.350789 -0.345029 -0.002877 0.000000 0.000000 0.000000
# 3 -0.002871 -0.002877 0.012003 0.000000 0.000000 0.000000
# 4 0.000000 0.000000 0.000000 -0.002120 0.000000 0.000000
# 5 0.000000 0.000000 0.000000 0.000000 -0.002122 0.000000
# 6 0.000000 0.000000 0.000000 0.000000 0.000000 0.027799
#
#
# Mechanical properties :
#
#
# Convention : Reuss Voigt Hill
#
# Bulk Modulus (GPa) = 83.15669 87.14387 85.15028
# Shear Modulus (GPa) = -3.72975 -173.90210 -88.81593
#
# Velocity S-wave (km/s) = -1.41204 -9.64184 -6.89054
# Velocity P-wave (km/s) = 6.46496 8.79590 4.21736
#
# Compressibility (1/GPa) = 0.01202549
#
# Stress axis : x y z
#
# Youngs Moduli (GPa) = -2.89830 -2.89831 83.31570
#
# Poissons Ratio (x) = 1.01669 0.23922
# Poissons Ratio (y) = 1.01669 0.23967
# Poissons Ratio (z) = -0.00832 -0.00834
#
# Static dielectric constant tensor:
#      x y z
#    x 1.855710 0.000000 0.000000 
#    y 0.000000 1.855460 0.000000 
#    z 0.000000 0.000000 1.665020 
# 
# From -- ./inp_files/258.got.cif
#   From: 2010.05.17/outbox.cif.g08.bks.cpg/sg94_1_cif.got.tgz:258.got - 2010.06.03 19:43:16.
