data_PCOD9549035
_publ_section_title
;
Structure prediction by ZEFSAII (Michael W. Deem and Ramdas Pophale) SiO2 
 PCOD9549035
Probable space group: P 41 21 2
;
_chemical_formula_sum "Si O2"
_cell_formula_units_Z 40
_cell_length_a 8.538555
_cell_length_b 8.538555
_cell_length_c 22.668852
_cell_angle_alpha 90.000000
_cell_angle_beta 90.000000
_cell_angle_gamma 90.000000
_cell_volume 1652.716213
_symmetry_space_group_name_H-M "P 41 21 2"
_symmetry_group_IT_number 92
_symmetry_cell_setting 'tetragonal'
loop_
_space_group_symop_operation_xyz
x,y,z
1/2-y,1/2+x,1/4+z
-x,-y,1/2+z
1/2+y,1/2-x,3/4+z
1/2+x,1/2-y,3/4-z
1/2-x,1/2+y,1/4-z
y,x,-z
-y,-x,1/2-z
loop_
_atom_site_type_symbol
_atom_site_label
_atom_site_fract_x
_atom_site_fract_y
_atom_site_fract_z
Si Si1 0.887698 0.772570 0.169347
Si Si2 0.913871 0.190529 0.871433
Si Si3 0.096047 0.836765 0.001490
Si Si4 0.957313 0.765316 0.595558
Si Si5 0.779743 0.130008 0.183878
O O1 0.820027 0.640226 0.214131
O O2 0.865404 0.698123 0.103734
O O3 0.064458 0.836929 0.173008
O O4 0.794507 0.940340 0.177433
O O5 0.891986 0.362755 0.847738
O O6 0.091435 0.156288 0.888130
O O7 0.827403 0.164119 0.933682
O O8 0.198820 0.963887 0.966020
O O9 0.923449 0.923449 0.000000
O O10 0.085721 0.786880 0.645457
O O11 0.814679 0.185321 0.250000
#
# Coordination Sequence:
#
# PCOD9549035 Si02
#       5
#     8   8   8   8   8
#     4  10  22  38  63  92 118 159 210 247 298 365
#     4  10  20  38  60  86 120 154 196 249 296 358
#     4   9  19  39  61  82 120 159 190 244 307 350
#     4   9  20  37  58  84 120 160 197 241 304 364
#     4  10  21  38  59  88 124 158 200 255 304 359
#
# _framework density 24.202582
#
# number of rings (size 3 to 8) (size 9 to 14) (size 15 to 20)
#    0.000    2.400    0.000    2.400    0.000    8.800 
#    0.000   22.000    0.000    0.000    0.000    0.000 
#    0.000    0.000    0.000    0.000    0.000    0.000 
#
# Total GULP energy -223093.726341 kJ/mol
# GULP energy per Si atom -5577.343159 kJ/mol
# Density = 2.414750 g / cm^3
# Si number density = 24.202582 Si / 1000 Ang^3
#
#
#
# Elastic Constant Matrix: (Units=GPa)
#
#
# Indices 1 2 3 4 5 6 
#
# 1 50.4125 37.8808 20.2960 0.0000 0.0000 0.0000
# 2 37.8808 50.4125 20.2960 0.0000 0.0000 0.0000
# 3 20.2960 20.2960 94.4429 0.0000 0.0000 0.0000
# 4 0.0000 0.0000 0.0000 17.9470 0.0000 0.0000
# 5 0.0000 0.0000 0.0000 0.0000 17.9470 0.0000
# 6 0.0000 0.0000 0.0000 0.0000 0.0000 46.4868
#
#
#
# Elastic Compliance Matrix: (Units=1/GPa)
#
#
# Indices 1 2 3 4 5 6 
#
# 1 0.046183 -0.033615 -0.002701 0.000000 0.000000 0.000000
# 2 -0.033615 0.046183 -0.002701 0.000000 0.000000 0.000000
# 3 -0.002701 -0.002701 0.011749 0.000000 0.000000 0.000000
# 4 0.000000 0.000000 0.000000 0.055720 0.000000 0.000000
# 5 0.000000 0.000000 0.000000 0.000000 0.055720 0.000000
# 6 0.000000 0.000000 0.000000 0.000000 0.000000 0.021512
#
#
# Mechanical properties :
#
#
# Convention : Reuss Voigt Hill
#
# Bulk Modulus (GPa) = 38.34187 39.13483 38.73835
# Shear Modulus (GPa) = 15.44198 24.26248 19.85223
#
# Velocity S-wave (km/s) = 2.52867 3.16962 2.86711
# Velocity P-wave (km/s) = 4.93984 5.44060 5.19626
#
# Compressibility (1/GPa) = 0.02608115
#
# Stress axis : x y z
#
# Youngs Moduli (GPa) = 21.65312 21.65312 85.11197
#
# Poissons Ratio (x) = 0.72787 0.22987
# Poissons Ratio (y) = 0.72787 0.22987
# Poissons Ratio (z) = 0.05848 0.05848
#
# Static dielectric constant tensor:
#      x y z
#    x 1.228600 0.000000 0.000000 
#    y 0.000000 1.228600 0.000000 
#    z 0.000000 0.000000 2.004390 
# 
# From -- ./inp_files/4169.got.cif
#   From: 2010.05.17/outbox.cif.g08.bks.cpg/sg92_3_cif.got.tgz:4169.got - 2010.06.03 19:35:17.
