data_PCOD9549743
_publ_section_title
;
Structure prediction by ZEFSAII (Michael W. Deem and Ramdas Pophale) SiO2 
 PCOD9549743
Probable space group: P 42 2 2
;
_chemical_formula_sum "Si O2"
_cell_formula_units_Z 36
_cell_length_a 15.514231
_cell_length_b 15.514231
_cell_length_c 8.013238
_cell_angle_alpha 90.000000
_cell_angle_beta 90.000000
_cell_angle_gamma 90.000000
_cell_volume 1928.717180
_symmetry_space_group_name_H-M "P 42 2 2"
_symmetry_group_IT_number 93
_symmetry_cell_setting 'tetragonal'
loop_
_space_group_symop_operation_xyz
x,y,z
-y,x,1/2+z
-x,-y,z
y,-x,1/2+z
x,-y,-z
-x,y,-z
y,x,1/2-z
-y,-x,1/2-z
loop_
_atom_site_type_symbol
_atom_site_label
_atom_site_fract_x
_atom_site_fract_y
_atom_site_fract_z
Si Si1 0.318033 0.488931 0.816138
Si Si2 0.000000 0.500000 0.000000
Si Si3 0.500000 0.500000 0.750000
Si Si4 0.613036 0.848636 0.333655
Si Si5 0.101522 0.400737 0.514552
Si Si6 0.197444 0.324422 0.818117
O O1 0.398169 0.499790 0.693080
O O2 0.238508 0.555975 0.816175
O O3 0.271732 0.397287 0.805932
O O4 0.359212 0.500000 0.000000
O O5 0.067296 0.555237 0.886487
O O6 0.648476 0.863455 0.148611
O O7 0.675005 0.834087 0.491325
O O8 0.134240 0.500000 0.500000
O O9 0.127142 0.359550 0.689047
O O10 0.000000 0.403660 0.500000
O O11 0.236512 0.236512 0.750000
#
# Coordination Sequence:
#
# PCOD9549743 Si02
#       6
#     8   2   2   8   8   8
#     4  10  21  36  46  72 100 145 206 248 289 331
#     4  12  16  36  66  78 112 142 186 272 326 366
#     4  12  22  36  56  66 108 174 220 254 266 316
#     4  11  21  36  56  81 110 142 194 255 313 361
#     4  11  21  35  60  86 106 142 195 252 317 371
#     4  11  22  38  53  76 115 149 193 246 297 355
#
# _framework density 18.665255999999999
#
# number of rings (size 3 to 8) (size 9 to 14) (size 15 to 20)
#    0.000    1.111    6.667    3.000    0.000    4.444 
#    4.000    0.000    0.000    0.000    0.000    0.000 
#    0.000    0.000    0.000   29.000    0.444    0.000 
#
# Total GULP energy -200500.293591 kJ/mol
# GULP energy per Si atom -5569.452600 kJ/mol
# Density = 1.862277 g / cm^3
# Si number density = 18.665256 Si / 1000 Ang^3
#
#
#
# Elastic Constant Matrix: (Units=GPa)
#
#
# Indices 1 2 3 4 5 6 
#
# 1 63.1726 10.6181 19.8051 0.0000 0.0000 0.0000
# 2 10.6181 63.1726 19.8051 0.0000 0.0000 0.0000
# 3 19.8051 19.8051 126.4841 0.0000 0.0000 0.0000
# 4 0.0000 0.0000 0.0000 9.1128 0.0000 0.0000
# 5 0.0000 0.0000 0.0000 0.0000 9.1128 0.0000
# 6 0.0000 0.0000 0.0000 0.0000 0.0000 3.8175
#
#
#
# Elastic Compliance Matrix: (Units=1/GPa)
#
#
# Indices 1 2 3 4 5 6 
#
# 1 0.016912 -0.002116 -0.002317 0.000000 0.000000 0.000000
# 2 -0.002116 0.016912 -0.002317 0.000000 0.000000 0.000000
# 3 -0.002317 -0.002317 0.008632 0.000000 0.000000 0.000000
# 4 0.000000 0.000000 0.000000 0.109736 0.000000 0.000000
# 5 0.000000 0.000000 0.000000 0.000000 0.109736 0.000000
# 6 0.000000 0.000000 0.000000 0.000000 0.000000 0.261954
#
#
# Mechanical properties :
#
#
# Convention : Reuss Voigt Hill
#
# Bulk Modulus (GPa) = 34.53550 39.25399 36.89475
# Shear Modulus (GPa) = 9.14024 17.91533 13.52778
#
# Velocity S-wave (km/s) = 2.21530 3.10146 2.69505
# Velocity P-wave (km/s) = 5.00861 5.82251 5.43082
#
# Compressibility (1/GPa) = 0.02895571
#
# Stress axis : x y z
#
# Youngs Moduli (GPa) = 59.13081 59.13081 115.85285
#
# Poissons Ratio (x) = 0.12513 0.26840
# Poissons Ratio (y) = 0.12513 0.26840
# Poissons Ratio (z) = 0.13699 0.13699
#
# Static dielectric constant tensor:
#      x y z
#    x 1.670030 0.000000 0.000000 
#    y 0.000000 1.670030 0.000000 
#    z 0.000000 0.000000 1.789070 
# 
# From -- ./inp_files/1732.got.cif
#   From: 2010.05.17/outbox.cif.g08.bks.cpg/sg93_1_cif.got.tgz:1732.got - 2010.06.03 19:38:44.
