data_PCOD9549921
_publ_section_title
;
Structure prediction by ZEFSAII (Michael W. Deem and Ramdas Pophale) SiO2 
 PCOD9549921
Probable space group: P 42 21 2
;
_chemical_formula_sum "Si O2"
_cell_formula_units_Z 38
_cell_length_a 21.037724
_cell_length_b 21.037724
_cell_length_c 4.932701
_cell_angle_alpha 90.000000
_cell_angle_beta 90.000000
_cell_angle_gamma 90.000000
_cell_volume 2183.143572
_symmetry_space_group_name_H-M "P 42 21 2"
_symmetry_group_IT_number 94
_symmetry_cell_setting 'tetragonal'
loop_
_space_group_symop_operation_xyz
x,y,z
1/2-y,1/2+x,1/2+z
-x,-y,z
1/2+y,1/2-x,1/2+z
1/2+x,1/2-y,1/2-z
1/2-x,1/2+y,1/2-z
y,x,-z
-y,-x,-z
loop_
_atom_site_type_symbol
_atom_site_label
_atom_site_fract_x
_atom_site_fract_y
_atom_site_fract_z
Si Si1 0.119388 0.599800 0.019366
Si Si2 0.074345 0.212334 0.112458
Si Si3 0.750320 0.345149 0.110815
Si Si4 0.000000 0.000000 0.500000
Si Si5 0.656583 0.981505 0.984090
Si Si6 0.565200 0.434801 0.500000
O O1 0.174225 0.651500 0.075956
O O2 0.128006 0.570969 0.720764
O O3 0.050344 0.628023 0.068382
O O4 0.136265 0.541999 0.219892
O O5 0.132509 0.230319 0.909446
O O6 0.022749 0.267075 0.049937
O O7 0.055877 0.139467 0.073008
O O8 0.099755 0.222477 0.415163
O O9 0.718563 0.281438 0.000000
O O10 0.021055 0.051389 0.735500
#
# Coordination Sequence:
#
# PCOD9549921 Si02
#       6
#     8   8   8   2   8   4
#     4  10  21  33  52  74 111 133 182 210 261 313
#     4  10  19  31  57  76 101 128 177 216 268 288
#     4  10  17  31  51  81  94 125 171 225 263 298
#     4  10  24  30  52  78 106 130 170 194 284 310
#     4  10  21  35  50  82 101 147 171 219 255 319
#     4  11  18  36  52  80 101 138 165 236 242 317
#
# _framework density 17.406092000000001
#
# number of rings (size 3 to 8) (size 9 to 14) (size 15 to 20)
#    0.000    1.895    2.105    2.526    0.000    2.526 
#    0.000    0.000    4.632    0.000    0.000    0.000 
#    0.000    0.000    0.000    0.000    0.000    0.000 
#
# Total GULP energy -211542.325749 kJ/mol
# GULP energy per Si atom -5566.903309 kJ/mol
# Density = 1.736647 g / cm^3
# Si number density = 17.406092 Si / 1000 Ang^3
#
#
#
# Elastic Constant Matrix: (Units=GPa)
#
#
# Indices 1 2 3 4 5 6 
#
# 1 49.7912 69.0490 -11.1191 0.0000 0.0000 0.0000
# 2 69.0490 49.7928 -11.1212 0.0000 0.0000 0.0000
# 3 -11.1191 -11.1212 56.0577 0.0000 0.0000 0.0000
# 4 0.0000 0.0000 0.0000 16.2813 0.0000 0.0000
# 5 0.0000 0.0000 0.0000 0.0000 16.2815 0.0000
# 6 0.0000 0.0000 0.0000 0.0000 0.0000 22.3942
#
#
#
# Elastic Compliance Matrix: (Units=1/GPa)
#
#
# Indices 1 2 3 4 5 6 
#
# 1 -0.021595 0.030334 0.001734 0.000000 0.000000 0.000000
# 2 0.030334 -0.021595 0.001733 0.000000 0.000000 0.000000
# 3 0.001734 0.001733 0.018527 0.000000 0.000000 0.000000
# 4 0.000000 0.000000 0.000000 0.061420 0.000000 0.000000
# 5 0.000000 0.000000 0.000000 0.000000 0.061419 0.000000
# 6 0.000000 0.000000 0.000000 0.000000 0.000000 0.044654
#
#
# Mechanical properties :
#
#
# Convention : Reuss Voigt Hill
#
# Bulk Modulus (GPa) = 23.28896 27.69547 25.49221
# Shear Modulus (GPa) = 55.84049 18.24693 37.04371
#
# Velocity S-wave (km/s) = 5.67015 3.24127 4.61825
# Velocity P-wave (km/s) = 7.50176 5.47300 6.56620
#
# Compressibility (1/GPa) = 0.04293881
#
# Stress axis : x y z
#
# Youngs Moduli (GPa) = -46.30650 -46.30727 53.97664
#
# Poissons Ratio (x) = 1.40469 -0.09362
# Poissons Ratio (y) = 1.40467 -0.09352
# Poissons Ratio (z) = 0.08032 0.08023
#
# Static dielectric constant tensor:
#      x y z
#    x 1.585240 0.000000 0.000000 
#    y 0.000000 1.585240 0.000000 
#    z 0.000000 0.000000 1.600910 
# 
# From -- ./inp_files/454.got.cif
#   From: 2010.05.17/outbox.cif.g08.bks.cpg/sg94_1_cif.got.tgz:454.got - 2010.06.03 19:43:16.
