data_PCOD9549201
_publ_section_title
;
Structure prediction by ZEFSAII (Michael W. Deem and Ramdas Pophale) SiO2 
 PCOD9549201
Probable space group: P 41 21 2
;
_chemical_formula_sum "Si O2"
_cell_formula_units_Z 40
_cell_length_a 14.386295
_cell_length_b 14.386295
_cell_length_c 8.483245
_cell_angle_alpha 90.000000
_cell_angle_beta 90.000000
_cell_angle_gamma 90.000000
_cell_volume 1755.738906
_symmetry_space_group_name_H-M "P 41 21 2"
_symmetry_group_IT_number 92
_symmetry_cell_setting 'tetragonal'
loop_
_space_group_symop_operation_xyz
x,y,z
1/2-y,1/2+x,1/4+z
-x,-y,1/2+z
1/2+y,1/2-x,3/4+z
1/2+x,1/2-y,3/4-z
1/2-x,1/2+y,1/4-z
y,x,-z
-y,-x,1/2-z
loop_
_atom_site_type_symbol
_atom_site_label
_atom_site_fract_x
_atom_site_fract_y
_atom_site_fract_z
Si Si1 0.983709 0.983709 0.500000
Si Si2 0.171155 0.171155 0.500000
Si Si3 0.473359 0.692878 0.479118
Si Si4 0.789275 0.649534 0.816507
Si Si5 0.812197 0.187804 0.750000
Si Si6 0.104128 0.895873 0.750000
Si Si7 0.889409 0.490412 0.636102
O O1 0.892566 0.978970 0.609218
O O2 0.073594 0.966130 0.610201
O O3 0.167085 0.095192 0.366281
O O4 0.164639 0.272706 0.422357
O O5 0.579168 0.704588 0.538458
O O6 0.442959 0.790082 0.399950
O O7 0.746078 0.699442 0.660329
O O8 0.861051 0.573728 0.754234
O O9 0.705702 0.601925 0.917502
O O10 0.964161 0.427975 0.725885
#
# Coordination Sequence:
#
# PCOD9549201 Si02
#       7
#     4   4   8   8   4   4   8
#     4  12  24  40  72 108 152 190 232 296 366 464
#     4  11  28  43  77 105 144 190 242 302 352 461
#     4  11  27  45  70 111 141 193 235 301 369 439
#     4  10  25  48  72 105 147 191 240 303 366 435
#     4  10  21  47  73 101 146 188 222 306 368 432
#     4  11  23  44  68 112 148 190 230 296 374 431
#     4  11  27  51  74 103 139 194 250 307 355 426
#
# _framework density 22.782430000000002
#
# number of rings (size 3 to 8) (size 9 to 14) (size 15 to 20)
#    0.000    1.200    4.000    0.600   14.000    0.800 
#    3.600    0.000    0.000    0.000    0.000    0.000 
#    0.000    0.000    0.000    0.000    0.000    0.000 
#
# Total GULP energy -223750.852537 kJ/mol
# GULP energy per Si atom -5593.771313 kJ/mol
# Density = 2.273058 g / cm^3
# Si number density = 22.782430 Si / 1000 Ang^3
#
#
#
# Elastic Constant Matrix: (Units=GPa)
#
#
# Indices 1 2 3 4 5 6 
#
# 1 51.8340 19.0824 31.7892 0.0000 0.0000 0.0000
# 2 19.0824 51.8330 31.7889 0.0000 0.0000 0.0000
# 3 31.7892 31.7889 110.9815 0.0000 0.0000 0.0000
# 4 0.0000 0.0000 0.0000 42.5506 0.0000 0.0000
# 5 0.0000 0.0000 0.0000 0.0000 42.5503 0.0000
# 6 0.0000 0.0000 0.0000 0.0000 0.0000 25.0669
#
#
#
# Elastic Compliance Matrix: (Units=1/GPa)
#
#
# Indices 1 2 3 4 5 6 
#
# 1 0.024753 -0.005780 -0.005435 0.000000 0.000000 0.000000
# 2 -0.005780 0.024754 -0.005435 0.000000 0.000000 0.000000
# 3 -0.005435 -0.005435 0.012124 0.000000 0.000000 0.000000
# 4 0.000000 0.000000 0.000000 0.023501 0.000000 0.000000
# 5 0.000000 0.000000 0.000000 0.000000 0.023502 0.000000
# 6 0.000000 0.000000 0.000000 0.000000 0.000000 0.039893
#
#
# Mechanical properties :
#
#
# Convention : Reuss Voigt Hill
#
# Bulk Modulus (GPa) = 35.29553 42.21886 38.75719
# Shear Modulus (GPa) = 26.14108 30.83275 28.48691
#
# Velocity S-wave (km/s) = 3.39104 3.68279 3.53992
# Velocity P-wave (km/s) = 5.55502 6.05438 5.81007
#
# Compressibility (1/GPa) = 0.02833220
#
# Stress axis : x y z
#
# Youngs Moduli (GPa) = 40.39880 40.39797 82.48172
#
# Poissons Ratio (x) = 0.23350 0.44826
# Poissons Ratio (y) = 0.23350 0.44827
# Poissons Ratio (z) = 0.21955 0.21955
#
# Static dielectric constant tensor:
#      x y z
#    x 1.865190 0.000000 0.000000 
#    y 0.000000 1.865200 0.000000 
#    z 0.000000 0.000000 1.793070 
# 
# From -- ./inp_files/1404.got.cif
#   From: 2010.05.17/outbox.cif.g08.bks.cpg/sg92_1_cif.got.tgz:1404.got - 2010.06.03 19:35:17.
