data_PCOD9549630
_publ_section_title
;
Structure prediction by ZEFSAII (Michael W. Deem and Ramdas Pophale) SiO2 
 PCOD9549630
Probable space group: P 42 2 2
;
_chemical_formula_sum "Si O2"
_cell_formula_units_Z 40
_cell_length_a 14.947135
_cell_length_b 14.947135
_cell_length_c 9.515890
_cell_angle_alpha 90.000000
_cell_angle_beta 90.000000
_cell_angle_gamma 90.000000
_cell_volume 2126.010118
_symmetry_space_group_name_H-M "P 42 2 2"
_symmetry_group_IT_number 93
_symmetry_cell_setting 'tetragonal'
loop_
_space_group_symop_operation_xyz
x,y,z
-y,x,1/2+z
-x,-y,z
y,-x,1/2+z
x,-y,-z
-x,y,-z
y,x,1/2-z
-y,-x,1/2-z
loop_
_atom_site_type_symbol
_atom_site_label
_atom_site_fract_x
_atom_site_fract_y
_atom_site_fract_z
Si Si1 0.607250 0.607250 0.250000
Si Si2 0.117075 0.407206 0.692953
Si Si3 0.780839 0.338253 0.575167
Si Si4 0.391388 0.086869 0.281205
Si Si5 0.500000 0.666710 0.500000
Si Si6 0.807725 0.659532 0.960673
O O1 0.611829 0.696771 0.151245
O O2 0.525961 0.612034 0.360104
O O3 0.165217 0.393333 0.544082
O O4 0.125401 0.509138 0.748792
O O5 0.163908 0.340164 0.800607
O O6 0.011204 0.389620 0.713227
O O7 0.850874 0.323009 0.698571
O O8 0.745603 0.245468 0.512714
O O9 0.369831 0.107311 0.443711
O O10 0.417132 0.732397 0.474586
#
# Coordination Sequence:
#
# PCOD9549630 Si02
#       6
#     4   8   8   8   4   8
#     4  10  20  36  60  84 111 156 201 258 292 358
#     4  11  22  32  56  89 118 150 188 242 299 369
#     4  11  20  35  53  81 115 153 194 229 289 356
#     4  11  20  36  54  85 123 149 186 239 308 358
#     4  10  18  34  59  84 109 148 206 238 304 344
#     4  11  19  36  56  83 117 154 195 231 289 360
#
# _framework density 18.814585999999998
#
# number of rings (size 3 to 8) (size 9 to 14) (size 15 to 20)
#    0.000    1.200    6.000    2.400    0.000    3.200 
#    0.000    0.000    0.000    0.000   72.800   14.000 
#    0.000   56.000    0.000    0.000    0.000    0.000 
#
# Total GULP energy -223051.235797 kJ/mol
# GULP energy per Si atom -5576.280895 kJ/mol
# Density = 1.877176 g / cm^3
# Si number density = 18.814586 Si / 1000 Ang^3
#
#
#
# Elastic Constant Matrix: (Units=GPa)
#
#
# Indices 1 2 3 4 5 6 
#
# 1 53.0707 31.5774 19.4900 0.0000 0.0000 0.0000
# 2 31.5774 53.0707 19.4900 0.0000 0.0000 0.0000
# 3 19.4900 19.4900 113.2758 0.0000 0.0000 0.0000
# 4 0.0000 0.0000 0.0000 30.7211 0.0000 0.0000
# 5 0.0000 0.0000 0.0000 0.0000 30.7211 0.0000
# 6 0.0000 0.0000 0.0000 0.0000 0.0000 14.3692
#
#
#
# Elastic Compliance Matrix: (Units=1/GPa)
#
#
# Indices 1 2 3 4 5 6 
#
# 1 0.029678 -0.016848 -0.002208 0.000000 0.000000 0.000000
# 2 -0.016848 0.029678 -0.002208 0.000000 0.000000 0.000000
# 3 -0.002208 -0.002208 0.009588 0.000000 0.000000 0.000000
# 4 0.000000 0.000000 0.000000 0.032551 0.000000 0.000000
# 5 0.000000 0.000000 0.000000 0.000000 0.032551 0.000000
# 6 0.000000 0.000000 0.000000 0.000000 0.000000 0.069593
#
#
# Mechanical properties :
#
#
# Convention : Reuss Voigt Hill
#
# Bulk Modulus (GPa) = 37.85315 40.05910 38.95612
# Shear Modulus (GPa) = 19.61006 25.08628 22.34817
#
# Velocity S-wave (km/s) = 3.23194 3.65546 3.45020
# Velocity P-wave (km/s) = 5.83866 6.25733 6.05162
#
# Compressibility (1/GPa) = 0.02641788
#
# Stress axis : x y z
#
# Youngs Moduli (GPa) = 33.69478 33.69478 104.30071
#
# Poissons Ratio (x) = 0.56769 0.23025
# Poissons Ratio (y) = 0.56769 0.23025
# Poissons Ratio (z) = 0.07438 0.07438
#
# Static dielectric constant tensor:
#      x y z
#    x 1.695700 0.000000 0.000000 
#    y 0.000000 1.695700 0.000000 
#    z 0.000000 0.000000 1.728020 
# 
# From -- ./inp_files/1892.got.cif
#   From: 2010.05.17/outbox.cif.g08.bks.cpg/sg93_1_cif.got.tgz:1892.got - 2010.06.03 19:38:44.
