data_PCOD9549656
_publ_section_title
;
Structure prediction by ZEFSAII (Michael W. Deem and Ramdas Pophale) SiO2 
 PCOD9549656
Probable space group: P 42 2 2
;
_chemical_formula_sum "Si O2"
_cell_formula_units_Z 44
_cell_length_a 8.822063
_cell_length_b 8.822063
_cell_length_c 31.578391
_cell_angle_alpha 90.000000
_cell_angle_beta 90.000000
_cell_angle_gamma 90.000000
_cell_volume 2457.708138
_symmetry_space_group_name_H-M "P 42 2 2"
_symmetry_group_IT_number 93
_symmetry_cell_setting 'tetragonal'
loop_
_space_group_symop_operation_xyz
x,y,z
-y,x,1/2+z
-x,-y,z
y,-x,1/2+z
x,-y,-z
-x,y,-z
y,x,1/2-z
-y,-x,1/2-z
loop_
_atom_site_type_symbol
_atom_site_label
_atom_site_fract_x
_atom_site_fract_y
_atom_site_fract_z
Si Si1 0.645656 0.407500 0.415767
Si Si2 0.684710 0.843572 0.121987
Si Si3 0.000000 0.500000 0.691398
Si Si4 0.492730 0.743068 0.741709
Si Si5 0.948529 0.323155 0.454965
Si Si6 0.827663 0.468234 0.855908
O O1 0.500000 0.500000 0.434564
O O2 0.751220 0.531802 0.391987
O O3 0.767584 0.326119 0.446568
O O4 0.570616 0.288828 0.383206
O O5 0.794510 0.708416 0.135035
O O6 0.635753 0.949546 0.160736
O O7 0.739769 0.951872 0.083982
O O8 0.135832 0.466496 0.722941
O O9 0.609590 0.609590 0.750000
O O10 0.326057 0.673944 0.750000
O O11 0.500328 0.800567 0.693744
O O12 0.000000 0.500000 0.455832
O O13 0.000000 0.257052 0.500000
O O14 0.000000 0.500000 0.867511
#
# Coordination Sequence:
#
# PCOD9549656 Si02
#       6
#     8   8   4   8   8   8
#     4   9  18  33  58  82 108 144 183 227 281 342
#     4  10  19  34  59  80 110 150 182 230 290 341
#     4  12  18  34  55  80 112 144 187 228 278 334
#     4  11  23  33  54  80 109 147 188 230 272 340
#     4   9  17  33  58  89 114 139 184 241 290 340
#     4  11  22  37  52  80 113 148 191 232 286 333
#
# _framework density 17.90286
#
# number of rings (size 3 to 8) (size 9 to 14) (size 15 to 20)
#    0.000    1.818    5.455    1.091    5.091    0.000 
#    0.000   16.364    0.000    7.091    0.000    0.000 
#    0.000    0.000    0.000    0.000    0.000    0.000 
#
# Total GULP energy -245134.824864 kJ/mol
# GULP energy per Si atom -5571.246020 kJ/mol
# Density = 1.786211 g / cm^3
# Si number density = 17.902860 Si / 1000 Ang^3
#
#
#
# Elastic Constant Matrix: (Units=GPa)
#
#
# Indices 1 2 3 4 5 6 
#
# 1 88.4288 42.2367 51.3844 0.0000 0.0000 0.0000
# 2 42.2367 88.4285 51.3845 0.0000 0.0000 0.0000
# 3 51.3844 51.3845 130.3027 0.0000 0.0000 0.0000
# 4 0.0000 0.0000 0.0000 -21.1572 0.0000 0.0000
# 5 0.0000 0.0000 0.0000 0.0000 -21.1612 0.0000
# 6 0.0000 0.0000 0.0000 0.0000 0.0000 18.4377
#
#
#
# Elastic Compliance Matrix: (Units=1/GPa)
#
#
# Indices 1 2 3 4 5 6 
#
# 1 0.016371 -0.005277 -0.004375 0.000000 0.000000 0.000000
# 2 -0.005277 0.016371 -0.004375 0.000000 0.000000 0.000000
# 3 -0.004375 -0.004375 0.011125 0.000000 0.000000 0.000000
# 4 0.000000 0.000000 0.000000 -0.047265 0.000000 0.000000
# 5 0.000000 0.000000 0.000000 0.000000 -0.047256 0.000000
# 6 0.000000 0.000000 0.000000 0.000000 0.000000 0.054237
#
#
# Mechanical properties :
#
#
# Convention : Reuss Voigt Hill
#
# Bulk Modulus (GPa) = 63.23770 66.35236 64.79503
# Shear Modulus (GPa) = 135.47105 6.03416 70.75260
#
# Velocity S-wave (km/s) = 8.70829 1.83788 6.29334
# Velocity P-wave (km/s) = 11.68383 6.45342 9.43818
#
# Compressibility (1/GPa) = 0.01581335
#
# Stress axis : x y z
#
# Youngs Moduli (GPa) = 61.08229 61.08194 89.88861
#
# Poissons Ratio (x) = 0.32235 0.39325
# Poissons Ratio (y) = 0.32236 0.39325
# Poissons Ratio (z) = 0.26723 0.26723
#
# Static dielectric constant tensor:
#      x y z
#    x 2.016420 0.000000 0.000000 
#    y 0.000000 2.016380 0.000000 
#    z 0.000000 0.000000 1.635150 
# 
# From -- ./inp_files/7682.got.cif
#   From: 2010.05.17/outbox.cif.g08.bks.cpg/sg93_4_cif.got.tgz:7682.got - 2010.06.03 19:38:44.
