data_PCOD9549957
_publ_section_title
;
Structure prediction by ZEFSAII (Michael W. Deem and Ramdas Pophale) SiO2 
 PCOD9549957
Probable space group: P 42 21 2
;
_chemical_formula_sum "Si O2"
_cell_formula_units_Z 48
_cell_length_a 23.122665
_cell_length_b 23.122665
_cell_length_c 4.945267
_cell_angle_alpha 90.000000
_cell_angle_beta 90.000000
_cell_angle_gamma 90.000000
_cell_volume 2644.024767
_symmetry_space_group_name_H-M "P 42 21 2"
_symmetry_group_IT_number 94
_symmetry_cell_setting 'tetragonal'
loop_
_space_group_symop_operation_xyz
x,y,z
1/2-y,1/2+x,1/2+z
-x,-y,z
1/2+y,1/2-x,1/2+z
1/2+x,1/2-y,1/2-z
1/2-x,1/2+y,1/2-z
y,x,-z
-y,-x,-z
loop_
_atom_site_type_symbol
_atom_site_label
_atom_site_fract_x
_atom_site_fract_y
_atom_site_fract_z
Si Si1 0.919584 0.756837 0.251858
Si Si2 0.641574 0.017179 0.335073
Si Si3 0.864690 0.864690 0.000000
Si Si4 0.427927 0.572074 0.000000
Si Si5 0.499046 0.730170 0.744876
Si Si6 0.447674 0.393928 0.772705
Si Si7 0.371672 0.063331 0.824463
O O1 0.944349 0.775665 0.545463
O O2 0.874276 0.799087 0.103819
O O3 0.904805 0.688982 0.246106
O O4 0.974526 0.761650 0.054338
O O5 0.630890 0.965351 0.120854
O O6 0.710269 0.029373 0.328908
O O7 0.604357 0.073830 0.283137
O O8 0.625125 0.990848 0.623085
O O9 0.896851 0.897638 0.753613
O O10 0.494892 0.581404 0.923615
O O11 0.536615 0.672768 0.729967
O O12 0.428066 0.428066 0.500000
O O13 0.398948 0.398948 0.000000
#
# Coordination Sequence:
#
# PCOD9549957 Si02
#       7
#     8   8   4   4   8   8   8
#     4  10  19  34  56  78 105 139 192 223 279 325
#     4  10  21  36  59  83 119 144 184 227 279 339
#     4  12  18  34  57  76 102 142 186 240 270 319
#     4  12  23  34  52  80 110 138 178 238 286 310
#     4  10  20  38  53  77 106 150 183 221 271 338
#     4  12  23  36  52  77 109 146 185 223 277 336
#     4  10  21  35  56  89 112 151 178 226 281 342
#
# _framework density 18.154140999999999
#
# number of rings (size 3 to 8) (size 9 to 14) (size 15 to 20)
#    0.000    1.333    3.333    3.250    0.000    2.667 
#    0.000    0.000    1.833    0.000    2.167    0.000 
#    0.000    0.000    0.000    0.000    0.000    0.000 
#
# Total GULP energy -267404.126129 kJ/mol
# GULP energy per Si atom -5570.919294 kJ/mol
# Density = 1.811282 g / cm^3
# Si number density = 18.154141 Si / 1000 Ang^3
#
#
#
# Elastic Constant Matrix: (Units=GPa)
#
#
# Indices 1 2 3 4 5 6 
#
# 1 -86.7570 219.7630 -2.1115 0.0000 0.0000 0.0000
# 2 219.7630 -86.8405 -2.2024 0.0000 0.0000 0.0000
# 3 -2.1115 -2.2024 89.4353 0.0000 0.0000 0.0000
# 4 0.0000 0.0000 0.0000 18.5846 0.0000 0.0000
# 5 0.0000 0.0000 0.0000 0.0000 18.5843 0.0000
# 6 0.0000 0.0000 0.0000 0.0000 0.0000 23.5198
#
#
#
# Elastic Compliance Matrix: (Units=1/GPa)
#
#
# Indices 1 2 3 4 5 6 
#
# 1 0.002133 0.005394 0.000183 0.000000 0.000000 0.000000
# 2 0.005394 0.002131 0.000180 0.000000 0.000000 0.000000
# 3 0.000183 0.000180 0.011190 0.000000 0.000000 0.000000
# 4 0.000000 0.000000 0.000000 0.053808 0.000000 0.000000
# 5 0.000000 0.000000 0.000000 0.000000 0.053809 0.000000
# 6 0.000000 0.000000 0.000000 0.000000 0.000000 0.042517
#
#
# Mechanical properties :
#
#
# Convention : Reuss Voigt Hill
#
# Bulk Modulus (GPa) = 37.07888 38.52623 37.80255
# Shear Modulus (GPa) = 30.66282 -7.83634 11.41324
#
# Velocity S-wave (km/s) = 4.11424 -2.07989 2.51008
# Velocity P-wave (km/s) = 6.56034 3.93699 5.41008
#
# Compressibility (1/GPa) = 0.02696953
#
# Stress axis : x y z
#
# Youngs Moduli (GPa) = 468.72672 469.20111 89.36532
#
# Poissons Ratio (x) = -2.53103 -0.01637
# Poissons Ratio (y) = -2.52847 -0.01607
# Poissons Ratio (z) = -0.08587 -0.08438
#
# Static dielectric constant tensor:
#      x y z
#    x 1.702810 0.000000 0.000000 
#    y 0.000000 1.702790 0.000000 
#    z 0.000000 0.000000 3.138770 
# 
# From -- ./inp_files/542.got.cif
#   From: 2010.05.17/outbox.cif.g08.bks.cpg/sg94_1_cif.got.tgz:542.got - 2010.06.03 19:43:16.
