data_PCOD9549376
_publ_section_title
;
Structure prediction by ZEFSAII (Michael W. Deem and Ramdas Pophale) SiO2 
 PCOD9549376
Probable space group: P 41 21 2
;
_chemical_formula_sum "Si O2"
_cell_formula_units_Z 20
_cell_length_a 10.927201
_cell_length_b 10.927201
_cell_length_c 5.938752
_cell_angle_alpha 90.000000
_cell_angle_beta 90.000000
_cell_angle_gamma 90.000000
_cell_volume 709.109091
_symmetry_space_group_name_H-M "P 41 21 2"
_symmetry_group_IT_number 92
_symmetry_cell_setting 'tetragonal'
loop_
_space_group_symop_operation_xyz
x,y,z
1/2-y,1/2+x,1/4+z
-x,-y,1/2+z
1/2+y,1/2-x,3/4+z
1/2+x,1/2-y,3/4-z
1/2-x,1/2+y,1/4-z
y,x,-z
-y,-x,1/2-z
loop_
_atom_site_type_symbol
_atom_site_label
_atom_site_fract_x
_atom_site_fract_y
_atom_site_fract_z
Si Si1 0.732637 0.912257 0.046245
Si Si2 0.088018 0.911983 0.750000
Si Si3 0.107351 0.719364 0.350508
O O1 0.629797 0.895711 0.236302
O O2 0.853349 0.964053 0.163712
O O3 0.771140 0.771140 0.000000
O O4 0.701516 0.001758 0.838076
O O5 0.084829 0.836187 0.510361
O O6 0.239860 0.760141 0.250000
#
# Coordination Sequence:
#
# PCOD9549376 Si02
#       3
#     8   4   8
#     4  11  25  43  80 116 166 210 275 344 416 502
#     4  10  24  42  76 108 156 216 268 328 412 498
#     4  10  24  45  73 119 163 213 269 349 415 491
#
# _framework density 28.204402999999999
#
# number of rings (size 3 to 8) (size 9 to 14) (size 15 to 20)
#    0.000    1.600    2.000    0.000   14.000    0.000 
#    0.000    0.000    8.800    9.600    0.000    0.000 
#    0.000    0.000    0.000    0.000    0.000    0.000 
#
# Total GULP energy -111372.218310 kJ/mol
# GULP energy per Si atom -5568.610916 kJ/mol
# Density = 2.814021 g / cm^3
# Si number density = 28.204403 Si / 1000 Ang^3
#
#
#
# Elastic Constant Matrix: (Units=GPa)
#
#
# Indices 1 2 3 4 5 6 
#
# 1 78.7027 27.8154 85.8000 0.0000 0.0000 0.0000
# 2 27.8154 78.6970 85.8011 0.0000 0.0000 0.0000
# 3 85.8000 85.8011 213.8807 0.0000 0.0000 0.0000
# 4 0.0000 0.0000 0.0000 72.9748 0.0000 0.0000
# 5 0.0000 0.0000 0.0000 0.0000 72.9739 0.0000
# 6 0.0000 0.0000 0.0000 0.0000 0.0000 9.4107
#
#
#
# Elastic Compliance Matrix: (Units=1/GPa)
#
#
# Indices 1 2 3 4 5 6 
#
# 1 0.023096 0.003445 -0.010647 0.000000 0.000000 0.000000
# 2 0.003445 0.023099 -0.010649 0.000000 0.000000 0.000000
# 3 -0.010647 -0.010649 0.013218 0.000000 0.000000 0.000000
# 4 0.000000 0.000000 0.000000 0.013703 0.000000 0.000000
# 5 0.000000 0.000000 0.000000 0.000000 0.013704 0.000000
# 6 0.000000 0.000000 0.000000 0.000000 0.000000 0.106262
#
#
# Mechanical properties :
#
#
# Convention : Reuss Voigt Hill
#
# Bulk Modulus (GPa) = 42.17247 85.56814 63.87031
# Shear Modulus (GPa) = 21.12490 42.52948 31.82719
#
# Velocity S-wave (km/s) = 2.73974 3.88738 3.36288
# Velocity P-wave (km/s) = 4.99932 7.11009 6.14600
#
# Compressibility (1/GPa) = 0.02371215
#
# Stress axis : x y z
#
# Youngs Moduli (GPa) = 43.29823 43.29173 75.65195
#
# Poissons Ratio (x) = -0.14914 0.80547
# Poissons Ratio (y) = -0.14916 0.80558
# Poissons Ratio (z) = 0.46100 0.46099
#
# Static dielectric constant tensor:
#      x y z
#    x 2.246590 0.000000 0.000000 
#    y 0.000000 2.246580 0.000000 
#    z 0.000000 0.000000 2.620500 
# 
# From -- ./inp_files/100.got.cif
#   From: 2010.05.17/outbox.cif.g08.bks.cpg/sg92_1_cif.got.tgz:100.got - 2010.06.03 19:35:17.
