data_PCOD9549774
_publ_section_title
;
Structure prediction by ZEFSAII (Michael W. Deem and Ramdas Pophale) SiO2 
 PCOD9549774
Probable space group: P 42 2 2
;
_chemical_formula_sum "Si O2"
_cell_formula_units_Z 34
_cell_length_a 12.221890
_cell_length_b 12.221890
_cell_length_c 12.048992
_cell_angle_alpha 90.000000
_cell_angle_beta 90.000000
_cell_angle_gamma 90.000000
_cell_volume 1799.813302
_symmetry_space_group_name_H-M "P 42 2 2"
_symmetry_group_IT_number 93
_symmetry_cell_setting 'tetragonal'
loop_
_space_group_symop_operation_xyz
x,y,z
-y,x,1/2+z
-x,-y,z
y,-x,1/2+z
x,-y,-z
-x,y,-z
y,x,1/2-z
-y,-x,1/2-z
loop_
_atom_site_type_symbol
_atom_site_label
_atom_site_fract_x
_atom_site_fract_y
_atom_site_fract_z
Si Si1 0.000000 0.676314 0.000000
Si Si2 0.000000 0.000000 0.250000
Si Si3 0.774488 0.962427 0.126099
Si Si4 0.872139 0.697481 0.793759
Si Si5 0.739119 0.739119 0.250000
Si Si6 0.808113 0.463803 0.886099
O O1 0.083614 0.600533 0.930526
O O2 0.929107 0.740647 0.908437
O O3 0.893523 0.994505 0.173232
O O4 0.755864 0.835589 0.158438
O O5 0.693540 0.034101 0.201556
O O6 0.764075 0.000000 0.000000
O O7 0.775910 0.775910 0.750000
O O8 0.834267 0.575537 0.822766
O O9 0.623440 0.749589 0.309608
O O10 0.748811 0.500000 0.000000
#
# Coordination Sequence:
#
# PCOD9549774 Si02
#       6
#     4   2   8   8   4   8
#     4  10  21  42  72  91 124 177 224 256 311 398
#     4  10  22  40  52  90 130 184 198 240 340 424
#     4  11  24  36  59  94 137 162 201 269 332 390
#     4  11  22  38  66  96 124 168 218 261 313 394
#     4  11  24  41  63  96 129 172 220 274 321 386
#     4  10  22  41  71  92 124 173 227 263 311 393
#
# _framework density 18.890848999999999
#
# number of rings (size 3 to 8) (size 9 to 14) (size 15 to 20)
#    0.000    1.412    3.529    3.529    6.588    0.000 
#    0.000    2.941    0.000    4.235    0.000    0.000 
#    0.000    0.000    0.000    0.000    0.000    0.000 
#
# Total GULP energy -189861.978336 kJ/mol
# GULP energy per Si atom -5584.175833 kJ/mol
# Density = 1.884785 g / cm^3
# Si number density = 18.890849 Si / 1000 Ang^3
#
#
#
# Elastic Constant Matrix: (Units=GPa)
#
#
# Indices 1 2 3 4 5 6 
#
# 1 89.9243 36.8294 64.8362 0.0000 0.0000 0.0000
# 2 36.8294 89.9243 64.8362 0.0000 0.0000 0.0000
# 3 64.8362 64.8362 170.7166 0.0000 0.0000 0.0000
# 4 0.0000 0.0000 0.0000 33.7088 0.0000 0.0000
# 5 0.0000 0.0000 0.0000 0.0000 33.7088 0.0000
# 6 0.0000 0.0000 0.0000 0.0000 0.0000 16.9196
#
#
#
# Elastic Compliance Matrix: (Units=1/GPa)
#
#
# Indices 1 2 3 4 5 6 
#
# 1 0.015868 -0.002966 -0.004900 0.000000 0.000000 0.000000
# 2 -0.002966 0.015868 -0.004900 0.000000 0.000000 0.000000
# 3 -0.004900 -0.004900 0.009580 0.000000 0.000000 0.000000
# 4 0.000000 0.000000 0.000000 0.029666 0.000000 0.000000
# 5 0.000000 0.000000 0.000000 0.000000 0.029666 0.000000
# 6 0.000000 0.000000 0.000000 0.000000 0.000000 0.059103
#
#
# Mechanical properties :
#
#
# Convention : Reuss Voigt Hill
#
# Bulk Modulus (GPa) = 63.35646 75.95209 69.65428
# Shear Modulus (GPa) = 26.24058 29.13834 27.68946
#
# Velocity S-wave (km/s) = 3.73106 3.93167 3.83268
# Velocity P-wave (km/s) = 7.22302 7.80409 7.51917
#
# Compressibility (1/GPa) = 0.01578371
#
# Stress axis : x y z
#
# Youngs Moduli (GPa) = 63.01898 63.01898 104.38741
#
# Poissons Ratio (x) = 0.18691 0.51151
# Poissons Ratio (y) = 0.18691 0.51151
# Poissons Ratio (z) = 0.30880 0.30880
#
# Static dielectric constant tensor:
#      x y z
#    x 1.675280 0.000000 0.000000 
#    y 0.000000 1.675280 0.000000 
#    z 0.000000 0.000000 1.704630 
# 
# From -- ./inp_files/3212.got.cif
#   From: 2010.05.17/outbox.cif.g08.bks.cpg/sg93_2_cif.got.tgz:3212.got - 2010.06.03 19:38:44.
