data_PCOD9549863
_publ_section_title
;
Structure prediction by ZEFSAII (Michael W. Deem and Ramdas Pophale) SiO2 
 PCOD9549863
Probable space group: P 42 2 2
;
_chemical_formula_sum "Si O2"
_cell_formula_units_Z 40
_cell_length_a 8.698848
_cell_length_b 8.698848
_cell_length_c 22.376617
_cell_angle_alpha 90.000000
_cell_angle_beta 90.000000
_cell_angle_gamma 90.000000
_cell_volume 1693.237636
_symmetry_space_group_name_H-M "P 42 2 2"
_symmetry_group_IT_number 93
_symmetry_cell_setting 'tetragonal'
loop_
_space_group_symop_operation_xyz
x,y,z
-y,x,1/2+z
-x,-y,z
y,-x,1/2+z
x,-y,-z
-x,y,-z
y,x,1/2-z
-y,-x,1/2-z
loop_
_atom_site_type_symbol
_atom_site_label
_atom_site_fract_x
_atom_site_fract_y
_atom_site_fract_z
Si Si1 0.887734 0.824137 0.057643
Si Si2 0.252185 0.009878 0.243388
Si Si3 0.863539 0.328525 0.139997
Si Si4 0.952216 0.332454 0.389086
Si Si5 0.329014 0.553280 0.931939
O O1 0.728166 0.727524 0.060804
O O2 0.994909 0.764861 0.111281
O O3 0.811217 0.988882 0.070887
O O4 0.000000 0.803987 0.000000
O O5 0.107727 0.892274 0.250000
O O6 0.355016 0.923171 0.292978
O O7 0.321143 0.019379 0.177607
O O8 0.178470 0.178470 0.250000
O O9 0.712375 0.223393 0.126360
O O10 0.808916 0.479965 0.106535
O O11 0.000000 0.500000 0.413361
O O12 0.500000 0.500000 0.910994
O O13 0.319810 0.500000 0.000000
#
# Coordination Sequence:
#
# PCOD9549863 Si02
#       5
#     8   8   8   8   8
#     4  12  24  42  65  96 130 175 232 275 336 419
#     4   9  18  38  65  94 127 171 225 280 327 396
#     4  11  22  41  69  96 132 178 227 277 330 412
#     4  11  24  42  66  98 138 173 221 289 354 396
#     4  11  24  43  64  94 135 176 220 277 343 413
#
# _framework density 23.623380000000001
#
# number of rings (size 3 to 8) (size 9 to 14) (size 15 to 20)
#    0.000    1.200    4.000    2.400    0.000    3.200 
#    0.000    1.000    0.000    4.200    0.000    0.000 
#    0.000    0.000    0.000    0.000    0.000    0.000 
#
# Total GULP energy -222675.983334 kJ/mol
# GULP energy per Si atom -5566.899583 kJ/mol
# Density = 2.356961 g / cm^3
# Si number density = 23.623380 Si / 1000 Ang^3
#
#
#
# Elastic Constant Matrix: (Units=GPa)
#
#
# Indices 1 2 3 4 5 6 
#
# 1 96.8417 39.4985 2.1056 0.0000 0.0000 0.0000
# 2 39.4985 96.8420 2.1059 0.0000 0.0000 0.0000
# 3 2.1056 2.1059 64.5982 0.0000 0.0000 0.0000
# 4 0.0000 0.0000 0.0000 37.8902 0.0000 0.0000
# 5 0.0000 0.0000 0.0000 0.0000 37.8898 0.0000
# 6 0.0000 0.0000 0.0000 0.0000 0.0000 110.7217
#
#
#
# Elastic Compliance Matrix: (Units=1/GPa)
#
#
# Indices 1 2 3 4 5 6 
#
# 1 0.012390 -0.005048 -0.000239 0.000000 0.000000 0.000000
# 2 -0.005048 0.012390 -0.000239 0.000000 0.000000 0.000000
# 3 -0.000239 -0.000239 0.015496 0.000000 0.000000 0.000000
# 4 0.000000 0.000000 0.000000 0.026392 0.000000 0.000000
# 5 0.000000 0.000000 0.000000 0.000000 0.026392 0.000000
# 6 0.000000 0.000000 0.000000 0.000000 0.000000 0.009032
#
#
# Mechanical properties :
#
#
# Convention : Reuss Voigt Hill
#
# Bulk Modulus (GPa) = 34.22013 38.41131 36.31572
# Shear Modulus (GPa) = 40.68754 51.60514 46.14634
#
# Velocity S-wave (km/s) = 4.15461 4.67893 4.42454
# Velocity P-wave (km/s) = 6.12630 6.74426 6.44269
#
# Compressibility (1/GPa) = 0.02922256
#
# Stress axis : x y z
#
# Youngs Moduli (GPa) = 80.70754 80.70781 64.53312
#
# Poissons Ratio (x) = 0.40745 0.01544
# Poissons Ratio (y) = 0.40745 0.01545
# Poissons Ratio (z) = 0.01931 0.01932
#
# Static dielectric constant tensor:
#      x y z
#    x 1.850660 0.000000 0.000000 
#    y 0.000000 1.850660 0.000000 
#    z 0.000000 0.000000 1.883130 
# 
# From -- ./inp_files/6673.got.cif
#   From: 2010.05.17/outbox.cif.g08.bks.cpg/sg93_4_cif.got.tgz:6673.got - 2010.06.03 19:38:44.
