data_PCOD9549273
_publ_section_title
;
Structure prediction by ZEFSAII (Michael W. Deem and Ramdas Pophale) SiO2 
 PCOD9549273
Probable space group: P 41 21 2
;
_chemical_formula_sum "Si O2"
_cell_formula_units_Z 48
_cell_length_a 11.799168
_cell_length_b 11.799168
_cell_length_c 17.915205
_cell_angle_alpha 90.000000
_cell_angle_beta 90.000000
_cell_angle_gamma 90.000000
_cell_volume 2494.161388
_symmetry_space_group_name_H-M "P 41 21 2"
_symmetry_group_IT_number 92
_symmetry_cell_setting 'tetragonal'
loop_
_space_group_symop_operation_xyz
x,y,z
1/2-y,1/2+x,1/4+z
-x,-y,1/2+z
1/2+y,1/2-x,3/4+z
1/2+x,1/2-y,3/4-z
1/2-x,1/2+y,1/4-z
y,x,-z
-y,-x,1/2-z
loop_
_atom_site_type_symbol
_atom_site_label
_atom_site_fract_x
_atom_site_fract_y
_atom_site_fract_z
Si Si1 0.653622 0.017442 0.851887
Si Si2 0.093318 0.431264 0.063616
Si Si3 0.485241 0.490701 0.660490
Si Si4 0.252374 0.399422 0.316007
Si Si5 0.317119 0.692270 0.660624
Si Si6 0.351046 0.314219 0.852584
O O1 0.638829 0.016618 0.763301
O O2 0.532159 0.041974 0.887500
O O3 0.738484 0.119845 0.873166
O O4 0.709645 0.903251 0.883779
O O5 0.196837 0.370930 0.105876
O O6 0.995900 0.339244 0.049144
O O7 0.501588 0.498413 0.750000
O O8 0.455549 0.361593 0.643922
O O9 0.381428 0.574440 0.642255
O O10 0.600220 0.544654 0.628577
O O11 0.203413 0.300371 0.367435
O O12 0.293412 0.350075 0.236377
O O13 0.302170 0.697831 0.750000
#
# Coordination Sequence:
#
# PCOD9549273 Si02
#       6
#     8   8   8   8   8   8
#     4  11  25  43  67  93 131 168 213 273 320 392
#     4  12  25  40  67  98 129 166 215 269 327 386
#     4   8  19  40  64  86 122 167 209 260 319 382
#     4  11  23  40  66  94 129 170 216 272 317 395
#     4  10  23  42  67  93 128 176 217 264 330 386
#     4  10  22  43  65  92 125 169 212 261 335 384
#
# _framework density 19.244945000000001
#
# number of rings (size 3 to 8) (size 9 to 14) (size 15 to 20)
#    0.000    1.667    1.667    2.500    7.000    1.333 
#    0.000    1.667    0.000    0.000    0.000    0.000 
#    0.000    0.000    0.000    0.000    0.000    0.000 
#
# Total GULP energy -268191.880642 kJ/mol
# GULP energy per Si atom -5587.330847 kJ/mol
# Density = 1.920114 g / cm^3
# Si number density = 19.244945 Si / 1000 Ang^3
#
#
#
# Elastic Constant Matrix: (Units=GPa)
#
#
# Indices 1 2 3 4 5 6 
#
# 1 51.2693 12.5885 0.6765 0.0000 0.0000 0.0000
# 2 12.5885 51.2704 0.6767 0.0000 0.0000 0.0000
# 3 0.6765 0.6767 63.4761 0.0000 0.0000 0.0000
# 4 0.0000 0.0000 0.0000 21.9618 0.0000 0.0000
# 5 0.0000 0.0000 0.0000 0.0000 21.9621 0.0000
# 6 0.0000 0.0000 0.0000 0.0000 0.0000 17.3612
#
#
#
# Elastic Compliance Matrix: (Units=1/GPa)
#
#
# Indices 1 2 3 4 5 6 
#
# 1 0.020758 -0.005095 -0.000167 0.000000 0.000000 0.000000
# 2 -0.005095 0.020757 -0.000167 0.000000 0.000000 0.000000
# 3 -0.000167 -0.000167 0.015758 0.000000 0.000000 0.000000
# 4 0.000000 0.000000 0.000000 0.045534 0.000000 0.000000
# 5 0.000000 0.000000 0.000000 0.000000 0.045533 0.000000
# 6 0.000000 0.000000 0.000000 0.000000 0.000000 0.057600
#
#
# Mechanical properties :
#
#
# Convention : Reuss Voigt Hill
#
# Bulk Modulus (GPa) = 21.54424 21.54434 21.54429
# Shear Modulus (GPa) = 21.52685 22.39531 21.96108
#
# Velocity S-wave (km/s) = 3.34813 3.41500 3.38173
# Velocity P-wave (km/s) = 5.11524 5.17385 5.14463
#
# Compressibility (1/GPa) = 0.04641612
#
# Stress axis : x y z
#
# Youngs Moduli (GPa) = 48.17438 48.17537 63.46176
#
# Poissons Ratio (x) = 0.24543 0.01059
# Poissons Ratio (y) = 0.24542 0.01060
# Poissons Ratio (z) = 0.00804 0.00804
#
# Static dielectric constant tensor:
#      x y z
#    x 1.657840 0.000000 0.000000 
#    y 0.000000 1.657840 0.000000 
#    z 0.000000 0.000000 1.644780 
# 
# From -- ./inp_files/3088.got.cif
#   From: 2010.05.17/outbox.cif.g08.bks.cpg/sg92_2_cif.got.tgz:3088.got - 2010.06.03 19:35:17.
