data_PCOD9549076
_publ_section_title
;
Structure prediction by ZEFSAII (Michael W. Deem and Ramdas Pophale) SiO2 
 PCOD9549076
Probable space group: P 41 21 2
;
_chemical_formula_sum "Si O2"
_cell_formula_units_Z 56
_cell_length_a 12.718476
_cell_length_b 12.718476
_cell_length_c 16.734652
_cell_angle_alpha 90.000000
_cell_angle_beta 90.000000
_cell_angle_gamma 90.000000
_cell_volume 2706.991145
_symmetry_space_group_name_H-M "P 41 21 2"
_symmetry_group_IT_number 92
_symmetry_cell_setting 'tetragonal'
loop_
_space_group_symop_operation_xyz
x,y,z
1/2-y,1/2+x,1/4+z
-x,-y,1/2+z
1/2+y,1/2-x,3/4+z
1/2+x,1/2-y,3/4-z
1/2-x,1/2+y,1/4-z
y,x,-z
-y,-x,1/2-z
loop_
_atom_site_type_symbol
_atom_site_label
_atom_site_fract_x
_atom_site_fract_y
_atom_site_fract_z
Si Si1 0.192996 0.887448 0.836441
Si Si2 0.941975 0.220406 0.615717
Si Si3 0.247774 0.759275 0.992157
Si Si4 0.752023 0.480193 0.529834
Si Si5 0.374272 0.035231 0.773949
Si Si6 0.034686 0.001036 0.155009
Si Si7 0.954071 0.515117 0.349488
O O1 0.159131 0.840870 0.750000
O O2 0.212762 0.803152 0.906048
O O3 0.296002 0.956510 0.818500
O O4 0.101926 0.967013 0.867569
O O5 0.839466 0.221290 0.560471
O O6 0.999436 0.328901 0.594930
O O7 0.931232 0.234926 0.712022
O O8 0.994602 0.105877 0.609198
O O9 0.267308 0.634215 0.989982
O O10 0.352485 0.819519 0.019280
O O11 0.661672 0.488886 0.597207
O O12 0.870937 0.478547 0.560067
O O13 0.407834 0.999961 0.686163
O O14 0.486887 0.030967 0.817153
O O15 0.012509 0.987492 0.250000
#
# Coordination Sequence:
#
# PCOD9549076 Si02
#       7
#     8   8   8   8   8   8   8
#     4  11  25  43  64  93 130 181 226 275 337 405
#     4  10  22  40  65  98 127 173 223 273 332 402
#     4  11  24  42  66  97 137 172 225 281 343 406
#     4  10  20  41  67  96 131 176 222 276 334 405
#     4  12  23  43  66  99 137 177 219 284 343 406
#     4   9  19  40  66  88 131 174 222 268 334 396
#     4  11  23  39  68 100 137 170 225 279 341 400
#
# _framework density 20.687173999999999
#
# number of rings (size 3 to 8) (size 9 to 14) (size 15 to 20)
#    0.000    1.429    4.286    0.857    2.000    0.571 
#    0.000    1.429    3.143    0.000    0.000    0.000 
#    0.000    0.000    0.000    0.000    0.000    0.000 
#
# Total GULP energy -312130.296023 kJ/mol
# GULP energy per Si atom -5573.755286 kJ/mol
# Density = 2.064009 g / cm^3
# Si number density = 20.687174 Si / 1000 Ang^3
#
#
#
# Elastic Constant Matrix: (Units=GPa)
#
#
# Indices 1 2 3 4 5 6 
#
# 1 64.3111 30.5662 23.8320 0.0000 0.0000 0.0000
# 2 30.5662 64.3111 23.8319 0.0000 0.0000 0.0000
# 3 23.8320 23.8319 49.3113 0.0000 0.0000 0.0000
# 4 0.0000 0.0000 0.0000 31.8200 0.0000 0.0000
# 5 0.0000 0.0000 0.0000 0.0000 31.8201 0.0000
# 6 0.0000 0.0000 0.0000 0.0000 0.0000 28.1256
#
#
#
# Elastic Compliance Matrix: (Units=1/GPa)
#
#
# Indices 1 2 3 4 5 6 
#
# 1 0.021777 -0.007857 -0.006727 0.000000 0.000000 0.000000
# 2 -0.007857 0.021777 -0.006727 0.000000 0.000000 0.000000
# 3 -0.006727 -0.006727 0.026782 0.000000 0.000000 0.000000
# 4 0.000000 0.000000 0.000000 0.031427 0.000000 0.000000
# 5 0.000000 0.000000 0.000000 0.000000 0.031427 0.000000
# 6 0.000000 0.000000 0.000000 0.000000 0.000000 0.035555
#
#
# Mechanical properties :
#
#
# Convention : Reuss Voigt Hill
#
# Bulk Modulus (GPa) = 36.08560 37.15486 36.62023
# Shear Modulus (GPa) = 22.66499 25.00005 23.83252
#
# Velocity S-wave (km/s) = 3.31358 3.48009 3.39786
# Velocity P-wave (km/s) = 5.66755 5.84358 5.75624
#
# Compressibility (1/GPa) = 0.02771189
#
# Stress axis : x y z
#
# Youngs Moduli (GPa) = 45.92031 45.92045 37.33873
#
# Poissons Ratio (x) = 0.36081 0.25119
# Poissons Ratio (y) = 0.36081 0.25119
# Poissons Ratio (z) = 0.30892 0.30892
#
# Static dielectric constant tensor:
#      x y z
#    x 1.754270 0.000000 0.000000 
#    y 0.000000 1.754270 0.000000 
#    z 0.000000 0.000000 1.833750 
# 
# From -- ./inp_files/3578.got.cif
#   From: 2010.05.17/outbox.cif.g08.bks.cpg/sg92_2_cif.got.tgz:3578.got - 2010.06.03 19:35:17.
