data_PCOD9549006
_publ_section_title
;
Structure prediction by ZEFSAII (Michael W. Deem and Ramdas Pophale) SiO2 
 PCOD9549006
Probable space group: P 41 21 2
;
_chemical_formula_sum "Si O2"
_cell_formula_units_Z 40
_cell_length_a 9.576074
_cell_length_b 9.576074
_cell_length_c 27.583528
_cell_angle_alpha 90.000000
_cell_angle_beta 90.000000
_cell_angle_gamma 90.000000
_cell_volume 2529.442432
_symmetry_space_group_name_H-M "P 41 21 2"
_symmetry_group_IT_number 92
_symmetry_cell_setting 'tetragonal'
loop_
_space_group_symop_operation_xyz
x,y,z
1/2-y,1/2+x,1/4+z
-x,-y,1/2+z
1/2+y,1/2-x,3/4+z
1/2+x,1/2-y,3/4-z
1/2-x,1/2+y,1/4-z
y,x,-z
-y,-x,1/2-z
loop_
_atom_site_type_symbol
_atom_site_label
_atom_site_fract_x
_atom_site_fract_y
_atom_site_fract_z
Si Si1 0.119282 0.648336 0.635019
Si Si2 0.517647 0.009743 0.944865
Si Si3 0.712839 0.479701 0.492462
Si Si4 0.481042 0.254451 0.515232
Si Si5 0.611082 0.169274 0.109115
O O1 0.036000 0.720084 0.678347
O O2 0.256187 0.735864 0.621870
O O3 0.160262 0.490354 0.651308
O O4 0.022709 0.618151 0.588334
O O5 0.644394 0.986031 0.906475
O O6 0.516229 0.156833 0.971177
O O7 0.523512 0.886542 0.984233
O O8 0.612529 0.612529 0.500000
O O9 0.618299 0.343647 0.503245
O O10 0.768821 0.466577 0.437467
O O11 0.350848 0.350848 0.500000
#
# Coordination Sequence:
#
# PCOD9549006 Si02
#       5
#     8   8   8   8   8
#     4  10  20  35  61  85 112 142 195 236 280 331
#     4  10  20  36  59  79 114 147 185 233 282 328
#     4  11  23  37  57  82 119 152 186 229 293 344
#     4  11  19  35  61  84 106 152 187 229 283 338
#     4  10  20  36  59  85 108 144 192 242 270 336
#
# _framework density 15.813762000000001
#
# number of rings (size 3 to 8) (size 9 to 14) (size 15 to 20)
#    1.200    0.400    6.000    0.000    2.800    1.600 
#    0.000    0.000    4.400    0.000    0.000    0.000 
#    0.000    0.000    0.000    0.000    0.000    0.000 
#
# Total GULP energy -222689.838823 kJ/mol
# GULP energy per Si atom -5567.245971 kJ/mol
# Density = 1.577777 g / cm^3
# Si number density = 15.813762 Si / 1000 Ang^3
#
#
#
# Elastic Constant Matrix: (Units=GPa)
#
#
# Indices 1 2 3 4 5 6 
#
# 1 100.4433 48.7391 48.2525 0.0000 0.0000 0.0000
# 2 48.7391 100.4433 48.2525 0.0000 0.0000 0.0000
# 3 48.2525 48.2525 119.1875 0.0000 0.0000 0.0000
# 4 0.0000 0.0000 0.0000 33.1126 0.0000 0.0000
# 5 0.0000 0.0000 0.0000 0.0000 33.1126 0.0000
# 6 0.0000 0.0000 0.0000 0.0000 0.0000 12.3333
#
#
#
# Elastic Compliance Matrix: (Units=1/GPa)
#
#
# Indices 1 2 3 4 5 6 
#
# 1 0.014211 -0.005130 -0.003677 0.000000 0.000000 0.000000
# 2 -0.005130 0.014211 -0.003677 0.000000 0.000000 0.000000
# 3 -0.003677 -0.003677 0.011367 0.000000 0.000000 0.000000
# 4 0.000000 0.000000 0.000000 0.030200 0.000000 0.000000
# 5 0.000000 0.000000 0.000000 0.000000 0.030200 0.000000
# 6 0.000000 0.000000 0.000000 0.000000 0.000000 0.081081
#
#
# Mechanical properties :
#
#
# Convention : Reuss Voigt Hill
#
# Bulk Modulus (GPa) = 67.45953 67.84029 67.64991
# Shear Modulus (GPa) = 23.67674 27.36702 25.52188
#
# Velocity S-wave (km/s) = 3.87360 4.16454 4.02170
# Velocity P-wave (km/s) = 7.92197 8.13125 8.02729
#
# Compressibility (1/GPa) = 0.01482370
#
# Stress axis : x y z
#
# Youngs Moduli (GPa) = 70.36707 70.36707 87.97331
#
# Poissons Ratio (x) = 0.36095 0.32345
# Poissons Ratio (y) = 0.36095 0.32345
# Poissons Ratio (z) = 0.25871 0.25871
#
# Static dielectric constant tensor:
#      x y z
#    x 1.504360 0.000000 0.000000 
#    y 0.000000 1.504360 0.000000 
#    z 0.000000 0.000000 1.546400 
# 
# From -- ./inp_files/4147.got.cif
#   From: 2010.05.17/outbox.cif.g08.bks.cpg/sg92_3_cif.got.tgz:4147.got - 2010.06.03 19:35:17.
