data_PCOD9549350
_publ_section_title
;
Structure prediction by ZEFSAII (Michael W. Deem and Ramdas Pophale) SiO2 
 PCOD9549350
Probable space group: P 41 21 2
;
_chemical_formula_sum "Si O2"
_cell_formula_units_Z 44
_cell_length_a 8.359943
_cell_length_b 8.359943
_cell_length_c 25.115762
_cell_angle_alpha 90.000000
_cell_angle_beta 90.000000
_cell_angle_gamma 90.000000
_cell_volume 1755.306624
_symmetry_space_group_name_H-M "P 41 21 2"
_symmetry_group_IT_number 92
_symmetry_cell_setting 'tetragonal'
loop_
_space_group_symop_operation_xyz
x,y,z
1/2-y,1/2+x,1/4+z
-x,-y,1/2+z
1/2+y,1/2-x,3/4+z
1/2+x,1/2-y,3/4-z
1/2-x,1/2+y,1/4-z
y,x,-z
-y,-x,1/2-z
loop_
_atom_site_type_symbol
_atom_site_label
_atom_site_fract_x
_atom_site_fract_y
_atom_site_fract_z
Si Si1 0.650880 0.463751 0.397839
Si Si2 0.929956 0.388649 0.217352
Si Si3 0.210498 0.556492 0.010068
Si Si4 0.756206 0.120744 0.573876
Si Si5 0.396184 0.222786 0.419792
Si Si6 0.316676 0.683325 0.250000
O O1 0.666575 0.461843 0.461269
O O2 0.615100 0.638717 0.376271
O O3 0.510378 0.337696 0.386520
O O4 0.808101 0.407516 0.366139
O O5 0.857654 0.559043 0.231010
O O6 0.069882 0.417332 0.175318
O O7 0.821832 0.250220 0.194801
O O8 0.986969 0.341223 0.277536
O O9 0.172097 0.368437 0.022756
O O10 0.249382 0.693851 0.052698
O O11 0.824605 0.974029 0.537655
#
# Coordination Sequence:
#
# PCOD9549350 Si02
#       6
#     8   8   8   8   8   4
#     4  12  26  42  72 105 137 188 244 300 363 443
#     4  10  23  45  67  97 140 187 231 291 371 432
#     4  11  24  48  71 102 145 190 236 304 366 428
#     4  11  25  46  71  99 144 188 237 303 371 429
#     4  11  24  41  69 104 137 186 238 295 353 446
#     4  10  28  46  72 106 140 190 240 298 358 442
#
# _framework density 25.066842999999999
#
# number of rings (size 3 to 8) (size 9 to 14) (size 15 to 20)
#    0.000    1.091    3.636    1.091    7.636    2.909 
#    3.273    0.000    0.000    0.000    0.000    0.000 
#    0.000    0.000    0.000    0.000    0.000    0.000 
#
# Total GULP energy -245522.251944 kJ/mol
# GULP energy per Si atom -5580.051181 kJ/mol
# Density = 2.500979 g / cm^3
# Si number density = 25.066843 Si / 1000 Ang^3
#
#
#
# Elastic Constant Matrix: (Units=GPa)
#
#
# Indices 1 2 3 4 5 6 
#
# 1 96.6460 24.2774 38.2632 0.0000 0.0000 0.0000
# 2 24.2774 96.6467 38.2631 0.0000 0.0000 0.0000
# 3 38.2632 38.2631 78.1680 0.0000 0.0000 0.0000
# 4 0.0000 0.0000 0.0000 36.8448 0.0000 0.0000
# 5 0.0000 0.0000 0.0000 0.0000 36.8448 0.0000
# 6 0.0000 0.0000 0.0000 0.0000 0.0000 40.9498
#
#
#
# Elastic Compliance Matrix: (Units=1/GPa)
#
#
# Indices 1 2 3 4 5 6 
#
# 1 0.012900 -0.000918 -0.005865 0.000000 0.000000 0.000000
# 2 -0.000918 0.012900 -0.005865 0.000000 0.000000 0.000000
# 3 -0.005865 -0.005865 0.018535 0.000000 0.000000 0.000000
# 4 0.000000 0.000000 0.000000 0.027141 0.000000 0.000000
# 5 0.000000 0.000000 0.000000 0.000000 0.027141 0.000000
# 6 0.000000 0.000000 0.000000 0.000000 0.000000 0.024420
#
#
# Mechanical properties :
#
#
# Convention : Reuss Voigt Hill
#
# Bulk Modulus (GPa) = 52.52701 52.56312 52.54507
# Shear Modulus (GPa) = 32.32529 34.30502 33.31516
#
# Velocity S-wave (km/s) = 3.59495 3.70339 3.64957
# Velocity P-wave (km/s) = 6.18319 6.26909 6.22629
#
# Compressibility (1/GPa) = 0.01903782
#
# Stress axis : x y z
#
# Youngs Moduli (GPa) = 77.52125 77.52195 53.95325
#
# Poissons Ratio (x) = 0.07120 0.31643
# Poissons Ratio (y) = 0.07120 0.31642
# Poissons Ratio (z) = 0.45465 0.45465
#
# Static dielectric constant tensor:
#      x y z
#    x 1.999090 0.000000 0.000000 
#    y 0.000000 1.999090 0.000000 
#    z 0.000000 0.000000 2.013260 
# 
# From -- ./inp_files/4434.got.cif
#   From: 2010.05.17/outbox.cif.g08.bks.cpg/sg92_3_cif.got.tgz:4434.got - 2010.06.03 19:35:17.
