data_PCOD9549953
_publ_section_title
;
Structure prediction by ZEFSAII (Michael W. Deem and Ramdas Pophale) SiO2 
 PCOD9549953
Probable space group: P 42 21 2
;
_chemical_formula_sum "Si O2"
_cell_formula_units_Z 34
_cell_length_a 13.250846
_cell_length_b 13.250846
_cell_length_c 10.000634
_cell_angle_alpha 90.000000
_cell_angle_beta 90.000000
_cell_angle_gamma 90.000000
_cell_volume 1755.960518
_symmetry_space_group_name_H-M "P 42 21 2"
_symmetry_group_IT_number 94
_symmetry_cell_setting 'tetragonal'
loop_
_space_group_symop_operation_xyz
x,y,z
1/2-y,1/2+x,1/2+z
-x,-y,z
1/2+y,1/2-x,1/2+z
1/2+x,1/2-y,1/2-z
1/2-x,1/2+y,1/2-z
y,x,-z
-y,-x,-z
loop_
_atom_site_type_symbol
_atom_site_label
_atom_site_fract_x
_atom_site_fract_y
_atom_site_fract_z
Si Si1 0.046694 0.645696 0.153596
Si Si2 0.218815 0.012395 0.614488
Si Si3 0.843914 0.286854 0.904859
Si Si4 0.500000 0.500000 0.000000
Si Si5 0.040646 0.672284 0.659161
O O1 0.137665 0.572222 0.200724
O O2 0.040304 0.740698 0.251565
O O3 0.936623 0.595214 0.158132
O O4 0.071181 0.663541 0.998992
O O5 0.257132 0.129022 0.619461
O O6 0.275339 0.965968 0.484522
O O7 0.100696 0.003370 0.589224
O O8 0.898362 0.261643 0.766272
O O9 0.798423 0.201578 0.000000
#
# Coordination Sequence:
#
# PCOD9549953 Si02
#       5
#     8   8   8   2   8
#     4   9  18  34  59  83 103 130 178 231 275 307
#     4  10  21  36  54  76 108 145 178 215 261 326
#     4  10  19  33  52  82 110 134 172 226 267 306
#     4  12  24  36  48  74 112 160 178 200 244 348
#     4   9  18  34  59  83 103 130 178 231 275 307
#
# _framework density 19.362624
#
# number of rings (size 3 to 8) (size 9 to 14) (size 15 to 20)
#    0.000    2.353    1.176    1.412    3.294    5.647 
#    0.000    0.000    0.000    2.824    0.000    0.000 
#    0.000    0.000    0.000    0.000    0.000    0.000 
#
# Total GULP energy -189498.795271 kJ/mol
# GULP energy per Si atom -5573.493979 kJ/mol
# Density = 1.931855 g / cm^3
# Si number density = 19.362624 Si / 1000 Ang^3
#
#
#
# Elastic Constant Matrix: (Units=GPa)
#
#
# Indices 1 2 3 4 5 6 
#
# 1 44.2113 12.4124 10.2917 0.0000 0.0000 0.0000
# 2 12.4124 44.2107 10.2916 0.0000 0.0000 0.0000
# 3 10.2917 10.2916 45.9190 0.0000 0.0000 0.0000
# 4 0.0000 0.0000 0.0000 8.5715 0.0000 0.0000
# 5 0.0000 0.0000 0.0000 0.0000 8.5711 0.0000
# 6 0.0000 0.0000 0.0000 0.0000 0.0000 16.3954
#
#
#
# Elastic Compliance Matrix: (Units=1/GPa)
#
#
# Indices 1 2 3 4 5 6 
#
# 1 0.025337 -0.006110 -0.004309 0.000000 0.000000 0.000000
# 2 -0.006110 0.025338 -0.004309 0.000000 0.000000 0.000000
# 3 -0.004309 -0.004309 0.023709 0.000000 0.000000 0.000000
# 4 0.000000 0.000000 0.000000 0.116666 0.000000 0.000000
# 5 0.000000 0.000000 0.000000 0.000000 0.116671 0.000000
# 6 0.000000 0.000000 0.000000 0.000000 0.000000 0.060993
#
#
# Mechanical properties :
#
#
# Convention : Reuss Voigt Hill
#
# Bulk Modulus (GPa) = 22.25881 22.25916 22.25898
# Shear Modulus (GPa) = 12.10223 13.46396 12.78310
#
# Velocity S-wave (km/s) = 2.50277 2.63983 2.57221
# Velocity P-wave (km/s) = 4.45786 4.56207 4.51027
#
# Compressibility (1/GPa) = 0.04492604
#
# Stress axis : x y z
#
# Youngs Moduli (GPa) = 39.46752 39.46695 42.17787
#
# Poissons Ratio (x) = 0.24116 0.18176
# Poissons Ratio (y) = 0.24116 0.18176
# Poissons Ratio (z) = 0.17008 0.17007
#
# Static dielectric constant tensor:
#      x y z
#    x 1.711530 0.000000 0.000000 
#    y 0.000000 1.711530 0.000000 
#    z 0.000000 0.000000 1.658660 
# 
# From -- ./inp_files/1252.got.cif
#   From: 2010.05.17/outbox.cif.g08.bks.cpg/sg94_1_cif.got.tgz:1252.got - 2010.06.03 19:43:16.
