data_PCOD9549850
_publ_section_title
;
Structure prediction by ZEFSAII (Michael W. Deem and Ramdas Pophale) SiO2 
 PCOD9549850
Probable space group: P 42 2 2
;
_chemical_formula_sum "Si O2"
_cell_formula_units_Z 20
_cell_length_a 7.590912
_cell_length_b 7.590912
_cell_length_c 14.321655
_cell_angle_alpha 90.000000
_cell_angle_beta 90.000000
_cell_angle_gamma 90.000000
_cell_volume 825.241617
_symmetry_space_group_name_H-M "P 42 2 2"
_symmetry_group_IT_number 93
_symmetry_cell_setting 'tetragonal'
loop_
_space_group_symop_operation_xyz
x,y,z
-y,x,1/2+z
-x,-y,z
y,-x,1/2+z
x,-y,-z
-x,y,-z
y,x,1/2-z
-y,-x,1/2-z
loop_
_atom_site_type_symbol
_atom_site_label
_atom_site_fract_x
_atom_site_fract_y
_atom_site_fract_z
Si Si1 0.772743 0.227258 0.750000
Si Si2 0.464542 0.710148 0.106233
Si Si3 0.292648 0.946018 0.397934
O O1 0.779572 0.405830 0.686877
O O2 0.930633 0.213910 0.820863
O O3 0.500000 0.500000 0.104964
O O4 0.258255 0.734318 0.123139
O O5 0.500000 0.774789 0.000000
O O6 0.500000 0.000000 0.398544
O O7 0.225239 0.000000 0.500000
#
# Coordination Sequence:
#
# PCOD9549850 Si02
#       3
#     4   8   8
#     4  12  23  38  74 111 152 209 252 322 399 450
#     4  11  20  38  68 111 151 202 265 322 384 468
#     4  11  21  38  66 114 155 202 265 322 383 468
#
# _framework density 24.235323999999999
#
# number of rings (size 3 to 8) (size 9 to 14) (size 15 to 20)
#    0.000    0.800    8.000    3.000    0.000    0.000 
#    0.000    0.000    0.000   13.200    0.000    2.800 
#    0.000    0.000    0.000    0.000    0.000    0.000 
#
# Total GULP energy -112183.547419 kJ/mol
# GULP energy per Si atom -5609.177371 kJ/mol
# Density = 2.418016 g / cm^3
# Si number density = 24.235324 Si / 1000 Ang^3
#
#
#
# Elastic Constant Matrix: (Units=GPa)
#
#
# Indices 1 2 3 4 5 6 
#
# 1 183.0724 44.0611 106.1235 0.0000 0.0000 0.0000
# 2 44.0611 183.0730 106.1232 0.0000 0.0000 0.0000
# 3 106.1235 106.1232 260.8276 0.0000 0.0000 0.0000
# 4 0.0000 0.0000 0.0000 28.1379 0.0000 0.0000
# 5 0.0000 0.0000 0.0000 0.0000 28.1377 0.0000
# 6 0.0000 0.0000 0.0000 0.0000 0.0000 -0.3437
#
#
#
# Elastic Compliance Matrix: (Units=1/GPa)
#
#
# Indices 1 2 3 4 5 6 
#
# 1 0.007149 -0.000045 -0.002890 0.000000 0.000000 0.000000
# 2 -0.000045 0.007149 -0.002890 0.000000 0.000000 0.000000
# 3 -0.002890 -0.002890 0.006186 0.000000 0.000000 0.000000
# 4 0.000000 0.000000 0.000000 0.035539 0.000000 0.000000
# 5 0.000000 0.000000 0.000000 0.000000 0.035540 0.000000
# 6 0.000000 0.000000 0.000000 0.000000 0.000000 -2.909751
#
#
# Mechanical properties :
#
#
# Convention : Reuss Voigt Hill
#
# Bulk Modulus (GPa) = 113.22519 126.62095 119.92307
# Shear Modulus (GPa) = -1.78342 35.89740 17.05699
#
# Velocity S-wave (km/s) = -0.85876 3.85281 2.65581
# Velocity P-wave (km/s) = 6.77032 8.49424 7.68080
#
# Compressibility (1/GPa) = 0.00883196
#
# Stress axis : x y z
#
# Youngs Moduli (GPa) = 139.88813 139.88894 161.65989
#
# Poissons Ratio (x) = 0.00631 0.46723
# Poissons Ratio (y) = 0.00631 0.46723
# Poissons Ratio (z) = 0.40431 0.40430
#
# Static dielectric constant tensor:
#      x y z
#    x 1.890020 0.000000 0.000000 
#    y 0.000000 1.890020 0.000000 
#    z 0.000000 0.000000 1.918110 
# 
# From -- ./inp_files/3638.got.cif
#   From: 2010.05.17/outbox.cif.g08.bks.cpg/sg93_2_cif.got.tgz:3638.got - 2010.06.03 19:38:44.
