data_PCOD9549535
_publ_section_title
;
Structure prediction by ZEFSAII (Michael W. Deem and Ramdas Pophale) SiO2 
 PCOD9549535
Probable space group: P 41 21 2
;
_chemical_formula_sum "Si O2"
_cell_formula_units_Z 28
_cell_length_a 7.795050
_cell_length_b 7.795050
_cell_length_c 18.408122
_cell_angle_alpha 90.000000
_cell_angle_beta 90.000000
_cell_angle_gamma 90.000000
_cell_volume 1118.529118
_symmetry_space_group_name_H-M "P 41 21 2"
_symmetry_group_IT_number 92
_symmetry_cell_setting 'tetragonal'
loop_
_space_group_symop_operation_xyz
x,y,z
1/2-y,1/2+x,1/4+z
-x,-y,1/2+z
1/2+y,1/2-x,3/4+z
1/2+x,1/2-y,3/4-z
1/2-x,1/2+y,1/4-z
y,x,-z
-y,-x,1/2-z
loop_
_atom_site_type_symbol
_atom_site_label
_atom_site_fract_x
_atom_site_fract_y
_atom_site_fract_z
Si Si1 0.831682 0.111801 0.333950
Si Si2 0.705592 0.091056 0.601902
Si Si3 0.747185 0.252816 0.750000
Si Si4 0.669063 0.448648 0.327999
O O1 0.880655 0.119346 0.250000
O O2 0.791400 0.305032 0.361167
O O3 0.492546 0.453379 0.371582
O O4 0.222643 0.854612 0.426585
O O5 0.739089 0.103439 0.689291
O O6 0.731921 0.926506 0.548929
O O7 0.983138 0.672035 0.657307
O O8 0.624821 0.375180 0.250000
#
# Coordination Sequence:
#
# PCOD9549535 Si02
#       4
#     8   8   4   8
#     4  11  28  45  79 114 157 211 273 345 416 497
#     4  12  26  54  79 123 162 225 276 351 415 522
#     4  12  30  50  88 118 176 216 292 344 438 504
#     4  11  26  49  74 113 158 206 269 340 413 501
#
# _framework density 25.032876000000002
#
# number of rings (size 3 to 8) (size 9 to 14) (size 15 to 20)
#    0.000    0.571    4.286    0.000   14.000    2.286 
#    0.000    0.000    0.000    0.000    0.000    0.000 
#    0.000    0.000    0.000    0.000    0.000    0.000 
#
# Total GULP energy -156405.955436 kJ/mol
# GULP energy per Si atom -5585.926980 kJ/mol
# Density = 2.497590 g / cm^3
# Si number density = 25.032876 Si / 1000 Ang^3
#
#
#
# Elastic Constant Matrix: (Units=GPa)
#
#
# Indices 1 2 3 4 5 6 
#
# 1 92.3809 45.4213 41.7619 0.0000 0.0000 0.0000
# 2 45.4213 92.3837 41.7609 0.0000 0.0000 0.0000
# 3 41.7619 41.7609 143.7054 0.0000 0.0000 0.0000
# 4 0.0000 0.0000 0.0000 39.7171 0.0000 0.0000
# 5 0.0000 0.0000 0.0000 0.0000 39.7176 0.0000
# 6 0.0000 0.0000 0.0000 0.0000 0.0000 31.8427
#
#
#
# Elastic Compliance Matrix: (Units=1/GPa)
#
#
# Indices 1 2 3 4 5 6 
#
# 1 0.015052 -0.006243 -0.002560 0.000000 0.000000 0.000000
# 2 -0.006243 0.015051 -0.002560 0.000000 0.000000 0.000000
# 3 -0.002560 -0.002560 0.008446 0.000000 0.000000 0.000000
# 4 0.000000 0.000000 0.000000 0.025178 0.000000 0.000000
# 5 0.000000 0.000000 0.000000 0.000000 0.025178 0.000000
# 6 0.000000 0.000000 0.000000 0.000000 0.000000 0.031404
#
#
# Mechanical properties :
#
#
# Convention : Reuss Voigt Hill
#
# Bulk Modulus (GPa) = 63.19544 65.15091 64.17318
# Shear Modulus (GPa) = 33.71351 35.55720 34.63536
#
# Velocity S-wave (km/s) = 3.67382 3.77294 3.72371
# Velocity P-wave (km/s) = 6.57995 6.71287 6.64674
#
# Compressibility (1/GPa) = 0.01582393
#
# Stress axis : x y z
#
# Youngs Moduli (GPa) = 66.43843 66.44123 118.39378
#
# Poissons Ratio (x) = 0.41480 0.30307
# Poissons Ratio (y) = 0.41478 0.30303
# Poissons Ratio (z) = 0.17007 0.17006
#
# Static dielectric constant tensor:
#      x y z
#    x 2.091100 0.000000 0.000000 
#    y 0.000000 2.091110 0.000000 
#    z 0.000000 0.000000 1.936230 
# 
# From -- ./inp_files/2949.got.cif
#   From: 2010.05.17/outbox.cif.g08.bks.cpg/sg92_2_cif.got.tgz:2949.got - 2010.06.03 19:35:17.
