data_PCOD9549053
_publ_section_title
;
Structure prediction by ZEFSAII (Michael W. Deem and Ramdas Pophale) SiO2 
 PCOD9549053
Probable space group: P 41 21 2
;
_chemical_formula_sum "Si O2"
_cell_formula_units_Z 40
_cell_length_a 8.670107
_cell_length_b 8.670107
_cell_length_c 23.774420
_cell_angle_alpha 90.000000
_cell_angle_beta 90.000000
_cell_angle_gamma 90.000000
_cell_volume 1787.141110
_symmetry_space_group_name_H-M "P 41 21 2"
_symmetry_group_IT_number 92
_symmetry_cell_setting 'tetragonal'
loop_
_space_group_symop_operation_xyz
x,y,z
1/2-y,1/2+x,1/4+z
-x,-y,1/2+z
1/2+y,1/2-x,3/4+z
1/2+x,1/2-y,3/4-z
1/2-x,1/2+y,1/4-z
y,x,-z
-y,-x,1/2-z
loop_
_atom_site_type_symbol
_atom_site_label
_atom_site_fract_x
_atom_site_fract_y
_atom_site_fract_z
Si Si1 0.676857 0.349307 0.913926
Si Si2 0.130445 0.993747 0.946927
Si Si3 0.711162 0.161530 0.305356
Si Si4 0.142214 0.926590 0.373613
Si Si5 0.355630 0.182776 0.335463
O O1 0.727950 0.486670 0.954465
O O2 0.758051 0.186107 0.912366
O O3 0.491609 0.339991 0.911316
O O4 0.966065 0.644991 0.925167
O O5 0.962885 0.972980 0.916400
O O6 0.190526 0.821934 0.956659
O O7 0.222147 0.082287 0.898481
O O8 0.099472 0.099472 0.000000
O O9 0.737997 0.262004 0.250000
O O10 0.816742 0.239006 0.354041
O O11 0.250057 0.031881 0.335272
#
# Coordination Sequence:
#
# PCOD9549053 Si02
#       5
#     8   8   8   8   8
#     4   9  21  40  59  87 128 154 210 262 323 381
#     4   9  20  38  64  86 118 166 212 249 314 387
#     4  11  22  41  61  93 130 172 217 272 328 392
#     4  10  20  39  63  86 127 163 202 272 316 370
#     4  11  20  38  62  91 123 163 221 259 311 392
#
# _framework density 22.382117999999998
#
# number of rings (size 3 to 8) (size 9 to 14) (size 15 to 20)
#    1.200    0.800    2.000    1.800    0.000    0.000 
#   10.800    1.000    0.000    0.000    0.000    0.000 
#    0.000    0.000    0.000    0.000    0.000    0.000 
#
# Total GULP energy -222833.039346 kJ/mol
# GULP energy per Si atom -5570.825984 kJ/mol
# Density = 2.233118 g / cm^3
# Si number density = 22.382118 Si / 1000 Ang^3
#
#
#
# Elastic Constant Matrix: (Units=GPa)
#
#
# Indices 1 2 3 4 5 6 
#
# 1 83.2533 51.3313 -4.0368 0.0000 0.0000 0.0000
# 2 51.3313 83.2535 -4.0366 0.0000 0.0000 0.0000
# 3 -4.0368 -4.0366 33.1229 0.0000 0.0000 0.0000
# 4 0.0000 0.0000 0.0000 17.1158 0.0000 0.0000
# 5 0.0000 0.0000 0.0000 0.0000 17.1158 0.0000
# 6 0.0000 0.0000 0.0000 0.0000 0.0000 43.7241
#
#
#
# Elastic Compliance Matrix: (Units=1/GPa)
#
#
# Indices 1 2 3 4 5 6 
#
# 1 0.019406 -0.011921 0.000912 0.000000 0.000000 0.000000
# 2 -0.011921 0.019406 0.000912 0.000000 0.000000 0.000000
# 3 0.000912 0.000912 0.030413 0.000000 0.000000 0.000000
# 4 0.000000 0.000000 0.000000 0.058426 0.000000 0.000000
# 5 0.000000 0.000000 0.000000 0.000000 0.058425 0.000000
# 6 0.000000 0.000000 0.000000 0.000000 0.000000 0.022871
#
#
# Mechanical properties :
#
#
# Convention : Reuss Voigt Hill
#
# Bulk Modulus (GPa) = 20.39495 31.79395 26.09445
# Shear Modulus (GPa) = 20.36805 26.01592 23.19199
#
# Velocity S-wave (km/s) = 3.01992 3.41303 3.22247
# Velocity P-wave (km/s) = 4.61431 5.45597 5.05269
#
# Compressibility (1/GPa) = 0.04903174
#
# Stress axis : x y z
#
# Youngs Moduli (GPa) = 51.53134 51.53154 32.88070
#
# Poissons Ratio (x) = 0.61429 -0.03000
# Poissons Ratio (y) = 0.61429 -0.02999
# Poissons Ratio (z) = -0.04701 -0.04700
#
# Static dielectric constant tensor:
#      x y z
#    x 1.856730 0.000000 0.000000 
#    y 0.000000 1.856730 0.000000 
#    z 0.000000 0.000000 1.869250 
# 
# From -- ./inp_files/4163.got.cif
#   From: 2010.05.17/outbox.cif.g08.bks.cpg/sg92_3_cif.got.tgz:4163.got - 2010.06.03 19:35:17.
