data_PCOD9549373
_publ_section_title
;
Structure prediction by ZEFSAII (Michael W. Deem and Ramdas Pophale) SiO2 
 PCOD9549373
Probable space group: P 41 21 2
;
_chemical_formula_sum "Si O2"
_cell_formula_units_Z 40
_cell_length_a 13.034071
_cell_length_b 13.034071
_cell_length_c 9.927255
_cell_angle_alpha 90.000000
_cell_angle_beta 90.000000
_cell_angle_gamma 90.000000
_cell_volume 1686.511638
_symmetry_space_group_name_H-M "P 41 21 2"
_symmetry_group_IT_number 92
_symmetry_cell_setting 'tetragonal'
loop_
_space_group_symop_operation_xyz
x,y,z
1/2-y,1/2+x,1/4+z
-x,-y,1/2+z
1/2+y,1/2-x,3/4+z
1/2+x,1/2-y,3/4-z
1/2-x,1/2+y,1/4-z
y,x,-z
-y,-x,1/2-z
loop_
_atom_site_type_symbol
_atom_site_label
_atom_site_fract_x
_atom_site_fract_y
_atom_site_fract_z
Si Si1 0.808731 0.963488 0.222971
Si Si2 0.470841 0.273350 0.764994
Si Si3 0.927288 0.447375 0.071175
Si Si4 0.241311 0.875960 0.510375
Si Si5 0.435437 0.728549 0.555891
O O1 0.692460 0.925612 0.197115
O O2 0.884381 0.880946 0.158513
O O3 0.826493 0.982208 0.381640
O O4 0.802692 0.070009 0.144177
O O5 0.483263 0.153331 0.732238
O O6 0.351538 0.302556 0.784447
O O7 0.525704 0.290349 0.904861
O O8 0.959375 0.540030 0.974952
O O9 0.344521 0.813421 0.546420
O O10 0.254294 0.967990 0.401508
#
# Coordination Sequence:
#
# PCOD9549373 Si02
#       5
#     8   8   8   8   8
#     4  11  26  47  77 104 149 187 244 294 362 424
#     4  11  26  47  77 104 149 187 244 294 362 424
#     4  10  24  42  70 108 146 186 236 298 360 418
#     4  12  29  49  74 109 146 191 240 298 359 430
#     4  12  29  49  74 109 146 191 240 298 359 430
#
# _framework density 23.717597000000001
#
# number of rings (size 3 to 8) (size 9 to 14) (size 15 to 20)
#    0.000    0.800    2.000    2.400   14.000    8.000 
#    0.000    0.000    0.000    0.000    0.000    0.000 
#    0.000    0.000    0.000    0.000    0.000    0.000 
#
# Total GULP energy -223814.196394 kJ/mol
# GULP energy per Si atom -5595.354910 kJ/mol
# Density = 2.366361 g / cm^3
# Si number density = 23.717597 Si / 1000 Ang^3
#
#
#
# Elastic Constant Matrix: (Units=GPa)
#
#
# Indices 1 2 3 4 5 6 
#
# 1 51.1696 95.6990 38.7523 0.0000 0.0000 0.0000
# 2 95.6990 51.1696 38.7523 0.0000 0.0000 0.0000
# 3 38.7523 38.7523 127.8547 0.0000 0.0000 0.0000
# 4 0.0000 0.0000 0.0000 31.4005 0.0000 0.0000
# 5 0.0000 0.0000 0.0000 0.0000 31.4005 0.0000
# 6 0.0000 0.0000 0.0000 0.0000 0.0000 41.0237
#
#
#
# Elastic Compliance Matrix: (Units=1/GPa)
#
#
# Indices 1 2 3 4 5 6 
#
# 1 -0.007176 0.015281 -0.002457 0.000000 0.000000 0.000000
# 2 0.015281 -0.007176 -0.002457 0.000000 0.000000 0.000000
# 3 -0.002457 -0.002457 0.009311 0.000000 0.000000 0.000000
# 4 0.000000 0.000000 0.000000 0.031847 0.000000 0.000000
# 5 0.000000 0.000000 0.000000 0.000000 0.031847 0.000000
# 6 0.000000 0.000000 0.000000 0.000000 0.000000 0.024376
#
#
# Mechanical properties :
#
#
# Convention : Reuss Voigt Hill
#
# Bulk Modulus (GPa) = 63.71707 64.06679 63.89193
# Shear Modulus (GPa) = 74.04787 24.56431 49.30609
#
# Velocity S-wave (km/s) = 5.59361 3.22172 4.56442
# Velocity P-wave (km/s) = 8.28499 6.39612 7.40106
#
# Compressibility (1/GPa) = 0.01569438
#
# Stress axis : x y z
#
# Youngs Moduli (GPa) = -139.35470 -139.35470 107.40456
#
# Poissons Ratio (x) = 2.12950 0.26386
# Poissons Ratio (y) = 2.12950 0.26386
# Poissons Ratio (z) = -0.34235 -0.34235
#
# Static dielectric constant tensor:
#      x y z
#    x 1.940790 0.000000 0.000000 
#    y 0.000000 1.940790 0.000000 
#    z 0.000000 0.000000 1.910890 
# 
# From -- ./inp_files/1284.got.cif
#   From: 2010.05.17/outbox.cif.g08.bks.cpg/sg92_1_cif.got.tgz:1284.got - 2010.06.03 19:35:17.
