data_PCOD9549579
_publ_section_title
;
Structure prediction by ZEFSAII (Michael W. Deem and Ramdas Pophale) SiO2 
 PCOD9549579
Probable space group: P 41 21 2
;
_chemical_formula_sum "Si O2"
_cell_formula_units_Z 20
_cell_length_a 6.924974
_cell_length_b 6.924974
_cell_length_c 13.254806
_cell_angle_alpha 90.000000
_cell_angle_beta 90.000000
_cell_angle_gamma 90.000000
_cell_volume 635.637733
_symmetry_space_group_name_H-M "P 41 21 2"
_symmetry_group_IT_number 92
_symmetry_cell_setting 'tetragonal'
loop_
_space_group_symop_operation_xyz
x,y,z
1/2-y,1/2+x,1/4+z
-x,-y,1/2+z
1/2+y,1/2-x,3/4+z
1/2+x,1/2-y,3/4-z
1/2-x,1/2+y,1/4-z
y,x,-z
-y,-x,1/2-z
loop_
_atom_site_type_symbol
_atom_site_label
_atom_site_fract_x
_atom_site_fract_y
_atom_site_fract_z
Si Si1 0.320288 0.906412 0.339499
Si Si2 0.234325 0.999872 0.833195
Si Si3 0.547616 0.452385 0.250000
O O1 0.197923 0.802078 0.250000
O O2 0.344055 0.720158 0.413441
O O3 0.192559 0.051581 0.406268
O O4 0.533380 0.995080 0.322285
O O5 0.125197 0.874804 0.750000
O O6 0.157665 0.933005 0.943082
#
# Coordination Sequence:
#
# PCOD9549579 Si02
#       3
#     8   8   4
#     4  12  27  58 107 150 215 271 348 431 526 626
#     4  12  27  53 105 153 206 276 348 432 521 628
#     4  12  28  56 106 150 208 270 348 432 516 622
#
# _framework density 31.464468
#
# number of rings (size 3 to 8) (size 9 to 14) (size 15 to 20)
#    0.000    0.000    6.000    1.200    2.800    3.200 
#    0.000    4.000   57.200    2.400    0.000    0.000 
#    0.000    0.000    0.000    0.000    0.000    0.000 
#
# Total GULP energy -112321.823082 kJ/mol
# GULP energy per Si atom -5616.091154 kJ/mol
# Density = 3.139285 g / cm^3
# Si number density = 31.464468 Si / 1000 Ang^3
#
#
#
# Elastic Constant Matrix: (Units=GPa)
#
#
# Indices 1 2 3 4 5 6 
#
# 1 235.0458 112.2883 132.7924 0.0000 0.0000 0.0000
# 2 112.2883 235.0455 132.7928 0.0000 0.0000 0.0000
# 3 132.7924 132.7928 246.5818 0.0000 0.0000 0.0000
# 4 0.0000 0.0000 0.0000 81.2173 0.0000 0.0000
# 5 0.0000 0.0000 0.0000 0.0000 81.2168 0.0000
# 6 0.0000 0.0000 0.0000 0.0000 0.0000 65.2878
#
#
#
# Elastic Compliance Matrix: (Units=1/GPa)
#
#
# Indices 1 2 3 4 5 6 
#
# 1 0.006520 -0.001626 -0.002636 0.000000 0.000000 0.000000
# 2 -0.001626 0.006520 -0.002636 0.000000 0.000000 0.000000
# 3 -0.002636 -0.002636 0.006894 0.000000 0.000000 0.000000
# 4 0.000000 0.000000 0.000000 0.012313 0.000000 0.000000
# 5 0.000000 0.000000 0.000000 0.000000 0.012313 0.000000
# 6 0.000000 0.000000 0.000000 0.000000 0.000000 0.015317
#
#
# Mechanical properties :
#
#
# Convention : Reuss Voigt Hill
#
# Bulk Modulus (GPa) = 162.86471 163.60222 163.23346
# Shear Modulus (GPa) = 66.03341 68.13101 67.08221
#
# Velocity S-wave (km/s) = 4.58609 4.65836 4.62237
# Velocity P-wave (km/s) = 8.93962 9.00236 8.97105
#
# Compressibility (1/GPa) = 0.00614007
#
# Stress axis : x y z
#
# Youngs Moduli (GPa) = 153.36587 153.36521 145.04335
#
# Poissons Ratio (x) = 0.24934 0.38232
# Poissons Ratio (y) = 0.24934 0.38232
# Poissons Ratio (z) = 0.40425 0.40426
#
# Static dielectric constant tensor:
#      x y z
#    x 2.559530 0.000000 0.000000 
#    y 0.000000 2.559520 0.000000 
#    z 0.000000 0.000000 2.543130 
# 
# From -- ./inp_files/2372.got.cif
#   From: 2010.05.17/outbox.cif.g08.bks.cpg/sg92_2_cif.got.tgz:2372.got - 2010.06.03 19:35:17.
