data_PCOD9549246
_publ_section_title
;
Structure prediction by ZEFSAII (Michael W. Deem and Ramdas Pophale) SiO2 
 PCOD9549246
Probable space group: P 41 21 2
;
_chemical_formula_sum "Si O2"
_cell_formula_units_Z 48
_cell_length_a 8.886306
_cell_length_b 8.886306
_cell_length_c 30.815000
_cell_angle_alpha 90.000000
_cell_angle_beta 90.000000
_cell_angle_gamma 90.000000
_cell_volume 2433.350674
_symmetry_space_group_name_H-M "P 41 21 2"
_symmetry_group_IT_number 92
_symmetry_cell_setting 'tetragonal'
loop_
_space_group_symop_operation_xyz
x,y,z
1/2-y,1/2+x,1/4+z
-x,-y,1/2+z
1/2+y,1/2-x,3/4+z
1/2+x,1/2-y,3/4-z
1/2-x,1/2+y,1/4-z
y,x,-z
-y,-x,1/2-z
loop_
_atom_site_type_symbol
_atom_site_label
_atom_site_fract_x
_atom_site_fract_y
_atom_site_fract_z
Si Si1 0.335216 0.192543 0.167665
Si Si2 0.677907 0.677907 0.500000
Si Si3 0.673738 0.338916 0.331228
Si Si4 0.331529 0.675396 0.992899
Si Si5 0.184796 0.815205 0.750000
Si Si6 0.666478 0.845181 0.411076
Si Si7 0.683569 0.668761 0.838518
O O1 0.495127 0.265055 0.178857
O O2 0.224271 0.210640 0.208597
O O3 0.266878 0.272732 0.125607
O O4 0.353941 0.014445 0.159188
O O5 0.694684 0.503171 0.486251
O O6 0.707579 0.782391 0.458745
O O7 0.716305 0.232124 0.291102
O O8 0.495983 0.341704 0.339155
O O9 0.757456 0.278412 0.373884
O O10 0.509075 0.706303 0.988842
O O11 0.240363 0.768065 0.957444
O O12 0.742058 0.006345 0.404093
#
# Coordination Sequence:
#
# PCOD9549246 Si02
#       7
#     8   4   8   8   4   8   8
#     4  11  23  41  64  92 127 165 209 258 316 379
#     4   9  22  41  62  88 122 161 200 249 308 374
#     4  12  25  42  63  91 126 165 210 259 315 378
#     4  10  22  41  64  91 124 161 203 253 310 374
#     4  11  22  41  66  94 126 161 206 257 312 374
#     4  11  23  40  64  93 124 164 209 260 316 374
#     4  12  25  41  63  91 123 163 210 260 315 373
#
# _framework density 19.725885999999999
#
# number of rings (size 3 to 8) (size 9 to 14) (size 15 to 20)
#    0.000    1.000    0.000    7.000    0.000    7.333 
#    0.000    0.000    0.000    0.000    0.000    0.000 
#    0.000    0.000    0.000    0.000    0.000    0.000 
#
# Total GULP energy -268684.637004 kJ/mol
# GULP energy per Si atom -5597.596604 kJ/mol
# Density = 1.968099 g / cm^3
# Si number density = 19.725886 Si / 1000 Ang^3
#
#
#
# Elastic Constant Matrix: (Units=GPa)
#
#
# Indices 1 2 3 4 5 6 
#
# 1 73.0788 17.6538 12.4988 0.0000 0.0000 0.0000
# 2 17.6538 73.0784 12.4986 0.0000 0.0000 0.0000
# 3 12.4988 12.4986 55.4202 0.0000 0.0000 0.0000
# 4 0.0000 0.0000 0.0000 26.5026 0.0000 0.0000
# 5 0.0000 0.0000 0.0000 0.0000 26.5025 0.0000
# 6 0.0000 0.0000 0.0000 0.0000 0.0000 29.3273
#
#
#
# Elastic Compliance Matrix: (Units=1/GPa)
#
#
# Indices 1 2 3 4 5 6 
#
# 1 0.014897 -0.003145 -0.002650 0.000000 0.000000 0.000000
# 2 -0.003145 0.014897 -0.002650 0.000000 0.000000 0.000000
# 3 -0.002650 -0.002650 0.019239 0.000000 0.000000 0.000000
# 4 0.000000 0.000000 0.000000 0.037732 0.000000 0.000000
# 5 0.000000 0.000000 0.000000 0.000000 0.037732 0.000000
# 6 0.000000 0.000000 0.000000 0.000000 0.000000 0.034098
#
#
# Mechanical properties :
#
#
# Convention : Reuss Voigt Hill
#
# Bulk Modulus (GPa) = 31.11249 31.87552 31.49401
# Shear Modulus (GPa) = 26.85261 27.06156 26.95709
#
# Velocity S-wave (km/s) = 3.69357 3.70791 3.70074
# Velocity P-wave (km/s) = 5.83066 5.87586 5.85330
#
# Compressibility (1/GPa) = 0.03214143
#
# Stress axis : x y z
#
# Youngs Moduli (GPa) = 67.12764 67.12736 51.97669
#
# Poissons Ratio (x) = 0.21114 0.13775
# Poissons Ratio (y) = 0.21115 0.13775
# Poissons Ratio (z) = 0.17791 0.17790
#
# Static dielectric constant tensor:
#      x y z
#    x 1.648200 0.000000 0.000000 
#    y 0.000000 1.648200 0.000000 
#    z 0.000000 0.000000 1.656280 
# 
# From -- ./inp_files/4569.got.cif
#   From: 2010.05.17/outbox.cif.g08.bks.cpg/sg92_3_cif.got.tgz:4569.got - 2010.06.03 19:35:17.
