data_PCOD9549253
_publ_section_title
;
Structure prediction by ZEFSAII (Michael W. Deem and Ramdas Pophale) SiO2 
 PCOD9549253
Probable space group: P 41 21 2
;
_chemical_formula_sum "Si O2"
_cell_formula_units_Z 52
_cell_length_a 20.313676
_cell_length_b 20.313676
_cell_length_c 5.879652
_cell_angle_alpha 90.000000
_cell_angle_beta 90.000000
_cell_angle_gamma 90.000000
_cell_volume 2426.211543
_symmetry_space_group_name_H-M "P 41 21 2"
_symmetry_group_IT_number 92
_symmetry_cell_setting 'tetragonal'
loop_
_space_group_symop_operation_xyz
x,y,z
1/2-y,1/2+x,1/4+z
-x,-y,1/2+z
1/2+y,1/2-x,3/4+z
1/2+x,1/2-y,3/4-z
1/2-x,1/2+y,1/4-z
y,x,-z
-y,-x,1/2-z
loop_
_atom_site_type_symbol
_atom_site_label
_atom_site_fract_x
_atom_site_fract_y
_atom_site_fract_z
Si Si1 0.629616 0.629616 0.500000
Si Si2 0.182901 0.453515 0.068096
Si Si3 0.314052 0.685949 0.750000
Si Si4 0.768436 0.091016 0.082449
Si Si5 0.086754 0.538659 0.835239
Si Si6 0.011422 0.818458 0.540123
Si Si7 0.863049 0.863049 0.500000
Si Si8 0.662258 0.839172 0.119776
O O1 0.637745 0.687384 0.680034
O O2 0.642523 0.559902 0.619871
O O3 0.217689 0.448652 0.823583
O O4 0.120370 0.500565 0.047367
O O5 0.240795 0.484286 0.222606
O O6 0.163561 0.379084 0.142860
O O7 0.348572 0.671042 0.500973
O O8 0.331705 0.760457 0.829063
O O9 0.818469 0.043189 0.210919
O O10 0.725323 0.132844 0.251277
O O11 0.072083 0.481549 0.654755
O O12 0.135934 0.594528 0.747873
O O13 0.939156 0.846300 0.538830
#
# Coordination Sequence:
#
# PCOD9549253 Si02
#       8
#     4   8   4   8   8   8   4   8
#     4  10  22  41  74 107 138 182 241 318 371 474
#     4  10  23  43  68 101 142 194 247 314 378 450
#     4  12  32  48  79 111 152 206 268 318 392 474
#     4  10  22  43  70 107 139 188 242 316 385 441
#     4  12  24  42  67 103 146 196 251 305 378 465
#     4  10  24  45  74 101 148 188 248 310 393 463
#     4  12  30  51  73 110 156 206 243 312 395 476
#     4  11  26  43  72 107 144 196 252 330 370 454
#
# _framework density 21.432592
#
# number of rings (size 3 to 8) (size 9 to 14) (size 15 to 20)
#    0.000    1.231    1.538    2.308   15.077    1.231 
#    2.769    0.000    0.000    0.000    0.000    0.000 
#    0.000    0.000    0.000    0.000    0.000    0.000 
#
# Total GULP energy -290114.180667 kJ/mol
# GULP energy per Si atom -5579.118859 kJ/mol
# Density = 2.138381 g / cm^3
# Si number density = 21.432592 Si / 1000 Ang^3
#
#
#
# Elastic Constant Matrix: (Units=GPa)
#
#
# Indices 1 2 3 4 5 6 
#
# 1 115.6694 47.4947 34.1854 0.0000 0.0000 0.0000
# 2 47.4947 115.6756 34.1856 0.0000 0.0000 0.0000
# 3 34.1854 34.1856 90.1397 0.0000 0.0000 0.0000
# 4 0.0000 0.0000 0.0000 24.6596 0.0000 0.0000
# 5 0.0000 0.0000 0.0000 0.0000 24.6596 0.0000
# 6 0.0000 0.0000 0.0000 0.0000 0.0000 33.3492
#
#
#
# Elastic Compliance Matrix: (Units=1/GPa)
#
#
# Indices 1 2 3 4 5 6 
#
# 1 0.010977 -0.003690 -0.002764 0.000000 0.000000 0.000000
# 2 -0.003690 0.010977 -0.002763 0.000000 0.000000 0.000000
# 3 -0.002764 -0.002763 0.013190 0.000000 0.000000 0.000000
# 4 0.000000 0.000000 0.000000 0.040552 0.000000 0.000000
# 5 0.000000 0.000000 0.000000 0.000000 0.040552 0.000000
# 6 0.000000 0.000000 0.000000 0.000000 0.000000 0.029986
#
#
# Mechanical properties :
#
#
# Convention : Reuss Voigt Hill
#
# Bulk Modulus (GPa) = 59.84652 61.46848 60.65750
# Shear Modulus (GPa) = 29.37053 30.24162 29.80608
#
# Velocity S-wave (km/s) = 3.70586 3.76042 3.73324
# Velocity P-wave (km/s) = 6.80404 6.89902 6.85170
#
# Compressibility (1/GPa) = 0.01670941
#
# Stress axis : x y z
#
# Youngs Moduli (GPa) = 91.09621 91.10150 75.81517
#
# Poissons Ratio (x) = 0.33621 0.20952
# Poissons Ratio (y) = 0.33619 0.20950
# Poissons Ratio (z) = 0.25175 0.25175
#
# Static dielectric constant tensor:
#      x y z
#    x 1.778900 0.000000 0.000000 
#    y 0.000000 1.778900 0.000000 
#    z 0.000000 0.000000 1.893060 
# 
# From -- ./inp_files/775.got.cif
#   From: 2010.05.17/outbox.cif.g08.bks.cpg/sg92_1_cif.got.tgz:775.got - 2010.06.03 19:35:17.
