data_PCOD9549667
_publ_section_title
;
Structure prediction by ZEFSAII (Michael W. Deem and Ramdas Pophale) SiO2 
 PCOD9549667
Probable space group: P 42 2 2
;
_chemical_formula_sum "Si O2"
_cell_formula_units_Z 56
_cell_length_a 15.000207
_cell_length_b 15.000207
_cell_length_c 11.800886
_cell_angle_alpha 90.000000
_cell_angle_beta 90.000000
_cell_angle_gamma 90.000000
_cell_volume 2655.272634
_symmetry_space_group_name_H-M "P 42 2 2"
_symmetry_group_IT_number 93
_symmetry_cell_setting 'tetragonal'
loop_
_space_group_symop_operation_xyz
x,y,z
-y,x,1/2+z
-x,-y,z
y,-x,1/2+z
x,-y,-z
-x,y,-z
y,x,1/2-z
-y,-x,1/2-z
loop_
_atom_site_type_symbol
_atom_site_label
_atom_site_fract_x
_atom_site_fract_y
_atom_site_fract_z
Si Si1 0.863549 0.779520 0.602479
Si Si2 0.709243 0.637074 0.597214
Si Si3 0.534059 0.724016 0.691558
Si Si4 0.548063 0.082953 0.376617
Si Si5 0.302104 0.342384 0.121316
Si Si6 0.843883 0.204084 0.878676
Si Si7 0.752896 0.045357 0.325590
O O1 0.797006 0.695501 0.623351
O O2 0.866334 0.799710 0.467298
O O3 0.945926 0.760361 0.687419
O O4 0.813995 0.871261 0.638112
O O5 0.624155 0.698789 0.626364
O O6 0.696855 0.553387 0.679274
O O7 0.702473 0.627671 0.463225
O O8 0.526122 0.829159 0.690812
O O9 0.448424 0.689178 0.625877
O O10 0.500000 0.092683 0.500000
O O11 0.653400 0.064330 0.372014
O O12 0.500000 0.000000 0.320086
O O13 0.316590 0.316590 0.250000
O O14 0.206106 0.297993 0.090901
O O15 0.820071 0.179930 0.750000
O O16 0.950770 0.215008 0.875724
#
# Coordination Sequence:
#
# PCOD9549667 Si02
#       7
#     8   8   8   8   8   8   8
#     4  10  20  37  60  87 126 166 202 251 327 389
#     4  10  19  36  59  83 121 163 201 242 315 385
#     4  11  19  35  58  86 119 155 199 251 310 379
#     4  11  22  29  53  98 129 153 187 263 341 381
#     4  10  22  37  55  83 116 161 210 256 304 371
#     4  10  23  39  59  85 118 169 216 260 320 388
#     4  11  20  37  59  91 126 158 206 264 326 391
#
# _framework density 21.090111
#
# number of rings (size 3 to 8) (size 9 to 14) (size 15 to 20)
#    0.000    1.571    2.857    3.429    6.000    1.143 
#    0.000    2.857    0.000    6.857    0.000    0.000 
#    0.000    0.000    0.000    0.000    0.000    0.000 
#
# Total GULP energy -312093.737972 kJ/mol
# GULP energy per Si atom -5573.102464 kJ/mol
# Density = 2.104211 g / cm^3
# Si number density = 21.090111 Si / 1000 Ang^3
#
#
#
# Elastic Constant Matrix: (Units=GPa)
#
#
# Indices 1 2 3 4 5 6 
#
# 1 147.5634 -85.8541 19.5342 0.0000 0.0000 0.0000
# 2 -85.8541 147.5613 19.5345 0.0000 0.0000 0.0000
# 3 19.5342 19.5345 133.5605 0.0000 0.0000 0.0000
# 4 0.0000 0.0000 0.0000 32.2186 0.0000 0.0000
# 5 0.0000 0.0000 0.0000 0.0000 32.2187 0.0000
# 6 0.0000 0.0000 0.0000 0.0000 0.0000 9.9106
#
#
#
# Elastic Compliance Matrix: (Units=1/GPa)
#
#
# Indices 1 2 3 4 5 6 
#
# 1 0.011072 0.006787 -0.002612 0.000000 0.000000 0.000000
# 2 0.006787 0.011072 -0.002612 0.000000 0.000000 0.000000
# 3 -0.002612 -0.002612 0.008251 0.000000 0.000000 0.000000
# 4 0.000000 0.000000 0.000000 0.031038 0.000000 0.000000
# 5 0.000000 0.000000 0.000000 0.000000 0.031038 0.000000
# 6 0.000000 0.000000 0.000000 0.000000 0.000000 0.100902
#
#
# Mechanical properties :
#
#
# Convention : Reuss Voigt Hill
#
# Bulk Modulus (GPa) = 29.83185 37.23493 33.53339
# Shear Modulus (GPa) = 24.82385 46.56762 35.69574
#
# Velocity S-wave (km/s) = 3.43452 4.70407 4.11851
# Velocity P-wave (km/s) = 5.46841 6.87007 6.20892
#
# Compressibility (1/GPa) = 0.03352122
#
# Stress axis : x y z
#
# Youngs Moduli (GPa) = 90.32182 90.32044 121.19289
#
# Poissons Ratio (x) = -0.61304 0.31656
# Poissons Ratio (y) = -0.61305 0.31656
# Poissons Ratio (z) = 0.23592 0.23592
#
# Static dielectric constant tensor:
#      x y z
#    x 1.779740 0.000000 0.000000 
#    y 0.000000 1.779740 0.000000 
#    z 0.000000 0.000000 1.921470 
# 
# From -- ./inp_files/3474.got.cif
#   From: 2010.05.17/outbox.cif.g08.bks.cpg/sg93_2_cif.got.tgz:3474.got - 2010.06.03 19:38:44.
