data_PCOD9549277
_publ_section_title
;
Structure prediction by ZEFSAII (Michael W. Deem and Ramdas Pophale) SiO2 
 PCOD9549277
Probable space group: P 41 21 2
;
_chemical_formula_sum "Si O2"
_cell_formula_units_Z 40
_cell_length_a 7.798650
_cell_length_b 7.798650
_cell_length_c 26.580960
_cell_angle_alpha 90.000000
_cell_angle_beta 90.000000
_cell_angle_gamma 90.000000
_cell_volume 1616.625860
_symmetry_space_group_name_H-M "P 41 21 2"
_symmetry_group_IT_number 92
_symmetry_cell_setting 'tetragonal'
loop_
_space_group_symop_operation_xyz
x,y,z
1/2-y,1/2+x,1/4+z
-x,-y,1/2+z
1/2+y,1/2-x,3/4+z
1/2+x,1/2-y,3/4-z
1/2-x,1/2+y,1/4-z
y,x,-z
-y,-x,1/2-z
loop_
_atom_site_type_symbol
_atom_site_label
_atom_site_fract_x
_atom_site_fract_y
_atom_site_fract_z
Si Si1 0.754514 0.754514 0.000000
Si Si2 0.873606 0.126395 0.750000
Si Si3 0.694662 0.072895 0.953708
Si Si4 0.888029 0.684309 0.189110
Si Si5 0.291027 0.569500 0.433315
Si Si6 0.401190 0.095578 0.648053
O O1 0.566083 0.777303 0.024805
O O2 0.885456 0.778465 0.046153
O O3 0.923637 0.281661 0.713231
O O4 0.888657 0.972043 0.709371
O O5 0.777999 0.235514 0.926491
O O6 0.499498 0.029265 0.936639
O O7 0.713112 0.119365 0.012307
O O8 0.781749 0.851602 0.171075
O O9 0.891109 0.548704 0.145024
O O10 0.261644 0.479290 0.380004
#
# Coordination Sequence:
#
# PCOD9549277 Si02
#       6
#     4   4   8   8   8   8
#     4  11  20  48  75  96 145 196 240 309 382 437
#     4   9  20  42  71  96 145 182 232 311 366 437
#     4  11  24  41  70 105 143 186 245 304 367 445
#     4  11  24  42  72 107 140 195 250 305 379 456
#     4  10  22  43  69 104 140 188 246 297 370 456
#     4  12  24  43  72 107 148 197 251 309 380 461
#
# _framework density 24.742892999999999
#
# number of rings (size 3 to 8) (size 9 to 14) (size 15 to 20)
#    0.000    1.200    2.000    6.000    0.000    3.200 
#    3.600    1.000    0.000    0.000    0.000    0.000 
#    0.000    0.000    0.000    0.000    0.000    0.000 
#
# Total GULP energy -222745.601708 kJ/mol
# GULP energy per Si atom -5568.640043 kJ/mol
# Density = 2.468658 g / cm^3
# Si number density = 24.742893 Si / 1000 Ang^3
#
#
#
# Elastic Constant Matrix: (Units=GPa)
#
#
# Indices 1 2 3 4 5 6 
#
# 1 71.0976 15.5819 17.3248 0.0000 0.0000 0.0000
# 2 15.5819 71.0974 17.3246 0.0000 0.0000 0.0000
# 3 17.3248 17.3246 104.5611 0.0000 0.0000 0.0000
# 4 0.0000 0.0000 0.0000 46.9535 0.0000 0.0000
# 5 0.0000 0.0000 0.0000 0.0000 46.9535 0.0000
# 6 0.0000 0.0000 0.0000 0.0000 0.0000 16.8104
#
#
#
# Elastic Compliance Matrix: (Units=1/GPa)
#
#
# Indices 1 2 3 4 5 6 
#
# 1 0.015184 -0.002829 -0.002047 0.000000 0.000000 0.000000
# 2 -0.002829 0.015184 -0.002047 0.000000 0.000000 0.000000
# 3 -0.002047 -0.002047 0.010242 0.000000 0.000000 0.000000
# 4 0.000000 0.000000 0.000000 0.021298 0.000000 0.000000
# 5 0.000000 0.000000 0.000000 0.000000 0.021298 0.000000
# 6 0.000000 0.000000 0.000000 0.000000 0.000000 0.059487
#
#
# Mechanical properties :
#
#
# Convention : Reuss Voigt Hill
#
# Bulk Modulus (GPa) = 37.36377 38.57984 37.97180
# Shear Modulus (GPa) = 30.21878 35.24514 32.73196
#
# Velocity S-wave (km/s) = 3.49852 3.77829 3.64109
# Velocity P-wave (km/s) = 5.60831 5.88728 5.74949
#
# Compressibility (1/GPa) = 0.02676390
#
# Stress axis : x y z
#
# Youngs Moduli (GPa) = 65.85877 65.85863 97.63572
#
# Poissons Ratio (x) = 0.18631 0.19987
# Poissons Ratio (y) = 0.18631 0.19987
# Poissons Ratio (z) = 0.13482 0.13482
#
# Static dielectric constant tensor:
#      x y z
#    x 2.145920 0.000000 0.000000 
#    y 0.000000 2.145920 0.000000 
#    z 0.000000 0.000000 1.967330 
# 
# From -- ./inp_files/4193.got.cif
#   From: 2010.05.17/outbox.cif.g08.bks.cpg/sg92_3_cif.got.tgz:4193.got - 2010.06.03 19:35:17.
