data_PCOD9549511
_publ_section_title
;
Structure prediction by ZEFSAII (Michael W. Deem and Ramdas Pophale) SiO2 
 PCOD9549511
Probable space group: P 41 21 2
;
_chemical_formula_sum "Si O2"
_cell_formula_units_Z 28
_cell_length_a 8.758741
_cell_length_b 8.758741
_cell_length_c 16.213874
_cell_angle_alpha 90.000000
_cell_angle_beta 90.000000
_cell_angle_gamma 90.000000
_cell_volume 1243.856163
_symmetry_space_group_name_H-M "P 41 21 2"
_symmetry_group_IT_number 92
_symmetry_cell_setting 'tetragonal'
loop_
_space_group_symop_operation_xyz
x,y,z
1/2-y,1/2+x,1/4+z
-x,-y,1/2+z
1/2+y,1/2-x,3/4+z
1/2+x,1/2-y,3/4-z
1/2-x,1/2+y,1/4-z
y,x,-z
-y,-x,1/2-z
loop_
_atom_site_type_symbol
_atom_site_label
_atom_site_fract_x
_atom_site_fract_y
_atom_site_fract_z
Si Si1 0.218560 0.781441 0.750000
Si Si2 0.316524 0.554687 0.037129
Si Si3 0.386735 0.770997 0.914747
Si Si4 0.212609 0.607042 0.320819
O O1 0.354879 0.771005 0.817053
O O2 0.058271 0.765738 0.801815
O O3 0.193091 0.448620 0.080555
O O4 0.382336 0.678813 0.099963
O O5 0.439463 0.439463 0.000000
O O6 0.271149 0.649033 0.956322
O O7 0.331975 0.934598 0.947022
O O8 0.307228 0.692773 0.250000
#
# Coordination Sequence:
#
# PCOD9549511 Si02
#       4
#     4   8   8   8
#     4  12  30  50  80 108 158 204 260 320 392 468
#     4  11  24  48  72 113 149 195 265 315 392 468
#     4  12  25  53  71 114 153 201 259 320 391 470
#     4  11  25  44  79 109 155 202 256 327 388 471
#
# _framework density 22.510642000000001
#
# number of rings (size 3 to 8) (size 9 to 14) (size 15 to 20)
#    0.000    0.571    4.286    1.714    4.000    2.286 
#   10.286    0.000    0.000    0.000    0.000    0.000 
#    0.000    0.000    0.000    0.000    0.000    0.000 
#
# Total GULP energy -156380.865261 kJ/mol
# GULP energy per Si atom -5585.030902 kJ/mol
# Density = 2.245941 g / cm^3
# Si number density = 22.510642 Si / 1000 Ang^3
#
#
#
# Elastic Constant Matrix: (Units=GPa)
#
#
# Indices 1 2 3 4 5 6 
#
# 1 138.0251 47.4704 41.6752 0.0000 0.0000 0.0000
# 2 47.4704 138.0324 41.6783 0.0000 0.0000 0.0000
# 3 41.6752 41.6783 119.8002 0.0000 0.0000 0.0000
# 4 0.0000 0.0000 0.0000 37.3312 0.0000 0.0000
# 5 0.0000 0.0000 0.0000 0.0000 37.3316 0.0000
# 6 0.0000 0.0000 0.0000 0.0000 0.0000 29.3485
#
#
#
# Elastic Compliance Matrix: (Units=1/GPa)
#
#
# Indices 1 2 3 4 5 6 
#
# 1 0.008716 -0.002326 -0.002223 0.000000 0.000000 0.000000
# 2 -0.002326 0.008716 -0.002223 0.000000 0.000000 0.000000
# 3 -0.002223 -0.002223 0.009894 0.000000 0.000000 0.000000
# 4 0.000000 0.000000 0.000000 0.026787 0.000000 0.000000
# 5 0.000000 0.000000 0.000000 0.000000 0.026787 0.000000
# 6 0.000000 0.000000 0.000000 0.000000 0.000000 0.034073
#
#
# Mechanical properties :
#
#
# Convention : Reuss Voigt Hill
#
# Bulk Modulus (GPa) = 72.55989 73.05618 72.80803
# Shear Modulus (GPa) = 37.56236 38.47119 38.01677
#
# Velocity S-wave (km/s) = 4.08934 4.13852 4.11400
# Velocity P-wave (km/s) = 7.38922 7.44049 7.41490
#
# Compressibility (1/GPa) = 0.01378172
#
# Stress axis : x y z
#
# Youngs Moduli (GPa) = 114.72706 114.73186 101.07290
#
# Poissons Ratio (x) = 0.26692 0.22467
# Poissons Ratio (y) = 0.26691 0.22468
# Poissons Ratio (z) = 0.25502 0.25504
#
# Static dielectric constant tensor:
#      x y z
#    x 1.871850 0.000000 0.000000 
#    y 0.000000 1.871850 0.000000 
#    z 0.000000 0.000000 1.892420 
# 
# From -- ./inp_files/2926.got.cif
#   From: 2010.05.17/outbox.cif.g08.bks.cpg/sg92_2_cif.got.tgz:2926.got - 2010.06.03 19:35:17.
