data_PCOD9549346
_publ_section_title
;
Structure prediction by ZEFSAII (Michael W. Deem and Ramdas Pophale) SiO2 
 PCOD9549346
Probable space group: P 41 21 2
;
_chemical_formula_sum "Si O2"
_cell_formula_units_Z 36
_cell_length_a 8.666395
_cell_length_b 8.666395
_cell_length_c 19.843391
_cell_angle_alpha 90.000000
_cell_angle_beta 90.000000
_cell_angle_gamma 90.000000
_cell_volume 1490.365707
_symmetry_space_group_name_H-M "P 41 21 2"
_symmetry_group_IT_number 92
_symmetry_cell_setting 'tetragonal'
loop_
_space_group_symop_operation_xyz
x,y,z
1/2-y,1/2+x,1/4+z
-x,-y,1/2+z
1/2+y,1/2-x,3/4+z
1/2+x,1/2-y,3/4-z
1/2-x,1/2+y,1/4-z
y,x,-z
-y,-x,1/2-z
loop_
_atom_site_type_symbol
_atom_site_label
_atom_site_fract_x
_atom_site_fract_y
_atom_site_fract_z
Si Si1 0.151892 0.431196 0.820424
Si Si2 0.282439 0.451413 0.562633
Si Si3 0.869970 0.869970 0.500000
Si Si4 0.194010 0.874800 0.176031
Si Si5 0.693547 0.692292 0.200252
O O1 0.100323 0.606260 0.824733
O O2 0.302249 0.412278 0.868227
O O3 0.181613 0.405655 0.740948
O O4 0.020430 0.303818 0.837483
O O5 0.365149 0.365149 0.500000
O O6 0.359255 0.388016 0.631148
O O7 0.261120 0.635778 0.556331
O O8 0.768614 0.807968 0.438642
O O9 0.046652 0.821461 0.500417
O O10 0.110993 0.889008 0.250000
#
# Coordination Sequence:
#
# PCOD9549346 Si02
#       5
#     8   8   4   8   8
#     4  12  25  47  73 107 151 199 253 320 383 463
#     4  12  29  50  76 113 158 201 261 324 387 464
#     4  10  24  48  74 102 148 194 256 304 386 454
#     4  10  23  44  72 101 143 191 250 309 376 454
#     4  12  28  47  78 110 153 203 254 319 390 456
#
# _framework density 24.155142999999999
#
# number of rings (size 3 to 8) (size 9 to 14) (size 15 to 20)
#    0.667    0.000    2.222    4.000    7.778    6.222 
#    0.000    0.000    0.000    0.000    0.000    0.000 
#    0.000    0.000    0.000    0.000    0.000    0.000 
#
# Total GULP energy -200912.532259 kJ/mol
# GULP energy per Si atom -5580.903674 kJ/mol
# Density = 2.410017 g / cm^3
# Si number density = 24.155143 Si / 1000 Ang^3
#
#
#
# Elastic Constant Matrix: (Units=GPa)
#
#
# Indices 1 2 3 4 5 6 
#
# 1 69.2121 15.3748 26.8406 0.0000 0.0000 0.0000
# 2 15.3748 69.2126 26.8405 0.0000 0.0000 0.0000
# 3 26.8406 26.8405 115.5095 0.0000 0.0000 0.0000
# 4 0.0000 0.0000 0.0000 23.0241 0.0000 0.0000
# 5 0.0000 0.0000 0.0000 0.0000 23.0242 0.0000
# 6 0.0000 0.0000 0.0000 0.0000 0.0000 39.1924
#
#
#
# Elastic Compliance Matrix: (Units=1/GPa)
#
#
# Indices 1 2 3 4 5 6 
#
# 1 0.016221 -0.002354 -0.003222 0.000000 0.000000 0.000000
# 2 -0.002354 0.016221 -0.003222 0.000000 0.000000 0.000000
# 3 -0.003222 -0.003222 0.010155 0.000000 0.000000 0.000000
# 4 0.000000 0.000000 0.000000 0.043433 0.000000 0.000000
# 5 0.000000 0.000000 0.000000 0.000000 0.043433 0.000000
# 6 0.000000 0.000000 0.000000 0.000000 0.000000 0.025515
#
#
# Mechanical properties :
#
#
# Convention : Reuss Voigt Hill
#
# Bulk Modulus (GPa) = 40.00015 43.56067 41.78041
# Shear Modulus (GPa) = 27.63861 29.37336 28.50598
#
# Velocity S-wave (km/s) = 3.38629 3.49094 3.43902
# Velocity P-wave (km/s) = 5.64667 5.85848 5.75355
#
# Compressibility (1/GPa) = 0.02499991
#
# Stress axis : x y z
#
# Youngs Moduli (GPa) = 61.64928 61.64979 98.47578
#
# Poissons Ratio (x) = 0.14510 0.31731
# Poissons Ratio (y) = 0.14510 0.31731
# Poissons Ratio (z) = 0.19865 0.19865
#
# Static dielectric constant tensor:
#      x y z
#    x 1.951800 0.000000 0.000000 
#    y 0.000000 1.951800 0.000000 
#    z 0.000000 0.000000 1.968930 
# 
# From -- ./inp_files/3454.got.cif
#   From: 2010.05.17/outbox.cif.g08.bks.cpg/sg92_2_cif.got.tgz:3454.got - 2010.06.03 19:35:17.
