data_PCOD9549307
_publ_section_title
;
Structure prediction by ZEFSAII (Michael W. Deem and Ramdas Pophale) SiO2 
 PCOD9549307
Probable space group: P 41 21 2
;
_chemical_formula_sum "Si O2"
_cell_formula_units_Z 40
_cell_length_a 13.809531
_cell_length_b 13.809531
_cell_length_c 9.139231
_cell_angle_alpha 90.000000
_cell_angle_beta 90.000000
_cell_angle_gamma 90.000000
_cell_volume 1742.880108
_symmetry_space_group_name_H-M "P 41 21 2"
_symmetry_group_IT_number 92
_symmetry_cell_setting 'tetragonal'
loop_
_space_group_symop_operation_xyz
x,y,z
1/2-y,1/2+x,1/4+z
-x,-y,1/2+z
1/2+y,1/2-x,3/4+z
1/2+x,1/2-y,3/4-z
1/2-x,1/2+y,1/4-z
y,x,-z
-y,-x,1/2-z
loop_
_atom_site_type_symbol
_atom_site_label
_atom_site_fract_x
_atom_site_fract_y
_atom_site_fract_z
Si Si1 0.574654 0.912541 0.870659
Si Si2 0.681480 0.156461 0.577702
Si Si3 0.025560 0.742781 0.685962
Si Si4 0.356320 0.776288 0.402340
Si Si5 0.434791 0.551446 0.094398
O O1 0.485331 0.925646 0.757957
O O2 0.665079 0.922868 0.762440
O O3 0.589942 0.804913 0.938437
O O4 0.570729 0.178673 0.537818
O O5 0.721010 0.070829 0.474475
O O6 0.669930 0.162499 0.755384
O O7 0.744094 0.251404 0.539609
O O8 0.993710 0.853267 0.707425
O O9 0.412187 0.674441 0.379327
O O10 0.476422 0.523579 0.250000
O O11 0.457346 0.457346 0.000000
#
# Coordination Sequence:
#
# PCOD9549307 Si02
#       5
#     8   8   8   8   8
#     4  12  29  42  70 108 142 186 236 295 365 438
#     4  10  22  46  73  97 144 183 232 293 357 428
#     4  11  23  45  70 104 141 187 233 296 357 421
#     4  10  24  48  69 102 142 188 230 297 362 425
#     4  11  25  48  72 101 141 188 239 296 351 420
#
# _framework density 22.950517999999999
#
# number of rings (size 3 to 8) (size 9 to 14) (size 15 to 20)
#    0.000    1.200    6.000    0.000    8.400    1.600 
#    3.600    0.000    0.000    0.000    0.000    0.000 
#    0.000    0.000    0.000    0.000    0.000    0.000 
#
# Total GULP energy -222975.636248 kJ/mol
# GULP energy per Si atom -5574.390906 kJ/mol
# Density = 2.289828 g / cm^3
# Si number density = 22.950518 Si / 1000 Ang^3
#
#
#
# Elastic Constant Matrix: (Units=GPa)
#
#
# Indices 1 2 3 4 5 6 
#
# 1 772.2315 -673.5165 38.7303 0.0000 0.0000 0.0000
# 2 -673.5165 772.2864 38.7517 0.0000 0.0000 0.0000
# 3 38.7303 38.7517 121.5881 0.0000 0.0000 0.0000
# 4 0.0000 0.0000 0.0000 38.5222 0.0000 0.0000
# 5 0.0000 0.0000 0.0000 0.0000 38.5224 0.0000
# 6 0.0000 0.0000 0.0000 0.0000 0.0000 21.6575
#
#
#
# Elastic Compliance Matrix: (Units=1/GPa)
#
#
# Indices 1 2 3 4 5 6 
#
# 1 0.007098 0.006406 -0.004303 0.000000 0.000000 0.000000
# 2 0.006406 0.007097 -0.004303 0.000000 0.000000 0.000000
# 3 -0.004303 -0.004303 0.010966 0.000000 0.000000 0.000000
# 4 0.000000 0.000000 0.000000 0.025959 0.000000 0.000000
# 5 0.000000 0.000000 0.000000 0.000000 0.025959 0.000000
# 6 0.000000 0.000000 0.000000 0.000000 0.000000 0.046173
#
#
# Mechanical properties :
#
#
# Convention : Reuss Voigt Hill
#
# Bulk Modulus (GPa) = 48.16236 52.67079 50.41657
# Shear Modulus (GPa) = 37.15473 170.54978 103.85226
#
# Velocity S-wave (km/s) = 4.02793 8.62979 6.73415
# Velocity P-wave (km/s) = 6.53170 11.05881 9.08186
#
# Compressibility (1/GPa) = 0.02076310
#
# Stress axis : x y z
#
# Youngs Moduli (GPa) = 140.88889 140.89655 91.18847
#
# Poissons Ratio (x) = -0.90257 0.39234
# Poissons Ratio (y) = -0.90252 0.39234
# Poissons Ratio (z) = 0.60618 0.60622
#
# Static dielectric constant tensor:
#      x y z
#    x 1.949280 0.000000 0.000000 
#    y 0.000000 1.949280 0.000000 
#    z 0.000000 0.000000 1.952300 
# 
# From -- ./inp_files/1323.got.cif
#   From: 2010.05.17/outbox.cif.g08.bks.cpg/sg92_1_cif.got.tgz:1323.got - 2010.06.03 19:35:17.
