data_PCOD9549925
_publ_section_title
;
Structure prediction by ZEFSAII (Michael W. Deem and Ramdas Pophale) SiO2 
 PCOD9549925
Probable space group: P 42 21 2
;
_chemical_formula_sum "Si O2"
_cell_formula_units_Z 56
_cell_length_a 11.133456
_cell_length_b 11.133456
_cell_length_c 23.145411
_cell_angle_alpha 90.000000
_cell_angle_beta 90.000000
_cell_angle_gamma 90.000000
_cell_volume 2868.962630
_symmetry_space_group_name_H-M "P 42 21 2"
_symmetry_group_IT_number 94
_symmetry_cell_setting 'tetragonal'
loop_
_space_group_symop_operation_xyz
x,y,z
1/2-y,1/2+x,1/2+z
-x,-y,z
1/2+y,1/2-x,1/2+z
1/2+x,1/2-y,1/2-z
1/2-x,1/2+y,1/2-z
y,x,-z
-y,-x,-z
loop_
_atom_site_type_symbol
_atom_site_label
_atom_site_fract_x
_atom_site_fract_y
_atom_site_fract_z
Si Si1 0.548719 0.366601 0.350689
Si Si2 0.283774 0.815609 0.670451
Si Si3 0.637109 0.958993 0.449687
Si Si4 0.651480 0.822211 0.036396
Si Si5 0.716674 0.534882 0.526598
Si Si6 0.691344 0.044628 0.327667
Si Si7 0.336277 0.941241 0.781649
O O1 0.500000 0.500000 0.353185
O O2 0.684435 0.349595 0.326983
O O3 0.541847 0.314638 0.416197
O O4 0.455849 0.292182 0.311225
O O5 0.296887 0.850133 0.603768
O O6 0.144755 0.788741 0.687272
O O7 0.330715 0.918121 0.713461
O O8 0.632112 0.816099 0.453139
O O9 0.500000 0.000000 0.438394
O O10 0.672947 0.018935 0.509549
O O11 0.702515 0.020983 0.396074
O O12 0.723091 0.723091 0.000000
O O13 0.719215 0.947051 0.019504
O O14 0.602956 0.602956 0.500000
O O15 0.564866 0.103369 0.305361
O O16 0.674642 0.911260 0.302996
#
# Coordination Sequence:
#
# PCOD9549925 Si02
#       7
#     8   8   8   8   8   8   8
#     4  11  22  37  57  87 120 150 196 247 311 363
#     4  11  22  35  58  87 114 154 194 252 304 349
#     4  10  17  36  61  81 110 156 200 225 287 373
#     4  11  19  34  59  90 113 146 199 243 289 361
#     4  11  22  36  58  89 124 151 186 250 310 357
#     4  10  18  39  61  76 112 159 200 238 293 367
#     4  10  21  37  57  83 112 153 206 240 287 365
#
# _framework density 19.519248999999999
#
# number of rings (size 3 to 8) (size 9 to 14) (size 15 to 20)
#    0.000    1.429    5.714    2.571    2.000    0.000 
#    7.714    1.429    0.000    0.429    0.000    0.000 
#    0.000    0.000    0.000    0.000    0.000    0.000 
#
# Total GULP energy -312010.322026 kJ/mol
# GULP energy per Si atom -5571.612893 kJ/mol
# Density = 1.947482 g / cm^3
# Si number density = 19.519249 Si / 1000 Ang^3
#
#
#
# Elastic Constant Matrix: (Units=GPa)
#
#
# Indices 1 2 3 4 5 6 
#
# 1 50.4969 5.3296 24.1192 0.0000 0.0000 0.0000
# 2 5.3296 50.4969 24.1192 0.0000 0.0000 0.0000
# 3 24.1192 24.1192 132.5830 0.0000 0.0000 0.0000
# 4 0.0000 0.0000 0.0000 1.6786 0.0000 0.0000
# 5 0.0000 0.0000 0.0000 0.0000 1.6786 0.0000
# 6 0.0000 0.0000 0.0000 0.0000 0.0000 4.3958
#
#
#
# Elastic Compliance Matrix: (Units=1/GPa)
#
#
# Indices 1 2 3 4 5 6 
#
# 1 0.021697 -0.000443 -0.003866 0.000000 0.000000 0.000000
# 2 -0.000443 0.021697 -0.003866 0.000000 0.000000 0.000000
# 3 -0.003866 -0.003866 0.008949 0.000000 0.000000 0.000000
# 4 0.000000 0.000000 0.000000 0.595732 0.000000 0.000000
# 5 0.000000 0.000000 0.000000 0.000000 0.595732 0.000000
# 6 0.000000 0.000000 0.000000 0.000000 0.000000 0.227492
#
#
# Mechanical properties :
#
#
# Convention : Reuss Voigt Hill
#
# Bulk Modulus (GPa) = 27.78501 37.85698 32.82100
# Shear Modulus (GPa) = 3.33412 13.55118 8.44265
#
# Velocity S-wave (km/s) = 1.30837 2.63772 2.08199
# Velocity P-wave (km/s) = 4.06792 5.35850 4.75718
#
# Compressibility (1/GPa) = 0.03599063
#
# Stress axis : x y z
#
# Youngs Moduli (GPa) = 46.08994 46.08994 111.74214
#
# Poissons Ratio (x) = 0.02043 0.43204
# Poissons Ratio (y) = 0.02043 0.43204
# Poissons Ratio (z) = 0.17820 0.17820
#
# Static dielectric constant tensor:
#      x y z
#    x 1.736250 0.000000 0.000000 
#    y 0.000000 1.736250 0.000000 
#    z 0.000000 0.000000 1.711910 
# 
# From -- ./inp_files/4722.got.cif
#   From: 2010.05.17/outbox.cif.g08.bks.cpg/sg94_3_cif.got.tgz:4722.got - 2010.06.03 19:43:16.
