data_PCOD9549282
_publ_section_title
;
Structure prediction by ZEFSAII (Michael W. Deem and Ramdas Pophale) SiO2 
 PCOD9549282
Probable space group: P 41 21 2
;
_chemical_formula_sum "Si O2"
_cell_formula_units_Z 56
_cell_length_a 15.036598
_cell_length_b 15.036598
_cell_length_c 11.248578
_cell_angle_alpha 90.000000
_cell_angle_beta 90.000000
_cell_angle_gamma 90.000000
_cell_volume 2543.295380
_symmetry_space_group_name_H-M "P 41 21 2"
_symmetry_group_IT_number 92
_symmetry_cell_setting 'tetragonal'
loop_
_space_group_symop_operation_xyz
x,y,z
1/2-y,1/2+x,1/4+z
-x,-y,1/2+z
1/2+y,1/2-x,3/4+z
1/2+x,1/2-y,3/4-z
1/2-x,1/2+y,1/4-z
y,x,-z
-y,-x,1/2-z
loop_
_atom_site_type_symbol
_atom_site_label
_atom_site_fract_x
_atom_site_fract_y
_atom_site_fract_z
Si Si1 0.770760 0.764275 0.631617
Si Si2 0.443088 0.032552 0.619212
Si Si3 0.514146 0.267364 0.402053
Si Si4 0.492781 0.629015 0.329287
Si Si5 0.919220 0.196313 0.565123
Si Si6 0.401305 0.665839 0.567961
Si Si7 0.216879 0.539297 0.346862
O O1 0.797599 0.797599 0.500000
O O2 0.667306 0.739283 0.624802
O O3 0.776085 0.830502 0.743097
O O4 0.857419 0.700040 0.639676
O O5 0.468010 0.021426 0.477578
O O6 0.336158 0.037383 0.628967
O O7 0.487859 0.125408 0.654693
O O8 0.426966 0.283864 0.324417
O O9 0.590824 0.339784 0.370241
O O10 0.501792 0.275213 0.543461
O O11 0.438073 0.561928 0.250000
O O12 0.593323 0.599728 0.329143
O O13 0.455701 0.621624 0.460958
O O14 0.479620 0.727372 0.272685
O O15 0.019256 0.215979 0.612974
#
# Coordination Sequence:
#
# PCOD9549282 Si02
#       7
#     8   8   8   8   8   8   8
#     4  11  22  46  69 102 145 183 247 298 365 436
#     4  10  24  46  74 105 147 197 255 301 366 451
#     4  10  23  46  63  97 149 194 229 300 377 434
#     4  12  21  42  71 103 133 185 240 298 365 430
#     4  12  28  39  71 108 141 188 246 305 367 438
#     4  11  22  45  66 101 147 185 232 309 368 430
#     4  10  22  43  74 101 141 191 244 298 366 441
#
# _framework density 22.018677
#
# number of rings (size 3 to 8) (size 9 to 14) (size 15 to 20)
#    0.000    1.143    4.286    2.571    6.000    4.000 
#    2.571    0.000    0.000    0.000    0.000    0.000 
#    0.000    0.000    0.000    0.000    0.000    0.000 
#
# Total GULP energy -311757.948165 kJ/mol
# GULP energy per Si atom -5567.106217 kJ/mol
# Density = 2.196856 g / cm^3
# Si number density = 22.018677 Si / 1000 Ang^3
#
#
#
# Elastic Constant Matrix: (Units=GPa)
#
#
# Indices 1 2 3 4 5 6 
#
# 1 88.4768 31.2431 14.7040 0.0000 0.0000 0.0000
# 2 31.2431 88.4782 14.7053 0.0000 0.0000 0.0000
# 3 14.7040 14.7053 75.0748 0.0000 0.0000 0.0000
# 4 0.0000 0.0000 0.0000 28.9352 0.0000 0.0000
# 5 0.0000 0.0000 0.0000 0.0000 28.9335 0.0000
# 6 0.0000 0.0000 0.0000 0.0000 0.0000 11.7653
#
#
#
# Elastic Compliance Matrix: (Units=1/GPa)
#
#
# Indices 1 2 3 4 5 6 
#
# 1 0.013124 -0.004349 -0.001719 0.000000 0.000000 0.000000
# 2 -0.004349 0.013123 -0.001719 0.000000 0.000000 0.000000
# 3 -0.001719 -0.001719 0.013993 0.000000 0.000000 0.000000
# 4 0.000000 0.000000 0.000000 0.034560 0.000000 0.000000
# 5 0.000000 0.000000 0.000000 0.000000 0.034562 0.000000
# 6 0.000000 0.000000 0.000000 0.000000 0.000000 0.084996
#
#
# Mechanical properties :
#
#
# Convention : Reuss Voigt Hill
#
# Bulk Modulus (GPa) = 40.53770 41.48162 41.00966
# Shear Modulus (GPa) = 22.91970 26.68528 24.80249
#
# Velocity S-wave (km/s) = 3.22983 3.48507 3.35987
# Velocity P-wave (km/s) = 5.68855 5.92237 5.80664
#
# Compressibility (1/GPa) = 0.02466839
#
# Stress axis : x y z
#
# Youngs Moduli (GPa) = 76.19873 76.19955 71.46257
#
# Poissons Ratio (x) = 0.33136 0.12281
# Poissons Ratio (y) = 0.33135 0.12283
# Poissons Ratio (z) = 0.13095 0.13098
#
# Static dielectric constant tensor:
#      x y z
#    x 1.820300 0.000000 0.000000 
#    y 0.000000 1.820320 0.000000 
#    z 0.000000 0.000000 1.902870 
# 
# From -- ./inp_files/2292.got.cif
#   From: 2010.05.17/outbox.cif.g08.bks.cpg/sg92_2_cif.got.tgz:2292.got - 2010.06.03 19:35:17.
