data_PCOD9549336
_publ_section_title
;
Structure prediction by ZEFSAII (Michael W. Deem and Ramdas Pophale) SiO2 
 PCOD9549336
Probable space group: P 41 21 2
;
_chemical_formula_sum "Si O2"
_cell_formula_units_Z 60
_cell_length_a 18.823427
_cell_length_b 18.823427
_cell_length_c 7.266858
_cell_angle_alpha 90.000000
_cell_angle_beta 90.000000
_cell_angle_gamma 90.000000
_cell_volume 2574.803329
_symmetry_space_group_name_H-M "P 41 21 2"
_symmetry_group_IT_number 92
_symmetry_cell_setting 'tetragonal'
loop_
_space_group_symop_operation_xyz
x,y,z
1/2-y,1/2+x,1/4+z
-x,-y,1/2+z
1/2+y,1/2-x,3/4+z
1/2+x,1/2-y,3/4-z
1/2-x,1/2+y,1/4-z
y,x,-z
-y,-x,1/2-z
loop_
_atom_site_type_symbol
_atom_site_label
_atom_site_fract_x
_atom_site_fract_y
_atom_site_fract_z
Si Si1 0.664682 0.662244 0.712471
Si Si2 0.517513 0.618430 0.794223
Si Si3 0.494179 0.494179 0.000000
Si Si4 0.233968 0.212861 0.716233
Si Si5 0.257528 0.972134 0.962993
Si Si6 0.809557 0.430735 0.112895
Si Si7 0.581624 0.041868 0.548013
Si Si8 0.216085 0.073749 0.286333
O O1 0.648142 0.648142 0.500000
O O2 0.588463 0.664101 0.810462
O O3 0.714502 0.731228 0.714805
O O4 0.711949 0.599078 0.794374
O O5 0.487430 0.579926 0.975121
O O6 0.538009 0.549425 0.670210
O O7 0.458131 0.658103 0.676942
O O8 0.224699 0.224699 0.500000
O O9 0.283192 0.143347 0.731092
O O10 0.153572 0.202021 0.780200
O O11 0.221489 0.025160 0.107924
O O12 0.333765 0.955643 0.056286
O O13 0.273503 0.008858 0.766041
O O14 0.894153 0.437995 0.093062
O O15 0.784380 0.429298 0.325082
O O16 0.535610 0.060166 0.725789
#
# Coordination Sequence:
#
# PCOD9549336 Si02
#       8
#     8   8   4   8   8   8   8   8
#     4  12  24  44  66 103 142 178 230 288 341 433
#     4  11  24  44  67 103 136 182 233 285 346 426
#     4  10  24  40  68  94 138 180 226 284 350 402
#     4  10  25  44  70  99 139 177 235 281 349 412
#     4  11  24  44  68  97 142 174 233 278 359 405
#     4  10  24  45  67  99 136 181 225 290 341 421
#     4  10  23  43  67  97 134 175 231 291 344 415
#     4  11  25  45  69 103 133 182 231 290 341 420
#
# _framework density 23.30275
#
# number of rings (size 3 to 8) (size 9 to 14) (size 15 to 20)
#    0.000    1.333    3.333    0.000   12.133    0.000 
#    2.400    0.000    0.000    0.000    0.000    0.000 
#    0.000    0.000    0.000    0.000    0.000    0.000 
#
# Total GULP energy -335182.334799 kJ/mol
# GULP energy per Si atom -5586.372247 kJ/mol
# Density = 2.324971 g / cm^3
# Si number density = 23.302750 Si / 1000 Ang^3
#
#
#
# Elastic Constant Matrix: (Units=GPa)
#
#
# Indices 1 2 3 4 5 6 
#
# 1 102.0433 46.3446 5.0869 0.0000 0.0000 0.0000
# 2 46.3446 102.0433 5.0869 0.0000 0.0000 0.0000
# 3 5.0869 5.0869 46.3779 0.0000 0.0000 0.0000
# 4 0.0000 0.0000 0.0000 26.8498 0.0000 0.0000
# 5 0.0000 0.0000 0.0000 0.0000 26.8498 0.0000
# 6 0.0000 0.0000 0.0000 0.0000 0.0000 28.0952
#
#
#
# Elastic Compliance Matrix: (Units=1/GPa)
#
#
# Indices 1 2 3 4 5 6 
#
# 1 0.012372 -0.005582 -0.000745 0.000000 0.000000 0.000000
# 2 -0.005582 0.012372 -0.000745 0.000000 0.000000 0.000000
# 3 -0.000745 -0.000745 0.021725 0.000000 0.000000 0.000000
# 4 0.000000 0.000000 0.000000 0.037244 0.000000 0.000000
# 5 0.000000 0.000000 0.000000 0.000000 0.037244 0.000000
# 6 0.000000 0.000000 0.000000 0.000000 0.000000 0.035593
#
#
# Mechanical properties :
#
#
# Convention : Reuss Voigt Hill
#
# Bulk Modulus (GPa) = 30.93427 40.38904 35.66165
# Shear Modulus (GPa) = 27.55289 29.28870 28.42079
#
# Velocity S-wave (km/s) = 3.44232 3.54909 3.49611
# Velocity P-wave (km/s) = 5.39473 5.84506 5.62440
#
# Compressibility (1/GPa) = 0.03232661
#
# Stress axis : x y z
#
# Youngs Moduli (GPa) = 80.82804 80.82804 46.02914
#
# Poissons Ratio (x) = 0.45117 0.03428
# Poissons Ratio (y) = 0.45117 0.03428
# Poissons Ratio (z) = 0.06020 0.06020
#
# Static dielectric constant tensor:
#      x y z
#    x 1.925580 0.000000 0.000000 
#    y 0.000000 1.925580 0.000000 
#    z 0.000000 0.000000 1.932820 
# 
# From -- ./inp_files/1649.got.cif
#   From: 2010.05.17/outbox.cif.g08.bks.cpg/sg92_1_cif.got.tgz:1649.got - 2010.06.03 19:35:17.
