data_PCOD9549318
_publ_section_title
;
Structure prediction by ZEFSAII (Michael W. Deem and Ramdas Pophale) SiO2 
 PCOD9549318
Probable space group: P 41 21 2
;
_chemical_formula_sum "Si O2"
_cell_formula_units_Z 56
_cell_length_a 14.211639
_cell_length_b 14.211639
_cell_length_c 11.925234
_cell_angle_alpha 90.000000
_cell_angle_beta 90.000000
_cell_angle_gamma 90.000000
_cell_volume 2408.547657
_symmetry_space_group_name_H-M "P 41 21 2"
_symmetry_group_IT_number 92
_symmetry_cell_setting 'tetragonal'
loop_
_space_group_symop_operation_xyz
x,y,z
1/2-y,1/2+x,1/4+z
-x,-y,1/2+z
1/2+y,1/2-x,3/4+z
1/2+x,1/2-y,3/4-z
1/2-x,1/2+y,1/4-z
y,x,-z
-y,-x,1/2-z
loop_
_atom_site_type_symbol
_atom_site_label
_atom_site_fract_x
_atom_site_fract_y
_atom_site_fract_z
Si Si1 0.465034 0.225053 0.560791
Si Si2 0.482547 0.616837 0.526256
Si Si3 0.266146 0.084707 0.443552
Si Si4 0.528315 0.029155 0.219766
Si Si5 0.302880 0.651994 0.373278
Si Si6 0.779299 0.216114 0.433258
Si Si7 0.019287 0.855399 0.891255
O O1 0.490150 0.139060 0.480331
O O2 0.554990 0.244724 0.636032
O O3 0.367501 0.217678 0.627028
O O4 0.457769 0.313367 0.479888
O O5 0.588894 0.588894 0.500000
O O6 0.467593 0.711343 0.594560
O O7 0.405580 0.627016 0.426869
O O8 0.453643 0.529985 0.610910
O O9 0.358667 0.025898 0.470831
O O10 0.287219 0.190760 0.397805
O O11 0.200992 0.067549 0.552047
O O12 0.495665 0.993290 0.343789
O O13 0.309133 0.690868 0.250000
O O14 0.253284 0.724405 0.458435
O O15 0.882080 0.167024 0.453337
#
# Coordination Sequence:
#
# PCOD9549318 Si02
#       7
#     8   8   8   8   8   8   8
#     4  11  22  39  72  99 134 180 235 302 362 425
#     4  10  23  39  65 103 142 180 229 295 374 450
#     4  11  23  41  69 101 140 184 234 307 370 433
#     4  12  25  46  71 108 143 185 253 312 371 440
#     4  10  24  46  65  96 144 193 238 300 373 441
#     4  11  23  40  70  99 142 184 244 300 361 452
#     4  11  21  36  66 102 132 173 228 291 360 425
#
# _framework density 23.250527999999999
#
# number of rings (size 3 to 8) (size 9 to 14) (size 15 to 20)
#    0.000    1.143    2.857    3.429    6.000    2.286 
#    7.714    3.571    0.000    0.000    0.000    0.000 
#    0.000    0.000    0.000    0.000    0.000    0.000 
#
# Total GULP energy -312317.097032 kJ/mol
# GULP energy per Si atom -5577.091018 kJ/mol
# Density = 2.319761 g / cm^3
# Si number density = 23.250528 Si / 1000 Ang^3
#
#
#
# Elastic Constant Matrix: (Units=GPa)
#
#
# Indices 1 2 3 4 5 6 
#
# 1 52.2291 15.1748 34.6625 0.0000 0.0000 0.0000
# 2 15.1748 52.2281 34.6624 0.0000 0.0000 0.0000
# 3 34.6625 34.6624 155.8738 0.0000 0.0000 0.0000
# 4 0.0000 0.0000 0.0000 29.2281 0.0000 0.0000
# 5 0.0000 0.0000 0.0000 0.0000 29.2286 0.0000
# 6 0.0000 0.0000 0.0000 0.0000 0.0000 27.7600
#
#
#
# Elastic Compliance Matrix: (Units=1/GPa)
#
#
# Indices 1 2 3 4 5 6 
#
# 1 0.023111 -0.003876 -0.004277 0.000000 0.000000 0.000000
# 2 -0.003876 0.023112 -0.004278 0.000000 0.000000 0.000000
# 3 -0.004277 -0.004278 0.008318 0.000000 0.000000 0.000000
# 4 0.000000 0.000000 0.000000 0.034214 0.000000 0.000000
# 5 0.000000 0.000000 0.000000 0.000000 0.034213 0.000000
# 6 0.000000 0.000000 0.000000 0.000000 0.000000 0.036023
#
#
# Mechanical properties :
#
#
# Convention : Reuss Voigt Hill
#
# Bulk Modulus (GPa) = 33.69402 47.70338 40.69870
# Shear Modulus (GPa) = 25.80697 28.96542 27.38619
#
# Velocity S-wave (km/s) = 3.33521 3.53341 3.43574
# Velocity P-wave (km/s) = 5.41799 6.09986 5.76901
#
# Compressibility (1/GPa) = 0.02967886
#
# Stress axis : x y z
#
# Youngs Moduli (GPa) = 43.26877 43.26777 120.22321
#
# Poissons Ratio (x) = 0.16771 0.51425
# Poissons Ratio (y) = 0.16772 0.51426
# Poissons Ratio (z) = 0.18508 0.18508
#
# Static dielectric constant tensor:
#      x y z
#    x 1.941620 0.000000 0.000000 
#    y 0.000000 1.941620 0.000000 
#    z 0.000000 0.000000 1.947510 
# 
# From -- ./inp_files/2250.got.cif
#   From: 2010.05.17/outbox.cif.g08.bks.cpg/sg92_2_cif.got.tgz:2250.got - 2010.06.03 19:35:17.
