data_PCOD9549650
_publ_section_title
;
Structure prediction by ZEFSAII (Michael W. Deem and Ramdas Pophale) SiO2 
 PCOD9549650
Probable space group: P 42 2 2
;
_chemical_formula_sum "Si O2"
_cell_formula_units_Z 48
_cell_length_a 8.657926
_cell_length_b 8.657926
_cell_length_c 30.290402
_cell_angle_alpha 90.000000
_cell_angle_beta 90.000000
_cell_angle_gamma 90.000000
_cell_volume 2270.558920
_symmetry_space_group_name_H-M "P 42 2 2"
_symmetry_group_IT_number 93
_symmetry_cell_setting 'tetragonal'
loop_
_space_group_symop_operation_xyz
x,y,z
-y,x,1/2+z
-x,-y,z
y,-x,1/2+z
x,-y,-z
-x,y,-z
y,x,1/2-z
-y,-x,1/2-z
loop_
_atom_site_type_symbol
_atom_site_label
_atom_site_fract_x
_atom_site_fract_y
_atom_site_fract_z
Si Si1 0.378736 0.643829 0.199984
Si Si2 0.282016 0.329858 0.563296
Si Si3 0.816098 0.505646 0.127000
Si Si4 0.820914 0.167492 0.515145
Si Si5 0.590801 0.209481 0.866609
Si Si6 0.830123 0.990407 0.103953
O O1 0.500000 0.500000 0.200296
O O2 0.328726 0.671275 0.250000
O O3 0.237784 0.603684 0.167480
O O4 0.478081 0.771485 0.174660
O O5 0.440961 0.266637 0.582902
O O6 0.266497 0.304978 0.510598
O O7 0.242425 0.489958 0.588560
O O8 0.152135 0.209913 0.581092
O O9 0.728299 0.664440 0.137517
O O10 0.000000 0.500000 0.122402
O O11 0.851745 0.167831 0.567314
O O12 0.000000 0.176747 0.500000
O O13 0.757946 0.000000 0.500000
O O14 0.681984 0.050240 0.867616
O O15 0.000000 0.000000 0.124073
#
# Coordination Sequence:
#
# PCOD9549650 Si02
#       6
#     8   8   8   8   8   8
#     4   8  16  35  59  81 108 141 182 227 282 361
#     4  10  19  34  54  76 110 146 197 241 275 344
#     4  10  20  35  56  81 109 147 186 232 296 353
#     4   9  16  31  52  74 104 149 193 231 279 342
#     4  10  21  34  55  85 110 146 192 239 289 343
#     4  11  19  33  55  79 113 149 195 240 293 344
#
# _framework density 21.140170999999999
#
# number of rings (size 3 to 8) (size 9 to 14) (size 15 to 20)
#    0.000    2.333    3.333    3.000    0.000    0.667 
#    0.000    6.667    0.000    6.000    0.000    8.167 
#    0.000    1.333    0.000    0.000    0.000    0.000 
#
# Total GULP energy -267440.483321 kJ/mol
# GULP energy per Si atom -5571.676736 kJ/mol
# Density = 2.109205 g / cm^3
# Si number density = 21.140171 Si / 1000 Ang^3
#
#
#
# Elastic Constant Matrix: (Units=GPa)
#
#
# Indices 1 2 3 4 5 6 
#
# 1 77.2862 8.6998 18.1444 0.0000 0.0000 0.0000
# 2 8.6998 77.2862 18.1444 0.0000 0.0000 0.0000
# 3 18.1444 18.1444 96.1691 0.0000 0.0000 0.0000
# 4 0.0000 0.0000 0.0000 17.6300 0.0000 0.0000
# 5 0.0000 0.0000 0.0000 0.0000 17.6299 0.0000
# 6 0.0000 0.0000 0.0000 0.0000 0.0000 26.8402
#
#
#
# Elastic Compliance Matrix: (Units=1/GPa)
#
#
# Indices 1 2 3 4 5 6 
#
# 1 0.013608 -0.000972 -0.002384 0.000000 0.000000 0.000000
# 2 -0.000972 0.013608 -0.002384 0.000000 0.000000 0.000000
# 3 -0.002384 -0.002384 0.011298 0.000000 0.000000 0.000000
# 4 0.000000 0.000000 0.000000 0.056722 0.000000 0.000000
# 5 0.000000 0.000000 0.000000 0.000000 0.056722 0.000000
# 6 0.000000 0.000000 0.000000 0.000000 0.000000 0.037258
#
#
# Mechanical properties :
#
#
# Convention : Reuss Voigt Hill
#
# Bulk Modulus (GPa) = 36.99094 37.85765 37.42429
# Shear Modulus (GPa) = 23.84283 26.13686 24.98985
#
# Velocity S-wave (km/s) = 3.36198 3.52001 3.44190
# Velocity P-wave (km/s) = 5.71021 5.87089 5.79111
#
# Compressibility (1/GPa) = 0.02703365
#
# Stress axis : x y z
#
# Youngs Moduli (GPa) = 73.48592 73.48588 88.51153
#
# Poissons Ratio (x) = 0.07144 0.21102
# Poissons Ratio (y) = 0.07144 0.21102
# Poissons Ratio (z) = 0.17519 0.17519
#
# Static dielectric constant tensor:
#      x y z
#    x 1.782420 0.000000 0.000000 
#    y 0.000000 1.782420 0.000000 
#    z 0.000000 0.000000 1.833940 
# 
# From -- ./inp_files/7795.got.cif
#   From: 2010.05.17/outbox.cif.g08.bks.cpg/sg93_4_cif.got.tgz:7795.got - 2010.06.03 19:38:44.
