data_PCOD9549281
_publ_section_title
;
Structure prediction by ZEFSAII (Michael W. Deem and Ramdas Pophale) SiO2 
 PCOD9549281
Probable space group: P 41 21 2
;
_chemical_formula_sum "Si O2"
_cell_formula_units_Z 40
_cell_length_a 18.884611
_cell_length_b 18.884611
_cell_length_c 5.035865
_cell_angle_alpha 90.000000
_cell_angle_beta 90.000000
_cell_angle_gamma 90.000000
_cell_volume 1795.933145
_symmetry_space_group_name_H-M "P 41 21 2"
_symmetry_group_IT_number 92
_symmetry_cell_setting 'tetragonal'
loop_
_space_group_symop_operation_xyz
x,y,z
1/2-y,1/2+x,1/4+z
-x,-y,1/2+z
1/2+y,1/2-x,3/4+z
1/2+x,1/2-y,3/4-z
1/2-x,1/2+y,1/4-z
y,x,-z
-y,-x,1/2-z
loop_
_atom_site_type_symbol
_atom_site_label
_atom_site_fract_x
_atom_site_fract_y
_atom_site_fract_z
Si Si1 0.228000 0.449102 0.366045
Si Si2 0.272003 0.050899 0.366052
Si Si3 0.856832 0.856832 0.000000
Si Si4 0.856837 0.143163 0.250000
Si Si5 0.922715 0.577283 0.999978
Si Si6 0.422743 0.422743 0.000000
Si Si7 0.077260 0.077260 0.000000
O O1 0.229338 0.499999 0.625000
O O2 0.279617 0.381980 0.404387
O O3 0.147766 0.421552 0.320852
O O4 0.249698 0.500003 0.125001
O O5 0.220389 0.118024 0.404400
O O6 0.352239 0.078445 0.320873
O O7 0.872517 0.907062 0.251997
O O8 0.907068 0.127481 0.501996
O O9 0.999998 0.580093 0.874966
O O10 0.500001 0.415504 0.874998
#
# Coordination Sequence:
#
# PCOD9549281 Si02
#       7
#     8   8   4   4   8   4   4
#     4  11  24  41  65  96 130 172 218 269 332 394
#     4  11  24  41  65  96 130 172 218 269 332 394
#     4  12  23  39  60  90 135 172 215 272 327 399
#     4  12  23  39  60  90 135 172 215 272 327 399
#     4  10  22  43  72  98 126 165 220 284 344 408
#     4  12  23  36  58  87 123 176 229 269 315 378
#     4  12  23  36  58  87 123 176 229 269 315 378
#
# _framework density 22.272545000000001
#
# number of rings (size 3 to 8) (size 9 to 14) (size 15 to 20)
#    0.000    0.800    0.000    9.600    0.000    5.600 
#    0.000    0.000    0.000   12.000    0.000    0.000 
#    0.000    0.000    0.000    0.000    0.000    0.000 
#
# Total GULP energy -223500.393316 kJ/mol
# GULP energy per Si atom -5587.509833 kJ/mol
# Density = 2.222185 g / cm^3
# Si number density = 22.272545 Si / 1000 Ang^3
#
#
#
# Elastic Constant Matrix: (Units=GPa)
#
#
# Indices 1 2 3 4 5 6 
#
# 1 129.9473 101.6854 27.7869 0.0000 0.0000 0.0000
# 2 101.6854 129.9467 27.7879 0.0000 0.0000 0.0000
# 3 27.7869 27.7879 126.3520 0.0000 0.0000 0.0000
# 4 0.0000 0.0000 0.0000 23.1094 0.0000 0.0000
# 5 0.0000 0.0000 0.0000 0.0000 23.1092 0.0000
# 6 0.0000 0.0000 0.0000 0.0000 0.0000 22.4771
#
#
#
# Elastic Compliance Matrix: (Units=1/GPa)
#
#
# Indices 1 2 3 4 5 6 
#
# 1 0.019971 -0.015413 -0.001002 0.000000 0.000000 0.000000
# 2 -0.015413 0.019971 -0.001002 0.000000 0.000000 0.000000
# 3 -0.001002 -0.001002 0.008355 0.000000 0.000000 0.000000
# 4 0.000000 0.000000 0.000000 0.043272 0.000000 0.000000
# 5 0.000000 0.000000 0.000000 0.000000 0.043273 0.000000
# 6 0.000000 0.000000 0.000000 0.000000 0.000000 0.044490
#
#
# Mechanical properties :
#
#
# Convention : Reuss Voigt Hill
#
# Bulk Modulus (GPa) = 74.28702 77.86292 76.07497
# Shear Modulus (GPa) = 22.86719 29.00487 25.93603
#
# Velocity S-wave (km/s) = 3.20769 3.61261 3.41616
# Velocity P-wave (km/s) = 6.86623 7.24129 7.05625
#
# Compressibility (1/GPa) = 0.01346130
#
# Stress axis : x y z
#
# Youngs Moduli (GPa) = 50.07363 50.07322 119.68505
#
# Poissons Ratio (x) = 0.77178 0.11994
# Poissons Ratio (y) = 0.77178 0.11998
# Poissons Ratio (z) = 0.05018 0.05020
#
# Static dielectric constant tensor:
#      x y z
#    x 1.882760 0.000000 0.000000 
#    y 0.000000 1.882750 0.000000 
#    z 0.000000 0.000000 1.820180 
# 
# From -- ./inp_files/493.got.cif
#   From: 2010.05.17/outbox.cif.g08.bks.cpg/sg92_1_cif.got.tgz:493.got - 2010.06.03 19:35:17.
