data_PCOD9549610
_publ_section_title
;
Structure prediction by ZEFSAII (Michael W. Deem and Ramdas Pophale) SiO2 
 PCOD9549610
Probable space group: P 42 2 2
;
_chemical_formula_sum "Si O2"
_cell_formula_units_Z 48
_cell_length_a 15.086411
_cell_length_b 15.086411
_cell_length_c 12.847910
_cell_angle_alpha 90.000000
_cell_angle_beta 90.000000
_cell_angle_gamma 90.000000
_cell_volume 2924.181706
_symmetry_space_group_name_H-M "P 42 2 2"
_symmetry_group_IT_number 93
_symmetry_cell_setting 'tetragonal'
loop_
_space_group_symop_operation_xyz
x,y,z
-y,x,1/2+z
-x,-y,z
y,-x,1/2+z
x,-y,-z
-x,y,-z
y,x,1/2-z
-y,-x,1/2-z
loop_
_atom_site_type_symbol
_atom_site_label
_atom_site_fract_x
_atom_site_fract_y
_atom_site_fract_z
Si Si1 0.183196 0.228018 0.581406
Si Si2 0.902354 0.969976 0.859656
Si Si3 0.955926 0.306150 0.888096
Si Si4 0.332883 0.135585 0.717855
Si Si5 0.162030 0.180613 0.365121
Si Si6 0.107100 0.513639 0.880815
O O1 0.105307 0.153403 0.582652
O O2 0.272279 0.187292 0.632747
O O3 0.158272 0.303471 0.665160
O O4 0.185696 0.248144 0.458404
O O5 0.924208 0.924208 0.750000
O O6 0.842636 0.058249 0.852299
O O7 0.000000 0.000000 0.895953
O O8 0.909566 0.212507 0.897454
O O9 0.884970 0.382106 0.858980
O O10 0.033492 0.308275 0.804242
O O11 0.000000 0.328694 0.000000
O O12 0.436519 0.147087 0.690666
O O13 0.199362 0.199362 0.250000
O O14 0.000000 0.500000 0.875397
O O15 0.135594 0.500000 0.000000
#
# Coordination Sequence:
#
# PCOD9549610 Si02
#       6
#     8   8   8   8   8   8
#     4  11  21  33  45  65  95 133 155 204 258 309
#     4  11  20  32  41  59  91 131 178 205 247 294
#     4  11  18  31  49  68  90 120 170 223 266 294
#     4  10  18  30  50  68  93 114 160 212 271 305
#     4  12  23  31  43  63  92 132 167 208 248 307
#     4   9  14  27  47  73  86 106 153 220 266 301
#
# _framework density 16.414847999999999
#
# number of rings (size 3 to 8) (size 9 to 14) (size 15 to 20)
#    0.000    1.333    8.333    2.500    0.000    0.667 
#    0.000    0.000    0.000    1.000    0.000    3.500 
#    0.000    0.000    0.000    3.000    0.000   21.000 
#
# Total GULP energy -267360.979552 kJ/mol
# GULP energy per Si atom -5570.020407 kJ/mol
# Density = 1.637749 g / cm^3
# Si number density = 16.414848 Si / 1000 Ang^3
#
#
#
# Elastic Constant Matrix: (Units=GPa)
#
#
# Indices 1 2 3 4 5 6 
#
# 1 61.0310 9.9849 21.9739 0.0000 0.0000 0.0000
# 2 9.9849 61.0310 21.9739 0.0000 0.0000 0.0000
# 3 21.9739 21.9739 135.8024 0.0000 0.0000 0.0000
# 4 0.0000 0.0000 0.0000 14.4016 0.0000 0.0000
# 5 0.0000 0.0000 0.0000 0.0000 14.4016 0.0000
# 6 0.0000 0.0000 0.0000 0.0000 0.0000 10.4051
#
#
#
# Elastic Compliance Matrix: (Units=1/GPa)
#
#
# Indices 1 2 3 4 5 6 
#
# 1 0.017619 -0.001971 -0.002532 0.000000 0.000000 0.000000
# 2 -0.001971 0.017619 -0.002532 0.000000 0.000000 0.000000
# 3 -0.002532 -0.002532 0.008183 0.000000 0.000000 0.000000
# 4 0.000000 0.000000 0.000000 0.069437 0.000000 0.000000
# 5 0.000000 0.000000 0.000000 0.000000 0.069437 0.000000
# 6 0.000000 0.000000 0.000000 0.000000 0.000000 0.096106
#
#
# Mechanical properties :
#
#
# Convention : Reuss Voigt Hill
#
# Bulk Modulus (GPa) = 34.06979 40.63667 37.35323
# Shear Modulus (GPa) = 16.54234 21.43713 18.98973
#
# Velocity S-wave (km/s) = 3.17798 3.61773 3.40496
# Velocity P-wave (km/s) = 5.85377 6.50080 6.18575
#
# Compressibility (1/GPa) = 0.02935152
#
# Stress axis : x y z
#
# Youngs Moduli (GPa) = 56.75628 56.75628 122.20394
#
# Poissons Ratio (x) = 0.11186 0.30942
# Poissons Ratio (y) = 0.11186 0.30942
# Poissons Ratio (z) = 0.14371 0.14371
#
# Static dielectric constant tensor:
#      x y z
#    x 1.574110 0.000000 0.000000 
#    y 0.000000 1.574110 0.000000 
#    z 0.000000 0.000000 1.662260 
# 
# From -- ./inp_files/4453.got.cif
#   From: 2010.05.17/outbox.cif.g08.bks.cpg/sg93_3_cif.got.tgz:4453.got - 2010.06.03 19:38:44.
