data_PCOD9549767
_publ_section_title
;
Structure prediction by ZEFSAII (Michael W. Deem and Ramdas Pophale) SiO2 
 PCOD9549767
Probable space group: P 42 2 2
;
_chemical_formula_sum "Si O2"
_cell_formula_units_Z 48
_cell_length_a 11.598237
_cell_length_b 11.598237
_cell_length_c 14.676374
_cell_angle_alpha 90.000000
_cell_angle_beta 90.000000
_cell_angle_gamma 90.000000
_cell_volume 1974.252644
_symmetry_space_group_name_H-M "P 42 2 2"
_symmetry_group_IT_number 93
_symmetry_cell_setting 'tetragonal'
loop_
_space_group_symop_operation_xyz
x,y,z
-y,x,1/2+z
-x,-y,z
y,-x,1/2+z
x,-y,-z
-x,y,-z
y,x,1/2-z
-y,-x,1/2-z
loop_
_atom_site_type_symbol
_atom_site_label
_atom_site_fract_x
_atom_site_fract_y
_atom_site_fract_z
Si Si1 0.855451 0.864927 0.147348
Si Si2 0.617461 0.737015 0.889480
Si Si3 0.671148 0.960992 0.596670
Si Si4 0.485163 0.237050 0.611211
Si Si5 0.642450 0.723512 0.109792
Si Si6 0.818936 0.118070 0.145678
O O1 0.888774 0.888774 0.250000
O O2 0.723910 0.827190 0.138808
O O3 0.930767 0.750086 0.127340
O O4 0.860141 0.995057 0.107860
O O5 0.678830 0.618579 0.859992
O O6 0.487105 0.733969 0.855924
O O7 0.683874 0.852042 0.857490
O O8 0.627803 0.729740 0.999795
O O9 0.566279 0.888025 0.640875
O O10 0.776707 0.869843 0.586378
O O11 0.626802 0.000000 0.500000
O O12 0.500000 0.233704 0.500000
O O13 0.606440 0.292301 0.639760
O O14 0.858871 0.141130 0.250000
#
# Coordination Sequence:
#
# PCOD9549767 Si02
#       6
#     8   8   8   8   8   8
#     4  12  25  41  59  90 134 176 212 269 334 391
#     4   9  20  40  70  95 122 170 216 268 324 387
#     4  11  23  39  67  98 122 169 225 273 314 382
#     4   9  18  37  66  97 128 160 208 270 323 379
#     4  10  21  40  65  98 132 162 212 267 328 395
#     4  11  23  43  64  87 126 176 222 269 327 387
#
# _framework density 24.312999000000001
#
# number of rings (size 3 to 8) (size 9 to 14) (size 15 to 20)
#    0.000    1.667    1.667    4.000    0.000    8.333 
#    6.000    3.333    0.000    0.000    0.000    0.000 
#    0.000    0.000    0.000    0.000    0.000    0.000 
#
# Total GULP energy -267640.334431 kJ/mol
# GULP energy per Si atom -5575.840301 kJ/mol
# Density = 2.425766 g / cm^3
# Si number density = 24.312999 Si / 1000 Ang^3
#
#
#
# Elastic Constant Matrix: (Units=GPa)
#
#
# Indices 1 2 3 4 5 6 
#
# 1 153.4425 86.9205 11.8499 0.0000 0.0000 0.0000
# 2 86.9205 153.4430 11.8499 0.0000 0.0000 0.0000
# 3 11.8499 11.8499 46.6803 0.0000 0.0000 0.0000
# 4 0.0000 0.0000 0.0000 31.9113 0.0000 0.0000
# 5 0.0000 0.0000 0.0000 0.0000 31.9106 0.0000
# 6 0.0000 0.0000 0.0000 0.0000 0.0000 32.1010
#
#
#
# Elastic Compliance Matrix: (Units=1/GPa)
#
#
# Indices 1 2 3 4 5 6 
#
# 1 0.009650 -0.005383 -0.001083 0.000000 0.000000 0.000000
# 2 -0.005383 0.009650 -0.001083 0.000000 0.000000 0.000000
# 3 -0.001083 -0.001083 0.021972 0.000000 0.000000 0.000000
# 4 0.000000 0.000000 0.000000 0.031337 0.000000 0.000000
# 5 0.000000 0.000000 0.000000 0.000000 0.031338 0.000000
# 6 0.000000 0.000000 0.000000 0.000000 0.000000 0.031152
#
#
# Mechanical properties :
#
#
# Convention : Reuss Voigt Hill
#
# Bulk Modulus (GPa) = 38.20632 63.86740 51.03686
# Shear Modulus (GPa) = 31.46217 35.38094 33.42155
#
# Velocity S-wave (km/s) = 3.60119 3.81888 3.71163
# Velocity P-wave (km/s) = 5.74803 6.76543 6.27738
#
# Compressibility (1/GPa) = 0.02617368
#
# Stress axis : x y z
#
# Youngs Moduli (GPa) = 103.62815 103.62853 45.51191
#
# Poissons Ratio (x) = 0.55780 0.04930
# Poissons Ratio (y) = 0.55780 0.04930
# Poissons Ratio (z) = 0.11225 0.11225
#
# Static dielectric constant tensor:
#      x y z
#    x 2.017120 0.000000 0.000000 
#    y 0.000000 2.017120 0.000000 
#    z 0.000000 0.000000 1.933560 
# 
# From -- ./inp_files/5427.got.cif
#   From: 2010.05.17/outbox.cif.g08.bks.cpg/sg93_3_cif.got.tgz:5427.got - 2010.06.03 19:38:44.
