data_PCOD9549070
_publ_section_title
;
Structure prediction by ZEFSAII (Michael W. Deem and Ramdas Pophale) SiO2 
 PCOD9549070
Probable space group: P 41 21 2
;
_chemical_formula_sum "Si O2"
_cell_formula_units_Z 40
_cell_length_a 8.173772
_cell_length_b 8.173772
_cell_length_c 24.246865
_cell_angle_alpha 90.000000
_cell_angle_beta 90.000000
_cell_angle_gamma 90.000000
_cell_volume 1619.946355
_symmetry_space_group_name_H-M "P 41 21 2"
_symmetry_group_IT_number 92
_symmetry_cell_setting 'tetragonal'
loop_
_space_group_symop_operation_xyz
x,y,z
1/2-y,1/2+x,1/4+z
-x,-y,1/2+z
1/2+y,1/2-x,3/4+z
1/2+x,1/2-y,3/4-z
1/2-x,1/2+y,1/4-z
y,x,-z
-y,-x,1/2-z
loop_
_atom_site_type_symbol
_atom_site_label
_atom_site_fract_x
_atom_site_fract_y
_atom_site_fract_z
Si Si1 0.687665 0.371313 0.957827
Si Si2 0.753694 0.257882 0.309570
Si Si3 0.864861 0.890246 0.436957
Si Si4 0.390578 0.826148 0.923392
Si Si5 0.201926 0.883867 0.137307
O O1 0.689800 0.567770 0.949900
O O2 0.521048 0.286392 0.936013
O O3 0.832392 0.309566 0.917194
O O4 0.722500 0.339872 0.022278
O O5 0.686254 0.313747 0.250000
O O6 0.646665 0.251466 0.364280
O O7 0.917285 0.359147 0.321662
O O8 0.902359 0.902359 0.500000
O O9 0.789153 0.712930 0.419088
O O10 0.016603 0.932487 0.398140
O O11 0.714233 0.009838 0.425974
#
# Coordination Sequence:
#
# PCOD9549070 Si02
#       5
#     8   8   8   8   8
#     4  10  21  42  68  99 134 179 226 281 336 408
#     4  10  23  45  69  92 135 176 224 282 341 413
#     4  11  22  41  70 101 134 179 227 286 340 412
#     4  11  22  45  67  97 135 179 228 277 345 415
#     4  10  20  40  67  98 135 170 226 279 332 401
#
# _framework density 24.692174999999999
#
# number of rings (size 3 to 8) (size 9 to 14) (size 15 to 20)
#    0.000    1.600    6.000    0.000    0.000    2.400 
#   18.000    1.000    0.000    0.000    0.000    0.000 
#    0.000    0.000    0.000    0.000    0.000    0.000 
#
# Total GULP energy -222782.185400 kJ/mol
# GULP energy per Si atom -5569.554635 kJ/mol
# Density = 2.463597 g / cm^3
# Si number density = 24.692175 Si / 1000 Ang^3
#
#
#
# Elastic Constant Matrix: (Units=GPa)
#
#
# Indices 1 2 3 4 5 6 
#
# 1 48.3451 38.0540 16.7360 0.0000 0.0000 0.0000
# 2 38.0540 48.3449 16.7359 0.0000 0.0000 0.0000
# 3 16.7360 16.7359 237.8698 0.0000 0.0000 0.0000
# 4 0.0000 0.0000 0.0000 22.4701 0.0000 0.0000
# 5 0.0000 0.0000 0.0000 0.0000 22.4701 0.0000
# 6 0.0000 0.0000 0.0000 0.0000 0.0000 44.3350
#
#
#
# Elastic Compliance Matrix: (Units=1/GPa)
#
#
# Indices 1 2 3 4 5 6 
#
# 1 0.054535 -0.042637 -0.000837 0.000000 0.000000 0.000000
# 2 -0.042637 0.054536 -0.000837 0.000000 0.000000 0.000000
# 3 -0.000837 -0.000837 0.004322 0.000000 0.000000 0.000000
# 4 0.000000 0.000000 0.000000 0.044504 0.000000 0.000000
# 5 0.000000 0.000000 0.000000 0.000000 0.044504 0.000000
# 6 0.000000 0.000000 0.000000 0.000000 0.000000 0.022556
#
#
# Mechanical properties :
#
#
# Convention : Reuss Voigt Hill
#
# Bulk Modulus (GPa) = 40.37104 53.06796 46.71950
# Shear Modulus (GPa) = 15.53592 35.39063 25.46328
#
# Velocity S-wave (km/s) = 2.51108 3.78997 3.21476
# Velocity P-wave (km/s) = 4.97921 6.37889 5.72201
#
# Compressibility (1/GPa) = 0.02477023
#
# Stress axis : x y z
#
# Youngs Moduli (GPa) = 18.33673 18.33663 231.38608
#
# Poissons Ratio (x) = 0.78182 0.19371
# Poissons Ratio (y) = 0.78182 0.19370
# Poissons Ratio (z) = 0.01535 0.01535
#
# Static dielectric constant tensor:
#      x y z
#    x 2.071790 0.000000 0.000000 
#    y 0.000000 2.071790 0.000000 
#    z 0.000000 0.000000 1.982200 
# 
# From -- ./inp_files/3781.got.cif
#   From: 2010.05.17/outbox.cif.g08.bks.cpg/sg92_2_cif.got.tgz:3781.got - 2010.06.03 19:35:17.
