data_PCOD9549335
_publ_section_title
;
Structure prediction by ZEFSAII (Michael W. Deem and Ramdas Pophale) SiO2 
 PCOD9549335
Probable space group: P 41 21 2
;
_chemical_formula_sum "Si O2"
_cell_formula_units_Z 60
_cell_length_a 11.847615
_cell_length_b 11.847615
_cell_length_c 20.022740
_cell_angle_alpha 90.000000
_cell_angle_beta 90.000000
_cell_angle_gamma 90.000000
_cell_volume 2810.511546
_symmetry_space_group_name_H-M "P 41 21 2"
_symmetry_group_IT_number 92
_symmetry_cell_setting 'tetragonal'
loop_
_space_group_symop_operation_xyz
x,y,z
1/2-y,1/2+x,1/4+z
-x,-y,1/2+z
1/2+y,1/2-x,3/4+z
1/2+x,1/2-y,3/4-z
1/2-x,1/2+y,1/4-z
y,x,-z
-y,-x,1/2-z
loop_
_atom_site_type_symbol
_atom_site_label
_atom_site_fract_x
_atom_site_fract_y
_atom_site_fract_z
Si Si1 0.694422 0.120952 0.993002
Si Si2 0.601268 0.601268 0.000000
Si Si3 0.353483 0.951871 0.056807
Si Si4 0.966464 0.899974 0.425258
Si Si5 0.152295 0.060479 0.429484
Si Si6 0.312162 0.626758 0.445943
Si Si7 0.214748 0.356014 0.608161
Si Si8 0.004625 0.495473 0.313531
O O1 0.746917 0.119760 0.066091
O O2 0.775270 0.052070 0.944226
O O3 0.666860 0.247395 0.972100
O O4 0.580951 0.049152 0.990200
O O5 0.470624 0.628559 0.011473
O O6 0.676528 0.645057 0.061797
O O7 0.386873 0.821231 0.053634
O O8 0.221628 0.971432 0.072191
O O9 0.427312 0.997215 0.119826
O O10 0.382217 0.993633 0.981221
O O11 0.933425 0.933425 0.500000
O O12 0.859887 0.883949 0.378273
O O13 0.041542 0.004764 0.397311
O O14 0.236090 0.148042 0.394094
O O15 0.116929 0.116929 0.500000
O O16 0.126407 0.452309 0.583061
#
# Coordination Sequence:
#
# PCOD9549335 Si02
#       8
#     8   4   8   8   8   8   8   8
#     4  11  24  43  70 100 138 179 221 283 345 416
#     4  12  28  46  68 104 146 176 234 294 348 428
#     4  12  23  46  72 101 136 184 235 291 340 420
#     4  11  25  45  67 100 137 186 228 283 348 417
#     4  10  23  43  67  97 133 178 230 275 340 416
#     4  12  27  45  66 106 139 177 233 288 353 409
#     4  11  24  44  68 102 135 179 226 282 352 407
#     4  11  23  44  71 100 137 180 231 281 341 411
#
# _framework density 21.348427000000001
#
# number of rings (size 3 to 8) (size 9 to 14) (size 15 to 20)
#    0.000    0.800    6.000    0.800    5.600    1.067 
#    0.000    0.000    0.000    0.000    0.000    0.000 
#    0.000    0.000    0.000    0.000    0.000    0.000 
#
# Total GULP energy -335174.700144 kJ/mol
# GULP energy per Si atom -5586.245002 kJ/mol
# Density = 2.129984 g / cm^3
# Si number density = 21.348427 Si / 1000 Ang^3
#
#
#
# Elastic Constant Matrix: (Units=GPa)
#
#
# Indices 1 2 3 4 5 6 
#
# 1 52.8402 13.6202 -4.6460 0.0000 0.0000 0.0000
# 2 13.6202 52.8402 -4.6460 0.0000 0.0000 0.0000
# 3 -4.6460 -4.6460 57.9144 0.0000 0.0000 0.0000
# 4 0.0000 0.0000 0.0000 28.3184 0.0000 0.0000
# 5 0.0000 0.0000 0.0000 0.0000 28.3184 0.0000
# 6 0.0000 0.0000 0.0000 0.0000 0.0000 10.1949
#
#
#
# Elastic Compliance Matrix: (Units=1/GPa)
#
#
# Indices 1 2 3 4 5 6 
#
# 1 0.020357 -0.005140 0.001221 0.000000 0.000000 0.000000
# 2 -0.005140 0.020357 0.001221 0.000000 0.000000 0.000000
# 3 0.001221 0.001221 0.017463 0.000000 0.000000 0.000000
# 4 0.000000 0.000000 0.000000 0.035313 0.000000 0.000000
# 5 0.000000 0.000000 0.000000 0.000000 0.035313 0.000000
# 6 0.000000 0.000000 0.000000 0.000000 0.000000 0.098088
#
#
# Mechanical properties :
#
#
# Convention : Reuss Voigt Hill
#
# Bulk Modulus (GPa) = 18.94650 19.13903 19.04276
# Shear Modulus (GPa) = 20.00953 23.98414 21.99683
#
# Velocity S-wave (km/s) = 3.06483 3.35544 3.21342
# Velocity P-wave (km/s) = 4.62800 4.89863 4.76524
#
# Compressibility (1/GPa) = 0.05278020
#
# Stress axis : x y z
#
# Youngs Moduli (GPa) = 49.12266 49.12266 57.26480
#
# Poissons Ratio (x) = 0.25249 -0.06991
# Poissons Ratio (y) = 0.25249 -0.06991
# Poissons Ratio (z) = -0.05997 -0.05997
#
# Static dielectric constant tensor:
#      x y z
#    x 1.781920 0.000000 0.000000 
#    y 0.000000 1.781920 0.000000 
#    z 0.000000 0.000000 1.767790 
# 
# From -- ./inp_files/3619.got.cif
#   From: 2010.05.17/outbox.cif.g08.bks.cpg/sg92_2_cif.got.tgz:3619.got - 2010.06.03 19:35:17.
