data_PCOD9549520
_publ_section_title
;
Structure prediction by ZEFSAII (Michael W. Deem and Ramdas Pophale) SiO2 
 PCOD9549520
Probable space group: P 41 21 2
;
_chemical_formula_sum "Si O2"
_cell_formula_units_Z 60
_cell_length_a 11.564366
_cell_length_b 11.564366
_cell_length_c 20.134441
_cell_angle_alpha 90.000000
_cell_angle_beta 90.000000
_cell_angle_gamma 90.000000
_cell_volume 2692.670628
_symmetry_space_group_name_H-M "P 41 21 2"
_symmetry_group_IT_number 92
_symmetry_cell_setting 'tetragonal'
loop_
_space_group_symop_operation_xyz
x,y,z
1/2-y,1/2+x,1/4+z
-x,-y,1/2+z
1/2+y,1/2-x,3/4+z
1/2+x,1/2-y,3/4-z
1/2-x,1/2+y,1/4-z
y,x,-z
-y,-x,1/2-z
loop_
_atom_site_type_symbol
_atom_site_label
_atom_site_fract_x
_atom_site_fract_y
_atom_site_fract_z
Si Si1 0.345715 0.288735 0.093654
Si Si2 0.673232 0.950297 0.510083
Si Si3 0.451971 0.451971 0.000000
Si Si4 0.199270 0.029223 0.461520
Si Si5 0.851163 0.245039 0.316233
Si Si6 0.927397 0.778521 0.759466
Si Si7 0.342124 0.312219 0.709492
Si Si8 0.140302 0.598880 0.389393
O O1 0.328732 0.177489 0.044396
O O2 0.365804 0.410736 0.057112
O O3 0.455404 0.291260 0.142951
O O4 0.225314 0.302831 0.130708
O O5 0.619963 0.943209 0.435795
O O6 0.789188 0.028797 0.491620
O O7 0.608157 0.026880 0.565148
O O8 0.584369 0.429404 0.015524
O O9 0.222349 0.924710 0.512252
O O10 0.279743 0.138368 0.445596
O O11 0.088343 0.088343 0.500000
O O12 0.829015 0.170986 0.250000
O O13 0.822001 0.171603 0.380774
O O14 0.986772 0.272338 0.314466
O O15 0.801637 0.728824 0.772222
O O16 0.964462 0.731754 0.686974
#
# Coordination Sequence:
#
# PCOD9549520 Si02
#       8
#     8   8   4   8   8   8   8   8
#     4  12  25  47  71 118 149 204 258 323 400 483
#     4  11  25  47  76 107 164 198 261 330 400 487
#     4  12  26  44  76 106 154 198 260 326 400 480
#     4  11  27  49  79 111 158 206 267 331 400 494
#     4  11  25  47  76 112 151 207 268 326 405 485
#     4  11  25  47  75 108 150 204 260 337 389 495
#     4  11  26  50  75 115 155 204 269 331 412 486
#     4  11  25  48  72 113 155 204 263 322 405 479
#
# _framework density 22.282710999999999
#
# number of rings (size 3 to 8) (size 9 to 14) (size 15 to 20)
#    0.000    0.800    4.667    1.600    7.467    3.200 
#   12.000    0.000    0.000    0.000    0.000    0.000 
#    0.000    0.000    0.000    0.000    0.000    0.000 
#
# Total GULP energy -334064.920471 kJ/mol
# GULP energy per Si atom -5567.748675 kJ/mol
# Density = 2.223199 g / cm^3
# Si number density = 22.282711 Si / 1000 Ang^3
#
#
#
# Elastic Constant Matrix: (Units=GPa)
#
#
# Indices 1 2 3 4 5 6 
#
# 1 78.4377 18.1427 21.0906 0.0000 0.0000 0.0000
# 2 18.1427 78.4360 21.0903 0.0000 0.0000 0.0000
# 3 21.0906 21.0903 139.8464 0.0000 0.0000 0.0000
# 4 0.0000 0.0000 0.0000 45.0248 0.0000 0.0000
# 5 0.0000 0.0000 0.0000 0.0000 45.0247 0.0000
# 6 0.0000 0.0000 0.0000 0.0000 0.0000 8.3715
#
#
#
# Elastic Compliance Matrix: (Units=1/GPa)
#
#
# Indices 1 2 3 4 5 6 
#
# 1 0.013835 -0.002751 -0.001672 0.000000 0.000000 0.000000
# 2 -0.002751 0.013835 -0.001672 0.000000 0.000000 0.000000
# 3 -0.001672 -0.001672 0.007655 0.000000 0.000000 0.000000
# 4 0.000000 0.000000 0.000000 0.022210 0.000000 0.000000
# 5 0.000000 0.000000 0.000000 0.000000 0.022210 0.000000
# 6 0.000000 0.000000 0.000000 0.000000 0.000000 0.119453
#
#
# Mechanical properties :
#
#
# Convention : Reuss Voigt Hill
#
# Bulk Modulus (GPa) = 43.22107 46.37414 44.79761
# Shear Modulus (GPa) = 22.82090 35.44398 29.13244
#
# Velocity S-wave (km/s) = 3.20371 3.99262 3.61972
# Velocity P-wave (km/s) = 5.75533 6.48934 6.13333
#
# Compressibility (1/GPa) = 0.02313686
#
# Stress axis : x y z
#
# Youngs Moduli (GPa) = 72.28231 72.28074 130.63522
#
# Poissons Ratio (x) = 0.19881 0.21837
# Poissons Ratio (y) = 0.19882 0.21837
# Poissons Ratio (z) = 0.12083 0.12083
#
# Static dielectric constant tensor:
#      x y z
#    x 1.837950 0.000000 0.000000 
#    y 0.000000 1.837950 0.000000 
#    z 0.000000 0.000000 1.840560 
# 
# From -- ./inp_files/3646.got.cif
#   From: 2010.05.17/outbox.cif.g08.bks.cpg/sg92_2_cif.got.tgz:3646.got - 2010.06.03 19:35:17.
