data_PCOD9549364
_publ_section_title
;
Structure prediction by ZEFSAII (Michael W. Deem and Ramdas Pophale) SiO2 
 PCOD9549364
Probable space group: P 41 21 2
;
_chemical_formula_sum "Si O2"
_cell_formula_units_Z 28
_cell_length_a 11.405997
_cell_length_b 11.405997
_cell_length_c 10.855652
_cell_angle_alpha 90.000000
_cell_angle_beta 90.000000
_cell_angle_gamma 90.000000
_cell_volume 1412.285235
_symmetry_space_group_name_H-M "P 41 21 2"
_symmetry_group_IT_number 92
_symmetry_cell_setting 'tetragonal'
loop_
_space_group_symop_operation_xyz
x,y,z
1/2-y,1/2+x,1/4+z
-x,-y,1/2+z
1/2+y,1/2-x,3/4+z
1/2+x,1/2-y,3/4-z
1/2-x,1/2+y,1/4-z
y,x,-z
-y,-x,1/2-z
loop_
_atom_site_type_symbol
_atom_site_label
_atom_site_fract_x
_atom_site_fract_y
_atom_site_fract_z
Si Si1 0.337352 0.779992 0.025265
Si Si2 0.565459 0.293052 0.147783
Si Si3 0.322058 0.322058 0.000000
Si Si4 0.202388 0.392080 0.462949
O O1 0.287383 0.809912 0.157663
O O2 0.475545 0.775917 0.007959
O O3 0.291422 0.659034 0.964714
O O4 0.301202 0.882836 0.933379
O O5 0.609941 0.390060 0.250000
O O6 0.590518 0.170761 0.221341
O O7 0.438668 0.315399 0.087090
O O8 0.310840 0.310840 0.500000
#
# Coordination Sequence:
#
# PCOD9549364 Si02
#       4
#     8   8   4   8
#     4  10  24  40  64  96 126 176 222 278 334 398
#     4   9  24  44  67  91 136 182 213 277 350 401
#     4  12  26  40  68 110 130 162 248 282 326 412
#     4   9  22  43  65  87 129 182 217 263 350 407
#
# _framework density 19.826022999999999
#
# number of rings (size 3 to 8) (size 9 to 14) (size 15 to 20)
#    0.000    2.857    0.000    0.000   22.000    2.286 
#    0.000    0.000    0.000    0.000    0.000    0.000 
#    0.000    0.000    0.000    0.000    0.000    0.000 
#
# Total GULP energy -155891.676136 kJ/mol
# GULP energy per Si atom -5567.559862 kJ/mol
# Density = 1.978090 g / cm^3
# Si number density = 19.826023 Si / 1000 Ang^3
#
#
#
# Elastic Constant Matrix: (Units=GPa)
#
#
# Indices 1 2 3 4 5 6 
#
# 1 52.1811 23.1593 27.3259 0.0000 0.0000 0.0000
# 2 23.1593 52.1805 27.3261 0.0000 0.0000 0.0000
# 3 27.3259 27.3261 108.7812 0.0000 0.0000 0.0000
# 4 0.0000 0.0000 0.0000 20.7371 0.0000 0.0000
# 5 0.0000 0.0000 0.0000 0.0000 20.7367 0.0000
# 6 0.0000 0.0000 0.0000 0.0000 0.0000 3.7091
#
#
#
# Elastic Compliance Matrix: (Units=1/GPa)
#
#
# Indices 1 2 3 4 5 6 
#
# 1 0.025344 -0.009113 -0.004077 0.000000 0.000000 0.000000
# 2 -0.009113 0.025344 -0.004077 0.000000 0.000000 0.000000
# 3 -0.004077 -0.004077 0.011241 0.000000 0.000000 0.000000
# 4 0.000000 0.000000 0.000000 0.048223 0.000000 0.000000
# 5 0.000000 0.000000 0.000000 0.000000 0.048224 0.000000
# 6 0.000000 0.000000 0.000000 0.000000 0.000000 0.269610
#
#
# Mechanical properties :
#
#
# Convention : Reuss Voigt Hill
#
# Bulk Modulus (GPa) = 36.50449 40.97395 38.73922
# Shear Modulus (GPa) = 10.60103 18.05867 14.32985
#
# Velocity S-wave (km/s) = 2.31487 3.02131 2.69137
# Velocity P-wave (km/s) = 5.05937 5.73435 5.40740
#
# Compressibility (1/GPa) = 0.02739389
#
# Stress axis : x y z
#
# Youngs Moduli (GPa) = 39.45737 39.45677 88.95879
#
# Poissons Ratio (x) = 0.35958 0.36270
# Poissons Ratio (y) = 0.35959 0.36271
# Poissons Ratio (z) = 0.16087 0.16088
#
# Static dielectric constant tensor:
#      x y z
#    x 1.755220 0.000000 0.000000 
#    y 0.000000 1.755230 0.000000 
#    z 0.000000 0.000000 1.663420 
# 
# From -- ./inp_files/1860.got.cif
#   From: 2010.05.17/outbox.cif.g08.bks.cpg/sg92_1_cif.got.tgz:1860.got - 2010.06.03 19:35:17.
