data_PCOD9549626
_publ_section_title
;
Structure prediction by ZEFSAII (Michael W. Deem and Ramdas Pophale) SiO2 
 PCOD9549626
Probable space group: P 42 2 2
;
_chemical_formula_sum "Si O2"
_cell_formula_units_Z 40
_cell_length_a 15.113676
_cell_length_b 15.113676
_cell_length_c 8.264161
_cell_angle_alpha 90.000000
_cell_angle_beta 90.000000
_cell_angle_gamma 90.000000
_cell_volume 1887.726119
_symmetry_space_group_name_H-M "P 42 2 2"
_symmetry_group_IT_number 93
_symmetry_cell_setting 'tetragonal'
loop_
_space_group_symop_operation_xyz
x,y,z
-y,x,1/2+z
-x,-y,z
y,-x,1/2+z
x,-y,-z
-x,y,-z
y,x,1/2-z
-y,-x,1/2-z
loop_
_atom_site_type_symbol
_atom_site_label
_atom_site_fract_x
_atom_site_fract_y
_atom_site_fract_z
Si Si1 0.510290 0.145820 0.692440
Si Si2 0.945171 0.684540 0.330264
Si Si3 0.225460 0.745530 0.514887
Si Si4 0.691071 0.881842 0.697425
Si Si5 0.675954 0.429971 0.636714
O O1 0.500000 0.144260 0.500000
O O2 0.589076 0.087226 0.765760
O O3 0.412853 0.114961 0.740102
O O4 0.529242 0.243703 0.759274
O O5 0.856110 0.741696 0.358912
O O6 0.000000 0.677524 0.500000
O O7 0.017585 0.723584 0.207341
O O8 0.174270 0.727103 0.347843
O O9 0.284658 0.830764 0.468524
O O10 0.288122 0.662982 0.561788
O O11 0.653807 0.500000 0.500000
O O12 0.595003 0.404998 0.750000
#
# Coordination Sequence:
#
# PCOD9549626 Si02
#       5
#     8   8   8   8   8
#     4  11  22  36  59  92 124 166 216 274 328 390
#     4   9  20  34  57  89 126 174 217 265 333 403
#     4   9  19  35  57  86 122 173 213 257 329 396
#     4  10  18  33  57  83 125 170 211 261 326 393
#     4  11  22  41  65  91 119 172 225 270 324 386
#
# _framework density 21.189515
#
# number of rings (size 3 to 8) (size 9 to 14) (size 15 to 20)
#    0.000    2.000    2.000    1.800    0.000    4.000 
#    0.000    0.000    0.000   19.800    0.000    0.000 
#    0.000    0.000  142.800  729.200    0.000    0.000 
#
# Total GULP energy -223270.181891 kJ/mol
# GULP energy per Si atom -5581.754547 kJ/mol
# Density = 2.114129 g / cm^3
# Si number density = 21.189515 Si / 1000 Ang^3
#
#
#
# Elastic Constant Matrix: (Units=GPa)
#
#
# Indices 1 2 3 4 5 6 
#
# 1 82.1989 63.1321 43.3427 0.0000 0.0000 0.0000
# 2 63.1321 82.1964 43.3439 0.0000 0.0000 0.0000
# 3 43.3427 43.3439 59.7046 0.0000 0.0000 0.0000
# 4 0.0000 0.0000 0.0000 42.3897 0.0000 0.0000
# 5 0.0000 0.0000 0.0000 0.0000 42.4102 0.0000
# 6 0.0000 0.0000 0.0000 0.0000 0.0000 9.4402
#
#
#
# Elastic Compliance Matrix: (Units=1/GPa)
#
#
# Indices 1 2 3 4 5 6 
#
# 1 0.032292 -0.020157 -0.008809 0.000000 0.000000 0.000000
# 2 -0.020157 0.032295 -0.008812 0.000000 0.000000 0.000000
# 3 -0.008809 -0.008812 0.029541 0.000000 0.000000 0.000000
# 4 0.000000 0.000000 0.000000 0.023591 0.000000 0.000000
# 5 0.000000 0.000000 0.000000 0.000000 0.023579 0.000000
# 6 0.000000 0.000000 0.000000 0.000000 0.000000 0.105930
#
#
# Mechanical properties :
#
#
# Convention : Reuss Voigt Hill
#
# Bulk Modulus (GPa) = 53.84479 58.19302 56.01891
# Shear Modulus (GPa) = 15.19876 23.80011 19.49943
#
# Velocity S-wave (km/s) = 2.68111 3.35506 3.03684
# Velocity P-wave (km/s) = 5.92036 6.52160 6.22824
#
# Compressibility (1/GPa) = 0.01857190
#
# Stress axis : x y z
#
# Youngs Moduli (GPa) = 30.96742 30.96475 33.85106
#
# Poissons Ratio (x) = 0.62416 0.29819
# Poissons Ratio (y) = 0.62422 0.29829
# Poissons Ratio (z) = 0.27279 0.27286
#
# Static dielectric constant tensor:
#      x y z
#    x 1.576080 0.000000 0.000000 
#    y 0.000000 1.575610 0.000000 
#    z 0.000000 0.000000 1.831840 
# 
# From -- ./inp_files/1801.got.cif
#   From: 2010.05.17/outbox.cif.g08.bks.cpg/sg93_1_cif.got.tgz:1801.got - 2010.06.03 19:38:44.
