data_PCOD9549800
_publ_section_title
;
Structure prediction by ZEFSAII (Michael W. Deem and Ramdas Pophale) SiO2 
 PCOD9549800
Probable space group: P 42 2 2
;
_chemical_formula_sum "Si O2"
_cell_formula_units_Z 34
_cell_length_a 9.353730
_cell_length_b 9.353730
_cell_length_c 17.070821
_cell_angle_alpha 90.000000
_cell_angle_beta 90.000000
_cell_angle_gamma 90.000000
_cell_volume 1493.564793
_symmetry_space_group_name_H-M "P 42 2 2"
_symmetry_group_IT_number 93
_symmetry_cell_setting 'tetragonal'
loop_
_space_group_symop_operation_xyz
x,y,z
-y,x,1/2+z
-x,-y,z
y,-x,1/2+z
x,-y,-z
-x,y,-z
y,x,1/2-z
-y,-x,1/2-z
loop_
_atom_site_type_symbol
_atom_site_label
_atom_site_fract_x
_atom_site_fract_y
_atom_site_fract_z
Si Si1 0.964291 0.251134 0.102490
Si Si2 0.500000 0.500000 0.000000
Si Si3 0.000000 0.500000 0.000000
Si Si4 0.167433 0.486683 0.271886
Si Si5 0.785786 0.214214 0.250000
Si Si6 0.663063 0.289921 0.621044
Si Si7 0.000000 0.000000 0.000000
O O1 0.916519 0.225855 0.190809
O O2 0.912367 0.395140 0.058223
O O3 0.135110 0.275402 0.096490
O O4 0.918037 0.109906 0.055999
O O5 0.393707 0.593168 0.943728
O O6 0.215729 0.642033 0.300521
O O7 0.251293 0.446442 0.192181
O O8 0.207319 0.371938 0.336503
O O9 0.000000 0.500000 0.255310
#
# Coordination Sequence:
#
# PCOD9549800 Si02
#       7
#     8   2   2   8   4   8   2
#     4  11  24  45  72 105 149 193 260 302 395 459
#     4  12  26  50  76 108 154 190 258 322 386 462
#     4  10  22  46  72 104 146 204 244 300 382 470
#     4  11  24  46  72 106 143 189 256 308 377 449
#     4  12  24  42  78 106 144 200 248 332 370 458
#     4  11  25  46  76 107 144 198 247 314 375 464
#     4  10  28  40  60 100 148 192 232 316 372 480
#
# _framework density 22.764330000000001
#
# number of rings (size 3 to 8) (size 9 to 14) (size 15 to 20)
#    0.000    0.941    2.353    3.529    3.294    8.000 
#    0.000    0.000    0.000    0.000    0.000    0.000 
#    0.000    0.000    0.000    0.000    0.000    0.000 
#
# Total GULP energy -189809.861547 kJ/mol
# GULP energy per Si atom -5582.642987 kJ/mol
# Density = 2.271252 g / cm^3
# Si number density = 22.764330 Si / 1000 Ang^3
#
#
#
# Elastic Constant Matrix: (Units=GPa)
#
#
# Indices 1 2 3 4 5 6 
#
# 1 138.0223 28.9126 57.1004 0.0000 0.0000 0.0000
# 2 28.9126 138.0228 57.1000 0.0000 0.0000 0.0000
# 3 57.1004 57.1000 141.1733 0.0000 0.0000 0.0000
# 4 0.0000 0.0000 0.0000 42.4527 0.0000 0.0000
# 5 0.0000 0.0000 0.0000 0.0000 42.4529 0.0000
# 6 0.0000 0.0000 0.0000 0.0000 0.0000 23.5161
#
#
#
# Elastic Compliance Matrix: (Units=1/GPa)
#
#
# Indices 1 2 3 4 5 6 
#
# 1 0.008724 -0.000442 -0.003350 0.000000 0.000000 0.000000
# 2 -0.000442 0.008723 -0.003350 0.000000 0.000000 0.000000
# 3 -0.003350 -0.003350 0.009793 0.000000 0.000000 0.000000
# 4 0.000000 0.000000 0.000000 0.023556 0.000000 0.000000
# 5 0.000000 0.000000 0.000000 0.000000 0.023556 0.000000
# 6 0.000000 0.000000 0.000000 0.000000 0.000000 0.042524
#
#
# Mechanical properties :
#
#
# Convention : Reuss Voigt Hill
#
# Bulk Modulus (GPa) = 77.17241 78.16047 77.66644
# Shear Modulus (GPa) = 36.90659 39.95803 38.43231
#
# Velocity S-wave (km/s) = 4.03084 4.19416 4.11331
# Velocity P-wave (km/s) = 7.45907 7.60683 7.53331
#
# Compressibility (1/GPa) = 0.01295800
#
# Stress axis : x y z
#
# Youngs Moduli (GPa) = 114.63243 114.63323 102.11103
#
# Poissons Ratio (x) = 0.05062 0.34205
# Poissons Ratio (y) = 0.05062 0.34205
# Poissons Ratio (z) = 0.38400 0.38399
#
# Static dielectric constant tensor:
#      x y z
#    x 1.889150 0.000000 0.000000 
#    y 0.000000 1.889150 0.000000 
#    z 0.000000 0.000000 1.864730 
# 
# From -- ./inp_files/6136.got.cif
#   From: 2010.05.17/outbox.cif.g08.bks.cpg/sg93_4_cif.got.tgz:6136.got - 2010.06.03 19:38:44.
