data_PCOD9549968
_publ_section_title
;
Structure prediction by ZEFSAII (Michael W. Deem and Ramdas Pophale) SiO2 
 PCOD9549968
Probable space group: P 42 21 2
;
_chemical_formula_sum "Si O2"
_cell_formula_units_Z 48
_cell_length_a 14.667271
_cell_length_b 14.667271
_cell_length_c 11.566615
_cell_angle_alpha 90.000000
_cell_angle_beta 90.000000
_cell_angle_gamma 90.000000
_cell_volume 2488.312451
_symmetry_space_group_name_H-M "P 42 21 2"
_symmetry_group_IT_number 94
_symmetry_cell_setting 'tetragonal'
loop_
_space_group_symop_operation_xyz
x,y,z
1/2-y,1/2+x,1/2+z
-x,-y,z
1/2+y,1/2-x,1/2+z
1/2+x,1/2-y,1/2-z
1/2-x,1/2+y,1/2-z
y,x,-z
-y,-x,-z
loop_
_atom_site_type_symbol
_atom_site_label
_atom_site_fract_x
_atom_site_fract_y
_atom_site_fract_z
Si Si1 0.793523 0.990169 0.478536
Si Si2 0.949198 0.908319 0.319973
Si Si3 0.564348 0.128296 0.127793
Si Si4 0.566387 0.134073 0.590955
Si Si5 0.648009 0.817094 0.860008
Si Si6 0.815255 0.848405 0.130959
O O1 0.862529 0.935096 0.398564
O O2 0.851155 0.015149 0.594620
O O3 0.711063 0.933148 0.536767
O O4 0.752946 0.070049 0.399012
O O5 0.902281 0.857557 0.213791
O O6 0.000000 0.000000 0.283229
O O7 0.455758 0.111375 0.150460
O O8 0.623806 0.137621 0.243809
O O9 0.605697 0.037324 0.072489
O O10 0.613662 0.147296 0.467673
O O11 0.581825 0.231720 0.652379
O O12 0.747697 0.772576 0.854417
O O13 0.851792 0.851792 0.000000
#
# Coordination Sequence:
#
# PCOD9549968 Si02
#       6
#     8   8   8   8   8   8
#     4  10  21  37  62  90 120 159 207 259 313 371
#     4  11  23  39  62  90 124 163 211 262 310 376
#     4  10  19  36  58  86 120 155 204 251 315 371
#     4   9  21  33  56  86 113 158 202 247 308 369
#     4  10  20  37  59  84 123 159 202 256 307 376
#     4  10  21  40  60  88 125 165 209 256 313 378
#
# _framework density 19.290181
#
# number of rings (size 3 to 8) (size 9 to 14) (size 15 to 20)
#    0.000    2.000    1.667    2.000    0.000   13.667 
#    0.000    0.000    0.000    0.000    0.000    0.000 
#    0.000    0.000    0.000    0.000    0.000    0.000 
#
# Total GULP energy -267357.332189 kJ/mol
# GULP energy per Si atom -5569.944421 kJ/mol
# Density = 1.924628 g / cm^3
# Si number density = 19.290181 Si / 1000 Ang^3
#
#
#
# Elastic Constant Matrix: (Units=GPa)
#
#
# Indices 1 2 3 4 5 6 
#
# 1 77.3739 26.9814 24.6709 0.0000 0.0000 0.0000
# 2 26.9814 77.3739 24.6709 0.0000 0.0000 0.0000
# 3 24.6709 24.6709 70.0862 0.0000 0.0000 0.0000
# 4 0.0000 0.0000 0.0000 21.5528 0.0000 0.0000
# 5 0.0000 0.0000 0.0000 0.0000 21.5528 0.0000
# 6 0.0000 0.0000 0.0000 0.0000 0.0000 28.6255
#
#
#
# Elastic Compliance Matrix: (Units=1/GPa)
#
#
# Indices 1 2 3 4 5 6 
#
# 1 0.015670 -0.004174 -0.004047 0.000000 0.000000 0.000000
# 2 -0.004174 0.015670 -0.004047 0.000000 0.000000 0.000000
# 3 -0.004047 -0.004047 0.017117 0.000000 0.000000 0.000000
# 4 0.000000 0.000000 0.000000 0.046398 0.000000 0.000000
# 5 0.000000 0.000000 0.000000 0.000000 0.046398 0.000000
# 6 0.000000 0.000000 0.000000 0.000000 0.000000 0.034934
#
#
# Mechanical properties :
#
#
# Convention : Reuss Voigt Hill
#
# Bulk Modulus (GPa) = 41.80189 41.94226 41.87208
# Shear Modulus (GPa) = 23.95833 24.24695 24.10264
#
# Velocity S-wave (km/s) = 3.52802 3.54921 3.53863
# Velocity P-wave (km/s) = 6.18975 6.21175 6.20076
#
# Compressibility (1/GPa) = 0.02392236
#
# Stress axis : x y z
#
# Youngs Moduli (GPa) = 63.81572 63.81572 58.42121
#
# Poissons Ratio (x) = 0.26637 0.23641
# Poissons Ratio (y) = 0.26637 0.23641
# Poissons Ratio (z) = 0.25824 0.25824
#
# Static dielectric constant tensor:
#      x y z
#    x 1.713690 0.000000 0.000000 
#    y 0.000000 1.713690 0.000000 
#    z 0.000000 0.000000 1.683260 
# 
# From -- ./inp_files/2648.got.cif
#   From: 2010.05.17/outbox.cif.g08.bks.cpg/sg94_2_cif.got.tgz:2648.got - 2010.06.03 19:43:16.
