data_PCOD9549709
_publ_section_title
;
Structure prediction by ZEFSAII (Michael W. Deem and Ramdas Pophale) SiO2 
 PCOD9549709
Probable space group: P 42 2 2
;
_chemical_formula_sum "Si O2"
_cell_formula_units_Z 48
_cell_length_a 8.826550
_cell_length_b 8.826550
_cell_length_c 29.509887
_cell_angle_alpha 90.000000
_cell_angle_beta 90.000000
_cell_angle_gamma 90.000000
_cell_volume 2299.055831
_symmetry_space_group_name_H-M "P 42 2 2"
_symmetry_group_IT_number 93
_symmetry_cell_setting 'tetragonal'
loop_
_space_group_symop_operation_xyz
x,y,z
-y,x,1/2+z
-x,-y,z
y,-x,1/2+z
x,-y,-z
-x,y,-z
y,x,1/2-z
-y,-x,1/2-z
loop_
_atom_site_type_symbol
_atom_site_label
_atom_site_fract_x
_atom_site_fract_y
_atom_site_fract_z
Si Si1 0.666969 0.067038 0.548869
Si Si2 0.827483 0.543786 0.273204
Si Si3 0.617125 0.369571 0.913567
Si Si4 0.589513 0.158877 0.139371
Si Si5 0.168693 0.051002 0.635795
Si Si6 0.208282 0.660307 0.819881
O O1 0.657998 0.249468 0.550737
O O2 0.500000 0.000000 0.560669
O O3 0.705212 0.000000 0.500000
O O4 0.785104 0.013941 0.586659
O O5 0.759814 0.436061 0.311816
O O6 0.807634 0.705540 0.298945
O O7 0.765876 0.549579 0.222430
O O8 0.000000 0.500000 0.266086
O O9 0.500000 0.500000 0.925710
O O10 0.504060 0.234862 0.900894
O O11 0.710754 0.394464 0.866014
O O12 0.768123 0.164160 0.132700
O O13 0.500000 0.000000 0.143936
O O14 0.289226 0.963318 0.668375
O O15 0.000000 0.000000 0.648547
#
# Coordination Sequence:
#
# PCOD9549709 Si02
#       6
#     8   8   8   8   8   8
#     4  10  22  41  63  90 119 151 194 246 303 372
#     4   9  17  34  52  74 115 153 193 248 288 335
#     4  10  20  37  60  85 116 153 193 241 300 361
#     4  10  20  37  56  82 117 156 198 246 303 357
#     4  11  21  38  64  87 115 159 203 249 307 370
#     4   9  20  35  53  82 117 153 199 249 296 350
#
# _framework density 20.878133999999999
#
# number of rings (size 3 to 8) (size 9 to 14) (size 15 to 20)
#    0.000    2.167    0.000    5.000    0.000    4.333 
#    0.000   29.167    0.000    1.000    0.000    0.000 
#    0.000    0.000    0.000    0.000    0.000    0.000 
#
# Total GULP energy -267294.905056 kJ/mol
# GULP energy per Si atom -5568.643855 kJ/mol
# Density = 2.083061 g / cm^3
# Si number density = 20.878134 Si / 1000 Ang^3
#
#
#
# Elastic Constant Matrix: (Units=GPa)
#
#
# Indices 1 2 3 4 5 6 
#
# 1 109.8758 28.9185 24.5353 0.0000 0.0000 0.0000
# 2 28.9185 109.8758 24.5353 0.0000 0.0000 0.0000
# 3 24.5353 24.5353 78.9987 0.0000 0.0000 0.0000
# 4 0.0000 0.0000 0.0000 4.9427 0.0000 0.0000
# 5 0.0000 0.0000 0.0000 0.0000 4.9427 0.0000
# 6 0.0000 0.0000 0.0000 0.0000 0.0000 33.1119
#
#
#
# Elastic Compliance Matrix: (Units=1/GPa)
#
#
# Indices 1 2 3 4 5 6 
#
# 1 0.010223 -0.002129 -0.002514 0.000000 0.000000 0.000000
# 2 -0.002129 0.010223 -0.002514 0.000000 0.000000 0.000000
# 3 -0.002514 -0.002514 0.014220 0.000000 0.000000 0.000000
# 4 0.000000 0.000000 0.000000 0.202320 0.000000 0.000000
# 5 0.000000 0.000000 0.000000 0.000000 0.202320 0.000000
# 6 0.000000 0.000000 0.000000 0.000000 0.000000 0.030201
#
#
# Mechanical properties :
#
#
# Convention : Reuss Voigt Hill
#
# Bulk Modulus (GPa) = 49.13460 50.52541 49.83000
# Shear Modulus (GPa) = 10.19151 23.31686 16.75419
#
# Velocity S-wave (km/s) = 2.21179 3.34549 2.83587
# Velocity P-wave (km/s) = 5.48706 6.25906 5.88573
#
# Compressibility (1/GPa) = 0.02035226
#
# Stress axis : x y z
#
# Youngs Moduli (GPa) = 97.81955 97.81955 70.32429
#
# Poissons Ratio (x) = 0.20828 0.17677
# Poissons Ratio (y) = 0.20828 0.17677
# Poissons Ratio (z) = 0.24589 0.24589
#
# Static dielectric constant tensor:
#      x y z
#    x 1.792950 0.000000 0.000000 
#    y 0.000000 1.792950 0.000000 
#    z 0.000000 0.000000 1.784470 
# 
# From -- ./inp_files/7738.got.cif
#   From: 2010.05.17/outbox.cif.g08.bks.cpg/sg93_4_cif.got.tgz:7738.got - 2010.06.03 19:38:44.
