data_PCOD9549696
_publ_section_title
;
Structure prediction by ZEFSAII (Michael W. Deem and Ramdas Pophale) SiO2 
 PCOD9549696
Probable space group: P 42 2 2
;
_chemical_formula_sum "Si O2"
_cell_formula_units_Z 52
_cell_length_a 22.809989
_cell_length_b 22.809989
_cell_length_c 5.232502
_cell_angle_alpha 90.000000
_cell_angle_beta 90.000000
_cell_angle_gamma 90.000000
_cell_volume 2722.447758
_symmetry_space_group_name_H-M "P 42 2 2"
_symmetry_group_IT_number 93
_symmetry_cell_setting 'tetragonal'
loop_
_space_group_symop_operation_xyz
x,y,z
-y,x,1/2+z
-x,-y,z
y,-x,1/2+z
x,-y,-z
-x,y,-z
y,x,1/2-z
-y,-x,1/2-z
loop_
_atom_site_type_symbol
_atom_site_label
_atom_site_fract_x
_atom_site_fract_y
_atom_site_fract_z
Si Si1 0.056116 0.260900 0.322188
Si Si2 0.718004 0.334346 0.496517
Si Si3 0.570218 0.885241 0.520914
Si Si4 0.429491 0.811410 0.986499
Si Si5 0.962839 0.133132 0.764656
Si Si6 0.637644 0.000000 0.500000
Si Si7 0.765055 0.182369 0.006089
O O1 0.054864 0.199979 0.168830
O O2 0.040805 0.318606 0.164676
O O3 0.116808 0.259511 0.475769
O O4 0.000000 0.256269 0.500000
O O5 0.683275 0.316726 0.750000
O O6 0.749326 0.396855 0.527203
O O7 0.772750 0.289093 0.471752
O O8 0.677578 0.322423 0.250000
O O9 0.500000 0.890853 0.500000
O O10 0.587191 0.854030 0.251725
O O11 0.595529 0.948683 0.600666
O O12 0.587916 0.841829 0.747874
O O13 0.500000 0.805200 0.000000
O O14 0.904774 0.095227 0.750000
O O15 0.000000 0.130723 0.500000
O O16 0.000000 0.109114 0.000000
O O17 0.806479 0.193522 0.250000
O O18 0.799368 0.200633 0.750000
#
# Coordination Sequence:
#
# PCOD9549696 Si02
#       7
#     8   8   8   8   8   4   8
#     4  11  26  39  57  84 113 145 186 230 303 358
#     4  10  20  35  57  89 118 151 197 249 290 344
#     4  10  23  39  60  85 116 162 209 247 290 344
#     4  10  21  40  61  86 122 164 203 244 295 350
#     4  11  24  43  62  82 105 129 171 224 282 359
#     4  12  25  38  60  82 121 152 194 254 296 356
#     4  10  23  39  60  79 110 148 187 233 297 359
#
# _framework density 19.100456000000001
#
# number of rings (size 3 to 8) (size 9 to 14) (size 15 to 20)
#    0.000    1.538    0.769    3.000    6.462    4.615 
#    0.000    2.308    0.000    0.000    0.000    0.000 
#    0.000    1.846    0.000    0.000    0.000    0.000 
#
# Total GULP energy -290175.341879 kJ/mol
# GULP energy per Si atom -5580.295036 kJ/mol
# Density = 1.905698 g / cm^3
# Si number density = 19.100456 Si / 1000 Ang^3
#
#
#
# Elastic Constant Matrix: (Units=GPa)
#
#
# Indices 1 2 3 4 5 6 
#
# 1 61.4896 24.3412 28.5968 0.0000 0.0000 0.0000
# 2 24.3412 61.4887 28.5963 0.0000 0.0000 0.0000
# 3 28.5968 28.5963 112.1036 0.0000 0.0000 0.0000
# 4 0.0000 0.0000 0.0000 13.6717 0.0000 0.0000
# 5 0.0000 0.0000 0.0000 0.0000 13.7017 0.0000
# 6 0.0000 0.0000 0.0000 0.0000 0.0000 57.5088
#
#
#
# Elastic Compliance Matrix: (Units=1/GPa)
#
#
# Indices 1 2 3 4 5 6 
#
# 1 0.020478 -0.006441 -0.003581 0.000000 0.000000 0.000000
# 2 -0.006441 0.020478 -0.003581 0.000000 0.000000 0.000000
# 3 -0.003581 -0.003581 0.010747 0.000000 0.000000 0.000000
# 4 0.000000 0.000000 0.000000 0.073144 0.000000 0.000000
# 5 0.000000 0.000000 0.000000 0.000000 0.072984 0.000000
# 6 0.000000 0.000000 0.000000 0.000000 0.000000 0.017389
#
#
# Mechanical properties :
#
#
# Convention : Reuss Voigt Hill
#
# Bulk Modulus (GPa) = 40.81937 44.23894 42.52916
# Shear Modulus (GPa) = 19.95284 27.21293 23.58288
#
# Velocity S-wave (km/s) = 3.23557 3.77865 3.51761
# Velocity P-wave (km/s) = 5.94776 6.49993 6.22997
#
# Compressibility (1/GPa) = 0.02449817
#
# Stress axis : x y z
#
# Youngs Moduli (GPa) = 48.83286 48.83234 93.04822
#
# Poissons Ratio (x) = 0.31454 0.33318
# Poissons Ratio (y) = 0.31454 0.33317
# Poissons Ratio (z) = 0.17486 0.17485
#
# Static dielectric constant tensor:
#      x y z
#    x 1.612180 0.000000 0.000000 
#    y 0.000000 1.612070 0.000000 
#    z 0.000000 0.000000 1.718610 
# 
# From -- ./inp_files/734.got.cif
#   From: 2010.05.17/outbox.cif.g08.bks.cpg/sg93_1_cif.got.tgz:734.got - 2010.06.03 19:38:44.
