data_PCOD9549402
_publ_section_title
;
Structure prediction by ZEFSAII (Michael W. Deem and Ramdas Pophale) SiO2 
 PCOD9549402
Probable space group: P 41 21 2
;
_chemical_formula_sum "Si O2"
_cell_formula_units_Z 40
_cell_length_a 13.474851
_cell_length_b 13.474851
_cell_length_c 9.386112
_cell_angle_alpha 90.000000
_cell_angle_beta 90.000000
_cell_angle_gamma 90.000000
_cell_volume 1704.251463
_symmetry_space_group_name_H-M "P 41 21 2"
_symmetry_group_IT_number 92
_symmetry_cell_setting 'tetragonal'
loop_
_space_group_symop_operation_xyz
x,y,z
1/2-y,1/2+x,1/4+z
-x,-y,1/2+z
1/2+y,1/2-x,3/4+z
1/2+x,1/2-y,3/4-z
1/2-x,1/2+y,1/4-z
y,x,-z
-y,-x,1/2-z
loop_
_atom_site_type_symbol
_atom_site_label
_atom_site_fract_x
_atom_site_fract_y
_atom_site_fract_z
Si Si1 0.029845 0.607524 0.379928
Si Si2 0.906505 0.906505 0.500000
Si Si3 0.756662 0.020499 0.096326
Si Si4 0.712865 0.877839 0.825937
Si Si5 0.530636 0.530636 0.000000
Si Si6 0.631569 0.232186 0.568090
O O1 0.065691 0.519324 0.273600
O O2 0.127015 0.677935 0.394774
O O3 0.947040 0.666402 0.293962
O O4 0.792987 0.913716 0.449506
O O5 0.941133 0.967874 0.637576
O O6 0.703015 0.126211 0.101545
O O7 0.869962 0.029388 0.152521
O O8 0.701722 0.957382 0.216643
O O9 0.744827 0.952420 0.954211
O O10 0.802257 0.810575 0.767370
#
# Coordination Sequence:
#
# PCOD9549402 Si02
#       6
#     8   4   8   8   4   8
#     4  12  26  48  78 115 156 205 261 335 398 478
#     4  10  24  48  71 109 150 200 252 316 386 472
#     4  11  27  46  79 114 156 206 261 326 399 475
#     4  12  26  49  76 119 155 206 265 329 400 477
#     4  10  26  48  77 111 152 206 256 320 398 478
#     4  11  27  46  77 113 152 203 264 319 397 480
#
# _framework density 23.470714000000001
#
# number of rings (size 3 to 8) (size 9 to 14) (size 15 to 20)
#    0.000    0.800    2.000    3.000   11.200    3.200 
#    0.000    2.000    0.000    0.000    0.000    0.000 
#    0.000    0.000    0.000    0.000    0.000    0.000 
#
# Total GULP energy -223549.149996 kJ/mol
# GULP energy per Si atom -5588.728750 kJ/mol
# Density = 2.341729 g / cm^3
# Si number density = 23.470714 Si / 1000 Ang^3
#
#
#
# Elastic Constant Matrix: (Units=GPa)
#
#
# Indices 1 2 3 4 5 6 
#
# 1 82.4928 56.3616 54.5275 0.0000 0.0000 0.0000
# 2 56.3616 82.4928 54.5275 0.0000 0.0000 0.0000
# 3 54.5275 54.5275 121.2005 0.0000 0.0000 0.0000
# 4 0.0000 0.0000 0.0000 15.9706 0.0000 0.0000
# 5 0.0000 0.0000 0.0000 0.0000 15.9706 0.0000
# 6 0.0000 0.0000 0.0000 0.0000 0.0000 31.5978
#
#
#
# Elastic Compliance Matrix: (Units=1/GPa)
#
#
# Indices 1 2 3 4 5 6 
#
# 1 0.024703 -0.013566 -0.005010 0.000000 0.000000 0.000000
# 2 -0.013566 0.024703 -0.005010 0.000000 0.000000 0.000000
# 3 -0.005010 -0.005010 0.012759 0.000000 0.000000 0.000000
# 4 0.000000 0.000000 0.000000 0.062615 0.000000 0.000000
# 5 0.000000 0.000000 0.000000 0.000000 0.062615 0.000000
# 6 0.000000 0.000000 0.000000 0.000000 0.000000 0.031648
#
#
# Mechanical properties :
#
#
# Convention : Reuss Voigt Hill
#
# Bulk Modulus (GPa) = 66.70569 68.55770 67.63170
# Shear Modulus (GPa) = 18.43571 20.75910 19.59741
#
# Velocity S-wave (km/s) = 2.80568 2.97723 2.89272
# Velocity P-wave (km/s) = 6.24326 6.41029 6.32733
#
# Compressibility (1/GPa) = 0.01499122
#
# Stress axis : x y z
#
# Youngs Moduli (GPa) = 40.48142 40.48142 78.37513
#
# Poissons Ratio (x) = 0.54916 0.39270
# Poissons Ratio (y) = 0.54916 0.39270
# Poissons Ratio (z) = 0.20283 0.20283
#
# Static dielectric constant tensor:
#      x y z
#    x 1.903060 0.000000 0.000000 
#    y 0.000000 1.903060 0.000000 
#    z 0.000000 0.000000 1.930680 
# 
# From -- ./inp_files/1396.got.cif
#   From: 2010.05.17/outbox.cif.g08.bks.cpg/sg92_1_cif.got.tgz:1396.got - 2010.06.03 19:35:17.
