data_PCOD9549061
_publ_section_title
;
Structure prediction by ZEFSAII (Michael W. Deem and Ramdas Pophale) SiO2 
 PCOD9549061
Probable space group: P 41 21 2
;
_chemical_formula_sum "Si O2"
_cell_formula_units_Z 56
_cell_length_a 15.343333
_cell_length_b 15.343333
_cell_length_c 10.949294
_cell_angle_alpha 90.000000
_cell_angle_beta 90.000000
_cell_angle_gamma 90.000000
_cell_volume 2577.659445
_symmetry_space_group_name_H-M "P 41 21 2"
_symmetry_group_IT_number 92
_symmetry_cell_setting 'tetragonal'
loop_
_space_group_symop_operation_xyz
x,y,z
1/2-y,1/2+x,1/4+z
-x,-y,1/2+z
1/2+y,1/2-x,3/4+z
1/2+x,1/2-y,3/4-z
1/2-x,1/2+y,1/4-z
y,x,-z
-y,-x,1/2-z
loop_
_atom_site_type_symbol
_atom_site_label
_atom_site_fract_x
_atom_site_fract_y
_atom_site_fract_z
Si Si1 0.568605 0.431396 0.750000
Si Si2 0.522555 0.927755 0.524752
Si Si3 0.152776 0.187778 0.798713
Si Si4 0.758532 0.644839 0.414883
Si Si5 0.185930 0.605728 0.855020
Si Si6 0.400723 0.370681 0.299420
Si Si7 0.299488 0.299488 0.500000
Si Si8 0.422488 0.697481 0.841882
O O1 0.617840 0.391669 0.633933
O O2 0.587691 0.533547 0.748143
O O3 0.500245 0.946661 0.379287
O O4 0.585157 0.840247 0.537504
O O5 0.429989 0.899221 0.582775
O O6 0.197094 0.265187 0.871347
O O7 0.089487 0.238388 0.705441
O O8 0.216650 0.136130 0.708498
O O9 0.680028 0.680028 0.500000
O O10 0.704559 0.604987 0.302085
O O11 0.187132 0.706007 0.812947
O O12 0.214917 0.559066 0.731734
O O13 0.318896 0.364805 0.389427
O O14 0.488721 0.349997 0.374586
O O15 0.366494 0.633507 0.750000
#
# Coordination Sequence:
#
# PCOD9549061 Si02
#       8
#     4   8   8   8   8   8   4   8
#     4  12  28  41  64 107 154 172 226 308 388 430
#     4  12  27  52  76 112 154 201 260 320 381 451
#     4  11  22  46  67  94 141 192 225 294 365 439
#     4  12  26  47  77 100 142 199 251 290 375 459
#     4  11  21  44  72  95 135 192 240 294 364 426
#     4  12  24  42  66 112 138 182 234 300 363 452
#     4  12  22  43  70  99 134 180 254 292 346 456
#     4  10  20  39  69  96 133 182 227 284 360 429
#
# _framework density 21.725135999999999
#
# number of rings (size 3 to 8) (size 9 to 14) (size 15 to 20)
#    0.000    0.571    7.857    0.857    2.000    0.000 
#    9.000    0.000    0.000    0.000    0.000    0.000 
#    0.000    0.000    0.000    0.000    0.000    0.000 
#
# Total GULP energy -312003.115218 kJ/mol
# GULP energy per Si atom -5571.484200 kJ/mol
# Density = 2.167569 g / cm^3
# Si number density = 21.725136 Si / 1000 Ang^3
#
#
#
# Elastic Constant Matrix: (Units=GPa)
#
#
# Indices 1 2 3 4 5 6 
#
# 1 65.7359 25.1216 24.9041 0.0000 0.0000 0.0000
# 2 25.1216 65.7383 24.9043 0.0000 0.0000 0.0000
# 3 24.9041 24.9043 77.1835 0.0000 0.0000 0.0000
# 4 0.0000 0.0000 0.0000 27.4710 0.0000 0.0000
# 5 0.0000 0.0000 0.0000 0.0000 27.4712 0.0000
# 6 0.0000 0.0000 0.0000 0.0000 0.0000 30.0213
#
#
#
# Elastic Compliance Matrix: (Units=1/GPa)
#
#
# Indices 1 2 3 4 5 6 
#
# 1 0.018997 -0.005625 -0.004314 0.000000 0.000000 0.000000
# 2 -0.005625 0.018996 -0.004314 0.000000 0.000000 0.000000
# 3 -0.004314 -0.004314 0.015740 0.000000 0.000000 0.000000
# 4 0.000000 0.000000 0.000000 0.036402 0.000000 0.000000
# 5 0.000000 0.000000 0.000000 0.000000 0.036402 0.000000
# 6 0.000000 0.000000 0.000000 0.000000 0.000000 0.033310
#
#
# Mechanical properties :
#
#
# Convention : Reuss Voigt Hill
#
# Bulk Modulus (GPa) = 39.64287 39.83531 39.73909
# Shear Modulus (GPa) = 25.41141 25.90789 25.65965
#
# Velocity S-wave (km/s) = 3.42377 3.45705 3.44045
# Velocity P-wave (km/s) = 5.82380 5.85754 5.84069
#
# Compressibility (1/GPa) = 0.02522522
#
# Stress axis : x y z
#
# Youngs Moduli (GPa) = 52.64113 52.64320 63.53114
#
# Poissons Ratio (x) = 0.29611 0.27410
# Poissons Ratio (y) = 0.29610 0.27409
# Poissons Ratio (z) = 0.22712 0.22712
#
# Static dielectric constant tensor:
#      x y z
#    x 1.863810 0.000000 0.000000 
#    y 0.000000 1.863810 0.000000 
#    z 0.000000 0.000000 1.448920 
# 
# From -- ./inp_files/2310.got.cif
#   From: 2010.05.17/outbox.cif.g08.bks.cpg/sg92_2_cif.got.tgz:2310.got - 2010.06.03 19:35:17.
