data_PCOD9549552
_publ_section_title
;
Structure prediction by ZEFSAII (Michael W. Deem and Ramdas Pophale) SiO2 
 PCOD9549552
Probable space group: P 41 21 2
;
_chemical_formula_sum "Si O2"
_cell_formula_units_Z 36
_cell_length_a 11.977864
_cell_length_b 11.977864
_cell_length_c 10.544459
_cell_angle_alpha 90.000000
_cell_angle_beta 90.000000
_cell_angle_gamma 90.000000
_cell_volume 1512.805371
_symmetry_space_group_name_H-M "P 41 21 2"
_symmetry_group_IT_number 92
_symmetry_cell_setting 'tetragonal'
loop_
_space_group_symop_operation_xyz
x,y,z
1/2-y,1/2+x,1/4+z
-x,-y,1/2+z
1/2+y,1/2-x,3/4+z
1/2+x,1/2-y,3/4-z
1/2-x,1/2+y,1/4-z
y,x,-z
-y,-x,1/2-z
loop_
_atom_site_type_symbol
_atom_site_label
_atom_site_fract_x
_atom_site_fract_y
_atom_site_fract_z
Si Si1 0.415454 0.415454 0.000000
Si Si2 0.578407 0.241832 0.719490
Si Si3 0.254254 0.336978 0.226873
Si Si4 0.387948 0.699923 0.617718
Si Si5 0.534000 0.917412 0.637700
O O1 0.367647 0.347866 0.878449
O O2 0.386078 0.544740 0.973420
O O3 0.644834 0.355167 0.750000
O O4 0.643857 0.178356 0.608968
O O5 0.448635 0.252902 0.689856
O O6 0.588791 0.163026 0.844116
O O7 0.253865 0.224781 0.309364
O O8 0.358257 0.641744 0.750000
O O9 0.475117 0.798699 0.642250
O O10 0.475835 0.979573 0.521126
#
# Coordination Sequence:
#
# PCOD9549552 Si02
#       5
#     4   8   8   8   8
#     4  12  24  50  82 112 160 214 258 320 400 482
#     4  12  23  43  77 106 145 207 271 311 389 478
#     4  12  26  48  78 114 150 213 262 321 396 479
#     4  12  29  49  77 120 166 198 264 336 397 469
#     4  12  25  47  80 114 158 209 261 327 397 482
#
# _framework density 23.796848000000001
#
# number of rings (size 3 to 8) (size 9 to 14) (size 15 to 20)
#    0.000    0.000    5.556    4.000    3.111    2.667 
#    4.000    0.000    2.444    0.000    0.000    0.000 
#    0.000    0.000    0.000    0.000    0.000    0.000 
#
# Total GULP energy -201652.483070 kJ/mol
# GULP energy per Si atom -5601.457863 kJ/mol
# Density = 2.374269 g / cm^3
# Si number density = 23.796848 Si / 1000 Ang^3
#
#
#
# Elastic Constant Matrix: (Units=GPa)
#
#
# Indices 1 2 3 4 5 6 
#
# 1 120.3767 44.3822 34.8301 0.0000 0.0000 0.0000
# 2 44.3822 120.3760 34.8305 0.0000 0.0000 0.0000
# 3 34.8301 34.8305 99.2875 0.0000 0.0000 0.0000
# 4 0.0000 0.0000 0.0000 36.1721 0.0000 0.0000
# 5 0.0000 0.0000 0.0000 0.0000 36.1720 0.0000
# 6 0.0000 0.0000 0.0000 0.0000 0.0000 16.7431
#
#
#
# Elastic Compliance Matrix: (Units=1/GPa)
#
#
# Indices 1 2 3 4 5 6 
#
# 1 0.010143 -0.003016 -0.002500 0.000000 0.000000 0.000000
# 2 -0.003016 0.010143 -0.002500 0.000000 0.000000 0.000000
# 3 -0.002500 -0.002500 0.011826 0.000000 0.000000 0.000000
# 4 0.000000 0.000000 0.000000 0.027646 0.000000 0.000000
# 5 0.000000 0.000000 0.000000 0.000000 0.027646 0.000000
# 6 0.000000 0.000000 0.000000 0.000000 0.000000 0.059726
#
#
# Mechanical properties :
#
#
# Convention : Reuss Voigt Hill
#
# Bulk Modulus (GPa) = 62.19373 63.12508 62.65940
# Shear Modulus (GPa) = 29.66996 32.88394 31.27695
#
# Velocity S-wave (km/s) = 3.53484 3.72137 3.62930
# Velocity P-wave (km/s) = 6.54615 6.71186 6.62952
#
# Compressibility (1/GPa) = 0.01607879
#
# Stress axis : x y z
#
# Youngs Moduli (GPa) = 98.59355 98.59261 84.56116
#
# Poissons Ratio (x) = 0.29738 0.21140
# Poissons Ratio (y) = 0.29738 0.21141
# Poissons Ratio (z) = 0.24648 0.24648
#
# Static dielectric constant tensor:
#      x y z
#    x 1.943740 0.000000 0.000000 
#    y 0.000000 1.943740 0.000000 
#    z 0.000000 0.000000 1.909930 
# 
# From -- ./inp_files/2028.got.cif
#   From: 2010.05.17/outbox.cif.g08.bks.cpg/sg92_2_cif.got.tgz:2028.got - 2010.06.03 19:35:17.
