data_PCOD9549139
_publ_section_title
;
Structure prediction by ZEFSAII (Michael W. Deem and Ramdas Pophale) SiO2 
 PCOD9549139
Probable space group: P 41 21 2
;
_chemical_formula_sum "Si O2"
_cell_formula_units_Z 48
_cell_length_a 11.371664
_cell_length_b 11.371664
_cell_length_c 19.530498
_cell_angle_alpha 90.000000
_cell_angle_beta 90.000000
_cell_angle_gamma 90.000000
_cell_volume 2525.581313
_symmetry_space_group_name_H-M "P 41 21 2"
_symmetry_group_IT_number 92
_symmetry_cell_setting 'tetragonal'
loop_
_space_group_symop_operation_xyz
x,y,z
1/2-y,1/2+x,1/4+z
-x,-y,1/2+z
1/2+y,1/2-x,3/4+z
1/2+x,1/2-y,3/4-z
1/2-x,1/2+y,1/4-z
y,x,-z
-y,-x,1/2-z
loop_
_atom_site_type_symbol
_atom_site_label
_atom_site_fract_x
_atom_site_fract_y
_atom_site_fract_z
Si Si1 0.814952 0.649220 0.534117
Si Si2 0.103206 0.253773 0.172618
Si Si3 0.853747 0.594413 0.145832
Si Si4 0.416506 0.397815 0.422418
Si Si5 0.505829 0.964842 0.992753
Si Si6 0.430484 0.680684 0.530128
O O1 0.768001 0.768001 0.500000
O O2 0.825339 0.679251 0.614091
O O3 0.727155 0.546066 0.508919
O O4 0.940829 0.599605 0.510618
O O5 0.178017 0.172513 0.223426
O O6 0.002298 0.165306 0.144098
O O7 0.038262 0.350072 0.218501
O O8 0.718402 0.586905 0.123288
O O9 0.888452 0.521467 0.213525
O O10 0.893542 0.726632 0.162222
O O11 0.930619 0.543863 0.083391
O O12 0.370645 0.370645 0.500000
O O13 0.550782 0.438317 0.437107
#
# Coordination Sequence:
#
# PCOD9549139 Si02
#       6
#     8   8   8   8   8   8
#     4  11  25  42  67  95 135 175 223 279 336 401
#     4  11  23  41  68  91 135 177 224 270 338 405
#     4  11  23  40  68  98 133 174 227 278 335 392
#     4  10  21  40  64  93 130 179 214 270 339 393
#     4  11  23  42  65  99 131 177 226 274 335 401
#     4  10  24  42  64  98 134 177 226 274 339 406
#
# _framework density 19.005526
#
# number of rings (size 3 to 8) (size 9 to 14) (size 15 to 20)
#    0.000    1.333    5.000    1.500    7.000    1.333 
#    0.000    1.667    0.000    0.000    0.000    0.000 
#    0.000    0.000    0.000    0.000    0.000    0.000 
#
# Total GULP energy -267860.588326 kJ/mol
# GULP energy per Si atom -5580.428923 kJ/mol
# Density = 1.896227 g / cm^3
# Si number density = 19.005526 Si / 1000 Ang^3
#
#
#
# Elastic Constant Matrix: (Units=GPa)
#
#
# Indices 1 2 3 4 5 6 
#
# 1 75.5138 76.8990 32.7426 0.0000 0.0000 0.0000
# 2 76.8990 75.5138 32.7426 0.0000 0.0000 0.0000
# 3 32.7426 32.7426 46.3694 0.0000 0.0000 0.0000
# 4 0.0000 0.0000 0.0000 30.5868 0.0000 0.0000
# 5 0.0000 0.0000 0.0000 0.0000 30.5868 0.0000
# 6 0.0000 0.0000 0.0000 0.0000 0.0000 3.8175
#
#
#
# Elastic Compliance Matrix: (Units=1/GPa)
#
#
# Indices 1 2 3 4 5 6 
#
# 1 -0.356249 0.365668 -0.006651 0.000000 0.000000 0.000000
# 2 0.365668 -0.356249 -0.006651 0.000000 0.000000 0.000000
# 3 -0.006651 -0.006651 0.030958 0.000000 0.000000 0.000000
# 4 0.000000 0.000000 0.000000 0.032694 0.000000 0.000000
# 5 0.000000 0.000000 0.000000 0.000000 0.032694 0.000000
# 6 0.000000 0.000000 0.000000 0.000000 0.000000 0.261953
#
#
# Mechanical properties :
#
#
# Convention : Reuss Voigt Hill
#
# Bulk Modulus (GPa) = 43.11687 53.57395 48.34541
# Shear Modulus (GPa) = -4.75646 16.66573 5.95463
#
# Velocity S-wave (km/s) = -1.58370 2.96444 1.77198
# Velocity P-wave (km/s) = 4.40359 6.32195 5.44787
#
# Compressibility (1/GPa) = 0.02319278
#
# Stress axis : x y z
#
# Youngs Moduli (GPa) = -2.80702 -2.80702 32.30135
#
# Poissons Ratio (x) = 1.02644 0.21483
# Poissons Ratio (y) = 1.02644 0.21483
# Poissons Ratio (z) = -0.01867 -0.01867
#
# Static dielectric constant tensor:
#      x y z
#    x 1.674120 0.000000 0.000000 
#    y 0.000000 1.674120 0.000000 
#    z 0.000000 0.000000 1.667030 
# 
# From -- ./inp_files/3121.got.cif
#   From: 2010.05.17/outbox.cif.g08.bks.cpg/sg92_2_cif.got.tgz:3121.got - 2010.06.03 19:35:17.
