data_PCOD9549837
_publ_section_title
;
Structure prediction by ZEFSAII (Michael W. Deem and Ramdas Pophale) SiO2 
 PCOD9549837
Probable space group: P 42 2 2
;
_chemical_formula_sum "Si O2"
_cell_formula_units_Z 20
_cell_length_a 5.421695
_cell_length_b 5.421695
_cell_length_c 26.254485
_cell_angle_alpha 90.000000
_cell_angle_beta 90.000000
_cell_angle_gamma 90.000000
_cell_volume 771.744723
_symmetry_space_group_name_H-M "P 42 2 2"
_symmetry_group_IT_number 93
_symmetry_cell_setting 'tetragonal'
loop_
_space_group_symop_operation_xyz
x,y,z
-y,x,1/2+z
-x,-y,z
y,-x,1/2+z
x,-y,-z
-x,y,-z
y,x,1/2-z
-y,-x,1/2-z
loop_
_atom_site_type_symbol
_atom_site_label
_atom_site_fract_x
_atom_site_fract_y
_atom_site_fract_z
Si Si1 0.747758 0.838200 0.806307
Si Si2 0.000000 0.500000 0.889009
Si Si3 0.896149 0.750565 0.442458
O O1 0.721961 0.721961 0.750000
O O2 0.816281 0.638916 0.849458
O O3 0.500000 0.000000 0.814381
O O4 0.000000 0.000000 0.804767
O O5 0.198380 0.615443 0.929526
O O6 0.000000 0.500000 0.421002
O O7 0.000000 0.753462 0.500000
O O8 0.000000 0.000000 0.417772
#
# Coordination Sequence:
#
# PCOD9549837 Si02
#       3
#     8   4   8
#     4  11  26  50  77 117 162 216 285 357 429 532
#     4  12  26  49  86 114 166 226 279 352 452 510
#     4  10  25  49  76 117 163 211 281 346 425 513
#
# _framework density 25.915303999999999
#
# number of rings (size 3 to 8) (size 9 to 14) (size 15 to 20)
#    0.000    1.200    2.000    1.200    0.000   16.000 
#    0.000   16.000    0.000    0.000    0.000    0.000 
#    0.000    0.000    0.000    0.000    0.000    0.000 
#
# Total GULP energy -111510.215237 kJ/mol
# GULP energy per Si atom -5575.510762 kJ/mol
# Density = 2.585632 g / cm^3
# Si number density = 25.915304 Si / 1000 Ang^3
#
#
#
# Elastic Constant Matrix: (Units=GPa)
#
#
# Indices 1 2 3 4 5 6 
#
# 1 174.6096 70.7855 62.8544 0.0000 0.0000 0.0000
# 2 70.7855 174.6096 62.8544 0.0000 0.0000 0.0000
# 3 62.8544 62.8544 257.3410 0.0000 0.0000 0.0000
# 4 0.0000 0.0000 0.0000 33.5406 0.0000 0.0000
# 5 0.0000 0.0000 0.0000 0.0000 33.5406 0.0000
# 6 0.0000 0.0000 0.0000 0.0000 0.0000 65.2570
#
#
#
# Elastic Compliance Matrix: (Units=1/GPa)
#
#
# Indices 1 2 3 4 5 6 
#
# 1 0.007145 -0.002487 -0.001138 0.000000 0.000000 0.000000
# 2 -0.002487 0.007145 -0.001138 0.000000 0.000000 0.000000
# 3 -0.001138 -0.001138 0.004442 0.000000 0.000000 0.000000
# 4 0.000000 0.000000 0.000000 0.029815 0.000000 0.000000
# 5 0.000000 0.000000 0.000000 0.000000 0.029815 0.000000
# 6 0.000000 0.000000 0.000000 0.000000 0.000000 0.015324
#
#
# Mechanical properties :
#
#
# Convention : Reuss Voigt Hill
#
# Bulk Modulus (GPa) = 108.61661 111.06099 109.83880
# Shear Modulus (GPa) = 47.04654 53.80537 50.42596
#
# Velocity S-wave (km/s) = 4.26537 4.56148 4.41591
# Velocity P-wave (km/s) = 8.14008 8.40780 8.27503
#
# Compressibility (1/GPa) = 0.00920670
#
# Stress axis : x y z
#
# Youngs Moduli (GPa) = 139.96267 139.96267 225.14245
#
# Poissons Ratio (x) = 0.34807 0.25614
# Poissons Ratio (y) = 0.34807 0.25614
# Poissons Ratio (z) = 0.15923 0.15923
#
# Static dielectric constant tensor:
#      x y z
#    x 2.967950 0.000000 0.000000 
#    y 0.000000 2.967950 0.000000 
#    z 0.000000 0.000000 2.329790 
# 
# From -- ./inp_files/7441.got.cif
#   From: 2010.05.17/outbox.cif.g08.bks.cpg/sg93_4_cif.got.tgz:7441.got - 2010.06.03 19:38:44.
