data_PCOD9549683
_publ_section_title
;
Structure prediction by ZEFSAII (Michael W. Deem and Ramdas Pophale) SiO2 
 PCOD9549683
Probable space group: P 42 2 2
;
_chemical_formula_sum "Si O2"
_cell_formula_units_Z 38
_cell_length_a 8.943048
_cell_length_b 8.943048
_cell_length_c 22.940600
_cell_angle_alpha 90.000000
_cell_angle_beta 90.000000
_cell_angle_gamma 90.000000
_cell_volume 1834.745774
_symmetry_space_group_name_H-M "P 42 2 2"
_symmetry_group_IT_number 93
_symmetry_cell_setting 'tetragonal'
loop_
_space_group_symop_operation_xyz
x,y,z
-y,x,1/2+z
-x,-y,z
y,-x,1/2+z
x,-y,-z
-x,y,-z
y,x,1/2-z
-y,-x,1/2-z
loop_
_atom_site_type_symbol
_atom_site_label
_atom_site_fract_x
_atom_site_fract_y
_atom_site_fract_z
Si Si1 0.000000 0.500000 0.500000
Si Si2 0.500000 0.750518 0.500000
Si Si3 0.168300 0.058242 0.307258
Si Si4 0.259134 0.582504 0.419985
Si Si5 0.649522 0.754775 0.689690
Si Si6 0.243581 0.353502 0.111309
O O1 0.108830 0.589464 0.457195
O O2 0.386254 0.651740 0.461580
O O3 0.409861 0.831411 0.551199
O O4 0.162122 0.162122 0.250000
O O5 0.218271 0.153095 0.362060
O O6 0.281751 0.919250 0.299667
O O7 0.000000 0.000000 0.314048
O O8 0.252601 0.674261 0.360281
O O9 0.305463 0.412784 0.404130
O O10 0.664225 0.664225 0.750000
O O11 0.485535 0.758413 0.659989
#
# Coordination Sequence:
#
# PCOD9549683 Si02
#       6
#     2   4   8   8   8   8
#     4  12  24  38  68 110 140 182 232 272 364 414
#     4  10  19  46  69 102 139 168 225 300 337 392
#     4  11  25  46  63  94 142 183 218 280 346 417
#     4  11  24  40  72 101 137 176 229 288 337 415
#     4  11  24  44  67 101 134 174 229 286 349 410
#     4  11  23  42  74  96 133 179 227 281 347 403
#
# _framework density 20.711317000000001
#
# number of rings (size 3 to 8) (size 9 to 14) (size 15 to 20)
#    0.000    1.053    4.211    3.789    5.895    0.842 
#    0.000    8.421    0.000    6.316    0.000    0.000 
#    0.000    0.000    0.000    0.000    0.000    0.000 
#
# Total GULP energy -212310.703300 kJ/mol
# GULP energy per Si atom -5587.123771 kJ/mol
# Density = 2.066418 g / cm^3
# Si number density = 20.711317 Si / 1000 Ang^3
#
#
#
# Elastic Constant Matrix: (Units=GPa)
#
#
# Indices 1 2 3 4 5 6 
#
# 1 58.1052 15.4028 40.1123 0.0000 0.0000 0.0000
# 2 15.4028 58.1052 40.1123 0.0000 0.0000 0.0000
# 3 40.1123 40.1123 181.3727 0.0000 0.0000 0.0000
# 4 0.0000 0.0000 0.0000 29.7066 0.0000 0.0000
# 5 0.0000 0.0000 0.0000 0.0000 29.7066 0.0000
# 6 0.0000 0.0000 0.0000 0.0000 0.0000 26.0041
#
#
#
# Elastic Compliance Matrix: (Units=1/GPa)
#
#
# Indices 1 2 3 4 5 6 
#
# 1 0.020675 -0.002743 -0.003966 0.000000 0.000000 0.000000
# 2 -0.002743 0.020675 -0.003966 0.000000 0.000000 0.000000
# 3 -0.003966 -0.003966 0.007268 0.000000 0.000000 0.000000
# 4 0.000000 0.000000 0.000000 0.033663 0.000000 0.000000
# 5 0.000000 0.000000 0.000000 0.000000 0.033663 0.000000
# 6 0.000000 0.000000 0.000000 0.000000 0.000000 0.038455
#
#
# Mechanical properties :
#
#
# Convention : Reuss Voigt Hill
#
# Bulk Modulus (GPa) = 36.67222 54.31531 45.49376
# Shear Modulus (GPa) = 27.05084 30.54717 28.79901
#
# Velocity S-wave (km/s) = 3.61791 3.84461 3.73298
# Velocity P-wave (km/s) = 5.93272 6.78159 6.37131
#
# Compressibility (1/GPa) = 0.02726860
#
# Stress axis : x y z
#
# Youngs Moduli (GPa) = 48.36746 48.36746 137.59532
#
# Poissons Ratio (x) = 0.13266 0.54569
# Poissons Ratio (y) = 0.13266 0.54569
# Poissons Ratio (z) = 0.19182 0.19182
#
# Static dielectric constant tensor:
#      x y z
#    x 1.776920 0.000000 0.000000 
#    y 0.000000 1.776920 0.000000 
#    z 0.000000 0.000000 1.742980 
# 
# From -- ./inp_files/6755.got.cif
#   From: 2010.05.17/outbox.cif.g08.bks.cpg/sg93_4_cif.got.tgz:6755.got - 2010.06.03 19:38:44.
