data_PCOD9549554
_publ_section_title
;
Structure prediction by ZEFSAII (Michael W. Deem and Ramdas Pophale) SiO2 
 PCOD9549554
Probable space group: P 41 21 2
;
_chemical_formula_sum "Si O2"
_cell_formula_units_Z 60
_cell_length_a 11.118995
_cell_length_b 11.118995
_cell_length_c 22.858943
_cell_angle_alpha 90.000000
_cell_angle_beta 90.000000
_cell_angle_gamma 90.000000
_cell_volume 2826.097980
_symmetry_space_group_name_H-M "P 41 21 2"
_symmetry_group_IT_number 92
_symmetry_cell_setting 'tetragonal'
loop_
_space_group_symop_operation_xyz
x,y,z
1/2-y,1/2+x,1/4+z
-x,-y,1/2+z
1/2+y,1/2-x,3/4+z
1/2+x,1/2-y,3/4-z
1/2-x,1/2+y,1/4-z
y,x,-z
-y,-x,1/2-z
loop_
_atom_site_type_symbol
_atom_site_label
_atom_site_fract_x
_atom_site_fract_y
_atom_site_fract_z
Si Si1 0.655661 0.297301 0.459932
Si Si2 0.090364 0.374584 0.392131
Si Si3 0.030294 0.820510 0.701923
Si Si4 0.018078 0.018078 0.000000
Si Si5 0.140380 0.020211 0.121642
Si Si6 0.583281 0.909394 0.636364
Si Si7 0.922889 0.193490 0.694394
Si Si8 0.736308 0.069060 0.006663
O O1 0.601605 0.235562 0.402810
O O2 0.572941 0.250970 0.512398
O O3 0.649677 0.442073 0.458278
O O4 0.793619 0.268879 0.471677
O O5 0.225721 0.402911 0.411661
O O6 0.021145 0.490691 0.365711
O O7 0.015144 0.333188 0.448041
O O8 0.115699 0.884302 0.750000
O O9 0.956404 0.913472 0.662612
O O10 0.035098 0.875983 0.991531
O O11 0.048568 0.100414 0.944147
O O12 0.276383 0.055300 0.136994
O O13 0.126580 0.880920 0.139007
O O14 0.567965 0.829837 0.577410
O O15 0.557240 0.828027 0.693566
O O16 0.839961 0.160040 0.750000
#
# Coordination Sequence:
#
# PCOD9549554 Si02
#       8
#     8   8   8   4   8   8   8   8
#     4  12  24  49  75 103 146 191 251 302 360 452
#     4  12  30  43  76 112 148 190 246 310 382 441
#     4  12  26  48  75 108 145 195 245 298 369 448
#     4  12  28  44  74 108 146 192 254 308 380 436
#     4  12  25  49  73 106 143 196 246 304 371 451
#     4  12  28  48  72 109 154 191 250 311 379 447
#     4  12  23  49  78 100 140 199 245 295 372 445
#     4  12  26  50  72 106 149 193 245 316 372 448
#
# _framework density 21.230687
#
# number of rings (size 3 to 8) (size 9 to 14) (size 15 to 20)
#    0.000    0.000    6.667    2.400    7.467    0.000 
#    2.400    0.000    0.000    0.000    0.000    0.000 
#    0.000    0.000    0.000    0.000    0.000    0.000 
#
# Total GULP energy -335628.335833 kJ/mol
# GULP energy per Si atom -5593.805597 kJ/mol
# Density = 2.118237 g / cm^3
# Si number density = 21.230687 Si / 1000 Ang^3
#
#
#
# Elastic Constant Matrix: (Units=GPa)
#
#
# Indices 1 2 3 4 5 6 
#
# 1 56.6828 6.1753 6.1087 0.0000 0.0000 0.0000
# 2 6.1753 56.6844 6.1095 0.0000 0.0000 0.0000
# 3 6.1087 6.1095 74.9937 0.0000 0.0000 0.0000
# 4 0.0000 0.0000 0.0000 37.1825 0.0000 0.0000
# 5 0.0000 0.0000 0.0000 0.0000 37.1824 0.0000
# 6 0.0000 0.0000 0.0000 0.0000 0.0000 33.7920
#
#
#
# Elastic Compliance Matrix: (Units=1/GPa)
#
#
# Indices 1 2 3 4 5 6 
#
# 1 0.017982 -0.001817 -0.001317 0.000000 0.000000 0.000000
# 2 -0.001817 0.017981 -0.001317 0.000000 0.000000 0.000000
# 3 -0.001317 -0.001317 0.013549 0.000000 0.000000 0.000000
# 4 0.000000 0.000000 0.000000 0.026894 0.000000 0.000000
# 5 0.000000 0.000000 0.000000 0.000000 0.026894 0.000000
# 6 0.000000 0.000000 0.000000 0.000000 0.000000 0.029593
#
#
# Mechanical properties :
#
#
# Convention : Reuss Voigt Hill
#
# Bulk Modulus (GPa) = 24.62387 25.01644 24.82016
# Shear Modulus (GPa) = 32.18905 32.96253 32.57579
#
# Velocity S-wave (km/s) = 3.89801 3.94457 3.92136
# Velocity P-wave (km/s) = 5.64648 5.70569 5.67616
#
# Compressibility (1/GPa) = 0.04061100
#
# Stress axis : x y z
#
# Youngs Moduli (GPa) = 55.61145 55.61289 73.80622
#
# Poissons Ratio (x) = 0.10105 0.09718
# Poissons Ratio (y) = 0.10105 0.09719
# Poissons Ratio (z) = 0.07322 0.07324
#
# Static dielectric constant tensor:
#      x y z
#    x 1.763500 0.000000 0.000000 
#    y 0.000000 1.763500 0.000000 
#    z 0.000000 0.000000 1.783090 
# 
# From -- ./inp_files/3631.got.cif
#   From: 2010.05.17/outbox.cif.g08.bks.cpg/sg92_2_cif.got.tgz:3631.got - 2010.06.03 19:35:17.
