data_PCOD9549031
_publ_section_title
;
Structure prediction by ZEFSAII (Michael W. Deem and Ramdas Pophale) SiO2 
 PCOD9549031
Probable space group: P 41 21 2
;
_chemical_formula_sum "Si O2"
_cell_formula_units_Z 56
_cell_length_a 10.675451
_cell_length_b 10.675451
_cell_length_c 23.052755
_cell_angle_alpha 90.000000
_cell_angle_beta 90.000000
_cell_angle_gamma 90.000000
_cell_volume 2627.213080
_symmetry_space_group_name_H-M "P 41 21 2"
_symmetry_group_IT_number 92
_symmetry_cell_setting 'tetragonal'
loop_
_space_group_symop_operation_xyz
x,y,z
1/2-y,1/2+x,1/4+z
-x,-y,1/2+z
1/2+y,1/2-x,3/4+z
1/2+x,1/2-y,3/4-z
1/2-x,1/2+y,1/4-z
y,x,-z
-y,-x,1/2-z
loop_
_atom_site_type_symbol
_atom_site_label
_atom_site_fract_x
_atom_site_fract_y
_atom_site_fract_z
Si Si1 0.223946 0.472858 0.052467
Si Si2 0.680739 0.386602 0.988999
Si Si3 0.777113 0.639482 0.044589
Si Si4 0.388960 0.930076 0.075786
Si Si5 0.519308 0.878355 0.767964
Si Si6 0.694033 0.687279 0.174717
Si Si7 0.934453 0.757332 0.527476
O O1 0.354085 0.543105 0.037002
O O2 0.176289 0.489024 0.118151
O O3 0.185876 0.326560 0.045541
O O4 0.137413 0.547783 0.007399
O O5 0.781994 0.371226 0.936479
O O6 0.703332 0.521673 0.017389
O O7 0.731874 0.296428 0.040778
O O8 0.737130 0.672313 0.108854
O O9 0.750753 0.750753 0.000000
O O10 0.923318 0.616289 0.035405
O O11 0.536648 0.960904 0.069507
O O12 0.322909 0.995174 0.021281
O O13 0.563736 0.744040 0.791125
O O14 0.545767 0.713847 0.177585
O O15 0.883876 0.883876 0.500000
#
# Coordination Sequence:
#
# PCOD9549031 Si02
#       7
#     8   8   8   8   8   8   8
#     4  10  20  37  66  82 120 165 205 265 303 376
#     4   9  22  41  58  97 121 162 221 252 323 384
#     4  11  24  36  64  94 124 166 207 264 325 375
#     4   9  19  36  64  86 118 159 201 259 306 374
#     4   9  20  39  60  92 120 156 218 245 322 381
#     4  10  22  41  63  86 132 165 203 273 306 388
#     4  10  23  38  56  89 120 165 207 244 318 380
#
# _framework density 21.315362
#
# number of rings (size 3 to 8) (size 9 to 14) (size 15 to 20)
#    0.000    2.286    0.000    1.714    8.000    1.143 
#    0.000    0.000    3.143    0.000    0.000    0.000 
#    0.000    0.000    0.000    0.000    0.000    0.000 
#
# Total GULP energy -311871.809476 kJ/mol
# GULP energy per Si atom -5569.139455 kJ/mol
# Density = 2.126685 g / cm^3
# Si number density = 21.315362 Si / 1000 Ang^3
#
#
#
# Elastic Constant Matrix: (Units=GPa)
#
#
# Indices 1 2 3 4 5 6 
#
# 1 24.3785 49.9255 6.5121 0.0000 0.0000 0.0000
# 2 49.9255 24.3785 6.5121 0.0000 0.0000 0.0000
# 3 6.5121 6.5121 66.8829 0.0000 0.0000 0.0000
# 4 0.0000 0.0000 0.0000 13.4364 0.0000 0.0000
# 5 0.0000 0.0000 0.0000 0.0000 13.4364 0.0000
# 6 0.0000 0.0000 0.0000 0.0000 0.0000 19.3043
#
#
#
# Elastic Compliance Matrix: (Units=1/GPa)
#
#
# Indices 1 2 3 4 5 6 
#
# 1 -0.012726 0.026418 -0.001333 0.000000 0.000000 0.000000
# 2 0.026418 -0.012726 -0.001333 0.000000 0.000000 0.000000
# 3 -0.001333 -0.001333 0.015211 0.000000 0.000000 0.000000
# 4 0.000000 0.000000 0.000000 0.074425 0.000000 0.000000
# 5 0.000000 0.000000 0.000000 0.000000 0.074425 0.000000
# 6 0.000000 0.000000 0.000000 0.000000 0.000000 0.051802
#
#
# Mechanical properties :
#
#
# Convention : Reuss Voigt Hill
#
# Bulk Modulus (GPa) = 26.83665 26.83766 26.83716
# Shear Modulus (GPa) = 32.18973 12.74808 22.46891
#
# Velocity S-wave (km/s) = 3.89030 2.44820 3.25024
# Velocity P-wave (km/s) = 5.72686 4.53979 5.16752
#
# Compressibility (1/GPa) = 0.03726247
#
# Stress axis : x y z
#
# Youngs Moduli (GPa) = -78.58042 -78.58042 65.74142
#
# Poissons Ratio (x) = 2.07592 0.08764
# Poissons Ratio (y) = 2.07592 0.08764
# Poissons Ratio (z) = -0.10476 -0.10476
#
# Static dielectric constant tensor:
#      x y z
#    x 1.855440 0.000000 0.000000 
#    y 0.000000 1.855440 0.000000 
#    z 0.000000 0.000000 1.740710 
# 
# From -- ./inp_files/3941.got.cif
#   From: 2010.05.17/outbox.cif.g08.bks.cpg/sg92_2_cif.got.tgz:3941.got - 2010.06.03 19:35:17.
