data_PCOD9549077
_publ_section_title
;
Structure prediction by ZEFSAII (Michael W. Deem and Ramdas Pophale) SiO2 
 PCOD9549077
Probable space group: P 41 21 2
;
_chemical_formula_sum "Si O2"
_cell_formula_units_Z 40
_cell_length_a 11.516760
_cell_length_b 11.516760
_cell_length_c 13.799159
_cell_angle_alpha 90.000000
_cell_angle_beta 90.000000
_cell_angle_gamma 90.000000
_cell_volume 1830.261954
_symmetry_space_group_name_H-M "P 41 21 2"
_symmetry_group_IT_number 92
_symmetry_cell_setting 'tetragonal'
loop_
_space_group_symop_operation_xyz
x,y,z
1/2-y,1/2+x,1/4+z
-x,-y,1/2+z
1/2+y,1/2-x,3/4+z
1/2+x,1/2-y,3/4-z
1/2-x,1/2+y,1/4-z
y,x,-z
-y,-x,1/2-z
loop_
_atom_site_type_symbol
_atom_site_label
_atom_site_fract_x
_atom_site_fract_y
_atom_site_fract_z
Si Si1 0.055172 0.128663 0.186504
Si Si2 0.195852 0.849380 0.593210
Si Si3 0.324225 0.607126 0.644403
Si Si4 0.541106 0.717157 0.326105
Si Si5 0.312229 0.143192 0.942364
O O1 0.086996 0.099297 0.296818
O O2 0.114666 0.251549 0.160098
O O3 0.922510 0.147207 0.156419
O O4 0.112927 0.039882 0.111227
O O5 0.264349 0.733618 0.626702
O O6 0.150566 0.832378 0.482866
O O7 0.245594 0.981917 0.603533
O O8 0.383652 0.616349 0.750000
O O9 0.472714 0.802196 0.253682
O O10 0.569570 0.794142 0.419203
O O11 0.234915 0.234915 0.000000
#
# Coordination Sequence:
#
# PCOD9549077 Si02
#       5
#     8   8   8   8   8
#     4  10  21  42  65  96 128 182 234 289 354 428
#     4  11  24  43  71 100 137 186 233 294 370 426
#     4  12  24  42  68 104 140 184 239 297 352 431
#     4  10  20  41  69  97 131 181 237 291 361 432
#     4   9  19  36  65  93 130 173 225 293 354 427
#
# _framework density 21.854796
#
# number of rings (size 3 to 8) (size 9 to 14) (size 15 to 20)
#    0.000    1.600    2.000    4.800    0.000    3.200 
#    0.000    4.000    0.000    0.000    0.000    0.000 
#    0.000    0.000    0.000    0.000    0.000    0.000 
#
# Total GULP energy -222704.041364 kJ/mol
# GULP energy per Si atom -5567.601034 kJ/mol
# Density = 2.180505 g / cm^3
# Si number density = 21.854796 Si / 1000 Ang^3
#
#
#
# Elastic Constant Matrix: (Units=GPa)
#
#
# Indices 1 2 3 4 5 6 
#
# 1 80.1070 30.4632 14.7557 0.0000 0.0000 0.0000
# 2 30.4632 80.1077 14.7564 0.0000 0.0000 0.0000
# 3 14.7557 14.7564 108.8835 0.0000 0.0000 0.0000
# 4 0.0000 0.0000 0.0000 30.7352 0.0000 0.0000
# 5 0.0000 0.0000 0.0000 0.0000 30.7352 0.0000
# 6 0.0000 0.0000 0.0000 0.0000 0.0000 29.9832
#
#
#
# Elastic Compliance Matrix: (Units=1/GPa)
#
#
# Indices 1 2 3 4 5 6 
#
# 1 0.014763 -0.005380 -0.001272 0.000000 0.000000 0.000000
# 2 -0.005380 0.014763 -0.001272 0.000000 0.000000 0.000000
# 3 -0.001272 -0.001272 0.009529 0.000000 0.000000 0.000000
# 4 0.000000 0.000000 0.000000 0.032536 0.000000 0.000000
# 5 0.000000 0.000000 0.000000 0.000000 0.032536 0.000000
# 6 0.000000 0.000000 0.000000 0.000000 0.000000 0.033352
#
#
# Mechanical properties :
#
#
# Convention : Reuss Voigt Hill
#
# Bulk Modulus (GPa) = 43.08670 43.22763 43.15716
# Shear Modulus (GPa) = 31.04384 32.23223 31.63803
#
# Velocity S-wave (km/s) = 3.77299 3.84452 3.80892
# Velocity P-wave (km/s) = 6.22401 6.28725 6.25571
#
# Compressibility (1/GPa) = 0.02320902
#
# Stress axis : x y z
#
# Youngs Moduli (GPa) = 67.73489 67.73539 104.94498
#
# Poissons Ratio (x) = 0.36441 0.13345
# Poissons Ratio (y) = 0.36441 0.13346
# Poissons Ratio (z) = 0.08613 0.08614
#
# Static dielectric constant tensor:
#      x y z
#    x 1.849350 0.000000 0.000000 
#    y 0.000000 1.849350 0.000000 
#    z 0.000000 0.000000 1.867080 
# 
# From -- ./inp_files/2625.got.cif
#   From: 2010.05.17/outbox.cif.g08.bks.cpg/sg92_2_cif.got.tgz:2625.got - 2010.06.03 19:35:17.
