data_PCOD9549187
_publ_section_title
;
Structure prediction by ZEFSAII (Michael W. Deem and Ramdas Pophale) SiO2 
 PCOD9549187
Probable space group: P 41 21 2
;
_chemical_formula_sum "Si O2"
_cell_formula_units_Z 48
_cell_length_a 11.349482
_cell_length_b 11.349482
_cell_length_c 19.773917
_cell_angle_alpha 90.000000
_cell_angle_beta 90.000000
_cell_angle_gamma 90.000000
_cell_volume 2547.092914
_symmetry_space_group_name_H-M "P 41 21 2"
_symmetry_group_IT_number 92
_symmetry_cell_setting 'tetragonal'
loop_
_space_group_symop_operation_xyz
x,y,z
1/2-y,1/2+x,1/4+z
-x,-y,1/2+z
1/2+y,1/2-x,3/4+z
1/2+x,1/2-y,3/4-z
1/2-x,1/2+y,1/4-z
y,x,-z
-y,-x,1/2-z
loop_
_atom_site_type_symbol
_atom_site_label
_atom_site_fract_x
_atom_site_fract_y
_atom_site_fract_z
Si Si1 0.480146 0.372710 0.433520
Si Si2 0.314394 0.470276 0.183438
Si Si3 0.153294 0.046170 0.431743
Si Si4 0.511744 0.319726 0.658054
Si Si5 0.064007 0.546294 0.399492
Si Si6 0.075712 0.601964 0.790097
O O1 0.455282 0.455282 0.500000
O O2 0.594964 0.397568 0.386285
O O3 0.374062 0.402680 0.382365
O O4 0.467988 0.237060 0.454124
O O5 0.405038 0.361843 0.171596
O O6 0.385443 0.582695 0.154902
O O7 0.302082 0.482754 0.263874
O O8 0.183420 0.466829 0.155709
O O9 0.078358 0.078358 0.500000
O O10 0.284149 0.090057 0.448465
O O11 0.544989 0.198262 0.624788
O O12 0.056544 0.472292 0.468535
O O13 0.984692 0.478295 0.346228
#
# Coordination Sequence:
#
# PCOD9549187 Si02
#       6
#     8   8   8   8   8   8
#     4  11  22  42  68  98 128 169 218 271 336 396
#     4  10  22  44  68  88 126 179 217 261 331 393
#     4  11  23  45  69  95 129 171 220 271 334 391
#     4  10  21  44  67  89 126 174 219 260 328 399
#     4  12  25  43  64  98 133 174 219 270 333 387
#     4  12  27  41  66 101 133 167 222 280 330 392
#
# _framework density 18.845013000000002
#
# number of rings (size 3 to 8) (size 9 to 14) (size 15 to 20)
#    0.000    1.000    6.667    1.500    4.667    0.000 
#    6.000    0.000    0.000    0.000    0.000    0.000 
#    0.000    0.000    0.000    0.000    0.000    0.000 
#
# Total GULP energy -267859.805623 kJ/mol
# GULP energy per Si atom -5580.412617 kJ/mol
# Density = 1.880212 g / cm^3
# Si number density = 18.845013 Si / 1000 Ang^3
#
#
#
# Elastic Constant Matrix: (Units=GPa)
#
#
# Indices 1 2 3 4 5 6 
#
# 1 94.3737 -32.7236 38.9163 0.0000 0.0000 0.0000
# 2 -32.7236 94.3737 38.9163 0.0000 0.0000 0.0000
# 3 38.9163 38.9163 109.4699 0.0000 0.0000 0.0000
# 4 0.0000 0.0000 0.0000 29.5026 0.0000 0.0000
# 5 0.0000 0.0000 0.0000 0.0000 29.5026 0.0000
# 6 0.0000 0.0000 0.0000 0.0000 0.0000 13.7573
#
#
#
# Elastic Compliance Matrix: (Units=1/GPa)
#
#
# Indices 1 2 3 4 5 6 
#
# 1 0.018648 0.010780 -0.010462 0.000000 0.000000 0.000000
# 2 0.010780 0.018648 -0.010462 0.000000 0.000000 0.000000
# 3 -0.010462 -0.010462 0.016573 0.000000 0.000000 0.000000
# 4 0.000000 0.000000 0.000000 0.033895 0.000000 0.000000
# 5 0.000000 0.000000 0.000000 0.000000 0.033895 0.000000
# 6 0.000000 0.000000 0.000000 0.000000 0.000000 0.072689
#
#
# Mechanical properties :
#
#
# Convention : Reuss Voigt Hill
#
# Bulk Modulus (GPa) = 29.77697 43.15950 36.46823
# Shear Modulus (GPa) = 22.14058 31.42640 26.78349
#
# Velocity S-wave (km/s) = 3.43137 4.08809 3.77404
# Velocity P-wave (km/s) = 5.61554 6.72572 6.19555
#
# Compressibility (1/GPa) = 0.03358300
#
# Stress axis : x y z
#
# Youngs Moduli (GPa) = 53.62456 53.62456 60.33847
#
# Poissons Ratio (x) = -0.57808 0.63124
# Poissons Ratio (y) = -0.57808 0.63124
# Poissons Ratio (z) = 0.56101 0.56101
#
# Static dielectric constant tensor:
#      x y z
#    x 1.649150 0.000000 0.000000 
#    y 0.000000 1.649150 0.000000 
#    z 0.000000 0.000000 1.647780 
# 
# From -- ./inp_files/3157.got.cif
#   From: 2010.05.17/outbox.cif.g08.bks.cpg/sg92_2_cif.got.tgz:3157.got - 2010.06.03 19:35:17.
