data_PCOD9549909
_publ_section_title
;
Structure prediction by ZEFSAII (Michael W. Deem and Ramdas Pophale) SiO2 
 PCOD9549909
Probable space group: P 42 2 2
;
_chemical_formula_sum "Si O2"
_cell_formula_units_Z 40
_cell_length_a 9.000000
_cell_length_b 9.000000
_cell_length_c 24.000000
_cell_angle_alpha 90.000000
_cell_angle_beta 90.000000
_cell_angle_gamma 90.000000
_cell_volume 1944.000000
_symmetry_space_group_name_H-M "P 42 2 2"
_symmetry_group_IT_number 93
_symmetry_cell_setting 'tetragonal'
loop_
_space_group_symop_operation_xyz
x,y,z
-y,x,1/2+z
-x,-y,z
y,-x,1/2+z
x,-y,-z
-x,y,-z
y,x,1/2-z
-y,-x,1/2-z
loop_
_atom_site_type_symbol
_atom_site_label
_atom_site_fract_x
_atom_site_fract_y
_atom_site_fract_z
Si Si1 0.939514 0.662812 0.166607
Si Si2 0.069344 0.336586 0.291709
Si Si3 0.165016 0.439806 0.560349
Si Si4 0.093526 0.860645 0.388934
Si Si5 0.599729 0.641717 0.153014
O O1 0.944741 0.726600 0.229687
O O2 0.776488 0.636115 0.139236
O O3 0.000000 0.500000 0.173129
O O4 0.056185 0.762756 0.134320
O O5 0.239863 0.384603 0.298320
O O6 0.000000 0.500000 0.297634
O O7 0.001197 0.226736 0.339637
O O8 0.207122 0.500000 0.500000
O O9 0.145949 0.264018 0.567843
O O10 0.278566 0.508678 0.603994
O O11 0.000000 0.500000 0.571974
O O12 0.000000 0.000000 0.411637
O O13 0.500000 0.500000 0.167890
#
# Coordination Sequence:
#
# PCOD9549909 Si02
#       5
#     8   8   8   8   8
#     4  11  25  37  60  98 134 179 224 278 339 398
#     4  11  22  40  62  93 133 181 225 265 336 420
#     4  11  23  45  72  95 125 179 233 282 351 418
#     4  12  21  41  67  96 134 168 221 296 337 400
#     4  12  23  42  64  89 137 179 227 280 335 413
#
# _framework density 20.576132000000001
#
# number of rings (size 3 to 8) (size 9 to 14) (size 15 to 20)
#    0.000    0.600    6.000    2.400    0.000    2.800 
#    0.000    7.000    0.000    1.200    0.000    0.000 
#    0.000    0.000    0.000    0.000    0.000    0.000 
#
# Total GULP energy -222759.930182 kJ/mol
# GULP energy per Si atom -5568.998255 kJ/mol
# Density = 2.052930 g / cm^3
# Si number density = 20.576132 Si / 1000 Ang^3
#
#
#
# Elastic Constant Matrix: (Units=GPa)
#
#
# Indices 1 2 3 4 5 6 
#
# 1 112.7873 27.7097 26.0739 0.0000 0.0000 0.0000
# 2 27.7097 112.7873 26.0739 0.0000 0.0000 0.0000
# 3 26.0739 26.0739 67.5523 0.0000 0.0000 0.0000
# 4 0.0000 0.0000 0.0000 13.8766 0.0000 0.0000
# 5 0.0000 0.0000 0.0000 0.0000 13.8766 0.0000
# 6 0.0000 0.0000 0.0000 0.0000 0.0000 49.4940
#
#
#
# Elastic Compliance Matrix: (Units=1/GPa)
#
#
# Indices 1 2 3 4 5 6 
#
# 1 0.010031 -0.001723 -0.003207 0.000000 0.000000 0.000000
# 2 -0.001723 0.010031 -0.003207 0.000000 0.000000 0.000000
# 3 -0.003207 -0.003207 0.017279 0.000000 0.000000 0.000000
# 4 0.000000 0.000000 0.000000 0.072064 0.000000 0.000000
# 5 0.000000 0.000000 0.000000 0.000000 0.072064 0.000000
# 6 0.000000 0.000000 0.000000 0.000000 0.000000 0.020204
#
#
# Mechanical properties :
#
#
# Convention : Reuss Voigt Hill
#
# Bulk Modulus (GPa) = 47.46595 50.31577 48.89086
# Shear Modulus (GPa) = 22.22539 29.66739 25.94639
#
# Velocity S-wave (km/s) = 3.29014 3.80127 3.55490
# Velocity P-wave (km/s) = 6.12796 6.61610 6.37670
#
# Compressibility (1/GPa) = 0.02106774
#
# Stress axis : x y z
#
# Youngs Moduli (GPa) = 99.69215 99.69215 57.87456
#
# Poissons Ratio (x) = 0.17178 0.18558
# Poissons Ratio (y) = 0.17178 0.18558
# Poissons Ratio (z) = 0.31968 0.31968
#
# Static dielectric constant tensor:
#      x y z
#    x 2.063060 0.000000 0.000000 
#    y 0.000000 2.063060 0.000000 
#    z 0.000000 0.000000 1.773850 
# 
# From -- ./inp_files/6696.got.cif
#   From: 2010.05.17/outbox.ucp.g08.bks.cvg/sg93_4_cif.got.tgz:6696.got - 2010.06.11 10:36:56.
