data_PCOD9549021
_publ_section_title
;
Structure prediction by ZEFSAII (Michael W. Deem and Ramdas Pophale) SiO2 
 PCOD9549021
Probable space group: P 41 21 2
;
_chemical_formula_sum "Si O2"
_cell_formula_units_Z 40
_cell_length_a 12.079222
_cell_length_b 12.079222
_cell_length_c 14.081636
_cell_angle_alpha 90.000000
_cell_angle_beta 90.000000
_cell_angle_gamma 90.000000
_cell_volume 2054.617771
_symmetry_space_group_name_H-M "P 41 21 2"
_symmetry_group_IT_number 92
_symmetry_cell_setting 'tetragonal'
loop_
_space_group_symop_operation_xyz
x,y,z
1/2-y,1/2+x,1/4+z
-x,-y,1/2+z
1/2+y,1/2-x,3/4+z
1/2+x,1/2-y,3/4-z
1/2-x,1/2+y,1/4-z
y,x,-z
-y,-x,1/2-z
loop_
_atom_site_type_symbol
_atom_site_label
_atom_site_fract_x
_atom_site_fract_y
_atom_site_fract_z
Si Si1 0.175541 0.561424 0.647606
Si Si2 0.896962 0.673392 0.114624
Si Si3 0.263509 0.331560 0.284544
Si Si4 0.965334 0.078396 0.360445
Si Si5 0.906758 0.155751 0.643717
O O1 0.100825 0.452253 0.650144
O O2 0.172974 0.618942 0.750612
O O3 0.136856 0.640165 0.562728
O O4 0.302081 0.521837 0.629177
O O5 0.789466 0.723468 0.166546
O O6 0.006793 0.742914 0.136526
O O7 0.350129 0.414116 0.334528
O O8 0.304575 0.325748 0.176978
O O9 0.049775 0.981034 0.387944
O O10 0.938550 0.061451 0.250000
O O11 0.866594 0.133407 0.750000
#
# Coordination Sequence:
#
# PCOD9549021 Si02
#       5
#     8   8   8   8   8
#     4  11  22  38  68 101 128 166 223 281 333 379
#     4  11  21  40  66  93 129 170 217 278 332 393
#     4  11  21  37  66  95 130 169 225 278 325 397
#     4  10  20  36  67  98 129 163 222 276 328 396
#     4  11  23  41  63  93 134 184 218 266 344 409
#
# _framework density 19.468340000000001
#
# number of rings (size 3 to 8) (size 9 to 14) (size 15 to 20)
#    0.000    1.200    6.000    3.600    0.000    0.000 
#    3.600    0.000    4.400    0.000    0.000    0.000 
#    0.000    0.000    0.000    0.000    0.000    0.000 
#
# Total GULP energy -223381.885500 kJ/mol
# GULP energy per Si atom -5584.547137 kJ/mol
# Density = 1.942403 g / cm^3
# Si number density = 19.468340 Si / 1000 Ang^3
#
#
#
# Elastic Constant Matrix: (Units=GPa)
#
#
# Indices 1 2 3 4 5 6 
#
# 1 50.8072 -3.7310 5.5918 0.0000 0.0000 0.0000
# 2 -3.7310 50.8079 5.5925 0.0000 0.0000 0.0000
# 3 5.5918 5.5925 79.0148 0.0000 0.0000 0.0000
# 4 0.0000 0.0000 0.0000 33.4481 0.0000 0.0000
# 5 0.0000 0.0000 0.0000 0.0000 33.4479 0.0000
# 6 0.0000 0.0000 0.0000 0.0000 0.0000 9.2160
#
#
#
# Elastic Compliance Matrix: (Units=1/GPa)
#
#
# Indices 1 2 3 4 5 6 
#
# 1 0.019971 0.001635 -0.001529 0.000000 0.000000 0.000000
# 2 0.001635 0.019970 -0.001529 0.000000 0.000000 0.000000
# 3 -0.001529 -0.001529 0.012872 0.000000 0.000000 0.000000
# 4 0.000000 0.000000 0.000000 0.029897 0.000000 0.000000
# 5 0.000000 0.000000 0.000000 0.000000 0.029897 0.000000
# 6 0.000000 0.000000 0.000000 0.000000 0.000000 0.108507
#
#
# Mechanical properties :
#
#
# Convention : Reuss Voigt Hill
#
# Bulk Modulus (GPa) = 20.01339 21.72628 20.86983
# Shear Modulus (GPa) = 20.77993 26.76749 23.77371
#
# Velocity S-wave (km/s) = 3.27061 3.71202 3.49828
# Velocity P-wave (km/s) = 4.95629 5.43656 5.20197
#
# Compressibility (1/GPa) = 0.04996654
#
# Stress axis : x y z
#
# Youngs Moduli (GPa) = 50.07359 50.07423 77.68616
#
# Poissons Ratio (x) = -0.08186 0.11878
# Poissons Ratio (y) = -0.08186 0.11880
# Poissons Ratio (z) = 0.07656 0.07657
#
# Static dielectric constant tensor:
#      x y z
#    x 1.693380 0.000000 0.000000 
#    y 0.000000 1.693380 0.000000 
#    z 0.000000 0.000000 1.681080 
# 
# From -- ./inp_files/2642.got.cif
#   From: 2010.05.17/outbox.cif.g08.bks.cpg/sg92_2_cif.got.tgz:2642.got - 2010.06.03 19:35:17.
