data_PCOD9549853
_publ_section_title
;
Structure prediction by ZEFSAII (Michael W. Deem and Ramdas Pophale) SiO2 
 PCOD9549853
Probable space group: P 42 2 2
;
_chemical_formula_sum "Si O2"
_cell_formula_units_Z 48
_cell_length_a 14.921253
_cell_length_b 14.921253
_cell_length_c 12.686799
_cell_angle_alpha 90.000000
_cell_angle_beta 90.000000
_cell_angle_gamma 90.000000
_cell_volume 2824.637026
_symmetry_space_group_name_H-M "P 42 2 2"
_symmetry_group_IT_number 93
_symmetry_cell_setting 'tetragonal'
loop_
_space_group_symop_operation_xyz
x,y,z
-y,x,1/2+z
-x,-y,z
y,-x,1/2+z
x,-y,-z
-x,y,-z
y,x,1/2-z
-y,-x,1/2-z
loop_
_atom_site_type_symbol
_atom_site_label
_atom_site_fract_x
_atom_site_fract_y
_atom_site_fract_z
Si Si1 0.780537 0.749068 0.929134
Si Si2 0.201001 0.011280 0.207843
Si Si3 0.481992 0.107813 0.122100
Si Si4 0.888824 0.067235 0.410262
Si Si5 0.143843 0.658351 0.260661
Si Si6 0.802050 0.287929 0.653833
O O1 0.871665 0.805040 0.942861
O O2 0.716369 0.800642 0.846370
O O3 0.814268 0.666660 0.856405
O O4 0.734016 0.751848 0.043251
O O5 0.141608 0.993621 0.311447
O O6 0.140207 0.962662 0.120825
O O7 0.291982 0.953323 0.230368
O O8 0.224749 0.110734 0.172791
O O9 0.557926 0.144518 0.199218
O O10 0.386167 0.151561 0.150082
O O11 0.500000 0.000000 0.127947
O O12 0.500000 0.131498 0.000000
O O13 0.911554 0.000000 0.500000
O O14 0.734962 0.265039 0.750000
#
# Coordination Sequence:
#
# PCOD9549853 Si02
#       6
#     8   8   8   8   8   8
#     4   9  19  33  54  78 113 151 189 233 300 351
#     4   9  19  33  49  74 110 150 197 245 281 328
#     4  11  21  35  63  92 115 147 202 260 302 343
#     4   9  17  32  50  68 102 157 205 235 268 330
#     4   9  17  36  57  81 111 150 194 239 295 357
#     4  12  23  36  54  85 121 148 191 254 305 357
#
# _framework density 16.993333
#
# number of rings (size 3 to 8) (size 9 to 14) (size 15 to 20)
#    0.000    2.167    3.333    3.000    0.000    2.667 
#    0.000   10.833    0.000    3.000    0.000    2.333 
#    0.000    0.000    0.000    0.000    0.000    0.000 
#
# Total GULP energy -267310.121075 kJ/mol
# GULP energy per Si atom -5568.960856 kJ/mol
# Density = 1.695466 g / cm^3
# Si number density = 16.993333 Si / 1000 Ang^3
#
#
#
# Elastic Constant Matrix: (Units=GPa)
#
#
# Indices 1 2 3 4 5 6 
#
# 1 89.3298 36.5991 51.8444 0.0000 0.0000 0.0000
# 2 36.5991 89.3293 51.8439 0.0000 0.0000 0.0000
# 3 51.8444 51.8439 123.9014 0.0000 0.0000 0.0000
# 4 0.0000 0.0000 0.0000 11.8962 0.0000 0.0000
# 5 0.0000 0.0000 0.0000 0.0000 11.8958 0.0000
# 6 0.0000 0.0000 0.0000 0.0000 0.0000 12.4273
#
#
#
# Elastic Compliance Matrix: (Units=1/GPa)
#
#
# Indices 1 2 3 4 5 6 
#
# 1 0.015540 -0.003425 -0.005069 0.000000 0.000000 0.000000
# 2 -0.003425 0.015540 -0.005069 0.000000 0.000000 0.000000
# 3 -0.005069 -0.005069 0.012313 0.000000 0.000000 0.000000
# 4 0.000000 0.000000 0.000000 0.084060 0.000000 0.000000
# 5 0.000000 0.000000 0.000000 0.000000 0.084064 0.000000
# 6 0.000000 0.000000 0.000000 0.000000 0.000000 0.080468
#
#
# Mechanical properties :
#
#
# Convention : Reuss Voigt Hill
#
# Bulk Modulus (GPa) = 61.47763 64.79280 63.13521
# Shear Modulus (GPa) = 15.40675 18.06206 16.73441
#
# Velocity S-wave (km/s) = 3.01430 3.26374 3.14150
# Velocity P-wave (km/s) = 6.95491 7.23974 7.09875
#
# Compressibility (1/GPa) = 0.01626608
#
# Stress axis : x y z
#
# Youngs Moduli (GPa) = 64.35134 64.35138 81.21349
#
# Poissons Ratio (x) = 0.22038 0.41170
# Poissons Ratio (y) = 0.22038 0.41169
# Poissons Ratio (z) = 0.32622 0.32621
#
# Static dielectric constant tensor:
#      x y z
#    x 1.594770 0.000000 0.000000 
#    y 0.000000 1.594770 0.000000 
#    z 0.000000 0.000000 1.609150 
# 
# From -- ./inp_files/3419.got.cif
#   From: 2010.05.17/outbox.cif.g08.bks.cpg/sg93_2_cif.got.tgz:3419.got - 2010.06.03 19:38:44.
