data_PCOD9549241
_publ_section_title
;
Structure prediction by ZEFSAII (Michael W. Deem and Ramdas Pophale) SiO2 
 PCOD9549241
Probable space group: P 41 21 2
;
_chemical_formula_sum "Si O2"
_cell_formula_units_Z 44
_cell_length_a 8.628257
_cell_length_b 8.628257
_cell_length_c 27.818979
_cell_angle_alpha 90.000000
_cell_angle_beta 90.000000
_cell_angle_gamma 90.000000
_cell_volume 2071.034490
_symmetry_space_group_name_H-M "P 41 21 2"
_symmetry_group_IT_number 92
_symmetry_cell_setting 'tetragonal'
loop_
_space_group_symop_operation_xyz
x,y,z
1/2-y,1/2+x,1/4+z
-x,-y,1/2+z
1/2+y,1/2-x,3/4+z
1/2+x,1/2-y,3/4-z
1/2-x,1/2+y,1/4-z
y,x,-z
-y,-x,1/2-z
loop_
_atom_site_type_symbol
_atom_site_label
_atom_site_fract_x
_atom_site_fract_y
_atom_site_fract_z
Si Si1 0.167648 0.097492 0.409810
Si Si2 0.973985 0.548130 0.740595
Si Si3 0.698697 0.485081 0.666367
Si Si4 0.792779 0.207222 0.250000
Si Si5 0.910627 0.630044 0.591450
Si Si6 0.644698 0.041474 0.095448
O O1 0.237488 0.196755 0.453359
O O2 0.298302 0.094267 0.369079
O O3 0.009139 0.181578 0.393390
O O4 0.111496 0.932083 0.426586
O O5 0.827199 0.512005 0.707165
O O6 0.940438 0.476853 0.792336
O O7 0.032200 0.727607 0.743491
O O8 0.110952 0.461150 0.711211
O O9 0.770795 0.531260 0.614620
O O10 0.638954 0.308248 0.665362
O O11 0.045787 0.598357 0.630487
#
# Coordination Sequence:
#
# PCOD9549241 Si02
#       6
#     8   8   8   4   8   8
#     4  11  22  42  66  97 131 178 226 279 346 407
#     4  10  22  41  66  96 131 176 229 277 342 411
#     4  11  24  39  69  98 137 180 225 289 349 403
#     4  10  22  40  68  88 136 176 224 286 328 414
#     4  11  22  42  64  96 139 176 228 286 339 418
#     4  10  22  42  67  94 135 176 227 282 341 415
#
# _framework density 21.245422999999999
#
# number of rings (size 3 to 8) (size 9 to 14) (size 15 to 20)
#    0.000    1.455    1.818    3.818    2.545    0.000 
#    0.000    0.000    4.000    0.000    0.000    0.000 
#    0.000    0.000    0.000    0.000    0.000    0.000 
#
# Total GULP energy -245484.610416 kJ/mol
# GULP energy per Si atom -5579.195691 kJ/mol
# Density = 2.119707 g / cm^3
# Si number density = 21.245423 Si / 1000 Ang^3
#
#
#
# Elastic Constant Matrix: (Units=GPa)
#
#
# Indices 1 2 3 4 5 6 
#
# 1 76.2151 36.7165 21.8847 0.0000 0.0000 0.0000
# 2 36.7165 76.2151 21.8846 0.0000 0.0000 0.0000
# 3 21.8847 21.8846 100.3130 0.0000 0.0000 0.0000
# 4 0.0000 0.0000 0.0000 11.5274 0.0000 0.0000
# 5 0.0000 0.0000 0.0000 0.0000 11.5276 0.0000
# 6 0.0000 0.0000 0.0000 0.0000 0.0000 35.8369
#
#
#
# Elastic Compliance Matrix: (Units=1/GPa)
#
#
# Indices 1 2 3 4 5 6 
#
# 1 0.017495 -0.007822 -0.002110 0.000000 0.000000 0.000000
# 2 -0.007822 0.017495 -0.002110 0.000000 0.000000 0.000000
# 3 -0.002110 -0.002110 0.010890 0.000000 0.000000 0.000000
# 4 0.000000 0.000000 0.000000 0.086750 0.000000 0.000000
# 5 0.000000 0.000000 0.000000 0.000000 0.086748 0.000000
# 6 0.000000 0.000000 0.000000 0.000000 0.000000 0.027904
#
#
# Mechanical properties :
#
#
# Convention : Reuss Voigt Hill
#
# Bulk Modulus (GPa) = 45.88389 45.96831 45.92610
# Shear Modulus (GPa) = 17.94479 23.26220 20.60349
#
# Velocity S-wave (km/s) = 2.90943 3.31256 3.11752
# Velocity P-wave (km/s) = 5.73849 6.02615 5.88408
#
# Compressibility (1/GPa) = 0.02179414
#
# Stress axis : x y z
#
# Youngs Moduli (GPa) = 57.15891 57.15893 91.83110
#
# Poissons Ratio (x) = 0.44711 0.19379
# Poissons Ratio (y) = 0.44711 0.19379
# Poissons Ratio (z) = 0.12062 0.12062
#
# Static dielectric constant tensor:
#      x y z
#    x 1.814670 0.000000 0.000000 
#    y 0.000000 1.814670 0.000000 
#    z 0.000000 0.000000 1.760630 
# 
# From -- ./inp_files/4405.got.cif
#   From: 2010.05.17/outbox.cif.g08.bks.cpg/sg92_3_cif.got.tgz:4405.got - 2010.06.03 19:35:17.
