data_PCOD9549488
_publ_section_title
;
Structure prediction by ZEFSAII (Michael W. Deem and Ramdas Pophale) SiO2 
 PCOD9549488
Probable space group: P 41 21 2
;
_chemical_formula_sum "Si O2"
_cell_formula_units_Z 32
_cell_length_a 6.961408
_cell_length_b 6.961408
_cell_length_c 27.089514
_cell_angle_alpha 90.000000
_cell_angle_beta 90.000000
_cell_angle_gamma 90.000000
_cell_volume 1312.790392
_symmetry_space_group_name_H-M "P 41 21 2"
_symmetry_group_IT_number 92
_symmetry_cell_setting 'tetragonal'
loop_
_space_group_symop_operation_xyz
x,y,z
1/2-y,1/2+x,1/4+z
-x,-y,1/2+z
1/2+y,1/2-x,3/4+z
1/2+x,1/2-y,3/4-z
1/2-x,1/2+y,1/4-z
y,x,-z
-y,-x,1/2-z
loop_
_atom_site_type_symbol
_atom_site_label
_atom_site_fract_x
_atom_site_fract_y
_atom_site_fract_z
Si Si1 0.840146 0.322881 0.502579
Si Si2 0.945521 0.378306 0.056678
Si Si3 0.414341 0.461947 0.161107
Si Si4 0.895531 0.482096 0.398391
O O1 0.830858 0.003287 0.422239
O O2 0.932477 0.167476 0.539436
O O3 0.928709 0.376319 0.449667
O O4 0.866273 0.520411 0.532890
O O5 0.879148 0.506764 0.102153
O O6 0.781654 0.355038 0.015008
O O7 0.190182 0.505276 0.151707
O O8 0.487130 0.326897 0.116689
#
# Coordination Sequence:
#
# PCOD9549488 Si02
#       4
#     8   8   8   8
#     4  11  25  45  74 111 149 201 258 316 396 467
#     4  11  25  47  76 108 154 202 263 326 392 465
#     4  11  23  46  76 105 151 200 254 322 393 468
#     4  11  24  44  76 115 146 204 259 317 394 467
#
# _framework density 24.375556
#
# number of rings (size 3 to 8) (size 9 to 14) (size 15 to 20)
#    0.000    1.000    5.000    0.750    3.500    0.000 
#    0.000    0.000    5.500    0.000    0.000    0.000 
#    0.000    0.000    0.000    0.000    0.000    0.000 
#
# Total GULP energy -178701.382235 kJ/mol
# GULP energy per Si atom -5584.418195 kJ/mol
# Density = 2.432008 g / cm^3
# Si number density = 24.375556 Si / 1000 Ang^3
#
#
#
# Elastic Constant Matrix: (Units=GPa)
#
#
# Indices 1 2 3 4 5 6 
#
# 1 120.3252 31.2936 32.6693 0.0000 0.0000 0.0000
# 2 31.2936 120.3252 32.6693 0.0000 0.0000 0.0000
# 3 32.6693 32.6693 135.1298 0.0000 0.0000 0.0000
# 4 0.0000 0.0000 0.0000 28.1566 0.0000 0.0000
# 5 0.0000 0.0000 0.0000 0.0000 28.1566 0.0000
# 6 0.0000 0.0000 0.0000 0.0000 0.0000 1.4881
#
#
#
# Elastic Compliance Matrix: (Units=1/GPa)
#
#
# Indices 1 2 3 4 5 6 
#
# 1 0.009297 -0.001935 -0.001780 0.000000 0.000000 0.000000
# 2 -0.001935 0.009297 -0.001780 0.000000 0.000000 0.000000
# 3 -0.001780 -0.001780 0.008261 0.000000 0.000000 0.000000
# 4 0.000000 0.000000 0.000000 0.035516 0.000000 0.000000
# 5 0.000000 0.000000 0.000000 0.000000 0.035516 0.000000
# 6 0.000000 0.000000 0.000000 0.000000 0.000000 0.671998
#
#
# Mechanical properties :
#
#
# Convention : Reuss Voigt Hill
#
# Bulk Modulus (GPa) = 63.02741 63.22719 63.12730
# Shear Modulus (GPa) = 6.36001 30.17011 18.26506
#
# Velocity S-wave (km/s) = 1.61705 3.52194 2.74034
# Velocity P-wave (km/s) = 5.42212 6.52180 5.99722
#
# Compressibility (1/GPa) = 0.01586611
#
# Stress axis : x y z
#
# Youngs Moduli (GPa) = 107.55857 107.55857 121.05125
#
# Poissons Ratio (x) = 0.20809 0.21547
# Poissons Ratio (y) = 0.20809 0.21547
# Poissons Ratio (z) = 0.19145 0.19145
#
# Static dielectric constant tensor:
#      x y z
#    x 1.984330 0.000000 0.000000 
#    y 0.000000 1.984330 0.000000 
#    z 0.000000 0.000000 1.940710 
# 
# From -- ./inp_files/3697.got.cif
#   From: 2010.05.17/outbox.cif.g08.bks.cpg/sg92_2_cif.got.tgz:3697.got - 2010.06.03 19:35:17.
