data_PCOD9549218
_publ_section_title
;
Structure prediction by ZEFSAII (Michael W. Deem and Ramdas Pophale) SiO2 
 PCOD9549218
Probable space group: P 41 21 2
;
_chemical_formula_sum "Si O2"
_cell_formula_units_Z 20
_cell_length_a 10.428873
_cell_length_b 10.428873
_cell_length_c 9.363430
_cell_angle_alpha 90.000000
_cell_angle_beta 90.000000
_cell_angle_gamma 90.000000
_cell_volume 1018.379681
_symmetry_space_group_name_H-M "P 41 21 2"
_symmetry_group_IT_number 92
_symmetry_cell_setting 'tetragonal'
loop_
_space_group_symop_operation_xyz
x,y,z
1/2-y,1/2+x,1/4+z
-x,-y,1/2+z
1/2+y,1/2-x,3/4+z
1/2+x,1/2-y,3/4-z
1/2-x,1/2+y,1/4-z
y,x,-z
-y,-x,1/2-z
loop_
_atom_site_type_symbol
_atom_site_label
_atom_site_fract_x
_atom_site_fract_y
_atom_site_fract_z
Si Si1 0.305986 0.448137 0.700598
Si Si2 0.904510 0.904510 0.500000
Si Si3 0.792576 0.868368 0.799844
O O1 0.450960 0.396576 0.688589
O O2 0.297878 0.578906 0.608664
O O3 0.290632 0.498288 0.863449
O O4 0.208746 0.335960 0.665620
O O5 0.809339 0.885878 0.631381
#
# Coordination Sequence:
#
# PCOD9549218 Si02
#       3
#     8   4   8
#     4  10  22  43  64  94 127 177 206 271 318 385
#     4  10  22  38  70  84 134 170 212 250 340 384
#     4  10  23  40  68  91 133 163 223 254 332 378
#
# _framework density 19.639039
#
# number of rings (size 3 to 8) (size 9 to 14) (size 15 to 20)
#    0.000    2.400    0.000    4.800   16.800    0.000 
#    7.200    0.000    0.000    0.000    0.000    0.000 
#    0.000    0.000    0.000    0.000    0.000    0.000 
#
# Total GULP energy -111614.112391 kJ/mol
# GULP energy per Si atom -5580.705620 kJ/mol
# Density = 1.959434 g / cm^3
# Si number density = 19.639039 Si / 1000 Ang^3
#
#
#
# Elastic Constant Matrix: (Units=GPa)
#
#
# Indices 1 2 3 4 5 6 
#
# 1 69.3477 60.9386 11.2185 0.0000 0.0000 0.0000
# 2 60.9386 69.3477 11.2185 0.0000 0.0000 0.0000
# 3 11.2185 11.2185 88.4837 0.0000 0.0000 0.0000
# 4 0.0000 0.0000 0.0000 12.7521 0.0000 0.0000
# 5 0.0000 0.0000 0.0000 0.0000 12.7521 0.0000
# 6 0.0000 0.0000 0.0000 0.0000 0.0000 31.1097
#
#
#
# Elastic Compliance Matrix: (Units=1/GPa)
#
#
# Indices 1 2 3 4 5 6 
#
# 1 0.063383 -0.055536 -0.000995 0.000000 0.000000 0.000000
# 2 -0.055536 0.063383 -0.000995 0.000000 0.000000 0.000000
# 3 -0.000995 -0.000995 0.011554 0.000000 0.000000 0.000000
# 4 0.000000 0.000000 0.000000 0.078419 0.000000 0.000000
# 5 0.000000 0.000000 0.000000 0.000000 0.078419 0.000000
# 6 0.000000 0.000000 0.000000 0.000000 0.000000 0.032144
#
#
# Mechanical properties :
#
#
# Convention : Reuss Voigt Hill
#
# Bulk Modulus (GPa) = 42.97781 43.77003 43.37392
# Shear Modulus (GPa) = 11.10846 20.90968 16.00907
#
# Velocity S-wave (km/s) = 2.38088 3.26651 2.85821
# Velocity P-wave (km/s) = 5.43042 6.04669 5.74682
#
# Compressibility (1/GPa) = 0.02326782
#
# Stress axis : x y z
#
# Youngs Moduli (GPa) = 15.77720 15.77720 86.55176
#
# Poissons Ratio (x) = 0.87620 0.08611
# Poissons Ratio (y) = 0.87620 0.08611
# Poissons Ratio (z) = 0.01570 0.01570
#
# Static dielectric constant tensor:
#      x y z
#    x 1.663390 0.000000 0.000000 
#    y 0.000000 1.663390 0.000000 
#    z 0.000000 0.000000 1.750170 
# 
# From -- ./inp_files/944.got.cif
#   From: 2010.05.17/outbox.cif.g08.bks.cpg/sg92_1_cif.got.tgz:944.got - 2010.06.03 19:35:17.
