data_PCOD9549912
_publ_section_title
;
Structure prediction by ZEFSAII (Michael W. Deem and Ramdas Pophale) SiO2 
 PCOD9549912
Probable space group: P 42 21 2
;
_chemical_formula_sum "Si O2"
_cell_formula_units_Z 34
_cell_length_a 14.629953
_cell_length_b 14.629953
_cell_length_c 8.760811
_cell_angle_alpha 90.000000
_cell_angle_beta 90.000000
_cell_angle_gamma 90.000000
_cell_volume 1875.124780
_symmetry_space_group_name_H-M "P 42 21 2"
_symmetry_group_IT_number 94
_symmetry_cell_setting 'tetragonal'
loop_
_space_group_symop_operation_xyz
x,y,z
1/2-y,1/2+x,1/2+z
-x,-y,z
1/2+y,1/2-x,1/2+z
1/2+x,1/2-y,1/2-z
1/2-x,1/2+y,1/2-z
y,x,-z
-y,-x,-z
loop_
_atom_site_type_symbol
_atom_site_label
_atom_site_fract_x
_atom_site_fract_y
_atom_site_fract_z
Si Si1 0.175931 0.972224 0.530585
Si Si2 0.092912 0.625613 0.452776
Si Si3 0.701934 0.298067 0.500000
Si Si4 0.500000 0.000000 0.795440
Si Si5 0.500000 0.500000 0.500000
Si Si6 0.888848 0.919374 0.246741
O O1 0.123329 0.876672 0.500000
O O2 0.281410 0.964099 0.569676
O O3 0.169343 0.032229 0.376800
O O4 0.118497 0.023071 0.662439
O O5 0.194261 0.666736 0.478791
O O6 0.067791 0.560856 0.309627
O O7 0.061895 0.564880 0.597387
O O8 0.662992 0.344872 0.653639
O O9 0.508593 0.415360 0.614347
#
# Coordination Sequence:
#
# PCOD9549912 Si02
#       6
#     8   8   4   4   2   8
#     4  11  19  36  59  83 115 153 190 234 288 359
#     4  11  22  41  61  85 115 154 204 243 290 348
#     4  11  22  35  58  89 116 145 194 252 278 339
#     4  10  24  42  64  82 116 166 196 238 304 362
#     4  10  16  30  48  76 116 144 176 214 284 362
#     4  10  20  33  55  84 115 149 183 231 301 344
#
# _framework density 18.132126
#
# number of rings (size 3 to 8) (size 9 to 14) (size 15 to 20)
#    0.000    1.412    3.529    3.529    0.000    0.000 
#    0.000    0.000    0.000    5.647    0.000    0.000 
#    0.000    0.000    0.000    0.000    0.000    0.000 
#
# Total GULP energy -189320.685897 kJ/mol
# GULP energy per Si atom -5568.255468 kJ/mol
# Density = 1.809086 g / cm^3
# Si number density = 18.132126 Si / 1000 Ang^3
#
#
#
# Elastic Constant Matrix: (Units=GPa)
#
#
# Indices 1 2 3 4 5 6 
#
# 1 89.6220 23.9956 36.0850 0.0000 0.0000 0.0000
# 2 23.9956 89.6231 36.0853 0.0000 0.0000 0.0000
# 3 36.0850 36.0853 109.8423 0.0000 0.0000 0.0000
# 4 0.0000 0.0000 0.0000 17.5888 0.0000 0.0000
# 5 0.0000 0.0000 0.0000 0.0000 17.5877 0.0000
# 6 0.0000 0.0000 0.0000 0.0000 0.0000 27.1782
#
#
#
# Elastic Compliance Matrix: (Units=1/GPa)
#
#
# Indices 1 2 3 4 5 6 
#
# 1 0.013180 -0.002058 -0.003654 0.000000 0.000000 0.000000
# 2 -0.002058 0.013180 -0.003654 0.000000 0.000000 0.000000
# 3 -0.003654 -0.003654 0.011505 0.000000 0.000000 0.000000
# 4 0.000000 0.000000 0.000000 0.056854 0.000000 0.000000
# 5 0.000000 0.000000 0.000000 0.000000 0.056858 0.000000
# 6 0.000000 0.000000 0.000000 0.000000 0.000000 0.036794
#
#
# Mechanical properties :
#
#
# Convention : Reuss Voigt Hill
#
# Bulk Modulus (GPa) = 52.26338 53.49102 52.87720
# Shear Modulus (GPa) = 23.42141 25.33238 24.37689
#
# Velocity S-wave (km/s) = 3.59793 3.74183 3.67059
# Velocity P-wave (km/s) = 6.79311 6.94501 6.86948
#
# Compressibility (1/GPa) = 0.01913385
#
# Stress axis : x y z
#
# Youngs Moduli (GPa) = 75.87208 75.87296 86.92103
#
# Poissons Ratio (x) = 0.15612 0.31760
# Poissons Ratio (y) = 0.15612 0.31760
# Poissons Ratio (z) = 0.27723 0.27723
#
# Static dielectric constant tensor:
#      x y z
#    x 1.640460 0.000000 0.000000 
#    y 0.000000 1.640460 0.000000 
#    z 0.000000 0.000000 1.602470 
# 
# From -- ./inp_files/1284.got.cif
#   From: 2010.05.17/outbox.cif.g08.bks.cpg/sg94_1_cif.got.tgz:1284.got - 2010.06.03 19:43:16.
