data_PCOD9549484
_publ_section_title
;
Structure prediction by ZEFSAII (Michael W. Deem and Ramdas Pophale) SiO2 
 PCOD9549484
Probable space group: P 41 21 2
;
_chemical_formula_sum "Si O2"
_cell_formula_units_Z 36
_cell_length_a 8.673745
_cell_length_b 8.673745
_cell_length_c 17.909354
_cell_angle_alpha 90.000000
_cell_angle_beta 90.000000
_cell_angle_gamma 90.000000
_cell_volume 1347.389694
_symmetry_space_group_name_H-M "P 41 21 2"
_symmetry_group_IT_number 92
_symmetry_cell_setting 'tetragonal'
loop_
_space_group_symop_operation_xyz
x,y,z
1/2-y,1/2+x,1/4+z
-x,-y,1/2+z
1/2+y,1/2-x,3/4+z
1/2+x,1/2-y,3/4-z
1/2-x,1/2+y,1/4-z
y,x,-z
-y,-x,1/2-z
loop_
_atom_site_type_symbol
_atom_site_label
_atom_site_fract_x
_atom_site_fract_y
_atom_site_fract_z
Si Si1 0.630019 0.630019 0.500000
Si Si2 0.848385 0.162476 0.985437
Si Si3 0.581339 0.960902 0.680367
Si Si4 0.464489 0.476626 0.374257
Si Si5 0.495258 0.850767 0.036748
O O1 0.585579 0.798923 0.467686
O O2 0.597086 0.500478 0.435785
O O3 0.699833 0.171438 0.931797
O O4 0.858501 0.337474 0.011121
O O5 0.847449 0.059484 0.060609
O O6 0.991761 0.117203 0.932126
O O7 0.530214 0.027098 0.602398
O O8 0.429631 0.899235 0.725298
O O9 0.310374 0.474290 0.424035
#
# Coordination Sequence:
#
# PCOD9549484 Si02
#       5
#     4   8   8   8   8
#     4  12  24  42  68 106 138 194 228 298 356 434
#     4  11  23  46  67 105 138 191 233 294 357 430
#     4  12  27  41  76 103 145 184 247 294 361 436
#     4  11  25  42  74  96 147 184 236 291 359 433
#     4  12  23  44  70 106 135 188 237 296 354 433
#
# _framework density 26.718329000000001
#
# number of rings (size 3 to 8) (size 9 to 14) (size 15 to 20)
#    0.000    0.444    6.667    1.333    3.111    3.556 
#    0.000    2.222    0.000    0.000    0.000    0.000 
#    0.000    0.000    0.000    0.000    0.000    0.000 
#
# Total GULP energy -200652.621359 kJ/mol
# GULP energy per Si atom -5573.683927 kJ/mol
# Density = 2.665752 g / cm^3
# Si number density = 26.718329 Si / 1000 Ang^3
#
#
#
# Elastic Constant Matrix: (Units=GPa)
#
#
# Indices 1 2 3 4 5 6 
#
# 1 44.8361 -12.9896 -5.5453 0.0000 0.0000 0.0000
# 2 -12.9896 44.8361 -5.5453 0.0000 0.0000 0.0000
# 3 -5.5453 -5.5453 97.0734 0.0000 0.0000 0.0000
# 4 0.0000 0.0000 0.0000 39.4405 0.0000 0.0000
# 5 0.0000 0.0000 0.0000 0.0000 39.4405 0.0000
# 6 0.0000 0.0000 0.0000 0.0000 0.0000 16.2956
#
#
#
# Elastic Compliance Matrix: (Units=1/GPa)
#
#
# Indices 1 2 3 4 5 6 
#
# 1 0.024666 0.007372 0.001830 0.000000 0.000000 0.000000
# 2 0.007372 0.024666 0.001830 0.000000 0.000000 0.000000
# 3 0.001830 0.001830 0.010511 0.000000 0.000000 0.000000
# 4 0.000000 0.000000 0.000000 0.025355 0.000000 0.000000
# 5 0.000000 0.000000 0.000000 0.000000 0.025355 0.000000
# 6 0.000000 0.000000 0.000000 0.000000 0.000000 0.061366
#
#
# Mechanical properties :
#
#
# Convention : Reuss Voigt Hill
#
# Bulk Modulus (GPa) = 12.20894 15.39835 13.80365
# Shear Modulus (GPa) = 28.22394 33.09040 30.65717
#
# Velocity S-wave (km/s) = 3.25368 3.52304 3.39104
# Velocity P-wave (km/s) = 4.32373 4.72491 4.52877
#
# Compressibility (1/GPa) = 0.08190720
#
# Stress axis : x y z
#
# Youngs Moduli (GPa) = 40.54221 40.54221 95.14224
#
# Poissons Ratio (x) = -0.29889 -0.17413
# Poissons Ratio (y) = -0.29889 -0.17413
# Poissons Ratio (z) = -0.07420 -0.07420
#
# Static dielectric constant tensor:
#      x y z
#    x 2.101290 0.000000 0.000000 
#    y 0.000000 2.101290 0.000000 
#    z 0.000000 0.000000 2.105070 
# 
# From -- ./inp_files/3464.got.cif
#   From: 2010.05.17/outbox.cif.g08.bks.cpg/sg92_2_cif.got.tgz:3464.got - 2010.06.03 19:35:17.
