data_PCOD9549788
_publ_section_title
;
Structure prediction by ZEFSAII (Michael W. Deem and Ramdas Pophale) SiO2 
 PCOD9549788
Probable space group: P 42 2 2
;
_chemical_formula_sum "Si O2"
_cell_formula_units_Z 34
_cell_length_a 11.179392
_cell_length_b 11.179392
_cell_length_c 11.747637
_cell_angle_alpha 90.000000
_cell_angle_beta 90.000000
_cell_angle_gamma 90.000000
_cell_volume 1468.205640
_symmetry_space_group_name_H-M "P 42 2 2"
_symmetry_group_IT_number 93
_symmetry_cell_setting 'tetragonal'
loop_
_space_group_symop_operation_xyz
x,y,z
-y,x,1/2+z
-x,-y,z
y,-x,1/2+z
x,-y,-z
-x,y,-z
y,x,1/2-z
-y,-x,1/2-z
loop_
_atom_site_type_symbol
_atom_site_label
_atom_site_fract_x
_atom_site_fract_y
_atom_site_fract_z
Si Si1 0.307729 0.945252 0.789362
Si Si2 0.166765 0.122032 0.437974
Si Si3 0.189364 0.454441 0.729783
Si Si4 0.500000 0.500000 0.500000
Si Si5 0.653254 0.696256 0.557758
O O1 0.206267 0.935724 0.885124
O O2 0.244382 0.921070 0.670016
O O3 0.410623 0.844938 0.802415
O O4 0.374823 0.070643 0.787188
O O5 0.252201 0.209160 0.510722
O O6 0.131801 0.000000 0.500000
O O7 0.285216 0.394641 0.646992
O O8 0.229771 0.438353 0.861013
O O9 0.595579 0.604907 0.465702
#
# Coordination Sequence:
#
# PCOD9549788 Si02
#       5
#     8   8   8   2   8
#     4  10  22  41  68  99 134 184 233 286 349 414
#     4  11  22  42  70 102 138 184 237 291 347 429
#     4  10  22  41  64  95 138 181 228 287 349 425
#     4  12  24  38  62 102 128 182 220 292 348 426
#     4  11  23  40  64  96 139 176 231 283 359 413
#
# _framework density 23.157519000000001
#
# number of rings (size 3 to 8) (size 9 to 14) (size 15 to 20)
#    0.000    1.412    2.353    2.824    0.000    4.706 
#    0.000    4.706    0.000    0.000    0.000    0.000 
#    0.000    0.000    0.000    0.000    0.000    0.000 
#
# Total GULP energy -189627.671423 kJ/mol
# GULP energy per Si atom -5577.284454 kJ/mol
# Density = 2.310481 g / cm^3
# Si number density = 23.157519 Si / 1000 Ang^3
#
#
#
# Elastic Constant Matrix: (Units=GPa)
#
#
# Indices 1 2 3 4 5 6 
#
# 1 128.0684 53.2335 41.0815 0.0000 0.0000 0.0000
# 2 53.2335 128.0684 41.0815 0.0000 0.0000 0.0000
# 3 41.0815 41.0815 82.1518 0.0000 0.0000 0.0000
# 4 0.0000 0.0000 0.0000 -6.6486 0.0000 0.0000
# 5 0.0000 0.0000 0.0000 0.0000 -6.6486 0.0000
# 6 0.0000 0.0000 0.0000 0.0000 0.0000 29.5575
#
#
#
# Elastic Compliance Matrix: (Units=1/GPa)
#
#
# Indices 1 2 3 4 5 6 
#
# 1 0.010247 -0.003115 -0.003566 0.000000 0.000000 0.000000
# 2 -0.003115 0.010247 -0.003566 0.000000 0.000000 0.000000
# 3 -0.003566 -0.003566 0.015740 0.000000 0.000000 0.000000
# 4 0.000000 0.000000 0.000000 -0.150408 0.000000 0.000000
# 5 0.000000 0.000000 0.000000 0.000000 -0.150408 0.000000
# 6 0.000000 0.000000 0.000000 0.000000 0.000000 0.033832
#
#
# Mechanical properties :
#
#
# Convention : Reuss Voigt Hill
#
# Bulk Modulus (GPa) = 63.54221 67.67574 65.60897
# Shear Modulus (GPa) = -24.38942 16.77820 -3.80561
#
# Velocity S-wave (km/s) = -3.24882 2.69462 -1.28333
# Velocity P-wave (km/s) = 3.66409 6.24250 5.11832
#
# Compressibility (1/GPa) = 0.01573757
#
# Stress axis : x y z
#
# Youngs Moduli (GPa) = 97.58630 97.58630 63.53432
#
# Poissons Ratio (x) = 0.30402 0.22659
# Poissons Ratio (y) = 0.30402 0.22659
# Poissons Ratio (z) = 0.34804 0.34804
#
# Static dielectric constant tensor:
#      x y z
#    x 1.906520 0.000000 0.000000 
#    y 0.000000 1.906520 0.000000 
#    z 0.000000 0.000000 1.865560 
# 
# From -- ./inp_files/3041.got.cif
#   From: 2010.05.17/outbox.cif.g08.bks.cpg/sg93_2_cif.got.tgz:3041.got - 2010.06.03 19:38:44.
