data_PCOD9549737
_publ_section_title
;
Structure prediction by ZEFSAII (Michael W. Deem and Ramdas Pophale) SiO2 
 PCOD9549737
Probable space group: P 42 2 2
;
_chemical_formula_sum "Si O2"
_cell_formula_units_Z 56
_cell_length_a 11.486189
_cell_length_b 11.486189
_cell_length_c 22.764828
_cell_angle_alpha 90.000000
_cell_angle_beta 90.000000
_cell_angle_gamma 90.000000
_cell_volume 3003.421529
_symmetry_space_group_name_H-M "P 42 2 2"
_symmetry_group_IT_number 93
_symmetry_cell_setting 'tetragonal'
loop_
_space_group_symop_operation_xyz
x,y,z
-y,x,1/2+z
-x,-y,z
y,-x,1/2+z
x,-y,-z
-x,y,-z
y,x,1/2-z
-y,-x,1/2-z
loop_
_atom_site_type_symbol
_atom_site_label
_atom_site_fract_x
_atom_site_fract_y
_atom_site_fract_z
Si Si1 0.365827 0.494122 0.376515
Si Si2 0.218773 0.623695 0.464624
Si Si3 0.833716 0.693480 0.200059
Si Si4 0.246438 0.277758 0.419638
Si Si5 0.732679 0.078519 0.242992
Si Si6 0.464604 0.727340 0.246095
Si Si7 0.996555 0.365675 0.378123
O O1 0.500000 0.500000 0.360801
O O2 0.321112 0.599027 0.417582
O O3 0.344861 0.375422 0.410927
O O4 0.281791 0.487585 0.320117
O O5 0.206512 0.500000 0.500000
O O6 0.241025 0.729632 0.509670
O O7 0.101446 0.641977 0.427987
O O8 0.776383 0.776383 0.250000
O O9 0.813851 0.729187 0.132223
O O10 0.766818 0.570603 0.212467
O O11 0.969946 0.701166 0.215534
O O12 0.120949 0.331364 0.403425
O O13 0.856906 0.143095 0.250000
O O14 0.634376 0.176278 0.252578
O O15 0.715455 0.034862 0.176484
O O16 0.395833 0.604168 0.250000
O O17 0.000000 0.500000 0.357318
#
# Coordination Sequence:
#
# PCOD9549737 Si02
#       7
#     8   8   8   8   8   8   8
#     4  11  20  32  52  84 128 162 190 241 309 388
#     4  10  21  33  54  86 123 160 203 246 315 376
#     4  12  22  38  57  88 125 160 199 251 322 383
#     4  11  22  33  53  84 118 161 197 247 307 367
#     4  11  24  40  61  86 117 163 210 263 319 374
#     4  11  22  37  60  89 122 161 203 254 315 377
#     4  12  18  36  61  88 119 152 204 266 311 371
#
# _framework density 18.645401
#
# number of rings (size 3 to 8) (size 9 to 14) (size 15 to 20)
#    0.000    0.857    7.143    2.571    0.000    2.857 
#    0.000    0.000    0.000    0.857    0.000    2.000 
#    4.286    0.000    0.000    0.000    0.000    0.000 
#
# Total GULP energy -312185.221927 kJ/mol
# GULP energy per Si atom -5574.736106 kJ/mol
# Density = 1.860296 g / cm^3
# Si number density = 18.645401 Si / 1000 Ang^3
#
#
#
# Elastic Constant Matrix: (Units=GPa)
#
#
# Indices 1 2 3 4 5 6 
#
# 1 84.0327 26.7596 23.9884 0.0000 0.0000 0.0000
# 2 26.7596 84.0337 23.9877 0.0000 0.0000 0.0000
# 3 23.9884 23.9877 94.6558 0.0000 0.0000 0.0000
# 4 0.0000 0.0000 0.0000 28.7260 0.0000 0.0000
# 5 0.0000 0.0000 0.0000 0.0000 28.7253 0.0000
# 6 0.0000 0.0000 0.0000 0.0000 0.0000 19.0187
#
#
#
# Elastic Compliance Matrix: (Units=1/GPa)
#
#
# Indices 1 2 3 4 5 6 
#
# 1 0.013799 -0.003661 -0.002569 0.000000 0.000000 0.000000
# 2 -0.003661 0.013799 -0.002569 0.000000 0.000000 0.000000
# 3 -0.002569 -0.002569 0.011867 0.000000 0.000000 0.000000
# 4 0.000000 0.000000 0.000000 0.034812 0.000000 0.000000
# 5 0.000000 0.000000 0.000000 0.000000 0.034812 0.000000
# 6 0.000000 0.000000 0.000000 0.000000 0.000000 0.052580
#
#
# Mechanical properties :
#
#
# Convention : Reuss Voigt Hill
#
# Bulk Modulus (GPa) = 45.73220 45.79930 45.76575
# Shear Modulus (GPa) = 26.80144 27.82643 27.31393
#
# Velocity S-wave (km/s) = 3.79546 3.86735 3.83157
# Velocity P-wave (km/s) = 6.61724 6.67522 6.64629
#
# Compressibility (1/GPa) = 0.02186643
#
# Stress axis : x y z
#
# Youngs Moduli (GPa) = 72.46710 72.46831 84.26840
#
# Poissons Ratio (x) = 0.26529 0.21652
# Poissons Ratio (y) = 0.26529 0.21650
# Poissons Ratio (z) = 0.18620 0.18619
#
# Static dielectric constant tensor:
#      x y z
#    x 1.668750 0.000000 0.000000 
#    y 0.000000 1.668750 0.000000 
#    z 0.000000 0.000000 1.736450 
# 
# From -- ./inp_files/6275.got.cif
#   From: 2010.05.17/outbox.cif.g08.bks.cpg/sg93_4_cif.got.tgz:6275.got - 2010.06.03 19:38:44.
