data_PCOD9549268
_publ_section_title
;
Structure prediction by ZEFSAII (Michael W. Deem and Ramdas Pophale) SiO2 
 PCOD9549268
Probable space group: P 41 21 2
;
_chemical_formula_sum "Si O2"
_cell_formula_units_Z 40
_cell_length_a 7.483548
_cell_length_b 7.483548
_cell_length_c 25.791986
_cell_angle_alpha 90.000000
_cell_angle_beta 90.000000
_cell_angle_gamma 90.000000
_cell_volume 1444.441247
_symmetry_space_group_name_H-M "P 41 21 2"
_symmetry_group_IT_number 92
_symmetry_cell_setting 'tetragonal'
loop_
_space_group_symop_operation_xyz
x,y,z
1/2-y,1/2+x,1/4+z
-x,-y,1/2+z
1/2+y,1/2-x,3/4+z
1/2+x,1/2-y,3/4-z
1/2-x,1/2+y,1/4-z
y,x,-z
-y,-x,1/2-z
loop_
_atom_site_type_symbol
_atom_site_label
_atom_site_fract_x
_atom_site_fract_y
_atom_site_fract_z
Si Si1 0.133409 0.477714 0.463236
Si Si2 0.766914 0.126710 0.075609
Si Si3 0.477588 0.856721 0.675193
Si Si4 0.467324 0.641914 0.307571
Si Si5 0.701705 0.445600 0.523565
O O1 0.075628 0.290988 0.438864
O O2 0.120333 0.435295 0.524384
O O3 0.331463 0.541706 0.452760
O O4 0.999198 0.640733 0.444699
O O5 0.645371 0.151856 0.125641
O O6 0.978721 0.145795 0.085322
O O7 0.679284 0.225937 0.024726
O O8 0.657815 0.980012 0.680463
O O9 0.574697 0.667313 0.681622
O O10 0.409647 0.590354 0.250000
O O11 0.625387 0.625387 0.500000
#
# Coordination Sequence:
#
# PCOD9549268 Si02
#       5
#     8   8   8   8   8
#     4  10  22  42  70  92 135 184 222 282 360 401
#     4  11  24  44  67 102 138 176 242 286 340 429
#     4  10  24  43  65 100 134 180 234 288 348 414
#     4  11  21  44  68  93 137 179 225 283 340 417
#     4  10  23  42  64  96 137 177 225 289 348 415
#
# _framework density 27.692366
#
# number of rings (size 3 to 8) (size 9 to 14) (size 15 to 20)
#    0.000    1.600    6.000    0.000    5.600    6.400 
#    0.000    2.000    0.000    0.000    0.000    0.000 
#    0.000    0.000    0.000    0.000    0.000    0.000 
#
# Total GULP energy -223064.189074 kJ/mol
# GULP energy per Si atom -5576.604727 kJ/mol
# Density = 2.762934 g / cm^3
# Si number density = 27.692366 Si / 1000 Ang^3
#
#
#
# Elastic Constant Matrix: (Units=GPa)
#
#
# Indices 1 2 3 4 5 6 
#
# 1 80.0592 -4.7017 -12.3452 0.0000 0.0000 0.0000
# 2 -4.7017 80.0603 -12.3450 0.0000 0.0000 0.0000
# 3 -12.3452 -12.3450 88.3137 0.0000 0.0000 0.0000
# 4 0.0000 0.0000 0.0000 5.4269 0.0000 0.0000
# 5 0.0000 0.0000 0.0000 0.0000 5.4268 0.0000
# 6 0.0000 0.0000 0.0000 0.0000 0.0000 54.6139
#
#
#
# Elastic Compliance Matrix: (Units=1/GPa)
#
#
# Indices 1 2 3 4 5 6 
#
# 1 0.012852 0.001055 0.001944 0.000000 0.000000 0.000000
# 2 0.001055 0.012852 0.001944 0.000000 0.000000 0.000000
# 3 0.001944 0.001944 0.011867 0.000000 0.000000 0.000000
# 4 0.000000 0.000000 0.000000 0.184268 0.000000 0.000000
# 5 0.000000 0.000000 0.000000 0.000000 0.184271 0.000000
# 6 0.000000 0.000000 0.000000 0.000000 0.000000 0.018310
#
#
# Mechanical properties :
#
#
# Convention : Reuss Voigt Hill
#
# Bulk Modulus (GPa) = 21.07191 21.07219 21.07205
# Shear Modulus (GPa) = 11.61833 31.61518 21.61675
#
# Velocity S-wave (km/s) = 2.05051 3.38251 2.79696
# Velocity P-wave (km/s) = 3.63757 4.78341 4.24929
#
# Compressibility (1/GPa) = 0.04745654
#
# Stress axis : x y z
#
# Youngs Moduli (GPa) = 77.80618 77.80732 84.26904
#
# Poissons Ratio (x) = -0.08205 -0.16382
# Poissons Ratio (y) = -0.08205 -0.16382
# Poissons Ratio (z) = -0.15126 -0.15126
#
# Static dielectric constant tensor:
#      x y z
#    x 2.324940 0.000000 0.000000 
#    y 0.000000 2.324940 0.000000 
#    z 0.000000 0.000000 2.246040 
# 
# From -- ./inp_files/4129.got.cif
#   From: 2010.05.17/outbox.cif.g08.bks.cpg/sg92_3_cif.got.tgz:4129.got - 2010.06.03 19:35:17.
