data_PCOD9549528
_publ_section_title
;
Structure prediction by ZEFSAII (Michael W. Deem and Ramdas Pophale) SiO2 
 PCOD9549528
Probable space group: P 41 21 2
;
_chemical_formula_sum "Si O2"
_cell_formula_units_Z 52
_cell_length_a 16.465406
_cell_length_b 16.465406
_cell_length_c 8.893571
_cell_angle_alpha 90.000000
_cell_angle_beta 90.000000
_cell_angle_gamma 90.000000
_cell_volume 2411.132430
_symmetry_space_group_name_H-M "P 41 21 2"
_symmetry_group_IT_number 92
_symmetry_cell_setting 'tetragonal'
loop_
_space_group_symop_operation_xyz
x,y,z
1/2-y,1/2+x,1/4+z
-x,-y,1/2+z
1/2+y,1/2-x,3/4+z
1/2+x,1/2-y,3/4-z
1/2-x,1/2+y,1/4-z
y,x,-z
-y,-x,1/2-z
loop_
_atom_site_type_symbol
_atom_site_label
_atom_site_fract_x
_atom_site_fract_y
_atom_site_fract_z
Si Si1 0.528174 0.471827 0.250000
Si Si2 0.723491 0.972003 0.822289
Si Si3 0.227452 0.893479 0.836088
Si Si4 0.156944 0.667127 0.130659
Si Si5 0.551325 0.640969 0.390091
Si Si6 0.796340 0.953891 0.138343
Si Si7 0.692907 0.225961 0.538507
O O1 0.524848 0.551208 0.350275
O O2 0.525586 0.388482 0.343553
O O3 0.668733 0.913737 0.719626
O O4 0.689724 0.062428 0.855659
O O5 0.805670 0.986990 0.727919
O O6 0.749387 0.937362 0.982947
O O7 0.168712 0.831288 0.750000
O O8 0.242212 0.969381 0.726197
O O9 0.182862 0.926921 0.984442
O O10 0.300758 0.842865 0.909776
O O11 0.218326 0.732820 0.054903
O O12 0.189212 0.664324 0.302479
O O13 0.629070 0.629070 0.500000
O O14 0.790864 0.873817 0.238577
#
# Coordination Sequence:
#
# PCOD9549528 Si02
#       7
#     4   8   8   8   8   8   8
#     4  12  26  40  64 106 150 190 236 294 366 446
#     4  12  26  49  76 104 142 196 253 310 371 444
#     4  12  24  43  71 104 146 199 239 295 374 441
#     4  11  26  51  75 105 142 197 250 307 374 443
#     4  12  24  43  67 100 147 195 239 288 366 450
#     4  12  27  43  68 112 145 191 250 303 369 443
#     4  11  26  45  74 107 150 191 244 304 375 446
#
# _framework density 21.566631000000001
#
# number of rings (size 3 to 8) (size 9 to 14) (size 15 to 20)
#    0.000    0.308    4.615    3.692    7.538    1.231 
#    0.000    1.538    0.000    0.000    0.000    0.000 
#    0.000    0.000    0.000    0.000    0.000    0.000 
#
# Total GULP energy -290980.007513 kJ/mol
# GULP energy per Si atom -5595.769375 kJ/mol
# Density = 2.151754 g / cm^3
# Si number density = 21.566631 Si / 1000 Ang^3
#
#
#
# Elastic Constant Matrix: (Units=GPa)
#
#
# Indices 1 2 3 4 5 6 
#
# 1 98.1899 51.0398 40.4401 0.0000 0.0000 0.0000
# 2 51.0398 98.1901 40.4398 0.0000 0.0000 0.0000
# 3 40.4401 40.4398 122.7408 0.0000 0.0000 0.0000
# 4 0.0000 0.0000 0.0000 36.5035 0.0000 0.0000
# 5 0.0000 0.0000 0.0000 0.0000 36.5036 0.0000
# 6 0.0000 0.0000 0.0000 0.0000 0.0000 22.8788
#
#
#
# Elastic Compliance Matrix: (Units=1/GPa)
#
#
# Indices 1 2 3 4 5 6 
#
# 1 0.014683 -0.006526 -0.002688 0.000000 0.000000 0.000000
# 2 -0.006526 0.014683 -0.002688 0.000000 0.000000 0.000000
# 3 -0.002688 -0.002688 0.009918 0.000000 0.000000 0.000000
# 4 0.000000 0.000000 0.000000 0.027395 0.000000 0.000000
# 5 0.000000 0.000000 0.000000 0.000000 0.027395 0.000000
# 6 0.000000 0.000000 0.000000 0.000000 0.000000 0.043709
#
#
# Mechanical properties :
#
#
# Convention : Reuss Voigt Hill
#
# Bulk Modulus (GPa) = 64.58770 64.77336 64.68053
# Shear Modulus (GPa) = 29.98575 31.65726 30.82150
#
# Velocity S-wave (km/s) = 3.73282 3.83545 3.78448
# Velocity P-wave (km/s) = 6.97077 7.05078 7.01089
#
# Compressibility (1/GPa) = 0.01548282
#
# Stress axis : x y z
#
# Youngs Moduli (GPa) = 68.10429 68.10468 100.82308
#
# Poissons Ratio (x) = 0.44442 0.27100
# Poissons Ratio (y) = 0.44442 0.27099
# Poissons Ratio (z) = 0.18305 0.18305
#
# Static dielectric constant tensor:
#      x y z
#    x 1.805600 0.000000 0.000000 
#    y 0.000000 1.805600 0.000000 
#    z 0.000000 0.000000 1.826300 
# 
# From -- ./inp_files/1584.got.cif
#   From: 2010.05.17/outbox.cif.g08.bks.cpg/sg92_1_cif.got.tgz:1584.got - 2010.06.03 19:35:17.
