data_PCOD9549247
_publ_section_title
;
Structure prediction by ZEFSAII (Michael W. Deem and Ramdas Pophale) SiO2 
 PCOD9549247
Probable space group: P 41 21 2
;
_chemical_formula_sum "Si O2"
_cell_formula_units_Z 48
_cell_length_a 8.879654
_cell_length_b 8.879654
_cell_length_c 30.711490
_cell_angle_alpha 90.000000
_cell_angle_beta 90.000000
_cell_angle_gamma 90.000000
_cell_volume 2421.547400
_symmetry_space_group_name_H-M "P 41 21 2"
_symmetry_group_IT_number 92
_symmetry_cell_setting 'tetragonal'
loop_
_space_group_symop_operation_xyz
x,y,z
1/2-y,1/2+x,1/4+z
-x,-y,1/2+z
1/2+y,1/2-x,3/4+z
1/2+x,1/2-y,3/4-z
1/2-x,1/2+y,1/4-z
y,x,-z
-y,-x,1/2-z
loop_
_atom_site_type_symbol
_atom_site_label
_atom_site_fract_x
_atom_site_fract_y
_atom_site_fract_z
Si Si1 0.566399 0.420381 0.669098
Si Si2 0.579558 0.076748 0.840070
Si Si3 0.074138 0.074138 0.500000
Si Si4 0.936382 0.063619 0.250000
Si Si5 0.075964 0.098218 0.660161
Si Si6 0.415833 0.926935 0.759361
Si Si7 0.433968 0.094449 0.669339
O O1 0.744123 0.404722 0.662215
O O2 0.527913 0.531077 0.708933
O O3 0.489556 0.484642 0.625559
O O4 0.493303 0.259959 0.680244
O O5 0.739268 0.996307 0.847585
O O6 0.509386 0.015190 0.795310
O O7 0.470540 0.027289 0.879101
O O8 0.249022 0.053528 0.512437
O O9 0.763186 0.047784 0.265519
O O10 0.042818 0.036814 0.291134
O O11 0.257172 0.101933 0.657272
O O12 0.451045 0.987111 0.711130
#
# Coordination Sequence:
#
# PCOD9549247 Si02
#       7
#     8   8   4   4   8   8   8
#     4  12  25  41  62  93 129 163 207 263 319 374
#     4  12  25  40  62  93 127 163 205 259 320 378
#     4  11  22  41  66  92 124 165 212 257 312 380
#     4   9  22  41  64  90 118 157 206 257 304 364
#     4  11  23  41  65  91 122 166 210 254 313 380
#     4  10  22  41  65  91 121 161 209 257 308 372
#     4  11  23  42  65  90 124 165 212 259 312 378
#
# _framework density 19.822037000000002
#
# number of rings (size 3 to 8) (size 9 to 14) (size 15 to 20)
#    0.000    1.000    0.000    7.000    0.000    7.333 
#    0.000    0.000    0.000    0.000    0.000    0.000 
#    0.000    0.000    0.000    0.000    0.000    0.000 
#
# Total GULP energy -268687.335154 kJ/mol
# GULP energy per Si atom -5597.652816 kJ/mol
# Density = 1.977692 g / cm^3
# Si number density = 19.822037 Si / 1000 Ang^3
#
#
#
# Elastic Constant Matrix: (Units=GPa)
#
#
# Indices 1 2 3 4 5 6 
#
# 1 13.8054 51.2172 4.7638 0.0000 0.0000 0.0000
# 2 51.2172 13.8049 4.7605 0.0000 0.0000 0.0000
# 3 4.7638 4.7605 39.7240 0.0000 0.0000 0.0000
# 4 0.0000 0.0000 0.0000 25.6610 0.0000 0.0000
# 5 0.0000 0.0000 0.0000 0.0000 25.6610 0.0000
# 6 0.0000 0.0000 0.0000 0.0000 0.0000 27.7565
#
#
#
# Elastic Compliance Matrix: (Units=1/GPa)
#
#
# Indices 1 2 3 4 5 6 
#
# 1 -0.005538 0.021192 -0.001876 0.000000 0.000000 0.000000
# 2 0.021192 -0.005538 -0.001878 0.000000 0.000000 0.000000
# 3 -0.001876 -0.001878 0.025624 0.000000 0.000000 0.000000
# 4 0.000000 0.000000 0.000000 0.038970 0.000000 0.000000
# 5 0.000000 0.000000 0.000000 0.000000 0.038970 0.000000
# 6 0.000000 0.000000 0.000000 0.000000 0.000000 0.036028
#
#
# Mechanical properties :
#
#
# Convention : Reuss Voigt Hill
#
# Bulk Modulus (GPa) = 20.23249 20.97972 20.60610
# Shear Modulus (GPa) = 45.40759 16.25520 30.83139
#
# Velocity S-wave (km/s) = 4.79138 2.86677 3.94815
# Velocity P-wave (km/s) = 6.39054 4.64380 5.58587
#
# Compressibility (1/GPa) = 0.04942547
#
# Stress axis : x y z
#
# Youngs Moduli (GPa) = -180.58207 -180.58667 39.02641
#
# Poissons Ratio (x) = 3.82696 0.07320
# Poissons Ratio (y) = 3.82686 0.07328
# Poissons Ratio (z) = -0.33869 -0.33910
#
# Static dielectric constant tensor:
#      x y z
#    x 1.662630 0.000000 0.000000 
#    y 0.000000 1.662630 0.000000 
#    z 0.000000 0.000000 1.657270 
# 
# From -- ./inp_files/4579.got.cif
#   From: 2010.05.17/outbox.cif.g08.bks.cpg/sg92_3_cif.got.tgz:4579.got - 2010.06.03 19:35:17.
