data_PCOD9549127
_publ_section_title
;
Structure prediction by ZEFSAII (Michael W. Deem and Ramdas Pophale) SiO2 
 PCOD9549127
Probable space group: P 41 21 2
;
_chemical_formula_sum "Si O2"
_cell_formula_units_Z 36
_cell_length_a 15.579424
_cell_length_b 15.579424
_cell_length_c 8.813888
_cell_angle_alpha 90.000000
_cell_angle_beta 90.000000
_cell_angle_gamma 90.000000
_cell_volume 2139.293253
_symmetry_space_group_name_H-M "P 41 21 2"
_symmetry_group_IT_number 92
_symmetry_cell_setting 'tetragonal'
loop_
_space_group_symop_operation_xyz
x,y,z
1/2-y,1/2+x,1/4+z
-x,-y,1/2+z
1/2+y,1/2-x,3/4+z
1/2+x,1/2-y,3/4-z
1/2-x,1/2+y,1/4-z
y,x,-z
-y,-x,1/2-z
loop_
_atom_site_type_symbol
_atom_site_label
_atom_site_fract_x
_atom_site_fract_y
_atom_site_fract_z
Si Si1 0.105938 0.996995 0.618570
Si Si2 0.312056 0.881974 0.830902
Si Si3 0.764373 0.764373 0.500000
Si Si4 0.233618 0.574279 0.465412
Si Si5 0.845644 0.225556 0.469674
O O1 0.051535 0.948466 0.750000
O O2 0.164301 0.927815 0.530142
O O3 0.176269 0.057142 0.699652
O O4 0.046609 0.046609 0.500000
O O5 0.230283 0.833934 0.903795
O O6 0.301489 0.862842 0.651441
O O7 0.299706 0.983717 0.850602
O O8 0.391224 0.837063 0.914543
O O9 0.852946 0.752900 0.591135
O O10 0.757919 0.686907 0.380143
#
# Coordination Sequence:
#
# PCOD9549127 Si02
#       5
#     8   8   4   8   8
#     4  11  23  37  60  92 121 151 191 250 297 346
#     4   9  18  38  60  74 115 152 191 231 299 337
#     4  10  22  34  62  82 114 158 200 230 280 358
#     4  10  21  39  57  86 115 157 191 246 285 350
#     4   9  18  39  54  82 115 157 183 235 293 351
#
# _framework density 16.827987
#
# number of rings (size 3 to 8) (size 9 to 14) (size 15 to 20)
#    0.000    2.222    4.444    0.000    9.333    0.000 
#    4.000    4.444    0.000    0.000    0.000    0.000 
#    0.000    0.000    0.000    0.000    0.000    0.000 
#
# Total GULP energy -200584.594031 kJ/mol
# GULP energy per Si atom -5571.794279 kJ/mol
# Density = 1.678969 g / cm^3
# Si number density = 16.827987 Si / 1000 Ang^3
#
#
#
# Elastic Constant Matrix: (Units=GPa)
#
#
# Indices 1 2 3 4 5 6 
#
# 1 80.3998 61.4228 60.9339 0.0000 0.0000 0.0000
# 2 61.4228 80.3969 60.9320 0.0000 0.0000 0.0000
# 3 60.9339 60.9320 100.7041 0.0000 0.0000 0.0000
# 4 0.0000 0.0000 0.0000 27.8716 0.0000 0.0000
# 5 0.0000 0.0000 0.0000 0.0000 27.8716 0.0000
# 6 0.0000 0.0000 0.0000 0.0000 0.0000 26.1220
#
#
#
# Elastic Compliance Matrix: (Units=1/GPa)
#
#
# Indices 1 2 3 4 5 6 
#
# 1 0.033693 -0.019006 -0.008888 0.000000 0.000000 0.000000
# 2 -0.019006 0.033694 -0.008887 0.000000 0.000000 0.000000
# 3 -0.008888 -0.008887 0.020685 0.000000 0.000000 0.000000
# 4 0.000000 0.000000 0.000000 0.035879 0.000000 0.000000
# 5 0.000000 0.000000 0.000000 0.000000 0.035879 0.000000
# 6 0.000000 0.000000 0.000000 0.000000 0.000000 0.038282
#
#
# Mechanical properties :
#
#
# Convention : Reuss Voigt Hill
#
# Bulk Modulus (GPa) = 68.90946 69.78647 69.34796
# Shear Modulus (GPa) = 18.08259 21.58717 19.83488
#
# Velocity S-wave (km/s) = 3.28160 3.58552 3.43692
# Velocity P-wave (km/s) = 7.44290 7.66171 7.55310
#
# Compressibility (1/GPa) = 0.01451180
#
# Stress axis : x y z
#
# Youngs Moduli (GPa) = 29.67943 29.67903 48.34473
#
# Poissons Ratio (x) = 0.56407 0.42966
# Poissons Ratio (y) = 0.56408 0.42963
# Poissons Ratio (z) = 0.26378 0.26375
#
# Static dielectric constant tensor:
#      x y z
#    x 1.566410 0.000000 0.000000 
#    y 0.000000 1.566410 0.000000 
#    z 0.000000 0.000000 1.589050 
# 
# From -- ./inp_files/1220.got.cif
#   From: 2010.05.17/outbox.cif.g08.bks.cpg/sg92_1_cif.got.tgz:1220.got - 2010.06.03 19:35:17.
