data_PCOD9549498
_publ_section_title
;
Structure prediction by ZEFSAII (Michael W. Deem and Ramdas Pophale) SiO2 
 PCOD9549498
Probable space group: P 41 21 2
;
_chemical_formula_sum "Si O2"
_cell_formula_units_Z 32
_cell_length_a 11.505094
_cell_length_b 11.505094
_cell_length_c 10.484910
_cell_angle_alpha 90.000000
_cell_angle_beta 90.000000
_cell_angle_gamma 90.000000
_cell_volume 1387.858053
_symmetry_space_group_name_H-M "P 41 21 2"
_symmetry_group_IT_number 92
_symmetry_cell_setting 'tetragonal'
loop_
_space_group_symop_operation_xyz
x,y,z
1/2-y,1/2+x,1/4+z
-x,-y,1/2+z
1/2+y,1/2-x,3/4+z
1/2+x,1/2-y,3/4-z
1/2-x,1/2+y,1/4-z
y,x,-z
-y,-x,1/2-z
loop_
_atom_site_type_symbol
_atom_site_label
_atom_site_fract_x
_atom_site_fract_y
_atom_site_fract_z
Si Si1 0.011944 0.011944 0.500000
Si Si2 0.029675 0.588814 0.232644
Si Si3 0.783284 0.216717 0.250000
Si Si4 0.482230 0.726812 0.145504
Si Si5 0.107116 0.185372 0.706870
O O1 0.875188 0.031924 0.484218
O O2 0.057077 0.080096 0.622770
O O3 0.022576 0.551976 0.084741
O O4 0.157431 0.554663 0.282312
O O5 0.992715 0.722863 0.240101
O O6 0.749932 0.298712 0.368293
O O7 0.915575 0.242338 0.208335
O O8 0.370106 0.672661 0.076219
#
# Coordination Sequence:
#
# PCOD9549498 Si02
#       5
#     4   8   4   8   8
#     4  11  24  48  73 108 150 204 257 312 394 465
#     4  12  28  49  77 115 160 198 262 319 395 454
#     4  11  24  44  83 104 160 206 261 314 406 475
#     4  12  24  49  74 111 149 207 256 320 388 472
#     4  11  26  47  76 113 152 199 258 327 387 462
#
# _framework density 23.057113999999999
#
# number of rings (size 3 to 8) (size 9 to 14) (size 15 to 20)
#    0.000    0.500    2.500    4.500    3.500    2.000 
#   18.000    0.000    0.000    0.000    0.000    0.000 
#    0.000    0.000    0.000    0.000    0.000    0.000 
#
# Total GULP energy -179229.694474 kJ/mol
# GULP energy per Si atom -5600.927952 kJ/mol
# Density = 2.300463 g / cm^3
# Si number density = 23.057114 Si / 1000 Ang^3
#
#
#
# Elastic Constant Matrix: (Units=GPa)
#
#
# Indices 1 2 3 4 5 6 
#
# 1 105.8964 30.4228 1.3329 0.0000 0.0000 0.0000
# 2 30.4228 105.8961 1.3324 0.0000 0.0000 0.0000
# 3 1.3329 1.3324 49.2076 0.0000 0.0000 0.0000
# 4 0.0000 0.0000 0.0000 33.7473 0.0000 0.0000
# 5 0.0000 0.0000 0.0000 0.0000 33.7474 0.0000
# 6 0.0000 0.0000 0.0000 0.0000 0.0000 39.2555
#
#
#
# Elastic Compliance Matrix: (Units=1/GPa)
#
#
# Indices 1 2 3 4 5 6 
#
# 1 0.010295 -0.002955 -0.000199 0.000000 0.000000 0.000000
# 2 -0.002955 0.010295 -0.000199 0.000000 0.000000 0.000000
# 3 -0.000199 -0.000199 0.020333 0.000000 0.000000 0.000000
# 4 0.000000 0.000000 0.000000 0.029632 0.000000 0.000000
# 5 0.000000 0.000000 0.000000 0.000000 0.029632 0.000000
# 6 0.000000 0.000000 0.000000 0.000000 0.000000 0.025474
#
#
# Mechanical properties :
#
#
# Convention : Reuss Voigt Hill
#
# Bulk Modulus (GPa) = 29.22525 36.35290 32.78908
# Shear Modulus (GPa) = 34.77753 36.54417 35.66085
#
# Velocity S-wave (km/s) = 3.88792 3.98545 3.93699
# Velocity P-wave (km/s) = 5.73213 6.08105 5.90916
#
# Compressibility (1/GPa) = 0.03421699
#
# Stress axis : x y z
#
# Youngs Moduli (GPa) = 97.13793 97.13766 49.18156
#
# Poissons Ratio (x) = 0.28705 0.00978
# Poissons Ratio (y) = 0.28705 0.00977
# Poissons Ratio (z) = 0.01931 0.01930
#
# Static dielectric constant tensor:
#      x y z
#    x 1.843220 0.000000 0.000000 
#    y 0.000000 1.843230 0.000000 
#    z 0.000000 0.000000 1.922320 
# 
# From -- ./inp_files/1971.got.cif
#   From: 2010.05.17/outbox.cif.g08.bks.cpg/sg92_1_cif.got.tgz:1971.got - 2010.06.03 19:35:17.
