data_PCOD9549670
_publ_section_title
;
Structure prediction by ZEFSAII (Michael W. Deem and Ramdas Pophale) SiO2 
 PCOD9549670
Probable space group: P 42 2 2
;
_chemical_formula_sum "Si O2"
_cell_formula_units_Z 36
_cell_length_a 9.279873
_cell_length_b 9.279873
_cell_length_c 20.617325
_cell_angle_alpha 90.000000
_cell_angle_beta 90.000000
_cell_angle_gamma 90.000000
_cell_volume 1775.482444
_symmetry_space_group_name_H-M "P 42 2 2"
_symmetry_group_IT_number 93
_symmetry_cell_setting 'tetragonal'
loop_
_space_group_symop_operation_xyz
x,y,z
-y,x,1/2+z
-x,-y,z
y,-x,1/2+z
x,-y,-z
-x,y,-z
y,x,1/2-z
-y,-x,1/2-z
loop_
_atom_site_type_symbol
_atom_site_label
_atom_site_fract_x
_atom_site_fract_y
_atom_site_fract_z
Si Si1 0.338478 0.059425 0.639692
Si Si2 0.718736 0.718736 0.750000
Si Si3 0.820194 0.261839 0.442135
Si Si4 0.200387 0.858714 0.906933
Si Si5 0.833637 0.507636 0.344824
O O1 0.286954 0.140490 0.704638
O O2 0.320271 0.182784 0.585237
O O3 0.500000 0.000000 0.645488
O O4 0.228013 0.937605 0.616187
O O5 0.578405 0.732207 0.795546
O O6 0.825115 0.242382 0.518647
O O7 0.825819 0.422304 0.413425
O O8 0.966341 0.192586 0.409983
O O9 0.327111 0.807275 0.859417
O O10 0.000000 0.500000 0.321931
#
# Coordination Sequence:
#
# PCOD9549670 Si02
#       5
#     8   4   8   8   8
#     4  11  23  39  58  84 118 156 191 236 292 343
#     4  10  22  42  56  76 120 158 198 246 280 328
#     4   9  19  36  60  90 121 144 183 242 294 350
#     4  10  19  36  63  91 113 147 192 237 294 348
#     4   9  18  36  60  85 113 153 196 238 286 338
#
# _framework density 20.276178000000002
#
# number of rings (size 3 to 8) (size 9 to 14) (size 15 to 20)
#    0.000    2.222    0.000    2.667    0.000    6.222 
#    0.000   35.556    0.000    5.333    0.000    0.000 
#    0.000    0.000    0.000    0.000    0.000    0.000 
#
# Total GULP energy -200784.607276 kJ/mol
# GULP energy per Si atom -5577.350202 kJ/mol
# Density = 2.023003 g / cm^3
# Si number density = 20.276178 Si / 1000 Ang^3
#
#
#
# Elastic Constant Matrix: (Units=GPa)
#
#
# Indices 1 2 3 4 5 6 
#
# 1 59.8987 37.8975 28.0532 0.0000 0.0000 0.0000
# 2 37.8975 59.8987 28.0532 0.0000 0.0000 0.0000
# 3 28.0532 28.0532 91.4420 0.0000 0.0000 0.0000
# 4 0.0000 0.0000 0.0000 -42.3920 0.0000 0.0000
# 5 0.0000 0.0000 0.0000 0.0000 -42.3920 0.0000
# 6 0.0000 0.0000 0.0000 0.0000 0.0000 28.0149
#
#
#
# Elastic Compliance Matrix: (Units=1/GPa)
#
#
# Indices 1 2 3 4 5 6 
#
# 1 0.028931 -0.016521 -0.003807 0.000000 0.000000 0.000000
# 2 -0.016521 0.028931 -0.003807 0.000000 0.000000 0.000000
# 3 -0.003807 -0.003807 0.013272 0.000000 0.000000 0.000000
# 4 0.000000 0.000000 0.000000 -0.023589 0.000000 0.000000
# 5 0.000000 0.000000 0.000000 0.000000 -0.023589 0.000000
# 6 0.000000 0.000000 0.000000 0.000000 0.000000 0.035695
#
#
# Mechanical properties :
#
#
# Convention : Reuss Voigt Hill
#
# Bulk Modulus (GPa) = 43.73972 44.36081 44.05027
# Shear Modulus (GPa) = 43.27445 -3.53809 19.86818
#
# Velocity S-wave (km/s) = 4.62481 -1.32240 3.13370
# Velocity P-wave (km/s) = 7.08077 4.42653 5.90472
#
# Compressibility (1/GPa) = 0.02286251
#
# Stress axis : x y z
#
# Youngs Moduli (GPa) = 34.56523 34.56523 75.34768
#
# Poissons Ratio (x) = 0.57106 0.28685
# Poissons Ratio (y) = 0.57106 0.28685
# Poissons Ratio (z) = 0.13159 0.13159
#
# Static dielectric constant tensor:
#      x y z
#    x 1.714670 0.000000 0.000000 
#    y 0.000000 1.714670 0.000000 
#    z 0.000000 0.000000 1.744840 
# 
# From -- ./inp_files/6040.got.cif
#   From: 2010.05.17/outbox.cif.g08.bks.cpg/sg93_4_cif.got.tgz:6040.got - 2010.06.03 19:38:44.
