data_PCOD9549213
_publ_section_title
;
Structure prediction by ZEFSAII (Michael W. Deem and Ramdas Pophale) SiO2 
 PCOD9549213
Probable space group: P 41 21 2
;
_chemical_formula_sum "Si O2"
_cell_formula_units_Z 56
_cell_length_a 14.488124
_cell_length_b 14.488124
_cell_length_c 12.404004
_cell_angle_alpha 90.000000
_cell_angle_beta 90.000000
_cell_angle_gamma 90.000000
_cell_volume 2603.671602
_symmetry_space_group_name_H-M "P 41 21 2"
_symmetry_group_IT_number 92
_symmetry_cell_setting 'tetragonal'
loop_
_space_group_symop_operation_xyz
x,y,z
1/2-y,1/2+x,1/4+z
-x,-y,1/2+z
1/2+y,1/2-x,3/4+z
1/2+x,1/2-y,3/4-z
1/2-x,1/2+y,1/4-z
y,x,-z
-y,-x,1/2-z
loop_
_atom_site_type_symbol
_atom_site_label
_atom_site_fract_x
_atom_site_fract_y
_atom_site_fract_z
Si Si1 0.493368 0.642851 0.480086
Si Si2 0.758700 0.446804 0.729877
Si Si3 0.098961 0.611835 0.567730
Si Si4 0.767582 0.620180 0.028888
Si Si5 0.204332 0.073560 0.772892
Si Si6 0.923512 0.321538 0.674014
Si Si7 0.902836 0.573849 0.196225
O O1 0.546953 0.546953 0.500000
O O2 0.482351 0.686661 0.359735
O O3 0.386501 0.628070 0.512269
O O4 0.553297 0.717338 0.546115
O O5 0.839343 0.522964 0.745124
O O6 0.709228 0.434964 0.846268
O O7 0.819501 0.356538 0.696800
O O8 0.101561 0.669081 0.676618
O O9 0.197631 0.616213 0.510611
O O10 0.079165 0.509066 0.611772
O O11 0.707422 0.526432 0.035969
O O12 0.703743 0.703743 0.000000
O O13 0.833305 0.638869 0.129763
O O14 0.951234 0.344874 0.551400
O O15 0.002590 0.380490 0.735401
#
# Coordination Sequence:
#
# PCOD9549213 Si02
#       7
#     8   8   8   8   8   8   8
#     4  12  28  47  67  99 144 191 241 290 363 437
#     4  11  24  43  71 102 135 183 234 300 360 441
#     4  10  22  39  68  99 135 172 229 286 364 419
#     4  10  22  38  63  92 132 176 230 281 344 424
#     4  10  24  44  67  94 136 189 233 290 350 439
#     4  12  24  41  71 102 142 176 229 297 363 427
#     4  11  22  40  65 104 137 174 223 297 361 425
#
# _framework density 21.508088000000001
#
# number of rings (size 3 to 8) (size 9 to 14) (size 15 to 20)
#    0.000    1.143    2.857    2.571    6.000    4.571 
#    0.000    5.000    0.000    0.000    0.000    0.000 
#    0.000    0.000    0.000    0.000    0.000    0.000 
#
# Total GULP energy -312688.159093 kJ/mol
# GULP energy per Si atom -5583.717127 kJ/mol
# Density = 2.145913 g / cm^3
# Si number density = 21.508088 Si / 1000 Ang^3
#
#
#
# Elastic Constant Matrix: (Units=GPa)
#
#
# Indices 1 2 3 4 5 6 
#
# 1 68.5439 27.1156 0.4567 0.0000 0.0000 0.0000
# 2 27.1156 68.5439 0.4567 0.0000 0.0000 0.0000
# 3 0.4567 0.4567 63.0309 0.0000 0.0000 0.0000
# 4 0.0000 0.0000 0.0000 18.6397 0.0000 0.0000
# 5 0.0000 0.0000 0.0000 0.0000 18.6397 0.0000
# 6 0.0000 0.0000 0.0000 0.0000 0.0000 40.2463
#
#
#
# Elastic Compliance Matrix: (Units=1/GPa)
#
#
# Indices 1 2 3 4 5 6 
#
# 1 0.017296 -0.006842 -0.000076 0.000000 0.000000 0.000000
# 2 -0.006842 0.017296 -0.000076 0.000000 0.000000 0.000000
# 3 -0.000076 -0.000076 0.015866 0.000000 0.000000 0.000000
# 4 0.000000 0.000000 0.000000 0.053649 0.000000 0.000000
# 5 0.000000 0.000000 0.000000 0.000000 0.053649 0.000000
# 6 0.000000 0.000000 0.000000 0.000000 0.000000 0.024847
#
#
# Mechanical properties :
#
#
# Convention : Reuss Voigt Hill
#
# Bulk Modulus (GPa) = 27.41811 28.46409 27.94110
# Shear Modulus (GPa) = 23.95238 26.97781 25.46510
#
# Velocity S-wave (km/s) = 3.34075 3.54547 3.44463
# Velocity P-wave (km/s) = 5.25893 5.47935 5.37027
#
# Compressibility (1/GPa) = 0.03647225
#
# Stress axis : x y z
#
# Youngs Moduli (GPa) = 57.81595 57.81595 63.02658
#
# Poissons Ratio (x) = 0.39557 0.00477
# Poissons Ratio (y) = 0.39557 0.00477
# Poissons Ratio (z) = 0.00438 0.00438
#
# Static dielectric constant tensor:
#      x y z
#    x 1.868330 0.000000 0.000000 
#    y 0.000000 1.868330 0.000000 
#    z 0.000000 0.000000 1.781030 
# 
# From -- ./inp_files/2248.got.cif
#   From: 2010.05.17/outbox.cif.g08.bks.cpg/sg92_2_cif.got.tgz:2248.got - 2010.06.03 19:35:17.
