data_PCOD9549409
_publ_section_title
;
Structure prediction by ZEFSAII (Michael W. Deem and Ramdas Pophale) SiO2 
 PCOD9549409
Probable space group: P 41 21 2
;
_chemical_formula_sum "Si O2"
_cell_formula_units_Z 32
_cell_length_a 7.969135
_cell_length_b 7.969135
_cell_length_c 19.079604
_cell_angle_alpha 90.000000
_cell_angle_beta 90.000000
_cell_angle_gamma 90.000000
_cell_volume 1211.690561
_symmetry_space_group_name_H-M "P 41 21 2"
_symmetry_group_IT_number 92
_symmetry_cell_setting 'tetragonal'
loop_
_space_group_symop_operation_xyz
x,y,z
1/2-y,1/2+x,1/4+z
-x,-y,1/2+z
1/2+y,1/2-x,3/4+z
1/2+x,1/2-y,3/4-z
1/2-x,1/2+y,1/4-z
y,x,-z
-y,-x,1/2-z
loop_
_atom_site_type_symbol
_atom_site_label
_atom_site_fract_x
_atom_site_fract_y
_atom_site_fract_z
Si Si1 0.235085 0.950582 0.942100
Si Si2 0.473895 0.473895 0.500000
Si Si3 0.254002 0.089065 0.360609
Si Si4 0.393510 0.606491 0.750000
Si Si5 0.613042 0.944111 0.320612
O O1 0.293361 0.783852 0.901684
O O2 0.316413 0.098714 0.897884
O O3 0.293064 0.943559 0.021501
O O4 0.039291 0.924251 0.944110
O O5 0.497395 0.616181 0.559826
O O6 0.490245 0.285908 0.533165
O O7 0.258883 0.073919 0.446049
O O8 0.439808 0.045946 0.331928
#
# Coordination Sequence:
#
# PCOD9549409 Si02
#       5
#     8   4   8   4   8
#     4  11  27  46  74 114 150 197 255 317 370 461
#     4  10  24  54  76 118 152 190 259 313 378 454
#     4  11  26  46  80 109 153 202 249 316 379 450
#     4  12  26  50  76 108 154 202 249 311 388 436
#     4  11  26  46  78 110 152 198 251 311 380 448
#
# _framework density 26.409382000000001
#
# number of rings (size 3 to 8) (size 9 to 14) (size 15 to 20)
#    0.000    1.000    2.500    1.500   10.500    6.000 
#    0.000    0.000    0.000    0.000    0.000    0.000 
#    0.000    0.000    0.000    0.000    0.000    0.000 
#
# Total GULP energy -178526.804258 kJ/mol
# GULP energy per Si atom -5578.962633 kJ/mol
# Density = 2.634927 g / cm^3
# Si number density = 26.409382 Si / 1000 Ang^3
#
#
#
# Elastic Constant Matrix: (Units=GPa)
#
#
# Indices 1 2 3 4 5 6 
#
# 1 100.3940 29.7606 38.6354 0.0000 0.0000 0.0000
# 2 29.7606 100.3945 38.6352 0.0000 0.0000 0.0000
# 3 38.6354 38.6352 112.1265 0.0000 0.0000 0.0000
# 4 0.0000 0.0000 0.0000 46.7044 0.0000 0.0000
# 5 0.0000 0.0000 0.0000 0.0000 46.7041 0.0000
# 6 0.0000 0.0000 0.0000 0.0000 0.0000 15.9610
#
#
#
# Elastic Compliance Matrix: (Units=1/GPa)
#
#
# Indices 1 2 3 4 5 6 
#
# 1 0.011908 -0.002249 -0.003328 0.000000 0.000000 0.000000
# 2 -0.002249 0.011908 -0.003328 0.000000 0.000000 0.000000
# 3 -0.003328 -0.003328 0.011212 0.000000 0.000000 0.000000
# 4 0.000000 0.000000 0.000000 0.021411 0.000000 0.000000
# 5 0.000000 0.000000 0.000000 0.000000 0.021411 0.000000
# 6 0.000000 0.000000 0.000000 0.000000 0.000000 0.062653
#
#
# Mechanical properties :
#
#
# Convention : Reuss Voigt Hill
#
# Bulk Modulus (GPa) = 58.08091 58.55305 58.31698
# Shear Modulus (GPa) = 30.47771 35.59952 33.03862
#
# Velocity S-wave (km/s) = 3.40081 3.67548 3.54081
# Velocity P-wave (km/s) = 6.12054 6.34284 6.23268
#
# Compressibility (1/GPa) = 0.01721736
#
# Stress axis : x y z
#
# Youngs Moduli (GPa) = 83.97474 83.97534 89.18941
#
# Poissons Ratio (x) = 0.18888 0.29684
# Poissons Ratio (y) = 0.18888 0.29684
# Poissons Ratio (z) = 0.27949 0.27949
#
# Static dielectric constant tensor:
#      x y z
#    x 2.128070 0.000000 0.000000 
#    y 0.000000 2.128070 0.000000 
#    z 0.000000 0.000000 2.149690 
# 
# From -- ./inp_files/3417.got.cif
#   From: 2010.05.17/outbox.cif.g08.bks.cpg/sg92_2_cif.got.tgz:3417.got - 2010.06.03 19:35:17.
