data_PCOD9549148
_publ_section_title
;
Structure prediction by ZEFSAII (Michael W. Deem and Ramdas Pophale) SiO2 
 PCOD9549148
Probable space group: P 41 21 2
;
_chemical_formula_sum "Si O2"
_cell_formula_units_Z 32
_cell_length_a 12.938252
_cell_length_b 12.938252
_cell_length_c 9.483523
_cell_angle_alpha 90.000000
_cell_angle_beta 90.000000
_cell_angle_gamma 90.000000
_cell_volume 1587.526243
_symmetry_space_group_name_H-M "P 41 21 2"
_symmetry_group_IT_number 92
_symmetry_cell_setting 'tetragonal'
loop_
_space_group_symop_operation_xyz
x,y,z
1/2-y,1/2+x,1/4+z
-x,-y,1/2+z
1/2+y,1/2-x,3/4+z
1/2+x,1/2-y,3/4-z
1/2-x,1/2+y,1/4-z
y,x,-z
-y,-x,1/2-z
loop_
_atom_site_type_symbol
_atom_site_label
_atom_site_fract_x
_atom_site_fract_y
_atom_site_fract_z
Si Si1 0.815180 0.220447 0.099256
Si Si2 0.510371 0.896989 0.139795
Si Si3 0.487836 0.604056 0.891537
Si Si4 0.229129 0.143699 0.866837
O O1 0.760995 0.239006 0.250000
O O2 0.853430 0.102089 0.101178
O O3 0.907102 0.304296 0.103280
O O4 0.750179 0.247953 0.961053
O O5 0.486105 0.949331 0.991428
O O6 0.404455 0.836069 0.174389
O O7 0.429911 0.570090 0.750000
O O8 0.509749 0.509749 0.000000
O O9 0.427129 0.686042 0.989207
O O10 0.154114 0.154114 0.000000
#
# Coordination Sequence:
#
# PCOD9549148 Si02
#       4
#     8   8   8   8
#     4  10  21  41  64  91 125 167 212 258 317 381
#     4  10  22  41  63  87 127 168 211 265 317 373
#     4  11  22  40  66  93 128 171 207 262 324 382
#     4  11  23  42  64  95 130 164 215 269 314 386
#
# _framework density 20.157146999999998
#
# number of rings (size 3 to 8) (size 9 to 14) (size 15 to 20)
#    0.000    1.500    5.000    1.500    0.000    3.000 
#    4.500    0.000    0.000    0.000    0.000    0.000 
#    0.000    0.000    0.000    0.000    0.000    0.000 
#
# Total GULP energy -178262.123181 kJ/mol
# GULP energy per Si atom -5570.691349 kJ/mol
# Density = 2.011127 g / cm^3
# Si number density = 20.157147 Si / 1000 Ang^3
#
#
#
# Elastic Constant Matrix: (Units=GPa)
#
#
# Indices 1 2 3 4 5 6 
#
# 1 57.9448 41.2952 52.4788 0.0000 0.0000 0.0000
# 2 41.2952 57.9401 52.4792 0.0000 0.0000 0.0000
# 3 52.4788 52.4792 114.0762 0.0000 0.0000 0.0000
# 4 0.0000 0.0000 0.0000 32.1621 0.0000 0.0000
# 5 0.0000 0.0000 0.0000 0.0000 32.1627 0.0000
# 6 0.0000 0.0000 0.0000 0.0000 0.0000 19.4872
#
#
#
# Elastic Compliance Matrix: (Units=1/GPa)
#
#
# Indices 1 2 3 4 5 6 
#
# 1 0.039845 -0.020222 -0.009027 0.000000 0.000000 0.000000
# 2 -0.020222 0.039851 -0.009030 0.000000 0.000000 0.000000
# 3 -0.009027 -0.009030 0.017073 0.000000 0.000000 0.000000
# 4 0.000000 0.000000 0.000000 0.031093 0.000000 0.000000
# 5 0.000000 0.000000 0.000000 0.000000 0.031092 0.000000
# 6 0.000000 0.000000 0.000000 0.000000 0.000000 0.051316
#
#
# Mechanical properties :
#
#
# Convention : Reuss Voigt Hill
#
# Bulk Modulus (GPa) = 49.47954 58.05196 53.76575
# Shear Modulus (GPa) = 17.03205 22.34292 19.68749
#
# Velocity S-wave (km/s) = 2.90998 3.33293 3.12861
# Velocity P-wave (km/s) = 5.99090 6.60859 6.30731
#
# Compressibility (1/GPa) = 0.02021037
#
# Stress axis : x y z
#
# Youngs Moduli (GPa) = 25.09730 25.09357 58.57214
#
# Poissons Ratio (x) = 0.50744 0.52874
# Poissons Ratio (y) = 0.50752 0.52891
# Poissons Ratio (z) = 0.22656 0.22660
#
# Static dielectric constant tensor:
#      x y z
#    x 1.758600 0.000000 0.000000 
#    y 0.000000 1.758600 0.000000 
#    z 0.000000 0.000000 1.715720 
# 
# From -- ./inp_files/1147.got.cif
#   From: 2010.05.17/outbox.cif.g08.bks.cpg/sg92_1_cif.got.tgz:1147.got - 2010.06.03 19:35:17.
