data_PCOD9549165
_publ_section_title
;
Structure prediction by ZEFSAII (Michael W. Deem and Ramdas Pophale) SiO2 
 PCOD9549165
Probable space group: P 41 21 2
;
_chemical_formula_sum "Si O2"
_cell_formula_units_Z 56
_cell_length_a 14.238579
_cell_length_b 14.238579
_cell_length_c 11.561989
_cell_angle_alpha 90.000000
_cell_angle_beta 90.000000
_cell_angle_gamma 90.000000
_cell_volume 2344.044489
_symmetry_space_group_name_H-M "P 41 21 2"
_symmetry_group_IT_number 92
_symmetry_cell_setting 'tetragonal'
loop_
_space_group_symop_operation_xyz
x,y,z
1/2-y,1/2+x,1/4+z
-x,-y,1/2+z
1/2+y,1/2-x,3/4+z
1/2+x,1/2-y,3/4-z
1/2-x,1/2+y,1/4-z
y,x,-z
-y,-x,1/2-z
loop_
_atom_site_type_symbol
_atom_site_label
_atom_site_fract_x
_atom_site_fract_y
_atom_site_fract_z
Si Si1 0.976450 0.282030 0.105327
Si Si2 0.793320 0.170546 0.092767
Si Si3 0.469396 0.723563 0.910566
Si Si4 0.896666 0.219676 0.663037
Si Si5 0.940024 0.489287 0.169319
Si Si6 0.718441 0.382884 0.407642
Si Si7 0.123203 0.258956 0.930138
O O1 0.870355 0.248047 0.119842
O O2 0.982422 0.389361 0.137665
O O3 0.039355 0.231737 0.201481
O O4 0.018800 0.264724 0.980301
O O5 0.689470 0.200852 0.134726
O O6 0.824315 0.069362 0.138146
O O7 0.793353 0.159894 0.955376
O O8 0.483459 0.828176 0.857814
O O9 0.379258 0.665887 0.871959
O O10 0.861865 0.138136 0.750000
O O11 0.855788 0.319896 0.705845
O O12 0.006605 0.220222 0.632258
O O13 0.950486 0.491200 0.312481
O O14 0.734361 0.380755 0.546031
O O15 0.180946 0.180946 0.000000
#
# Coordination Sequence:
#
# PCOD9549165 Si02
#       7
#     8   8   8   8   8   8   8
#     4  11  22  43  71  98 133 185 234 293 351 431
#     4  11  25  44  65  98 142 182 232 285 354 427
#     4  11  24  43  66  98 137 189 236 280 361 436
#     4  10  24  42  69 104 133 174 232 292 356 427
#     4  10  24  43  72 105 142 188 250 304 364 431
#     4  11  23  45  68  97 141 182 223 295 361 422
#     4  10  21  41  71  98 131 170 230 288 354 413
#
# _framework density 23.890331
#
# number of rings (size 3 to 8) (size 9 to 14) (size 15 to 20)
#    0.000    1.429    2.857    1.286    0.000    9.714 
#    5.143    0.000    0.000    0.000    0.000    0.000 
#    0.000    0.000    0.000    0.000    0.000    0.000 
#
# Total GULP energy -312829.271852 kJ/mol
# GULP energy per Si atom -5586.236997 kJ/mol
# Density = 2.383596 g / cm^3
# Si number density = 23.890331 Si / 1000 Ang^3
#
#
#
# Elastic Constant Matrix: (Units=GPa)
#
#
# Indices 1 2 3 4 5 6 
#
# 1 91.2204 26.8067 34.7599 0.0000 0.0000 0.0000
# 2 26.8067 91.2213 34.7603 0.0000 0.0000 0.0000
# 3 34.7599 34.7603 101.8853 0.0000 0.0000 0.0000
# 4 0.0000 0.0000 0.0000 35.6058 0.0000 0.0000
# 5 0.0000 0.0000 0.0000 0.0000 35.6057 0.0000
# 6 0.0000 0.0000 0.0000 0.0000 0.0000 20.7793
#
#
#
# Elastic Compliance Matrix: (Units=1/GPa)
#
#
# Indices 1 2 3 4 5 6 
#
# 1 0.013064 -0.002461 -0.003618 0.000000 0.000000 0.000000
# 2 -0.002461 0.013064 -0.003618 0.000000 0.000000 0.000000
# 3 -0.003618 -0.003618 0.012283 0.000000 0.000000 0.000000
# 4 0.000000 0.000000 0.000000 0.028085 0.000000 0.000000
# 5 0.000000 0.000000 0.000000 0.000000 0.028085 0.000000
# 6 0.000000 0.000000 0.000000 0.000000 0.000000 0.048125
#
#
# Mechanical properties :
#
#
# Convention : Reuss Voigt Hill
#
# Bulk Modulus (GPa) = 52.57640 52.99788 52.78714
# Shear Modulus (GPa) = 29.68450 30.93151 30.30801
#
# Velocity S-wave (km/s) = 3.52878 3.60214 3.56565
# Velocity P-wave (km/s) = 6.21757 6.28749 6.25263
#
# Compressibility (1/GPa) = 0.01901994
#
# Stress axis : x y z
#
# Youngs Moduli (GPa) = 76.54618 76.54677 81.41103
#
# Poissons Ratio (x) = 0.18835 0.29451
# Poissons Ratio (y) = 0.18835 0.29451
# Poissons Ratio (z) = 0.27691 0.27691
#
# Static dielectric constant tensor:
#      x y z
#    x 1.904260 0.000000 0.000000 
#    y 0.000000 1.904250 0.000000 
#    z 0.000000 0.000000 2.000420 
# 
# From -- ./inp_files/2276.got.cif
#   From: 2010.05.17/outbox.cif.g08.bks.cpg/sg92_2_cif.got.tgz:2276.got - 2010.06.03 19:35:17.
