data_PCOD9549954
_publ_section_title
;
Structure prediction by ZEFSAII (Michael W. Deem and Ramdas Pophale) SiO2 
 PCOD9549954
Probable space group: P 42 21 2
;
_chemical_formula_sum "Si O2"
_cell_formula_units_Z 56
_cell_length_a 11.929590
_cell_length_b 11.929590
_cell_length_c 20.884157
_cell_angle_alpha 90.000000
_cell_angle_beta 90.000000
_cell_angle_gamma 90.000000
_cell_volume 2972.131259
_symmetry_space_group_name_H-M "P 42 21 2"
_symmetry_group_IT_number 94
_symmetry_cell_setting 'tetragonal'
loop_
_space_group_symop_operation_xyz
x,y,z
1/2-y,1/2+x,1/2+z
-x,-y,z
1/2+y,1/2-x,1/2+z
1/2+x,1/2-y,1/2-z
1/2-x,1/2+y,1/2-z
y,x,-z
-y,-x,-z
loop_
_atom_site_type_symbol
_atom_site_label
_atom_site_fract_x
_atom_site_fract_y
_atom_site_fract_z
Si Si1 0.763474 0.142316 0.753674
Si Si2 0.790242 0.797846 0.864620
Si Si3 0.868650 0.018480 0.191246
Si Si4 0.765141 0.433561 0.187901
Si Si5 0.745034 0.593484 0.959830
Si Si6 0.427204 0.111638 0.916511
Si Si7 0.133844 0.031238 0.651889
O O1 0.750547 0.247766 0.704252
O O2 0.640228 0.133784 0.784070
O O3 0.848722 0.149947 0.813766
O O4 0.808424 0.041394 0.708803
O O5 0.918871 0.836106 0.856883
O O6 0.784071 0.695392 0.914362
O O7 0.701957 0.888986 0.891752
O O8 0.792610 0.997837 0.253717
O O9 0.000000 0.000000 0.203406
O O10 0.800261 0.514628 0.131444
O O11 0.662751 0.356467 0.164608
O O12 0.698849 0.499584 0.912677
O O13 0.640605 0.640605 0.000000
O O14 0.839647 0.566525 0.011693
O O15 0.500000 0.000000 0.911986
O O16 0.000000 0.000000 0.647471
#
# Coordination Sequence:
#
# PCOD9549954 Si02
#       7
#     8   8   8   8   8   8   8
#     4  10  19  33  54  87 120 146 176 236 293 355
#     4   9  20  37  60  81 111 155 196 233 295 356
#     4  11  19  34  59  85 118 151 189 233 291 356
#     4  11  21  33  56  86 119 148 186 233 294 358
#     4   9  20  38  61  79 105 151 197 247 291 338
#     4  11  23  39  56  81 116 154 199 244 296 346
#     4  11  18  36  60  87 114 142 195 245 290 347
#
# _framework density 18.841698999999998
#
# number of rings (size 3 to 8) (size 9 to 14) (size 15 to 20)
#    0.000    1.714    4.286    1.714    2.000    2.000 
#    2.571    0.000    0.000    3.857    0.000    0.000 
#    0.000    0.000    0.000    0.000    0.000    0.000 
#
# Total GULP energy -311913.746760 kJ/mol
# GULP energy per Si atom -5569.888335 kJ/mol
# Density = 1.879881 g / cm^3
# Si number density = 18.841699 Si / 1000 Ang^3
#
#
#
# Elastic Constant Matrix: (Units=GPa)
#
#
# Indices 1 2 3 4 5 6 
#
# 1 42.1187 3.9724 12.4213 0.0000 0.0000 0.0000
# 2 3.9724 42.1187 12.4213 0.0000 0.0000 0.0000
# 3 12.4213 12.4213 68.7584 0.0000 0.0000 0.0000
# 4 0.0000 0.0000 0.0000 16.9805 0.0000 0.0000
# 5 0.0000 0.0000 0.0000 0.0000 16.9805 0.0000
# 6 0.0000 0.0000 0.0000 0.0000 0.0000 23.5313
#
#
#
# Elastic Compliance Matrix: (Units=1/GPa)
#
#
# Indices 1 2 3 4 5 6 
#
# 1 0.025126 -0.001089 -0.004342 0.000000 0.000000 0.000000
# 2 -0.001089 0.025126 -0.004342 0.000000 0.000000 0.000000
# 3 -0.004342 -0.004342 0.016113 0.000000 0.000000 0.000000
# 4 0.000000 0.000000 0.000000 0.058891 0.000000 0.000000
# 5 0.000000 0.000000 0.000000 0.000000 0.058891 0.000000
# 6 0.000000 0.000000 0.000000 0.000000 0.000000 0.042497
#
#
# Mechanical properties :
#
#
# Convention : Reuss Voigt Hill
#
# Bulk Modulus (GPa) = 21.35987 23.40287 22.38137
# Shear Modulus (GPa) = 19.09888 19.77719 19.43804
#
# Velocity S-wave (km/s) = 3.18724 3.24335 3.21542
# Velocity P-wave (km/s) = 4.99057 5.14524 5.06849
#
# Compressibility (1/GPa) = 0.04681677
#
# Stress axis : x y z
#
# Youngs Moduli (GPa) = 39.79982 39.79982 62.06342
#
# Poissons Ratio (x) = 0.04335 0.26950
# Poissons Ratio (y) = 0.04335 0.26950
# Poissons Ratio (z) = 0.17282 0.17282
#
# Static dielectric constant tensor:
#      x y z
#    x 1.687830 0.000000 0.000000 
#    y 0.000000 1.687830 0.000000 
#    z 0.000000 0.000000 1.661910 
# 
# From -- ./inp_files/4735.got.cif
#   From: 2010.05.17/outbox.cif.g08.bks.cpg/sg94_3_cif.got.tgz:4735.got - 2010.06.03 19:43:16.
