data_PCOD9549589
_publ_section_title
;
Structure prediction by ZEFSAII (Michael W. Deem and Ramdas Pophale) SiO2 
 PCOD9549589
Probable space group: P 41 21 2
;
_chemical_formula_sum "Si O2"
_cell_formula_units_Z 48
_cell_length_a 12.000000
_cell_length_b 12.000000
_cell_length_c 18.000000
_cell_angle_alpha 90.000000
_cell_angle_beta 90.000000
_cell_angle_gamma 90.000000
_cell_volume 2592.000000
_symmetry_space_group_name_H-M "P 41 21 2"
_symmetry_group_IT_number 92
_symmetry_cell_setting 'tetragonal'
loop_
_space_group_symop_operation_xyz
x,y,z
1/2-y,1/2+x,1/4+z
-x,-y,1/2+z
1/2+y,1/2-x,3/4+z
1/2+x,1/2-y,3/4-z
1/2-x,1/2+y,1/4-z
y,x,-z
-y,-x,1/2-z
loop_
_atom_site_type_symbol
_atom_site_label
_atom_site_fract_x
_atom_site_fract_y
_atom_site_fract_z
Si Si1 0.603844 0.059853 0.565078
Si Si2 0.045849 0.430178 0.567435
Si Si3 0.134505 0.015672 0.069038
Si Si4 0.684274 0.466088 0.938252
Si Si5 0.570977 0.692065 0.908183
Si Si6 0.815614 0.988456 0.991067
O O1 0.535172 0.047708 0.488631
O O2 0.583586 0.193249 0.581997
O O3 0.535087 0.976426 0.618660
O O4 0.734737 0.022388 0.564786
O O5 0.175906 0.405168 0.586065
O O6 0.003804 0.311854 0.535243
O O7 0.099802 0.087534 0.142684
O O8 0.094965 0.094965 0.000000
O O9 0.059170 0.903394 0.059123
O O10 0.668022 0.598898 0.919607
O O11 0.669973 0.475753 0.028291
O O12 0.534103 0.674290 0.824245
O O13 0.862758 0.862758 0.000000
#
# Coordination Sequence:
#
# PCOD9549589 Si02
#       6
#     8   8   8   8   8   8
#     4  11  25  43  67  97 132 175 221 274 327 407
#     4  11  24  42  66 100 132 168 225 277 340 390
#     4  11  23  45  69  93 134 180 220 271 339 397
#     4  10  22  43  69  95 129 178 222 268 342 399
#     4  10  21  43  69  97 130 171 222 279 334 402
#     4  11  23  43  66  96 131 171 219 277 332 401
#
# _framework density 18.518519000000001
#
# number of rings (size 3 to 8) (size 9 to 14) (size 15 to 20)
#    0.000    1.333    5.000    1.000    7.000    0.000 
#    6.000    0.000    3.667    0.000    0.000    0.000 
#    0.000    0.000    0.000    0.000    0.000    0.000 
#
# Total GULP energy -267414.393578 kJ/mol
# GULP energy per Si atom -5571.133200 kJ/mol
# Density = 1.847637 g / cm^3
# Si number density = 18.518519 Si / 1000 Ang^3
#
#
#
# Elastic Constant Matrix: (Units=GPa)
#
#
# Indices 1 2 3 4 5 6 
#
# 1 138.3200 48.5862 24.3289 0.0000 0.0000 0.0000
# 2 48.5862 138.3200 24.3289 0.0000 0.0000 0.0000
# 3 24.3289 24.3289 54.4029 0.0000 0.0000 0.0000
# 4 0.0000 0.0000 0.0000 30.7868 0.0000 0.0000
# 5 0.0000 0.0000 0.0000 0.0000 30.7868 0.0000
# 6 0.0000 0.0000 0.0000 0.0000 0.0000 32.8923
#
#
#
# Elastic Compliance Matrix: (Units=1/GPa)
#
#
# Indices 1 2 3 4 5 6 
#
# 1 0.008600 -0.002544 -0.002708 0.000000 0.000000 0.000000
# 2 -0.002544 0.008600 -0.002708 0.000000 0.000000 0.000000
# 3 -0.002708 -0.002708 0.020803 0.000000 0.000000 0.000000
# 4 0.000000 0.000000 0.000000 0.032481 0.000000 0.000000
# 5 0.000000 0.000000 0.000000 0.000000 0.032481 0.000000
# 6 0.000000 0.000000 0.000000 0.000000 0.000000 0.030402
#
#
# Mechanical properties :
#
#
# Convention : Reuss Voigt Hill
#
# Bulk Modulus (GPa) = 45.28534 58.39232 51.83883
# Shear Modulus (GPa) = 31.91851 34.47976 33.19913
#
# Velocity S-wave (km/s) = 4.15613 4.31966 4.23869
# Velocity P-wave (km/s) = 6.89481 7.51529 7.21173
#
# Compressibility (1/GPa) = 0.02208220
#
# Stress axis : x y z
#
# Youngs Moduli (GPa) = 116.28373 116.28373 48.06933
#
# Poissons Ratio (x) = 0.29588 0.13017
# Poissons Ratio (y) = 0.29588 0.13017
# Poissons Ratio (z) = 0.31488 0.31488
#
# Static dielectric constant tensor:
#      x y z
#    x 1.644680 0.000000 0.000000 
#    y 0.000000 1.644680 0.000000 
#    z 0.000000 0.000000 1.694590 
# 
# From -- ./inp_files/3105.got.cif
#   From: 2010.05.17/outbox.ucp.g08.bks.cvg/sg92_2_cif.got.tgz:3105.got - 2010.06.11 10:36:43.
