data_PCOD9549117
_publ_section_title
;
Structure prediction by ZEFSAII (Michael W. Deem and Ramdas Pophale) SiO2 
 PCOD9549117
Probable space group: P 41 21 2
;
_chemical_formula_sum "Si O2"
_cell_formula_units_Z 64
_cell_length_a 11.791965
_cell_length_b 11.791965
_cell_length_c 22.582952
_cell_angle_alpha 90.000000
_cell_angle_beta 90.000000
_cell_angle_gamma 90.000000
_cell_volume 3140.169380
_symmetry_space_group_name_H-M "P 41 21 2"
_symmetry_group_IT_number 92
_symmetry_cell_setting 'tetragonal'
loop_
_space_group_symop_operation_xyz
x,y,z
1/2-y,1/2+x,1/4+z
-x,-y,1/2+z
1/2+y,1/2-x,3/4+z
1/2+x,1/2-y,3/4-z
1/2-x,1/2+y,1/4-z
y,x,-z
-y,-x,1/2-z
loop_
_atom_site_type_symbol
_atom_site_label
_atom_site_fract_x
_atom_site_fract_y
_atom_site_fract_z
Si Si1 0.232659 0.548500 0.012533
Si Si2 0.058511 0.029187 0.813315
Si Si3 0.753075 0.553836 0.856986
Si Si4 0.935472 0.182790 0.639373
Si Si5 0.693891 0.194271 0.691156
Si Si6 0.122893 0.739840 0.940903
Si Si7 0.622461 0.189218 0.177887
Si Si8 0.188403 0.619307 0.694610
O O1 0.341490 0.590810 0.048770
O O2 0.180563 0.440635 0.046000
O O3 0.276310 0.490595 0.951562
O O4 0.158857 0.653999 0.992506
O O5 0.951368 0.038194 0.857691
O O6 0.157901 0.958448 0.842151
O O7 0.022430 0.977571 0.750000
O O8 0.764079 0.429311 0.829062
O O9 0.705515 0.652538 0.814105
O O10 0.864211 0.599956 0.891110
O O11 0.800416 0.203435 0.645369
O O12 0.005224 0.248465 0.589446
O O13 0.739537 0.260464 0.750000
O O14 0.126130 0.666169 0.880211
O O15 0.991662 0.766718 0.945726
O O16 0.722141 0.280610 0.186795
O O17 0.618379 0.127591 0.241191
#
# Coordination Sequence:
#
# PCOD9549117 Si02
#       8
#     8   8   8   8   8   8   8   8
#     4   8  17  37  61  84 113 159 201 236 304 370
#     4   9  18  33  61  88 113 152 201 248 294 368
#     4  11  23  37  57  94 122 158 203 260 312 362
#     4   8  15  35  64  86 105 155 199 243 301 366
#     4   9  19  39  62  88 127 153 198 264 317 368
#     4  10  21  38  57  81 115 160 198 242 301 368
#     4   9  19  37  58  78 110 150 199 245 290 358
#     4  10  22  37  53  82 117 156 196 247 302 349
#
# _framework density 20.381065
#
# number of rings (size 3 to 8) (size 9 to 14) (size 15 to 20)
#    0.000    2.750    0.000    2.250    3.500    3.000 
#    6.750    6.250    0.000    0.000    0.000    0.000 
#    0.000    0.000    0.000    0.000    0.000    0.000 
#
# Total GULP energy -356525.324457 kJ/mol
# GULP energy per Si atom -5570.708195 kJ/mol
# Density = 2.033468 g / cm^3
# Si number density = 20.381065 Si / 1000 Ang^3
#
#
#
# Elastic Constant Matrix: (Units=GPa)
#
#
# Indices 1 2 3 4 5 6 
#
# 1 79.6432 29.2631 15.1280 0.0000 0.0000 0.0000
# 2 29.2631 79.6431 15.1281 0.0000 0.0000 0.0000
# 3 15.1280 15.1281 41.4284 0.0000 0.0000 0.0000
# 4 0.0000 0.0000 0.0000 20.3371 0.0000 0.0000
# 5 0.0000 0.0000 0.0000 0.0000 20.3371 0.0000
# 6 0.0000 0.0000 0.0000 0.0000 0.0000 19.2138
#
#
#
# Elastic Compliance Matrix: (Units=1/GPa)
#
#
# Indices 1 2 3 4 5 6 
#
# 1 0.015034 -0.004815 -0.003732 0.000000 0.000000 0.000000
# 2 -0.004815 0.015034 -0.003732 0.000000 0.000000 0.000000
# 3 -0.003732 -0.003732 0.026863 0.000000 0.000000 0.000000
# 4 0.000000 0.000000 0.000000 0.049171 0.000000 0.000000
# 5 0.000000 0.000000 0.000000 0.000000 0.049171 0.000000
# 6 0.000000 0.000000 0.000000 0.000000 0.000000 0.052046
#
#
# Mechanical properties :
#
#
# Convention : Reuss Voigt Hill
#
# Bulk Modulus (GPa) = 30.88814 35.52813 33.20813
# Shear Modulus (GPa) = 20.60431 21.39063 20.99747
#
# Velocity S-wave (km/s) = 3.18300 3.24317 3.21322
# Velocity P-wave (km/s) = 5.35694 5.61195 5.48593
#
# Compressibility (1/GPa) = 0.03237488
#
# Stress axis : x y z
#
# Youngs Moduli (GPa) = 66.51583 66.51573 37.22551
#
# Poissons Ratio (x) = 0.32028 0.13891
# Poissons Ratio (y) = 0.32028 0.13891
# Poissons Ratio (z) = 0.24821 0.24821
#
# Static dielectric constant tensor:
#      x y z
#    x 1.729330 0.000000 0.000000 
#    y 0.000000 1.729330 0.000000 
#    z 0.000000 0.000000 1.788670 
# 
# From -- ./inp_files/3991.got.cif
#   From: 2010.05.17/outbox.cif.g08.bks.cpg/sg92_2_cif.got.tgz:3991.got - 2010.06.03 19:35:17.
