data_PCOD9549611
_publ_section_title
;
Structure prediction by ZEFSAII (Michael W. Deem and Ramdas Pophale) SiO2 
 PCOD9549611
Probable space group: P 42 2 2
;
_chemical_formula_sum "Si O2"
_cell_formula_units_Z 48
_cell_length_a 11.999876
_cell_length_b 11.999876
_cell_length_c 20.639834
_cell_angle_alpha 90.000000
_cell_angle_beta 90.000000
_cell_angle_gamma 90.000000
_cell_volume 2972.074672
_symmetry_space_group_name_H-M "P 42 2 2"
_symmetry_group_IT_number 93
_symmetry_cell_setting 'tetragonal'
loop_
_space_group_symop_operation_xyz
x,y,z
-y,x,1/2+z
-x,-y,z
y,-x,1/2+z
x,-y,-z
-x,y,-z
y,x,1/2-z
-y,-x,1/2-z
loop_
_atom_site_type_symbol
_atom_site_label
_atom_site_fract_x
_atom_site_fract_y
_atom_site_fract_z
Si Si1 0.718754 0.176821 0.663837
Si Si2 0.302091 0.199728 0.655455
Si Si3 0.632684 0.124652 0.803077
Si Si4 0.512151 0.130402 0.576908
Si Si5 0.967930 0.880719 0.821039
Si Si6 0.373123 0.132945 0.801011
O O1 0.644731 0.165954 0.728747
O O2 0.790504 0.288937 0.658644
O O3 0.632873 0.163610 0.604967
O O4 0.809566 0.080871 0.679167
O O5 0.407898 0.194165 0.609116
O O6 0.200884 0.114446 0.640879
O O7 0.348548 0.160382 0.725631
O O8 0.233800 0.313761 0.661698
O O9 0.502710 0.131265 0.817822
O O10 0.668964 0.994827 0.810666
O O11 0.500000 0.140881 0.500000
O O12 0.500000 0.000000 0.594975
O O13 0.912294 0.912294 0.750000
O O14 0.000000 0.000000 0.850007
#
# Coordination Sequence:
#
# PCOD9549611 Si02
#       6
#     8   8   8   8   8   8
#     4  11  19  31  50  77 111 138 174 221 261 330
#     4  11  18  32  49  75 108 139 174 217 261 322
#     4  10  18  30  51  80 109 135 165 215 282 328
#     4  11  22  37  56  75 104 150 188 215 258 314
#     4  11  18  26  46  79 108 137 167 209 280 334
#     4  10  18  30  52  78 109 138 163 215 283 328
#
# _framework density 16.150334000000001
#
# number of rings (size 3 to 8) (size 9 to 14) (size 15 to 20)
#    0.000    1.333    6.667    3.000    0.000    0.000 
#    0.000    0.833    0.000    7.000    0.000    2.333 
#    0.000    0.000    0.000    0.000    0.000    0.000 
#
# Total GULP energy -267222.978012 kJ/mol
# GULP energy per Si atom -5567.145375 kJ/mol
# Density = 1.611358 g / cm^3
# Si number density = 16.150334 Si / 1000 Ang^3
#
#
#
# Elastic Constant Matrix: (Units=GPa)
#
#
# Indices 1 2 3 4 5 6 
#
# 1 113.3488 57.8139 29.0406 0.0000 0.0000 0.0000
# 2 57.8139 113.3488 29.0406 0.0000 0.0000 0.0000
# 3 29.0406 29.0406 32.4519 0.0000 0.0000 0.0000
# 4 0.0000 0.0000 0.0000 15.0577 0.0000 0.0000
# 5 0.0000 0.0000 0.0000 0.0000 15.0577 0.0000
# 6 0.0000 0.0000 0.0000 0.0000 0.0000 27.4897
#
#
#
# Elastic Compliance Matrix: (Units=1/GPa)
#
#
# Indices 1 2 3 4 5 6 
#
# 1 0.013198 -0.004808 -0.007508 0.000000 0.000000 0.000000
# 2 -0.004808 0.013198 -0.007508 0.000000 0.000000 0.000000
# 3 -0.007508 -0.007508 0.044253 0.000000 0.000000 0.000000
# 4 0.000000 0.000000 0.000000 0.066411 0.000000 0.000000
# 5 0.000000 0.000000 0.000000 0.000000 0.066411 0.000000
# 6 0.000000 0.000000 0.000000 0.000000 0.000000 0.036377
#
#
# Mechanical properties :
#
#
# Convention : Reuss Voigt Hill
#
# Bulk Modulus (GPa) = 32.25782 54.54888 43.40335
# Shear Modulus (GPa) = 17.25136 21.07131 19.16134
#
# Velocity S-wave (km/s) = 3.27184 3.61598 3.44820
# Velocity P-wave (km/s) = 5.85577 7.16120 6.54113
#
# Compressibility (1/GPa) = 0.03100024
#
# Stress axis : x y z
#
# Youngs Moduli (GPa) = 75.76655 75.76655 22.59746
#
# Poissons Ratio (x) = 0.36430 0.16967
# Poissons Ratio (y) = 0.36430 0.16967
# Poissons Ratio (z) = 0.56887 0.56887
#
# Static dielectric constant tensor:
#      x y z
#    x 1.575310 0.000000 0.000000 
#    y 0.000000 1.575310 0.000000 
#    z 0.000000 0.000000 1.533090 
# 
# From -- ./inp_files/6207.got.cif
#   From: 2010.05.17/outbox.cif.g08.bks.cpg/sg93_4_cif.got.tgz:6207.got - 2010.06.03 19:38:44.
