data_PCOD9549945
_publ_section_title
;
Structure prediction by ZEFSAII (Michael W. Deem and Ramdas Pophale) SiO2 
 PCOD9549945
Probable space group: P 42 21 2
;
_chemical_formula_sum "Si O2"
_cell_formula_units_Z 56
_cell_length_a 12.061753
_cell_length_b 12.061753
_cell_length_c 20.532312
_cell_angle_alpha 90.000000
_cell_angle_beta 90.000000
_cell_angle_gamma 90.000000
_cell_volume 2987.161591
_symmetry_space_group_name_H-M "P 42 21 2"
_symmetry_group_IT_number 94
_symmetry_cell_setting 'tetragonal'
loop_
_space_group_symop_operation_xyz
x,y,z
1/2-y,1/2+x,1/2+z
-x,-y,z
1/2+y,1/2-x,1/2+z
1/2+x,1/2-y,1/2-z
1/2-x,1/2+y,1/2-z
y,x,-z
-y,-x,-z
loop_
_atom_site_type_symbol
_atom_site_label
_atom_site_fract_x
_atom_site_fract_y
_atom_site_fract_z
Si Si1 0.653886 0.845311 0.998768
Si Si2 0.040619 0.882385 0.204037
Si Si3 0.666207 0.487634 0.974307
Si Si4 0.321126 0.119524 0.144960
Si Si5 0.112839 0.288199 0.146160
Si Si6 0.302111 0.893782 0.223788
Si Si7 0.529935 0.277140 0.169868
O O1 0.664255 0.895228 0.926818
O O2 0.750350 0.750350 0.000000
O O3 0.536036 0.783763 0.005038
O O4 0.667170 0.909656 0.067529
O O5 0.170107 0.878872 0.220024
O O6 0.999453 0.777739 0.162398
O O7 0.976457 0.863273 0.271659
O O8 0.000000 0.000000 0.175570
O O9 0.660063 0.477676 0.897485
O O10 0.578437 0.578437 0.000000
O O11 0.631087 0.368914 0.000000
O O12 0.210493 0.194703 0.149730
O O13 0.423159 0.196357 0.167548
O O14 0.322155 0.012975 0.191029
O O15 0.147692 0.374629 0.203370
O O16 0.364152 0.800453 0.180957
#
# Coordination Sequence:
#
# PCOD9549945 Si02
#       7
#     8   8   8   8   8   8   8
#     4   8  17  33  57  79 113 154 195 240 289 359
#     4  11  22  35  57  85 119 151 201 252 300 351
#     4   9  18  32  56  87 113 145 193 240 294 354
#     4  10  18  38  60  81 115 160 200 243 310 373
#     4  10  20  37  57  90 116 152 206 253 297 363
#     4  11  22  36  60  85 120 156 196 253 307 356
#     4  10  22  37  55  86 120 154 193 244 308 368
#
# _framework density 18.746893
#
# number of rings (size 3 to 8) (size 9 to 14) (size 15 to 20)
#    0.000    2.143    2.857    1.286    2.000    0.000 
#    0.000    2.143    0.000   12.000    0.000    0.000 
#    0.000    0.000    0.000    0.000    0.000    0.000 
#
# Total GULP energy -311986.842318 kJ/mol
# GULP energy per Si atom -5571.193613 kJ/mol
# Density = 1.870422 g / cm^3
# Si number density = 18.746893 Si / 1000 Ang^3
#
#
#
# Elastic Constant Matrix: (Units=GPa)
#
#
# Indices 1 2 3 4 5 6 
#
# 1 42.0626 4.1320 16.7027 0.0000 0.0000 0.0000
# 2 4.1320 42.0548 16.7036 0.0000 0.0000 0.0000
# 3 16.7027 16.7036 133.8920 0.0000 0.0000 0.0000
# 4 0.0000 0.0000 0.0000 17.1919 0.0000 0.0000
# 5 0.0000 0.0000 0.0000 0.0000 17.1936 0.0000
# 6 0.0000 0.0000 0.0000 0.0000 0.0000 24.9975
#
#
#
# Elastic Compliance Matrix: (Units=1/GPa)
#
#
# Indices 1 2 3 4 5 6 
#
# 1 0.025079 -0.001285 -0.002968 0.000000 0.000000 0.000000
# 2 -0.001285 0.025084 -0.002969 0.000000 0.000000 0.000000
# 3 -0.002968 -0.002969 0.008209 0.000000 0.000000 0.000000
# 4 0.000000 0.000000 0.000000 0.058167 0.000000 0.000000
# 5 0.000000 0.000000 0.000000 0.000000 0.058161 0.000000
# 6 0.000000 0.000000 0.000000 0.000000 0.000000 0.040004
#
#
# Mechanical properties :
#
#
# Convention : Reuss Voigt Hill
#
# Bulk Modulus (GPa) = 22.76471 32.56509 27.66490
# Shear Modulus (GPa) = 20.50931 23.90801 22.20866
#
# Velocity S-wave (km/s) = 3.31117 3.57502 3.44562
# Velocity P-wave (km/s) = 5.17572 5.86938 5.53343
#
# Compressibility (1/GPa) = 0.04392765
#
# Stress axis : x y z
#
# Youngs Moduli (GPa) = 39.87404 39.86605 121.81191
#
# Poissons Ratio (x) = 0.05123 0.36156
# Poissons Ratio (y) = 0.05124 0.36166
# Poissons Ratio (z) = 0.11835 0.11836
#
# Static dielectric constant tensor:
#      x y z
#    x 1.660770 0.000000 0.000000 
#    y 0.000000 1.660770 0.000000 
#    z 0.000000 0.000000 1.295420 
# 
# From -- ./inp_files/4729.got.cif
#   From: 2010.05.17/outbox.cif.g08.bks.cpg/sg94_3_cif.got.tgz:4729.got - 2010.06.03 19:43:16.
