data_PCOD9549655
_publ_section_title
;
Structure prediction by ZEFSAII (Michael W. Deem and Ramdas Pophale) SiO2 
 PCOD9549655
Probable space group: P 42 2 2
;
_chemical_formula_sum "Si O2"
_cell_formula_units_Z 48
_cell_length_a 9.405182
_cell_length_b 9.405182
_cell_length_c 28.389978
_cell_angle_alpha 90.000000
_cell_angle_beta 90.000000
_cell_angle_gamma 90.000000
_cell_volume 2511.305016
_symmetry_space_group_name_H-M "P 42 2 2"
_symmetry_group_IT_number 93
_symmetry_cell_setting 'tetragonal'
loop_
_space_group_symop_operation_xyz
x,y,z
-y,x,1/2+z
-x,-y,z
y,-x,1/2+z
x,-y,-z
-x,y,-z
y,x,1/2-z
-y,-x,1/2-z
loop_
_atom_site_type_symbol
_atom_site_label
_atom_site_fract_x
_atom_site_fract_y
_atom_site_fract_z
Si Si1 0.158835 0.681293 0.208027
Si Si2 0.180683 0.658902 0.792366
Si Si3 0.675305 0.720227 0.884846
Si Si4 0.660675 0.776168 0.116234
Si Si5 0.330216 0.973978 0.052381
Si Si6 0.531581 0.331851 0.550821
O O1 0.233233 0.766768 0.250000
O O2 0.196275 0.512530 0.210844
O O3 0.225951 0.742202 0.159881
O O4 0.987932 0.691561 0.209442
O O5 0.263852 0.736149 0.750000
O O6 0.248586 0.718104 0.840633
O O7 0.507985 0.749885 0.872751
O O8 0.701254 0.816150 0.930683
O O9 0.708674 0.563855 0.904582
O O10 0.686939 0.690780 0.067696
O O11 0.703149 0.932648 0.099000
O O12 0.500000 0.000000 0.048394
O O13 0.270447 0.000000 0.000000
O O14 0.500000 0.500000 0.546933
O O15 0.500000 0.266786 0.500000
#
# Coordination Sequence:
#
# PCOD9549655 Si02
#       6
#     8   8   8   8   8   8
#     4  11  25  43  63  87 117 154 198 250 306 364
#     4  11  25  43  63  87 117 154 198 250 306 364
#     4  10  19  34  58  87 121 156 195 245 292 344
#     4  10  19  34  58  87 121 156 195 245 292 344
#     4   9  18  32  55  89 125 159 197 241 288 341
#     4   9  16  28  53  87 119 153 197 243 292 337
#
# _framework density 19.113568999999998
#
# number of rings (size 3 to 8) (size 9 to 14) (size 15 to 20)
#    0.000    2.000    1.667    2.000    2.333    6.000 
#    0.000    0.000    0.000    6.000    0.000    0.000 
#    0.000    0.000    0.000    0.000    0.000    0.000 
#
# Total GULP energy -267349.114743 kJ/mol
# GULP energy per Si atom -5569.773224 kJ/mol
# Density = 1.907007 g / cm^3
# Si number density = 19.113569 Si / 1000 Ang^3
#
#
#
# Elastic Constant Matrix: (Units=GPa)
#
#
# Indices 1 2 3 4 5 6 
#
# 1 51.0761 29.8243 31.2496 0.0000 0.0000 0.0000
# 2 29.8243 51.0766 31.2494 0.0000 0.0000 0.0000
# 3 31.2496 31.2494 125.7754 0.0000 0.0000 0.0000
# 4 0.0000 0.0000 0.0000 6.8823 0.0000 0.0000
# 5 0.0000 0.0000 0.0000 0.0000 6.8826 0.0000
# 6 0.0000 0.0000 0.0000 0.0000 0.0000 17.9743
#
#
#
# Elastic Compliance Matrix: (Units=1/GPa)
#
#
# Indices 1 2 3 4 5 6 
#
# 1 0.031176 -0.015879 -0.003801 0.000000 0.000000 0.000000
# 2 -0.015879 0.031175 -0.003801 0.000000 0.000000 0.000000
# 3 -0.003801 -0.003801 0.009839 0.000000 0.000000 0.000000
# 4 0.000000 0.000000 0.000000 0.145300 0.000000 0.000000
# 5 0.000000 0.000000 0.000000 0.000000 0.145293 0.000000
# 6 0.000000 0.000000 0.000000 0.000000 0.000000 0.055635
#
#
# Mechanical properties :
#
#
# Convention : Reuss Voigt Hill
#
# Bulk Modulus (GPa) = 39.63420 45.84164 42.73792
# Shear Modulus (GPa) = 10.55324 15.38818 12.97071
#
# Velocity S-wave (km/s) = 2.35230 2.84049 2.60785
# Velocity P-wave (km/s) = 5.30650 5.89862 5.61038
#
# Compressibility (1/GPa) = 0.02523073
#
# Stress axis : x y z
#
# Youngs Moduli (GPa) = 32.07616 32.07660 101.63391
#
# Poissons Ratio (x) = 0.50933 0.38628
# Poissons Ratio (y) = 0.50933 0.38626
# Poissons Ratio (z) = 0.12191 0.12191
#
# Static dielectric constant tensor:
#      x y z
#    x 1.682280 0.000000 0.000000 
#    y 0.000000 1.682280 0.000000 
#    z 0.000000 0.000000 1.660620 
# 
# From -- ./inp_files/7806.got.cif
#   From: 2010.05.17/outbox.cif.g08.bks.cpg/sg93_4_cif.got.tgz:7806.got - 2010.06.03 19:38:44.
