data_PCOD9549448
_publ_section_title
;
Structure prediction by ZEFSAII (Michael W. Deem and Ramdas Pophale) SiO2 
 PCOD9549448
Probable space group: P 41 21 2
;
_chemical_formula_sum "Si O2"
_cell_formula_units_Z 56
_cell_length_a 12.504579
_cell_length_b 12.504579
_cell_length_c 19.554455
_cell_angle_alpha 90.000000
_cell_angle_beta 90.000000
_cell_angle_gamma 90.000000
_cell_volume 3057.622500
_symmetry_space_group_name_H-M "P 41 21 2"
_symmetry_group_IT_number 92
_symmetry_cell_setting 'tetragonal'
loop_
_space_group_symop_operation_xyz
x,y,z
1/2-y,1/2+x,1/4+z
-x,-y,1/2+z
1/2+y,1/2-x,3/4+z
1/2+x,1/2-y,3/4-z
1/2-x,1/2+y,1/4-z
y,x,-z
-y,-x,1/2-z
loop_
_atom_site_type_symbol
_atom_site_label
_atom_site_fract_x
_atom_site_fract_y
_atom_site_fract_z
Si Si1 0.224584 0.816107 0.995254
Si Si2 0.928773 0.492938 0.538294
Si Si3 0.989559 0.249613 0.563559
Si Si4 0.937781 0.610243 0.681079
Si Si5 0.026906 0.973095 0.750000
Si Si6 0.205677 0.894336 0.845204
Si Si7 0.287100 0.712901 0.750000
Si Si8 0.429958 0.715973 0.533991
O O1 0.210812 0.885478 0.926619
O O2 0.253762 0.695136 0.972027
O O3 0.321742 0.856759 0.041509
O O4 0.114422 0.812490 0.037127
O O5 0.935245 0.570011 0.603264
O O6 0.810402 0.490622 0.506392
O O7 0.957678 0.374099 0.563992
O O8 0.015110 0.522130 0.480328
O O9 0.088415 0.233752 0.512104
O O10 0.029867 0.216079 0.638088
O O11 0.018305 0.710624 0.683306
O O12 0.089800 0.923388 0.814971
O O13 0.901221 0.950288 0.753885
O O14 0.242554 0.781108 0.813618
#
# Coordination Sequence:
#
# PCOD9549448 Si02
#       8
#     8   8   8   8   4   8   4   8
#     4  11  25  41  63  96 136 165 222 263 331 384
#     4  11  24  41  68  93 128 174 226 260 319 384
#     4  11  24  40  64  97 126 170 212 273 319 387
#     4  12  22  43  65  96 131 170 216 274 312 393
#     4  11  26  42  64  91 134 170 216 257 342 384
#     4  11  23  40  65  96 126 170 205 272 330 383
#     4  11  22  38  66  97 124 158 216 267 328 374
#     4  11  24  45  64  91 130 176 213 268 319 390
#
# _framework density 18.314882999999998
#
# number of rings (size 3 to 8) (size 9 to 14) (size 15 to 20)
#    0.000    0.857    7.143    0.000    4.000    0.000 
#    0.000    0.000    0.000    4.286    0.000    0.000 
#    0.000    0.000    0.000    0.000    0.000    0.000 
#
# Total GULP energy -312921.157259 kJ/mol
# GULP energy per Si atom -5587.877808 kJ/mol
# Density = 1.827320 g / cm^3
# Si number density = 18.314883 Si / 1000 Ang^3
#
#
#
# Elastic Constant Matrix: (Units=GPa)
#
#
# Indices 1 2 3 4 5 6 
#
# 1 82.3872 12.2294 4.7790 0.0000 0.0000 0.0000
# 2 12.2294 82.3873 4.7792 0.0000 0.0000 0.0000
# 3 4.7790 4.7792 64.7719 0.0000 0.0000 0.0000
# 4 0.0000 0.0000 0.0000 24.8231 0.0000 0.0000
# 5 0.0000 0.0000 0.0000 0.0000 24.8232 0.0000
# 6 0.0000 0.0000 0.0000 0.0000 0.0000 26.7934
#
#
#
# Elastic Compliance Matrix: (Units=1/GPa)
#
#
# Indices 1 2 3 4 5 6 
#
# 1 0.012451 -0.001803 -0.000786 0.000000 0.000000 0.000000
# 2 -0.001803 0.012451 -0.000786 0.000000 0.000000 0.000000
# 3 -0.000786 -0.000786 0.015555 0.000000 0.000000 0.000000
# 4 0.000000 0.000000 0.000000 0.040285 0.000000 0.000000
# 5 0.000000 0.000000 0.000000 0.000000 0.040285 0.000000
# 6 0.000000 0.000000 0.000000 0.000000 0.000000 0.037323
#
#
# Mechanical properties :
#
#
# Convention : Reuss Voigt Hill
#
# Bulk Modulus (GPa) = 29.66591 30.34683 30.00637
# Shear Modulus (GPa) = 28.35538 29.13852 28.74695
#
# Velocity S-wave (km/s) = 3.93900 3.99303 3.96611
# Velocity P-wave (km/s) = 6.07623 6.15341 6.11494
#
# Compressibility (1/GPa) = 0.03370873
#
# Stress axis : x y z
#
# Youngs Moduli (GPa) = 80.31509 80.31515 64.28912
#
# Poissons Ratio (x) = 0.14478 0.05051
# Poissons Ratio (y) = 0.14478 0.05051
# Poissons Ratio (z) = 0.06310 0.06310
#
# Static dielectric constant tensor:
#      x y z
#    x 1.605580 0.000000 0.000000 
#    y 0.000000 1.605580 0.000000 
#    z 0.000000 0.000000 1.610830 
# 
# From -- ./inp_files/3589.got.cif
#   From: 2010.05.17/outbox.cif.g08.bks.cpg/sg92_2_cif.got.tgz:3589.got - 2010.06.03 19:35:17.
