data_PCOD9549574
_publ_section_title
;
Structure prediction by ZEFSAII (Michael W. Deem and Ramdas Pophale) SiO2 
 PCOD9549574
Probable space group: P 41 21 2
;
_chemical_formula_sum "Si O2"
_cell_formula_units_Z 28
_cell_length_a 9.658785
_cell_length_b 9.658785
_cell_length_c 11.171050
_cell_angle_alpha 90.000000
_cell_angle_beta 90.000000
_cell_angle_gamma 90.000000
_cell_volume 1042.171023
_symmetry_space_group_name_H-M "P 41 21 2"
_symmetry_group_IT_number 92
_symmetry_cell_setting 'tetragonal'
loop_
_space_group_symop_operation_xyz
x,y,z
1/2-y,1/2+x,1/4+z
-x,-y,1/2+z
1/2+y,1/2-x,3/4+z
1/2+x,1/2-y,3/4-z
1/2-x,1/2+y,1/4-z
y,x,-z
-y,-x,1/2-z
loop_
_atom_site_type_symbol
_atom_site_label
_atom_site_fract_x
_atom_site_fract_y
_atom_site_fract_z
Si Si1 0.377689 0.377689 0.000000
Si Si2 0.930597 0.840448 0.626604
Si Si3 0.055303 0.501554 0.436953
Si Si4 0.961447 0.193272 0.493058
O O1 0.366885 0.534616 0.048528
O O2 0.383386 0.295855 0.127450
O O3 0.940041 0.707960 0.709407
O O4 0.092279 0.869503 0.590271
O O5 0.849281 0.849281 0.500000
O O6 0.963504 0.556855 0.545778
O O7 0.008790 0.342294 0.449149
O O8 0.100044 0.100044 0.500000
#
# Coordination Sequence:
#
# PCOD9549574 Si02
#       4
#     4   8   8   8
#     4   8  16  38  68  96 118 176 240 270 334 434
#     4   9  20  43  66  93 132 182 231 276 348 424
#     4  12  27  43  64 104 146 177 231 295 353 419
#     4   9  20  37  70  96 129 175 231 282 342 421
#
# _framework density 26.866990999999999
#
# number of rings (size 3 to 8) (size 9 to 14) (size 15 to 20)
#    0.000    2.857    0.000    3.429    6.000    4.571 
#    5.143    0.000    0.000    0.000    0.000    0.000 
#    0.000    0.000    0.000    0.000    0.000    0.000 
#
# Total GULP energy -156108.487473 kJ/mol
# GULP energy per Si atom -5575.303124 kJ/mol
# Density = 2.680584 g / cm^3
# Si number density = 26.866991 Si / 1000 Ang^3
#
#
#
# Elastic Constant Matrix: (Units=GPa)
#
#
# Indices 1 2 3 4 5 6 
#
# 1 58.0524 11.8454 17.4254 0.0000 0.0000 0.0000
# 2 11.8454 58.0524 17.4254 0.0000 0.0000 0.0000
# 3 17.4254 17.4254 131.6417 0.0000 0.0000 0.0000
# 4 0.0000 0.0000 0.0000 28.8266 0.0000 0.0000
# 5 0.0000 0.0000 0.0000 0.0000 28.8266 0.0000
# 6 0.0000 0.0000 0.0000 0.0000 0.0000 15.3511
#
#
#
# Elastic Compliance Matrix: (Units=1/GPa)
#
#
# Indices 1 2 3 4 5 6 
#
# 1 0.018480 -0.003162 -0.002028 0.000000 0.000000 0.000000
# 2 -0.003162 0.018480 -0.002028 0.000000 0.000000 0.000000
# 3 -0.002028 -0.002028 0.008133 0.000000 0.000000 0.000000
# 4 0.000000 0.000000 0.000000 0.034690 0.000000 0.000000
# 5 0.000000 0.000000 0.000000 0.000000 0.034690 0.000000
# 6 0.000000 0.000000 0.000000 0.000000 0.000000 0.065142
#
#
# Mechanical properties :
#
#
# Convention : Reuss Voigt Hill
#
# Bulk Modulus (GPa) = 32.61802 37.90434 35.26118
# Shear Modulus (GPa) = 24.47760 28.00422 26.24091
#
# Velocity S-wave (km/s) = 3.02166 3.23201 3.12861
# Velocity P-wave (km/s) = 4.93364 5.29780 5.11896
#
# Compressibility (1/GPa) = 0.03065790
#
# Stress axis : x y z
#
# Youngs Moduli (GPa) = 54.11361 54.11361 122.95351
#
# Poissons Ratio (x) = 0.17111 0.24930
# Poissons Ratio (y) = 0.17111 0.24930
# Poissons Ratio (z) = 0.10972 0.10972
#
# Static dielectric constant tensor:
#      x y z
#    x 1.706390 0.000000 0.000000 
#    y 0.000000 1.706390 0.000000 
#    z 0.000000 0.000000 2.295050 
# 
# From -- ./inp_files/1857.got.cif
#   From: 2010.05.17/outbox.cif.g08.bks.cpg/sg92_1_cif.got.tgz:1857.got - 2010.06.03 19:35:17.
