data_PCOD9549995
_publ_section_title
;
Structure prediction by ZEFSAII (Michael W. Deem and Ramdas Pophale) SiO2 
 PCOD9549995
Probable space group: P 42 21 2
;
_chemical_formula_sum "Si O2"
_cell_formula_units_Z 48
_cell_length_a 8.967131
_cell_length_b 8.967131
_cell_length_c 30.020282
_cell_angle_alpha 90.000000
_cell_angle_beta 90.000000
_cell_angle_gamma 90.000000
_cell_volume 2413.914015
_symmetry_space_group_name_H-M "P 42 21 2"
_symmetry_group_IT_number 94
_symmetry_cell_setting 'tetragonal'
loop_
_space_group_symop_operation_xyz
x,y,z
1/2-y,1/2+x,1/2+z
-x,-y,z
1/2+y,1/2-x,1/2+z
1/2+x,1/2-y,1/2-z
1/2-x,1/2+y,1/2-z
y,x,-z
-y,-x,-z
loop_
_atom_site_type_symbol
_atom_site_label
_atom_site_fract_x
_atom_site_fract_y
_atom_site_fract_z
Si Si1 0.569293 0.663856 0.292283
Si Si2 0.574283 0.162412 0.210764
Si Si3 0.570335 0.665131 0.391854
Si Si4 0.729078 0.052718 0.520111
Si Si5 0.928779 0.665452 0.388042
Si Si6 0.721190 0.046872 0.985181
O O1 0.500000 0.500000 0.292270
O O2 0.494562 0.751392 0.252098
O O3 0.747031 0.654278 0.285594
O O4 0.539248 0.725996 0.342139
O O5 0.543074 0.228343 0.161406
O O6 0.500000 0.000000 0.210883
O O7 0.500000 0.500000 0.394851
O O8 0.750639 0.655324 0.395706
O O9 0.510767 0.761535 0.433080
O O10 0.874420 0.125581 0.500000
O O11 0.594914 0.173541 0.514399
O O12 0.749301 0.003513 0.570897
O O13 0.665856 0.910801 0.493313
O O14 0.000000 0.500000 0.389278
O O15 0.873579 0.126422 0.000000
#
# Coordination Sequence:
#
# PCOD9549995 Si02
#       6
#     8   8   8   8   8   8
#     4  10  21  41  62  92 123 155 206 250 311 374
#     4  10  21  38  66  88 120 162 198 257 309 370
#     4  10  22  37  64  88 116 157 205 257 294 353
#     4  11  24  39  57  87 122 159 200 255 300 361
#     4  10  19  40  59  87 119 157 205 240 304 373
#     4  11  22  39  60  86 118 157 206 252 290 365
#
# _framework density 19.884716999999998
#
# number of rings (size 3 to 8) (size 9 to 14) (size 15 to 20)
#    0.000    1.667    3.333    1.000    4.667    1.667 
#    3.000    3.333    0.000    0.000    0.000    0.000 
#    0.000    0.000    0.000    0.000    0.000    0.000 
#
# Total GULP energy -268092.077605 kJ/mol
# GULP energy per Si atom -5585.251617 kJ/mol
# Density = 1.983946 g / cm^3
# Si number density = 19.884717 Si / 1000 Ang^3
#
#
#
# Elastic Constant Matrix: (Units=GPa)
#
#
# Indices 1 2 3 4 5 6 
#
# 1 50.8712 38.0814 58.3975 0.0000 0.0000 0.0000
# 2 38.0814 50.8738 58.3972 0.0000 0.0000 0.0000
# 3 58.3975 58.3972 213.5221 0.0000 0.0000 0.0000
# 4 0.0000 0.0000 0.0000 36.1365 0.0000 0.0000
# 5 0.0000 0.0000 0.0000 0.0000 36.1366 0.0000
# 6 0.0000 0.0000 0.0000 0.0000 0.0000 39.7470
#
#
#
# Elastic Compliance Matrix: (Units=1/GPa)
#
#
# Indices 1 2 3 4 5 6 
#
# 1 0.047862 -0.030319 -0.004798 0.000000 0.000000 0.000000
# 2 -0.030319 0.047858 -0.004797 0.000000 0.000000 0.000000
# 3 -0.004798 -0.004797 0.007307 0.000000 0.000000 0.000000
# 4 0.000000 0.000000 0.000000 0.027673 0.000000 0.000000
# 5 0.000000 0.000000 0.000000 0.000000 0.027673 0.000000
# 6 0.000000 0.000000 0.000000 0.000000 0.000000 0.025159
#
#
# Mechanical properties :
#
#
# Convention : Reuss Voigt Hill
#
# Bulk Modulus (GPa) = 43.10464 69.44659 56.27561
# Shear Modulus (GPa) = 18.44386 33.09675 25.77031
#
# Velocity S-wave (km/s) = 3.04886 4.08417 3.60389
# Velocity P-wave (km/s) = 5.84109 7.56578 6.75868
#
# Compressibility (1/GPa) = 0.02319936
#
# Stress axis : x y z
#
# Youngs Moduli (GPa) = 20.89351 20.89515 136.84753
#
# Poissons Ratio (x) = 0.63353 0.65657
# Poissons Ratio (y) = 0.63348 0.65641
# Poissons Ratio (z) = 0.10024 0.10023
#
# Static dielectric constant tensor:
#      x y z
#    x 1.696240 0.000000 0.000000 
#    y 0.000000 1.696240 0.000000 
#    z 0.000000 0.000000 1.738060 
# 
# From -- ./inp_files/5625.got.cif
#   From: 2010.05.17/outbox.cif.g08.bks.cpg/sg94_3_cif.got.tgz:5625.got - 2010.06.03 19:43:16.
