data_PCOD9549673
_publ_section_title
;
Structure prediction by ZEFSAII (Michael W. Deem and Ramdas Pophale) SiO2 
 PCOD9549673
Probable space group: P 42 2 2
;
_chemical_formula_sum "Si O2"
_cell_formula_units_Z 54
_cell_length_a 14.171341
_cell_length_b 14.171341
_cell_length_c 15.354053
_cell_angle_alpha 90.000000
_cell_angle_beta 90.000000
_cell_angle_gamma 90.000000
_cell_volume 3083.506955
_symmetry_space_group_name_H-M "P 42 2 2"
_symmetry_group_IT_number 93
_symmetry_cell_setting 'tetragonal'
loop_
_space_group_symop_operation_xyz
x,y,z
-y,x,1/2+z
-x,-y,z
y,-x,1/2+z
x,-y,-z
-x,y,-z
y,x,1/2-z
-y,-x,1/2-z
loop_
_atom_site_type_symbol
_atom_site_label
_atom_site_fract_x
_atom_site_fract_y
_atom_site_fract_z
Si Si1 0.470527 0.643155 0.095577
Si Si2 0.952020 0.597309 0.217904
Si Si3 0.140786 0.706648 0.232056
Si Si4 0.597704 0.225110 0.614913
Si Si5 0.394660 0.394660 0.250000
Si Si6 0.500000 0.000000 0.000000
Si Si7 0.852368 0.532857 0.639524
Si Si8 0.379052 0.748354 0.421745
O O1 0.524361 0.601561 0.177920
O O2 0.496956 0.753760 0.098938
O O3 0.359647 0.628851 0.107470
O O4 0.500000 0.606499 0.000000
O O5 0.874255 0.631475 0.150947
O O6 0.897877 0.551535 0.302069
O O7 0.000000 0.500000 0.182882
O O8 0.029001 0.679507 0.233380
O O9 0.192165 0.807836 0.250000
O O10 0.171978 0.623792 0.300318
O O11 0.182477 0.681041 0.137732
O O12 0.605767 0.300872 0.691365
O O13 0.645573 0.251131 0.523826
O O14 0.486589 0.220431 0.593566
O O15 0.555472 0.070750 0.064823
#
# Coordination Sequence:
#
# PCOD9549673 Si02
#       8
#     8   8   8   8   4   2   8   8
#     4  12  23  37  55  82 118 168 208 253 309 363
#     4  10  19  37  56  84 109 151 197 247 315 355
#     4  11  20  35  58  83 116 150 193 251 312 371
#     4  11  23  38  55  80 115 155 211 256 304 357
#     4  12  24  39  58  80 117 168 204 262 295 356
#     4  12  20  32  56  88 114 146 202 256 304 392
#     4  11  20  33  57  82 114 152 196 251 309 363
#     4  11  23  37  53  81 115 158 215 254 297 367
#
# _framework density 17.512526000000001
#
# number of rings (size 3 to 8) (size 9 to 14) (size 15 to 20)
#    0.000    0.889   10.370    0.000    0.000    1.778 
#    0.000    0.000    0.000    0.000    0.000    0.519 
#    0.000    0.000    0.000    0.000    0.000    0.000 
#
# Total GULP energy -300883.397173 kJ/mol
# GULP energy per Si atom -5571.914762 kJ/mol
# Density = 1.747267 g / cm^3
# Si number density = 17.512526 Si / 1000 Ang^3
#
#
#
# Elastic Constant Matrix: (Units=GPa)
#
#
# Indices 1 2 3 4 5 6 
#
# 1 91.1288 29.3544 36.7977 0.0000 0.0000 0.0000
# 2 29.3544 91.1282 36.7973 0.0000 0.0000 0.0000
# 3 36.7977 36.7973 122.1855 0.0000 0.0000 0.0000
# 4 0.0000 0.0000 0.0000 -39.5365 0.0000 0.0000
# 5 0.0000 0.0000 0.0000 0.0000 -39.5190 0.0000
# 6 0.0000 0.0000 0.0000 0.0000 0.0000 28.0494
#
#
#
# Elastic Compliance Matrix: (Units=1/GPa)
#
#
# Indices 1 2 3 4 5 6 
#
# 1 0.013179 -0.003009 -0.003063 0.000000 0.000000 0.000000
# 2 -0.003009 0.013180 -0.003063 0.000000 0.000000 0.000000
# 3 -0.003063 -0.003063 0.010029 0.000000 0.000000 0.000000
# 4 0.000000 0.000000 0.000000 -0.025293 0.000000 0.000000
# 5 0.000000 0.000000 0.000000 0.000000 -0.025304 0.000000
# 6 0.000000 0.000000 0.000000 0.000000 0.000000 0.035651
#
#
# Mechanical properties :
#
#
# Convention : Reuss Voigt Hill
#
# Bulk Modulus (GPa) = 55.19129 56.70459 55.94794
# Shear Modulus (GPa) = 109.28653 3.23165 56.25909
#
# Velocity S-wave (km/s) = 7.90824 1.35991 5.67405
# Velocity P-wave (km/s) = 10.72244 5.90894 8.65697
#
# Compressibility (1/GPa) = 0.01811880
#
# Stress axis : x y z
#
# Youngs Moduli (GPa) = 75.87567 75.87525 99.70837
#
# Poissons Ratio (x) = 0.22827 0.30542
# Poissons Ratio (y) = 0.22827 0.30542
# Poissons Ratio (z) = 0.23242 0.23241
#
# Static dielectric constant tensor:
#      x y z
#    x 1.636510 0.000000 0.000000 
#    y 0.000000 1.636500 0.000000 
#    z 0.000000 0.000000 1.634390 
# 
# From -- ./inp_files/4566.got.cif
#   From: 2010.05.17/outbox.cif.g08.bks.cpg/sg93_3_cif.got.tgz:4566.got - 2010.06.03 19:38:44.
