data_PCOD9549323
_publ_section_title
;
Structure prediction by ZEFSAII (Michael W. Deem and Ramdas Pophale) SiO2 
 PCOD9549323
Probable space group: P 41 21 2
;
_chemical_formula_sum "Si O2"
_cell_formula_units_Z 48
_cell_length_a 11.720816
_cell_length_b 11.720816
_cell_length_c 16.679718
_cell_angle_alpha 90.000000
_cell_angle_beta 90.000000
_cell_angle_gamma 90.000000
_cell_volume 2291.418422
_symmetry_space_group_name_H-M "P 41 21 2"
_symmetry_group_IT_number 92
_symmetry_cell_setting 'tetragonal'
loop_
_space_group_symop_operation_xyz
x,y,z
1/2-y,1/2+x,1/4+z
-x,-y,1/2+z
1/2+y,1/2-x,3/4+z
1/2+x,1/2-y,3/4-z
1/2-x,1/2+y,1/4-z
y,x,-z
-y,-x,1/2-z
loop_
_atom_site_type_symbol
_atom_site_label
_atom_site_fract_x
_atom_site_fract_y
_atom_site_fract_z
Si Si1 0.709145 0.038254 0.927228
Si Si2 0.013075 0.575459 0.919343
Si Si3 0.504781 0.389137 0.675316
Si Si4 0.141218 0.423181 0.266903
Si Si5 0.468369 0.586839 0.571726
Si Si6 0.187128 0.197418 0.807290
O O1 0.833579 0.022502 0.889965
O O2 0.673662 0.170830 0.920254
O O3 0.628473 0.951955 0.878297
O O4 0.681902 0.015378 0.020227
O O5 0.917184 0.598317 0.853028
O O6 0.993894 0.458199 0.970662
O O7 0.532250 0.467751 0.750000
O O8 0.465554 0.267378 0.709069
O O9 0.432445 0.465996 0.612107
O O10 0.620951 0.364887 0.627073
O O11 0.164609 0.317645 0.208089
O O12 0.556446 0.556446 0.500000
O O13 0.372566 0.658411 0.525452
#
# Coordination Sequence:
#
# PCOD9549323 Si02
#       6
#     8   8   8   8   8   8
#     4  11  21  42  68  97 130 175 214 275 327 387
#     4  10  23  40  68  97 136 167 227 270 325 395
#     4  11  23  42  65  96 130 174 217 271 327 395
#     4  11  22  42  64  97 133 176 217 273 327 386
#     4  10  24  43  63  97 137 170 219 271 328 394
#     4  11  23  41  65  96 134 169 220 274 328 389
#
# _framework density 20.947724000000001
#
# number of rings (size 3 to 8) (size 9 to 14) (size 15 to 20)
#    0.000    1.333    3.333    2.000    0.000    6.000 
#    0.000    0.000    0.000    0.000    0.000    0.000 
#    0.000    0.000    0.000    0.000    0.000    0.000 
#
# Total GULP energy -267626.545354 kJ/mol
# GULP energy per Si atom -5575.553028 kJ/mol
# Density = 2.090005 g / cm^3
# Si number density = 20.947724 Si / 1000 Ang^3
#
#
#
# Elastic Constant Matrix: (Units=GPa)
#
#
# Indices 1 2 3 4 5 6 
#
# 1 25.6953 4.0725 14.1806 0.0000 0.0000 0.0000
# 2 4.0725 25.6959 14.1811 0.0000 0.0000 0.0000
# 3 14.1806 14.1811 96.6325 0.0000 0.0000 0.0000
# 4 0.0000 0.0000 0.0000 34.1180 0.0000 0.0000
# 5 0.0000 0.0000 0.0000 0.0000 34.1186 0.0000
# 6 0.0000 0.0000 0.0000 0.0000 0.0000 -136.1500
#
#
#
# Elastic Compliance Matrix: (Units=1/GPa)
#
#
# Indices 1 2 3 4 5 6 
#
# 1 0.042650 -0.003597 -0.005731 0.000000 0.000000 0.000000
# 2 -0.003597 0.042650 -0.005731 0.000000 0.000000 0.000000
# 3 -0.005731 -0.005731 0.012031 0.000000 0.000000 0.000000
# 4 0.000000 0.000000 0.000000 0.029310 0.000000 0.000000
# 5 0.000000 0.000000 0.000000 0.000000 0.029310 0.000000
# 6 0.000000 0.000000 0.000000 0.000000 0.000000 -0.007345
#
#
# Mechanical properties :
#
#
# Convention : Reuss Voigt Hill
#
# Bulk Modulus (GPa) = 14.87813 23.65468 19.26641
# Shear Modulus (GPa) = 24.85983 -5.87673 9.49155
#
# Velocity S-wave (km/s) = 3.44867 -1.67676 2.13094
# Velocity P-wave (km/s) = 4.79330 2.75101 3.90793
#
# Compressibility (1/GPa) = 0.06721273
#
# Stress axis : x y z
#
# Youngs Moduli (GPa) = 23.44641 23.44684 83.12163
#
# Poissons Ratio (x) = 0.08433 0.47637
# Poissons Ratio (y) = 0.08433 0.47638
# Poissons Ratio (z) = 0.13437 0.13438
#
# Static dielectric constant tensor:
#      x y z
#    x 1.770620 0.000000 0.000000 
#    y 0.000000 1.770620 0.000000 
#    z 0.000000 0.000000 1.752680 
# 
# From -- ./inp_files/3146.got.cif
#   From: 2010.05.17/outbox.cif.g08.bks.cpg/sg92_2_cif.got.tgz:3146.got - 2010.06.03 19:35:17.
