data_PCOD9549593
_publ_section_title
;
Structure prediction by ZEFSAII (Michael W. Deem and Ramdas Pophale) SiO2 
 PCOD9549593
Probable space group: P 42 2 2
;
_chemical_formula_sum "Si O2"
_cell_formula_units_Z 48
_cell_length_a 17.700894
_cell_length_b 17.700894
_cell_length_c 9.792995
_cell_angle_alpha 90.000000
_cell_angle_beta 90.000000
_cell_angle_gamma 90.000000
_cell_volume 3068.357336
_symmetry_space_group_name_H-M "P 42 2 2"
_symmetry_group_IT_number 93
_symmetry_cell_setting 'tetragonal'
loop_
_space_group_symop_operation_xyz
x,y,z
-y,x,1/2+z
-x,-y,z
y,-x,1/2+z
x,-y,-z
-x,y,-z
y,x,1/2-z
-y,-x,1/2-z
loop_
_atom_site_type_symbol
_atom_site_label
_atom_site_fract_x
_atom_site_fract_y
_atom_site_fract_z
Si Si1 0.616610 0.961092 0.859054
Si Si2 0.916946 0.258627 0.746743
Si Si3 0.921360 0.571956 0.918846
Si Si4 0.266746 0.142711 0.553416
Si Si5 0.149284 0.739396 0.465692
Si Si6 0.165350 0.948853 0.227506
O O1 0.558439 0.940172 0.740223
O O2 0.663330 0.885618 0.901986
O O3 0.675714 0.020957 0.788945
O O4 0.590929 0.000000 0.000000
O O5 0.884018 0.259972 0.897201
O O6 0.855881 0.265742 0.628086
O O7 0.963510 0.181406 0.729199
O O8 0.890058 0.500000 0.000000
O O9 0.868597 0.645205 0.917191
O O10 0.000000 0.589837 0.000000
O O11 0.229649 0.225154 0.574071
O O12 0.217767 0.088122 0.652279
O O13 0.088758 0.801277 0.410067
O O14 0.081923 0.918078 0.250000
#
# Coordination Sequence:
#
# PCOD9549593 Si02
#       6
#     8   8   8   8   8   8
#     4   9  17  31  47  64  91 113 142 193 229 271
#     4  10  16  27  42  62  83 107 139 187 231 268
#     4  11  20  31  46  65  86 115 147 182 231 268
#     4  11  17  28  43  64  84 110 144 190 226 270
#     4   9  18  26  44  63  82 108 144 183 234 266
#     4   9  16  25  41  60  80 109 140 181 238 271
#
# _framework density 15.643549999999999
#
# number of rings (size 3 to 8) (size 9 to 14) (size 15 to 20)
#    0.000    2.167    5.000    2.500    0.000    0.000 
#    0.000    1.667    0.000    2.000    0.000   18.667 
#    0.000    0.000    0.000    0.000    0.000    0.000 
#
# Total GULP energy -267243.284094 kJ/mol
# GULP energy per Si atom -5567.568419 kJ/mol
# Density = 1.560794 g / cm^3
# Si number density = 15.643550 Si / 1000 Ang^3
#
#
#
# Elastic Constant Matrix: (Units=GPa)
#
#
# Indices 1 2 3 4 5 6 
#
# 1 47.3742 25.0424 16.3009 0.0000 0.0000 0.0000
# 2 25.0424 47.3732 16.3008 0.0000 0.0000 0.0000
# 3 16.3009 16.3008 127.1517 0.0000 0.0000 0.0000
# 4 0.0000 0.0000 0.0000 9.9971 0.0000 0.0000
# 5 0.0000 0.0000 0.0000 0.0000 9.9976 0.0000
# 6 0.0000 0.0000 0.0000 0.0000 0.0000 10.5824
#
#
#
# Elastic Compliance Matrix: (Units=1/GPa)
#
#
# Indices 1 2 3 4 5 6 
#
# 1 0.029717 -0.015063 -0.001879 0.000000 0.000000 0.000000
# 2 -0.015063 0.029718 -0.001879 0.000000 0.000000 0.000000
# 3 -0.001879 -0.001879 0.008346 0.000000 0.000000 0.000000
# 4 0.000000 0.000000 0.000000 0.100029 0.000000 0.000000
# 5 0.000000 0.000000 0.000000 0.000000 0.100024 0.000000
# 6 0.000000 0.000000 0.000000 0.000000 0.000000 0.094496
#
#
# Mechanical properties :
#
#
# Convention : Reuss Voigt Hill
#
# Bulk Modulus (GPa) = 33.17730 37.46527 35.32128
# Shear Modulus (GPa) = 12.19459 17.06577 14.63018
#
# Velocity S-wave (km/s) = 2.79503 3.30648 3.06146
# Velocity P-wave (km/s) = 5.62766 6.21115 5.92659
#
# Compressibility (1/GPa) = 0.03014109
#
# Stress axis : x y z
#
# Youngs Moduli (GPa) = 33.65047 33.64976 119.81311
#
# Poissons Ratio (x) = 0.50686 0.22510
# Poissons Ratio (y) = 0.50687 0.22510
# Poissons Ratio (z) = 0.06322 0.06322
#
# Static dielectric constant tensor:
#      x y z
#    x 1.548320 0.000000 0.000000 
#    y 0.000000 1.548320 0.000000 
#    z 0.000000 0.000000 1.572100 
# 
# From -- ./inp_files/2202.got.cif
#   From: 2010.05.17/outbox.cif.g08.bks.cpg/sg93_2_cif.got.tgz:2202.got - 2010.06.03 19:38:44.
