data_PCOD9549079
_publ_section_title
;
Structure prediction by ZEFSAII (Michael W. Deem and Ramdas Pophale) SiO2 
 PCOD9549079
Probable space group: P 41 21 2
;
_chemical_formula_sum "Si O2"
_cell_formula_units_Z 32
_cell_length_a 8.048570
_cell_length_b 8.048570
_cell_length_c 18.747158
_cell_angle_alpha 90.000000
_cell_angle_beta 90.000000
_cell_angle_gamma 90.000000
_cell_volume 1214.431129
_symmetry_space_group_name_H-M "P 41 21 2"
_symmetry_group_IT_number 92
_symmetry_cell_setting 'tetragonal'
loop_
_space_group_symop_operation_xyz
x,y,z
1/2-y,1/2+x,1/4+z
-x,-y,1/2+z
1/2+y,1/2-x,3/4+z
1/2+x,1/2-y,3/4-z
1/2-x,1/2+y,1/4-z
y,x,-z
-y,-x,1/2-z
loop_
_atom_site_type_symbol
_atom_site_label
_atom_site_fract_x
_atom_site_fract_y
_atom_site_fract_z
Si Si1 0.724926 0.213053 0.536799
Si Si2 0.103532 0.748029 0.312543
Si Si3 0.455735 0.599264 0.664436
Si Si4 0.569292 0.753920 0.939338
O O1 0.775398 0.409396 0.541975
O O2 0.651957 0.162378 0.615681
O O3 0.595887 0.170973 0.474981
O O4 0.890544 0.102192 0.530870
O O5 0.239556 0.760445 0.250000
O O6 0.111900 0.937365 0.341760
O O7 0.317795 0.471597 0.638315
O O8 0.368816 0.772581 0.681031
O O9 0.622573 0.622573 0.000000
#
# Coordination Sequence:
#
# PCOD9549079 Si02
#       4
#     8   8   8   8
#     4  10  20  41  71 100 138 186 235 294 359 430
#     4  10  20  44  70  98 140 181 244 288 356 439
#     4  10  25  41  73 106 138 195 240 294 378 414
#     4  12  23  48  71 102 157 182 245 312 357 453
#
# _framework density 26.349786999999999
#
# number of rings (size 3 to 8) (size 9 to 14) (size 15 to 20)
#    1.500    0.000    5.000    0.000    0.000    8.000 
#    0.000    1.250    0.000    0.000    0.000    0.000 
#    0.000    0.000    0.000    0.000    0.000    0.000 
#
# Total GULP energy -178457.349530 kJ/mol
# GULP energy per Si atom -5576.792173 kJ/mol
# Density = 2.628981 g / cm^3
# Si number density = 26.349787 Si / 1000 Ang^3
#
#
#
# Elastic Constant Matrix: (Units=GPa)
#
#
# Indices 1 2 3 4 5 6 
#
# 1 -22.7647 157.2095 17.0058 0.0000 0.0000 0.0000
# 2 157.2095 -22.7671 17.0079 0.0000 0.0000 0.0000
# 3 17.0058 17.0079 72.9457 0.0000 0.0000 0.0000
# 4 0.0000 0.0000 0.0000 32.6638 0.0000 0.0000
# 5 0.0000 0.0000 0.0000 0.0000 32.6634 0.0000
# 6 0.0000 0.0000 0.0000 0.0000 0.0000 46.7899
#
#
#
# Elastic Compliance Matrix: (Units=1/GPa)
#
#
# Indices 1 2 3 4 5 6 
#
# 1 0.001174 0.006730 -0.001843 0.000000 0.000000 0.000000
# 2 0.006730 0.001174 -0.001843 0.000000 0.000000 0.000000
# 3 -0.001843 -0.001843 0.014568 0.000000 0.000000 0.000000
# 4 0.000000 0.000000 0.000000 0.030615 0.000000 0.000000
# 5 0.000000 0.000000 0.000000 0.000000 0.030615 0.000000
# 6 0.000000 0.000000 0.000000 0.000000 0.000000 0.021372
#
#
# Mechanical properties :
#
#
# Convention : Reuss Voigt Hill
#
# Bulk Modulus (GPa) = 43.46812 45.54000 44.50406
# Shear Modulus (GPa) = 49.45714 11.50281 30.47997
#
# Velocity S-wave (km/s) = 4.33707 2.09163 3.40478
# Velocity P-wave (km/s) = 6.45079 4.81182 5.69062
#
# Compressibility (1/GPa) = 0.02300537
#
# Stress axis : x y z
#
# Youngs Moduli (GPa) = 851.74198 851.84932 68.64306
#
# Poissons Ratio (x) = -5.73321 0.12650
# Poissons Ratio (y) = -5.73248 0.12649
# Poissons Ratio (z) = 1.56970 1.56973
#
# Static dielectric constant tensor:
#      x y z
#    x 2.180100 0.000000 0.000000 
#    y 0.000000 2.180110 0.000000 
#    z 0.000000 0.000000 2.123170 
# 
# From -- ./inp_files/3689.got.cif
#   From: 2010.05.17/outbox.cif.g08.bks.cpg/sg92_2_cif.got.tgz:3689.got - 2010.06.03 19:35:17.
