data_PCOD9549041
_publ_section_title
;
Structure prediction by ZEFSAII (Michael W. Deem and Ramdas Pophale) SiO2 
 PCOD9549041
Probable space group: P 41 21 2
;
_chemical_formula_sum "Si O2"
_cell_formula_units_Z 48
_cell_length_a 11.484537
_cell_length_b 11.484537
_cell_length_c 18.620466
_cell_angle_alpha 90.000000
_cell_angle_beta 90.000000
_cell_angle_gamma 90.000000
_cell_volume 2455.938731
_symmetry_space_group_name_H-M "P 41 21 2"
_symmetry_group_IT_number 92
_symmetry_cell_setting 'tetragonal'
loop_
_space_group_symop_operation_xyz
x,y,z
1/2-y,1/2+x,1/4+z
-x,-y,1/2+z
1/2+y,1/2-x,3/4+z
1/2+x,1/2-y,3/4-z
1/2-x,1/2+y,1/4-z
y,x,-z
-y,-x,1/2-z
loop_
_atom_site_type_symbol
_atom_site_label
_atom_site_fract_x
_atom_site_fract_y
_atom_site_fract_z
Si Si1 0.378895 0.514652 0.550915
Si Si2 0.345754 0.178723 0.213189
Si Si3 0.000500 0.551091 0.568210
Si Si4 0.198082 0.378792 0.619371
Si Si5 0.609401 0.183527 0.552027
Si Si6 0.826636 0.932222 0.932663
O O1 0.484890 0.484890 0.500000
O O2 0.329363 0.412635 0.601260
O O3 0.272227 0.535963 0.496905
O O4 0.410056 0.613174 0.606992
O O5 0.400587 0.049114 0.196771
O O6 0.338820 0.186822 0.299172
O O7 0.225706 0.237783 0.186034
O O8 0.443572 0.267657 0.186519
O O9 0.946538 0.644869 0.622737
O O10 0.106809 0.484985 0.609322
O O11 0.064365 0.608022 0.497876
O O12 0.157568 0.280043 0.564986
O O13 0.909353 0.909353 0.000000
#
# Coordination Sequence:
#
# PCOD9549041 Si02
#       6
#     8   8   8   8   8   8
#     4  11  24  36  61  96 126 158 214 279 324 389
#     4  11  22  40  64  91 126 168 215 264 325 396
#     4  10  23  42  64  94 128 168 211 268 319 390
#     4  10  20  38  62  90 121 159 207 263 329 378
#     4  11  24  41  67  92 128 175 216 263 332 397
#     4  11  22  38  61  90 126 163 207 270 331 378
#
# _framework density 19.544461999999999
#
# number of rings (size 3 to 8) (size 9 to 14) (size 15 to 20)
#    0.000    1.333    5.000    0.500    2.333    1.333 
#    0.000    0.833    0.000    0.000    0.000    0.000 
#    0.000    0.000    0.000    0.000    0.000    0.000 
#
# Total GULP energy -267208.723720 kJ/mol
# GULP energy per Si atom -5566.848411 kJ/mol
# Density = 1.949998 g / cm^3
# Si number density = 19.544462 Si / 1000 Ang^3
#
#
#
# Elastic Constant Matrix: (Units=GPa)
#
#
# Indices 1 2 3 4 5 6 
#
# 1 -66.2452 133.8509 13.1525 0.0000 0.0000 0.0000
# 2 133.8509 -66.2452 13.1525 0.0000 0.0000 0.0000
# 3 13.1525 13.1525 49.1618 0.0000 0.0000 0.0000
# 4 0.0000 0.0000 0.0000 85.1892 0.0000 0.0000
# 5 0.0000 0.0000 0.0000 0.0000 85.1892 0.0000
# 6 0.0000 0.0000 0.0000 0.0000 0.0000 24.6998
#
#
#
# Elastic Compliance Matrix: (Units=1/GPa)
#
#
# Indices 1 2 3 4 5 6 
#
# 1 0.005756 0.010754 -0.004417 0.000000 0.000000 0.000000
# 2 0.010754 0.005756 -0.004417 0.000000 0.000000 0.000000
# 3 -0.004417 -0.004417 0.022704 0.000000 0.000000 0.000000
# 4 0.000000 0.000000 0.000000 0.011739 0.000000 0.000000
# 5 0.000000 0.000000 0.000000 0.000000 0.011739 0.000000
# 6 0.000000 0.000000 0.000000 0.000000 0.000000 0.040486
#
#
# Mechanical properties :
#
#
# Convention : Reuss Voigt Hill
#
# Bulk Modulus (GPa) = 26.27656 26.33147 26.30402
# Shear Modulus (GPa) = 46.71738 22.78335 34.75036
#
# Velocity S-wave (km/s) = 4.89439 3.41797 4.22123
# Velocity P-wave (km/s) = 6.73897 5.39245 6.10296
#
# Compressibility (1/GPa) = 0.03805673
#
# Stress axis : x y z
#
# Youngs Moduli (GPa) = 173.72045 173.72045 44.04421
#
# Poissons Ratio (x) = -1.86819 0.19455
# Poissons Ratio (y) = -1.86819 0.19455
# Poissons Ratio (z) = 0.76734 0.76734
#
# Static dielectric constant tensor:
#      x y z
#    x 1.668610 0.000000 0.000000 
#    y 0.000000 1.668610 0.000000 
#    z 0.000000 0.000000 1.686080 
# 
# From -- ./inp_files/3112.got.cif
#   From: 2010.05.17/outbox.cif.g08.bks.cpg/sg92_2_cif.got.tgz:3112.got - 2010.06.03 19:35:17.
