data_PCOD9549459
_publ_section_title
;
Structure prediction by ZEFSAII (Michael W. Deem and Ramdas Pophale) SiO2 
 PCOD9549459
Probable space group: P 41 21 2
;
_chemical_formula_sum "Si O2"
_cell_formula_units_Z 40
_cell_length_a 11.416281
_cell_length_b 11.416281
_cell_length_c 14.753648
_cell_angle_alpha 90.000000
_cell_angle_beta 90.000000
_cell_angle_gamma 90.000000
_cell_volume 1922.864659
_symmetry_space_group_name_H-M "P 41 21 2"
_symmetry_group_IT_number 92
_symmetry_cell_setting 'tetragonal'
loop_
_space_group_symop_operation_xyz
x,y,z
1/2-y,1/2+x,1/4+z
-x,-y,1/2+z
1/2+y,1/2-x,3/4+z
1/2+x,1/2-y,3/4-z
1/2-x,1/2+y,1/4-z
y,x,-z
-y,-x,1/2-z
loop_
_atom_site_type_symbol
_atom_site_label
_atom_site_fract_x
_atom_site_fract_y
_atom_site_fract_z
Si Si1 0.609073 0.734854 0.310289
Si Si2 0.234188 0.939898 0.555366
Si Si3 0.483455 0.521973 0.105922
Si Si4 0.790235 0.455846 0.855063
Si Si5 0.840201 0.641335 0.012272
O O1 0.710626 0.683962 0.244182
O O2 0.561102 0.616906 0.355763
O O3 0.648478 0.831976 0.381122
O O4 0.513574 0.793722 0.243759
O O5 0.108272 0.985086 0.592800
O O6 0.315319 0.920995 0.642789
O O7 0.291268 0.037273 0.491963
O O8 0.440202 0.653360 0.123334
O O9 0.503080 0.503080 0.000000
O O10 0.834584 0.548495 0.930276
O O11 0.734537 0.734537 0.000000
#
# Coordination Sequence:
#
# PCOD9549459 Si02
#       5
#     8   8   8   8   8
#     4  11  25  43  71  97 143 180 233 278 353 418
#     4  11  23  42  71 106 130 182 232 290 341 415
#     4  11  22  44  71  98 135 182 227 273 353 416
#     4  11  22  44  66  98 137 181 220 291 341 403
#     4  12  21  40  75  97 138 173 236 290 336 407
#
# _framework density 20.802296999999999
#
# number of rings (size 3 to 8) (size 9 to 14) (size 15 to 20)
#    0.000    0.800    6.000    4.800    0.000    3.200 
#    7.200    0.000    4.400    0.000    0.000    0.000 
#    0.000    0.000    0.000    0.000    0.000    0.000 
#
# Total GULP energy -223761.817353 kJ/mol
# GULP energy per Si atom -5594.045434 kJ/mol
# Density = 2.075495 g / cm^3
# Si number density = 20.802297 Si / 1000 Ang^3
#
#
#
# Elastic Constant Matrix: (Units=GPa)
#
#
# Indices 1 2 3 4 5 6 
#
# 1 76.4442 50.3253 17.7151 0.0000 0.0000 0.0000
# 2 50.3253 76.4442 17.7151 0.0000 0.0000 0.0000
# 3 17.7151 17.7151 28.5563 0.0000 0.0000 0.0000
# 4 0.0000 0.0000 0.0000 19.8930 0.0000 0.0000
# 5 0.0000 0.0000 0.0000 0.0000 19.8930 0.0000
# 6 0.0000 0.0000 0.0000 0.0000 0.0000 36.9337
#
#
#
# Elastic Compliance Matrix: (Units=1/GPa)
#
#
# Indices 1 2 3 4 5 6 
#
# 1 0.023915 -0.014372 -0.005920 0.000000 0.000000 0.000000
# 2 -0.014372 0.023915 -0.005920 0.000000 0.000000 0.000000
# 3 -0.005920 -0.005920 0.042364 0.000000 0.000000 0.000000
# 4 0.000000 0.000000 0.000000 0.050269 0.000000 0.000000
# 5 0.000000 0.000000 0.000000 0.000000 0.050269 0.000000
# 6 0.000000 0.000000 0.000000 0.000000 0.000000 0.027076
#
#
# Mechanical properties :
#
#
# Convention : Reuss Voigt Hill
#
# Bulk Modulus (GPa) = 26.47648 39.21729 32.84688
# Shear Modulus (GPa) = 17.67911 21.72322 19.70116
#
# Velocity S-wave (km/s) = 2.91840 3.23502 3.08078
# Velocity P-wave (km/s) = 4.91034 5.73124 5.33660
#
# Compressibility (1/GPa) = 0.03776938
#
# Stress axis : x y z
#
# Youngs Moduli (GPa) = 41.81537 41.81537 23.60515
#
# Poissons Ratio (x) = 0.60096 0.13974
# Poissons Ratio (y) = 0.60096 0.13974
# Poissons Ratio (z) = 0.24755 0.24755
#
# Static dielectric constant tensor:
#      x y z
#    x 1.744510 0.000000 0.000000 
#    y 0.000000 1.744510 0.000000 
#    z 0.000000 0.000000 1.810790 
# 
# From -- ./inp_files/2655.got.cif
#   From: 2010.05.17/outbox.cif.g08.bks.cpg/sg92_2_cif.got.tgz:2655.got - 2010.06.03 19:35:17.
