data_PCOD9549092
_publ_section_title
;
Structure prediction by ZEFSAII (Michael W. Deem and Ramdas Pophale) SiO2 
 PCOD9549092
Probable space group: P 41 21 2
;
_chemical_formula_sum "Si O2"
_cell_formula_units_Z 40
_cell_length_a 11.087047
_cell_length_b 11.087047
_cell_length_c 12.973842
_cell_angle_alpha 90.000000
_cell_angle_beta 90.000000
_cell_angle_gamma 90.000000
_cell_volume 1594.778536
_symmetry_space_group_name_H-M "P 41 21 2"
_symmetry_group_IT_number 92
_symmetry_cell_setting 'tetragonal'
loop_
_space_group_symop_operation_xyz
x,y,z
1/2-y,1/2+x,1/4+z
-x,-y,1/2+z
1/2+y,1/2-x,3/4+z
1/2+x,1/2-y,3/4-z
1/2-x,1/2+y,1/4-z
y,x,-z
-y,-x,1/2-z
loop_
_atom_site_type_symbol
_atom_site_label
_atom_site_fract_x
_atom_site_fract_y
_atom_site_fract_z
Si Si1 0.121166 0.436847 0.124797
Si Si2 0.597668 0.688324 0.820030
Si Si3 0.303818 0.659192 0.630801
Si Si4 0.209996 0.037878 0.948729
Si Si5 0.537728 0.799798 0.600533
O O1 0.215677 0.468882 0.212232
O O2 0.034239 0.555678 0.117880
O O3 0.060272 0.307245 0.140851
O O4 0.186475 0.414424 0.015432
O O5 0.729737 0.714232 0.865614
O O6 0.479705 0.735633 0.880742
O O7 0.596106 0.544037 0.829520
O O8 0.596186 0.740087 0.702571
O O9 0.340717 0.659284 0.750000
O O10 0.421850 0.715640 0.578094
O O11 0.157016 0.157016 0.000000
#
# Coordination Sequence:
#
# PCOD9549092 Si02
#       5
#     8   8   8   8   8
#     4  10  24  40  72 102 142 194 251 311 390 458
#     4  11  24  45  72 103 154 192 256 316 389 472
#     4  10  23  42  70 101 144 196 245 315 384 464
#     4  11  26  45  69 111 146 195 256 323 388 469
#     4  10  20  43  68 104 142 197 243 313 384 461
#
# _framework density 25.081855000000001
#
# number of rings (size 3 to 8) (size 9 to 14) (size 15 to 20)
#    0.000    1.600    2.000    1.800    8.400    1.600 
#    3.600    0.000    0.000    0.000    0.000    0.000 
#    0.000    0.000    0.000    0.000    0.000    0.000 
#
# Total GULP energy -222782.899880 kJ/mol
# GULP energy per Si atom -5569.572497 kJ/mol
# Density = 2.502477 g / cm^3
# Si number density = 25.081855 Si / 1000 Ang^3
#
#
#
# Elastic Constant Matrix: (Units=GPa)
#
#
# Indices 1 2 3 4 5 6 
#
# 1 107.2139 51.4827 16.1152 0.0000 0.0000 0.0000
# 2 51.4827 107.2141 16.1150 0.0000 0.0000 0.0000
# 3 16.1152 16.1150 77.6446 0.0000 0.0000 0.0000
# 4 0.0000 0.0000 0.0000 24.4135 0.0000 0.0000
# 5 0.0000 0.0000 0.0000 0.0000 24.4136 0.0000
# 6 0.0000 0.0000 0.0000 0.0000 0.0000 44.1545
#
#
#
# Elastic Compliance Matrix: (Units=1/GPa)
#
#
# Indices 1 2 3 4 5 6 
#
# 1 0.012261 -0.005682 -0.001365 0.000000 0.000000 0.000000
# 2 -0.005682 0.012261 -0.001365 0.000000 0.000000 0.000000
# 3 -0.001365 -0.001365 0.013446 0.000000 0.000000 0.000000
# 4 0.000000 0.000000 0.000000 0.040961 0.000000 0.000000
# 5 0.000000 0.000000 0.000000 0.000000 0.040961 0.000000
# 6 0.000000 0.000000 0.000000 0.000000 0.000000 0.022648
#
#
# Mechanical properties :
#
#
# Convention : Reuss Voigt Hill
#
# Bulk Modulus (GPa) = 47.29999 51.05540 49.17769
# Shear Modulus (GPa) = 30.04615 32.48696 31.26656
#
# Velocity S-wave (km/s) = 3.46486 3.60285 3.53453
# Velocity P-wave (km/s) = 5.90815 6.14060 6.02550
#
# Compressibility (1/GPa) = 0.02114165
#
# Stress axis : x y z
#
# Youngs Moduli (GPa) = 81.55978 81.55995 74.37171
#
# Poissons Ratio (x) = 0.46345 0.10155
# Poissons Ratio (y) = 0.46345 0.10154
# Poissons Ratio (z) = 0.11136 0.11136
#
# Static dielectric constant tensor:
#      x y z
#    x 2.165120 0.000000 0.000000 
#    y 0.000000 2.165110 0.000000 
#    z 0.000000 0.000000 1.958890 
# 
# From -- ./inp_files/2652.got.cif
#   From: 2010.05.17/outbox.cif.g08.bks.cpg/sg92_2_cif.got.tgz:2652.got - 2010.06.03 19:35:17.
