data_PCOD9549204
_publ_section_title
;
Structure prediction by ZEFSAII (Michael W. Deem and Ramdas Pophale) SiO2 
 PCOD9549204
Probable space group: P 41 21 2
;
_chemical_formula_sum "Si O2"
_cell_formula_units_Z 64
_cell_length_a 11.308050
_cell_length_b 11.308050
_cell_length_c 24.716641
_cell_angle_alpha 90.000000
_cell_angle_beta 90.000000
_cell_angle_gamma 90.000000
_cell_volume 3160.566189
_symmetry_space_group_name_H-M "P 41 21 2"
_symmetry_group_IT_number 92
_symmetry_cell_setting 'tetragonal'
loop_
_space_group_symop_operation_xyz
x,y,z
1/2-y,1/2+x,1/4+z
-x,-y,1/2+z
1/2+y,1/2-x,3/4+z
1/2+x,1/2-y,3/4-z
1/2-x,1/2+y,1/4-z
y,x,-z
-y,-x,1/2-z
loop_
_atom_site_type_symbol
_atom_site_label
_atom_site_fract_x
_atom_site_fract_y
_atom_site_fract_z
Si Si1 0.504211 0.043915 0.202337
Si Si2 0.756320 0.866216 0.897738
Si Si3 0.098120 0.190339 0.051353
Si Si4 0.881983 0.196700 0.190052
Si Si5 0.618091 0.828196 0.251572
Si Si6 0.305467 0.852661 0.532876
Si Si7 0.087636 0.363551 0.138497
Si Si8 0.586380 0.522534 0.160129
O O1 0.559484 0.164008 0.181637
O O2 0.412026 0.089848 0.247896
O O3 0.606436 0.959906 0.227188
O O4 0.454022 0.967224 0.151973
O O5 0.764906 0.737374 0.924619
O O6 0.701191 0.854195 0.838397
O O7 0.885341 0.918715 0.899071
O O8 0.148687 0.264144 0.101087
O O9 0.980181 0.260344 0.033101
O O10 0.180995 0.180995 0.000000
O O11 0.040050 0.066025 0.067181
O O12 0.859885 0.140116 0.250000
O O13 0.986469 0.287879 0.171265
O O14 0.892495 0.091796 0.146018
O O15 0.739989 0.757823 0.246029
O O16 0.583995 0.833239 0.314126
O O17 0.197453 0.941520 0.550701
#
# Coordination Sequence:
#
# PCOD9549204 Si02
#       8
#     8   8   8   8   8   8   8   8
#     4  11  23  39  62  93 125 172 216 262 323 395
#     4  11  23  33  61  89 126 159 204 268 313 389
#     4   9  20  39  63  86 119 166 206 258 312 382
#     4  10  22  35  59  89 122 167 204 254 326 387
#     4  10  22  40  64  88 130 163 207 270 320 381
#     4  10  24  39  59  92 128 169 211 266 327 381
#     4  10  22  40  60  90 123 167 219 253 314 395
#     4   9  22  37  55  90 126 154 207 256 324 385
#
# _framework density 20.249537
#
# number of rings (size 3 to 8) (size 9 to 14) (size 15 to 20)
#    0.000    2.000    0.000    3.750   15.750    1.000 
#    0.000    0.000    0.000    0.000    0.000    0.000 
#    0.000    0.000    0.000    0.000    0.000    0.000 
#
# Total GULP energy -356831.780984 kJ/mol
# GULP energy per Si atom -5575.496578 kJ/mol
# Density = 2.020345 g / cm^3
# Si number density = 20.249537 Si / 1000 Ang^3
#
#
#
# Elastic Constant Matrix: (Units=GPa)
#
#
# Indices 1 2 3 4 5 6 
#
# 1 28.1629 42.8257 8.3087 0.0000 0.0000 0.0000
# 2 42.8257 28.1629 8.3090 0.0000 0.0000 0.0000
# 3 8.3087 8.3090 97.9722 0.0000 0.0000 0.0000
# 4 0.0000 0.0000 0.0000 -60.0618 0.0000 0.0000
# 5 0.0000 0.0000 0.0000 0.0000 -60.0263 0.0000
# 6 0.0000 0.0000 0.0000 0.0000 0.0000 6.9704
#
#
#
# Elastic Compliance Matrix: (Units=1/GPa)
#
#
# Indices 1 2 3 4 5 6 
#
# 1 -0.026914 0.041286 -0.001219 0.000000 0.000000 0.000000
# 2 0.041286 -0.026914 -0.001219 0.000000 0.000000 0.000000
# 3 -0.001219 -0.001219 0.010414 0.000000 0.000000 0.000000
# 4 0.000000 0.000000 0.000000 -0.016650 0.000000 0.000000
# 5 0.000000 0.000000 0.000000 0.000000 -0.016659 0.000000
# 6 0.000000 0.000000 0.000000 0.000000 0.000000 0.143464
#
#
# Mechanical properties :
#
#
# Convention : Reuss Voigt Hill
#
# Bulk Modulus (GPa) = 29.16947 30.35387 29.76167
# Shear Modulus (GPa) = 10586.66056 -16.29989 5285.18034
#
# Velocity S-wave (km/s) = 72.38404 -2.84024 51.14383
# Velocity P-wave (km/s) = 83.66821 2.06554 59.18038
#
# Compressibility (1/GPa) = 0.03428242
#
# Stress axis : x y z
#
# Youngs Moduli (GPa) = -37.15574 -37.15565 96.02724
#
# Poissons Ratio (x) = 1.53400 0.11706
# Poissons Ratio (y) = 1.53401 0.11703
# Poissons Ratio (z) = -0.04529 -0.04528
#
# Static dielectric constant tensor:
#      x y z
#    x 1.796460 0.000000 0.000000 
#    y 0.000000 1.796440 0.000000 
#    z 0.000000 0.000000 1.773930 
# 
# From -- ./inp_files/3980.got.cif
#   From: 2010.05.17/outbox.cif.g08.bks.cpg/sg92_2_cif.got.tgz:3980.got - 2010.06.03 19:35:17.
