data_PCOD9549352
_publ_section_title
;
Structure prediction by ZEFSAII (Michael W. Deem and Ramdas Pophale) SiO2 
 PCOD9549352
Probable space group: P 41 21 2
;
_chemical_formula_sum "Si O2"
_cell_formula_units_Z 48
_cell_length_a 8.310612
_cell_length_b 8.310612
_cell_length_c 28.777808
_cell_angle_alpha 90.000000
_cell_angle_beta 90.000000
_cell_angle_gamma 90.000000
_cell_volume 1987.575910
_symmetry_space_group_name_H-M "P 41 21 2"
_symmetry_group_IT_number 92
_symmetry_cell_setting 'tetragonal'
loop_
_space_group_symop_operation_xyz
x,y,z
1/2-y,1/2+x,1/4+z
-x,-y,1/2+z
1/2+y,1/2-x,3/4+z
1/2+x,1/2-y,3/4-z
1/2-x,1/2+y,1/4-z
y,x,-z
-y,-x,1/2-z
loop_
_atom_site_type_symbol
_atom_site_label
_atom_site_fract_x
_atom_site_fract_y
_atom_site_fract_z
Si Si1 0.826437 0.100348 0.164974
Si Si2 0.322654 0.102072 0.731431
Si Si3 0.236930 0.854201 0.078914
Si Si4 0.150443 0.547568 0.710138
Si Si5 0.897419 0.025051 0.434217
Si Si6 0.085118 0.475201 0.879712
O O1 0.845604 0.279179 0.184634
O O2 0.941132 0.085191 0.120824
O O3 0.646669 0.075656 0.145235
O O4 0.833094 0.959274 0.203167
O O5 0.285043 0.178852 0.782163
O O6 0.437801 0.219536 0.702351
O O7 0.418020 0.937012 0.742127
O O8 0.124123 0.728256 0.105865
O O9 0.361533 0.928391 0.116252
O O10 0.140094 0.009543 0.059191
O O11 0.331359 0.490871 0.710197
O O12 0.041700 0.416094 0.683078
#
# Coordination Sequence:
#
# PCOD9549352 Si02
#       6
#     8   8   8   8   8   8
#     4  11  23  45  72 101 140 199 250 310 371 468
#     4  11  26  40  67 107 142 189 249 311 367 448
#     4  11  25  45  70 107 153 195 252 312 389 457
#     4  10  23  45  69 105 144 189 256 306 378 450
#     4  11  23  44  73 101 143 200 244 305 389 445
#     4  10  24  43  70 105 145 196 238 315 379 457
#
# _framework density 24.150020000000001
#
# number of rings (size 3 to 8) (size 9 to 14) (size 15 to 20)
#    0.000    1.333    1.667    3.000   11.667    1.333 
#    0.000    0.000    0.000    4.000    0.000    0.000 
#    0.000    0.000    0.000    0.000    0.000    0.000 
#
# Total GULP energy -268180.951471 kJ/mol
# GULP energy per Si atom -5587.103156 kJ/mol
# Density = 2.409505 g / cm^3
# Si number density = 24.150020 Si / 1000 Ang^3
#
#
#
# Elastic Constant Matrix: (Units=GPa)
#
#
# Indices 1 2 3 4 5 6 
#
# 1 79.3652 27.9584 22.5139 0.0000 0.0000 0.0000
# 2 27.9584 79.3652 22.5139 0.0000 0.0000 0.0000
# 3 22.5139 22.5139 98.4752 0.0000 0.0000 0.0000
# 4 0.0000 0.0000 0.0000 33.1827 0.0000 0.0000
# 5 0.0000 0.0000 0.0000 0.0000 33.1827 0.0000
# 6 0.0000 0.0000 0.0000 0.0000 0.0000 41.0824
#
#
#
# Elastic Compliance Matrix: (Units=1/GPa)
#
#
# Indices 1 2 3 4 5 6 
#
# 1 0.014879 -0.004573 -0.002356 0.000000 0.000000 0.000000
# 2 -0.004573 0.014879 -0.002356 0.000000 0.000000 0.000000
# 3 -0.002356 -0.002356 0.011232 0.000000 0.000000 0.000000
# 4 0.000000 0.000000 0.000000 0.030136 0.000000 0.000000
# 5 0.000000 0.000000 0.000000 0.000000 0.030136 0.000000
# 6 0.000000 0.000000 0.000000 0.000000 0.000000 0.024341
#
#
# Mechanical properties :
#
#
# Convention : Reuss Voigt Hill
#
# Bulk Modulus (GPa) = 44.60382 44.79754 44.70068
# Shear Modulus (GPa) = 32.97074 33.77083 33.37079
#
# Velocity S-wave (km/s) = 3.69893 3.74354 3.72131
# Velocity P-wave (km/s) = 6.06237 6.10536 6.08391
#
# Compressibility (1/GPa) = 0.02241960
#
# Stress axis : x y z
#
# Youngs Moduli (GPa) = 67.20688 67.20688 89.02945
#
# Poissons Ratio (x) = 0.30735 0.20978
# Poissons Ratio (y) = 0.30735 0.20978
# Poissons Ratio (z) = 0.15836 0.15836
#
# Static dielectric constant tensor:
#      x y z
#    x 1.955860 0.000000 0.000000 
#    y 0.000000 1.955860 0.000000 
#    z 0.000000 0.000000 2.033040 
# 
# From -- ./inp_files/4461.got.cif
#   From: 2010.05.17/outbox.cif.g08.bks.cpg/sg92_3_cif.got.tgz:4461.got - 2010.06.03 19:35:17.
