data_PCOD9549556
_publ_section_title
;
Structure prediction by ZEFSAII (Michael W. Deem and Ramdas Pophale) SiO2 
 PCOD9549556
Probable space group: P 41 21 2
;
_chemical_formula_sum "Si O2"
_cell_formula_units_Z 20
_cell_length_a 12.994547
_cell_length_b 12.994547
_cell_length_c 4.727444
_cell_angle_alpha 90.000000
_cell_angle_beta 90.000000
_cell_angle_gamma 90.000000
_cell_volume 798.267929
_symmetry_space_group_name_H-M "P 41 21 2"
_symmetry_group_IT_number 92
_symmetry_cell_setting 'tetragonal'
loop_
_space_group_symop_operation_xyz
x,y,z
1/2-y,1/2+x,1/4+z
-x,-y,1/2+z
1/2+y,1/2-x,3/4+z
1/2+x,1/2-y,3/4-z
1/2-x,1/2+y,1/4-z
y,x,-z
-y,-x,1/2-z
loop_
_atom_site_type_symbol
_atom_site_label
_atom_site_fract_x
_atom_site_fract_y
_atom_site_fract_z
Si Si1 0.743449 0.990660 0.038377
Si Si2 0.046907 0.953094 0.250000
Si Si3 0.690416 0.854676 0.567943
O O1 0.853648 0.038323 0.951600
O O2 0.663979 0.072010 0.902035
O O3 0.741199 0.888641 0.857027
O O4 0.712871 0.947939 0.346797
O O5 0.960255 0.960255 0.500000
O O6 0.747990 0.747990 0.500000
#
# Coordination Sequence:
#
# PCOD9549556 Si02
#       3
#     8   4   8
#     4  12  26  46  75 109 156 203 255 325 390 473
#     4  12  24  44  74 112 148 198 268 320 392 458
#     4  12  26  48  74 111 156 204 259 323 393 466
#
# _framework density 25.054243
#
# number of rings (size 3 to 8) (size 9 to 14) (size 15 to 20)
#    0.000    0.000    2.000    9.600    0.000    3.200 
#    0.000    0.000    0.000    0.000    0.000    0.000 
#    0.000    0.000    0.000    0.000    0.000    0.000 
#
# Total GULP energy -111557.516465 kJ/mol
# GULP energy per Si atom -5577.875823 kJ/mol
# Density = 2.499722 g / cm^3
# Si number density = 25.054243 Si / 1000 Ang^3
#
#
#
# Elastic Constant Matrix: (Units=GPa)
#
#
# Indices 1 2 3 4 5 6 
#
# 1 108.1389 44.4521 42.8420 0.0000 0.0000 0.0000
# 2 44.4521 108.1386 42.8421 0.0000 0.0000 0.0000
# 3 42.8420 42.8421 143.8677 0.0000 0.0000 0.0000
# 4 0.0000 0.0000 0.0000 16.3785 0.0000 0.0000
# 5 0.0000 0.0000 0.0000 0.0000 16.3784 0.0000
# 6 0.0000 0.0000 0.0000 0.0000 0.0000 50.9769
#
#
#
# Elastic Compliance Matrix: (Units=1/GPa)
#
#
# Indices 1 2 3 4 5 6 
#
# 1 0.011786 -0.003916 -0.002343 0.000000 0.000000 0.000000
# 2 -0.003916 0.011786 -0.002343 0.000000 0.000000 0.000000
# 3 -0.002343 -0.002343 0.008347 0.000000 0.000000 0.000000
# 4 0.000000 0.000000 0.000000 0.061055 0.000000 0.000000
# 5 0.000000 0.000000 0.000000 0.000000 0.061056 0.000000
# 6 0.000000 0.000000 0.000000 0.000000 0.000000 0.019617
#
#
# Mechanical properties :
#
#
# Convention : Reuss Voigt Hill
#
# Bulk Modulus (GPa) = 67.97346 68.93528 68.45437
# Shear Modulus (GPa) = 25.54198 32.08068 28.81133
#
# Velocity S-wave (km/s) = 3.19637 3.58222 3.39478
# Velocity P-wave (km/s) = 6.38841 6.68460 6.53818
#
# Compressibility (1/GPa) = 0.01471162
#
# Stress axis : x y z
#
# Youngs Moduli (GPa) = 84.84937 84.84901 119.81064
#
# Poissons Ratio (x) = 0.33229 0.28076
# Poissons Ratio (y) = 0.33229 0.28077
# Poissons Ratio (z) = 0.19883 0.19884
#
# Static dielectric constant tensor:
#      x y z
#    x 1.985630 0.000000 0.000000 
#    y 0.000000 1.985630 0.000000 
#    z 0.000000 0.000000 1.950550 
# 
# From -- ./inp_files/109.got.cif
#   From: 2010.05.17/outbox.cif.g08.bks.cpg/sg92_1_cif.got.tgz:109.got - 2010.06.03 19:35:17.
