data_PCOD9549457
_publ_section_title
;
Structure prediction by ZEFSAII (Michael W. Deem and Ramdas Pophale) SiO2 
 PCOD9549457
Probable space group: P 41 21 2
;
_chemical_formula_sum "Si O2"
_cell_formula_units_Z 32
_cell_length_a 7.469318
_cell_length_b 7.469318
_cell_length_c 25.736168
_cell_angle_alpha 90.000000
_cell_angle_beta 90.000000
_cell_angle_gamma 90.000000
_cell_volume 1435.839121
_symmetry_space_group_name_H-M "P 41 21 2"
_symmetry_group_IT_number 92
_symmetry_cell_setting 'tetragonal'
loop_
_space_group_symop_operation_xyz
x,y,z
1/2-y,1/2+x,1/4+z
-x,-y,1/2+z
1/2+y,1/2-x,3/4+z
1/2+x,1/2-y,3/4-z
1/2-x,1/2+y,1/4-z
y,x,-z
-y,-x,1/2-z
loop_
_atom_site_type_symbol
_atom_site_label
_atom_site_fract_x
_atom_site_fract_y
_atom_site_fract_z
Si Si1 0.187652 0.441463 0.465676
Si Si2 0.476224 0.063729 0.683685
Si Si3 0.029955 0.878807 0.309727
Si Si4 0.784659 0.812975 0.876544
O O1 0.328282 0.328282 0.500000
O O2 0.314674 0.592961 0.440832
O O3 0.123049 0.298519 0.423689
O O4 0.045729 0.523317 0.504991
O O5 0.397632 0.889637 0.653537
O O6 0.683113 0.084887 0.671639
O O7 0.346296 0.224768 0.666351
O O8 0.095199 0.904802 0.250000
O O9 0.109623 0.031264 0.347019
#
# Coordination Sequence:
#
# PCOD9549457 Si02
#       4
#     8   8   8   8
#     4   9  20  43  62  93 138 187 227 298 375 414
#     4  11  25  41  72  98 138 193 235 300 368 439
#     4  11  23  43  67 105 143 187 248 302 363 450
#     4  11  22  43  67  96 145 185 233 299 369 428
#
# _framework density 22.286622000000001
#
# number of rings (size 3 to 8) (size 9 to 14) (size 15 to 20)
#    0.000    1.500    7.500    0.000    7.000    0.000 
#    0.000    2.500    0.000    1.500    0.000    0.000 
#    0.000    0.000    0.000    0.000    0.000    0.000 
#
# Total GULP energy -178493.393919 kJ/mol
# GULP energy per Si atom -5577.918560 kJ/mol
# Density = 2.223590 g / cm^3
# Si number density = 22.286622 Si / 1000 Ang^3
#
#
#
# Elastic Constant Matrix: (Units=GPa)
#
#
# Indices 1 2 3 4 5 6 
#
# 1 114.0863 35.8523 36.4018 0.0000 0.0000 0.0000
# 2 35.8523 114.0858 36.4016 0.0000 0.0000 0.0000
# 3 36.4018 36.4016 89.1934 0.0000 0.0000 0.0000
# 4 0.0000 0.0000 0.0000 32.1863 0.0000 0.0000
# 5 0.0000 0.0000 0.0000 0.0000 32.1863 0.0000
# 6 0.0000 0.0000 0.0000 0.0000 0.0000 25.4241
#
#
#
# Elastic Compliance Matrix: (Units=1/GPa)
#
#
# Indices 1 2 3 4 5 6 
#
# 1 0.010550 -0.002232 -0.003395 0.000000 0.000000 0.000000
# 2 -0.002232 0.010550 -0.003395 0.000000 0.000000 0.000000
# 3 -0.003395 -0.003395 0.013982 0.000000 0.000000 0.000000
# 4 0.000000 0.000000 0.000000 0.031069 0.000000 0.000000
# 5 0.000000 0.000000 0.000000 0.000000 0.031069 0.000000
# 6 0.000000 0.000000 0.000000 0.000000 0.000000 0.039333
#
#
# Mechanical properties :
#
#
# Convention : Reuss Voigt Hill
#
# Bulk Modulus (GPa) = 58.68782 59.40853 59.04817
# Shear Modulus (GPa) = 31.19617 31.87333 31.53475
#
# Velocity S-wave (km/s) = 3.74541 3.78584 3.76568
# Velocity P-wave (km/s) = 6.71524 6.76939 6.74237
#
# Compressibility (1/GPa) = 0.01703931
#
# Stress axis : x y z
#
# Youngs Moduli (GPa) = 94.78741 94.78707 71.51837
#
# Poissons Ratio (x) = 0.21159 0.24278
# Poissons Ratio (y) = 0.21159 0.24278
# Poissons Ratio (z) = 0.32177 0.32177
#
# Static dielectric constant tensor:
#      x y z
#    x 1.842460 0.000000 0.000000 
#    y 0.000000 1.842460 0.000000 
#    z 0.000000 0.000000 1.890800 
# 
# From -- ./inp_files/3694.got.cif
#   From: 2010.05.17/outbox.cif.g08.bks.cpg/sg92_2_cif.got.tgz:3694.got - 2010.06.03 19:35:17.
