data_PCOD9549313
_publ_section_title
;
Structure prediction by ZEFSAII (Michael W. Deem and Ramdas Pophale) SiO2 
 PCOD9549313
Probable space group: P 41 21 2
;
_chemical_formula_sum "Si O2"
_cell_formula_units_Z 36
_cell_length_a 8.776806
_cell_length_b 8.776806
_cell_length_c 20.249936
_cell_angle_alpha 90.000000
_cell_angle_beta 90.000000
_cell_angle_gamma 90.000000
_cell_volume 1559.899622
_symmetry_space_group_name_H-M "P 41 21 2"
_symmetry_group_IT_number 92
_symmetry_cell_setting 'tetragonal'
loop_
_space_group_symop_operation_xyz
x,y,z
1/2-y,1/2+x,1/4+z
-x,-y,1/2+z
1/2+y,1/2-x,3/4+z
1/2+x,1/2-y,3/4-z
1/2-x,1/2+y,1/4-z
y,x,-z
-y,-x,1/2-z
loop_
_atom_site_type_symbol
_atom_site_label
_atom_site_fract_x
_atom_site_fract_y
_atom_site_fract_z
Si Si1 0.779337 0.831243 0.922646
Si Si2 0.351567 0.054805 0.682885
Si Si3 0.432907 0.784580 0.285121
Si Si4 0.473350 0.473350 0.500000
Si Si5 0.632219 0.623705 0.611843
O O1 0.610268 0.884785 0.903842
O O2 0.829181 0.692496 0.875535
O O3 0.877582 0.977189 0.903973
O O4 0.796011 0.796011 0.000000
O O5 0.488374 0.112239 0.728850
O O6 0.193501 0.013649 0.721805
O O7 0.369033 0.630968 0.250000
O O8 0.282674 0.841483 0.324116
O O9 0.566070 0.759677 0.338534
O O10 0.600460 0.500804 0.555436
#
# Coordination Sequence:
#
# PCOD9549313 Si02
#       5
#     8   8   8   4   8
#     4  11  27  46  76 106 148 194 252 304 381 452
#     4  11  27  45  78 105 151 191 252 306 383 444
#     4  12  28  46  76 109 154 198 252 310 380 448
#     4  10  22  50  68 108 140 196 236 316 358 452
#     4  11  26  45  74 105 151 190 250 301 377 440
#
# _framework density 23.078408
#
# number of rings (size 3 to 8) (size 9 to 14) (size 15 to 20)
#    0.000    0.889    2.222    2.000   15.556    1.778 
#    0.000    0.000    0.000    0.000    0.000    0.000 
#    0.000    0.000    0.000    0.000    0.000    0.000 
#
# Total GULP energy -201103.997910 kJ/mol
# GULP energy per Si atom -5586.222164 kJ/mol
# Density = 2.302588 g / cm^3
# Si number density = 23.078408 Si / 1000 Ang^3
#
#
#
# Elastic Constant Matrix: (Units=GPa)
#
#
# Indices 1 2 3 4 5 6 
#
# 1 75.6570 10.5848 42.6790 0.0000 0.0000 0.0000
# 2 10.5848 75.6578 42.6792 0.0000 0.0000 0.0000
# 3 42.6790 42.6792 116.3838 0.0000 0.0000 0.0000
# 4 0.0000 0.0000 0.0000 48.8281 0.0000 0.0000
# 5 0.0000 0.0000 0.0000 0.0000 48.8278 0.0000
# 6 0.0000 0.0000 0.0000 0.0000 0.0000 28.1144
#
#
#
# Elastic Compliance Matrix: (Units=1/GPa)
#
#
# Indices 1 2 3 4 5 6 
#
# 1 0.016785 0.001417 -0.006675 0.000000 0.000000 0.000000
# 2 0.001417 0.016784 -0.006675 0.000000 0.000000 0.000000
# 3 -0.006675 -0.006675 0.013488 0.000000 0.000000 0.000000
# 4 0.000000 0.000000 0.000000 0.020480 0.000000 0.000000
# 5 0.000000 0.000000 0.000000 0.000000 0.020480 0.000000
# 6 0.000000 0.000000 0.000000 0.000000 0.000000 0.035569
#
#
# Mechanical properties :
#
#
# Convention : Reuss Voigt Hill
#
# Bulk Modulus (GPa) = 43.11845 51.06494 47.09170
# Shear Modulus (GPa) = 32.22047 36.60445 34.41246
#
# Velocity S-wave (km/s) = 3.74054 3.98690 3.86568
# Velocity P-wave (km/s) = 6.11388 6.58548 6.35406
#
# Compressibility (1/GPa) = 0.02319193
#
# Stress axis : x y z
#
# Youngs Moduli (GPa) = 59.57849 59.57923 74.14216
#
# Poissons Ratio (x) = -0.08443 0.49488
# Poissons Ratio (y) = -0.08442 0.49487
# Poissons Ratio (z) = 0.39767 0.39767
#
# Static dielectric constant tensor:
#      x y z
#    x 1.885490 0.000000 0.000000 
#    y 0.000000 1.885490 0.000000 
#    z 0.000000 0.000000 1.894840 
# 
# From -- ./inp_files/3447.got.cif
#   From: 2010.05.17/outbox.cif.g08.bks.cpg/sg92_2_cif.got.tgz:3447.got - 2010.06.03 19:35:17.
