data_PCOD9549893
_publ_section_title
;
Structure prediction by ZEFSAII (Michael W. Deem and Ramdas Pophale) SiO2 
 PCOD9549893
Probable space group: P 42 2 2
;
_chemical_formula_sum "Si O2"
_cell_formula_units_Z 28
_cell_length_a 14.084747
_cell_length_b 14.084747
_cell_length_c 7.394307
_cell_angle_alpha 90.000000
_cell_angle_beta 90.000000
_cell_angle_gamma 90.000000
_cell_volume 1466.883348
_symmetry_space_group_name_H-M "P 42 2 2"
_symmetry_group_IT_number 93
_symmetry_cell_setting 'tetragonal'
loop_
_space_group_symop_operation_xyz
x,y,z
-y,x,1/2+z
-x,-y,z
y,-x,1/2+z
x,-y,-z
-x,y,-z
y,x,1/2-z
-y,-x,1/2-z
loop_
_atom_site_type_symbol
_atom_site_label
_atom_site_fract_x
_atom_site_fract_y
_atom_site_fract_z
Si Si1 0.594421 0.120795 0.709999
Si Si2 0.385938 0.102345 0.724538
Si Si3 0.896425 0.812364 0.588882
Si Si4 0.785294 0.785294 0.250000
O O1 0.488630 0.144273 0.777803
O O2 0.608427 0.119107 0.491893
O O3 0.676051 0.189237 0.779717
O O4 0.610959 0.010910 0.760895
O O5 0.288762 0.132916 0.819434
O O6 0.887777 0.887777 0.750000
O O7 0.824732 0.837440 0.427394
O O8 0.000000 0.805758 0.500000
#
# Coordination Sequence:
#
# PCOD9549893 Si02
#       4
#     8   8   8   4
#     4   9  18  34  63  88 118 151 198 258 321 370
#     4   9  18  37  59  87 118 155 198 260 313 368
#     4  12  25  41  63  84 122 167 215 260 307 366
#     4  12  22  36  61  90 123 158 208 256 312 384
#
# _framework density 19.088087999999999
#
# number of rings (size 3 to 8) (size 9 to 14) (size 15 to 20)
#    0.000    1.714    5.714    1.714    0.000    2.286 
#    0.000    2.143    0.000    0.000    0.000    1.000 
#    0.000    0.000    0.000    0.000    0.000    0.000 
#
# Total GULP energy -156098.939733 kJ/mol
# GULP energy per Si atom -5574.962133 kJ/mol
# Density = 1.904464 g / cm^3
# Si number density = 19.088088 Si / 1000 Ang^3
#
#
#
# Elastic Constant Matrix: (Units=GPa)
#
#
# Indices 1 2 3 4 5 6 
#
# 1 58.0845 35.0582 23.8517 0.0000 0.0000 0.0000
# 2 35.0582 58.0845 23.8517 0.0000 0.0000 0.0000
# 3 23.8517 23.8517 100.9001 0.0000 0.0000 0.0000
# 4 0.0000 0.0000 0.0000 20.9332 0.0000 0.0000
# 5 0.0000 0.0000 0.0000 0.0000 20.9332 0.0000
# 6 0.0000 0.0000 0.0000 0.0000 0.0000 24.5470
#
#
#
# Elastic Compliance Matrix: (Units=1/GPa)
#
#
# Indices 1 2 3 4 5 6 
#
# 1 0.027822 -0.015607 -0.002888 0.000000 0.000000 0.000000
# 2 -0.015607 0.027822 -0.002888 0.000000 0.000000 0.000000
# 3 -0.002888 -0.002888 0.011276 0.000000 0.000000 0.000000
# 4 0.000000 0.000000 0.000000 0.047771 0.000000 0.000000
# 5 0.000000 0.000000 0.000000 0.000000 0.047771 0.000000
# 6 0.000000 0.000000 0.000000 0.000000 0.000000 0.040738
#
#
# Mechanical properties :
#
#
# Convention : Reuss Voigt Hill
#
# Bulk Modulus (GPa) = 41.39753 42.51027 41.95390
# Shear Modulus (GPa) = 19.68385 22.23650 20.96018
#
# Velocity S-wave (km/s) = 3.21473 3.41683 3.31732
# Velocity P-wave (km/s) = 5.95937 6.15509 6.05802
#
# Compressibility (1/GPa) = 0.02415603
#
# Stress axis : x y z
#
# Youngs Moduli (GPa) = 35.94305 35.94305 88.68434
#
# Poissons Ratio (x) = 0.56095 0.25608
# Poissons Ratio (y) = 0.56095 0.25608
# Poissons Ratio (z) = 0.10379 0.10379
#
# Static dielectric constant tensor:
#      x y z
#    x 1.699110 0.000000 0.000000 
#    y 0.000000 1.699110 0.000000 
#    z 0.000000 0.000000 1.752370 
# 
# From -- ./inp_files/1429.got.cif
#   From: 2010.05.17/outbox.cif.g08.bks.cpg/sg93_1_cif.got.tgz:1429.got - 2010.06.03 19:38:44.
