data_PCOD9549804
_publ_section_title
;
Structure prediction by ZEFSAII (Michael W. Deem and Ramdas Pophale) SiO2 
 PCOD9549804
Probable space group: P 42 2 2
;
_chemical_formula_sum "Si O2"
_cell_formula_units_Z 36
_cell_length_a 9.252449
_cell_length_b 9.252449
_cell_length_c 19.718207
_cell_angle_alpha 90.000000
_cell_angle_beta 90.000000
_cell_angle_gamma 90.000000
_cell_volume 1688.032568
_symmetry_space_group_name_H-M "P 42 2 2"
_symmetry_group_IT_number 93
_symmetry_cell_setting 'tetragonal'
loop_
_space_group_symop_operation_xyz
x,y,z
-y,x,1/2+z
-x,-y,z
y,-x,1/2+z
x,-y,-z
-x,y,-z
y,x,1/2-z
-y,-x,1/2-z
loop_
_atom_site_type_symbol
_atom_site_label
_atom_site_fract_x
_atom_site_fract_y
_atom_site_fract_z
Si Si1 0.670328 0.972865 0.656839
Si Si2 0.712956 0.712956 0.750000
Si Si3 0.819206 0.230958 0.444031
Si Si4 0.225051 0.856270 0.897721
Si Si5 0.671274 0.485993 0.382026
O O1 0.696369 0.874112 0.722062
O O2 0.710863 0.876565 0.592207
O O3 0.500000 0.000000 0.654698
O O4 0.780730 0.105806 0.649571
O O5 0.601027 0.684791 0.810978
O O6 0.834489 0.190408 0.522263
O O7 0.747640 0.387104 0.438181
O O8 0.968579 0.233792 0.399798
O O9 0.369198 0.766509 0.880358
O O10 0.500000 0.500000 0.395578
#
# Coordination Sequence:
#
# PCOD9549804 Si02
#       5
#     8   4   8   8   8
#     4  11  24  42  65  93 125 169 219 271 324 390
#     4  10  25  46  59  86 130 166 214 268 320 376
#     4  10  23  41  63  98 135 163 206 266 337 405
#     4  11  22  41  68  96 130 170 209 265 334 398
#     4  11  23  41  65  92 127 173 220 270 325 388
#
# _framework density 21.326604
#
# number of rings (size 3 to 8) (size 9 to 14) (size 15 to 20)
#    0.000    1.333    0.000    5.667    0.000   12.444 
#    0.000   15.556    0.000    0.000    0.000    0.000 
#    0.000    0.000    0.000    0.000    0.000    0.000 
#
# Total GULP energy -201048.073563 kJ/mol
# GULP energy per Si atom -5584.668710 kJ/mol
# Density = 2.127806 g / cm^3
# Si number density = 21.326604 Si / 1000 Ang^3
#
#
#
# Elastic Constant Matrix: (Units=GPa)
#
#
# Indices 1 2 3 4 5 6 
#
# 1 155.5867 73.1282 22.7336 0.0000 0.0000 0.0000
# 2 73.1282 155.5867 22.7336 0.0000 0.0000 0.0000
# 3 22.7336 22.7336 39.4145 0.0000 0.0000 0.0000
# 4 0.0000 0.0000 0.0000 27.7211 0.0000 0.0000
# 5 0.0000 0.0000 0.0000 0.0000 27.7211 0.0000
# 6 0.0000 0.0000 0.0000 0.0000 0.0000 44.7264
#
#
#
# Elastic Compliance Matrix: (Units=1/GPa)
#
#
# Indices 1 2 3 4 5 6 
#
# 1 0.008533 -0.003594 -0.002848 0.000000 0.000000 0.000000
# 2 -0.003594 0.008533 -0.002848 0.000000 0.000000 0.000000
# 3 -0.002848 -0.002848 0.028657 0.000000 0.000000 0.000000
# 4 0.000000 0.000000 0.000000 0.036074 0.000000 0.000000
# 5 0.000000 0.000000 0.000000 0.000000 0.036074 0.000000
# 6 0.000000 0.000000 0.000000 0.000000 0.000000 0.022358
#
#
# Mechanical properties :
#
#
# Convention : Reuss Voigt Hill
#
# Bulk Modulus (GPa) = 36.84537 65.30874 51.07705
# Shear Modulus (GPa) = 29.78712 35.49990 32.64351
#
# Velocity S-wave (km/s) = 3.74132 4.08436 3.91659
# Velocity P-wave (km/s) = 5.99812 7.27545 6.66745
#
# Compressibility (1/GPa) = 0.02714045
#
# Stress axis : x y z
#
# Youngs Moduli (GPa) = 117.19329 117.19329 34.89523
#
# Poissons Ratio (x) = 0.42124 0.09940
# Poissons Ratio (y) = 0.42124 0.09940
# Poissons Ratio (z) = 0.33382 0.33382
#
# Static dielectric constant tensor:
#      x y z
#    x 1.814810 0.000000 0.000000 
#    y 0.000000 1.814810 0.000000 
#    z 0.000000 0.000000 1.763420 
# 
# From -- ./inp_files/6039.got.cif
#   From: 2010.05.17/outbox.cif.g08.bks.cpg/sg93_4_cif.got.tgz:6039.got - 2010.06.03 19:38:44.
