data_PCOD9549877
_publ_section_title
;
Structure prediction by ZEFSAII (Michael W. Deem and Ramdas Pophale) SiO2 
 PCOD9549877
Probable space group: P 42 2 2
;
_chemical_formula_sum "Si O2"
_cell_formula_units_Z 56
_cell_length_a 11.031221
_cell_length_b 11.031221
_cell_length_c 26.038483
_cell_angle_alpha 90.000000
_cell_angle_beta 90.000000
_cell_angle_gamma 90.000000
_cell_volume 3168.566669
_symmetry_space_group_name_H-M "P 42 2 2"
_symmetry_group_IT_number 93
_symmetry_cell_setting 'tetragonal'
loop_
_space_group_symop_operation_xyz
x,y,z
-y,x,1/2+z
-x,-y,z
y,-x,1/2+z
x,-y,-z
-x,y,-z
y,x,1/2-z
-y,-x,1/2-z
loop_
_atom_site_type_symbol
_atom_site_label
_atom_site_fract_x
_atom_site_fract_y
_atom_site_fract_z
Si Si1 0.738076 0.218846 0.660918
Si Si2 0.361944 1.000000 0.275207
Si Si3 0.645826 0.140696 0.558297
Si Si4 0.140696 0.645826 0.058297
Si Si5 0.360548 0.360548 0.750000
Si Si6 0.360548 0.639453 0.750000
Si Si7 0.261925 0.781153 0.339082
Si Si8 0.000000 0.145243 0.690422
O O1 0.694997 0.227319 0.602687
O O2 0.721391 0.329017 0.700662
O O3 0.876107 0.174948 0.661572
O O4 0.656552 0.116231 0.688679
O O5 0.343449 0.883768 0.311321
O O6 0.500000 0.000000 0.253639
O O7 0.243880 1.000000 0.237464
O O8 0.500000 0.143261 0.559670
O O9 0.683755 0.170093 0.500000
O O10 0.682281 1.000000 0.568930
O O11 0.227320 0.694996 0.102687
O O12 0.343393 0.500000 0.764995
O O13 0.329018 0.278609 0.799338
O O14 0.123894 0.825052 0.338428
O O15 0.000000 0.000000 0.699920
#
# Coordination Sequence:
#
# PCOD9549877 Si02
#       8
#     8   8   8   8   4   4   8   8
#     4  12  22  34  55  77 113 141 185 216 283 323
#     4  12  22  32  53  77 104 140 186 220 265 328
#     4   9  17  31  52  77 103 135 179 230 275 317
#     4   9  17  31  52  77 103 135 179 230 275 317
#     4  11  24  38  53  78 110 142 177 228 282 325
#     4  11  24  38  53  78 110 142 177 228 282 325
#     4  12  22  34  55  77 113 141 185 216 283 323
#     4  12  24  36  51  81 115 159 177 226 274 345
#
# _framework density 17.673604999999998
#
# number of rings (size 3 to 8) (size 9 to 14) (size 15 to 20)
#    0.000    1.000    5.714    3.429    2.000    0.000 
#    0.000    0.714    0.000    3.429    0.000    4.000 
#    0.000    3.429    0.000    0.000    0.000    0.000 
#
# Total GULP energy -312244.320698 kJ/mol
# GULP energy per Si atom -5575.791441 kJ/mol
# Density = 1.763338 g / cm^3
# Si number density = 17.673605 Si / 1000 Ang^3
#
#
#
# Elastic Constant Matrix: (Units=GPa)
#
#
# Indices 1 2 3 4 5 6 
#
# 1 75.0214 14.6110 22.5224 0.0000 0.0000 0.0000
# 2 14.6110 75.0215 22.5225 0.0000 0.0000 0.0000
# 3 22.5224 22.5225 125.2384 0.0000 0.0000 0.0000
# 4 0.0000 0.0000 0.0000 20.9932 0.0000 0.0000
# 5 0.0000 0.0000 0.0000 0.0000 20.9931 0.0000
# 6 0.0000 0.0000 0.0000 0.0000 0.0000 20.6930
#
#
#
# Elastic Compliance Matrix: (Units=1/GPa)
#
#
# Indices 1 2 3 4 5 6 
#
# 1 0.014409 -0.002144 -0.002206 0.000000 0.000000 0.000000
# 2 -0.002144 0.014409 -0.002206 0.000000 0.000000 0.000000
# 3 -0.002206 -0.002206 0.008778 0.000000 0.000000 0.000000
# 4 0.000000 0.000000 0.000000 0.047634 0.000000 0.000000
# 5 0.000000 0.000000 0.000000 0.000000 0.047635 0.000000
# 6 0.000000 0.000000 0.000000 0.000000 0.000000 0.048326
#
#
# Mechanical properties :
#
#
# Convention : Reuss Voigt Hill
#
# Bulk Modulus (GPa) = 40.84042 43.84367 42.34204
# Shear Modulus (GPa) = 24.69568 26.91087 25.80328
#
# Velocity S-wave (km/s) = 3.74213 3.90636 3.82513
# Velocity P-wave (km/s) = 6.46759 6.72365 6.59686
#
# Compressibility (1/GPa) = 0.02448555
#
# Stress axis : x y z
#
# Youngs Moduli (GPa) = 69.39958 69.39965 113.91971
#
# Poissons Ratio (x) = 0.14880 0.25128
# Poissons Ratio (y) = 0.14880 0.25128
# Poissons Ratio (z) = 0.15308 0.15308
#
# Static dielectric constant tensor:
#      x y z
#    x 1.631100 0.000000 0.000000 
#    y 0.000000 1.631110 0.000000 
#    z 0.000000 0.000000 1.624140 
# 
# From -- ./inp_files/6942.got.cif
#   From: 2010.05.17/outbox.cif.g08.bks.cpg/sg93_4_cif.got.tgz:6942.got - 2010.06.03 19:38:44.
