data_PCOD9549183
_publ_section_title
;
Structure prediction by ZEFSAII (Michael W. Deem and Ramdas Pophale) SiO2 
 PCOD9549183
Probable space group: P 41 21 2
;
_chemical_formula_sum "Si O2"
_cell_formula_units_Z 28
_cell_length_a 7.284046
_cell_length_b 7.284046
_cell_length_c 20.395459
_cell_angle_alpha 90.000000
_cell_angle_beta 90.000000
_cell_angle_gamma 90.000000
_cell_volume 1082.128520
_symmetry_space_group_name_H-M "P 41 21 2"
_symmetry_group_IT_number 92
_symmetry_cell_setting 'tetragonal'
loop_
_space_group_symop_operation_xyz
x,y,z
1/2-y,1/2+x,1/4+z
-x,-y,1/2+z
1/2+y,1/2-x,3/4+z
1/2+x,1/2-y,3/4-z
1/2-x,1/2+y,1/4-z
y,x,-z
-y,-x,1/2-z
loop_
_atom_site_type_symbol
_atom_site_label
_atom_site_fract_x
_atom_site_fract_y
_atom_site_fract_z
Si Si1 0.378546 0.225654 0.120133
Si Si2 0.326393 0.149444 0.263499
Si Si3 0.110159 0.889842 0.750000
Si Si4 0.865088 0.031920 0.386608
O O1 0.410925 0.140087 0.191665
O O2 0.481620 0.123413 0.061188
O O3 0.462724 0.428312 0.123848
O O4 0.160964 0.239930 0.106635
O O5 0.363303 0.338728 0.300806
O O6 0.107477 0.144231 0.253261
O O7 0.151596 0.807368 0.678023
#
# Coordination Sequence:
#
# PCOD9549183 Si02
#       4
#     8   8   4   8
#     4  10  23  45  68 107 143 191 250 306 372 444
#     4  10  21  45  72 101 147 192 248 307 369 443
#     4   8  20  42  62  98 140 180 242 294 354 438
#     4  10  21  43  69 100 140 191 237 301 373 435
#
# _framework density 25.874927
#
# number of rings (size 3 to 8) (size 9 to 14) (size 15 to 20)
#    0.000    2.286    0.000    0.857    0.000    4.571 
#   56.571    0.000    0.000    0.000    0.000    0.000 
#    0.000    0.000    0.000    0.000    0.000    0.000 
#
# Total GULP energy -156819.615727 kJ/mol
# GULP energy per Si atom -5600.700562 kJ/mol
# Density = 2.581603 g / cm^3
# Si number density = 25.874927 Si / 1000 Ang^3
#
#
#
# Elastic Constant Matrix: (Units=GPa)
#
#
# Indices 1 2 3 4 5 6 
#
# 1 90.6095 37.2363 34.3909 0.0000 0.0000 0.0000
# 2 37.2363 90.6107 34.3906 0.0000 0.0000 0.0000
# 3 34.3909 34.3906 178.4611 0.0000 0.0000 0.0000
# 4 0.0000 0.0000 0.0000 6.6905 0.0000 0.0000
# 5 0.0000 0.0000 0.0000 0.0000 6.6900 0.0000
# 6 0.0000 0.0000 0.0000 0.0000 0.0000 34.4621
#
#
#
# Elastic Compliance Matrix: (Units=1/GPa)
#
#
# Indices 1 2 3 4 5 6 
#
# 1 0.013731 -0.005005 -0.001682 0.000000 0.000000 0.000000
# 2 -0.005005 0.013731 -0.001682 0.000000 0.000000 0.000000
# 3 -0.001682 -0.001682 0.006252 0.000000 0.000000 0.000000
# 4 0.000000 0.000000 0.000000 0.149466 0.000000 0.000000
# 5 0.000000 0.000000 0.000000 0.000000 0.149477 0.000000
# 6 0.000000 0.000000 0.000000 0.000000 0.000000 0.029017
#
#
# Mechanical properties :
#
#
# Convention : Reuss Voigt Hill
#
# Bulk Modulus (GPa) = 58.89928 63.52410 61.21169
# Shear Modulus (GPa) = 13.01849 26.47942 19.74895
#
# Velocity S-wave (km/s) = 2.24549 3.20247 2.76569
# Velocity P-wave (km/s) = 5.43465 6.18694 5.82296
#
# Compressibility (1/GPa) = 0.01697814
#
# Stress axis : x y z
#
# Youngs Moduli (GPa) = 72.82625 72.82738 159.95887
#
# Poissons Ratio (x) = 0.36447 0.26901
# Poissons Ratio (y) = 0.36446 0.26899
# Poissons Ratio (z) = 0.12247 0.12247
#
# Static dielectric constant tensor:
#      x y z
#    x 2.027630 0.000000 0.000000 
#    y 0.000000 2.027630 0.000000 
#    z 0.000000 0.000000 2.156580 
# 
# From -- ./inp_files/2953.got.cif
#   From: 2010.05.17/outbox.cif.g08.bks.cpg/sg92_2_cif.got.tgz:2953.got - 2010.06.03 19:35:17.
