data_PCOD9549741
_publ_section_title
;
Structure prediction by ZEFSAII (Michael W. Deem and Ramdas Pophale) SiO2 
 PCOD9549741
Probable space group: P 42 2 2
;
_chemical_formula_sum "Si O2"
_cell_formula_units_Z 40
_cell_length_a 8.485582
_cell_length_b 8.485582
_cell_length_c 28.528258
_cell_angle_alpha 90.000000
_cell_angle_beta 90.000000
_cell_angle_gamma 90.000000
_cell_volume 2054.180124
_symmetry_space_group_name_H-M "P 42 2 2"
_symmetry_group_IT_number 93
_symmetry_cell_setting 'tetragonal'
loop_
_space_group_symop_operation_xyz
x,y,z
-y,x,1/2+z
-x,-y,z
y,-x,1/2+z
x,-y,-z
-x,y,-z
y,x,1/2-z
-y,-x,1/2-z
loop_
_atom_site_type_symbol
_atom_site_label
_atom_site_fract_x
_atom_site_fract_y
_atom_site_fract_z
Si Si1 0.673221 0.076653 0.384915
Si Si2 0.817449 0.942225 0.948885
Si Si3 0.323398 0.564943 0.703510
Si Si4 0.763576 0.866223 0.136011
Si Si5 0.237552 0.830869 0.199679
O O1 0.761807 0.167949 0.428413
O O2 0.695797 0.179346 0.337237
O O3 0.500000 0.000000 0.393300
O O4 0.783552 0.928236 0.373636
O O5 0.718866 0.042179 0.911165
O O6 0.000000 0.000000 0.947761
O O7 0.761893 0.000000 0.000000
O O8 0.500000 0.500000 0.698409
O O9 0.326665 0.673336 0.750000
O O10 0.263747 0.649553 0.657129
O O11 0.209214 0.417998 0.711369
O O12 0.779235 0.004600 0.173606
O O13 0.157806 0.842195 0.250000
#
# Coordination Sequence:
#
# PCOD9549741 Si02
#       5
#     8   8   8   8   8
#     4  10  21  35  58  89 116 153 201 248 300 365
#     4   8  16  36  59  85 117 146 193 251 310 366
#     4  11  22  38  53  81 116 156 197 242 301 354
#     4  10  22  36  58  83 112 156 193 247 297 352
#     4  11  22  36  54  82 117 158 197 240 296 359
#
# _framework density 19.472491999999999
#
# number of rings (size 3 to 8) (size 9 to 14) (size 15 to 20)
#    0.000    2.000    2.000    3.600    2.800    0.800 
#    0.000    8.000    0.000    9.600    0.000    5.600 
#    0.000    0.000    0.000    0.000    0.000    0.000 
#
# Total GULP energy -222761.572816 kJ/mol
# GULP energy per Si atom -5569.039320 kJ/mol
# Density = 1.942817 g / cm^3
# Si number density = 19.472492 Si / 1000 Ang^3
#
#
#
# Elastic Constant Matrix: (Units=GPa)
#
#
# Indices 1 2 3 4 5 6 
#
# 1 65.6929 20.3609 42.5320 0.0000 0.0000 0.0000
# 2 20.3609 65.6923 42.5322 0.0000 0.0000 0.0000
# 3 42.5320 42.5322 172.9657 0.0000 0.0000 0.0000
# 4 0.0000 0.0000 0.0000 13.8908 0.0000 0.0000
# 5 0.0000 0.0000 0.0000 0.0000 13.8910 0.0000
# 6 0.0000 0.0000 0.0000 0.0000 0.0000 27.5606
#
#
#
# Elastic Compliance Matrix: (Units=1/GPa)
#
#
# Indices 1 2 3 4 5 6 
#
# 1 0.018706 -0.003354 -0.003775 0.000000 0.000000 0.000000
# 2 -0.003354 0.018706 -0.003775 0.000000 0.000000 0.000000
# 3 -0.003775 -0.003775 0.007638 0.000000 0.000000 0.000000
# 4 0.000000 0.000000 0.000000 0.071990 0.000000 0.000000
# 5 0.000000 0.000000 0.000000 0.000000 0.071989 0.000000
# 6 0.000000 0.000000 0.000000 0.000000 0.000000 0.036284
#
#
# Mechanical properties :
#
#
# Convention : Reuss Voigt Hill
#
# Bulk Modulus (GPa) = 43.02486 57.24456 50.13471
# Shear Modulus (GPa) = 19.61801 24.33022 21.97411
#
# Velocity S-wave (km/s) = 3.17752 3.53861 3.36291
# Velocity P-wave (km/s) = 5.96702 6.79391 6.39384
#
# Compressibility (1/GPa) = 0.02324238
#
# Stress axis : x y z
#
# Youngs Moduli (GPa) = 53.45902 53.45843 130.92257
#
# Poissons Ratio (x) = 0.17928 0.49425
# Poissons Ratio (y) = 0.17928 0.49426
# Poissons Ratio (z) = 0.20181 0.20182
#
# Static dielectric constant tensor:
#      x y z
#    x 1.744950 0.000000 0.000000 
#    y 0.000000 1.744940 0.000000 
#    z 0.000000 0.000000 1.760690 
# 
# From -- ./inp_files/7273.got.cif
#   From: 2010.05.17/outbox.cif.g08.bks.cpg/sg93_4_cif.got.tgz:7273.got - 2010.06.03 19:38:44.
