data_PCOD9549934
_publ_section_title
;
Structure prediction by ZEFSAII (Michael W. Deem and Ramdas Pophale) SiO2 
 PCOD9549934
Probable space group: P 42 21 2
;
_chemical_formula_sum "Si O2"
_cell_formula_units_Z 28
_cell_length_a 7.853537
_cell_length_b 7.853537
_cell_length_c 23.448329
_cell_angle_alpha 90.000000
_cell_angle_beta 90.000000
_cell_angle_gamma 90.000000
_cell_volume 1446.247054
_symmetry_space_group_name_H-M "P 42 21 2"
_symmetry_group_IT_number 94
_symmetry_cell_setting 'tetragonal'
loop_
_space_group_symop_operation_xyz
x,y,z
1/2-y,1/2+x,1/2+z
-x,-y,z
1/2+y,1/2-x,1/2+z
1/2+x,1/2-y,1/2-z
1/2-x,1/2+y,1/2-z
y,x,-z
-y,-x,-z
loop_
_atom_site_type_symbol
_atom_site_label
_atom_site_fract_x
_atom_site_fract_y
_atom_site_fract_z
Si Si1 0.367616 0.340406 0.933481
Si Si2 0.406010 0.240834 0.180710
Si Si3 0.109524 0.256391 0.709718
Si Si4 0.500000 0.000000 0.376261
O O1 0.500000 0.500000 0.926598
O O2 0.220351 0.379222 0.886881
O O3 0.442629 0.158427 0.914316
O O4 0.327100 0.327100 0.000000
O O5 0.318927 0.423995 0.195009
O O6 0.603760 0.262633 0.195657
O O7 0.316001 0.118152 0.225335
O O8 0.136502 0.417241 0.667757
#
# Coordination Sequence:
#
# PCOD9549934 Si02
#       4
#     8   8   8   4
#     4  10  19  35  58  80 112 154 200 238 293 366
#     4  10  18  34  52  87 112 153 193 241 302 350
#     4  10  19  31  55  79 116 145 189 243 295 354
#     4  10  18  36  54  86 110 154 192 252 298 354
#
# _framework density 19.360453
#
# number of rings (size 3 to 8) (size 9 to 14) (size 15 to 20)
#    0.000    2.000    5.714    3.429    0.000    0.000 
#    0.000    4.286    0.000    0.000    0.000    0.000 
#    0.000    0.000    0.000    0.000    0.000    0.000 
#
# Total GULP energy -155969.996757 kJ/mol
# GULP energy per Si atom -5570.357027 kJ/mol
# Density = 1.931639 g / cm^3
# Si number density = 19.360453 Si / 1000 Ang^3
#
#
#
# Elastic Constant Matrix: (Units=GPa)
#
#
# Indices 1 2 3 4 5 6 
#
# 1 88.5338 14.4392 45.9104 0.0000 0.0000 0.0000
# 2 14.4392 88.5338 45.9104 0.0000 0.0000 0.0000
# 3 45.9104 45.9104 210.3397 0.0000 0.0000 0.0000
# 4 0.0000 0.0000 0.0000 35.0264 0.0000 0.0000
# 5 0.0000 0.0000 0.0000 0.0000 35.0264 0.0000
# 6 0.0000 0.0000 0.0000 0.0000 0.0000 13.6320
#
#
#
# Elastic Compliance Matrix: (Units=1/GPa)
#
#
# Indices 1 2 3 4 5 6 
#
# 1 0.012777 -0.000719 -0.002632 0.000000 0.000000 0.000000
# 2 -0.000719 0.012777 -0.002632 0.000000 0.000000 0.000000
# 3 -0.002632 -0.002632 0.005903 0.000000 0.000000 0.000000
# 4 0.000000 0.000000 0.000000 0.028550 0.000000 0.000000
# 5 0.000000 0.000000 0.000000 0.000000 0.028550 0.000000
# 6 0.000000 0.000000 0.000000 0.000000 0.000000 0.073357
#
#
# Mechanical properties :
#
#
# Convention : Reuss Voigt Hill
#
# Bulk Modulus (GPa) = 51.30361 66.65861 58.98111
# Shear Modulus (GPa) = 27.71972 35.48012 31.59992
#
# Velocity S-wave (km/s) = 3.78798 4.28554 4.04442
# Velocity P-wave (km/s) = 6.75932 7.68068 7.23468
#
# Compressibility (1/GPa) = 0.01949181
#
# Stress axis : x y z
#
# Youngs Moduli (GPa) = 78.26440 78.26440 169.40145
#
# Poissons Ratio (x) = 0.05628 0.44585
# Poissons Ratio (y) = 0.05628 0.44585
# Poissons Ratio (z) = 0.20598 0.20598
#
# Static dielectric constant tensor:
#      x y z
#    x 1.657560 0.000000 0.000000 
#    y 0.000000 1.657560 0.000000 
#    z 0.000000 0.000000 1.713340 
# 
# From -- ./inp_files/4318.got.cif
#   From: 2010.05.17/outbox.cif.g08.bks.cpg/sg94_3_cif.got.tgz:4318.got - 2010.06.03 19:43:16.
