data_PCOD9549240
_publ_section_title
;
Structure prediction by ZEFSAII (Michael W. Deem and Ramdas Pophale) SiO2 
 PCOD9549240
Probable space group: P 41 21 2
;
_chemical_formula_sum "Si O2"
_cell_formula_units_Z 36
_cell_length_a 13.935875
_cell_length_b 13.935875
_cell_length_c 9.361194
_cell_angle_alpha 90.000000
_cell_angle_beta 90.000000
_cell_angle_gamma 90.000000
_cell_volume 1818.024494
_symmetry_space_group_name_H-M "P 41 21 2"
_symmetry_group_IT_number 92
_symmetry_cell_setting 'tetragonal'
loop_
_space_group_symop_operation_xyz
x,y,z
1/2-y,1/2+x,1/4+z
-x,-y,1/2+z
1/2+y,1/2-x,3/4+z
1/2+x,1/2-y,3/4-z
1/2-x,1/2+y,1/4-z
y,x,-z
-y,-x,1/2-z
loop_
_atom_site_type_symbol
_atom_site_label
_atom_site_fract_x
_atom_site_fract_y
_atom_site_fract_z
Si Si1 0.490642 0.242984 0.822783
Si Si2 0.309398 0.789317 0.474074
Si Si3 0.091090 0.455624 0.660710
Si Si4 0.151509 0.848492 0.250000
Si Si5 0.396090 0.814538 0.043149
O O1 0.586077 0.231163 0.912806
O O2 0.533330 0.232523 0.661905
O O3 0.410406 0.160473 0.844695
O O4 0.437068 0.336080 0.890349
O O5 0.335683 0.866387 0.593372
O O6 0.243284 0.840760 0.355081
O O7 0.256950 0.689101 0.503253
O O8 0.066346 0.495581 0.818514
O O9 0.147183 0.541359 0.585548
#
# Coordination Sequence:
#
# PCOD9549240 Si02
#       5
#     8   8   8   4   8
#     4  11  19  40  68  99 135 175 233 278 355 415
#     4  11  22  40  67  99 134 181 224 288 357 419
#     4  12  25  40  68 105 138 176 235 302 357 433
#     4  10  22  40  68 102 134 186 226 288 354 432
#     4  11  23  39  67 101 140 177 231 294 353 423
#
# _framework density 19.801714
#
# number of rings (size 3 to 8) (size 9 to 14) (size 15 to 20)
#    0.000    0.889    6.667    2.667    0.000    0.889 
#    0.000    0.000   19.556    0.000    0.000    0.000 
#    0.000    0.000    0.000    0.000    0.000    0.000 
#
# Total GULP energy -200588.487495 kJ/mol
# GULP energy per Si atom -5571.902430 kJ/mol
# Density = 1.975664 g / cm^3
# Si number density = 19.801714 Si / 1000 Ang^3
#
#
#
# Elastic Constant Matrix: (Units=GPa)
#
#
# Indices 1 2 3 4 5 6 
#
# 1 245.8638 -103.7069 12.3455 0.0000 0.0000 0.0000
# 2 -103.7069 245.8712 12.3298 0.0000 0.0000 0.0000
# 3 12.3455 12.3298 20.5035 0.0000 0.0000 0.0000
# 4 0.0000 0.0000 0.0000 34.8479 0.0000 0.0000
# 5 0.0000 0.0000 0.0000 0.0000 34.8480 0.0000
# 6 0.0000 0.0000 0.0000 0.0000 0.0000 -7.3628
#
#
#
# Elastic Compliance Matrix: (Units=1/GPa)
#
#
# Indices 1 2 3 4 5 6 
#
# 1 0.005358 0.002497 -0.004728 0.000000 0.000000 0.000000
# 2 0.002497 0.005357 -0.004725 0.000000 0.000000 0.000000
# 3 -0.004728 -0.004725 0.054460 0.000000 0.000000 0.000000
# 4 0.000000 0.000000 0.000000 0.028696 0.000000 0.000000
# 5 0.000000 0.000000 0.000000 0.000000 0.028696 0.000000
# 6 0.000000 0.000000 0.000000 0.000000 0.000000 -0.135817
#
#
# Mechanical properties :
#
#
# Convention : Reuss Voigt Hill
#
# Bulk Modulus (GPa) = 19.50689 39.35283 29.42986
# Shear Modulus (GPa) = 281.68265 51.88462 166.78364
#
# Velocity S-wave (km/s) = 11.93987 5.12435 9.18748
# Velocity P-wave (km/s) = 14.14048 7.41138 11.28897
#
# Compressibility (1/GPa) = 0.05126393
#
# Stress axis : x y z
#
# Youngs Moduli (GPa) = 186.63856 186.65913 18.36197
#
# Poissons Ratio (x) = -0.46609 0.08681
# Poissons Ratio (y) = -0.46604 0.08676
# Poissons Ratio (z) = 0.88238 0.88200
#
# Static dielectric constant tensor:
#      x y z
#    x 1.733470 0.000000 0.000000 
#    y 0.000000 1.733470 0.000000 
#    z 0.000000 0.000000 1.784480 
# 
# From -- ./inp_files/1219.got.cif
#   From: 2010.05.17/outbox.cif.g08.bks.cpg/sg92_1_cif.got.tgz:1219.got - 2010.06.03 19:35:17.
