data_PCOD9549900
_publ_section_title
;
Structure prediction by ZEFSAII (Michael W. Deem and Ramdas Pophale) SiO2 
 PCOD9549900
Probable space group: P 42 2 2
;
_chemical_formula_sum "Si O2"
_cell_formula_units_Z 20
_cell_length_a 5.284227
_cell_length_b 5.284227
_cell_length_c 28.242216
_cell_angle_alpha 90.000000
_cell_angle_beta 90.000000
_cell_angle_gamma 90.000000
_cell_volume 788.608950
_symmetry_space_group_name_H-M "P 42 2 2"
_symmetry_group_IT_number 93
_symmetry_cell_setting 'tetragonal'
loop_
_space_group_symop_operation_xyz
x,y,z
-y,x,1/2+z
-x,-y,z
y,-x,1/2+z
x,-y,-z
-x,y,-z
y,x,1/2-z
-y,-x,1/2-z
loop_
_atom_site_type_symbol
_atom_site_label
_atom_site_fract_x
_atom_site_fract_y
_atom_site_fract_z
Si Si1 0.343595 0.248225 0.184431
Si Si2 0.500000 0.500000 0.500000
Si Si3 0.000000 0.000000 0.750000
Si Si4 0.249568 0.833516 0.578334
O O1 0.500000 0.500000 0.195473
O O2 0.075628 0.216928 0.211302
O O3 0.309530 0.227276 0.128102
O O4 0.500000 0.000000 0.199373
O O5 0.317253 0.659401 0.534045
O O6 0.500000 0.000000 0.584231
O O7 0.000000 0.000000 0.570718
#
# Coordination Sequence:
#
# PCOD9549900 Si02
#       4
#     8   2   2   8
#     4  12  28  51  81 118 166 215 276 349 426 509
#     4  12  30  50  80 114 160 222 274 358 436 518
#     4  12  30  44  86 114 166 216 284 332 432 504
#     4  12  28  52  80 117 162 213 278 349 424 510
#
# _framework density 25.361108999999999
#
# number of rings (size 3 to 8) (size 9 to 14) (size 15 to 20)
#    0.000    0.000    4.000    3.600    5.600    4.800 
#    0.000    0.000    0.000    0.000    0.000    0.000 
#    0.000    0.000    0.000    0.000    0.000    0.000 
#
# Total GULP energy -112023.549653 kJ/mol
# GULP energy per Si atom -5601.177483 kJ/mol
# Density = 2.530339 g / cm^3
# Si number density = 25.361109 Si / 1000 Ang^3
#
#
#
# Elastic Constant Matrix: (Units=GPa)
#
#
# Indices 1 2 3 4 5 6 
#
# 1 192.8397 113.8041 71.8030 0.0000 0.0000 0.0000
# 2 113.8041 192.8397 71.8030 0.0000 0.0000 0.0000
# 3 71.8030 71.8030 227.8521 0.0000 0.0000 0.0000
# 4 0.0000 0.0000 0.0000 42.0577 0.0000 0.0000
# 5 0.0000 0.0000 0.0000 0.0000 42.0577 0.0000
# 6 0.0000 0.0000 0.0000 0.0000 0.0000 53.0438
#
#
#
# Elastic Compliance Matrix: (Units=1/GPa)
#
#
# Indices 1 2 3 4 5 6 
#
# 1 0.008239 -0.004413 -0.001206 0.000000 0.000000 0.000000
# 2 -0.004413 0.008239 -0.001206 0.000000 0.000000 0.000000
# 3 -0.001206 -0.001206 0.005149 0.000000 0.000000 0.000000
# 4 0.000000 0.000000 0.000000 0.023777 0.000000 0.000000
# 5 0.000000 0.000000 0.000000 0.000000 0.023777 0.000000
# 6 0.000000 0.000000 0.000000 0.000000 0.000000 0.018852
#
#
# Mechanical properties :
#
#
# Convention : Reuss Voigt Hill
#
# Bulk Modulus (GPa) = 125.34957 125.37241 125.36099
# Shear Modulus (GPa) = 47.91963 51.17326 49.54645
#
# Velocity S-wave (km/s) = 4.35155 4.49685 4.42479
# Velocity P-wave (km/s) = 8.64761 8.74668 8.69729
#
# Compressibility (1/GPa) = 0.00797769
#
# Stress axis : x y z
#
# Youngs Moduli (GPa) = 121.37214 121.37214 194.22557
#
# Poissons Ratio (x) = 0.53566 0.23416
# Poissons Ratio (y) = 0.53566 0.23416
# Poissons Ratio (z) = 0.14633 0.14633
#
# Static dielectric constant tensor:
#      x y z
#    x 2.339790 0.000000 0.000000 
#    y 0.000000 2.339790 0.000000 
#    z 0.000000 0.000000 2.023200 
# 
# From -- ./inp_files/7030.got.cif
#   From: 2010.05.17/outbox.cif.g08.bks.cpg/sg93_4_cif.got.tgz:7030.got - 2010.06.03 19:38:44.
