data_PCOD9549889
_publ_section_title
;
Structure prediction by ZEFSAII (Michael W. Deem and Ramdas Pophale) SiO2 
 PCOD9549889
Probable space group: P 42 2 2
;
_chemical_formula_sum "Si O2"
_cell_formula_units_Z 20
_cell_length_a 5.216354
_cell_length_b 5.216354
_cell_length_c 29.026146
_cell_angle_alpha 90.000000
_cell_angle_beta 90.000000
_cell_angle_gamma 90.000000
_cell_volume 789.811564
_symmetry_space_group_name_H-M "P 42 2 2"
_symmetry_group_IT_number 93
_symmetry_cell_setting 'tetragonal'
loop_
_space_group_symop_operation_xyz
x,y,z
-y,x,1/2+z
-x,-y,z
y,-x,1/2+z
x,-y,-z
-x,y,-z
y,x,1/2-z
-y,-x,1/2-z
loop_
_atom_site_type_symbol
_atom_site_label
_atom_site_fract_x
_atom_site_fract_y
_atom_site_fract_z
Si Si1 0.330136 0.246496 0.076338
Si Si2 0.000000 0.500000 0.000000
Si Si3 0.000000 0.000000 0.750000
Si Si4 0.246433 0.677674 0.819485
O O1 0.500000 0.500000 0.078632
O O2 0.217777 0.229301 0.127726
O O3 0.500000 0.000000 0.067127
O O4 0.144699 0.309992 0.034679
O O5 0.777075 0.074069 0.786744
O O6 0.500000 0.500000 0.813916
O O7 0.000000 0.500000 0.808805
#
# Coordination Sequence:
#
# PCOD9549889 Si02
#       4
#     8   2   2   8
#     4  11  28  51  82 119 168 220 281 352 424 516
#     4  12  26  54  84 128 164 230 282 346 446 500
#     4  12  30  44  90 116 172 220 292 364 424 518
#     4  11  28  52  81 122 167 226 283 355 432 512
#
# _framework density 25.322493000000001
#
# number of rings (size 3 to 8) (size 9 to 14) (size 15 to 20)
#    0.000    0.800    2.000    1.200   16.800    6.400 
#    0.000    4.000    0.000    0.000    0.000    0.000 
#    0.000    0.000    0.000    0.000    0.000    0.000 
#
# Total GULP energy -111896.110347 kJ/mol
# GULP energy per Si atom -5594.805517 kJ/mol
# Density = 2.526486 g / cm^3
# Si number density = 25.322493 Si / 1000 Ang^3
#
#
#
# Elastic Constant Matrix: (Units=GPa)
#
#
# Indices 1 2 3 4 5 6 
#
# 1 170.5441 84.2443 80.6290 0.0000 0.0000 0.0000
# 2 84.2443 170.5441 80.6290 0.0000 0.0000 0.0000
# 3 80.6290 80.6290 278.5621 0.0000 0.0000 0.0000
# 4 0.0000 0.0000 0.0000 0.1714 0.0000 0.0000
# 5 0.0000 0.0000 0.0000 0.0000 0.1714 0.0000
# 6 0.0000 0.0000 0.0000 0.0000 0.0000 63.4684
#
#
#
# Elastic Compliance Matrix: (Units=1/GPa)
#
#
# Indices 1 2 3 4 5 6 
#
# 1 0.008196 -0.003391 -0.001391 0.000000 0.000000 0.000000
# 2 -0.003391 0.008196 -0.001391 0.000000 0.000000 0.000000
# 3 -0.001391 -0.001391 0.004395 0.000000 0.000000 0.000000
# 4 0.000000 0.000000 0.000000 5.835840 0.000000 0.000000
# 5 0.000000 0.000000 0.000000 0.000000 5.835840 0.000000
# 6 0.000000 0.000000 0.000000 0.000000 0.000000 0.015756
#
#
# Mechanical properties :
#
#
# Convention : Reuss Voigt Hill
#
# Bulk Modulus (GPa) = 118.45672 123.40610 120.93141
# Shear Modulus (GPa) = 0.42650 37.70541 19.06595
#
# Velocity S-wave (km/s) = 0.41084 3.86295 2.74693
# Velocity P-wave (km/s) = 6.86337 8.29073 7.61058
#
# Compressibility (1/GPa) = 0.00844190
#
# Stress axis : x y z
#
# Youngs Moduli (GPa) = 122.00622 122.00622 227.53125
#
# Poissons Ratio (x) = 0.41375 0.31645
# Poissons Ratio (y) = 0.41375 0.31645
# Poissons Ratio (z) = 0.16969 0.16969
#
# Static dielectric constant tensor:
#      x y z
#    x 2.017810 0.000000 0.000000 
#    y 0.000000 2.017810 0.000000 
#    z 0.000000 0.000000 2.062200 
# 
# From -- ./inp_files/7098.got.cif
#   From: 2010.05.17/outbox.cif.g08.bks.cpg/sg93_4_cif.got.tgz:7098.got - 2010.06.03 19:38:44.
