data_PCOD9549287
_publ_section_title
;
Structure prediction by ZEFSAII (Michael W. Deem and Ramdas Pophale) SiO2 
 PCOD9549287
Probable space group: P 41 21 2
;
_chemical_formula_sum "Si O2"
_cell_formula_units_Z 36
_cell_length_a 8.175189
_cell_length_b 8.175189
_cell_length_c 20.991903
_cell_angle_alpha 90.000000
_cell_angle_beta 90.000000
_cell_angle_gamma 90.000000
_cell_volume 1402.966866
_symmetry_space_group_name_H-M "P 41 21 2"
_symmetry_group_IT_number 92
_symmetry_cell_setting 'tetragonal'
loop_
_space_group_symop_operation_xyz
x,y,z
1/2-y,1/2+x,1/4+z
-x,-y,1/2+z
1/2+y,1/2-x,3/4+z
1/2+x,1/2-y,3/4-z
1/2-x,1/2+y,1/4-z
y,x,-z
-y,-x,1/2-z
loop_
_atom_site_type_symbol
_atom_site_label
_atom_site_fract_x
_atom_site_fract_y
_atom_site_fract_z
Si Si1 0.404609 0.562699 0.443459
Si Si2 0.266697 0.924369 0.918557
Si Si3 0.347733 0.931307 0.258140
Si Si4 0.433886 0.566115 0.750000
Si Si5 0.725844 0.444378 0.374287
O O1 0.429275 0.429275 0.500000
O O2 0.259744 0.535193 0.394418
O O3 0.425161 0.736663 0.477317
O O4 0.568318 0.542447 0.400727
O O5 0.297555 0.743016 0.894525
O O6 0.097399 0.926492 0.958001
O O7 0.399061 0.993122 0.967225
O O8 0.233090 0.766911 0.250000
O O9 0.367971 0.976604 0.332423
O O10 0.283371 0.558229 0.798777
#
# Coordination Sequence:
#
# PCOD9549287 Si02
#       5
#     8   8   8   4   8
#     4   8  19  41  61  95 134 165 229 298 336 421
#     4  11  20  41  71  98 135 190 225 297 361 410
#     4   9  19  44  67 100 127 176 242 291 345 418
#     4  10  22  44  66  96 142 184 238 288 360 426
#     4   9  21  41  63  98 141 174 231 290 349 430
#
# _framework density 25.659907
#
# number of rings (size 3 to 8) (size 9 to 14) (size 15 to 20)
#    0.000    3.111    1.111    0.000    1.556    0.000 
#   32.000    2.222    0.000    0.000    0.000    0.000 
#    0.000    0.000    0.000    0.000    0.000    0.000 
#
# Total GULP energy -201336.279420 kJ/mol
# GULP energy per Si atom -5592.674428 kJ/mol
# Density = 2.560150 g / cm^3
# Si number density = 25.659907 Si / 1000 Ang^3
#
#
#
# Elastic Constant Matrix: (Units=GPa)
#
#
# Indices 1 2 3 4 5 6 
#
# 1 68.2994 28.2779 43.3608 0.0000 0.0000 0.0000
# 2 28.2779 68.2997 43.3611 0.0000 0.0000 0.0000
# 3 43.3608 43.3611 204.4388 0.0000 0.0000 0.0000
# 4 0.0000 0.0000 0.0000 22.0814 0.0000 0.0000
# 5 0.0000 0.0000 0.0000 0.0000 22.0814 0.0000
# 6 0.0000 0.0000 0.0000 0.0000 0.0000 13.1972
#
#
#
# Elastic Compliance Matrix: (Units=1/GPa)
#
#
# Indices 1 2 3 4 5 6 
#
# 1 0.018888 -0.006098 -0.002713 0.000000 0.000000 0.000000
# 2 -0.006098 0.018888 -0.002713 0.000000 0.000000 0.000000
# 3 -0.002713 -0.002713 0.006042 0.000000 0.000000 0.000000
# 4 0.000000 0.000000 0.000000 0.045287 0.000000 0.000000
# 5 0.000000 0.000000 0.000000 0.000000 0.045287 0.000000
# 6 0.000000 0.000000 0.000000 0.000000 0.000000 0.075774
#
#
# Mechanical properties :
#
#
# Convention : Reuss Voigt Hill
#
# Bulk Modulus (GPa) = 48.14246 63.44863 55.79554
# Shear Modulus (GPa) = 20.82138 26.54121 23.68129
#
# Velocity S-wave (km/s) = 2.85166 3.21961 3.04121
# Velocity P-wave (km/s) = 5.44473 6.21302 5.84152
#
# Compressibility (1/GPa) = 0.02077168
#
# Stress axis : x y z
#
# Youngs Moduli (GPa) = 52.94245 52.94256 165.50268
#
# Poissons Ratio (x) = 0.32285 0.44897
# Poissons Ratio (y) = 0.32285 0.44898
# Poissons Ratio (z) = 0.14362 0.14362
#
# Static dielectric constant tensor:
#      x y z
#    x 2.034360 0.000000 0.000000 
#    y 0.000000 2.034360 0.000000 
#    z 0.000000 0.000000 2.091830 
# 
# From -- ./inp_files/3470.got.cif
#   From: 2010.05.17/outbox.cif.g08.bks.cpg/sg92_2_cif.got.tgz:3470.got - 2010.06.03 19:35:17.
