data_PCOD9549739
_publ_section_title
;
Structure prediction by ZEFSAII (Michael W. Deem and Ramdas Pophale) SiO2 
 PCOD9549739
Probable space group: P 42 2 2
;
_chemical_formula_sum "Si O2"
_cell_formula_units_Z 34
_cell_length_a 9.536529
_cell_length_b 9.536529
_cell_length_c 21.776093
_cell_angle_alpha 90.000000
_cell_angle_beta 90.000000
_cell_angle_gamma 90.000000
_cell_volume 1980.435170
_symmetry_space_group_name_H-M "P 42 2 2"
_symmetry_group_IT_number 93
_symmetry_cell_setting 'tetragonal'
loop_
_space_group_symop_operation_xyz
x,y,z
-y,x,1/2+z
-x,-y,z
y,-x,1/2+z
x,-y,-z
-x,y,-z
y,x,1/2-z
-y,-x,1/2-z
loop_
_atom_site_type_symbol
_atom_site_label
_atom_site_fract_x
_atom_site_fract_y
_atom_site_fract_z
Si Si1 0.759443 0.000303 0.753078
Si Si2 0.276025 0.502953 0.572798
Si Si3 0.691837 0.492881 0.868698
Si Si4 0.500000 0.000000 0.660331
Si Si5 0.500000 0.500000 0.250000
Si Si6 0.500000 0.000000 0.151693
O O1 0.861393 0.861393 0.750000
O O2 0.645823 0.003561 0.698449
O O3 0.646039 0.004796 0.809144
O O4 0.865899 0.134101 0.750000
O O5 0.262880 0.500000 0.500000
O O6 0.351690 0.641114 0.598888
O O7 0.381083 0.382746 0.595984
O O8 0.133246 0.488774 0.608526
O O9 0.855285 0.505675 0.874257
O O10 0.631761 0.497010 0.797748
#
# Coordination Sequence:
#
# PCOD9549739 Si02
#       6
#     8   8   8   4   2   4
#     4  10  22  35  50  80 118 145 170 219 277 334
#     4  10  21  39  58  79 108 146 190 235 272 317
#     4  10  21  35  56  81 114 142 182 231 287 325
#     4  11  22  30  58  80 110 140 183 212 280 338
#     4   8  20  32  54  80 112 140 180 230 284 336
#     4  11  21  34  61  80 107 146 196 220 270 328
#
# _framework density 17.167942
#
# number of rings (size 3 to 8) (size 9 to 14) (size 15 to 20)
#    0.000    2.118    0.000    4.588   16.471    0.000 
#    0.000    2.353    0.000    0.000    0.000   13.176 
#    0.000    0.000    0.000    0.000    0.000    0.000 
#
# Total GULP energy -189391.312471 kJ/mol
# GULP energy per Si atom -5570.332720 kJ/mol
# Density = 1.712887 g / cm^3
# Si number density = 17.167942 Si / 1000 Ang^3
#
#
#
# Elastic Constant Matrix: (Units=GPa)
#
#
# Indices 1 2 3 4 5 6 
#
# 1 117.2209 31.7292 35.4465 0.0000 0.0000 0.0000
# 2 31.7292 117.2228 35.4473 0.0000 0.0000 0.0000
# 3 35.4465 35.4473 106.7148 0.0000 0.0000 0.0000
# 4 0.0000 0.0000 0.0000 2.1448 0.0000 0.0000
# 5 0.0000 0.0000 0.0000 0.0000 2.1451 0.0000
# 6 0.0000 0.0000 0.0000 0.0000 0.0000 -11.8770
#
#
#
# Elastic Compliance Matrix: (Units=1/GPa)
#
#
# Indices 1 2 3 4 5 6 
#
# 1 0.009836 -0.001861 -0.002649 0.000000 0.000000 0.000000
# 2 -0.001861 0.009836 -0.002649 0.000000 0.000000 0.000000
# 3 -0.002649 -0.002649 0.011130 0.000000 0.000000 0.000000
# 4 0.000000 0.000000 0.000000 0.466245 0.000000 0.000000
# 5 0.000000 0.000000 0.000000 0.000000 0.466174 0.000000
# 6 0.000000 0.000000 0.000000 0.000000 0.000000 -0.084196
#
#
# Mechanical properties :
#
#
# Convention : Reuss Voigt Hill
#
# Bulk Modulus (GPa) = 60.66517 60.71160 60.68839
# Shear Modulus (GPa) = 5.56275 14.38495 9.97385
#
# Velocity S-wave (km/s) = 1.80201 2.89778 2.41292
# Velocity P-wave (km/s) = 6.30418 6.82908 6.57187
#
# Compressibility (1/GPa) = 0.01648392
#
# Stress axis : x y z
#
# Youngs Moduli (GPa) = 101.67070 101.67194 89.84376
#
# Poissons Ratio (x) = 0.18924 0.23797
# Poissons Ratio (y) = 0.18924 0.23798
# Poissons Ratio (z) = 0.26930 0.26931
#
# Static dielectric constant tensor:
#      x y z
#    x 1.567400 0.000000 0.000000 
#    y 0.000000 1.567400 0.000000 
#    z 0.000000 0.000000 1.592680 
# 
# From -- ./inp_files/6092.got.cif
#   From: 2010.05.17/outbox.cif.g08.bks.cpg/sg93_4_cif.got.tgz:6092.got - 2010.06.03 19:38:44.
