data_PCOD9549753
_publ_section_title
;
Structure prediction by ZEFSAII (Michael W. Deem and Ramdas Pophale) SiO2 
 PCOD9549753
Probable space group: P 42 2 2
;
_chemical_formula_sum "Si O2"
_cell_formula_units_Z 52
_cell_length_a 22.247387
_cell_length_b 22.247387
_cell_length_c 5.425807
_cell_angle_alpha 90.000000
_cell_angle_beta 90.000000
_cell_angle_gamma 90.000000
_cell_volume 2685.482710
_symmetry_space_group_name_H-M "P 42 2 2"
_symmetry_group_IT_number 93
_symmetry_cell_setting 'tetragonal'
loop_
_space_group_symop_operation_xyz
x,y,z
-y,x,1/2+z
-x,-y,z
y,-x,1/2+z
x,-y,-z
-x,y,-z
y,x,1/2-z
-y,-x,1/2-z
loop_
_atom_site_type_symbol
_atom_site_label
_atom_site_fract_x
_atom_site_fract_y
_atom_site_fract_z
Si Si1 0.632506 0.961625 0.248646
Si Si2 0.163520 0.163520 0.250000
Si Si3 0.566406 0.269378 0.986024
Si Si4 0.438035 0.149092 0.349690
Si Si5 0.217641 0.217641 0.750000
Si Si6 0.652991 0.217570 0.373094
Si Si7 0.039007 0.228779 0.249586
Si Si8 0.321696 0.678305 0.750000
O O1 0.580666 0.911728 0.217575
O O2 0.701711 0.938044 0.263686
O O3 0.622134 0.000000 0.500000
O O4 0.630977 0.000000 0.000000
O O5 0.195485 0.186184 0.501057
O O6 0.093916 0.182325 0.265775
O O7 0.597805 0.250451 0.239129
O O8 0.500000 0.294486 0.000000
O O9 0.561044 0.207990 0.824593
O O10 0.614387 0.314994 0.876896
O O11 0.500000 0.145626 0.500000
O O12 0.379487 0.159730 0.520890
O O13 0.204689 0.288863 0.711192
O O14 0.679086 0.264260 0.571899
O O15 0.000000 0.223868 0.500000
O O16 0.000000 0.219257 0.000000
#
# Coordination Sequence:
#
# PCOD9549753 Si02
#       8
#     8   4   8   8   4   8   8   4
#     4  10  24  42  63  86 122 176 225 270 326 380
#     4  12  25  40  68 105 124 177 219 267 328 396
#     4  11  22  38  61  90 125 170 208 263 343 406
#     4  11  24  39  59  87 124 168 225 280 326 397
#     4  12  24  36  62  98 138 158 218 278 334 396
#     4  11  22  37  58  90 129 165 200 273 348 393
#     4  10  22  43  66  94 134 172 213 266 326 394
#     4  10  21  38  58  88 125 161 207 262 328 409
#
# _framework density 19.363372999999999
#
# number of rings (size 3 to 8) (size 9 to 14) (size 15 to 20)
#    0.000    1.231    3.077    2.308    6.462    1.538 
#    0.000    0.769    0.000    1.385    0.000    7.538 
#    0.000    0.000    0.000    0.000    0.000    0.000 
#
# Total GULP energy -290223.408745 kJ/mol
# GULP energy per Si atom -5581.219399 kJ/mol
# Density = 1.931930 g / cm^3
# Si number density = 19.363373 Si / 1000 Ang^3
#
#
#
# Elastic Constant Matrix: (Units=GPa)
#
#
# Indices 1 2 3 4 5 6 
#
# 1 -13.2671 141.7106 19.8281 0.0000 0.0000 0.0000
# 2 141.7106 -13.2606 19.8242 0.0000 0.0000 0.0000
# 3 19.8281 19.8242 82.4452 0.0000 0.0000 0.0000
# 4 0.0000 0.0000 0.0000 30.9365 0.0000 0.0000
# 5 0.0000 0.0000 0.0000 0.0000 30.9514 0.0000
# 6 0.0000 0.0000 0.0000 0.0000 0.0000 -29.9387
#
#
#
# Elastic Compliance Matrix: (Units=1/GPa)
#
#
# Indices 1 2 3 4 5 6 
#
# 1 0.000978 0.007431 -0.002022 0.000000 0.000000 0.000000
# 2 0.007431 0.000979 -0.002023 0.000000 0.000000 0.000000
# 3 -0.002022 -0.002023 0.013102 0.000000 0.000000 0.000000
# 4 0.000000 0.000000 0.000000 0.032324 0.000000 0.000000
# 5 0.000000 0.000000 0.000000 0.000000 0.032309 0.000000
# 6 0.000000 0.000000 0.000000 0.000000 0.000000 -0.033402
#
#
# Mechanical properties :
#
#
# Convention : Reuss Voigt Hill
#
# Bulk Modulus (GPa) = 45.80455 46.51591 46.16023
# Shear Modulus (GPa) = 106.84991 -1.97320 52.43835
#
# Velocity S-wave (km/s) = 7.43648 -1.01057 5.20961
# Velocity P-wave (km/s) = 9.87125 4.76583 7.75096
#
# Compressibility (1/GPa) = 0.02183189
#
# Stress axis : x y z
#
# Youngs Moduli (GPa) = 1022.23485 1021.75901 76.32471
#
# Poissons Ratio (x) = -7.59285 0.15434
# Poissons Ratio (y) = -7.59639 0.15437
# Poissons Ratio (z) = 2.06708 2.06653
#
# Static dielectric constant tensor:
#      x y z
#    x 1.378990 0.000000 0.000000 
#    y 0.000000 1.378550 0.000000 
#    z 0.000000 0.000000 1.787080 
# 
# From -- ./inp_files/747.got.cif
#   From: 2010.05.17/outbox.cif.g08.bks.cpg/sg93_1_cif.got.tgz:747.got - 2010.06.03 19:38:44.
