data_PCOD9549565
_publ_section_title
;
Structure prediction by ZEFSAII (Michael W. Deem and Ramdas Pophale) SiO2 
 PCOD9549565
Probable space group: P 41 21 2
;
_chemical_formula_sum "Si O2"
_cell_formula_units_Z 24
_cell_length_a 9.396333
_cell_length_b 9.396333
_cell_length_c 9.542846
_cell_angle_alpha 90.000000
_cell_angle_beta 90.000000
_cell_angle_gamma 90.000000
_cell_volume 842.548121
_symmetry_space_group_name_H-M "P 41 21 2"
_symmetry_group_IT_number 92
_symmetry_cell_setting 'tetragonal'
loop_
_space_group_symop_operation_xyz
x,y,z
1/2-y,1/2+x,1/4+z
-x,-y,1/2+z
1/2+y,1/2-x,3/4+z
1/2+x,1/2-y,3/4-z
1/2-x,1/2+y,1/4-z
y,x,-z
-y,-x,1/2-z
loop_
_atom_site_type_symbol
_atom_site_label
_atom_site_fract_x
_atom_site_fract_y
_atom_site_fract_z
Si Si1 0.470259 0.117923 0.055879
Si Si2 0.163261 0.183960 0.333766
Si Si3 0.015120 0.809529 0.573018
O O1 0.480005 0.076032 0.216464
O O2 0.533992 0.271161 0.032449
O O3 0.317349 0.080797 0.994926
O O4 0.168131 0.168131 0.500000
O O5 0.023268 0.197844 0.238760
O O6 0.263274 0.321430 0.297588
O O7 0.952117 0.952117 0.500000
#
# Coordination Sequence:
#
# PCOD9549565 Si02
#       3
#     8   8   8
#     4  12  25  48  83 105 153 206 258 312 396 463
#     4  12  28  45  77 114 152 199 263 316 385 471
#     4  12  25  52  78 110 153 205 256 323 397 459
#
# _framework density 28.485018
#
# number of rings (size 3 to 8) (size 9 to 14) (size 15 to 20)
#    0.000    0.000    6.667    2.000    4.667    0.000 
#    6.000    0.000    0.000    0.000    0.000    0.000 
#    0.000    0.000    0.000    0.000    0.000    0.000 
#
# Total GULP energy -134518.660383 kJ/mol
# GULP energy per Si atom -5604.944183 kJ/mol
# Density = 2.842018 g / cm^3
# Si number density = 28.485018 Si / 1000 Ang^3
#
#
#
# Elastic Constant Matrix: (Units=GPa)
#
#
# Indices 1 2 3 4 5 6 
#
# 1 117.6028 97.0228 14.5581 0.0000 0.0000 0.0000
# 2 97.0228 117.6028 14.5581 0.0000 0.0000 0.0000
# 3 14.5581 14.5581 145.8095 0.0000 0.0000 0.0000
# 4 0.0000 0.0000 0.0000 21.7161 0.0000 0.0000
# 5 0.0000 0.0000 0.0000 0.0000 21.7161 0.0000
# 6 0.0000 0.0000 0.0000 0.0000 0.0000 69.1721
#
#
#
# Elastic Compliance Matrix: (Units=1/GPa)
#
#
# Indices 1 2 3 4 5 6 
#
# 1 0.026657 -0.021934 -0.000472 0.000000 0.000000 0.000000
# 2 -0.021934 0.026657 -0.000472 0.000000 0.000000 0.000000
# 3 -0.000472 -0.000472 0.006952 0.000000 0.000000 0.000000
# 4 0.000000 0.000000 0.000000 0.046049 0.000000 0.000000
# 5 0.000000 0.000000 0.000000 0.000000 0.046049 0.000000
# 6 0.000000 0.000000 0.000000 0.000000 0.000000 0.014457
#
#
# Mechanical properties :
#
#
# Convention : Reuss Voigt Hill
#
# Bulk Modulus (GPa) = 68.90564 70.36589 69.63576
# Shear Modulus (GPa) = 22.99778 39.51260 31.25519
#
# Velocity S-wave (km/s) = 2.84450 3.72847 3.31607
# Velocity P-wave (km/s) = 5.91869 6.57964 6.25790
#
# Compressibility (1/GPa) = 0.01451260
#
# Stress axis : x y z
#
# Youngs Moduli (GPa) = 37.51354 37.51354 143.83455
#
# Poissons Ratio (x) = 0.82281 0.06783
# Poissons Ratio (y) = 0.82281 0.06783
# Poissons Ratio (z) = 0.01769 0.01769
#
# Static dielectric constant tensor:
#      x y z
#    x 2.206290 0.000000 0.000000 
#    y 0.000000 2.206290 0.000000 
#    z 0.000000 0.000000 2.245350 
# 
# From -- ./inp_files/997.got.cif
#   From: 2010.05.17/outbox.cif.g08.bks.cpg/sg92_1_cif.got.tgz:997.got - 2010.06.03 19:35:17.
