data_PCOD9549087
_publ_section_title
;
Structure prediction by ZEFSAII (Michael W. Deem and Ramdas Pophale) SiO2 
 PCOD9549087
Probable space group: P 41 21 2
;
_chemical_formula_sum "Si O2"
_cell_formula_units_Z 60
_cell_length_a 18.057626
_cell_length_b 18.057626
_cell_length_c 7.763264
_cell_angle_alpha 90.000000
_cell_angle_beta 90.000000
_cell_angle_gamma 90.000000
_cell_volume 2531.428487
_symmetry_space_group_name_H-M "P 41 21 2"
_symmetry_group_IT_number 92
_symmetry_cell_setting 'tetragonal'
loop_
_space_group_symop_operation_xyz
x,y,z
1/2-y,1/2+x,1/4+z
-x,-y,1/2+z
1/2+y,1/2-x,3/4+z
1/2+x,1/2-y,3/4-z
1/2-x,1/2+y,1/4-z
y,x,-z
-y,-x,1/2-z
loop_
_atom_site_type_symbol
_atom_site_label
_atom_site_fract_x
_atom_site_fract_y
_atom_site_fract_z
Si Si1 0.647460 0.164346 0.189153
Si Si2 0.456135 0.423533 0.297795
Si Si3 0.605299 0.272532 0.692373
Si Si4 0.697725 0.560442 0.706787
Si Si5 0.311697 0.311697 0.500000
Si Si6 0.930144 0.809866 0.947699
Si Si7 0.462386 0.923444 0.497534
Si Si8 0.850985 0.608487 0.665819
O O1 0.732309 0.187147 0.153917
O O2 0.594460 0.234970 0.212598
O O3 0.611367 0.122367 0.030007
O O4 0.646734 0.121597 0.375375
O O5 0.439094 0.439094 0.500000
O O6 0.519783 0.480218 0.250000
O O7 0.388461 0.439320 0.171360
O O8 0.487971 0.340931 0.273170
O O9 0.674177 0.325824 0.750000
O O10 0.526946 0.282020 0.789221
O O11 0.581965 0.299474 0.503626
O O12 0.622004 0.185178 0.668636
O O13 0.692493 0.616354 0.876324
O O14 0.765851 0.596923 0.608998
O O15 0.871591 0.871591 0.000000
O O16 0.498373 0.935420 0.681245
O O17 0.532318 0.893313 0.385543
#
# Coordination Sequence:
#
# PCOD9549087 Si02
#       8
#     8   8   8   8   4   8   8   8
#     4  10  23  44  72  99 139 187 231 294 352 415
#     4  11  22  40  63  99 137 178 236 282 347 419
#     4  11  23  43  71  95 136 181 230 278 351 415
#     4  11  21  41  68  95 132 184 227 285 348 414
#     4  10  20  42  70  98 134 180 244 280 344 426
#     4  10  21  38  64  98 132 176 228 280 339 411
#     4  12  26  46  71 105 139 180 236 289 353 423
#     4  10  25  46  66 104 138 181 235 285 351 418
#
# _framework density 23.702031000000002
#
# number of rings (size 3 to 8) (size 9 to 14) (size 15 to 20)
#    0.000    1.333    2.667    2.000    0.000    8.533 
#    4.800    0.000    0.000    0.000    0.000    0.000 
#    0.000    0.000    0.000    0.000    0.000    0.000 
#
# Total GULP energy -334740.625381 kJ/mol
# GULP energy per Si atom -5579.010423 kJ/mol
# Density = 2.364808 g / cm^3
# Si number density = 23.702031 Si / 1000 Ang^3
#
#
#
# Elastic Constant Matrix: (Units=GPa)
#
#
# Indices 1 2 3 4 5 6 
#
# 1 91.1788 69.4500 15.1261 0.0000 0.0000 0.0000
# 2 69.4500 91.1747 15.1217 0.0000 0.0000 0.0000
# 3 15.1261 15.1217 32.3679 0.0000 0.0000 0.0000
# 4 0.0000 0.0000 0.0000 27.2877 0.0000 0.0000
# 5 0.0000 0.0000 0.0000 0.0000 27.2866 0.0000
# 6 0.0000 0.0000 0.0000 0.0000 0.0000 43.2604
#
#
#
# Elastic Compliance Matrix: (Units=1/GPa)
#
#
# Indices 1 2 3 4 5 6 
#
# 1 0.026426 -0.019600 -0.003193 0.000000 0.000000 0.000000
# 2 -0.019600 0.026426 -0.003186 0.000000 0.000000 0.000000
# 3 -0.003193 -0.003186 0.033875 0.000000 0.000000 0.000000
# 4 0.000000 0.000000 0.000000 0.036647 0.000000 0.000000
# 5 0.000000 0.000000 0.000000 0.000000 0.036648 0.000000
# 6 0.000000 0.000000 0.000000 0.000000 0.000000 0.023116
#
#
# Mechanical properties :
#
#
# Convention : Reuss Voigt Hill
#
# Bulk Modulus (GPa) = 28.76071 46.01299 37.38685
# Shear Modulus (GPa) = 20.26864 27.23520 23.75192
#
# Velocity S-wave (km/s) = 2.92746 3.39346 3.16904
# Velocity P-wave (km/s) = 4.85667 5.89995 5.40355
#
# Compressibility (1/GPa) = 0.03476966
#
# Stress axis : x y z
#
# Youngs Moduli (GPa) = 37.84111 37.84110 29.51996
#
# Poissons Ratio (x) = 0.74169 0.09425
# Poissons Ratio (y) = 0.74169 0.09406
# Poissons Ratio (z) = 0.12081 0.12058
#
# Static dielectric constant tensor:
#      x y z
#    x 1.964440 0.000000 0.000000 
#    y 0.000000 1.964430 0.000000 
#    z 0.000000 0.000000 1.928470 
# 
# From -- ./inp_files/1640.got.cif
#   From: 2010.05.17/outbox.cif.g08.bks.cpg/sg92_1_cif.got.tgz:1640.got - 2010.06.03 19:35:17.
