data_PCOD9549160
_publ_section_title
;
Structure prediction by ZEFSAII (Michael W. Deem and Ramdas Pophale) SiO2 
 PCOD9549160
Probable space group: P 41 21 2
;
_chemical_formula_sum "Si O2"
_cell_formula_units_Z 56
_cell_length_a 14.283058
_cell_length_b 14.283058
_cell_length_c 11.218935
_cell_angle_alpha 90.000000
_cell_angle_beta 90.000000
_cell_angle_gamma 90.000000
_cell_volume 2288.727202
_symmetry_space_group_name_H-M "P 41 21 2"
_symmetry_group_IT_number 92
_symmetry_cell_setting 'tetragonal'
loop_
_space_group_symop_operation_xyz
x,y,z
1/2-y,1/2+x,1/4+z
-x,-y,1/2+z
1/2+y,1/2-x,3/4+z
1/2+x,1/2-y,3/4-z
1/2-x,1/2+y,1/4-z
y,x,-z
-y,-x,1/2-z
loop_
_atom_site_type_symbol
_atom_site_label
_atom_site_fract_x
_atom_site_fract_y
_atom_site_fract_z
Si Si1 0.867295 0.623261 0.929115
Si Si2 0.271458 0.728638 0.504569
Si Si3 0.935203 0.290946 0.429109
Si Si4 0.593352 0.613011 0.132558
Si Si5 0.612406 0.423321 0.617350
Si Si6 0.528633 0.953212 0.428507
Si Si7 0.416422 0.253519 0.847192
O O1 0.812307 0.708527 0.864228
O O2 0.895443 0.536073 0.843975
O O3 0.967303 0.666313 0.970844
O O4 0.817548 0.574445 0.040116
O O5 0.317310 0.831017 0.523770
O O6 0.345087 0.649564 0.471904
O O7 0.195715 0.747743 0.400160
O O8 0.938145 0.178837 0.446348
O O9 0.497676 0.558111 0.117401
O O10 0.569670 0.704607 0.210939
O O11 0.630548 0.630548 0.000000
O O12 0.622565 0.377436 0.750000
O O13 0.670592 0.516920 0.591221
O O14 0.456734 0.983556 0.321820
O O15 0.553343 0.847471 0.394581
#
# Coordination Sequence:
#
# PCOD9549160 Si02
#       7
#     8   8   8   8   8   8   8
#     4  12  23  42  69 105 139 183 242 303 380 444
#     4  11  23  42  66  98 132 188 242 297 367 457
#     4  11  24  40  66 101 139 172 234 309 375 425
#     4  10  21  41  68  90 126 184 243 288 343 441
#     4  10  24  42  66  94 133 186 241 282 365 455
#     4  12  26  42  74 110 154 192 247 311 381 456
#     4  10  23  41  68 102 137 185 239 297 378 449
#
# _framework density 24.467749000000001
#
# number of rings (size 3 to 8) (size 9 to 14) (size 15 to 20)
#    0.000    1.143    2.857    3.000    6.000    1.143 
#    0.000   15.000    0.000    0.000    0.000    0.000 
#    0.000    0.000    0.000    0.000    0.000    0.000 
#
# Total GULP energy -311993.189089 kJ/mol
# GULP energy per Si atom -5571.306948 kJ/mol
# Density = 2.441206 g / cm^3
# Si number density = 24.467749 Si / 1000 Ang^3
#
#
#
# Elastic Constant Matrix: (Units=GPa)
#
#
# Indices 1 2 3 4 5 6 
#
# 1 91.0477 53.7581 8.6309 0.0000 0.0000 0.0000
# 2 53.7581 91.0474 8.6311 0.0000 0.0000 0.0000
# 3 8.6309 8.6311 68.2190 0.0000 0.0000 0.0000
# 4 0.0000 0.0000 0.0000 25.6881 0.0000 0.0000
# 5 0.0000 0.0000 0.0000 0.0000 25.6880 0.0000
# 6 0.0000 0.0000 0.0000 0.0000 0.0000 9.7659
#
#
#
# Elastic Compliance Matrix: (Units=1/GPa)
#
#
# Indices 1 2 3 4 5 6 
#
# 1 0.016914 -0.009903 -0.000887 0.000000 0.000000 0.000000
# 2 -0.009903 0.016914 -0.000887 0.000000 0.000000 0.000000
# 3 -0.000887 -0.000887 0.014883 0.000000 0.000000 0.000000
# 4 0.000000 0.000000 0.000000 0.038929 0.000000 0.000000
# 5 0.000000 0.000000 0.000000 0.000000 0.038929 0.000000
# 6 0.000000 0.000000 0.000000 0.000000 0.000000 0.102397
#
#
# Mechanical properties :
#
#
# Convention : Reuss Voigt Hill
#
# Bulk Modulus (GPa) = 39.43547 43.59492 41.51519
# Shear Modulus (GPa) = 19.17377 24.18133 21.67755
#
# Velocity S-wave (km/s) = 2.80238 3.14712 2.97974
# Velocity P-wave (km/s) = 5.15979 5.57331 5.37054
#
# Compressibility (1/GPa) = 0.02535788
#
# Stress axis : x y z
#
# Youngs Moduli (GPa) = 59.12135 59.12114 67.19007
#
# Poissons Ratio (x) = 0.58547 0.05960
# Poissons Ratio (y) = 0.58547 0.05961
# Poissons Ratio (z) = 0.05244 0.05245
#
# Static dielectric constant tensor:
#      x y z
#    x 2.031830 0.000000 0.000000 
#    y 0.000000 2.031830 0.000000 
#    z 0.000000 0.000000 2.029840 
# 
# From -- ./inp_files/2264.got.cif
#   From: 2010.05.17/outbox.cif.g08.bks.cpg/sg92_2_cif.got.tgz:2264.got - 2010.06.03 19:35:17.
