data_PCOD9549724
_publ_section_title
;
Structure prediction by ZEFSAII (Michael W. Deem and Ramdas Pophale) SiO2 
 PCOD9549724
Probable space group: P 42 2 2
;
_chemical_formula_sum "Si O2"
_cell_formula_units_Z 54
_cell_length_a 14.433932
_cell_length_b 14.433932
_cell_length_c 11.339332
_cell_angle_alpha 90.000000
_cell_angle_beta 90.000000
_cell_angle_gamma 90.000000
_cell_volume 2362.418206
_symmetry_space_group_name_H-M "P 42 2 2"
_symmetry_group_IT_number 93
_symmetry_cell_setting 'tetragonal'
loop_
_space_group_symop_operation_xyz
x,y,z
-y,x,1/2+z
-x,-y,z
y,-x,1/2+z
x,-y,-z
-x,y,-z
y,x,1/2-z
-y,-x,1/2-z
loop_
_atom_site_type_symbol
_atom_site_label
_atom_site_fract_x
_atom_site_fract_y
_atom_site_fract_z
Si Si1 0.784758 0.367705 0.594775
Si Si2 0.608462 0.608462 0.750000
Si Si3 0.000000 0.500000 0.000000
Si Si4 0.633755 0.802228 0.838157
Si Si5 0.825863 0.905928 0.861521
Si Si6 0.843248 0.533451 0.173757
Si Si7 0.433811 0.358395 0.396599
Si Si8 0.882034 0.822087 0.378746
O O1 0.825112 0.400642 0.469608
O O2 0.837730 0.410826 0.704993
O O3 0.673918 0.385622 0.604420
O O4 0.806797 0.259018 0.606072
O O5 0.631325 0.689914 0.841996
O O6 0.622244 0.504173 0.789410
O O7 0.930716 0.449584 0.909235
O O8 0.736039 0.843281 0.834715
O O9 0.571763 0.833114 0.726114
O O10 0.893236 0.893236 0.750000
O O11 0.790142 0.011178 0.870432
O O12 0.869191 0.879952 0.990057
O O13 0.753282 0.564438 0.100723
O O14 0.500000 0.395864 0.500000
O O15 0.866143 0.866143 0.250000
#
# Coordination Sequence:
#
# PCOD9549724 Si02
#       8
#     8   4   2   8   8   8   8   8
#     4  11  23  45  71  98 145 192 242 308 375 457
#     4  10  20  38  71 106 143 194 252 298 370 446
#     4  12  28  48  66 104 142 184 258 330 388 452
#     4  10  21  41  69  99 137 186 244 301 371 446
#     4  10  22  42  68  98 136 183 242 303 375 465
#     4  11  25  43  66  99 141 189 242 314 377 447
#     4  11  21  41  71 104 144 193 247 307 370 445
#     4  10  23  42  65 101 137 184 240 304 380 457
#
# _framework density 22.857934
#
# number of rings (size 3 to 8) (size 9 to 14) (size 15 to 20)
#    0.000    1.481    2.963    1.778    2.074    0.889 
#    2.667    8.148    1.630    0.000    0.000    0.000 
#    0.000    0.000    0.000    0.000    0.000    0.000 
#
# Total GULP energy -300897.424883 kJ/mol
# GULP energy per Si atom -5572.174535 kJ/mol
# Density = 2.280591 g / cm^3
# Si number density = 22.857934 Si / 1000 Ang^3
#
#
#
# Elastic Constant Matrix: (Units=GPa)
#
#
# Indices 1 2 3 4 5 6 
#
# 1 174.5642 -71.5100 34.2214 0.0000 0.0000 0.0000
# 2 -71.5100 174.5642 34.2214 0.0000 0.0000 0.0000
# 3 34.2214 34.2214 161.7833 0.0000 0.0000 0.0000
# 4 0.0000 0.0000 0.0000 26.3144 0.0000 0.0000
# 5 0.0000 0.0000 0.0000 0.0000 26.3144 0.0000
# 6 0.0000 0.0000 0.0000 0.0000 0.0000 -0.8230
#
#
#
# Elastic Compliance Matrix: (Units=1/GPa)
#
#
# Indices 1 2 3 4 5 6 
#
# 1 0.007677 0.003613 -0.002388 0.000000 0.000000 0.000000
# 2 0.003613 0.007677 -0.002388 0.000000 0.000000 0.000000
# 3 -0.002388 -0.002388 0.007191 0.000000 0.000000 0.000000
# 4 0.000000 0.000000 0.000000 0.038002 0.000000 0.000000
# 5 0.000000 0.000000 0.000000 0.000000 0.038002 0.000000
# 6 0.000000 0.000000 0.000000 0.000000 0.000000 -1.215030
#
#
# Mechanical properties :
#
#
# Convention : Reuss Voigt Hill
#
# Bulk Modulus (GPa) = 49.45975 56.08635 52.77305
# Shear Modulus (GPa) = -4.51502 44.62642 20.05570
#
# Velocity S-wave (km/s) = -1.40696 4.42332 2.96532
# Velocity P-wave (km/s) = 4.36411 7.11884 5.90438
#
# Compressibility (1/GPa) = 0.02021846
#
# Stress axis : x y z
#
# Youngs Moduli (GPa) = 130.26373 130.26373 139.05540
#
# Poissons Ratio (x) = -0.47063 0.33207
# Poissons Ratio (y) = -0.47063 0.33207
# Poissons Ratio (z) = 0.31108 0.31108
#
# Static dielectric constant tensor:
#      x y z
#    x 1.861630 0.000000 0.000000 
#    y 0.000000 1.861630 0.000000 
#    z 0.000000 0.000000 2.057390 
# 
# From -- ./inp_files/3517.got.cif
#   From: 2010.05.17/outbox.cif.g08.bks.cpg/sg93_2_cif.got.tgz:3517.got - 2010.06.03 19:38:44.
