data_PCOD9549342
_publ_section_title
;
Structure prediction by ZEFSAII (Michael W. Deem and Ramdas Pophale) SiO2 
 PCOD9549342
Probable space group: P 41 21 2
;
_chemical_formula_sum "Si O2"
_cell_formula_units_Z 40
_cell_length_a 9.575533
_cell_length_b 9.575533
_cell_length_c 17.956367
_cell_angle_alpha 90.000000
_cell_angle_beta 90.000000
_cell_angle_gamma 90.000000
_cell_volume 1646.434234
_symmetry_space_group_name_H-M "P 41 21 2"
_symmetry_group_IT_number 92
_symmetry_cell_setting 'tetragonal'
loop_
_space_group_symop_operation_xyz
x,y,z
1/2-y,1/2+x,1/4+z
-x,-y,1/2+z
1/2+y,1/2-x,3/4+z
1/2+x,1/2-y,3/4-z
1/2-x,1/2+y,1/4-z
y,x,-z
-y,-x,1/2-z
loop_
_atom_site_type_symbol
_atom_site_label
_atom_site_fract_x
_atom_site_fract_y
_atom_site_fract_z
Si Si1 0.405769 0.028618 0.520880
Si Si2 0.764466 0.081536 0.896725
Si Si3 0.855613 0.144388 0.250000
Si Si4 0.072044 0.709430 0.501910
Si Si5 0.695562 0.423172 0.110472
Si Si6 0.267588 0.732413 0.250000
O O1 0.376538 0.193062 0.512783
O O2 0.567118 0.028564 0.540820
O O3 0.291237 0.990850 0.581999
O O4 0.374731 0.938817 0.447189
O O5 0.867433 0.176038 0.946375
O O6 0.752630 0.155916 0.816636
O O7 0.822643 0.923508 0.891668
O O8 0.960054 0.110217 0.315946
O O9 0.192578 0.660971 0.559562
O O10 0.923738 0.757671 0.534723
#
# Coordination Sequence:
#
# PCOD9549342 Si02
#       6
#     8   8   4   8   8   4
#     4  11  25  48  76 112 150 209 259 332 403 494
#     4  12  28  49  82 114 160 215 273 338 418 502
#     4  10  23  43  74 114 144 198 262 324 398 478
#     4  11  30  48  77 114 159 209 270 337 417 483
#     4  11  25  48  79 112 158 201 268 333 407 497
#     4  12  31  49  76 116 166 212 274 348 420 488
#
# _framework density 24.294929
#
# number of rings (size 3 to 8) (size 9 to 14) (size 15 to 20)
#    0.000    0.800    2.000    1.800   16.800    3.200 
#    0.000    0.000    0.000    0.000    0.000    0.000 
#    0.000    0.000    0.000    0.000    0.000    0.000 
#
# Total GULP energy -223722.266864 kJ/mol
# GULP energy per Si atom -5593.056672 kJ/mol
# Density = 2.423963 g / cm^3
# Si number density = 24.294929 Si / 1000 Ang^3
#
#
#
# Elastic Constant Matrix: (Units=GPa)
#
#
# Indices 1 2 3 4 5 6 
#
# 1 130.1306 33.0593 40.7892 0.0000 0.0000 0.0000
# 2 33.0593 130.1303 40.7888 0.0000 0.0000 0.0000
# 3 40.7892 40.7888 114.7856 0.0000 0.0000 0.0000
# 4 0.0000 0.0000 0.0000 39.7990 0.0000 0.0000
# 5 0.0000 0.0000 0.0000 0.0000 39.7988 0.0000
# 6 0.0000 0.0000 0.0000 0.0000 0.0000 26.0071
#
#
#
# Elastic Compliance Matrix: (Units=1/GPa)
#
#
# Indices 1 2 3 4 5 6 
#
# 1 0.008877 -0.001425 -0.002648 0.000000 0.000000 0.000000
# 2 -0.001425 0.008877 -0.002648 0.000000 0.000000 0.000000
# 3 -0.002648 -0.002648 0.010594 0.000000 0.000000 0.000000
# 4 0.000000 0.000000 0.000000 0.025126 0.000000 0.000000
# 5 0.000000 0.000000 0.000000 0.000000 0.025126 0.000000
# 6 0.000000 0.000000 0.000000 0.000000 0.000000 0.038451
#
#
# Mechanical properties :
#
#
# Convention : Reuss Voigt Hill
#
# Bulk Modulus (GPa) = 67.09067 67.14679 67.11873
# Shear Modulus (GPa) = 36.91102 38.48158 37.69630
#
# Velocity S-wave (km/s) = 3.90203 3.98419 3.94332
# Velocity P-wave (km/s) = 6.92649 6.99022 6.95843
#
# Compressibility (1/GPa) = 0.01490520
#
# Stress axis : x y z
#
# Youngs Moduli (GPa) = 112.65553 112.65548 94.39532
#
# Poissons Ratio (x) = 0.16055 0.24995
# Poissons Ratio (y) = 0.16055 0.24995
# Poissons Ratio (z) = 0.29830 0.29830
#
# Static dielectric constant tensor:
#      x y z
#    x 1.967560 0.000000 0.000000 
#    y 0.000000 1.967550 0.000000 
#    z 0.000000 0.000000 2.049530 
# 
# From -- ./inp_files/2683.got.cif
#   From: 2010.05.17/outbox.cif.g08.bks.cpg/sg92_2_cif.got.tgz:2683.got - 2010.06.03 19:35:17.
