data_PCOD9549043
_publ_section_title
;
Structure prediction by ZEFSAII (Michael W. Deem and Ramdas Pophale) SiO2 
 PCOD9549043
Probable space group: P 41 21 2
;
_chemical_formula_sum "Si O2"
_cell_formula_units_Z 48
_cell_length_a 11.329222
_cell_length_b 11.329222
_cell_length_c 15.488658
_cell_angle_alpha 90.000000
_cell_angle_beta 90.000000
_cell_angle_gamma 90.000000
_cell_volume 1987.988942
_symmetry_space_group_name_H-M "P 41 21 2"
_symmetry_group_IT_number 92
_symmetry_cell_setting 'tetragonal'
loop_
_space_group_symop_operation_xyz
x,y,z
1/2-y,1/2+x,1/4+z
-x,-y,1/2+z
1/2+y,1/2-x,3/4+z
1/2+x,1/2-y,3/4-z
1/2-x,1/2+y,1/4-z
y,x,-z
-y,-x,1/2-z
loop_
_atom_site_type_symbol
_atom_site_label
_atom_site_fract_x
_atom_site_fract_y
_atom_site_fract_z
Si Si1 0.987904 0.613100 0.922819
Si Si2 0.222933 0.333180 0.113996
Si Si3 0.720006 0.030719 0.453328
Si Si4 0.281695 0.950251 0.303184
Si Si5 0.723128 0.389379 0.315697
Si Si6 0.623965 0.671947 0.905764
O O1 0.090716 0.515895 0.940415
O O2 0.030690 0.731032 0.873075
O O3 0.886315 0.560596 0.863271
O O4 0.944953 0.664780 0.014884
O O5 0.201916 0.397732 0.206143
O O6 0.329821 0.238239 0.108744
O O7 0.110263 0.280562 0.061396
O O8 0.256352 0.433527 0.044759
O O9 0.842974 0.078222 0.415795
O O10 0.195214 0.041151 0.349596
O O11 0.616921 0.383080 0.250000
O O12 0.759443 0.256911 0.339330
O O13 0.614911 0.614911 0.000000
#
# Coordination Sequence:
#
# PCOD9549043 Si02
#       6
#     8   8   8   8   8   8
#     4  11  22  39  76 104 137 195 247 310 383 451
#     4  11  26  44  68 106 150 206 253 301 381 470
#     4  12  23  42  71 108 148 193 257 306 380 463
#     4  10  25  45  69 103 153 201 248 305 383 467
#     4  10  20  42  74 110 137 181 255 319 377 434
#     4  10  20  38  64 107 142 178 242 316 368 427
#
# _framework density 24.145002000000002
#
# number of rings (size 3 to 8) (size 9 to 14) (size 15 to 20)
#    0.000    1.333    3.333    3.000    9.333    0.000 
#    3.000    0.000   25.667    0.000    0.000    0.000 
#    0.000    0.000    0.000    0.000    0.000    0.000 
#
# Total GULP energy -267693.093529 kJ/mol
# GULP energy per Si atom -5576.939449 kJ/mol
# Density = 2.409005 g / cm^3
# Si number density = 24.145002 Si / 1000 Ang^3
#
#
#
# Elastic Constant Matrix: (Units=GPa)
#
#
# Indices 1 2 3 4 5 6 
#
# 1 56.1254 19.5487 17.7575 0.0000 0.0000 0.0000
# 2 19.5487 56.1249 17.7577 0.0000 0.0000 0.0000
# 3 17.7575 17.7577 122.6474 0.0000 0.0000 0.0000
# 4 0.0000 0.0000 0.0000 39.1498 0.0000 0.0000
# 5 0.0000 0.0000 0.0000 0.0000 39.1499 0.0000
# 6 0.0000 0.0000 0.0000 0.0000 0.0000 47.5615
#
#
#
# Elastic Compliance Matrix: (Units=1/GPa)
#
#
# Indices 1 2 3 4 5 6 
#
# 1 0.020759 -0.006581 -0.002053 0.000000 0.000000 0.000000
# 2 -0.006581 0.020759 -0.002053 0.000000 0.000000 0.000000
# 3 -0.002053 -0.002053 0.008748 0.000000 0.000000 0.000000
# 4 0.000000 0.000000 0.000000 0.025543 0.000000 0.000000
# 5 0.000000 0.000000 0.000000 0.000000 0.025543 0.000000
# 6 0.000000 0.000000 0.000000 0.000000 0.000000 0.021025
#
#
# Mechanical properties :
#
#
# Convention : Reuss Voigt Hill
#
# Bulk Modulus (GPa) = 34.61071 38.33617 36.47344
# Shear Modulus (GPa) = 32.59856 37.16117 34.87986
#
# Velocity S-wave (km/s) = 3.67838 3.92737 3.80491
# Velocity P-wave (km/s) = 5.69265 6.03967 5.86873
#
# Compressibility (1/GPa) = 0.02889279
#
# Stress axis : x y z
#
# Youngs Moduli (GPa) = 48.17217 48.17166 114.31339
#
# Poissons Ratio (x) = 0.31702 0.23466
# Poissons Ratio (y) = 0.31702 0.23466
# Poissons Ratio (z) = 0.09888 0.09889
#
# Static dielectric constant tensor:
#      x y z
#    x 2.036340 0.000000 0.000000 
#    y 0.000000 2.036340 0.000000 
#    z 0.000000 0.000000 2.038400 
# 
# From -- ./inp_files/3143.got.cif
#   From: 2010.05.17/outbox.cif.g08.bks.cpg/sg92_2_cif.got.tgz:3143.got - 2010.06.03 19:35:17.
