data_PCOD9549654
_publ_section_title
;
Structure prediction by ZEFSAII (Michael W. Deem and Ramdas Pophale) SiO2 
 PCOD9549654
Probable space group: P 42 2 2
;
_chemical_formula_sum "Si O2"
_cell_formula_units_Z 32
_cell_length_a 9.150413
_cell_length_b 9.150413
_cell_length_c 15.148580
_cell_angle_alpha 90.000000
_cell_angle_beta 90.000000
_cell_angle_gamma 90.000000
_cell_volume 1268.391483
_symmetry_space_group_name_H-M "P 42 2 2"
_symmetry_group_IT_number 93
_symmetry_cell_setting 'tetragonal'
loop_
_space_group_symop_operation_xyz
x,y,z
-y,x,1/2+z
-x,-y,z
y,-x,1/2+z
x,-y,-z
-x,y,-z
y,x,1/2-z
-y,-x,1/2-z
loop_
_atom_site_type_symbol
_atom_site_label
_atom_site_fract_x
_atom_site_fract_y
_atom_site_fract_z
Si Si1 0.452368 0.345532 0.100488
Si Si2 0.657491 0.077730 0.359596
Si Si3 0.320938 0.866659 0.149085
Si Si4 0.173050 0.810202 0.642844
O O1 0.500000 0.500000 0.143171
O O2 0.516817 0.191122 0.133811
O O3 0.283337 0.314374 0.114566
O O4 0.500000 0.353164 0.000000
O O5 0.674044 0.102069 0.253981
O O6 0.722130 0.234894 0.388039
O O7 0.500000 0.000000 0.378019
O O8 0.786724 0.970307 0.389566
O O9 0.252590 0.016606 0.112827
O O10 0.178749 0.821252 0.750000
#
# Coordination Sequence:
#
# PCOD9549654 Si02
#       4
#     8   8   8   8
#     4  11  24  40  58  85 122 162 204 253 313 381
#     4  10  19  34  57  87 119 151 195 250 308 366
#     4  10  20  35  57  86 117 154 199 246 303 368
#     4  10  20  36  59  87 118 154 198 251 305 363
#
# _framework density 25.228805999999999
#
# number of rings (size 3 to 8) (size 9 to 14) (size 15 to 20)
#    0.000    1.750    0.000    6.000    0.000    7.500 
#    0.000    1.250    0.000    7.500    0.000    0.000 
#    0.000    0.000    0.000    0.000    0.000    0.000 
#
# Total GULP energy -178195.495385 kJ/mol
# GULP energy per Si atom -5568.609231 kJ/mol
# Density = 2.517138 g / cm^3
# Si number density = 25.228806 Si / 1000 Ang^3
#
#
#
# Elastic Constant Matrix: (Units=GPa)
#
#
# Indices 1 2 3 4 5 6 
#
# 1 119.6780 40.0149 5.2906 0.0000 0.0000 0.0000
# 2 40.0149 119.6779 5.2902 0.0000 0.0000 0.0000
# 3 5.2906 5.2902 39.9891 0.0000 0.0000 0.0000
# 4 0.0000 0.0000 0.0000 -21.5588 0.0000 0.0000
# 5 0.0000 0.0000 0.0000 0.0000 -21.5577 0.0000
# 6 0.0000 0.0000 0.0000 0.0000 0.0000 101.9369
#
#
#
# Elastic Compliance Matrix: (Units=1/GPa)
#
#
# Indices 1 2 3 4 5 6 
#
# 1 0.009435 -0.003118 -0.000836 0.000000 0.000000 0.000000
# 2 -0.003118 0.009435 -0.000836 0.000000 0.000000 0.000000
# 3 -0.000836 -0.000836 0.025228 0.000000 0.000000 0.000000
# 4 0.000000 0.000000 0.000000 -0.046385 0.000000 0.000000
# 5 0.000000 0.000000 0.000000 0.000000 -0.046387 0.000000
# 6 0.000000 0.000000 0.000000 0.000000 0.000000 0.009810
#
#
# Mechanical properties :
#
#
# Convention : Reuss Voigt Hill
#
# Bulk Modulus (GPa) = 28.96900 42.28183 35.62541
# Shear Modulus (GPa) = -281.23668 27.01404 -127.11132
#
# Velocity S-wave (km/s) = -10.56960 3.27580 -7.10583
# Velocity P-wave (km/s) = 11.72381 5.57706 7.29192
#
# Compressibility (1/GPa) = 0.03451966
#
# Stress axis : x y z
#
# Youngs Moduli (GPa) = 105.98682 105.98684 39.63862
#
# Poissons Ratio (x) = 0.33044 0.03313
# Poissons Ratio (y) = 0.33044 0.03313
# Poissons Ratio (z) = 0.08859 0.08857
#
# Static dielectric constant tensor:
#      x y z
#    x 1.922260 0.000000 0.000000 
#    y 0.000000 1.922270 0.000000 
#    z 0.000000 0.000000 2.015050 
# 
# From -- ./inp_files/5880.got.cif
#   From: 2010.05.17/outbox.cif.g08.bks.cpg/sg93_3_cif.got.tgz:5880.got - 2010.06.03 19:38:44.
