data_PCOD9549370
_publ_section_title
;
Structure prediction by ZEFSAII (Michael W. Deem and Ramdas Pophale) SiO2 
 PCOD9549370
Probable space group: P 41 21 2
;
_chemical_formula_sum "Si O2"
_cell_formula_units_Z 24
_cell_length_a 13.724805
_cell_length_b 13.724805
_cell_length_c 4.860931
_cell_angle_alpha 90.000000
_cell_angle_beta 90.000000
_cell_angle_gamma 90.000000
_cell_volume 915.654896
_symmetry_space_group_name_H-M "P 41 21 2"
_symmetry_group_IT_number 92
_symmetry_cell_setting 'tetragonal'
loop_
_space_group_symop_operation_xyz
x,y,z
1/2-y,1/2+x,1/4+z
-x,-y,1/2+z
1/2+y,1/2-x,3/4+z
1/2+x,1/2-y,3/4-z
1/2-x,1/2+y,1/4-z
y,x,-z
-y,-x,1/2-z
loop_
_atom_site_type_symbol
_atom_site_label
_atom_site_fract_x
_atom_site_fract_y
_atom_site_fract_z
Si Si1 0.726218 0.630891 0.757912
Si Si2 0.569322 0.341641 0.485151
Si Si3 0.372144 0.072859 0.574658
O O1 0.670340 0.670340 0.500000
O O2 0.840637 0.613852 0.697324
O O3 0.709357 0.709357 0.000000
O O4 0.677789 0.533222 0.870979
O O5 0.575901 0.424100 0.250000
O O6 0.581787 0.243909 0.297183
O O7 0.639639 0.360362 0.750000
O O8 0.460054 0.105604 0.379833
#
# Coordination Sequence:
#
# PCOD9549370 Si02
#       3
#     8   8   8
#     4  11  24  44  70 101 137 179 225 277 336 400
#     4  11  24  44  70 101 137 179 225 277 336 400
#     4  10  24  42  68 102 138 178 224 280 340 402
#
# _framework density 26.210746
#
# number of rings (size 3 to 8) (size 9 to 14) (size 15 to 20)
#    0.000    1.333    0.000    4.000    0.000   13.333 
#    0.000    0.000    0.000    0.000    0.000    0.000 
#    0.000    0.000    0.000    0.000    0.000    0.000 
#
# Total GULP energy -133902.899431 kJ/mol
# GULP energy per Si atom -5579.287476 kJ/mol
# Density = 2.615109 g / cm^3
# Si number density = 26.210746 Si / 1000 Ang^3
#
#
#
# Elastic Constant Matrix: (Units=GPa)
#
#
# Indices 1 2 3 4 5 6 
#
# 1 80.6880 7.1455 37.8990 0.0000 0.0000 0.0000
# 2 7.1455 80.6875 37.8982 0.0000 0.0000 0.0000
# 3 37.8990 37.8982 138.5804 0.0000 0.0000 0.0000
# 4 0.0000 0.0000 0.0000 289.2643 0.0000 0.0000
# 5 0.0000 0.0000 0.0000 0.0000 289.2207 0.0000
# 6 0.0000 0.0000 0.0000 0.0000 0.0000 36.4334
#
#
#
# Elastic Compliance Matrix: (Units=1/GPa)
#
#
# Indices 1 2 3 4 5 6 
#
# 1 0.014250 0.000652 -0.004075 0.000000 0.000000 0.000000
# 2 0.000652 0.014250 -0.004075 0.000000 0.000000 0.000000
# 3 -0.004075 -0.004075 0.009445 0.000000 0.000000 0.000000
# 4 0.000000 0.000000 0.000000 0.003457 0.000000 0.000000
# 5 0.000000 0.000000 0.000000 0.000000 0.003458 0.000000
# 6 0.000000 0.000000 0.000000 0.000000 0.000000 0.027447
#
#
# Mechanical properties :
#
#
# Convention : Reuss Voigt Hill
#
# Bulk Modulus (GPa) = 43.57721 51.76014 47.66867
# Shear Modulus (GPa) = 52.65756 137.45122 95.05439
#
# Velocity S-wave (km/s) = 4.48706 7.24946 6.02861
# Velocity P-wave (km/s) = 6.59596 9.47963 8.16609
#
# Compressibility (1/GPa) = 0.02294778
#
# Stress axis : x y z
#
# Youngs Moduli (GPa) = 70.17609 70.17596 105.87518
#
# Poissons Ratio (x) = -0.04577 0.43149
# Poissons Ratio (y) = -0.04577 0.43148
# Poissons Ratio (z) = 0.28600 0.28599
#
# Static dielectric constant tensor:
#      x y z
#    x 2.016850 0.000000 0.000000 
#    y 0.000000 2.016850 0.000000 
#    z 0.000000 0.000000 2.038250 
# 
# From -- ./inp_files/215.got.cif
#   From: 2010.05.17/outbox.cif.g08.bks.cpg/sg92_1_cif.got.tgz:215.got - 2010.06.03 19:35:17.
