data_PCOD9549255
_publ_section_title
;
Structure prediction by ZEFSAII (Michael W. Deem and Ramdas Pophale) SiO2 
 PCOD9549255
Probable space group: P 41 21 2
;
_chemical_formula_sum "Si O2"
_cell_formula_units_Z 40
_cell_length_a 8.588103
_cell_length_b 8.588103
_cell_length_c 24.120921
_cell_angle_alpha 90.000000
_cell_angle_beta 90.000000
_cell_angle_gamma 90.000000
_cell_volume 1779.050906
_symmetry_space_group_name_H-M "P 41 21 2"
_symmetry_group_IT_number 92
_symmetry_cell_setting 'tetragonal'
loop_
_space_group_symop_operation_xyz
x,y,z
1/2-y,1/2+x,1/4+z
-x,-y,1/2+z
1/2+y,1/2-x,3/4+z
1/2+x,1/2-y,3/4-z
1/2-x,1/2+y,1/4-z
y,x,-z
-y,-x,1/2-z
loop_
_atom_site_type_symbol
_atom_site_label
_atom_site_fract_x
_atom_site_fract_y
_atom_site_fract_z
Si Si1 0.544660 0.085170 0.997742
Si Si2 0.255382 0.146015 0.352453
Si Si3 0.569975 0.288368 0.796607
Si Si4 0.735430 0.568867 0.047894
Si Si5 0.295288 0.236909 0.150501
O O1 0.607215 0.193964 0.948409
O O2 0.559340 0.908069 0.978000
O O3 0.643354 0.118088 0.053142
O O4 0.367014 0.119107 0.013698
O O5 0.305673 0.255901 0.402685
O O6 0.094126 0.192735 0.325161
O O7 0.247162 0.970173 0.376088
O O8 0.578066 0.421935 0.750000
O O9 0.681036 0.311596 0.849748
O O10 0.400039 0.255409 0.821420
O O11 0.618145 0.618145 0.000000
#
# Coordination Sequence:
#
# PCOD9549255 Si02
#       5
#     8   8   8   8   8
#     4  10  22  42  62  88 124 162 206 260 310 370
#     4  10  23  40  62  94 127 160 208 259 311 374
#     4  11  23  40  65  91 124 166 208 257 314 372
#     4  11  23  40  65  91 124 166 208 257 314 372
#     4  10  23  40  62  94 127 160 208 259 311 374
#
# _framework density 22.483896999999999
#
# number of rings (size 3 to 8) (size 9 to 14) (size 15 to 20)
#    0.000    1.600    0.000    3.600    0.000   12.800 
#    0.000    0.000    0.000    0.000    0.000    0.000 
#    0.000    0.000    0.000    0.000    0.000    0.000 
#
# Total GULP energy -223868.921321 kJ/mol
# GULP energy per Si atom -5596.723033 kJ/mol
# Density = 2.243272 g / cm^3
# Si number density = 22.483897 Si / 1000 Ang^3
#
#
#
# Elastic Constant Matrix: (Units=GPa)
#
#
# Indices 1 2 3 4 5 6 
#
# 1 47.8616 9.2341 46.7740 0.0000 0.0000 0.0000
# 2 9.2341 47.8617 46.7735 0.0000 0.0000 0.0000
# 3 46.7740 46.7735 163.9328 0.0000 0.0000 0.0000
# 4 0.0000 0.0000 0.0000 33.5468 0.0000 0.0000
# 5 0.0000 0.0000 0.0000 0.0000 33.5470 0.0000
# 6 0.0000 0.0000 0.0000 0.0000 0.0000 22.1368
#
#
#
# Elastic Compliance Matrix: (Units=1/GPa)
#
#
# Indices 1 2 3 4 5 6 
#
# 1 0.029389 0.003501 -0.009384 0.000000 0.000000 0.000000
# 2 0.003501 0.029389 -0.009384 0.000000 0.000000 0.000000
# 3 -0.009384 -0.009384 0.011455 0.000000 0.000000 0.000000
# 4 0.000000 0.000000 0.000000 0.029809 0.000000 0.000000
# 5 0.000000 0.000000 0.000000 0.000000 0.029809 0.000000
# 6 0.000000 0.000000 0.000000 0.000000 0.000000 0.045174
#
#
# Mechanical properties :
#
#
# Convention : Reuss Voigt Hill
#
# Bulk Modulus (GPa) = 25.19024 51.69104 38.44064
# Shear Modulus (GPa) = 22.85266 28.30440 25.57853
#
# Velocity S-wave (km/s) = 3.19156 3.55191 3.37655
# Velocity P-wave (km/s) = 4.98091 6.31360 5.68643
#
# Compressibility (1/GPa) = 0.03969791
#
# Stress axis : x y z
#
# Youngs Moduli (GPa) = 34.02611 34.02644 87.29722
#
# Poissons Ratio (x) = -0.11912 0.81922
# Poissons Ratio (y) = -0.11912 0.81921
# Poissons Ratio (z) = 0.31931 0.31931
#
# Static dielectric constant tensor:
#      x y z
#    x 1.819370 0.000000 0.000000 
#    y 0.000000 1.819370 0.000000 
#    z 0.000000 0.000000 1.837110 
# 
# From -- ./inp_files/3778.got.cif
#   From: 2010.05.17/outbox.cif.g08.bks.cpg/sg92_2_cif.got.tgz:3778.got - 2010.06.03 19:35:17.
