data_PCOD9549112
_publ_section_title
;
Structure prediction by ZEFSAII (Michael W. Deem and Ramdas Pophale) SiO2 
 PCOD9549112
Probable space group: P 41 21 2
;
_chemical_formula_sum "Si O2"
_cell_formula_units_Z 48
_cell_length_a 13.324042
_cell_length_b 13.324042
_cell_length_c 15.185086
_cell_angle_alpha 90.000000
_cell_angle_beta 90.000000
_cell_angle_gamma 90.000000
_cell_volume 2695.809763
_symmetry_space_group_name_H-M "P 41 21 2"
_symmetry_group_IT_number 92
_symmetry_cell_setting 'tetragonal'
loop_
_space_group_symop_operation_xyz
x,y,z
1/2-y,1/2+x,1/4+z
-x,-y,1/2+z
1/2+y,1/2-x,3/4+z
1/2+x,1/2-y,3/4-z
1/2-x,1/2+y,1/4-z
y,x,-z
-y,-x,1/2-z
loop_
_atom_site_type_symbol
_atom_site_label
_atom_site_fract_x
_atom_site_fract_y
_atom_site_fract_z
Si Si1 0.059583 0.439148 0.522021
Si Si2 0.059526 0.150834 0.087056
Si Si3 0.297997 0.662837 0.519370
Si Si4 0.894493 0.985474 0.087898
Si Si5 0.896645 0.309480 0.444629
Si Si6 0.067585 0.649615 0.579140
O O1 0.130390 0.416214 0.604227
O O2 0.019149 0.552390 0.532733
O O3 0.124284 0.429643 0.433038
O O4 0.968057 0.362614 0.515664
O O5 0.127074 0.178968 0.170727
O O6 0.989693 0.246797 0.065961
O O7 0.120742 0.120742 0.000000
O O8 0.988949 0.055845 0.111343
O O9 0.359476 0.591840 0.586832
O O10 0.318180 0.780438 0.532371
O O11 0.180610 0.650843 0.542921
O O12 0.802625 0.061536 0.068429
O O13 0.924242 0.924242 0.000000
#
# Coordination Sequence:
#
# PCOD9549112 Si02
#       6
#     8   8   8   8   8   8
#     4  10  21  37  62  96 125 158 204 272 317 373
#     4  11  25  43  62  88 131 178 207 254 318 389
#     4  12  23  39  66  94 124 166 219 253 322 382
#     4  11  22  40  66  96 131 159 211 271 322 375
#     4  11  22  38  61  96 130 162 207 268 327 367
#     4  11  20  38  65  89 121 162 214 254 317 377
#
# _framework density 17.805409999999998
#
# number of rings (size 3 to 8) (size 9 to 14) (size 15 to 20)
#    0.000    1.000    6.667    1.500    0.000    2.667 
#    0.000    0.000    0.000    0.000    0.000    0.000 
#    0.000    0.000    0.000    0.000    0.000    0.000 
#
# Total GULP energy -268041.394524 kJ/mol
# GULP energy per Si atom -5584.195719 kJ/mol
# Density = 1.776488 g / cm^3
# Si number density = 17.805410 Si / 1000 Ang^3
#
#
#
# Elastic Constant Matrix: (Units=GPa)
#
#
# Indices 1 2 3 4 5 6 
#
# 1 115.7714 38.0371 64.8015 0.0000 0.0000 0.0000
# 2 38.0371 115.7714 64.8015 0.0000 0.0000 0.0000
# 3 64.8015 64.8015 111.7925 0.0000 0.0000 0.0000
# 4 0.0000 0.0000 0.0000 24.0413 0.0000 0.0000
# 5 0.0000 0.0000 0.0000 0.0000 24.0413 0.0000
# 6 0.0000 0.0000 0.0000 0.0000 0.0000 26.3179
#
#
#
# Elastic Compliance Matrix: (Units=1/GPa)
#
#
# Indices 1 2 3 4 5 6 
#
# 1 0.012787 -0.000078 -0.007367 0.000000 0.000000 0.000000
# 2 -0.000078 0.012787 -0.007367 0.000000 0.000000 0.000000
# 3 -0.007367 -0.007367 0.017486 0.000000 0.000000 0.000000
# 4 0.000000 0.000000 0.000000 0.041595 0.000000 0.000000
# 5 0.000000 0.000000 0.000000 0.000000 0.041595 0.000000
# 6 0.000000 0.000000 0.000000 0.000000 0.000000 0.037997
#
#
# Mechanical properties :
#
#
# Convention : Reuss Voigt Hill
#
# Bulk Modulus (GPa) = 74.42552 75.40171 74.91362
# Shear Modulus (GPa) = 25.20816 26.59311 25.90064
#
# Velocity S-wave (km/s) = 3.76674 3.86883 3.81812
# Velocity P-wave (km/s) = 7.79794 7.89916 7.84871
#
# Compressibility (1/GPa) = 0.01343625
#
# Stress axis : x y z
#
# Youngs Moduli (GPa) = 78.20577 78.20577 57.18915
#
# Poissons Ratio (x) = 0.00607 0.42131
# Poissons Ratio (y) = 0.00607 0.42131
# Poissons Ratio (z) = 0.57614 0.57614
#
# Static dielectric constant tensor:
#      x y z
#    x 1.615130 0.000000 0.000000 
#    y 0.000000 1.615130 0.000000 
#    z 0.000000 0.000000 1.589220 
# 
# From -- ./inp_files/3114.got.cif
#   From: 2010.05.17/outbox.cif.g08.bks.cpg/sg92_2_cif.got.tgz:3114.got - 2010.06.03 19:35:17.
