data_PCOD9549074
_publ_section_title
;
Structure prediction by ZEFSAII (Michael W. Deem and Ramdas Pophale) SiO2 
 PCOD9549074
Probable space group: P 41 21 2
;
_chemical_formula_sum "Si O2"
_cell_formula_units_Z 40
_cell_length_a 8.770422
_cell_length_b 8.770422
_cell_length_c 24.919087
_cell_angle_alpha 90.000000
_cell_angle_beta 90.000000
_cell_angle_gamma 90.000000
_cell_volume 1916.783699
_symmetry_space_group_name_H-M "P 41 21 2"
_symmetry_group_IT_number 92
_symmetry_cell_setting 'tetragonal'
loop_
_space_group_symop_operation_xyz
x,y,z
1/2-y,1/2+x,1/4+z
-x,-y,1/2+z
1/2+y,1/2-x,3/4+z
1/2+x,1/2-y,3/4-z
1/2-x,1/2+y,1/4-z
y,x,-z
-y,-x,1/2-z
loop_
_atom_site_type_symbol
_atom_site_label
_atom_site_fract_x
_atom_site_fract_y
_atom_site_fract_z
Si Si1 0.602743 0.848163 0.807256
Si Si2 0.077812 0.044671 0.117656
Si Si3 0.145683 0.732006 0.161385
Si Si4 0.763296 0.985493 0.945690
Si Si5 0.763777 0.677146 0.900627
O O1 0.564383 0.769233 0.751282
O O2 0.725972 0.757052 0.843263
O O3 0.440758 0.859651 0.838956
O O4 0.672108 0.016711 0.798746
O O5 0.152288 0.914739 0.155694
O O6 0.196167 0.146853 0.085070
O O7 0.988082 0.939193 0.074625
O O8 0.968856 0.155580 0.150875
O O9 0.078528 0.684846 0.102489
O O10 0.715580 0.809588 0.942327
#
# Coordination Sequence:
#
# PCOD9549074 Si02
#       5
#     8   8   8   8   8
#     4  11  20  41  59  96 125 171 217 265 319 392
#     4  10  20  41  62  92 123 170 206 272 326 376
#     4   9  21  40  61  89 130 163 209 274 326 374
#     4   9  22  38  62  89 126 168 221 249 325 390
#     4  11  20  36  66  87 127 169 214 270 312 382
#
# _framework density 20.868289000000001
#
# number of rings (size 3 to 8) (size 9 to 14) (size 15 to 20)
#    1.200    0.800    2.000    1.800    0.000    0.000 
#   10.800    5.000    4.400    0.000    0.000    0.000 
#    0.000    0.000    0.000    0.000    0.000    0.000 
#
# Total GULP energy -222824.348118 kJ/mol
# GULP energy per Si atom -5570.608703 kJ/mol
# Density = 2.082079 g / cm^3
# Si number density = 20.868289 Si / 1000 Ang^3
#
#
#
# Elastic Constant Matrix: (Units=GPa)
#
#
# Indices 1 2 3 4 5 6 
#
# 1 46.0129 31.5077 -19.1688 0.0000 0.0000 0.0000
# 2 31.5077 46.0129 -19.1688 0.0000 0.0000 0.0000
# 3 -19.1688 -19.1688 45.7407 0.0000 0.0000 0.0000
# 4 0.0000 0.0000 0.0000 12.7884 0.0000 0.0000
# 5 0.0000 0.0000 0.0000 0.0000 12.7884 0.0000
# 6 0.0000 0.0000 0.0000 0.0000 0.0000 42.4629
#
#
#
# Elastic Compliance Matrix: (Units=1/GPa)
#
#
# Indices 1 2 3 4 5 6 
#
# 1 0.042607 -0.026334 0.006819 0.000000 0.000000 0.000000
# 2 -0.026334 0.042607 0.006819 0.000000 0.000000 0.000000
# 3 0.006819 0.006819 0.027578 0.000000 0.000000 0.000000
# 4 0.000000 0.000000 0.000000 0.078196 0.000000 0.000000
# 5 0.000000 0.000000 0.000000 0.000000 0.078196 0.000000
# 6 0.000000 0.000000 0.000000 0.000000 0.000000 0.023550
#
#
# Mechanical properties :
#
#
# Convention : Reuss Voigt Hill
#
# Bulk Modulus (GPa) = 11.44171 13.78965 12.61568
# Shear Modulus (GPa) = 14.39854 23.24770 18.82312
#
# Velocity S-wave (km/s) = 2.62958 3.34132 3.00658
# Velocity P-wave (km/s) = 3.83593 4.63769 4.25573
#
# Compressibility (1/GPa) = 0.08739951
#
# Stress axis : x y z
#
# Youngs Moduli (GPa) = 23.47056 23.47056 36.26090
#
# Poissons Ratio (x) = 0.61808 -0.24727
# Poissons Ratio (y) = 0.61808 -0.24727
# Poissons Ratio (z) = -0.16005 -0.16005
#
# Static dielectric constant tensor:
#      x y z
#    x 1.773230 0.000000 0.000000 
#    y 0.000000 1.773230 0.000000 
#    z 0.000000 0.000000 1.760950 
# 
# From -- ./inp_files/4152.got.cif
#   From: 2010.05.17/outbox.cif.g08.bks.cpg/sg92_3_cif.got.tgz:4152.got - 2010.06.03 19:35:17.
