data_PCOD9549527
_publ_section_title
;
Structure prediction by ZEFSAII (Michael W. Deem and Ramdas Pophale) SiO2 
 PCOD9549527
Probable space group: P 41 21 2
;
_chemical_formula_sum "Si O2"
_cell_formula_units_Z 32
_cell_length_a 10.187481
_cell_length_b 10.187481
_cell_length_c 12.495670
_cell_angle_alpha 90.000000
_cell_angle_beta 90.000000
_cell_angle_gamma 90.000000
_cell_volume 1296.860226
_symmetry_space_group_name_H-M "P 41 21 2"
_symmetry_group_IT_number 92
_symmetry_cell_setting 'tetragonal'
loop_
_space_group_symop_operation_xyz
x,y,z
1/2-y,1/2+x,1/4+z
-x,-y,1/2+z
1/2+y,1/2-x,3/4+z
1/2+x,1/2-y,3/4-z
1/2-x,1/2+y,1/4-z
y,x,-z
-y,-x,1/2-z
loop_
_atom_site_type_symbol
_atom_site_label
_atom_site_fract_x
_atom_site_fract_y
_atom_site_fract_z
Si Si1 0.960178 0.308245 0.718492
Si Si2 0.821434 0.907045 0.601896
Si Si3 0.792761 0.996691 0.232270
Si Si4 0.823950 0.459533 0.243506
O O1 0.816281 0.364973 0.701105
O O2 0.972206 0.213536 0.820340
O O3 0.012130 0.252216 0.605478
O O4 0.063296 0.427797 0.737485
O O5 0.917495 0.917495 0.500000
O O6 0.875472 0.799046 0.686085
O O7 0.928258 0.071743 0.250000
O O8 0.676336 0.097325 0.260223
O O9 0.766574 0.963819 0.109665
#
# Coordination Sequence:
#
# PCOD9549527 Si02
#       4
#     8   8   8   8
#     4   9  22  47  70 105 137 204 239 305 383 450
#     4  11  26  43  71 109 147 191 246 307 370 454
#     4  11  26  44  71 114 138 196 252 316 379 448
#     4   9  22  45  77  98 147 194 251 299 393 453
#
# _framework density 24.674980000000001
#
# number of rings (size 3 to 8) (size 9 to 14) (size 15 to 20)
#    0.000    2.000    0.000    0.000   21.000    1.000 
#    4.500    0.000    0.000    0.000    0.000    0.000 
#    0.000    0.000    0.000    0.000    0.000    0.000 
#
# Total GULP energy -179074.356732 kJ/mol
# GULP energy per Si atom -5596.073648 kJ/mol
# Density = 2.461882 g / cm^3
# Si number density = 24.674980 Si / 1000 Ang^3
#
#
#
# Elastic Constant Matrix: (Units=GPa)
#
#
# Indices 1 2 3 4 5 6 
#
# 1 52.5557 47.3026 46.2606 0.0000 0.0000 0.0000
# 2 47.3026 52.5558 46.2609 0.0000 0.0000 0.0000
# 3 46.2606 46.2609 198.1207 0.0000 0.0000 0.0000
# 4 0.0000 0.0000 0.0000 36.4664 0.0000 0.0000
# 5 0.0000 0.0000 0.0000 0.0000 36.4660 0.0000
# 6 0.0000 0.0000 0.0000 0.0000 0.0000 28.2318
#
#
#
# Elastic Compliance Matrix: (Units=1/GPa)
#
#
# Indices 1 2 3 4 5 6 
#
# 1 0.101571 -0.088792 -0.002984 0.000000 0.000000 0.000000
# 2 -0.088792 0.101571 -0.002984 0.000000 0.000000 0.000000
# 3 -0.002984 -0.002984 0.006441 0.000000 0.000000 0.000000
# 4 0.000000 0.000000 0.000000 0.027422 0.000000 0.000000
# 5 0.000000 0.000000 0.000000 0.000000 0.027423 0.000000
# 6 0.000000 0.000000 0.000000 0.000000 0.000000 0.035421
#
#
# Mechanical properties :
#
#
# Convention : Reuss Voigt Hill
#
# Bulk Modulus (GPa) = 49.84264 64.76450 57.30357
# Shear Modulus (GPa) = 10.07950 31.12671 20.60311
#
# Velocity S-wave (km/s) = 2.02331 3.55557 2.89274
# Velocity P-wave (km/s) = 5.06970 6.56964 5.86779
#
# Compressibility (1/GPa) = 0.02006314
#
# Stress axis : x y z
#
# Youngs Moduli (GPa) = 9.84534 9.84534 155.25882
#
# Poissons Ratio (x) = 0.87419 0.46324
# Poissons Ratio (y) = 0.87419 0.46329
# Poissons Ratio (z) = 0.02938 0.02938
#
# Static dielectric constant tensor:
#      x y z
#    x 1.961700 0.000000 0.000000 
#    y 0.000000 1.961700 0.000000 
#    z 0.000000 0.000000 1.986970 
# 
# From -- ./inp_files/1941.got.cif
#   From: 2010.05.17/outbox.cif.g08.bks.cpg/sg92_1_cif.got.tgz:1941.got - 2010.06.03 19:35:17.
