data_PCOD9549680
_publ_section_title
;
Structure prediction by ZEFSAII (Michael W. Deem and Ramdas Pophale) SiO2 
 PCOD9549680
Probable space group: P 42 2 2
;
_chemical_formula_sum "Si O2"
_cell_formula_units_Z 56
_cell_length_a 14.485724
_cell_length_b 14.485724
_cell_length_c 10.800877
_cell_angle_alpha 90.000000
_cell_angle_beta 90.000000
_cell_angle_gamma 90.000000
_cell_volume 2266.414984
_symmetry_space_group_name_H-M "P 42 2 2"
_symmetry_group_IT_number 93
_symmetry_cell_setting 'tetragonal'
loop_
_space_group_symop_operation_xyz
x,y,z
-y,x,1/2+z
-x,-y,z
y,-x,1/2+z
x,-y,-z
-x,y,-z
y,x,1/2-z
-y,-x,1/2-z
loop_
_atom_site_type_symbol
_atom_site_label
_atom_site_fract_x
_atom_site_fract_y
_atom_site_fract_z
Si Si1 0.658784 0.522112 0.303878
Si Si2 0.153350 0.916318 0.567857
Si Si3 0.346903 0.854300 0.467155
Si Si4 0.611504 0.103856 0.182200
Si Si5 0.358042 0.704054 0.043406
Si Si6 0.847388 0.571979 0.222732
Si Si7 0.065748 0.254330 0.323284
O O1 0.570241 0.570241 0.250000
O O2 0.695995 0.587017 0.415751
O O3 0.646498 0.422084 0.362401
O O4 0.744980 0.529941 0.210989
O O5 0.246381 0.895283 0.492874
O O6 0.190048 0.948997 0.702333
O O7 0.098765 0.820393 0.577975
O O8 0.103819 0.000000 0.500000
O O9 0.374088 0.882357 0.329706
O O10 0.334387 0.743912 0.470076
O O11 0.410989 0.884150 0.583323
O O12 0.639943 0.192883 0.101223
O O13 0.499476 0.100959 0.185213
O O14 0.677982 0.019232 0.147886
O O15 0.853630 0.673898 0.282888
#
# Coordination Sequence:
#
# PCOD9549680 Si02
#       7
#     8   8   8   8   8   8   8
#     4  10  19  39  64 100 136 183 244 298 353 458
#     4  10  20  38  66 103 134 193 250 297 383 467
#     4  11  20  38  62  96 141 191 241 301 371 451
#     4  11  22  38  59 102 145 186 243 313 372 448
#     4  10  22  36  65  99 134 188 240 298 378 434
#     4  10  21  35  65  99 141 193 239 297 379 455
#     4  10  21  37  64 102 145 184 241 317 378 445
#
# _framework density 24.708628000000001
#
# number of rings (size 3 to 8) (size 9 to 14) (size 15 to 20)
#    0.000    1.714    2.857    2.143    2.000    0.000 
#    0.000    4.286    0.000   15.429    3.714    0.000 
#    0.000    0.000    0.000    0.000    0.000    0.000 
#
# Total GULP energy -313289.720900 kJ/mol
# GULP energy per Si atom -5594.459302 kJ/mol
# Density = 2.465239 g / cm^3
# Si number density = 24.708628 Si / 1000 Ang^3
#
#
#
# Elastic Constant Matrix: (Units=GPa)
#
#
# Indices 1 2 3 4 5 6 
#
# 1 124.0931 39.6850 23.6222 0.0000 0.0000 0.0000
# 2 39.6850 124.0931 23.6222 0.0000 0.0000 0.0000
# 3 23.6222 23.6222 81.8574 0.0000 0.0000 0.0000
# 4 0.0000 0.0000 0.0000 24.2287 0.0000 0.0000
# 5 0.0000 0.0000 0.0000 0.0000 24.2287 0.0000
# 6 0.0000 0.0000 0.0000 0.0000 0.0000 34.4910
#
#
#
# Elastic Compliance Matrix: (Units=1/GPa)
#
#
# Indices 1 2 3 4 5 6 
#
# 1 0.009254 -0.002593 -0.001922 0.000000 0.000000 0.000000
# 2 -0.002593 0.009254 -0.001922 0.000000 0.000000 0.000000
# 3 -0.001922 -0.001922 0.013326 0.000000 0.000000 0.000000
# 4 0.000000 0.000000 0.000000 0.041273 0.000000 0.000000
# 5 0.000000 0.000000 0.000000 0.000000 0.041273 0.000000
# 6 0.000000 0.000000 0.000000 0.000000 0.000000 0.028993
#
#
# Mechanical properties :
#
#
# Convention : Reuss Voigt Hill
#
# Bulk Modulus (GPa) = 52.74769 55.98913 54.36841
# Shear Modulus (GPa) = 30.75654 32.79732 31.77693
#
# Velocity S-wave (km/s) = 3.53196 3.64725 3.59007
# Velocity P-wave (km/s) = 6.16662 6.35968 6.26389
#
# Compressibility (1/GPa) = 0.01895818
#
# Stress axis : x y z
#
# Youngs Moduli (GPa) = 108.06455 108.06455 75.04324
#
# Poissons Ratio (x) = 0.28026 0.14423
# Poissons Ratio (y) = 0.28026 0.14423
# Poissons Ratio (z) = 0.20770 0.20770
#
# Static dielectric constant tensor:
#      x y z
#    x 1.985870 0.000000 0.000000 
#    y 0.000000 1.985870 0.000000 
#    z 0.000000 0.000000 1.998380 
# 
# From -- ./inp_files/3500.got.cif
#   From: 2010.05.17/outbox.cif.g08.bks.cpg/sg93_2_cif.got.tgz:3500.got - 2010.06.03 19:38:44.
