data_PCOD9549649
_publ_section_title
;
Structure prediction by ZEFSAII (Michael W. Deem and Ramdas Pophale) SiO2 
 PCOD9549649
Probable space group: P 42 2 2
;
_chemical_formula_sum "Si O2"
_cell_formula_units_Z 38
_cell_length_a 13.771258
_cell_length_b 13.771258
_cell_length_c 11.758659
_cell_angle_alpha 90.000000
_cell_angle_beta 90.000000
_cell_angle_gamma 90.000000
_cell_volume 2230.000834
_symmetry_space_group_name_H-M "P 42 2 2"
_symmetry_group_IT_number 93
_symmetry_cell_setting 'tetragonal'
loop_
_space_group_symop_operation_xyz
x,y,z
-y,x,1/2+z
-x,-y,z
y,-x,1/2+z
x,-y,-z
-x,y,-z
y,x,1/2-z
-y,-x,1/2-z
loop_
_atom_site_type_symbol
_atom_site_label
_atom_site_fract_x
_atom_site_fract_y
_atom_site_fract_z
Si Si1 0.587097 0.587097 0.250000
Si Si2 0.101860 0.396242 0.057523
Si Si3 0.307281 0.301240 0.424540
Si Si4 0.000000 0.500000 0.500000
Si Si5 0.424427 0.142750 0.183175
Si Si6 0.696743 0.412594 0.339897
O O1 0.600246 0.670763 0.345608
O O2 0.611401 0.492008 0.321888
O O3 0.189844 0.320619 0.041999
O O4 0.095106 0.410916 0.193635
O O5 0.128352 0.500000 0.000000
O O6 0.000000 0.367443 0.000000
O O7 0.215044 0.335967 0.350282
O O8 0.304551 0.368002 0.535627
O O9 0.934385 0.435641 0.583071
O O10 0.523900 0.206821 0.180931
O O11 0.671696 0.328305 0.250000
#
# Coordination Sequence:
#
# PCOD9549649 Si02
#       6
#     4   8   8   2   8   8
#     4  10  19  34  52  76 114 158 197 220 284 331
#     4  11  22  37  57  82 111 155 195 243 290 333
#     4  11  20  37  57  77 115 153 195 238 290 342
#     4  12  20  36  62  80 112 144 208 234 284 360
#     4  11  21  39  55  82 115 156 188 246 289 348
#     4  11  21  33  51  81 115 154 194 229 281 337
#
# _framework density 17.040351000000001
#
# number of rings (size 3 to 8) (size 9 to 14) (size 15 to 20)
#    0.000    1.053    6.316    4.737    0.000    0.000 
#    0.000    4.211    0.000    0.000    0.000    0.737 
#    0.000    3.368    0.000    0.211    0.000    0.000 
#
# Total GULP energy -211908.240867 kJ/mol
# GULP energy per Si atom -5576.532654 kJ/mol
# Density = 1.700157 g / cm^3
# Si number density = 17.040351 Si / 1000 Ang^3
#
#
#
# Elastic Constant Matrix: (Units=GPa)
#
#
# Indices 1 2 3 4 5 6 
#
# 1 88.4326 38.7969 48.2535 0.0000 0.0000 0.0000
# 2 38.7969 88.4331 48.2533 0.0000 0.0000 0.0000
# 3 48.2535 48.2533 149.4593 0.0000 0.0000 0.0000
# 4 0.0000 0.0000 0.0000 34.2009 0.0000 0.0000
# 5 0.0000 0.0000 0.0000 0.0000 34.2009 0.0000
# 6 0.0000 0.0000 0.0000 0.0000 0.0000 16.3382
#
#
#
# Elastic Compliance Matrix: (Units=1/GPa)
#
#
# Indices 1 2 3 4 5 6 
#
# 1 0.015278 -0.004869 -0.003361 0.000000 0.000000 0.000000
# 2 -0.004869 0.015278 -0.003360 0.000000 0.000000 0.000000
# 3 -0.003361 -0.003360 0.008861 0.000000 0.000000 0.000000
# 4 0.000000 0.000000 0.000000 0.029239 0.000000 0.000000
# 5 0.000000 0.000000 0.000000 0.000000 0.029239 0.000000
# 6 0.000000 0.000000 0.000000 0.000000 0.000000 0.061206
#
#
# Mechanical properties :
#
#
# Convention : Reuss Voigt Hill
#
# Bulk Modulus (GPa) = 61.59053 66.32585 63.95819
# Shear Modulus (GPa) = 26.63932 29.68275 28.16104
#
# Velocity S-wave (km/s) = 3.95816 4.17815 4.06964
# Velocity P-wave (km/s) = 7.55723 7.89197 7.72641
#
# Compressibility (1/GPa) = 0.01623626
#
# Stress axis : x y z
#
# Youngs Moduli (GPa) = 65.45435 65.45481 112.85793
#
# Poissons Ratio (x) = 0.31870 0.37927
# Poissons Ratio (y) = 0.31869 0.37926
# Poissons Ratio (z) = 0.21996 0.21996
#
# Static dielectric constant tensor:
#      x y z
#    x 1.650200 0.000000 0.000000 
#    y 0.000000 1.650200 0.000000 
#    z 0.000000 0.000000 1.608710 
# 
# From -- ./inp_files/3312.got.cif
#   From: 2010.05.17/outbox.cif.g08.bks.cpg/sg93_2_cif.got.tgz:3312.got - 2010.06.03 19:38:44.
