data_PCOD9549603
_publ_section_title
;
Structure prediction by ZEFSAII (Michael W. Deem and Ramdas Pophale) SiO2 
 PCOD9549603
Probable space group: P 42 2 2
;
_chemical_formula_sum "Si O2"
_cell_formula_units_Z 52
_cell_length_a 16.950054
_cell_length_b 16.950054
_cell_length_c 8.243165
_cell_angle_alpha 90.000000
_cell_angle_beta 90.000000
_cell_angle_gamma 90.000000
_cell_volume 2368.297002
_symmetry_space_group_name_H-M "P 42 2 2"
_symmetry_group_IT_number 93
_symmetry_cell_setting 'tetragonal'
loop_
_space_group_symop_operation_xyz
x,y,z
-y,x,1/2+z
-x,-y,z
y,-x,1/2+z
x,-y,-z
-x,y,-z
y,x,1/2-z
-y,-x,1/2-z
loop_
_atom_site_type_symbol
_atom_site_label
_atom_site_fract_x
_atom_site_fract_y
_atom_site_fract_z
Si Si1 0.803280 0.872111 0.410697
Si Si2 0.636901 0.956582 0.342869
Si Si3 0.856474 0.856474 0.750000
Si Si4 0.798590 0.454987 0.826982
Si Si5 0.263885 0.682918 0.005653
Si Si6 0.391324 0.221510 0.854961
Si Si7 0.926611 0.302132 0.396476
O O1 0.854335 0.854335 0.250000
O O2 0.728204 0.928372 0.373162
O O3 0.856286 0.895926 0.567584
O O4 0.758206 0.789891 0.457343
O O5 0.584341 0.882937 0.300441
O O6 0.606350 0.000000 0.500000
O O7 0.638397 0.023949 0.211874
O O8 0.769191 0.885219 0.801827
O O9 0.778164 0.516968 0.687594
O O10 0.801403 0.500000 0.000000
O O11 0.741911 0.381332 0.864608
O O12 0.225138 0.649172 0.173451
O O13 0.352300 0.706280 0.050580
O O14 0.356958 0.145791 0.951520
O O15 0.000000 0.267374 0.500000
#
# Coordination Sequence:
#
# PCOD9549603 Si02
#       7
#     8   8   4   8   8   8   8
#     4  11  20  34  60  84 113 161 224 282 320 393
#     4  11  21  36  53  85 121 161 218 267 339 421
#     4  12  20  42  58  86 127 160 224 289 334 388
#     4   9  19  31  55  86 121 174 221 263 335 412
#     4   9  16  33  57  82 121 173 227 273 317 396
#     4  10  17  34  56  85 128 175 221 274 331 405
#     4  12  23  36  60  88 123 171 220 273 349 407
#
# _framework density 21.956706000000001
#
# number of rings (size 3 to 8) (size 9 to 14) (size 15 to 20)
#    0.000    1.538    4.615    2.769    0.000    2.154 
#    0.000    1.538    0.000    0.000    0.000   11.308 
#    0.000    0.000    0.000  764.308   19.077    0.462 
#
# Total GULP energy -289715.290503 kJ/mol
# GULP energy per Si atom -5571.447894 kJ/mol
# Density = 2.190673 g / cm^3
# Si number density = 21.956706 Si / 1000 Ang^3
#
#
#
# Elastic Constant Matrix: (Units=GPa)
#
#
# Indices 1 2 3 4 5 6 
#
# 1 56.7743 76.8543 23.0045 0.0000 0.0000 0.0000
# 2 76.8543 56.7743 23.0045 0.0000 0.0000 0.0000
# 3 23.0045 23.0045 93.4314 0.0000 0.0000 0.0000
# 4 0.0000 0.0000 0.0000 26.4715 0.0000 0.0000
# 5 0.0000 0.0000 0.0000 0.0000 26.4715 0.0000
# 6 0.0000 0.0000 0.0000 0.0000 0.0000 18.1417
#
#
#
# Elastic Compliance Matrix: (Units=1/GPa)
#
#
# Indices 1 2 3 4 5 6 
#
# 1 -0.020812 0.028989 -0.002013 0.000000 0.000000 0.000000
# 2 0.028989 -0.020812 -0.002013 0.000000 0.000000 0.000000
# 3 -0.002013 -0.002013 0.011694 0.000000 0.000000 0.000000
# 4 0.000000 0.000000 0.000000 0.037777 0.000000 0.000000
# 5 0.000000 0.000000 0.000000 0.000000 0.037777 0.000000
# 6 0.000000 0.000000 0.000000 0.000000 0.000000 0.055121
#
#
# Mechanical properties :
#
#
# Convention : Reuss Voigt Hill
#
# Bulk Modulus (GPa) = 50.01321 50.30072 50.15696
# Shear Modulus (GPa) = 86.97962 19.82473 53.40217
#
# Velocity S-wave (km/s) = 6.30081 3.00809 4.93704
# Velocity P-wave (km/s) = 8.70408 5.91807 7.44260
#
# Compressibility (1/GPa) = 0.01999472
#
# Stress axis : x y z
#
# Youngs Moduli (GPa) = -48.04871 -48.04871 85.51084
#
# Poissons Ratio (x) = 1.39287 0.17215
# Poissons Ratio (y) = 1.39287 0.17215
# Poissons Ratio (z) = -0.09673 -0.09673
#
# Static dielectric constant tensor:
#      x y z
#    x 1.780550 0.000000 0.000000 
#    y 0.000000 1.780550 0.000000 
#    z 0.000000 0.000000 1.909850 
# 
# From -- ./inp_files/2128.got.cif
#   From: 2010.05.17/outbox.cif.g08.bks.cpg/sg93_2_cif.got.tgz:2128.got - 2010.06.03 19:38:44.
