data_PCOD9549404
_publ_section_title
;
Structure prediction by ZEFSAII (Michael W. Deem and Ramdas Pophale) SiO2 
 PCOD9549404
Probable space group: P 41 21 2
;
_chemical_formula_sum "Si O2"
_cell_formula_units_Z 48
_cell_length_a 9.314183
_cell_length_b 9.314183
_cell_length_c 21.257776
_cell_angle_alpha 90.000000
_cell_angle_beta 90.000000
_cell_angle_gamma 90.000000
_cell_volume 1844.197204
_symmetry_space_group_name_H-M "P 41 21 2"
_symmetry_group_IT_number 92
_symmetry_cell_setting 'tetragonal'
loop_
_space_group_symop_operation_xyz
x,y,z
1/2-y,1/2+x,1/4+z
-x,-y,1/2+z
1/2+y,1/2-x,3/4+z
1/2+x,1/2-y,3/4-z
1/2-x,1/2+y,1/4-z
y,x,-z
-y,-x,1/2-z
loop_
_atom_site_type_symbol
_atom_site_label
_atom_site_fract_x
_atom_site_fract_y
_atom_site_fract_z
Si Si1 0.150137 0.470212 0.002317
Si Si2 0.673166 0.455532 0.332612
Si Si3 0.546794 0.659494 0.137236
Si Si4 0.585790 0.841849 0.010376
Si Si5 0.312839 0.723192 0.953616
Si Si6 0.755966 0.226998 0.647249
O O1 0.169195 0.406774 0.072132
O O2 0.990687 0.503534 0.978372
O O3 0.245978 0.613735 0.002755
O O4 0.211578 0.355128 0.953073
O O5 0.504112 0.420859 0.341501
O O6 0.773757 0.404100 0.275375
O O7 0.732039 0.364268 0.391334
O O8 0.687772 0.625797 0.345216
O O9 0.598779 0.745775 0.073634
O O10 0.620650 0.746227 0.194206
O O11 0.375419 0.669457 0.131905
O O12 0.480758 0.747648 0.965990
#
# Coordination Sequence:
#
# PCOD9549404 Si02
#       6
#     8   8   8   8   8   8
#     4  10  24  48  78 119 162 214 284 354 430 526
#     4  11  28  48  78 118 166 219 284 352 426 516
#     4  12  28  49  80 119 164 223 282 353 431 517
#     4  12  28  49  83 118 171 218 290 357 425 515
#     4  11  26  50  76 115 156 221 277 347 430 502
#     4  10  24  48  81 116 165 216 280 346 436 517
#
# _framework density 26.027583
#
# number of rings (size 3 to 8) (size 9 to 14) (size 15 to 20)
#    0.000    1.000    1.667    2.000   14.000    4.000 
#    0.000    0.000    0.000    0.000    0.000    0.000 
#    0.000    0.000    0.000    0.000    0.000    0.000 
#
# Total GULP energy -268042.785685 kJ/mol
# GULP energy per Si atom -5584.224702 kJ/mol
# Density = 2.596834 g / cm^3
# Si number density = 26.027583 Si / 1000 Ang^3
#
#
#
# Elastic Constant Matrix: (Units=GPa)
#
#
# Indices 1 2 3 4 5 6 
#
# 1 142.3850 34.4961 50.1535 0.0000 0.0000 0.0000
# 2 34.4961 142.3850 50.1535 0.0000 0.0000 0.0000
# 3 50.1535 50.1535 98.0734 0.0000 0.0000 0.0000
# 4 0.0000 0.0000 0.0000 38.0284 0.0000 0.0000
# 5 0.0000 0.0000 0.0000 0.0000 38.0284 0.0000
# 6 0.0000 0.0000 0.0000 0.0000 0.0000 51.3459
#
#
#
# Elastic Compliance Matrix: (Units=1/GPa)
#
#
# Indices 1 2 3 4 5 6 
#
# 1 0.008616 -0.000653 -0.004072 0.000000 0.000000 0.000000
# 2 -0.000653 0.008616 -0.004072 0.000000 0.000000 0.000000
# 3 -0.004072 -0.004072 0.014361 0.000000 0.000000 0.000000
# 4 0.000000 0.000000 0.000000 0.026296 0.000000 0.000000
# 5 0.000000 0.000000 0.000000 0.000000 0.026296 0.000000
# 6 0.000000 0.000000 0.000000 0.000000 0.000000 0.019476
#
#
# Mechanical properties :
#
#
# Convention : Reuss Voigt Hill
#
# Bulk Modulus (GPa) = 71.43615 72.49441 71.96528
# Shear Modulus (GPa) = 39.70740 42.01656 40.86198
#
# Velocity S-wave (km/s) = 3.91012 4.02221 3.96656
# Velocity P-wave (km/s) = 6.92035 7.03450 6.97766
#
# Compressibility (1/GPa) = 0.01399851
#
# Stress axis : x y z
#
# Youngs Moduli (GPa) = 116.06641 116.06641 69.63196
#
# Poissons Ratio (x) = 0.07580 0.28354
# Poissons Ratio (y) = 0.07580 0.28354
# Poissons Ratio (z) = 0.47263 0.47263
#
# Static dielectric constant tensor:
#      x y z
#    x 2.060810 0.000000 0.000000 
#    y 0.000000 2.060810 0.000000 
#    z 0.000000 0.000000 2.122970 
# 
# From -- ./inp_files/4483.got.cif
#   From: 2010.05.17/outbox.cif.g08.bks.cpg/sg92_3_cif.got.tgz:4483.got - 2010.06.03 19:35:17.
