data_PCOD9549911
_publ_section_title
;
Structure prediction by ZEFSAII (Michael W. Deem and Ramdas Pophale) SiO2 
 PCOD9549911
Probable space group: P 42 21 2
;
_chemical_formula_sum "Si O2"
_cell_formula_units_Z 34
_cell_length_a 9.184249
_cell_length_b 9.184249
_cell_length_c 18.410018
_cell_angle_alpha 90.000000
_cell_angle_beta 90.000000
_cell_angle_gamma 90.000000
_cell_volume 1552.892929
_symmetry_space_group_name_H-M "P 42 21 2"
_symmetry_group_IT_number 94
_symmetry_cell_setting 'tetragonal'
loop_
_space_group_symop_operation_xyz
x,y,z
1/2-y,1/2+x,1/2+z
-x,-y,z
1/2+y,1/2-x,1/2+z
1/2+x,1/2-y,1/2-z
1/2-x,1/2+y,1/2-z
y,x,-z
-y,-x,-z
loop_
_atom_site_type_symbol
_atom_site_label
_atom_site_fract_x
_atom_site_fract_y
_atom_site_fract_z
Si Si1 0.317529 0.317529 0.000000
Si Si2 0.353411 0.293062 0.618305
Si Si3 0.156334 0.156334 0.500000
Si Si4 0.496237 0.675205 0.255455
Si Si5 0.000000 0.000000 0.000000
Si Si6 0.330147 0.795378 0.653496
O O1 0.304481 0.488997 0.014300
O O2 0.270692 0.229595 0.071580
O O3 0.243132 0.199506 0.571899
O O4 0.287668 0.381595 0.684730
O O5 0.406606 0.416911 0.562986
O O6 0.495471 0.206097 0.645621
O O7 0.500000 0.500000 0.242026
O O8 0.556789 0.760919 0.185683
O O9 0.341339 0.708312 0.293521
#
# Coordination Sequence:
#
# PCOD9549911 Si02
#       6
#     4   8   4   8   2   8
#     4  11  27  46  68  98 148 184 234 296 370 420
#     4  10  21  43  74 100 133 184 239 287 350 417
#     4  10  26  44  70  98 142 184 224 306 350 418
#     4  10  24  44  70 102 145 186 230 294 355 421
#     4  10  14  38  74  98 134 168 234 294 346 394
#     4  11  24  45  73 103 140 191 239 292 356 433
#
# _framework density 21.894618000000001
#
# number of rings (size 3 to 8) (size 9 to 14) (size 15 to 20)
#    0.000    1.647    3.529    0.706    9.882    2.824 
#    4.235    4.706    0.000    0.000    0.000    0.000 
#    0.000    0.000    0.000    0.000    0.000    0.000 
#
# Total GULP energy -189531.417894 kJ/mol
# GULP energy per Si atom -5574.453467 kJ/mol
# Density = 2.184478 g / cm^3
# Si number density = 21.894618 Si / 1000 Ang^3
#
#
#
# Elastic Constant Matrix: (Units=GPa)
#
#
# Indices 1 2 3 4 5 6 
#
# 1 77.5499 60.4043 45.2596 0.0000 0.0000 0.0000
# 2 60.4043 77.5499 45.2596 0.0000 0.0000 0.0000
# 3 45.2596 45.2596 130.8281 0.0000 0.0000 0.0000
# 4 0.0000 0.0000 0.0000 17.7442 0.0000 0.0000
# 5 0.0000 0.0000 0.0000 0.0000 17.7442 0.0000
# 6 0.0000 0.0000 0.0000 0.0000 0.0000 35.6675
#
#
#
# Elastic Compliance Matrix: (Units=1/GPa)
#
#
# Indices 1 2 3 4 5 6 
#
# 1 0.033851 -0.024473 -0.003244 0.000000 0.000000 0.000000
# 2 -0.024473 0.033851 -0.003244 0.000000 0.000000 0.000000
# 3 -0.003244 -0.003244 0.009888 0.000000 0.000000 0.000000
# 4 0.000000 0.000000 0.000000 0.056356 0.000000 0.000000
# 5 0.000000 0.000000 0.000000 0.000000 0.056356 0.000000
# 6 0.000000 0.000000 0.000000 0.000000 0.000000 0.028037
#
#
# Mechanical properties :
#
#
# Convention : Reuss Voigt Hill
#
# Bulk Modulus (GPa) = 63.82987 65.30831 64.56909
# Shear Modulus (GPa) = 17.51407 23.23147 20.37277
#
# Velocity S-wave (km/s) = 2.83136 3.26092 3.05371
# Velocity P-wave (km/s) = 6.31707 6.63863 6.47984
#
# Compressibility (1/GPa) = 0.01566665
#
# Stress axis : x y z
#
# Youngs Moduli (GPa) = 29.54142 29.54142 101.13090
#
# Poissons Ratio (x) = 0.72298 0.32808
# Poissons Ratio (y) = 0.72298 0.32808
# Poissons Ratio (z) = 0.09583 0.09583
#
# Static dielectric constant tensor:
#      x y z
#    x 1.857150 0.000000 0.000000 
#    y 0.000000 1.857150 0.000000 
#    z 0.000000 0.000000 1.793530 
# 
# From -- ./inp_files/4582.got.cif
#   From: 2010.05.17/outbox.cif.g08.bks.cpg/sg94_3_cif.got.tgz:4582.got - 2010.06.03 19:43:16.
