data_PCOD9549122
_publ_section_title
;
Structure prediction by ZEFSAII (Michael W. Deem and Ramdas Pophale) SiO2 
 PCOD9549122
Probable space group: P 41 21 2
;
_chemical_formula_sum "Si O2"
_cell_formula_units_Z 40
_cell_length_a 15.521335
_cell_length_b 15.521335
_cell_length_c 8.488087
_cell_angle_alpha 90.000000
_cell_angle_beta 90.000000
_cell_angle_gamma 90.000000
_cell_volume 2044.880659
_symmetry_space_group_name_H-M "P 41 21 2"
_symmetry_group_IT_number 92
_symmetry_cell_setting 'tetragonal'
loop_
_space_group_symop_operation_xyz
x,y,z
1/2-y,1/2+x,1/4+z
-x,-y,1/2+z
1/2+y,1/2-x,3/4+z
1/2+x,1/2-y,3/4-z
1/2-x,1/2+y,1/4-z
y,x,-z
-y,-x,1/2-z
loop_
_atom_site_type_symbol
_atom_site_label
_atom_site_fract_x
_atom_site_fract_y
_atom_site_fract_z
Si Si1 0.851806 0.185323 0.989476
Si Si2 0.559694 0.559694 0.500000
Si Si3 0.078905 0.268691 0.444979
Si Si4 0.721040 0.094517 0.226429
Si Si5 0.337219 0.608971 0.992038
Si Si6 0.271238 0.728763 0.250000
O O1 0.775592 0.150185 0.100460
O O2 0.918717 0.225220 0.113034
O O3 0.893778 0.106070 0.897372
O O4 0.809624 0.254694 0.868853
O O5 0.585888 0.459786 0.517228
O O6 0.141849 0.347565 0.472535
O O7 0.064098 0.225310 0.615152
O O8 0.123642 0.194133 0.340164
O O9 0.993769 0.298563 0.358305
O O10 0.282063 0.644085 0.139964
#
# Coordination Sequence:
#
# PCOD9549122 Si02
#       6
#     8   4   8   8   8   4
#     4  10  21  38  64  95 128 176 218 261 336 409
#     4  11  24  36  58 106 138 161 208 280 336 397
#     4  11  23  43  67  90 129 182 223 273 332 400
#     4  11  21  43  67  90 125 179 227 272 326 399
#     4  11  23  40  62  99 137 171 213 274 346 409
#     4  11  20  38  64  90 128 179 220 258 328 417
#
# _framework density 19.561043999999999
#
# number of rings (size 3 to 8) (size 9 to 14) (size 15 to 20)
#    0.000    1.200    6.000    1.200    2.800    3.200 
#    0.000    0.000    8.800    0.000    0.000    0.000 
#    0.000    0.000    0.000    0.000    0.000    0.000 
#
# Total GULP energy -223169.352062 kJ/mol
# GULP energy per Si atom -5579.233802 kJ/mol
# Density = 1.951652 g / cm^3
# Si number density = 19.561044 Si / 1000 Ang^3
#
#
#
# Elastic Constant Matrix: (Units=GPa)
#
#
# Indices 1 2 3 4 5 6 
#
# 1 71.4739 59.8112 35.7990 0.0000 0.0000 0.0000
# 2 59.8112 71.4742 35.7998 0.0000 0.0000 0.0000
# 3 35.7990 35.7998 108.7591 0.0000 0.0000 0.0000
# 4 0.0000 0.0000 0.0000 27.3199 0.0000 0.0000
# 5 0.0000 0.0000 0.0000 0.0000 27.3200 0.0000
# 6 0.0000 0.0000 0.0000 0.0000 0.0000 5.8345
#
#
#
# Elastic Compliance Matrix: (Units=1/GPa)
#
#
# Indices 1 2 3 4 5 6 
#
# 1 0.047513 -0.038229 -0.003055 0.000000 0.000000 0.000000
# 2 -0.038229 0.047513 -0.003056 0.000000 0.000000 0.000000
# 3 -0.003055 -0.003056 0.011206 0.000000 0.000000 0.000000
# 4 0.000000 0.000000 0.000000 0.036603 0.000000 0.000000
# 5 0.000000 0.000000 0.000000 0.000000 0.036603 0.000000
# 6 0.000000 0.000000 0.000000 0.000000 0.000000 0.171393
#
#
# Mechanical properties :
#
#
# Convention : Reuss Voigt Hill
#
# Bulk Modulus (GPa) = 56.97927 57.16969 57.07448
# Shear Modulus (GPa) = 11.22679 20.11471 15.67075
#
# Velocity S-wave (km/s) = 2.39830 3.21020 2.83348
# Velocity P-wave (km/s) = 6.07135 6.55974 6.32027
#
# Compressibility (1/GPa) = 0.01755024
#
# Stress axis : x y z
#
# Youngs Moduli (GPa) = 21.04696 21.04691 89.23520
#
# Poissons Ratio (x) = 0.80461 0.27266
# Poissons Ratio (y) = 0.80461 0.27271
# Poissons Ratio (z) = 0.06431 0.06432
#
# Static dielectric constant tensor:
#      x y z
#    x 1.684140 0.000000 0.000000 
#    y 0.000000 1.684140 0.000000 
#    z 0.000000 0.000000 1.739420 
# 
# From -- ./inp_files/1365.got.cif
#   From: 2010.05.17/outbox.cif.g08.bks.cpg/sg92_1_cif.got.tgz:1365.got - 2010.06.03 19:35:17.
