data_PCOD9549521
_publ_section_title
;
Structure prediction by ZEFSAII (Michael W. Deem and Ramdas Pophale) SiO2 
 PCOD9549521
Probable space group: P 41 21 2
;
_chemical_formula_sum "Si O2"
_cell_formula_units_Z 40
_cell_length_a 9.179626
_cell_length_b 9.179626
_cell_length_c 18.171719
_cell_angle_alpha 90.000000
_cell_angle_beta 90.000000
_cell_angle_gamma 90.000000
_cell_volume 1531.249596
_symmetry_space_group_name_H-M "P 41 21 2"
_symmetry_group_IT_number 92
_symmetry_cell_setting 'tetragonal'
loop_
_space_group_symop_operation_xyz
x,y,z
1/2-y,1/2+x,1/4+z
-x,-y,1/2+z
1/2+y,1/2-x,3/4+z
1/2+x,1/2-y,3/4-z
1/2-x,1/2+y,1/4-z
y,x,-z
-y,-x,1/2-z
loop_
_atom_site_type_symbol
_atom_site_label
_atom_site_fract_x
_atom_site_fract_y
_atom_site_fract_z
Si Si1 0.692616 0.410196 0.629948
Si Si2 0.816497 0.545328 0.826382
Si Si3 0.584535 0.906273 0.005720
Si Si4 0.064350 0.800609 0.092764
Si Si5 0.615325 0.339174 0.464879
O O1 0.727707 0.206187 0.450965
O O2 0.572719 0.308001 0.668246
O O3 0.846603 0.329758 0.631043
O O4 0.649024 0.410736 0.543146
O O5 0.949866 0.496734 0.774440
O O6 0.881974 0.573237 0.907890
O O7 0.536755 0.750475 0.969422
O O8 0.731143 0.975025 0.974539
O O9 0.947549 0.868798 0.148354
O O10 0.180924 0.931174 0.084818
#
# Coordination Sequence:
#
# PCOD9549521 Si02
#       5
#     8   8   8   8   8
#     4  11  25  48  71 116 147 202 249 316 391 449
#     4   9  21  48  75 107 150 198 260 312 378 458
#     4   9  22  43  76 106 149 199 251 315 373 459
#     4  12  25  45  77 109 151 193 254 311 383 454
#     4   9  24  46  77 100 152 201 253 310 378 449
#
# _framework density 26.122453
#
# number of rings (size 3 to 8) (size 9 to 14) (size 15 to 20)
#    1.200    0.800    0.000    1.800    5.600    0.800 
#    7.200    0.000    0.000    0.000    0.000    0.000 
#    0.000    0.000    0.000    0.000    0.000    0.000 
#
# Total GULP energy -224026.350159 kJ/mol
# GULP energy per Si atom -5600.658754 kJ/mol
# Density = 2.606300 g / cm^3
# Si number density = 26.122453 Si / 1000 Ang^3
#
#
#
# Elastic Constant Matrix: (Units=GPa)
#
#
# Indices 1 2 3 4 5 6 
#
# 1 121.1881 43.8444 50.2907 0.0000 0.0000 0.0000
# 2 43.8444 121.1881 50.2907 0.0000 0.0000 0.0000
# 3 50.2907 50.2907 131.6385 0.0000 0.0000 0.0000
# 4 0.0000 0.0000 0.0000 41.1790 0.0000 0.0000
# 5 0.0000 0.0000 0.0000 0.0000 41.1790 0.0000
# 6 0.0000 0.0000 0.0000 0.0000 0.0000 53.3657
#
#
#
# Elastic Compliance Matrix: (Units=1/GPa)
#
#
# Indices 1 2 3 4 5 6 
#
# 1 0.010414 -0.002515 -0.003018 0.000000 0.000000 0.000000
# 2 -0.002515 0.010414 -0.003018 0.000000 0.000000 0.000000
# 3 -0.003018 -0.003018 0.009902 0.000000 0.000000 0.000000
# 4 0.000000 0.000000 0.000000 0.024284 0.000000 0.000000
# 5 0.000000 0.000000 0.000000 0.000000 0.024284 0.000000
# 6 0.000000 0.000000 0.000000 0.000000 0.000000 0.018739
#
#
# Mechanical properties :
#
#
# Convention : Reuss Voigt Hill
#
# Bulk Modulus (GPa) = 73.37249 73.65180 73.51215
# Shear Modulus (GPa) = 41.77775 42.45065 42.11420
#
# Velocity S-wave (km/s) = 4.00347 4.03558 4.01956
# Velocity P-wave (km/s) = 7.03699 7.06899 7.05301
#
# Compressibility (1/GPa) = 0.01362909
#
# Stress axis : x y z
#
# Youngs Moduli (GPa) = 96.02559 96.02559 100.98808
#
# Poissons Ratio (x) = 0.24154 0.30473
# Poissons Ratio (y) = 0.24154 0.30473
# Poissons Ratio (z) = 0.28976 0.28976
#
# Static dielectric constant tensor:
#      x y z
#    x 2.081950 0.000000 0.000000 
#    y 0.000000 2.081950 0.000000 
#    z 0.000000 0.000000 2.019940 
# 
# From -- ./inp_files/2651.got.cif
#   From: 2010.05.17/outbox.cif.g08.bks.cpg/sg92_2_cif.got.tgz:2651.got - 2010.06.03 19:35:17.
