data_PCOD9549367
_publ_section_title
;
Structure prediction by ZEFSAII (Michael W. Deem and Ramdas Pophale) SiO2 
 PCOD9549367
Probable space group: P 41 21 2
;
_chemical_formula_sum "Si O2"
_cell_formula_units_Z 36
_cell_length_a 15.710192
_cell_length_b 15.710192
_cell_length_c 6.917027
_cell_angle_alpha 90.000000
_cell_angle_beta 90.000000
_cell_angle_gamma 90.000000
_cell_volume 1707.192352
_symmetry_space_group_name_H-M "P 41 21 2"
_symmetry_group_IT_number 92
_symmetry_cell_setting 'tetragonal'
loop_
_space_group_symop_operation_xyz
x,y,z
1/2-y,1/2+x,1/4+z
-x,-y,1/2+z
1/2+y,1/2-x,3/4+z
1/2+x,1/2-y,3/4-z
1/2-x,1/2+y,1/4-z
y,x,-z
-y,-x,1/2-z
loop_
_atom_site_type_symbol
_atom_site_label
_atom_site_fract_x
_atom_site_fract_y
_atom_site_fract_z
Si Si1 0.777726 0.543350 0.751044
Si Si2 0.386691 0.795942 0.956064
Si Si3 0.434011 0.423362 0.726997
Si Si4 0.287612 0.539688 0.921813
Si Si5 0.324180 0.675821 0.250000
O O1 0.847123 0.611696 0.813864
O O2 0.785268 0.471557 0.915681
O O3 0.677915 0.570384 0.730622
O O4 0.789846 0.508025 0.532314
O O5 0.320015 0.752394 0.101185
O O6 0.404401 0.748145 0.755176
O O7 0.421802 0.421802 0.500000
O O8 0.520402 0.479599 0.750000
O O9 0.477755 0.360702 0.163949
O O10 0.324042 0.598089 0.096802
#
# Coordination Sequence:
#
# PCOD9549367 Si02
#       5
#     8   8   8   8   4
#     4  11  27  46  71 105 137 195 242 295 365 432
#     4  11  25  47  69 104 143 188 242 302 360 428
#     4  12  24  41  72 106 145 182 226 291 367 432
#     4  11  24  46  71 104 148 186 233 298 360 439
#     4  10  24  40  74 102 144 190 228 288 372 428
#
# _framework density 21.087254999999999
#
# number of rings (size 3 to 8) (size 9 to 14) (size 15 to 20)
#    0.000    0.889    2.222    4.000   12.444    5.333 
#    4.000    0.000    0.000    0.000    0.000    0.000 
#    0.000    0.000    0.000    0.000    0.000    0.000 
#
# Total GULP energy -200552.023355 kJ/mol
# GULP energy per Si atom -5570.889538 kJ/mol
# Density = 2.103926 g / cm^3
# Si number density = 21.087255 Si / 1000 Ang^3
#
#
#
# Elastic Constant Matrix: (Units=GPa)
#
#
# Indices 1 2 3 4 5 6 
#
# 1 42.9449 40.6616 41.5712 0.0000 0.0000 0.0000
# 2 40.6616 42.9457 41.5720 0.0000 0.0000 0.0000
# 3 41.5712 41.5720 174.4030 0.0000 0.0000 0.0000
# 4 0.0000 0.0000 0.0000 11.0724 0.0000 0.0000
# 5 0.0000 0.0000 0.0000 0.0000 11.0711 0.0000
# 6 0.0000 0.0000 0.0000 0.0000 0.0000 35.9348
#
#
#
# Elastic Compliance Matrix: (Units=1/GPa)
#
#
# Indices 1 2 3 4 5 6 
#
# 1 0.226782 -0.211104 -0.003736 0.000000 0.000000 0.000000
# 2 -0.211104 0.226779 -0.003738 0.000000 0.000000 0.000000
# 3 -0.003736 -0.003738 0.007515 0.000000 0.000000 0.000000
# 4 0.000000 0.000000 0.000000 0.090315 0.000000 0.000000
# 5 0.000000 0.000000 0.000000 0.000000 0.090325 0.000000
# 6 0.000000 0.000000 0.000000 0.000000 0.000000 0.027828
#
#
# Mechanical properties :
#
#
# Convention : Reuss Voigt Hill
#
# Bulk Modulus (GPa) = 41.80307 56.43369 49.11838
# Shear Modulus (GPa) = 4.48562 20.71492 12.60027
#
# Velocity S-wave (km/s) = 1.46007 3.13764 2.44709
# Velocity P-wave (km/s) = 4.76543 6.32032 5.59713
#
# Compressibility (1/GPa) = 0.02392169
#
# Stress axis : x y z
#
# Youngs Moduli (GPa) = 4.40953 4.40958 133.06201
#
# Poissons Ratio (x) = 0.93088 0.49713
# Poissons Ratio (y) = 0.93087 0.49732
# Poissons Ratio (z) = 0.01647 0.01648
#
# Static dielectric constant tensor:
#      x y z
#    x 1.838700 0.000000 0.000000 
#    y 0.000000 1.838700 0.000000 
#    z 0.000000 0.000000 1.794490 
# 
# From -- ./inp_files/417.got.cif
#   From: 2010.05.17/outbox.cif.g08.bks.cpg/sg92_1_cif.got.tgz:417.got - 2010.06.03 19:35:17.
