data_PCOD9549642
_publ_section_title
;
Structure prediction by ZEFSAII (Michael W. Deem and Ramdas Pophale) SiO2 
 PCOD9549642
Probable space group: P 42 2 2
;
_chemical_formula_sum "Si O2"
_cell_formula_units_Z 64
_cell_length_a 11.147521
_cell_length_b 11.147521
_cell_length_c 27.330385
_cell_angle_alpha 90.000000
_cell_angle_beta 90.000000
_cell_angle_gamma 90.000000
_cell_volume 3396.271087
_symmetry_space_group_name_H-M "P 42 2 2"
_symmetry_group_IT_number 93
_symmetry_cell_setting 'tetragonal'
loop_
_space_group_symop_operation_xyz
x,y,z
-y,x,1/2+z
-x,-y,z
y,-x,1/2+z
x,-y,-z
-x,y,-z
y,x,1/2-z
-y,-x,1/2-z
loop_
_atom_site_type_symbol
_atom_site_label
_atom_site_fract_x
_atom_site_fract_y
_atom_site_fract_z
Si Si1 0.154042 0.757820 0.391343
Si Si2 0.749071 0.135990 0.904319
Si Si3 0.912415 0.105783 0.672440
Si Si4 0.499905 0.142083 0.149365
Si Si5 0.285555 0.047598 0.254199
Si Si6 0.689417 0.811201 0.704372
Si Si7 0.138456 0.146029 0.995318
Si Si8 0.268598 0.538125 0.751432
O O1 0.164732 0.615556 0.383846
O O2 0.232564 0.808843 0.345524
O O3 0.191361 0.809318 0.443897
O O4 0.008068 0.775940 0.395451
O O5 0.852047 0.182114 0.868312
O O6 0.619379 0.162899 0.882550
O O7 0.776660 0.177376 0.958743
O O8 0.960223 0.227709 0.699873
O O9 0.833623 0.043197 0.713602
O O10 0.000000 0.000000 0.655361
O O11 0.506500 0.224147 0.197669
O O12 0.500000 0.000000 0.164135
O O13 0.358899 0.168831 0.261425
O O14 0.359303 0.938822 0.276343
O O15 0.772812 0.772812 0.750000
O O16 0.569838 0.730923 0.709406
O O17 0.000000 0.184338 0.000000
O O18 0.137056 0.000000 0.000000
O O19 0.394347 0.605654 0.750000
#
# Coordination Sequence:
#
# PCOD9549642 Si02
#       8
#     8   8   8   8   8   8   8   8
#     4  10  21  36  51  81 115 152 205 239 287 364
#     4  10  19  32  55  79 116 160 189 241 301 354
#     4  11  20  29  51  86 120 153 188 236 297 370
#     4  10  19  36  57  79 113 156 199 246 298 350
#     4  11  20  35  51  80 117 150 197 238 291 360
#     4  12  23  35  56  81 114 163 194 240 301 353
#     4   9  20  34  52  83 120 158 190 239 306 367
#     4  12  23  39  54  79 118 158 205 248 296 355
#
# _framework density 18.844197000000001
#
# number of rings (size 3 to 8) (size 9 to 14) (size 15 to 20)
#    0.000    1.375    3.750    4.125    5.250    0.750 
#    0.000    2.500    0.000    0.000    0.000    3.500 
#    0.000    4.000    0.000    0.000    0.000    0.000 
#
# Total GULP energy -356353.563491 kJ/mol
# GULP energy per Si atom -5568.024430 kJ/mol
# Density = 1.880131 g / cm^3
# Si number density = 18.844197 Si / 1000 Ang^3
#
#
#
# Elastic Constant Matrix: (Units=GPa)
#
#
# Indices 1 2 3 4 5 6 
#
# 1 63.5994 24.8206 40.5463 0.0000 0.0000 0.0000
# 2 24.8206 63.6005 40.5468 0.0000 0.0000 0.0000
# 3 40.5463 40.5468 152.5451 0.0000 0.0000 0.0000
# 4 0.0000 0.0000 0.0000 21.2302 0.0000 0.0000
# 5 0.0000 0.0000 0.0000 0.0000 21.2302 0.0000
# 6 0.0000 0.0000 0.0000 0.0000 0.0000 25.0122
#
#
#
# Elastic Compliance Matrix: (Units=1/GPa)
#
#
# Indices 1 2 3 4 5 6 
#
# 1 0.020371 -0.005416 -0.003975 0.000000 0.000000 0.000000
# 2 -0.005416 0.020371 -0.003975 0.000000 0.000000 0.000000
# 3 -0.003975 -0.003975 0.008669 0.000000 0.000000 0.000000
# 4 0.000000 0.000000 0.000000 0.047103 0.000000 0.000000
# 5 0.000000 0.000000 0.000000 0.000000 0.047103 0.000000
# 6 0.000000 0.000000 0.000000 0.000000 0.000000 0.039980
#
#
# Mechanical properties :
#
#
# Convention : Reuss Voigt Hill
#
# Bulk Modulus (GPa) = 44.09423 54.61918 49.35671
# Shear Modulus (GPa) = 22.94754 25.08329 24.01541
#
# Velocity S-wave (km/s) = 3.49341 3.65237 3.57377
# Velocity P-wave (km/s) = 6.30255 6.84353 6.57860
#
# Compressibility (1/GPa) = 0.02267870
#
# Stress axis : x y z
#
# Youngs Moduli (GPa) = 49.08875 49.08948 115.35867
#
# Poissons Ratio (x) = 0.26586 0.45856
# Poissons Ratio (y) = 0.26586 0.45857
# Poissons Ratio (z) = 0.19513 0.19514
#
# Static dielectric constant tensor:
#      x y z
#    x 1.732130 0.000000 0.000000 
#    y 0.000000 1.732130 0.000000 
#    z 0.000000 0.000000 1.864310 
# 
# From -- ./inp_files/7413.got.cif
#   From: 2010.05.17/outbox.cif.g08.bks.cpg/sg93_4_cif.got.tgz:7413.got - 2010.06.03 19:38:44.
