data_PCOD9549147
_publ_section_title
;
Structure prediction by ZEFSAII (Michael W. Deem and Ramdas Pophale) SiO2 
 PCOD9549147
Probable space group: P 41 21 2
;
_chemical_formula_sum "Si O2"
_cell_formula_units_Z 60
_cell_length_a 11.622224
_cell_length_b 11.622224
_cell_length_c 22.151006
_cell_angle_alpha 90.000000
_cell_angle_beta 90.000000
_cell_angle_gamma 90.000000
_cell_volume 2992.071296
_symmetry_space_group_name_H-M "P 41 21 2"
_symmetry_group_IT_number 92
_symmetry_cell_setting 'tetragonal'
loop_
_space_group_symop_operation_xyz
x,y,z
1/2-y,1/2+x,1/4+z
-x,-y,1/2+z
1/2+y,1/2-x,3/4+z
1/2+x,1/2-y,3/4-z
1/2-x,1/2+y,1/4-z
y,x,-z
-y,-x,1/2-z
loop_
_atom_site_type_symbol
_atom_site_label
_atom_site_fract_x
_atom_site_fract_y
_atom_site_fract_z
Si Si1 0.921575 0.380283 0.469382
Si Si2 0.933675 0.645672 0.445905
Si Si3 0.783157 0.975963 0.332582
Si Si4 0.313777 0.313777 0.000000
Si Si5 0.102057 0.651424 0.774176
Si Si6 0.944157 0.374328 0.071287
Si Si7 0.262662 0.548088 0.069696
Si Si8 0.193273 0.791800 0.877961
O O1 0.932051 0.507157 0.439881
O O2 0.837805 0.402442 0.526370
O O3 0.869587 0.285489 0.426167
O O4 0.049122 0.341143 0.487143
O O5 0.803355 0.683642 0.461314
O O6 0.971513 0.710983 0.386073
O O7 0.012401 0.666653 0.505427
O O8 0.731390 0.028175 0.270961
O O9 0.675734 0.965654 0.379560
O O10 0.855777 0.080825 0.362888
O O11 0.858355 0.864325 0.323465
O O12 0.307906 0.429248 0.040367
O O13 0.187333 0.722688 0.815757
O O14 0.007752 0.583143 0.814561
O O15 0.826502 0.316042 0.094459
#
# Coordination Sequence:
#
# PCOD9549147 Si02
#       8
#     8   8   8   4   8   8   8   8
#     4  10  22  39  62  95 125 165 218 282 308 394
#     4  10  21  41  63  89 125 168 217 264 331 383
#     4  10  23  38  62  91 127 175 207 272 335 394
#     4  10  24  38  62  98 122 162 222 266 312 404
#     4  11  20  39  66  89 128 172 224 259 330 397
#     4   9  22  37  64  91 124 168 217 267 315 402
#     4  11  23  40  66  89 131 167 216 270 337 378
#     4  10  22  39  58  95 127 162 216 264 329 391
#
# _framework density 20.052996
#
# number of rings (size 3 to 8) (size 9 to 14) (size 15 to 20)
#    0.800    1.067    0.000    3.600    1.867    8.533 
#    0.000    0.000    2.933    0.000    0.000    0.000 
#    0.000    0.000    0.000    0.000    0.000    0.000 
#
# Total GULP energy -334742.443456 kJ/mol
# GULP energy per Si atom -5579.040724 kJ/mol
# Density = 2.000735 g / cm^3
# Si number density = 20.052996 Si / 1000 Ang^3
#
#
#
# Elastic Constant Matrix: (Units=GPa)
#
#
# Indices 1 2 3 4 5 6 
#
# 1 76.8440 38.6531 46.1084 0.0000 0.0000 0.0000
# 2 38.6531 76.8440 46.1084 0.0000 0.0000 0.0000
# 3 46.1084 46.1084 128.1481 0.0000 0.0000 0.0000
# 4 0.0000 0.0000 0.0000 34.1582 0.0000 0.0000
# 5 0.0000 0.0000 0.0000 0.0000 34.1582 0.0000
# 6 0.0000 0.0000 0.0000 0.0000 0.0000 21.1908
#
#
#
# Elastic Compliance Matrix: (Units=1/GPa)
#
#
# Indices 1 2 3 4 5 6 
#
# 1 0.019166 -0.007018 -0.004371 0.000000 0.000000 0.000000
# 2 -0.007018 0.019166 -0.004371 0.000000 0.000000 0.000000
# 3 -0.004371 -0.004371 0.010949 0.000000 0.000000 0.000000
# 4 0.000000 0.000000 0.000000 0.029276 0.000000 0.000000
# 5 0.000000 0.000000 0.000000 0.000000 0.029276 0.000000
# 6 0.000000 0.000000 0.000000 0.000000 0.000000 0.047190
#
#
# Mechanical properties :
#
#
# Convention : Reuss Voigt Hill
#
# Bulk Modulus (GPa) = 56.30219 60.39732 58.34975
# Shear Modulus (GPa) = 25.97900 27.96585 26.97243
#
# Velocity S-wave (km/s) = 3.60323 3.73848 3.67148
# Velocity P-wave (km/s) = 6.74157 6.98708 6.86542
#
# Compressibility (1/GPa) = 0.01776130
#
# Stress axis : x y z
#
# Youngs Moduli (GPa) = 52.17513 52.17513 91.33349
#
# Poissons Ratio (x) = 0.36617 0.39922
# Poissons Ratio (y) = 0.36617 0.39922
# Poissons Ratio (z) = 0.22806 0.22806
#
# Static dielectric constant tensor:
#      x y z
#    x 1.707200 0.000000 0.000000 
#    y 0.000000 1.707200 0.000000 
#    z 0.000000 0.000000 1.765770 
# 
# From -- ./inp_files/3620.got.cif
#   From: 2010.05.17/outbox.cif.g08.bks.cpg/sg92_2_cif.got.tgz:3620.got - 2010.06.03 19:35:17.
