data_PCOD9549541
_publ_section_title
;
Structure prediction by ZEFSAII (Michael W. Deem and Ramdas Pophale) SiO2 
 PCOD9549541
Probable space group: P 41 21 2
;
_chemical_formula_sum "Si O2"
_cell_formula_units_Z 20
_cell_length_a 8.047492
_cell_length_b 8.047492
_cell_length_c 11.303706
_cell_angle_alpha 90.000000
_cell_angle_beta 90.000000
_cell_angle_gamma 90.000000
_cell_volume 732.052049
_symmetry_space_group_name_H-M "P 41 21 2"
_symmetry_group_IT_number 92
_symmetry_cell_setting 'tetragonal'
loop_
_space_group_symop_operation_xyz
x,y,z
1/2-y,1/2+x,1/4+z
-x,-y,1/2+z
1/2+y,1/2-x,3/4+z
1/2+x,1/2-y,3/4-z
1/2-x,1/2+y,1/4-z
y,x,-z
-y,-x,1/2-z
loop_
_atom_site_type_symbol
_atom_site_label
_atom_site_fract_x
_atom_site_fract_y
_atom_site_fract_z
Si Si1 0.256269 0.256269 0.500000
Si Si2 0.738958 0.536224 0.773349
Si Si3 0.925738 0.248278 0.653364
O O1 0.250416 0.407729 0.408299
O O2 0.094777 0.256882 0.582767
O O3 0.574084 0.425917 0.750000
O O4 0.882454 0.418102 0.721557
O O5 0.713082 0.701413 0.694505
O O6 0.897181 0.102820 0.750000
#
# Coordination Sequence:
#
# PCOD9549541 Si02
#       3
#     4   8   8
#     4  12  28  58  88 118 178 232 282 350 438 504
#     4  11  27  55  82 124 175 220 294 353 421 510
#     4  11  26  56  85 122 173 219 295 352 424 512
#
# _framework density 27.320459
#
# number of rings (size 3 to 8) (size 9 to 14) (size 15 to 20)
#    0.000    0.800    2.000    2.400    2.800    6.400 
#   57.600    0.000    0.000    0.000    0.000    0.000 
#    0.000    0.000    0.000    0.000    0.000    0.000 
#
# Total GULP energy -112296.303781 kJ/mol
# GULP energy per Si atom -5614.815189 kJ/mol
# Density = 2.725828 g / cm^3
# Si number density = 27.320459 Si / 1000 Ang^3
#
#
#
# Elastic Constant Matrix: (Units=GPa)
#
#
# Indices 1 2 3 4 5 6 
#
# 1 158.9908 108.1703 117.1593 0.0000 0.0000 0.0000
# 2 108.1703 158.9906 117.1591 0.0000 0.0000 0.0000
# 3 117.1593 117.1591 275.6439 0.0000 0.0000 0.0000
# 4 0.0000 0.0000 0.0000 64.8019 0.0000 0.0000
# 5 0.0000 0.0000 0.0000 0.0000 64.8022 0.0000
# 6 0.0000 0.0000 0.0000 0.0000 0.0000 41.1940
#
#
#
# Elastic Compliance Matrix: (Units=1/GPa)
#
#
# Indices 1 2 3 4 5 6 
#
# 1 0.012822 -0.006855 -0.002537 0.000000 0.000000 0.000000
# 2 -0.006855 0.012822 -0.002537 0.000000 0.000000 0.000000
# 3 -0.002537 -0.002537 0.005784 0.000000 0.000000 0.000000
# 4 0.000000 0.000000 0.000000 0.015432 0.000000 0.000000
# 5 0.000000 0.000000 0.000000 0.000000 0.015432 0.000000
# 6 0.000000 0.000000 0.000000 0.000000 0.000000 0.024275
#
#
# Mechanical properties :
#
#
# Convention : Reuss Voigt Hill
#
# Bulk Modulus (GPa) = 132.03876 142.06696 137.05286
# Shear Modulus (GPa) = 44.26833 50.90208 47.58521
#
# Velocity S-wave (km/s) = 4.02971 4.32110 4.17795
# Velocity P-wave (km/s) = 8.37173 8.77548 8.57598
#
# Compressibility (1/GPa) = 0.00757353
#
# Stress axis : x y z
#
# Youngs Moduli (GPa) = 77.98828 77.98824 172.88743
#
# Poissons Ratio (x) = 0.53458 0.43853
# Poissons Ratio (y) = 0.53458 0.43853
# Poissons Ratio (z) = 0.19782 0.19782
#
# Static dielectric constant tensor:
#      x y z
#    x 2.167420 0.000000 0.000000 
#    y 0.000000 2.167420 0.000000 
#    z 0.000000 0.000000 2.147040 
# 
# From -- ./inp_files/1765.got.cif
#   From: 2010.05.17/outbox.cif.g08.bks.cpg/sg92_1_cif.got.tgz:1765.got - 2010.06.03 19:35:17.
