data_PCOD9549289
_publ_section_title
;
Structure prediction by ZEFSAII (Michael W. Deem and Ramdas Pophale) SiO2 
 PCOD9549289
Probable space group: P 41 21 2
;
_chemical_formula_sum "Si O2"
_cell_formula_units_Z 40
_cell_length_a 9.048393
_cell_length_b 9.048393
_cell_length_c 19.397073
_cell_angle_alpha 90.000000
_cell_angle_beta 90.000000
_cell_angle_gamma 90.000000
_cell_volume 1588.104625
_symmetry_space_group_name_H-M "P 41 21 2"
_symmetry_group_IT_number 92
_symmetry_cell_setting 'tetragonal'
loop_
_space_group_symop_operation_xyz
x,y,z
1/2-y,1/2+x,1/4+z
-x,-y,1/2+z
1/2+y,1/2-x,3/4+z
1/2+x,1/2-y,3/4-z
1/2-x,1/2+y,1/4-z
y,x,-z
-y,-x,1/2-z
loop_
_atom_site_type_symbol
_atom_site_label
_atom_site_fract_x
_atom_site_fract_y
_atom_site_fract_z
Si Si1 0.600459 0.034790 0.909765
Si Si2 0.608789 0.148219 0.756923
Si Si3 0.678051 0.567208 0.925778
Si Si4 0.755654 0.931492 0.138496
Si Si5 0.773836 0.263822 0.979871
O O1 0.619613 0.068172 0.830177
O O2 0.735801 0.102092 0.952445
O O3 0.547863 0.866924 0.917819
O O4 0.466222 0.124568 0.944503
O O5 0.729925 0.270076 0.750000
O O6 0.445907 0.216696 0.755760
O O7 0.544931 0.611395 0.873197
O O8 0.827408 0.663670 0.913585
O O9 0.721370 0.394380 0.927354
O O10 0.609278 0.609278 0.000000
O O11 0.800113 0.815265 0.198091
#
# Coordination Sequence:
#
# PCOD9549289 Si02
#       5
#     8   8   8   8   8
#     4  11  24  45  70 103 143 181 239 295 357 421
#     4  11  24  44  72 101 142 186 233 297 352 420
#     4  10  22  44  67  98 137 180 228 290 350 424
#     4  10  23  41  69  95 138 179 227 293 350 420
#     4  10  23  44  66  97 136 181 230 288 350 424
#
# _framework density 25.187253999999999
#
# number of rings (size 3 to 8) (size 9 to 14) (size 15 to 20)
#    0.000    1.600    2.000    1.200    5.600    2.400 
#    3.600    5.000    0.000    0.000    0.000    0.000 
#    0.000    0.000    0.000    0.000    0.000    0.000 
#
# Total GULP energy -223738.744845 kJ/mol
# GULP energy per Si atom -5593.468621 kJ/mol
# Density = 2.512993 g / cm^3
# Si number density = 25.187254 Si / 1000 Ang^3
#
#
#
# Elastic Constant Matrix: (Units=GPa)
#
#
# Indices 1 2 3 4 5 6 
#
# 1 39.7879 57.3477 28.0436 0.0000 0.0000 0.0000
# 2 57.3477 39.7926 28.0440 0.0000 0.0000 0.0000
# 3 28.0436 28.0440 76.7476 0.0000 0.0000 0.0000
# 4 0.0000 0.0000 0.0000 34.5636 0.0000 0.0000
# 5 0.0000 0.0000 0.0000 0.0000 34.5642 0.0000
# 6 0.0000 0.0000 0.0000 0.0000 0.0000 57.4782
#
#
#
# Elastic Compliance Matrix: (Units=1/GPa)
#
#
# Indices 1 2 3 4 5 6 
#
# 1 -0.021956 0.035002 -0.004767 0.000000 0.000000 0.000000
# 2 0.035002 -0.021952 -0.004768 0.000000 0.000000 0.000000
# 3 -0.004767 -0.004768 0.016514 0.000000 0.000000 0.000000
# 4 0.000000 0.000000 0.000000 0.028932 0.000000 0.000000
# 5 0.000000 0.000000 0.000000 0.000000 0.028932 0.000000
# 6 0.000000 0.000000 0.000000 0.000000 0.000000 0.017398
#
#
# Mechanical properties :
#
#
# Convention : Reuss Voigt Hill
#
# Bulk Modulus (GPa) = 42.48364 42.57765 42.53064
# Shear Modulus (GPa) = 1045.87573 28.18070 537.02822
#
# Velocity S-wave (km/s) = 20.39955 3.34855 14.61770
# Velocity P-wave (km/s) = 23.91148 5.64726 17.37312
#
# Compressibility (1/GPa) = 0.02353847
#
# Stress axis : x y z
#
# Youngs Moduli (GPa) = -45.54604 -45.55292 60.55504
#
# Poissons Ratio (x) = 1.59442 0.28867
# Poissons Ratio (y) = 1.59418 0.28873
# Poissons Ratio (z) = -0.21712 -0.21720
#
# Static dielectric constant tensor:
#      x y z
#    x 1.983890 0.000000 0.000000 
#    y 0.000000 1.983880 0.000000 
#    z 0.000000 0.000000 2.052340 
# 
# From -- ./inp_files/3800.got.cif
#   From: 2010.05.17/outbox.cif.g08.bks.cpg/sg92_2_cif.got.tgz:3800.got - 2010.06.03 19:35:17.
