data_PCOD9549463
_publ_section_title
;
Structure prediction by ZEFSAII (Michael W. Deem and Ramdas Pophale) SiO2 
 PCOD9549463
Probable space group: P 41 21 2
;
_chemical_formula_sum "Si O2"
_cell_formula_units_Z 40
_cell_length_a 7.800731
_cell_length_b 7.800731
_cell_length_c 26.145737
_cell_angle_alpha 90.000000
_cell_angle_beta 90.000000
_cell_angle_gamma 90.000000
_cell_volume 1591.004809
_symmetry_space_group_name_H-M "P 41 21 2"
_symmetry_group_IT_number 92
_symmetry_cell_setting 'tetragonal'
loop_
_space_group_symop_operation_xyz
x,y,z
1/2-y,1/2+x,1/4+z
-x,-y,1/2+z
1/2+y,1/2-x,3/4+z
1/2+x,1/2-y,3/4-z
1/2-x,1/2+y,1/4-z
y,x,-z
-y,-x,1/2-z
loop_
_atom_site_type_symbol
_atom_site_label
_atom_site_fract_x
_atom_site_fract_y
_atom_site_fract_z
Si Si1 0.812510 0.941073 0.093762
Si Si2 0.331628 0.201648 0.048405
Si Si3 0.015148 0.832077 0.373461
Si Si4 0.725686 0.514282 0.958455
Si Si5 0.300483 0.731341 0.951973
O O1 0.814120 0.128464 0.069617
O O2 0.012227 0.887957 0.096940
O O3 0.675856 0.831974 0.061914
O O4 0.759384 0.930719 0.153699
O O5 0.259102 0.358940 0.081785
O O6 0.308403 0.046332 0.086999
O O7 0.530989 0.245799 0.037859
O O8 0.209456 0.209456 0.000000
O O9 0.865469 0.919301 0.338901
O O10 0.589211 0.589211 0.000000
O O11 0.813841 0.378829 0.997176
#
# Coordination Sequence:
#
# PCOD9549463 Si02
#       5
#     8   8   8   8   8
#     4  11  24  43  73 106 142 187 251 306 367 450
#     4  11  24  46  70 101 144 191 243 305 378 440
#     4  11  24  46  71 105 146 190 244 306 365 449
#     4  12  22  48  73 101 148 197 244 301 383 453
#     4  11  22  46  71 102 145 198 241 310 375 444
#
# _framework density 25.141345000000001
#
# number of rings (size 3 to 8) (size 9 to 14) (size 15 to 20)
#    0.000    0.800    8.000    0.000    2.800    2.400 
#   10.800    0.000    0.000    0.000    0.000    0.000 
#    0.000    0.000    0.000    0.000    0.000    0.000 
#
# Total GULP energy -223697.383902 kJ/mol
# GULP energy per Si atom -5592.434598 kJ/mol
# Density = 2.508412 g / cm^3
# Si number density = 25.141345 Si / 1000 Ang^3
#
#
#
# Elastic Constant Matrix: (Units=GPa)
#
#
# Indices 1 2 3 4 5 6 
#
# 1 52.0946 5.7997 41.9295 0.0000 0.0000 0.0000
# 2 5.7997 52.0946 41.9295 0.0000 0.0000 0.0000
# 3 41.9295 41.9295 107.4252 0.0000 0.0000 0.0000
# 4 0.0000 0.0000 0.0000 45.3117 0.0000 0.0000
# 5 0.0000 0.0000 0.0000 0.0000 45.3117 0.0000
# 6 0.0000 0.0000 0.0000 0.0000 0.0000 44.6319
#
#
#
# Elastic Compliance Matrix: (Units=1/GPa)
#
#
# Indices 1 2 3 4 5 6 
#
# 1 0.030671 0.009070 -0.015511 0.000000 0.000000 0.000000
# 2 0.009070 0.030671 -0.015511 0.000000 0.000000 0.000000
# 3 -0.015511 -0.015511 0.021417 0.000000 0.000000 0.000000
# 4 0.000000 0.000000 0.000000 0.022069 0.000000 0.000000
# 5 0.000000 0.000000 0.000000 0.000000 0.022069 0.000000
# 6 0.000000 0.000000 0.000000 0.000000 0.000000 0.022406
#
#
# Mechanical properties :
#
#
# Convention : Reuss Voigt Hill
#
# Bulk Modulus (GPa) = 25.73761 43.43688 34.58725
# Shear Modulus (GPa) = 24.25300 35.18143 29.71722
#
# Velocity S-wave (km/s) = 3.10928 3.74484 3.44176
# Velocity P-wave (km/s) = 4.81140 6.00109 5.43887
#
# Compressibility (1/GPa) = 0.03885365
#
# Stress axis : x y z
#
# Youngs Moduli (GPa) = 32.60426 32.60426 46.69086
#
# Poissons Ratio (x) = -0.29573 0.72424
# Poissons Ratio (y) = -0.29573 0.72424
# Poissons Ratio (z) = 0.50574 0.50574
#
# Static dielectric constant tensor:
#      x y z
#    x 2.080070 0.000000 0.000000 
#    y 0.000000 2.080070 0.000000 
#    z 0.000000 0.000000 1.955650 
# 
# From -- ./inp_files/3794.got.cif
#   From: 2010.05.17/outbox.cif.g08.bks.cpg/sg92_2_cif.got.tgz:3794.got - 2010.06.03 19:35:17.
