data_PCOD9549073
_publ_section_title
;
Structure prediction by ZEFSAII (Michael W. Deem and Ramdas Pophale) SiO2 
 PCOD9549073
Probable space group: P 41 21 2
;
_chemical_formula_sum "Si O2"
_cell_formula_units_Z 40
_cell_length_a 10.606727
_cell_length_b 10.606727
_cell_length_c 15.699278
_cell_angle_alpha 90.000000
_cell_angle_beta 90.000000
_cell_angle_gamma 90.000000
_cell_volume 1766.210498
_symmetry_space_group_name_H-M "P 41 21 2"
_symmetry_group_IT_number 92
_symmetry_cell_setting 'tetragonal'
loop_
_space_group_symop_operation_xyz
x,y,z
1/2-y,1/2+x,1/4+z
-x,-y,1/2+z
1/2+y,1/2-x,3/4+z
1/2+x,1/2-y,3/4-z
1/2-x,1/2+y,1/4-z
y,x,-z
-y,-x,1/2-z
loop_
_atom_site_type_symbol
_atom_site_label
_atom_site_fract_x
_atom_site_fract_y
_atom_site_fract_z
Si Si1 0.199579 0.501493 0.394131
Si Si2 0.882935 0.652371 0.279239
Si Si3 0.569891 0.256739 0.304107
Si Si4 0.854127 0.466825 0.713230
Si Si5 0.071991 0.102430 0.279783
O O1 0.121310 0.370998 0.401500
O O2 0.233684 0.525044 0.295801
O O3 0.313643 0.501314 0.459346
O O4 0.105553 0.610083 0.429001
O O5 0.780492 0.547604 0.255185
O O6 0.888952 0.683370 0.379625
O O7 0.869191 0.780362 0.227443
O O8 0.015806 0.590782 0.250625
O O9 0.680615 0.319386 0.250000
O O10 0.530829 0.354068 0.377257
O O11 0.038755 0.961246 0.250000
#
# Coordination Sequence:
#
# PCOD9549073 Si02
#       5
#     8   8   8   8   8
#     4  10  20  40  71  97 128 176 233 290 348 426
#     4  10  23  43  67 100 142 183 229 297 358 429
#     4  11  24  44  75 103 137 184 240 297 356 422
#     4   9  19  42  68  93 131 185 231 273 364 423
#     4  12  27  43  65 105 140 178 238 297 359 423
#
# _framework density 22.647359000000002
#
# number of rings (size 3 to 8) (size 9 to 14) (size 15 to 20)
#    0.000    1.600    2.000    1.800    8.400    0.800 
#   18.000    0.000    0.000    0.000    0.000    0.000 
#    0.000    0.000    0.000    0.000    0.000    0.000 
#
# Total GULP energy -223627.846303 kJ/mol
# GULP energy per Si atom -5590.696158 kJ/mol
# Density = 2.259581 g / cm^3
# Si number density = 22.647359 Si / 1000 Ang^3
#
#
#
# Elastic Constant Matrix: (Units=GPa)
#
#
# Indices 1 2 3 4 5 6 
#
# 1 24.9190 14.7612 2.7573 0.0000 0.0000 0.0000
# 2 14.7612 24.9233 2.7569 0.0000 0.0000 0.0000
# 3 2.7573 2.7569 134.5593 0.0000 0.0000 0.0000
# 4 0.0000 0.0000 0.0000 27.8108 0.0000 0.0000
# 5 0.0000 0.0000 0.0000 0.0000 27.8099 0.0000
# 6 0.0000 0.0000 0.0000 0.0000 0.0000 24.1502
#
#
#
# Elastic Compliance Matrix: (Units=1/GPa)
#
#
# Indices 1 2 3 4 5 6 
#
# 1 0.061854 -0.036577 -0.000518 0.000000 0.000000 0.000000
# 2 -0.036577 0.061843 -0.000518 0.000000 0.000000 0.000000
# 3 -0.000518 -0.000518 0.007453 0.000000 0.000000 0.000000
# 4 0.000000 0.000000 0.000000 0.035957 0.000000 0.000000
# 5 0.000000 0.000000 0.000000 0.000000 0.035958 0.000000
# 6 0.000000 0.000000 0.000000 0.000000 0.000000 0.041408
#
#
# Mechanical properties :
#
#
# Convention : Reuss Voigt Hill
#
# Bulk Modulus (GPa) = 17.88085 24.99472 21.43778
# Shear Modulus (GPa) = 14.77804 26.89592 20.83698
#
# Velocity S-wave (km/s) = 2.55723 3.44989 3.03654
# Velocity P-wave (km/s) = 4.07820 5.18936 4.66697
#
# Compressibility (1/GPa) = 0.05592577
#
# Stress axis : x y z
#
# Youngs Moduli (GPa) = 16.16708 16.16992 134.17617
#
# Poissons Ratio (x) = 0.59144 0.06952
# Poissons Ratio (y) = 0.59134 0.06944
# Poissons Ratio (z) = 0.00838 0.00837
#
# Static dielectric constant tensor:
#      x y z
#    x 1.846550 0.000000 0.000000 
#    y 0.000000 1.846550 0.000000 
#    z 0.000000 0.000000 1.843690 
# 
# From -- ./inp_files/2602.got.cif
#   From: 2010.05.17/outbox.cif.g08.bks.cpg/sg92_2_cif.got.tgz:2602.got - 2010.06.03 19:35:17.
