data_PCOD9549038
_publ_section_title
;
Structure prediction by ZEFSAII (Michael W. Deem and Ramdas Pophale) SiO2 
 PCOD9549038
Probable space group: P 41 21 2
;
_chemical_formula_sum "Si O2"
_cell_formula_units_Z 56
_cell_length_a 11.752176
_cell_length_b 11.752176
_cell_length_c 20.516221
_cell_angle_alpha 90.000000
_cell_angle_beta 90.000000
_cell_angle_gamma 90.000000
_cell_volume 2833.569976
_symmetry_space_group_name_H-M "P 41 21 2"
_symmetry_group_IT_number 92
_symmetry_cell_setting 'tetragonal'
loop_
_space_group_symop_operation_xyz
x,y,z
1/2-y,1/2+x,1/4+z
-x,-y,1/2+z
1/2+y,1/2-x,3/4+z
1/2+x,1/2-y,3/4-z
1/2-x,1/2+y,1/4-z
y,x,-z
-y,-x,1/2-z
loop_
_atom_site_type_symbol
_atom_site_label
_atom_site_fract_x
_atom_site_fract_y
_atom_site_fract_z
Si Si1 0.347355 0.808368 0.412231
Si Si2 0.558859 0.169698 0.473900
Si Si3 0.276435 0.428792 0.952206
Si Si4 0.764456 0.313657 0.444713
Si Si5 0.777943 0.946356 0.357287
Si Si6 0.138026 0.809786 0.823333
Si Si7 0.083650 0.430354 0.056793
O O1 0.252658 0.860868 0.364146
O O2 0.323599 0.838054 0.488502
O O3 0.344834 0.670643 0.406977
O O4 0.474985 0.853419 0.398792
O O5 0.686898 0.204129 0.459288
O O6 0.539116 0.184505 0.550214
O O7 0.489167 0.269506 0.439374
O O8 0.527983 0.044901 0.451720
O O9 0.297106 0.563018 0.940493
O O10 0.368614 0.368614 0.000000
O O11 0.157934 0.425789 0.991765
O O12 0.817120 0.281725 0.375377
O O13 0.699389 0.925556 0.419303
O O14 0.848880 0.062771 0.352044
O O15 0.192374 0.807627 0.750000
#
# Coordination Sequence:
#
# PCOD9549038 Si02
#       7
#     8   8   8   8   8   8   8
#     4  10  22  38  60  94 126 162 212 265 316 391
#     4  10  21  36  62  87 120 165 209 258 312 386
#     4  11  22  38  62  96 128 170 216 270 326 397
#     4  10  22  40  60  91 127 166 209 265 324 384
#     4  10  20  38  61  89 121 164 207 259 319 376
#     4  10  21  40  63  90 123 163 213 264 317 387
#     4  11  20  37  64  90 124 167 213 257 323 384
#
# _framework density 19.763055000000001
#
# number of rings (size 3 to 8) (size 9 to 14) (size 15 to 20)
#    0.000    1.714    2.857    1.714    0.000    5.143 
#    2.571    0.000    0.000    0.000    0.000    0.000 
#    0.000    0.000    0.000    0.000    0.000    0.000 
#
# Total GULP energy -311752.587404 kJ/mol
# GULP energy per Si atom -5567.010489 kJ/mol
# Density = 1.971807 g / cm^3
# Si number density = 19.763055 Si / 1000 Ang^3
#
#
#
# Elastic Constant Matrix: (Units=GPa)
#
#
# Indices 1 2 3 4 5 6 
#
# 1 83.7891 36.6281 19.1031 0.0000 0.0000 0.0000
# 2 36.6281 83.7891 19.1020 0.0000 0.0000 0.0000
# 3 19.1031 19.1020 52.3136 0.0000 0.0000 0.0000
# 4 0.0000 0.0000 0.0000 21.5463 0.0000 0.0000
# 5 0.0000 0.0000 0.0000 0.0000 21.5461 0.0000
# 6 0.0000 0.0000 0.0000 0.0000 0.0000 33.2201
#
#
#
# Elastic Compliance Matrix: (Units=1/GPa)
#
#
# Indices 1 2 3 4 5 6 
#
# 1 0.015298 -0.005906 -0.003430 0.000000 0.000000 0.000000
# 2 -0.005906 0.015298 -0.003429 0.000000 0.000000 0.000000
# 3 -0.003430 -0.003429 0.021620 0.000000 0.000000 0.000000
# 4 0.000000 0.000000 0.000000 0.046412 0.000000 0.000000
# 5 0.000000 0.000000 0.000000 0.000000 0.046412 0.000000
# 6 0.000000 0.000000 0.000000 0.000000 0.000000 0.030102
#
#
# Mechanical properties :
#
#
# Convention : Reuss Voigt Hill
#
# Bulk Modulus (GPa) = 37.47215 41.06202 39.26709
# Shear Modulus (GPa) = 23.85852 24.93307 24.39579
#
# Velocity S-wave (km/s) = 3.47829 3.55575 3.51723
# Velocity P-wave (km/s) = 5.92733 6.13841 6.03379
#
# Compressibility (1/GPa) = 0.02668649
#
# Stress axis : x y z
#
# Youngs Moduli (GPa) = 65.36633 65.36712 46.25293
#
# Poissons Ratio (x) = 0.38604 0.15865
# Poissons Ratio (y) = 0.38603 0.15862
# Poissons Ratio (z) = 0.22421 0.22418
#
# Static dielectric constant tensor:
#      x y z
#    x 1.709820 0.000000 0.000000 
#    y 0.000000 1.709820 0.000000 
#    z 0.000000 0.000000 1.787120 
# 
# From -- ./inp_files/3586.got.cif
#   From: 2010.05.17/outbox.cif.g08.bks.cpg/sg92_2_cif.got.tgz:3586.got - 2010.06.03 19:35:17.
