data_PCOD9549293
_publ_section_title
;
Structure prediction by ZEFSAII (Michael W. Deem and Ramdas Pophale) SiO2 
 PCOD9549293
Probable space group: P 41 21 2
;
_chemical_formula_sum "Si O2"
_cell_formula_units_Z 32
_cell_length_a 7.744422
_cell_length_b 7.744422
_cell_length_c 20.840709
_cell_angle_alpha 90.000000
_cell_angle_beta 90.000000
_cell_angle_gamma 90.000000
_cell_volume 1249.943866
_symmetry_space_group_name_H-M "P 41 21 2"
_symmetry_group_IT_number 92
_symmetry_cell_setting 'tetragonal'
loop_
_space_group_symop_operation_xyz
x,y,z
1/2-y,1/2+x,1/4+z
-x,-y,1/2+z
1/2+y,1/2-x,3/4+z
1/2+x,1/2-y,3/4-z
1/2-x,1/2+y,1/4-z
y,x,-z
-y,-x,1/2-z
loop_
_atom_site_type_symbol
_atom_site_label
_atom_site_fract_x
_atom_site_fract_y
_atom_site_fract_z
Si Si1 0.466540 0.533461 0.250000
Si Si2 0.857112 0.614331 0.209057
Si Si3 0.365763 0.675176 0.120617
Si Si4 0.015320 0.984681 0.250000
Si Si5 0.490983 0.043896 0.168245
O O1 0.658702 0.580122 0.226705
O O2 0.355197 0.569600 0.186876
O O3 0.961082 0.791918 0.225404
O O4 0.867391 0.596246 0.132736
O O5 0.952727 0.474853 0.255948
O O6 0.427504 0.859023 0.144898
O O7 0.172538 0.669799 0.092690
O O8 0.489029 0.597138 0.065346
#
# Coordination Sequence:
#
# PCOD9549293 Si02
#       5
#     4   8   8   4   8
#     4  12  26  42  66 100 138 178 228 286 346 412
#     4  11  24  43  68  99 138 179 228 286 347 413
#     4  11  23  41  67  97 132 177 229 282 344 413
#     4  10  22  44  70  96 136 182 232 286 346 414
#     4  11  23  41  67  95 133 179 227 282 345 413
#
# _framework density 25.601153
#
# number of rings (size 3 to 8) (size 9 to 14) (size 15 to 20)
#    0.000    1.000    0.000    9.000    0.000    8.000 
#    0.000    0.000    0.000    0.000    0.000    0.000 
#    0.000    0.000    0.000    0.000    0.000    0.000 
#
# Total GULP energy -178758.347913 kJ/mol
# GULP energy per Si atom -5586.198372 kJ/mol
# Density = 2.554288 g / cm^3
# Si number density = 25.601153 Si / 1000 Ang^3
#
#
#
# Elastic Constant Matrix: (Units=GPa)
#
#
# Indices 1 2 3 4 5 6 
#
# 1 86.7843 -4.7973 6.1234 0.0000 0.0000 0.0000
# 2 -4.7973 86.7836 6.1239 0.0000 0.0000 0.0000
# 3 6.1234 6.1239 121.3237 0.0000 0.0000 0.0000
# 4 0.0000 0.0000 0.0000 40.8621 0.0000 0.0000
# 5 0.0000 0.0000 0.0000 0.0000 40.8615 0.0000
# 6 0.0000 0.0000 0.0000 0.0000 0.0000 6.4212
#
#
#
# Elastic Compliance Matrix: (Units=1/GPa)
#
#
# Indices 1 2 3 4 5 6 
#
# 1 0.011604 0.000685 -0.000620 0.000000 0.000000 0.000000
# 2 0.000685 0.011605 -0.000620 0.000000 0.000000 0.000000
# 3 -0.000620 -0.000620 0.008305 0.000000 0.000000 0.000000
# 4 0.000000 0.000000 0.000000 0.024473 0.000000 0.000000
# 5 0.000000 0.000000 0.000000 0.000000 0.024473 0.000000
# 6 0.000000 0.000000 0.000000 0.000000 0.000000 0.155735
#
#
# Mechanical properties :
#
#
# Convention : Reuss Voigt Hill
#
# Bulk Modulus (GPa) = 32.89113 34.42128 33.65621
# Shear Modulus (GPa) = 20.20694 36.79172 28.49933
#
# Velocity S-wave (km/s) = 2.81249 3.79504 3.34009
# Velocity P-wave (km/s) = 4.83965 5.71642 5.29621
#
# Compressibility (1/GPa) = 0.03040334
#
# Stress axis : x y z
#
# Youngs Moduli (GPa) = 86.17370 86.17291 120.40890
#
# Poissons Ratio (x) = -0.05905 0.07469
# Poissons Ratio (y) = -0.05905 0.07469
# Poissons Ratio (z) = 0.05345 0.05346
#
# Static dielectric constant tensor:
#      x y z
#    x 2.074660 0.000000 0.000000 
#    y 0.000000 2.074670 0.000000 
#    z 0.000000 0.000000 2.152530 
# 
# From -- ./inp_files/3402.got.cif
#   From: 2010.05.17/outbox.cif.g08.bks.cpg/sg92_2_cif.got.tgz:3402.got - 2010.06.03 19:35:17.
