data_PCOD9549586
_publ_section_title
;
Structure prediction by ZEFSAII (Michael W. Deem and Ramdas Pophale) SiO2 
 PCOD9549586
Probable space group: P 41 21 2
;
_chemical_formula_sum "Si O2"
_cell_formula_units_Z 52
_cell_length_a 21.000000
_cell_length_b 21.000000
_cell_length_c 6.000000
_cell_angle_alpha 90.000000
_cell_angle_beta 90.000000
_cell_angle_gamma 90.000000
_cell_volume 2646.000000
_symmetry_space_group_name_H-M "P 41 21 2"
_symmetry_group_IT_number 92
_symmetry_cell_setting 'tetragonal'
loop_
_space_group_symop_operation_xyz
x,y,z
1/2-y,1/2+x,1/4+z
-x,-y,1/2+z
1/2+y,1/2-x,3/4+z
1/2+x,1/2-y,3/4-z
1/2-x,1/2+y,1/4-z
y,x,-z
-y,-x,1/2-z
loop_
_atom_site_type_symbol
_atom_site_label
_atom_site_fract_x
_atom_site_fract_y
_atom_site_fract_z
Si Si1 0.631483 0.092863 0.267417
Si Si2 0.227399 0.350095 0.133174
Si Si3 0.179197 0.820804 0.750000
Si Si4 0.071668 0.755463 0.994975
Si Si5 0.890402 0.715628 0.467761
Si Si6 0.413116 0.022458 0.020211
Si Si7 0.231181 0.574923 0.726185
O O1 0.678502 0.107041 0.474655
O O2 0.596836 0.026854 0.314480
O O3 0.586764 0.154485 0.261789
O O4 0.681968 0.088827 0.068163
O O5 0.271579 0.310460 0.299043
O O6 0.182688 0.305694 0.986292
O O7 0.267730 0.398329 0.985356
O O8 0.196710 0.891281 0.668310
O O9 0.996709 0.755880 0.981776
O O10 0.898272 0.750018 0.225522
O O11 0.937760 0.652803 0.459765
O O12 0.902199 0.745897 0.718332
O O13 0.473234 0.068005 0.967190
#
# Coordination Sequence:
#
# PCOD9549586 Si02
#       7
#     8   8   4   8   8   8   8
#     4  10  19  36  47  72 102 141 178 234 284 334
#     4  10  20  37  53  70  99 135 189 241 295 333
#     4  10  24  36  54  76  96 140 190 260 296 328
#     4  11  20  35  55  72 105 133 190 241 293 339
#     4  11  23  36  52  73  99 138 173 227 287 332
#     4  12  23  29  41  70 102 138 180 220 283 329
#     4  11  22  34  55  73  99 139 172 226 290 333
#
# _framework density 19.652304999999998
#
# number of rings (size 3 to 8) (size 9 to 14) (size 15 to 20)
#    0.000    1.231    6.154    1.385    4.308    0.000 
#    0.000    0.000    0.000    0.000    0.000    0.000 
#    0.000    0.000    0.000    0.000    0.000    0.000 
#
# Total GULP energy -289765.001358 kJ/mol
# GULP energy per Si atom -5572.403872 kJ/mol
# Density = 1.960758 g / cm^3
# Si number density = 19.652305 Si / 1000 Ang^3
#
#
#
# Elastic Constant Matrix: (Units=GPa)
#
#
# Indices 1 2 3 4 5 6 
#
# 1 6.1005 -12.0419 -0.0629 0.0000 0.0000 0.0000
# 2 -12.0419 6.1000 -0.0633 0.0000 0.0000 0.0000
# 3 -0.0629 -0.0633 124.7784 0.0000 0.0000 0.0000
# 4 0.0000 0.0000 0.0000 27.1576 0.0000 0.0000
# 5 0.0000 0.0000 0.0000 0.0000 27.1577 0.0000
# 6 0.0000 0.0000 0.0000 0.0000 0.0000 23.4637
#
#
#
# Elastic Compliance Matrix: (Units=1/GPa)
#
#
# Indices 1 2 3 4 5 6 
#
# 1 -0.056588 -0.111711 -0.000085 0.000000 0.000000 0.000000
# 2 -0.111711 -0.056593 -0.000085 0.000000 0.000000 0.000000
# 3 -0.000085 -0.000085 0.008014 0.000000 0.000000 0.000000
# 4 0.000000 0.000000 0.000000 0.036822 0.000000 0.000000
# 5 0.000000 0.000000 0.000000 0.000000 0.036822 0.000000
# 6 0.000000 0.000000 0.000000 0.000000 0.000000 0.042619
#
#
# Mechanical properties :
#
#
# Convention : Reuss Voigt Hill
#
# Bulk Modulus (GPa) = -3.04017 12.51586 4.73784
# Shear Modulus (GPa) = 39.93132 25.49894 32.71513
#
# Velocity S-wave (km/s) = 4.51254 3.60600 4.08450
# Velocity P-wave (km/s) = 5.05968 4.87033 4.96590
#
# Compressibility (1/GPa) = -0.32892912
#
# Stress axis : x y z
#
# Youngs Moduli (GPa) = -17.67159 -17.66998 124.77977
#
# Poissons Ratio (x) = -1.97393 0.01063
# Poissons Ratio (y) = -1.97411 0.01061
# Poissons Ratio (z) = -0.00151 -0.00150
#
# Static dielectric constant tensor:
#      x y z
#    x 1.691120 0.000000 0.000000 
#    y 0.000000 1.691120 0.000000 
#    z 0.000000 0.000000 1.853040 
# 
# From -- ./inp_files/731.got.cif
#   From: 2010.05.17/outbox.ucp.g08.bks.cvg/sg92_1_cif.got.tgz:731.got - 2010.06.11 10:36:43.
