data_PCOD9549159
_publ_section_title
;
Structure prediction by ZEFSAII (Michael W. Deem and Ramdas Pophale) SiO2 
 PCOD9549159
Probable space group: P 41 21 2
;
_chemical_formula_sum "Si O2"
_cell_formula_units_Z 40
_cell_length_a 13.661129
_cell_length_b 13.661129
_cell_length_c 8.285537
_cell_angle_alpha 90.000000
_cell_angle_beta 90.000000
_cell_angle_gamma 90.000000
_cell_volume 1546.300320
_symmetry_space_group_name_H-M "P 41 21 2"
_symmetry_group_IT_number 92
_symmetry_cell_setting 'tetragonal'
loop_
_space_group_symop_operation_xyz
x,y,z
1/2-y,1/2+x,1/4+z
-x,-y,1/2+z
1/2+y,1/2-x,3/4+z
1/2+x,1/2-y,3/4-z
1/2-x,1/2+y,1/4-z
y,x,-z
-y,-x,1/2-z
loop_
_atom_site_type_symbol
_atom_site_label
_atom_site_fract_x
_atom_site_fract_y
_atom_site_fract_z
Si Si1 0.600745 0.273357 0.870762
Si Si2 0.424511 0.934921 0.272938
Si Si3 0.407136 0.796939 0.716927
Si Si4 0.563609 0.593360 0.317619
Si Si5 0.282258 0.422944 0.586687
O O1 0.661574 0.338427 0.750000
O O2 0.625344 0.164527 0.819119
O O3 0.491398 0.302633 0.813227
O O4 0.610805 0.279457 0.066141
O O5 0.534149 0.925106 0.339781
O O6 0.372881 0.018173 0.380740
O O7 0.305657 0.857544 0.733986
O O8 0.464997 0.753027 0.873411
O O9 0.565730 0.565730 0.500000
O O10 0.493710 0.506291 0.250000
O O11 0.675530 0.601985 0.262704
O O12 0.384500 0.384500 0.500000
#
# Coordination Sequence:
#
# PCOD9549159 Si02
#       5
#     8   8   8   8   8
#     4  10  22  42  72 114 154 210 265 335 419 495
#     4  10  21  41  68 101 153 204 257 331 408 482
#     4  11  23  47  75 107 156 210 273 339 415 501
#     4  11  24  46  76 111 161 211 275 336 407 497
#     4  12  27  49  77 115 158 219 276 345 426 500
#
# _framework density 25.868199000000001
#
# number of rings (size 3 to 8) (size 9 to 14) (size 15 to 20)
#    0.000    1.200    6.000    0.600    0.000    6.400 
#    7.200    0.000    0.000    0.000    0.000    0.000 
#    0.000    0.000    0.000    0.000    0.000    0.000 
#
# Total GULP energy -222903.276662 kJ/mol
# GULP energy per Si atom -5572.581917 kJ/mol
# Density = 2.580932 g / cm^3
# Si number density = 25.868199 Si / 1000 Ang^3
#
#
#
# Elastic Constant Matrix: (Units=GPa)
#
#
# Indices 1 2 3 4 5 6 
#
# 1 133.9557 31.4695 30.1925 0.0000 0.0000 0.0000
# 2 31.4695 133.9500 30.1955 0.0000 0.0000 0.0000
# 3 30.1925 30.1955 54.8967 0.0000 0.0000 0.0000
# 4 0.0000 0.0000 0.0000 48.7263 0.0000 0.0000
# 5 0.0000 0.0000 0.0000 0.0000 48.7274 0.0000
# 6 0.0000 0.0000 0.0000 0.0000 0.0000 32.4880
#
#
#
# Elastic Compliance Matrix: (Units=1/GPa)
#
#
# Indices 1 2 3 4 5 6 
#
# 1 0.008660 -0.001097 -0.004160 0.000000 0.000000 0.000000
# 2 -0.001097 0.008661 -0.004161 0.000000 0.000000 0.000000
# 3 -0.004160 -0.004161 0.022792 0.000000 0.000000 0.000000
# 4 0.000000 0.000000 0.000000 0.020523 0.000000 0.000000
# 5 0.000000 0.000000 0.000000 0.000000 0.020522 0.000000
# 6 0.000000 0.000000 0.000000 0.000000 0.000000 0.030781
#
#
# Mechanical properties :
#
#
# Convention : Reuss Voigt Hill
#
# Bulk Modulus (GPa) = 46.99429 56.27973 51.63701
# Shear Modulus (GPa) = 36.26673 41.38468 38.82570
#
# Velocity S-wave (km/s) = 3.74837 4.00412 3.87835
# Velocity P-wave (km/s) = 6.07782 6.57122 6.32933
#
# Compressibility (1/GPa) = 0.02127918
#
# Stress axis : x y z
#
# Youngs Moduli (GPa) = 115.46772 115.45889 43.87426
#
# Poissons Ratio (x) = 0.12665 0.18251
# Poissons Ratio (y) = 0.12666 0.18255
# Poissons Ratio (z) = 0.48032 0.48039
#
# Static dielectric constant tensor:
#      x y z
#    x 2.095720 0.000000 0.000000 
#    y 0.000000 2.095700 0.000000 
#    z 0.000000 0.000000 2.254760 
# 
# From -- ./inp_files/1353.got.cif
#   From: 2010.05.17/outbox.cif.g08.bks.cpg/sg92_1_cif.got.tgz:1353.got - 2010.06.03 19:35:17.
