data_PCOD9549875
_publ_section_title
;
Structure prediction by ZEFSAII (Michael W. Deem and Ramdas Pophale) SiO2 
 PCOD9549875
Probable space group: P 42 2 2
;
_chemical_formula_sum "Si O2"
_cell_formula_units_Z 48
_cell_length_a 8.307544
_cell_length_b 8.307544
_cell_length_c 31.201167
_cell_angle_alpha 90.000000
_cell_angle_beta 90.000000
_cell_angle_gamma 90.000000
_cell_volume 2153.357505
_symmetry_space_group_name_H-M "P 42 2 2"
_symmetry_group_IT_number 93
_symmetry_cell_setting 'tetragonal'
loop_
_space_group_symop_operation_xyz
x,y,z
-y,x,1/2+z
-x,-y,z
y,-x,1/2+z
x,-y,-z
-x,y,-z
y,x,1/2-z
-y,-x,1/2-z
loop_
_atom_site_type_symbol
_atom_site_label
_atom_site_fract_x
_atom_site_fract_y
_atom_site_fract_z
Si Si1 0.617040 0.635440 0.077109
Si Si2 0.165897 0.172356 0.300328
Si Si3 0.854121 0.616179 0.921192
Si Si4 0.500512 0.690515 0.834336
Si Si5 0.195814 0.186346 0.001956
Si Si6 0.147296 0.189251 0.838166
O O1 0.500000 0.500000 0.057300
O O2 0.743914 0.518423 0.101199
O O3 0.528961 0.730823 0.114888
O O4 0.715828 0.737385 0.042905
O O5 0.145085 0.145085 0.250000
O O6 0.238208 0.347814 0.309363
O O7 0.999837 0.162161 0.327366
O O8 0.259295 0.011842 0.315392
O O9 0.883566 0.757809 0.887388
O O10 0.000000 0.500000 0.936242
O O11 0.768727 0.701605 0.961218
O O12 0.500000 0.500000 0.829014
O O13 0.679216 0.747612 0.823052
O O14 0.000000 0.187614 0.000000
O O15 0.245783 0.000000 0.000000
#
# Coordination Sequence:
#
# PCOD9549875 Si02
#       6
#     8   8   8   8   8   8
#     4  11  23  46  69 101 150 192 249 304 366 439
#     4  11  27  51  76 111 154 193 240 315 393 459
#     4  12  23  42  71 104 139 201 245 306 369 445
#     4  11  24  48  74 111 145 197 254 304 374 457
#     4  11  26  42  69 108 145 191 253 309 371 432
#     4  11  24  47  77 104 146 194 249 299 378 454
#
# _framework density 22.290769000000001
#
# number of rings (size 3 to 8) (size 9 to 14) (size 15 to 20)
#    0.000    0.833    5.000    3.000    2.333    3.000 
#    9.000    1.667    0.000    0.000    0.000    0.000 
#    0.000    0.000    0.000    0.000    0.000    0.000 
#
# Total GULP energy -267661.548646 kJ/mol
# GULP energy per Si atom -5576.282263 kJ/mol
# Density = 2.224003 g / cm^3
# Si number density = 22.290769 Si / 1000 Ang^3
#
#
#
# Elastic Constant Matrix: (Units=GPa)
#
#
# Indices 1 2 3 4 5 6 
#
# 1 110.0476 45.8333 21.4301 0.0000 0.0000 0.0000
# 2 45.8333 110.0476 21.4301 0.0000 0.0000 0.0000
# 3 21.4301 21.4301 83.1646 0.0000 0.0000 0.0000
# 4 0.0000 0.0000 0.0000 52.9500 0.0000 0.0000
# 5 0.0000 0.0000 0.0000 0.0000 52.9500 0.0000
# 6 0.0000 0.0000 0.0000 0.0000 0.0000 30.7861
#
#
#
# Elastic Compliance Matrix: (Units=1/GPa)
#
#
# Indices 1 2 3 4 5 6 
#
# 1 0.011239 -0.004334 -0.001779 0.000000 0.000000 0.000000
# 2 -0.004334 0.011239 -0.001779 0.000000 0.000000 0.000000
# 3 -0.001779 -0.001779 0.012941 0.000000 0.000000 0.000000
# 4 0.000000 0.000000 0.000000 0.018886 0.000000 0.000000
# 5 0.000000 0.000000 0.000000 0.000000 0.018886 0.000000
# 6 0.000000 0.000000 0.000000 0.000000 0.000000 0.032482
#
#
# Mechanical properties :
#
#
# Convention : Reuss Voigt Hill
#
# Bulk Modulus (GPa) = 50.93357 53.40516 52.16937
# Shear Modulus (GPa) = 39.06201 41.64165 40.35183
#
# Velocity S-wave (km/s) = 4.19069 4.32685 4.25932
# Velocity P-wave (km/s) = 6.80552 6.99805 6.90245
#
# Compressibility (1/GPa) = 0.01963342
#
# Stress axis : x y z
#
# Youngs Moduli (GPa) = 88.97911 88.97911 77.27230
#
# Poissons Ratio (x) = 0.38566 0.13748
# Poissons Ratio (y) = 0.38566 0.13748
# Poissons Ratio (z) = 0.15831 0.15831
#
# Static dielectric constant tensor:
#      x y z
#    x 1.894870 0.000000 0.000000 
#    y 0.000000 1.894870 0.000000 
#    z 0.000000 0.000000 1.829030 
# 
# From -- ./inp_files/7750.got.cif
#   From: 2010.05.17/outbox.cif.g08.bks.cpg/sg93_4_cif.got.tgz:7750.got - 2010.06.03 19:38:44.
