data_PCOD9549126
_publ_section_title
;
Structure prediction by ZEFSAII (Michael W. Deem and Ramdas Pophale) SiO2 
 PCOD9549126
Probable space group: P 41 21 2
;
_chemical_formula_sum "Si O2"
_cell_formula_units_Z 36
_cell_length_a 13.733819
_cell_length_b 13.733819
_cell_length_c 7.649647
_cell_angle_alpha 90.000000
_cell_angle_beta 90.000000
_cell_angle_gamma 90.000000
_cell_volume 1442.859468
_symmetry_space_group_name_H-M "P 41 21 2"
_symmetry_group_IT_number 92
_symmetry_cell_setting 'tetragonal'
loop_
_space_group_symop_operation_xyz
x,y,z
1/2-y,1/2+x,1/4+z
-x,-y,1/2+z
1/2+y,1/2-x,3/4+z
1/2+x,1/2-y,3/4-z
1/2-x,1/2+y,1/4-z
y,x,-z
-y,-x,1/2-z
loop_
_atom_site_type_symbol
_atom_site_label
_atom_site_fract_x
_atom_site_fract_y
_atom_site_fract_z
Si Si1 0.517091 0.632280 0.354234
Si Si2 0.897682 0.102319 0.250000
Si Si3 0.432652 0.904394 0.608474
Si Si4 0.308515 0.660272 0.935891
Si Si5 0.297770 0.892910 0.900376
O O1 0.586027 0.586027 0.500000
O O2 0.422463 0.452573 0.325031
O O3 0.406768 0.640284 0.421954
O O4 0.551420 0.743490 0.306478
O O5 0.781537 0.092821 0.242544
O O6 0.543266 0.907838 0.675828
O O7 0.384245 0.798551 0.587282
O O8 0.388999 0.937803 0.801330
O O9 0.358675 0.641326 0.750000
O O10 0.308424 0.778465 0.953891
#
# Coordination Sequence:
#
# PCOD9549126 Si02
#       5
#     8   4   8   8   8
#     4  10  21  38  78  96 134 191 239 294 360 448
#     4   8  18  40  62 102 142 182 222 300 354 404
#     4  11  24  38  64 103 146 188 242 302 359 451
#     4  10  21  42  72  99 148 195 241 308 372 431
#     4   9  20  46  63  99 150 189 232 306 365 422
#
# _framework density 24.950455000000002
#
# number of rings (size 3 to 8) (size 9 to 14) (size 15 to 20)
#    1.333    0.889    3.333    0.000    9.333    0.000 
#    4.000    0.000   17.111    0.000    0.000    0.000 
#    0.000    0.000    0.000    0.000    0.000    0.000 
#
# Total GULP energy -200497.639404 kJ/mol
# GULP energy per Si atom -5569.378872 kJ/mol
# Density = 2.489367 g / cm^3
# Si number density = 24.950455 Si / 1000 Ang^3
#
#
#
# Elastic Constant Matrix: (Units=GPa)
#
#
# Indices 1 2 3 4 5 6 
#
# 1 48.5962 13.5056 27.3931 0.0000 0.0000 0.0000
# 2 13.5056 48.5991 27.3941 0.0000 0.0000 0.0000
# 3 27.3931 27.3941 133.1870 0.0000 0.0000 0.0000
# 4 0.0000 0.0000 0.0000 43.4296 0.0000 0.0000
# 5 0.0000 0.0000 0.0000 0.0000 43.4294 0.0000
# 6 0.0000 0.0000 0.0000 0.0000 0.0000 28.8059
#
#
#
# Elastic Compliance Matrix: (Units=1/GPa)
#
#
# Indices 1 2 3 4 5 6 
#
# 1 0.024085 -0.004412 -0.004046 0.000000 0.000000 0.000000
# 2 -0.004412 0.024083 -0.004046 0.000000 0.000000 0.000000
# 3 -0.004046 -0.004046 0.009173 0.000000 0.000000 0.000000
# 4 0.000000 0.000000 0.000000 0.023026 0.000000 0.000000
# 5 0.000000 0.000000 0.000000 0.000000 0.023026 0.000000
# 6 0.000000 0.000000 0.000000 0.000000 0.000000 0.034715
#
#
# Mechanical properties :
#
#
# Convention : Reuss Voigt Hill
#
# Bulk Modulus (GPa) = 30.92937 40.77420 35.85178
# Shear Modulus (GPa) = 28.75322 33.93896 31.34609
#
# Velocity S-wave (km/s) = 3.39840 3.69216 3.54832
# Velocity P-wave (km/s) = 5.27466 5.87823 5.58461
#
# Compressibility (1/GPa) = 0.03233173
#
# Stress axis : x y z
#
# Youngs Moduli (GPa) = 41.52009 41.52246 109.02055
#
# Poissons Ratio (x) = 0.18322 0.44110
# Poissons Ratio (y) = 0.18321 0.44109
# Poissons Ratio (z) = 0.16799 0.16800
#
# Static dielectric constant tensor:
#      x y z
#    x 2.165080 0.000000 0.000000 
#    y 0.000000 2.165080 0.000000 
#    z 0.000000 0.000000 1.997440 
# 
# From -- ./inp_files/1254.got.cif
#   From: 2010.05.17/outbox.cif.g08.bks.cpg/sg92_1_cif.got.tgz:1254.got - 2010.06.03 19:35:17.
