data_PCOD9549742
_publ_section_title
;
Structure prediction by ZEFSAII (Michael W. Deem and Ramdas Pophale) SiO2 
 PCOD9549742
Probable space group: P 42 2 2
;
_chemical_formula_sum "Si O2"
_cell_formula_units_Z 36
_cell_length_a 11.209025
_cell_length_b 11.209025
_cell_length_c 13.531719
_cell_angle_alpha 90.000000
_cell_angle_beta 90.000000
_cell_angle_gamma 90.000000
_cell_volume 1700.155506
_symmetry_space_group_name_H-M "P 42 2 2"
_symmetry_group_IT_number 93
_symmetry_cell_setting 'tetragonal'
loop_
_space_group_symop_operation_xyz
x,y,z
-y,x,1/2+z
-x,-y,z
y,-x,1/2+z
x,-y,-z
-x,y,-z
y,x,1/2-z
-y,-x,1/2-z
loop_
_atom_site_type_symbol
_atom_site_label
_atom_site_fract_x
_atom_site_fract_y
_atom_site_fract_z
Si Si1 0.973661 0.136959 0.384072
Si Si2 0.285597 0.798868 0.854006
Si Si3 0.226741 0.773260 0.250000
Si Si4 0.494380 0.133064 0.773763
Si Si5 0.126767 0.612680 0.943555
O O1 0.069804 0.229186 0.340372
O O2 0.000000 0.146537 0.500000
O O3 0.843549 0.169726 0.343532
O O4 0.000000 0.000000 0.357390
O O5 0.263190 0.736810 0.750000
O O6 0.427995 0.797360 0.855914
O O7 0.210730 0.727619 0.935627
O O8 0.191922 0.633661 0.252428
O O9 0.564303 0.115091 0.668790
O O10 0.500000 0.000000 0.815642
O O11 0.182396 0.500000 0.000000
O O12 0.000000 0.636253 0.000000
#
# Coordination Sequence:
#
# PCOD9549742 Si02
#       5
#     8   8   4   8   8
#     4  11  25  36  62 101 136 171 224 302 378 442
#     4  10  22  41  61  95 137 170 220 295 360 422
#     4  12  25  44  67  94 142 198 236 282 381 459
#     4  11  22  42  65  95 135 188 233 283 363 448
#     4  10  21  35  69 103 126 166 231 304 355 423
#
# _framework density 21.174534999999999
#
# number of rings (size 3 to 8) (size 9 to 14) (size 15 to 20)
#    0.000    1.333    4.444    1.667    9.333    0.000 
#    0.000    7.222    0.000    1.333    0.000    0.000 
#    0.000    0.000    0.000    0.000    0.000    0.000 
#
# Total GULP energy -200582.473368 kJ/mol
# GULP energy per Si atom -5571.735371 kJ/mol
# Density = 2.112634 g / cm^3
# Si number density = 21.174535 Si / 1000 Ang^3
#
#
#
# Elastic Constant Matrix: (Units=GPa)
#
#
# Indices 1 2 3 4 5 6 
#
# 1 151.3373 85.1222 31.8691 0.0000 0.0000 0.0000
# 2 85.1222 151.3366 31.8703 0.0000 0.0000 0.0000
# 3 31.8691 31.8703 69.9262 0.0000 0.0000 0.0000
# 4 0.0000 0.0000 0.0000 42.1938 0.0000 0.0000
# 5 0.0000 0.0000 0.0000 0.0000 42.1935 0.0000
# 6 0.0000 0.0000 0.0000 0.0000 0.0000 -5.7935
#
#
#
# Elastic Compliance Matrix: (Units=1/GPa)
#
#
# Indices 1 2 3 4 5 6 
#
# 1 0.009962 -0.005140 -0.002197 0.000000 0.000000 0.000000
# 2 -0.005140 0.009962 -0.002198 0.000000 0.000000 0.000000
# 3 -0.002197 -0.002198 0.016304 0.000000 0.000000 0.000000
# 4 0.000000 0.000000 0.000000 0.023700 0.000000 0.000000
# 5 0.000000 0.000000 0.000000 0.000000 0.023700 0.000000
# 6 0.000000 0.000000 0.000000 0.000000 0.000000 -0.172609
#
#
# Mechanical properties :
#
#
# Convention : Reuss Voigt Hill
#
# Bulk Modulus (GPa) = 58.28549 74.48037 66.38293
# Shear Modulus (GPa) = -77.89244 30.63467 -23.62888
#
# Velocity S-wave (km/s) = -6.07172 3.80777 -3.34415
# Velocity P-wave (km/s) = 4.64418 7.38803 4.06292
#
# Compressibility (1/GPa) = 0.01715693
#
# Stress axis : x y z
#
# Youngs Moduli (GPa) = 100.38334 100.38199 61.33550
#
# Poissons Ratio (x) = 0.51601 0.13477
# Poissons Ratio (y) = 0.51602 0.13479
# Poissons Ratio (z) = 0.22057 0.22060
#
# Static dielectric constant tensor:
#      x y z
#    x 1.775240 0.000000 0.000000 
#    y 0.000000 1.775260 0.000000 
#    z 0.000000 0.000000 1.826860 
# 
# From -- ./inp_files/4218.got.cif
#   From: 2010.05.17/outbox.cif.g08.bks.cpg/sg93_3_cif.got.tgz:4218.got - 2010.06.03 19:38:44.
