data_PCOD9549196
_publ_section_title
;
Structure prediction by ZEFSAII (Michael W. Deem and Ramdas Pophale) SiO2 
 PCOD9549196
Probable space group: P 41 21 2
;
_chemical_formula_sum "Si O2"
_cell_formula_units_Z 48
_cell_length_a 11.007129
_cell_length_b 11.007129
_cell_length_c 18.225798
_cell_angle_alpha 90.000000
_cell_angle_beta 90.000000
_cell_angle_gamma 90.000000
_cell_volume 2208.180982
_symmetry_space_group_name_H-M "P 41 21 2"
_symmetry_group_IT_number 92
_symmetry_cell_setting 'tetragonal'
loop_
_space_group_symop_operation_xyz
x,y,z
1/2-y,1/2+x,1/4+z
-x,-y,1/2+z
1/2+y,1/2-x,3/4+z
1/2+x,1/2-y,3/4-z
1/2-x,1/2+y,1/4-z
y,x,-z
-y,-x,1/2-z
loop_
_atom_site_type_symbol
_atom_site_label
_atom_site_fract_x
_atom_site_fract_y
_atom_site_fract_z
Si Si1 0.590541 0.404987 0.132165
Si Si2 0.655515 0.808319 0.102264
Si Si3 0.321198 0.917969 0.415504
Si Si4 0.254308 0.866642 0.010815
Si Si5 0.499551 0.008145 0.795630
Si Si6 0.586226 0.586226 0.000000
Si Si7 0.550293 0.449708 0.750000
O O1 0.719581 0.373934 0.167451
O O2 0.517370 0.281177 0.145691
O O3 0.593096 0.464769 0.050736
O O4 0.525392 0.506467 0.180187
O O5 0.682109 0.742065 0.178503
O O6 0.599912 0.706981 0.049483
O O7 0.565962 0.922019 0.105414
O O8 0.237708 0.801506 0.437131
O O9 0.413525 0.952052 0.483186
O O10 0.399149 0.918213 0.340994
O O11 0.393540 0.902150 0.018681
O O12 0.182663 0.995700 0.015610
#
# Coordination Sequence:
#
# PCOD9549196 Si02
#       7
#     8   8   8   8   8   4   4
#     4  11  24  44  71 107 144 190 251 317 380 455
#     4  12  23  41  70 106 143 184 245 311 374 458
#     4  11  26  48  74 105 152 194 256 323 379 461
#     4  11  24  45  70 101 147 190 243 308 381 453
#     4  12  25  47  73 107 144 201 249 314 387 461
#     4  12  25  42  75 112 144 200 256 314 392 464
#     4  10  21  46  65  92 146 188 232 308 374 438
#
# _framework density 21.737348000000001
#
# number of rings (size 3 to 8) (size 9 to 14) (size 15 to 20)
#    0.000    0.667    3.333    5.500    2.333    1.333 
#   12.000    0.000    0.000    0.000    0.000    0.000 
#    0.000    0.000    0.000    0.000    0.000    0.000 
#
# Total GULP energy -267508.037034 kJ/mol
# GULP energy per Si atom -5573.084105 kJ/mol
# Density = 2.168787 g / cm^3
# Si number density = 21.737348 Si / 1000 Ang^3
#
#
#
# Elastic Constant Matrix: (Units=GPa)
#
#
# Indices 1 2 3 4 5 6 
#
# 1 66.7978 48.9884 32.6648 0.0000 0.0000 0.0000
# 2 48.9884 66.7971 32.6650 0.0000 0.0000 0.0000
# 3 32.6648 32.6650 99.6741 0.0000 0.0000 0.0000
# 4 0.0000 0.0000 0.0000 3.5843 0.0000 0.0000
# 5 0.0000 0.0000 0.0000 0.0000 3.5830 0.0000
# 6 0.0000 0.0000 0.0000 0.0000 0.0000 14.9718
#
#
#
# Elastic Compliance Matrix: (Units=1/GPa)
#
#
# Indices 1 2 3 4 5 6 
#
# 1 0.033373 -0.022778 -0.003472 0.000000 0.000000 0.000000
# 2 -0.022778 0.033374 -0.003473 0.000000 0.000000 0.000000
# 3 -0.003472 -0.003473 0.012309 0.000000 0.000000 0.000000
# 4 0.000000 0.000000 0.000000 0.278998 0.000000 0.000000
# 5 0.000000 0.000000 0.000000 0.000000 0.279098 0.000000
# 6 0.000000 0.000000 0.000000 0.000000 0.000000 0.066792
#
#
# Mechanical properties :
#
#
# Convention : Reuss Voigt Hill
#
# Bulk Modulus (GPa) = 50.99277 51.32285 51.15781
# Shear Modulus (GPa) = 6.49413 12.35786 9.42600
#
# Velocity S-wave (km/s) = 1.73033 2.38693 2.08464
# Velocity P-wave (km/s) = 5.24419 5.59091 5.42032
#
# Compressibility (1/GPa) = 0.01961062
#
# Stress axis : x y z
#
# Youngs Moduli (GPa) = 29.96397 29.96357 81.24360
#
# Poissons Ratio (x) = 0.68250 0.28210
# Poissons Ratio (y) = 0.68251 0.28213
# Poissons Ratio (z) = 0.10404 0.10405
#
# Static dielectric constant tensor:
#      x y z
#    x 1.871690 0.000000 0.000000 
#    y 0.000000 1.871690 0.000000 
#    z 0.000000 0.000000 1.816550 
# 
# From -- ./inp_files/3190.got.cif
#   From: 2010.05.17/outbox.cif.g08.bks.cpg/sg92_2_cif.got.tgz:3190.got - 2010.06.03 19:35:17.
