data_PCOD9549555
_publ_section_title
;
Structure prediction by ZEFSAII (Michael W. Deem and Ramdas Pophale) SiO2 
 PCOD9549555
Probable space group: P 41 21 2
;
_chemical_formula_sum "Si O2"
_cell_formula_units_Z 48
_cell_length_a 9.313855
_cell_length_b 9.313855
_cell_length_c 24.426504
_cell_angle_alpha 90.000000
_cell_angle_beta 90.000000
_cell_angle_gamma 90.000000
_cell_volume 2118.947803
_symmetry_space_group_name_H-M "P 41 21 2"
_symmetry_group_IT_number 92
_symmetry_cell_setting 'tetragonal'
loop_
_space_group_symop_operation_xyz
x,y,z
1/2-y,1/2+x,1/4+z
-x,-y,1/2+z
1/2+y,1/2-x,3/4+z
1/2+x,1/2-y,3/4-z
1/2-x,1/2+y,1/4-z
y,x,-z
-y,-x,1/2-z
loop_
_atom_site_type_symbol
_atom_site_label
_atom_site_fract_x
_atom_site_fract_y
_atom_site_fract_z
Si Si1 0.320169 0.929316 0.673324
Si Si2 0.545423 0.919255 0.750683
Si Si3 0.998529 0.318306 0.928994
Si Si4 0.689857 0.407331 0.178279
Si Si5 0.448459 0.448459 0.500000
Si Si6 0.303089 0.658341 0.071547
Si Si7 0.954209 0.954209 0.500000
O O1 0.468459 0.987860 0.697785
O O2 0.332467 0.758294 0.663211
O O3 0.201227 0.959202 0.718964
O O4 0.264711 0.010501 0.620807
O O5 0.432813 0.800479 0.771877
O O6 0.686083 0.845234 0.727383
O O7 0.565184 0.033648 0.798434
O O8 0.826898 0.339076 0.918634
O O9 0.019257 0.205817 0.978904
O O10 0.083783 0.258935 0.876249
O O11 0.549013 0.490302 0.198697
O O12 0.568684 0.439229 0.547079
#
# Coordination Sequence:
#
# PCOD9549555 Si02
#       7
#     8   8   8   8   4   8   4
#     4  12  24  44  73 104 136 186 239 298 363 430
#     4  12  25  47  70 104 150 182 238 300 356 434
#     4  12  28  48  75 110 146 192 243 296 365 430
#     4  12  24  44  73 104 136 186 239 298 363 430
#     4  12  25  47  70 104 150 182 238 300 356 434
#     4  12  28  48  75 110 146 192 243 296 365 430
#     4  12  25  47  70 104 150 182 238 300 356 434
#
# _framework density 22.652750999999999
#
# number of rings (size 3 to 8) (size 9 to 14) (size 15 to 20)
#    0.000    0.000    6.667    2.000    9.333    0.000 
#    0.000    0.000    0.000    0.000    0.000    0.000 
#    0.000    0.000    0.000    0.000    0.000    0.000 
#
# Total GULP energy -268485.146134 kJ/mol
# GULP energy per Si atom -5593.440544 kJ/mol
# Density = 2.260119 g / cm^3
# Si number density = 22.652751 Si / 1000 Ang^3
#
#
#
# Elastic Constant Matrix: (Units=GPa)
#
#
# Indices 1 2 3 4 5 6 
#
# 1 62.8134 -8.9969 20.2252 0.0000 0.0000 0.0000
# 2 -8.9969 62.8134 20.2252 0.0000 0.0000 0.0000
# 3 20.2252 20.2252 48.6628 0.0000 0.0000 0.0000
# 4 0.0000 0.0000 0.0000 37.1300 0.0000 0.0000
# 5 0.0000 0.0000 0.0000 0.0000 37.1300 0.0000
# 6 0.0000 0.0000 0.0000 0.0000 0.0000 16.2917
#
#
#
# Elastic Compliance Matrix: (Units=1/GPa)
#
#
# Indices 1 2 3 4 5 6 
#
# 1 0.020475 0.006549 -0.011232 0.000000 0.000000 0.000000
# 2 0.006549 0.020475 -0.011232 0.000000 0.000000 0.000000
# 3 -0.011232 -0.011232 0.029886 0.000000 0.000000 0.000000
# 4 0.000000 0.000000 0.000000 0.026932 0.000000 0.000000
# 5 0.000000 0.000000 0.000000 0.000000 0.026932 0.000000
# 6 0.000000 0.000000 0.000000 0.000000 0.000000 0.061381
#
#
# Mechanical properties :
#
#
# Convention : Reuss Voigt Hill
#
# Bulk Modulus (GPa) = 25.63658 26.35521 25.99590
# Shear Modulus (GPa) = 21.65335 27.63273 24.64304
#
# Velocity S-wave (km/s) = 3.09509 3.49641 3.30185
# Velocity P-wave (km/s) = 4.91065 5.28768 5.10265
#
# Compressibility (1/GPa) = 0.03900676
#
# Stress axis : x y z
#
# Youngs Moduli (GPa) = 48.84092 48.84092 33.46081
#
# Poissons Ratio (x) = -0.31986 0.37582
# Poissons Ratio (y) = -0.31986 0.37582
# Poissons Ratio (z) = 0.54856 0.54856
#
# Static dielectric constant tensor:
#      x y z
#    x 1.889700 0.000000 0.000000 
#    y 0.000000 1.889700 0.000000 
#    z 0.000000 0.000000 1.932080 
# 
# From -- ./inp_files/4555.got.cif
#   From: 2010.05.17/outbox.cif.g08.bks.cpg/sg92_3_cif.got.tgz:4555.got - 2010.06.03 19:35:17.
