data_PCOD9549966
_publ_section_title
;
Structure prediction by ZEFSAII (Michael W. Deem and Ramdas Pophale) SiO2 
 PCOD9549966
Probable space group: P 42 21 2
;
_chemical_formula_sum "Si O2"
_cell_formula_units_Z 40
_cell_length_a 13.780190
_cell_length_b 13.780190
_cell_length_c 9.360744
_cell_angle_alpha 90.000000
_cell_angle_beta 90.000000
_cell_angle_gamma 90.000000
_cell_volume 1777.545718
_symmetry_space_group_name_H-M "P 42 21 2"
_symmetry_group_IT_number 94
_symmetry_cell_setting 'tetragonal'
loop_
_space_group_symop_operation_xyz
x,y,z
1/2-y,1/2+x,1/2+z
-x,-y,z
1/2+y,1/2-x,1/2+z
1/2+x,1/2-y,1/2-z
1/2-x,1/2+y,1/2-z
y,x,-z
-y,-x,-z
loop_
_atom_site_type_symbol
_atom_site_label
_atom_site_fract_x
_atom_site_fract_y
_atom_site_fract_z
Si Si1 0.975453 0.227540 0.177217
Si Si2 0.508101 0.244081 0.648935
Si Si3 0.101032 0.088224 0.339725
Si Si4 0.338504 0.799859 0.845463
Si Si5 0.441262 0.896124 0.116697
O O1 0.013539 0.131687 0.251610
O O2 0.010247 0.319866 0.273544
O O3 0.860788 0.241346 0.155976
O O4 0.014863 0.230761 0.016518
O O5 0.508614 0.337062 0.753358
O O6 0.607129 0.190386 0.694709
O O7 0.425677 0.165109 0.674434
O O8 0.069832 0.069832 0.500000
O O9 0.184498 0.171984 0.353696
O O10 0.413130 0.843900 0.964998
O O11 0.500000 0.000000 0.098086
#
# Coordination Sequence:
#
# PCOD9549966 Si02
#       5
#     8   8   8   8   8
#     4  11  19  32  53  72 111 146 172 237 267 338
#     4   9  21  29  46  75 105 135 190 209 271 327
#     4  10  19  36  50  70 109 145 190 217 279 331
#     4   9  21  31  46  77 102 146 182 216 268 339
#     4  11  19  30  48  77 113 142 170 216 282 345
#
# _framework density 22.502935999999998
#
# number of rings (size 3 to 8) (size 9 to 14) (size 15 to 20)
#    1.200    0.800    4.000    0.600    5.600    1.600 
#    0.000    0.000    0.000    0.000    0.000    1.400 
#    0.000    1.600    0.000    0.000    0.000    0.000 
#
# Total GULP energy -222739.477480 kJ/mol
# GULP energy per Si atom -5568.486937 kJ/mol
# Density = 2.245172 g / cm^3
# Si number density = 22.502936 Si / 1000 Ang^3
#
#
#
# Elastic Constant Matrix: (Units=GPa)
#
#
# Indices 1 2 3 4 5 6 
#
# 1 74.6613 50.9910 25.0346 0.0000 0.0000 0.0000
# 2 50.9910 74.6613 25.0346 0.0000 0.0000 0.0000
# 3 25.0346 25.0346 81.1754 0.0000 0.0000 0.0000
# 4 0.0000 0.0000 0.0000 -3.3030 0.0000 0.0000
# 5 0.0000 0.0000 0.0000 0.0000 -3.3030 0.0000
# 6 0.0000 0.0000 0.0000 0.0000 0.0000 40.5728
#
#
#
# Elastic Compliance Matrix: (Units=1/GPa)
#
#
# Indices 1 2 3 4 5 6 
#
# 1 0.025660 -0.016587 -0.002798 0.000000 0.000000 0.000000
# 2 -0.016587 0.025660 -0.002798 0.000000 0.000000 0.000000
# 3 -0.002798 -0.002798 0.014045 0.000000 0.000000 0.000000
# 4 0.000000 0.000000 0.000000 -0.302756 0.000000 0.000000
# 5 0.000000 0.000000 0.000000 0.000000 -0.302756 0.000000
# 6 0.000000 0.000000 0.000000 0.000000 0.000000 0.024647
#
#
# Mechanical properties :
#
#
# Convention : Reuss Voigt Hill
#
# Bulk Modulus (GPa) = 47.62157 48.06870 47.84513
# Shear Modulus (GPa) = -10.77277 15.42255 2.32489
#
# Velocity S-wave (km/s) = -2.19036 2.62077 1.01754
# Velocity P-wave (km/s) = 3.84856 5.52860 4.76324
#
# Compressibility (1/GPa) = 0.02099889
#
# Stress axis : x y z
#
# Youngs Moduli (GPa) = 38.97073 38.97073 71.19977
#
# Poissons Ratio (x) = 0.64640 0.19924
# Poissons Ratio (y) = 0.64640 0.19924
# Poissons Ratio (z) = 0.10905 0.10905
#
# Static dielectric constant tensor:
#      x y z
#    x 1.899350 0.000000 0.000000 
#    y 0.000000 1.899350 0.000000 
#    z 0.000000 0.000000 1.831250 
# 
# From -- ./inp_files/1545.got.cif
#   From: 2010.05.17/outbox.cif.g08.bks.cpg/sg94_1_cif.got.tgz:1545.got - 2010.06.03 19:43:16.
