data_PCOD9549027
_publ_section_title
;
Structure prediction by ZEFSAII (Michael W. Deem and Ramdas Pophale) SiO2 
 PCOD9549027
Probable space group: P 41 21 2
;
_chemical_formula_sum "Si O2"
_cell_formula_units_Z 40
_cell_length_a 11.513079
_cell_length_b 11.513079
_cell_length_c 14.822788
_cell_angle_alpha 90.000000
_cell_angle_beta 90.000000
_cell_angle_gamma 90.000000
_cell_volume 1964.775195
_symmetry_space_group_name_H-M "P 41 21 2"
_symmetry_group_IT_number 92
_symmetry_cell_setting 'tetragonal'
loop_
_space_group_symop_operation_xyz
x,y,z
1/2-y,1/2+x,1/4+z
-x,-y,1/2+z
1/2+y,1/2-x,3/4+z
1/2+x,1/2-y,3/4-z
1/2-x,1/2+y,1/4-z
y,x,-z
-y,-x,1/2-z
loop_
_atom_site_type_symbol
_atom_site_label
_atom_site_fract_x
_atom_site_fract_y
_atom_site_fract_z
Si Si1 0.746004 0.506124 0.428036
Si Si2 0.110701 0.576016 0.561589
Si Si3 0.043026 0.638738 0.992765
Si Si4 0.545189 0.272404 0.608177
Si Si5 0.738048 0.261953 0.750000
Si Si6 0.488749 0.488749 0.500000
O O1 0.768868 0.532463 0.322658
O O2 0.829321 0.402268 0.461995
O O3 0.779516 0.625853 0.479208
O O4 0.613672 0.480906 0.452038
O O5 0.170099 0.529323 0.653194
O O6 0.197778 0.583281 0.478739
O O7 0.017544 0.477129 0.533846
O O8 0.042496 0.693286 0.583929
O O9 0.658670 0.298556 0.666489
O O10 0.482839 0.386780 0.572467
#
# Coordination Sequence:
#
# PCOD9549027 Si02
#       6
#     8   8   8   8   4   4
#     4  10  20  37  63  96 126 166 218 271 335 390
#     4   9  20  40  71  90 120 169 229 267 315 385
#     4   9  17  38  70  94 115 163 231 277 304 387
#     4  11  23  44  62  98 132 176 217 272 333 400
#     4  11  22  36  68  91 134 166 212 277 330 392
#     4  11  26  42  54  97 146 168 212 267 344 398
#
# _framework density 20.358561999999999
#
# number of rings (size 3 to 8) (size 9 to 14) (size 15 to 20)
#    0.000    2.000    2.000    1.200    0.000    3.200 
#   18.000    0.000    0.000    0.000    0.000    0.000 
#    0.000    0.000    0.000    0.000    0.000    0.000 
#
# Total GULP energy -223576.624711 kJ/mol
# GULP energy per Si atom -5589.415618 kJ/mol
# Density = 2.031222 g / cm^3
# Si number density = 20.358562 Si / 1000 Ang^3
#
#
#
# Elastic Constant Matrix: (Units=GPa)
#
#
# Indices 1 2 3 4 5 6 
#
# 1 363.7289 -300.7688 11.6968 0.0000 0.0000 0.0000
# 2 -300.7688 363.7188 11.6560 0.0000 0.0000 0.0000
# 3 11.6968 11.6560 81.5484 0.0000 0.0000 0.0000
# 4 0.0000 0.0000 0.0000 28.5826 0.0000 0.0000
# 5 0.0000 0.0000 0.0000 0.0000 28.5825 0.0000
# 6 0.0000 0.0000 0.0000 0.0000 0.0000 7.3541
#
#
#
# Elastic Compliance Matrix: (Units=1/GPa)
#
#
# Indices 1 2 3 4 5 6 
#
# 1 0.009140 0.007635 -0.002402 0.000000 0.000000 0.000000
# 2 0.007635 0.009140 -0.002402 0.000000 0.000000 0.000000
# 3 -0.002402 -0.002402 0.012951 0.000000 0.000000 0.000000
# 4 0.000000 0.000000 0.000000 0.034986 0.000000 0.000000
# 5 0.000000 0.000000 0.000000 0.000000 0.034986 0.000000
# 6 0.000000 0.000000 0.000000 0.000000 0.000000 0.135979
#
#
# Mechanical properties :
#
#
# Convention : Reuss Voigt Hill
#
# Bulk Modulus (GPa) = 27.10515 28.24046 27.67280
# Shear Modulus (GPa) = 20.50712 85.33131 52.91921
#
# Velocity S-wave (km/s) = 3.17724 6.48114 5.10392
# Velocity P-wave (km/s) = 5.17712 8.36114 6.95382
#
# Compressibility (1/GPa) = 0.03689336
#
# Stress axis : x y z
#
# Youngs Moduli (GPa) = 109.40738 109.40784 77.21705
#
# Poissons Ratio (x) = -0.83535 0.18550
# Poissons Ratio (y) = -0.83535 0.18544
# Poissons Ratio (z) = 0.26283 0.26275
#
# Static dielectric constant tensor:
#      x y z
#    x 1.713640 0.000000 0.000000 
#    y 0.000000 1.713650 0.000000 
#    z 0.000000 0.000000 1.721640 
# 
# From -- ./inp_files/2656.got.cif
#   From: 2010.05.17/outbox.cif.g08.bks.cpg/sg92_2_cif.got.tgz:2656.got - 2010.06.03 19:35:17.
