data_PCOD9549083
_publ_section_title
;
Structure prediction by ZEFSAII (Michael W. Deem and Ramdas Pophale) SiO2 
 PCOD9549083
Probable space group: P 41 21 2
;
_chemical_formula_sum "Si O2"
_cell_formula_units_Z 40
_cell_length_a 8.450631
_cell_length_b 8.450631
_cell_length_c 26.593491
_cell_angle_alpha 90.000000
_cell_angle_beta 90.000000
_cell_angle_gamma 90.000000
_cell_volume 1899.125342
_symmetry_space_group_name_H-M "P 41 21 2"
_symmetry_group_IT_number 92
_symmetry_cell_setting 'tetragonal'
loop_
_space_group_symop_operation_xyz
x,y,z
1/2-y,1/2+x,1/4+z
-x,-y,1/2+z
1/2+y,1/2-x,3/4+z
1/2+x,1/2-y,3/4-z
1/2-x,1/2+y,1/4-z
y,x,-z
-y,-x,1/2-z
loop_
_atom_site_type_symbol
_atom_site_label
_atom_site_fract_x
_atom_site_fract_y
_atom_site_fract_z
Si Si1 0.181937 0.432425 0.420127
Si Si2 0.351053 0.892286 0.524163
Si Si3 0.929399 0.178118 0.663140
Si Si4 0.965687 0.209966 0.375232
Si Si5 0.137219 0.260300 0.831339
O O1 0.329945 0.312532 0.415880
O O2 0.256696 0.602521 0.415368
O O3 0.069495 0.418578 0.468344
O O4 0.065396 0.371930 0.375589
O O5 0.478910 0.759447 0.540778
O O6 0.217490 0.890885 0.568353
O O7 0.307615 0.855837 0.467625
O O8 0.856702 0.320510 0.631026
O O9 0.798147 0.044014 0.673610
O O10 0.064346 0.084599 0.631790
#
# Coordination Sequence:
#
# PCOD9549083 Si02
#       5
#     8   8   8   8   8
#     4   9  19  39  63  94 123 173 205 275 319 378
#     4  10  20  42  62  94 124 166 223 260 319 403
#     4  11  22  42  63  91 133 171 215 272 331 386
#     4   9  18  39  66  89 128 166 209 266 319 383
#     4  11  24  40  66  93 132 173 215 273 338 384
#
# _framework density 21.062328000000001
#
# number of rings (size 3 to 8) (size 9 to 14) (size 15 to 20)
#    1.200    0.800    2.000    1.800    0.000    0.800 
#   14.400    4.000    0.000    0.000    0.000    0.000 
#    0.000    0.000    0.000    0.000    0.000    0.000 
#
# Total GULP energy -222720.435183 kJ/mol
# GULP energy per Si atom -5568.010880 kJ/mol
# Density = 2.101439 g / cm^3
# Si number density = 21.062328 Si / 1000 Ang^3
#
#
#
# Elastic Constant Matrix: (Units=GPa)
#
#
# Indices 1 2 3 4 5 6 
#
# 1 51.4333 21.5415 0.5077 0.0000 0.0000 0.0000
# 2 21.5415 51.4333 0.5077 0.0000 0.0000 0.0000
# 3 0.5077 0.5077 45.9807 0.0000 0.0000 0.0000
# 4 0.0000 0.0000 0.0000 16.6718 0.0000 0.0000
# 5 0.0000 0.0000 0.0000 0.0000 16.6718 0.0000
# 6 0.0000 0.0000 0.0000 0.0000 0.0000 43.5822
#
#
#
# Elastic Compliance Matrix: (Units=1/GPa)
#
#
# Indices 1 2 3 4 5 6 
#
# 1 0.023580 -0.009874 -0.000151 0.000000 0.000000 0.000000
# 2 -0.009874 0.023580 -0.000151 0.000000 0.000000 0.000000
# 3 -0.000151 -0.000151 0.021752 0.000000 0.000000 0.000000
# 4 0.000000 0.000000 0.000000 0.059982 0.000000 0.000000
# 5 0.000000 0.000000 0.000000 0.000000 0.059982 0.000000
# 6 0.000000 0.000000 0.000000 0.000000 0.000000 0.022945
#
#
# Mechanical properties :
#
#
# Convention : Reuss Voigt Hill
#
# Bulk Modulus (GPa) = 20.59428 21.55125 21.07276
# Shear Modulus (GPa) = 20.13214 23.80451 21.96833
#
# Velocity S-wave (km/s) = 3.09501 3.36548 3.23308
# Velocity P-wave (km/s) = 4.75091 5.03550 4.89528
#
# Compressibility (1/GPa) = 0.04855717
#
# Stress axis : x y z
#
# Youngs Moduli (GPa) = 42.40930 42.40930 45.97364
#
# Poissons Ratio (x) = 0.41876 0.00696
# Poissons Ratio (y) = 0.41876 0.00696
# Poissons Ratio (z) = 0.00642 0.00642
#
# Static dielectric constant tensor:
#      x y z
#    x 1.796760 0.000000 0.000000 
#    y 0.000000 1.796760 0.000000 
#    z 0.000000 0.000000 1.734730 
# 
# From -- ./inp_files/4155.got.cif
#   From: 2010.05.17/outbox.cif.g08.bks.cpg/sg92_3_cif.got.tgz:4155.got - 2010.06.03 19:35:17.
