data_PCOD9549668
_publ_section_title
;
Structure prediction by ZEFSAII (Michael W. Deem and Ramdas Pophale) SiO2 
 PCOD9549668
Probable space group: P 42 2 2
;
_chemical_formula_sum "Si O2"
_cell_formula_units_Z 64
_cell_length_a 12.135233
_cell_length_b 12.135233
_cell_length_c 20.031292
_cell_angle_alpha 90.000000
_cell_angle_beta 90.000000
_cell_angle_gamma 90.000000
_cell_volume 2949.885781
_symmetry_space_group_name_H-M "P 42 2 2"
_symmetry_group_IT_number 93
_symmetry_cell_setting 'tetragonal'
loop_
_space_group_symop_operation_xyz
x,y,z
-y,x,1/2+z
-x,-y,z
y,-x,1/2+z
x,-y,-z
-x,y,-z
y,x,1/2-z
-y,-x,1/2-z
loop_
_atom_site_type_symbol
_atom_site_label
_atom_site_fract_x
_atom_site_fract_y
_atom_site_fract_z
Si Si1 0.618149 0.772586 0.521288
Si Si2 0.394729 0.572469 0.830359
Si Si3 0.760049 0.417300 0.228141
Si Si4 0.552567 0.810674 0.140203
Si Si5 0.056913 0.384292 0.861040
Si Si6 0.654883 0.162134 0.049916
Si Si7 0.917716 0.778636 0.062817
Si Si8 0.058645 0.266365 0.409901
O O1 0.500000 0.723983 0.500000
O O2 0.594907 0.873652 0.571248
O O3 0.710693 0.692372 0.552867
O O4 0.687996 0.828766 0.462003
O O5 0.500000 0.500000 0.850734
O O6 0.405937 0.594064 0.750000
O O7 0.285460 0.499185 0.829855
O O8 0.398046 0.687346 0.868764
O O9 0.658979 0.341022 0.250000
O O10 0.801746 0.483748 0.291804
O O11 0.858439 0.351077 0.196113
O O12 0.465123 0.842531 0.082913
O O13 0.653395 0.894594 0.146678
O O14 0.000000 0.500000 0.843102
O O15 0.979075 0.282979 0.877960
O O16 0.730300 0.073130 0.089042
O O17 0.672188 0.112823 0.975556
O O18 0.853083 0.887342 0.085359
O O19 0.000000 0.800043 0.000000
#
# Coordination Sequence:
#
# PCOD9549668 Si02
#       8
#     8   8   8   8   8   8   8   8
#     4  10  19  36  62  90 127 158 196 265 331 385
#     4   9  17  35  56  85 120 158 202 250 313 384
#     4  11  22  39  59  89 128 167 212 261 328 402
#     4  11  21  36  63  88 126 169 213 262 322 390
#     4  11  22  35  60  92 124 159 209 263 328 387
#     4  10  22  40  61  94 122 172 210 262 325 399
#     4   9  20  39  62  91 124 160 214 276 334 380
#     4  10  22  41  65  88 125 170 224 265 320 394
#
# _framework density 21.695753
#
# number of rings (size 3 to 8) (size 9 to 14) (size 15 to 20)
#    0.000    1.875    3.750    1.500    1.750    2.000 
#    0.000   10.625    0.000    0.000    0.000    0.875 
#    0.000    0.000    0.000    0.000    0.000    0.000 
#
# Total GULP energy -357251.274165 kJ/mol
# GULP energy per Si atom -5582.051159 kJ/mol
# Density = 2.164637 g / cm^3
# Si number density = 21.695753 Si / 1000 Ang^3
#
#
#
# Elastic Constant Matrix: (Units=GPa)
#
#
# Indices 1 2 3 4 5 6 
#
# 1 108.9932 43.6066 13.9239 0.0000 0.0000 0.0000
# 2 43.6066 108.9922 13.9236 0.0000 0.0000 0.0000
# 3 13.9239 13.9236 30.6682 0.0000 0.0000 0.0000
# 4 0.0000 0.0000 0.0000 22.4430 0.0000 0.0000
# 5 0.0000 0.0000 0.0000 0.0000 22.4431 0.0000
# 6 0.0000 0.0000 0.0000 0.0000 0.0000 18.5941
#
#
#
# Elastic Compliance Matrix: (Units=1/GPa)
#
#
# Indices 1 2 3 4 5 6 
#
# 1 0.011219 -0.004074 -0.003244 0.000000 0.000000 0.000000
# 2 -0.004074 0.011219 -0.003244 0.000000 0.000000 0.000000
# 3 -0.003244 -0.003244 0.035553 0.000000 0.000000 0.000000
# 4 0.000000 0.000000 0.000000 0.044557 0.000000 0.000000
# 5 0.000000 0.000000 0.000000 0.000000 0.044557 0.000000
# 6 0.000000 0.000000 0.000000 0.000000 0.000000 0.053780
#
#
# Mechanical properties :
#
#
# Convention : Reuss Voigt Hill
#
# Bulk Modulus (GPa) = 27.12452 43.50687 35.31570
# Shear Modulus (GPa) = 21.34015 24.50933 22.92474
#
# Velocity S-wave (km/s) = 3.13966 3.36472 3.25414
# Velocity P-wave (km/s) = 5.06682 5.93227 5.51654
#
# Compressibility (1/GPa) = 0.03686701
#
# Stress axis : x y z
#
# Youngs Moduli (GPa) = 89.13134 89.13071 28.12725
#
# Poissons Ratio (x) = 0.36315 0.09125
# Poissons Ratio (y) = 0.36315 0.09124
# Poissons Ratio (z) = 0.28915 0.28913
#
# Static dielectric constant tensor:
#      x y z
#    x 1.830260 0.000000 0.000000 
#    y 0.000000 1.830260 0.000000 
#    z 0.000000 0.000000 1.846370 
# 
# From -- ./inp_files/6977.got.cif
#   From: 2010.05.17/outbox.cif.g08.bks.cpg/sg93_4_cif.got.tgz:6977.got - 2010.06.03 19:38:44.
