data_PCOD9549525
_publ_section_title
;
Structure prediction by ZEFSAII (Michael W. Deem and Ramdas Pophale) SiO2 
 PCOD9549525
Probable space group: P 41 21 2
;
_chemical_formula_sum "Si O2"
_cell_formula_units_Z 24
_cell_length_a 8.758931
_cell_length_b 8.758931
_cell_length_c 11.268755
_cell_angle_alpha 90.000000
_cell_angle_beta 90.000000
_cell_angle_gamma 90.000000
_cell_volume 864.526175
_symmetry_space_group_name_H-M "P 41 21 2"
_symmetry_group_IT_number 92
_symmetry_cell_setting 'tetragonal'
loop_
_space_group_symop_operation_xyz
x,y,z
1/2-y,1/2+x,1/4+z
-x,-y,1/2+z
1/2+y,1/2-x,3/4+z
1/2+x,1/2-y,3/4-z
1/2-x,1/2+y,1/4-z
y,x,-z
-y,-x,1/2-z
loop_
_atom_site_type_symbol
_atom_site_label
_atom_site_fract_x
_atom_site_fract_y
_atom_site_fract_z
Si Si1 0.127849 0.143902 0.830564
Si Si2 0.937218 0.410235 0.192610
Si Si3 0.191040 0.948295 0.408235
O O1 0.218085 0.293119 0.870073
O O2 0.980860 0.111812 0.909054
O O3 0.063635 0.192527 0.701732
O O4 0.236443 0.995969 0.817725
O O5 0.767423 0.467109 0.229320
O O6 0.024668 0.468571 0.311352
#
# Coordination Sequence:
#
# PCOD9549525 Si02
#       3
#     8   8   8
#     4  11  27  50  90 132 187 250 318 388 475 565
#     4  12  28  58  90 139 188 245 324 388 478 570
#     4  11  25  53  84 131 185 249 308 390 463 562
#
# _framework density 27.760870000000001
#
# number of rings (size 3 to 8) (size 9 to 14) (size 15 to 20)
#    0.000    0.667    3.333    2.000    4.667    6.667 
#    6.000    0.000    0.000    0.000    0.000    0.000 
#    0.000    0.000    0.000    0.000    0.000    0.000 
#
# Total GULP energy -134517.759502 kJ/mol
# GULP energy per Si atom -5604.906646 kJ/mol
# Density = 2.769768 g / cm^3
# Si number density = 27.760870 Si / 1000 Ang^3
#
#
#
# Elastic Constant Matrix: (Units=GPa)
#
#
# Indices 1 2 3 4 5 6 
#
# 1 158.9034 154.3654 67.9388 0.0000 0.0000 0.0000
# 2 154.3654 158.9034 67.9388 0.0000 0.0000 0.0000
# 3 67.9388 67.9388 168.8627 0.0000 0.0000 0.0000
# 4 0.0000 0.0000 0.0000 49.6206 0.0000 0.0000
# 5 0.0000 0.0000 0.0000 0.0000 49.6206 0.0000
# 6 0.0000 0.0000 0.0000 0.0000 0.0000 94.0710
#
#
#
# Elastic Compliance Matrix: (Units=1/GPa)
#
#
# Indices 1 2 3 4 5 6 
#
# 1 0.112113 -0.108246 -0.001556 0.000000 0.000000 0.000000
# 2 -0.108246 0.112113 -0.001556 0.000000 0.000000 0.000000
# 3 -0.001556 -0.001556 0.007174 0.000000 0.000000 0.000000
# 4 0.000000 0.000000 0.000000 0.020153 0.000000 0.000000
# 5 0.000000 0.000000 0.000000 0.000000 0.020153 0.000000
# 6 0.000000 0.000000 0.000000 0.000000 0.000000 0.010630
#
#
# Mechanical properties :
#
#
# Convention : Reuss Voigt Hill
#
# Bulk Modulus (GPa) = 115.14651 118.57282 116.85967
# Shear Modulus (GPa) = 9.84354 51.75756 30.80055
#
# Velocity S-wave (km/s) = 1.88508 4.32256 3.33452
# Velocity P-wave (km/s) = 6.80486 8.22907 7.55062
#
# Compressibility (1/GPa) = 0.00868459
#
# Stress axis : x y z
#
# Youngs Moduli (GPa) = 8.91955 8.91955 139.39484
#
# Poissons Ratio (x) = 0.96551 0.21687
# Poissons Ratio (y) = 0.96551 0.21687
# Poissons Ratio (z) = 0.01388 0.01388
#
# Static dielectric constant tensor:
#      x y z
#    x 2.237280 0.000000 0.000000 
#    y 0.000000 2.237280 0.000000 
#    z 0.000000 0.000000 2.152930 
# 
# From -- ./inp_files/2452.got.cif
#   From: 2010.05.17/outbox.cif.g08.bks.cpg/sg92_2_cif.got.tgz:2452.got - 2010.06.03 19:35:17.
