data_PCOD9549512
_publ_section_title
;
Structure prediction by ZEFSAII (Michael W. Deem and Ramdas Pophale) SiO2 
 PCOD9549512
Probable space group: P 41 21 2
;
_chemical_formula_sum "Si O2"
_cell_formula_units_Z 28
_cell_length_a 11.605766
_cell_length_b 11.605766
_cell_length_c 9.584221
_cell_angle_alpha 90.000000
_cell_angle_beta 90.000000
_cell_angle_gamma 90.000000
_cell_volume 1290.935189
_symmetry_space_group_name_H-M "P 41 21 2"
_symmetry_group_IT_number 92
_symmetry_cell_setting 'tetragonal'
loop_
_space_group_symop_operation_xyz
x,y,z
1/2-y,1/2+x,1/4+z
-x,-y,1/2+z
1/2+y,1/2-x,3/4+z
1/2+x,1/2-y,3/4-z
1/2-x,1/2+y,1/4-z
y,x,-z
-y,-x,1/2-z
loop_
_atom_site_type_symbol
_atom_site_label
_atom_site_fract_x
_atom_site_fract_y
_atom_site_fract_z
Si Si1 0.519179 0.702488 0.041427
Si Si2 0.560865 0.899525 0.565990
Si Si3 0.298140 0.112983 0.536285
Si Si4 0.806611 0.806611 0.500000
O O1 0.610784 0.795316 0.099537
O O2 0.409711 0.680866 0.138434
O O3 0.587726 0.587726 0.000000
O O4 0.477735 0.763638 0.901555
O O5 0.514727 0.918825 0.408773
O O6 0.457553 0.839360 0.651383
O O7 0.678842 0.826528 0.562397
O O8 0.187434 0.187434 0.500000
#
# Coordination Sequence:
#
# PCOD9549512 Si02
#       4
#     8   8   8   4
#     4  11  27  47  75 107 151 197 250 310 378 444
#     4  12  26  49  80 111 154 202 251 310 375 459
#     4  11  24  48  77 108 147 200 247 309 379 447
#     4  12  30  46  76 118 148 202 254 316 368 460
#
# _framework density 21.689700999999999
#
# number of rings (size 3 to 8) (size 9 to 14) (size 15 to 20)
#    0.000    0.571    2.857    3.429   10.000    0.000 
#    5.143    0.000    0.000    0.000    0.000    0.000 
#    0.000    0.000    0.000    0.000    0.000    0.000 
#
# Total GULP energy -156661.758368 kJ/mol
# GULP energy per Si atom -5595.062799 kJ/mol
# Density = 2.164033 g / cm^3
# Si number density = 21.689701 Si / 1000 Ang^3
#
#
#
# Elastic Constant Matrix: (Units=GPa)
#
#
# Indices 1 2 3 4 5 6 
#
# 1 144.0845 40.5965 32.0559 0.0000 0.0000 0.0000
# 2 40.5965 144.0845 32.0559 0.0000 0.0000 0.0000
# 3 32.0559 32.0559 79.9612 0.0000 0.0000 0.0000
# 4 0.0000 0.0000 0.0000 28.1312 0.0000 0.0000
# 5 0.0000 0.0000 0.0000 0.0000 28.1312 0.0000
# 6 0.0000 0.0000 0.0000 0.0000 0.0000 54.1505
#
#
#
# Elastic Compliance Matrix: (Units=1/GPa)
#
#
# Indices 1 2 3 4 5 6 
#
# 1 0.007977 -0.001686 -0.002522 0.000000 0.000000 0.000000
# 2 -0.001686 0.007977 -0.002522 0.000000 0.000000 0.000000
# 3 -0.002522 -0.002522 0.014528 0.000000 0.000000 0.000000
# 4 0.000000 0.000000 0.000000 0.035548 0.000000 0.000000
# 5 0.000000 0.000000 0.000000 0.000000 0.035548 0.000000
# 6 0.000000 0.000000 0.000000 0.000000 0.000000 0.018467
#
#
# Mechanical properties :
#
#
# Convention : Reuss Voigt Hill
#
# Bulk Modulus (GPa) = 58.74923 64.17185 61.46054
# Shear Modulus (GPa) = 35.92554 39.64405 37.78480
#
# Velocity S-wave (km/s) = 4.07423 4.27990 4.17833
# Velocity P-wave (km/s) = 7.01980 7.35349 7.18858
#
# Compressibility (1/GPa) = 0.01702150
#
# Stress axis : x y z
#
# Youngs Moduli (GPa) = 125.36756 125.36756 68.83301
#
# Poissons Ratio (x) = 0.21142 0.17357
# Poissons Ratio (y) = 0.21142 0.17357
# Poissons Ratio (z) = 0.31614 0.31614
#
# Static dielectric constant tensor:
#      x y z
#    x 1.804250 0.000000 0.000000 
#    y 0.000000 1.804250 0.000000 
#    z 0.000000 0.000000 1.785020 
# 
# From -- ./inp_files/1866.got.cif
#   From: 2010.05.17/outbox.cif.g08.bks.cpg/sg92_1_cif.got.tgz:1866.got - 2010.06.03 19:35:17.
