data_PCOD9549825
_publ_section_title
;
Structure prediction by ZEFSAII (Michael W. Deem and Ramdas Pophale) SiO2 
 PCOD9549825
Probable space group: P 42 2 2
;
_chemical_formula_sum "Si O2"
_cell_formula_units_Z 40
_cell_length_a 15.031085
_cell_length_b 15.031085
_cell_length_c 8.078604
_cell_angle_alpha 90.000000
_cell_angle_beta 90.000000
_cell_angle_gamma 90.000000
_cell_volume 1825.227408
_symmetry_space_group_name_H-M "P 42 2 2"
_symmetry_group_IT_number 93
_symmetry_cell_setting 'tetragonal'
loop_
_space_group_symop_operation_xyz
x,y,z
-y,x,1/2+z
-x,-y,z
y,-x,1/2+z
x,-y,-z
-x,y,-z
y,x,1/2-z
-y,-x,1/2-z
loop_
_atom_site_type_symbol
_atom_site_label
_atom_site_fract_x
_atom_site_fract_y
_atom_site_fract_z
Si Si1 0.917096 0.675997 0.121849
Si Si2 0.610143 0.389858 0.750000
Si Si3 0.022966 0.818410 0.320027
Si Si4 0.241651 0.220262 0.921510
Si Si5 0.000000 0.000000 0.250000
Si Si6 0.500000 0.500000 0.000000
Si Si7 0.579982 0.802990 0.134343
O O1 0.879391 0.593119 0.227151
O O2 0.958268 0.741377 0.260918
O O3 0.838002 0.728631 0.020636
O O4 0.000000 0.656630 0.000000
O O5 0.564606 0.435999 0.903136
O O6 0.712140 0.418131 0.738484
O O7 0.121757 0.783439 0.352929
O O8 0.000000 0.857617 0.500000
O O9 0.005229 0.897362 0.190012
O O10 0.268704 0.268704 0.750000
O O11 0.327082 0.206729 0.035025
O O12 0.500000 0.812197 0.000000
#
# Coordination Sequence:
#
# PCOD9549825 Si02
#       7
#     8   4   8   8   2   2   8
#     4  12  24  46  76 107 151 207 263 315 389 464
#     4  11  22  45  76 117 152 187 236 318 398 467
#     4  12  23  38  65 104 149 197 250 317 369 456
#     4  12  24  45  74 108 150 200 253 317 387 454
#     4  12  22  34  60 112 146 192 254 300 406 432
#     4  10  24  42  80 122 154 176 244 322 388 482
#     4  12  27  49  77 111 151 209 256 320 398 475
#
# _framework density 21.915077
#
# number of rings (size 3 to 8) (size 9 to 14) (size 15 to 20)
#    0.000    0.200    8.000    1.500    0.000    1.600 
#    0.000    2.000    4.400    0.000    0.000    0.000 
#    0.000    0.000    0.000    0.000    0.000    0.000 
#
# Total GULP energy -222824.536193 kJ/mol
# GULP energy per Si atom -5570.613405 kJ/mol
# Density = 2.186520 g / cm^3
# Si number density = 21.915077 Si / 1000 Ang^3
#
#
#
# Elastic Constant Matrix: (Units=GPa)
#
#
# Indices 1 2 3 4 5 6 
#
# 1 114.5439 54.1816 53.7491 0.0000 0.0000 0.0000
# 2 54.1816 114.5426 53.7487 0.0000 0.0000 0.0000
# 3 53.7491 53.7487 138.9871 0.0000 0.0000 0.0000
# 4 0.0000 0.0000 0.0000 45.5463 0.0000 0.0000
# 5 0.0000 0.0000 0.0000 0.0000 45.5530 0.0000
# 6 0.0000 0.0000 0.0000 0.0000 0.0000 29.4006
#
#
#
# Elastic Compliance Matrix: (Units=1/GPa)
#
#
# Indices 1 2 3 4 5 6 
#
# 1 0.012216 -0.004351 -0.003041 0.000000 0.000000 0.000000
# 2 -0.004351 0.012216 -0.003041 0.000000 0.000000 0.000000
# 3 -0.003041 -0.003041 0.009547 0.000000 0.000000 0.000000
# 4 0.000000 0.000000 0.000000 0.021956 0.000000 0.000000
# 5 0.000000 0.000000 0.000000 0.000000 0.021952 0.000000
# 6 0.000000 0.000000 0.000000 0.000000 0.000000 0.034013
#
#
# Mechanical properties :
#
#
# Convention : Reuss Voigt Hill
#
# Bulk Modulus (GPa) = 76.27288 76.82582 76.54935
# Shear Modulus (GPa) = 36.45974 37.85959 37.15966
#
# Velocity S-wave (km/s) = 4.08325 4.16090 4.12226
# Velocity P-wave (km/s) = 7.55712 7.62997 7.59363
#
# Compressibility (1/GPa) = 0.01311082
#
# Stress axis : x y z
#
# Youngs Moduli (GPa) = 81.86257 81.86167 104.74270
#
# Poissons Ratio (x) = 0.35619 0.31856
# Poissons Ratio (y) = 0.35620 0.31856
# Poissons Ratio (z) = 0.24897 0.24897
#
# Static dielectric constant tensor:
#      x y z
#    x 1.465180 0.000000 0.000000 
#    y 0.000000 1.464980 0.000000 
#    z 0.000000 0.000000 2.168950 
# 
# From -- ./inp_files/1933.got.cif
#   From: 2010.05.17/outbox.cif.g08.bks.cpg/sg93_1_cif.got.tgz:1933.got - 2010.06.03 19:38:44.
