data_PCOD9549731
_publ_section_title
;
Structure prediction by ZEFSAII (Michael W. Deem and Ramdas Pophale) SiO2 
 PCOD9549731
Probable space group: P 42 2 2
;
_chemical_formula_sum "Si O2"
_cell_formula_units_Z 32
_cell_length_a 7.093821
_cell_length_b 7.093821
_cell_length_c 26.670338
_cell_angle_alpha 90.000000
_cell_angle_beta 90.000000
_cell_angle_gamma 90.000000
_cell_volume 1342.112653
_symmetry_space_group_name_H-M "P 42 2 2"
_symmetry_group_IT_number 93
_symmetry_cell_setting 'tetragonal'
loop_
_space_group_symop_operation_xyz
x,y,z
-y,x,1/2+z
-x,-y,z
y,-x,1/2+z
x,-y,-z
-x,y,-z
y,x,1/2-z
-y,-x,1/2-z
loop_
_atom_site_type_symbol
_atom_site_label
_atom_site_fract_x
_atom_site_fract_y
_atom_site_fract_z
Si Si1 0.958612 0.274478 0.056386
Si Si2 0.744955 0.160435 0.305067
Si Si3 0.793882 0.836575 0.150417
Si Si4 0.406600 0.679927 0.110681
O O1 0.742525 0.232390 0.072226
O O2 0.000000 0.500000 0.059178
O O3 0.095141 0.186888 0.098025
O O4 0.000000 0.215328 0.000000
O O5 0.754621 0.245380 0.250000
O O6 0.612457 0.271825 0.343443
O O7 0.952165 0.202260 0.328291
O O8 0.727178 0.933826 0.310104
O O9 0.579731 0.785839 0.137010
O O10 0.500000 0.500000 0.084745
#
# Coordination Sequence:
#
# PCOD9549731 Si02
#       4
#     8   8   8   8
#     4  10  21  39  64  95 127 173 217 272 346 407
#     4  10  23  44  64  90 132 182 217 270 345 401
#     4  10  20  41  64  90 131 171 214 278 335 396
#     4  11  22  40  63  97 131 168 220 281 331 397
#
# _framework density 23.843005999999999
#
# number of rings (size 3 to 8) (size 9 to 14) (size 15 to 20)
#    0.000    1.750    2.500    2.250    0.000    1.500 
#   13.500   10.000    0.000    9.000    0.000    0.000 
#    0.000    0.000    0.000    0.000    0.000    0.000 
#
# Total GULP energy -178658.993340 kJ/mol
# GULP energy per Si atom -5583.093542 kJ/mol
# Density = 2.378874 g / cm^3
# Si number density = 23.843006 Si / 1000 Ang^3
#
#
#
# Elastic Constant Matrix: (Units=GPa)
#
#
# Indices 1 2 3 4 5 6 
#
# 1 103.2830 15.0212 -3.0296 0.0000 0.0000 0.0000
# 2 15.0212 103.2831 -3.0296 0.0000 0.0000 0.0000
# 3 -3.0296 -3.0296 144.1968 0.0000 0.0000 0.0000
# 4 0.0000 0.0000 0.0000 27.3757 0.0000 0.0000
# 5 0.0000 0.0000 0.0000 0.0000 27.3758 0.0000
# 6 0.0000 0.0000 0.0000 0.0000 0.0000 42.0069
#
#
#
# Elastic Compliance Matrix: (Units=1/GPa)
#
#
# Indices 1 2 3 4 5 6 
#
# 1 0.009896 -0.001434 0.000178 0.000000 0.000000 0.000000
# 2 -0.001434 0.009896 0.000178 0.000000 0.000000 0.000000
# 3 0.000178 0.000178 0.006942 0.000000 0.000000 0.000000
# 4 0.000000 0.000000 0.000000 0.036529 0.000000 0.000000
# 5 0.000000 0.000000 0.000000 0.000000 0.036529 0.000000
# 6 0.000000 0.000000 0.000000 0.000000 0.000000 0.023806
#
#
# Mechanical properties :
#
#
# Convention : Reuss Voigt Hill
#
# Bulk Modulus (GPa) = 40.68785 40.96520 40.82652
# Shear Modulus (GPa) = 37.32831 42.13840 39.73336
#
# Velocity S-wave (km/s) = 3.96104 4.20852 4.08666
# Velocity P-wave (km/s) = 6.16618 6.39015 6.27916
#
# Compressibility (1/GPa) = 0.02457736
#
# Stress axis : x y z
#
# Youngs Moduli (GPa) = 101.05183 101.05191 144.04163
#
# Poissons Ratio (x) = 0.14491 -0.02561
# Poissons Ratio (y) = 0.14491 -0.02561
# Poissons Ratio (z) = -0.01797 -0.01797
#
# Static dielectric constant tensor:
#      x y z
#    x 2.008280 0.000000 0.000000 
#    y 0.000000 2.008280 0.000000 
#    z 0.000000 0.000000 1.855200 
# 
# From -- ./inp_files/7135.got.cif
#   From: 2010.05.17/outbox.cif.g08.bks.cpg/sg93_4_cif.got.tgz:7135.got - 2010.06.03 19:38:44.
