data_PCOD9549580
_publ_section_title
;
Structure prediction by ZEFSAII (Michael W. Deem and Ramdas Pophale) SiO2 
 PCOD9549580
Probable space group: P 41 21 2
;
_chemical_formula_sum "Si O2"
_cell_formula_units_Z 20
_cell_length_a 4.926874
_cell_length_b 4.926874
_cell_length_c 31.321563
_cell_angle_alpha 90.000000
_cell_angle_beta 90.000000
_cell_angle_gamma 90.000000
_cell_volume 760.302358
_symmetry_space_group_name_H-M "P 41 21 2"
_symmetry_group_IT_number 92
_symmetry_cell_setting 'tetragonal'
loop_
_space_group_symop_operation_xyz
x,y,z
1/2-y,1/2+x,1/4+z
-x,-y,1/2+z
1/2+y,1/2-x,3/4+z
1/2+x,1/2-y,3/4-z
1/2-x,1/2+y,1/4-z
y,x,-z
-y,-x,1/2-z
loop_
_atom_site_type_symbol
_atom_site_label
_atom_site_fract_x
_atom_site_fract_y
_atom_site_fract_z
Si Si1 0.150305 0.849696 0.250000
Si Si2 0.547296 0.664542 0.631367
Si Si3 0.149766 0.793285 0.555609
O O1 0.203885 0.641302 0.288467
O O2 0.854010 0.778234 0.232486
O O3 0.305622 0.672128 0.596782
O O4 0.409183 0.599232 0.677253
O O5 0.743364 0.920590 0.628121
#
# Coordination Sequence:
#
# PCOD9549580 Si02
#       3
#     4   8   8
#     4  12  32  48  82 116 174 206 260 350 410 478
#     4  12  28  54  86 120 156 222 276 338 392 504
#     4  12  30  54  79 123 162 214 274 329 417 472
#
# _framework density 26.305329
#
# number of rings (size 3 to 8) (size 9 to 14) (size 15 to 20)
#    0.000    0.000    4.000    2.400    5.600    8.000 
#    0.000    0.000    0.000    0.000    0.000    0.000 
#    0.000    0.000    0.000    0.000    0.000    0.000 
#
# Total GULP energy -112020.490130 kJ/mol
# GULP energy per Si atom -5601.024507 kJ/mol
# Density = 2.624546 g / cm^3
# Si number density = 26.305329 Si / 1000 Ang^3
#
#
#
# Elastic Constant Matrix: (Units=GPa)
#
#
# Indices 1 2 3 4 5 6 
#
# 1 136.7944 37.7483 9.8557 0.0000 0.0000 0.0000
# 2 37.7483 136.7956 9.8556 0.0000 0.0000 0.0000
# 3 9.8557 9.8556 88.8984 0.0000 0.0000 0.0000
# 4 0.0000 0.0000 0.0000 72.8609 0.0000 0.0000
# 5 0.0000 0.0000 0.0000 0.0000 72.8610 0.0000
# 6 0.0000 0.0000 0.0000 0.0000 0.0000 48.0233
#
#
#
# Elastic Compliance Matrix: (Units=1/GPa)
#
#
# Indices 1 2 3 4 5 6 
#
# 1 0.007949 -0.002147 -0.000643 0.000000 0.000000 0.000000
# 2 -0.002147 0.007949 -0.000643 0.000000 0.000000 0.000000
# 3 -0.000643 -0.000643 0.011391 0.000000 0.000000 0.000000
# 4 0.000000 0.000000 0.000000 0.013725 0.000000 0.000000
# 5 0.000000 0.000000 0.000000 0.000000 0.013725 0.000000
# 6 0.000000 0.000000 0.000000 0.000000 0.000000 0.020823
#
#
# Mechanical properties :
#
#
# Convention : Reuss Voigt Hill
#
# Bulk Modulus (GPa) = 48.96612 53.04529 51.00571
# Shear Modulus (GPa) = 56.03059 59.08430 57.55744
#
# Velocity S-wave (km/s) = 4.62021 4.74444 4.68274
# Velocity P-wave (km/s) = 6.86416 7.08675 6.97634
#
# Compressibility (1/GPa) = 0.02042228
#
# Stress axis : x y z
#
# Youngs Moduli (GPa) = 125.80047 125.80155 87.78540
#
# Poissons Ratio (x) = 0.27012 0.05647
# Poissons Ratio (y) = 0.27012 0.05646
# Poissons Ratio (z) = 0.08092 0.08092
#
# Static dielectric constant tensor:
#      x y z
#    x 2.062760 0.000000 0.000000 
#    y 0.000000 2.062760 0.000000 
#    z 0.000000 0.000000 2.122070 
# 
# From -- ./inp_files/4012.got.cif
#   From: 2010.05.17/outbox.cif.g08.bks.cpg/sg92_3_cif.got.tgz:4012.got - 2010.06.03 19:35:17.
