data_PCOD9549496
_publ_section_title
;
Structure prediction by ZEFSAII (Michael W. Deem and Ramdas Pophale) SiO2 
 PCOD9549496
Probable space group: P 41 21 2
;
_chemical_formula_sum "Si O2"
_cell_formula_units_Z 48
_cell_length_a 8.838597
_cell_length_b 8.838597
_cell_length_c 26.916850
_cell_angle_alpha 90.000000
_cell_angle_beta 90.000000
_cell_angle_gamma 90.000000
_cell_volume 2102.765773
_symmetry_space_group_name_H-M "P 41 21 2"
_symmetry_group_IT_number 92
_symmetry_cell_setting 'tetragonal'
loop_
_space_group_symop_operation_xyz
x,y,z
1/2-y,1/2+x,1/4+z
-x,-y,1/2+z
1/2+y,1/2-x,3/4+z
1/2+x,1/2-y,3/4-z
1/2-x,1/2+y,1/4-z
y,x,-z
-y,-x,1/2-z
loop_
_atom_site_type_symbol
_atom_site_label
_atom_site_fract_x
_atom_site_fract_y
_atom_site_fract_z
Si Si1 0.255431 0.660403 0.418676
Si Si2 0.792644 0.338451 0.404581
Si Si3 0.525672 0.078387 0.900744
Si Si4 0.811605 0.576194 0.491718
Si Si5 0.026804 0.846447 0.462279
Si Si6 0.439364 0.467065 0.622336
O O1 0.348519 0.792806 0.392029
O O2 0.372246 0.521467 0.421417
O O3 0.116380 0.600808 0.385626
O O4 0.180973 0.747998 0.465336
O O5 0.887303 0.423914 0.361031
O O6 0.820977 0.437852 0.453641
O O7 0.854896 0.169100 0.403146
O O8 0.614743 0.349846 0.394469
O O9 0.467360 0.109875 0.956372
O O10 0.642482 0.642482 0.500000
O O11 0.900562 0.718004 0.468543
O O12 0.979388 0.979388 0.500000
O O13 0.024798 0.929532 0.409340
#
# Coordination Sequence:
#
# PCOD9549496 Si02
#       6
#     8   8   8   8   8   8
#     4  12  21  44  73 100 139 186 242 292 355 432
#     4  12  26  47  68 110 146 188 242 303 376 434
#     4  12  23  44  72 102 142 190 242 302 363 437
#     4  11  24  43  74 104 138 189 252 290 352 447
#     4  11  24  42  73 104 136 189 246 291 353 435
#     4  12  26  44  73 101 148 190 232 302 374 426
#
# _framework density 22.827079999999999
#
# number of rings (size 3 to 8) (size 9 to 14) (size 15 to 20)
#    0.000    0.333    5.000    5.000    2.333    0.000 
#    0.000    0.000    0.000    0.000    0.000    0.000 
#    0.000    0.000    0.000    0.000    0.000    0.000 
#
# Total GULP energy -268186.709721 kJ/mol
# GULP energy per Si atom -5587.223119 kJ/mol
# Density = 2.277512 g / cm^3
# Si number density = 22.827080 Si / 1000 Ang^3
#
#
#
# Elastic Constant Matrix: (Units=GPa)
#
#
# Indices 1 2 3 4 5 6 
#
# 1 112.2213 37.9607 12.4637 0.0000 0.0000 0.0000
# 2 37.9607 112.2213 12.4637 0.0000 0.0000 0.0000
# 3 12.4637 12.4637 71.2427 0.0000 0.0000 0.0000
# 4 0.0000 0.0000 0.0000 26.4419 0.0000 0.0000
# 5 0.0000 0.0000 0.0000 0.0000 26.4419 0.0000
# 6 0.0000 0.0000 0.0000 0.0000 0.0000 48.5590
#
#
#
# Elastic Compliance Matrix: (Units=1/GPa)
#
#
# Indices 1 2 3 4 5 6 
#
# 1 0.010162 -0.003304 -0.001200 0.000000 0.000000 0.000000
# 2 -0.003304 0.010162 -0.001200 0.000000 0.000000 0.000000
# 3 -0.001200 -0.001200 0.014456 0.000000 0.000000 0.000000
# 4 0.000000 0.000000 0.000000 0.037819 0.000000 0.000000
# 5 0.000000 0.000000 0.000000 0.000000 0.037819 0.000000
# 6 0.000000 0.000000 0.000000 0.000000 0.000000 0.020593
#
#
# Mechanical properties :
#
#
# Convention : Reuss Voigt Hill
#
# Bulk Modulus (GPa) = 42.78480 46.82907 44.80694
# Shear Modulus (GPa) = 33.28685 35.80837 34.54761
#
# Velocity S-wave (km/s) = 3.82280 3.96495 3.89453
# Velocity P-wave (km/s) = 6.18618 6.44363 6.31622
#
# Compressibility (1/GPa) = 0.02337279
#
# Stress axis : x y z
#
# Youngs Moduli (GPa) = 98.40674 98.40674 69.17400
#
# Poissons Ratio (x) = 0.32515 0.08299
# Poissons Ratio (y) = 0.32515 0.08299
# Poissons Ratio (z) = 0.11806 0.11806
#
# Static dielectric constant tensor:
#      x y z
#    x 1.858310 0.000000 0.000000 
#    y 0.000000 1.858310 0.000000 
#    z 0.000000 0.000000 1.884150 
# 
# From -- ./inp_files/4488.got.cif
#   From: 2010.05.17/outbox.cif.g08.bks.cpg/sg92_3_cif.got.tgz:4488.got - 2010.06.03 19:35:17.
