data_PCOD9549399
_publ_section_title
;
Structure prediction by ZEFSAII (Michael W. Deem and Ramdas Pophale) SiO2 
 PCOD9549399
Probable space group: P 41 21 2
;
_chemical_formula_sum "Si O2"
_cell_formula_units_Z 32
_cell_length_a 10.699289
_cell_length_b 10.699289
_cell_length_c 11.775747
_cell_angle_alpha 90.000000
_cell_angle_beta 90.000000
_cell_angle_gamma 90.000000
_cell_volume 1348.026107
_symmetry_space_group_name_H-M "P 41 21 2"
_symmetry_group_IT_number 92
_symmetry_cell_setting 'tetragonal'
loop_
_space_group_symop_operation_xyz
x,y,z
1/2-y,1/2+x,1/4+z
-x,-y,1/2+z
1/2+y,1/2-x,3/4+z
1/2+x,1/2-y,3/4-z
1/2-x,1/2+y,1/4-z
y,x,-z
-y,-x,1/2-z
loop_
_atom_site_type_symbol
_atom_site_label
_atom_site_fract_x
_atom_site_fract_y
_atom_site_fract_z
Si Si1 0.197054 0.532697 0.014313
Si Si2 0.533709 0.722410 0.969908
Si Si3 0.036577 0.312262 0.518398
Si Si4 0.812284 0.728852 0.621490
O O1 0.222526 0.417020 0.098949
O O2 0.245196 0.670218 0.047081
O O3 0.048984 0.562366 0.004044
O O4 0.246324 0.496583 0.889324
O O5 0.474862 0.730374 0.844499
O O6 0.643976 0.823064 0.964418
O O7 0.587673 0.587673 0.000000
O O8 0.448061 0.769696 0.072549
O O9 0.794467 0.794467 0.500000
#
# Coordination Sequence:
#
# PCOD9549399 Si02
#       4
#     8   8   8   8
#     4  11  24  48  73 112 143 212 243 323 378 478
#     4  11  27  46  74 112 144 202 253 325 381 466
#     4  10  24  47  76  99 151 193 264 299 395 462
#     4  12  27  45  77 109 160 193 258 315 395 461
#
# _framework density 23.738413000000001
#
# number of rings (size 3 to 8) (size 9 to 14) (size 15 to 20)
#    0.000    1.000    2.500    3.000   10.500    1.000 
#    4.500    0.000    0.000    0.000    0.000    0.000 
#    0.000    0.000    0.000    0.000    0.000    0.000 
#
# Total GULP energy -178549.634484 kJ/mol
# GULP energy per Si atom -5579.676078 kJ/mol
# Density = 2.368438 g / cm^3
# Si number density = 23.738413 Si / 1000 Ang^3
#
#
#
# Elastic Constant Matrix: (Units=GPa)
#
#
# Indices 1 2 3 4 5 6 
#
# 1 31.0663 50.7161 22.7654 0.0000 0.0000 0.0000
# 2 50.7161 31.0663 22.7654 0.0000 0.0000 0.0000
# 3 22.7654 22.7654 111.3903 0.0000 0.0000 0.0000
# 4 0.0000 0.0000 0.0000 36.5470 0.0000 0.0000
# 5 0.0000 0.0000 0.0000 0.0000 36.5470 0.0000
# 6 0.0000 0.0000 0.0000 0.0000 0.0000 35.1342
#
#
#
# Elastic Compliance Matrix: (Units=1/GPa)
#
#
# Indices 1 2 3 4 5 6 
#
# 1 -0.018547 0.032344 -0.002820 0.000000 0.000000 0.000000
# 2 0.032344 -0.018547 -0.002820 0.000000 0.000000 0.000000
# 3 -0.002820 -0.002820 0.010130 0.000000 0.000000 0.000000
# 4 0.000000 0.000000 0.000000 0.027362 0.000000 0.000000
# 5 0.000000 0.000000 0.000000 0.000000 0.027362 0.000000
# 6 0.000000 0.000000 0.000000 0.000000 0.000000 0.028462
#
#
# Mechanical properties :
#
#
# Convention : Reuss Voigt Hill
#
# Bulk Modulus (GPa) = 37.81350 40.66851 39.24100
# Shear Modulus (GPa) = 429.96477 26.79738 228.38108
#
# Velocity S-wave (km/s) = 13.47291 3.36350 9.81918
# Velocity P-wave (km/s) = 16.06206 5.67920 12.04664
#
# Compressibility (1/GPa) = 0.02644558
#
# Stress axis : x y z
#
# Youngs Moduli (GPa) = -53.91766 -53.91766 98.71618
#
# Poissons Ratio (x) = 1.74393 0.27837
# Poissons Ratio (y) = 1.74393 0.27837
# Poissons Ratio (z) = -0.15204 -0.15204
#
# Static dielectric constant tensor:
#      x y z
#    x 1.990460 0.000000 0.000000 
#    y 0.000000 1.990460 0.000000 
#    z 0.000000 0.000000 1.959250 
# 
# From -- ./inp_files/1908.got.cif
#   From: 2010.05.17/outbox.cif.g08.bks.cpg/sg92_1_cif.got.tgz:1908.got - 2010.06.03 19:35:17.
