data_PCOD9549733
_publ_section_title
;
Structure prediction by ZEFSAII (Michael W. Deem and Ramdas Pophale) SiO2 
 PCOD9549733
Probable space group: P 42 2 2
;
_chemical_formula_sum "Si O2"
_cell_formula_units_Z 34
_cell_length_a 11.296888
_cell_length_b 11.296888
_cell_length_c 12.170030
_cell_angle_alpha 90.000000
_cell_angle_beta 90.000000
_cell_angle_gamma 90.000000
_cell_volume 1553.135316
_symmetry_space_group_name_H-M "P 42 2 2"
_symmetry_group_IT_number 93
_symmetry_cell_setting 'tetragonal'
loop_
_space_group_symop_operation_xyz
x,y,z
-y,x,1/2+z
-x,-y,z
y,-x,1/2+z
x,-y,-z
-x,y,-z
y,x,1/2-z
-y,-x,1/2-z
loop_
_atom_site_type_symbol
_atom_site_label
_atom_site_fract_x
_atom_site_fract_y
_atom_site_fract_z
Si Si1 0.845813 0.191443 0.377756
Si Si2 0.360745 0.281429 0.487780
Si Si3 0.962875 0.619926 0.329346
Si Si4 0.747205 0.747205 0.250000
Si Si5 0.000000 0.000000 0.000000
Si Si6 0.218920 0.500000 0.500000
O O1 0.817292 0.182709 0.250000
O O2 0.727065 0.191053 0.451139
O O3 0.928154 0.310002 0.383895
O O4 0.922957 0.084469 0.423047
O O5 0.500000 0.263398 0.500000
O O6 0.326532 0.287010 0.358795
O O7 0.311011 0.401863 0.543301
O O8 0.885060 0.717714 0.267437
O O9 0.868999 0.562951 0.414427
O O10 0.000000 0.500000 0.264821
#
# Coordination Sequence:
#
# PCOD9549733 Si02
#       6
#     8   8   8   4   2   4
#     4  12  29  45  75 108 148 196 252 316 392 463
#     4  11  25  45  67 108 150 191 245 311 385 459
#     4  11  23  44  75 102 140 191 259 308 372 472
#     4  10  26  42  74 104 142 198 244 314 387 443
#     4  12  26  52  72 110 148 190 252 332 374 460
#     4  10  20  42  72 102 129 193 246 302 360 447
#
# _framework density 21.891203000000001
#
# number of rings (size 3 to 8) (size 9 to 14) (size 15 to 20)
#    0.000    0.941    2.353    3.882   13.176    0.000 
#    0.000    5.294    0.000    0.000    0.000    0.000 
#    0.000    0.000    0.000    0.000    0.000    0.000 
#
# Total GULP energy -189709.916826 kJ/mol
# GULP energy per Si atom -5579.703436 kJ/mol
# Density = 2.184138 g / cm^3
# Si number density = 21.891203 Si / 1000 Ang^3
#
#
#
# Elastic Constant Matrix: (Units=GPa)
#
#
# Indices 1 2 3 4 5 6 
#
# 1 148.2701 67.3193 43.0309 0.0000 0.0000 0.0000
# 2 67.3193 148.2700 43.0307 0.0000 0.0000 0.0000
# 3 43.0309 43.0307 126.5242 0.0000 0.0000 0.0000
# 4 0.0000 0.0000 0.0000 23.7498 0.0000 0.0000
# 5 0.0000 0.0000 0.0000 0.0000 23.7507 0.0000
# 6 0.0000 0.0000 0.0000 0.0000 0.0000 48.5277
#
#
#
# Elastic Compliance Matrix: (Units=1/GPa)
#
#
# Indices 1 2 3 4 5 6 
#
# 1 0.008860 -0.003493 -0.001825 0.000000 0.000000 0.000000
# 2 -0.003493 0.008860 -0.001825 0.000000 0.000000 0.000000
# 3 -0.001825 -0.001825 0.009145 0.000000 0.000000 0.000000
# 4 0.000000 0.000000 0.000000 0.042106 0.000000 0.000000
# 5 0.000000 0.000000 0.000000 0.000000 0.042104 0.000000
# 6 0.000000 0.000000 0.000000 0.000000 0.000000 0.020607
#
#
# Mechanical properties :
#
#
# Convention : Reuss Voigt Hill
#
# Bulk Modulus (GPa) = 79.50358 81.09178 80.29768
# Shear Modulus (GPa) = 33.29733 37.18452 35.24093
#
# Velocity S-wave (km/s) = 3.90428 4.12589 4.01661
# Velocity P-wave (km/s) = 7.53133 7.73439 7.63353
#
# Compressibility (1/GPa) = 0.01257805
#
# Stress axis : x y z
#
# Youngs Moduli (GPa) = 112.86483 112.86481 109.34660
#
# Poissons Ratio (x) = 0.39424 0.19960
# Poissons Ratio (y) = 0.39424 0.19960
# Poissons Ratio (z) = 0.20602 0.20602
#
# Static dielectric constant tensor:
#      x y z
#    x 1.886300 0.000000 0.000000 
#    y 0.000000 1.886300 0.000000 
#    z 0.000000 0.000000 1.852850 
# 
# From -- ./inp_files/3181.got.cif
#   From: 2010.05.17/outbox.cif.g08.bks.cpg/sg93_2_cif.got.tgz:3181.got - 2010.06.03 19:38:44.
