data_PCOD9549855
_publ_section_title
;
Structure prediction by ZEFSAII (Michael W. Deem and Ramdas Pophale) SiO2 
 PCOD9549855
Probable space group: P 42 2 2
;
_chemical_formula_sum "Si O2"
_cell_formula_units_Z 64
_cell_length_a 11.715635
_cell_length_b 11.715635
_cell_length_c 22.776069
_cell_angle_alpha 90.000000
_cell_angle_beta 90.000000
_cell_angle_gamma 90.000000
_cell_volume 3126.154483
_symmetry_space_group_name_H-M "P 42 2 2"
_symmetry_group_IT_number 93
_symmetry_cell_setting 'tetragonal'
loop_
_space_group_symop_operation_xyz
x,y,z
-y,x,1/2+z
-x,-y,z
y,-x,1/2+z
x,-y,-z
-x,y,-z
y,x,1/2-z
-y,-x,1/2-z
loop_
_atom_site_type_symbol
_atom_site_label
_atom_site_fract_x
_atom_site_fract_y
_atom_site_fract_z
Si Si1 0.717116 0.993679 0.186900
Si Si2 0.008305 0.752189 0.181671
Si Si3 0.134695 0.747914 0.011867
Si Si4 0.613890 0.249477 0.800231
Si Si5 0.212985 0.328791 0.113995
Si Si6 0.940282 0.884742 0.595247
Si Si7 0.598975 0.816352 0.623206
Si Si8 0.649049 0.749590 0.807314
O O1 0.800290 0.978000 0.131133
O O2 0.660537 0.117333 0.176483
O O3 0.780176 0.002359 0.249855
O O4 0.634763 0.886454 0.196993
O O5 0.884181 0.729021 0.154796
O O6 0.072079 0.849296 0.144351
O O7 0.083989 0.639052 0.168233
O O8 0.170489 0.866034 0.043416
O O9 0.150604 0.648965 0.059895
O O10 0.194475 0.715554 0.951627
O O11 0.000000 0.758170 0.000000
O O12 0.689355 0.310646 0.750000
O O13 0.664241 0.297240 0.860728
O O14 0.481560 0.275962 0.792483
O O15 0.196083 0.464346 0.119801
O O16 0.000000 0.000000 0.574106
O O17 0.665707 0.703020 0.644314
O O18 0.724787 0.724787 0.750000
#
# Coordination Sequence:
#
# PCOD9549855 Si02
#       8
#     8   8   8   8   8   8   8   8
#     4  12  23  43  67  97 138 178 223 270 338 417
#     4  11  21  38  61 101 136 172 222 270 336 409
#     4  11  23  42  65 101 134 173 229 278 340 400
#     4  12  28  43  65 101 139 179 224 282 345 408
#     4  12  24  42  64 101 140 173 221 286 343 402
#     4  11  23  39  64  97 139 182 216 274 340 411
#     4  11  23  40  69  98 133 178 225 278 346 404
#     4  12  24  45  70  97 135 182 229 279 338 411
#
# _framework density 20.472435999999998
#
# number of rings (size 3 to 8) (size 9 to 14) (size 15 to 20)
#    0.000    0.500    7.500    3.000    0.000    4.000 
#    0.000    0.625    0.000    1.500    3.250    0.000 
#    0.000    0.000    0.000    0.000    0.000    0.000 
#
# Total GULP energy -357985.955649 kJ/mol
# GULP energy per Si atom -5593.530557 kJ/mol
# Density = 2.042584 g / cm^3
# Si number density = 20.472436 Si / 1000 Ang^3
#
#
#
# Elastic Constant Matrix: (Units=GPa)
#
#
# Indices 1 2 3 4 5 6 
#
# 1 96.0526 17.1777 20.9690 0.0000 0.0000 0.0000
# 2 17.1777 96.0531 20.9686 0.0000 0.0000 0.0000
# 3 20.9690 20.9686 86.6228 0.0000 0.0000 0.0000
# 4 0.0000 0.0000 0.0000 19.7137 0.0000 0.0000
# 5 0.0000 0.0000 0.0000 0.0000 19.7134 0.0000
# 6 0.0000 0.0000 0.0000 0.0000 0.0000 15.4796
#
#
#
# Elastic Compliance Matrix: (Units=1/GPa)
#
#
# Indices 1 2 3 4 5 6 
#
# 1 0.011190 -0.001488 -0.002348 0.000000 0.000000 0.000000
# 2 -0.001488 0.011190 -0.002348 0.000000 0.000000 0.000000
# 3 -0.002348 -0.002348 0.012681 0.000000 0.000000 0.000000
# 4 0.000000 0.000000 0.000000 0.050726 0.000000 0.000000
# 5 0.000000 0.000000 0.000000 0.000000 0.050727 0.000000
# 6 0.000000 0.000000 0.000000 0.000000 0.000000 0.064601
#
#
# Mechanical properties :
#
#
# Convention : Reuss Voigt Hill
#
# Bulk Modulus (GPa) = 44.07168 44.10655 44.08912
# Shear Modulus (GPa) = 22.61941 25.62223 24.12082
#
# Velocity S-wave (km/s) = 3.32757 3.54156 3.43623
# Velocity P-wave (km/s) = 6.02807 6.18988 6.10951
#
# Compressibility (1/GPa) = 0.02269031
#
# Stress axis : x y z
#
# Youngs Moduli (GPa) = 89.36678 89.36754 78.85654
#
# Poissons Ratio (x) = 0.13302 0.18519
# Poissons Ratio (y) = 0.13302 0.18518
# Poissons Ratio (z) = 0.20987 0.20987
#
# Static dielectric constant tensor:
#      x y z
#    x 1.744910 0.000000 0.000000 
#    y 0.000000 1.744910 0.000000 
#    z 0.000000 0.000000 1.745290 
# 
# From -- ./inp_files/6974.got.cif
#   From: 2010.05.17/outbox.cif.g08.bks.cpg/sg93_4_cif.got.tgz:6974.got - 2010.06.03 19:38:44.
