data_PCOD9549012
_publ_section_title
;
Structure prediction by ZEFSAII (Michael W. Deem and Ramdas Pophale) SiO2 
 PCOD9549012
Probable space group: P 41 21 2
;
_chemical_formula_sum "Si O2"
_cell_formula_units_Z 40
_cell_length_a 11.991976
_cell_length_b 11.991976
_cell_length_c 12.606407
_cell_angle_alpha 90.000000
_cell_angle_beta 90.000000
_cell_angle_gamma 90.000000
_cell_volume 1812.895728
_symmetry_space_group_name_H-M "P 41 21 2"
_symmetry_group_IT_number 92
_symmetry_cell_setting 'tetragonal'
loop_
_space_group_symop_operation_xyz
x,y,z
1/2-y,1/2+x,1/4+z
-x,-y,1/2+z
1/2+y,1/2-x,3/4+z
1/2+x,1/2-y,3/4-z
1/2-x,1/2+y,1/4-z
y,x,-z
-y,-x,1/2-z
loop_
_atom_site_type_symbol
_atom_site_label
_atom_site_fract_x
_atom_site_fract_y
_atom_site_fract_z
Si Si1 0.787374 0.937512 0.921061
Si Si2 0.076703 0.001707 0.117838
Si Si3 0.252564 0.536212 0.448111
Si Si4 0.095393 0.738806 0.499916
Si Si5 0.106727 0.720900 0.909256
O O1 0.702316 0.871910 0.846507
O O2 0.886328 0.008047 0.863992
O O3 0.850044 0.850044 0.000000
O O4 0.713320 0.016424 0.997325
O O5 0.056387 0.114962 0.182630
O O6 0.204657 0.964482 0.100587
O O7 0.038137 0.038137 0.000000
O O8 0.186390 0.648180 0.472506
O O9 0.200707 0.491487 0.338297
O O10 0.231693 0.452770 0.545697
O O11 0.162751 0.834415 0.563215
#
# Coordination Sequence:
#
# PCOD9549012 Si02
#       5
#     8   8   8   8   8
#     4  10  20  36  58  89 120 154 203 255 304 364
#     4   8  19  39  62  85 118 162 204 246 304 371
#     4  11  20  38  65  91 123 163 205 258 309 365
#     4  10  22  38  62  90 120 163 208 252 309 375
#     4  11  21  35  60  91 121 156 205 253 304 367
#
# _framework density 22.064147999999999
#
# number of rings (size 3 to 8) (size 9 to 14) (size 15 to 20)
#    0.000    2.000    0.000    5.400    0.000    1.600 
#    0.000   10.000    0.000   60.000    0.000    0.000 
#    0.000    0.000    0.000    0.000    0.000    0.000 
#
# Total GULP energy -223465.330155 kJ/mol
# GULP energy per Si atom -5586.633254 kJ/mol
# Density = 2.201393 g / cm^3
# Si number density = 22.064148 Si / 1000 Ang^3
#
#
#
# Elastic Constant Matrix: (Units=GPa)
#
#
# Indices 1 2 3 4 5 6 
#
# 1 98.6499 77.6211 38.8537 0.0000 0.0000 0.0000
# 2 77.6211 98.6499 38.8537 0.0000 0.0000 0.0000
# 3 38.8537 38.8537 51.4402 0.0000 0.0000 0.0000
# 4 0.0000 0.0000 0.0000 34.2071 0.0000 0.0000
# 5 0.0000 0.0000 0.0000 0.0000 34.2071 0.0000
# 6 0.0000 0.0000 0.0000 0.0000 0.0000 35.1031
#
#
#
# Elastic Compliance Matrix: (Units=1/GPa)
#
#
# Indices 1 2 3 4 5 6 
#
# 1 0.028029 -0.019524 -0.006424 0.000000 0.000000 0.000000
# 2 -0.019524 0.028029 -0.006424 0.000000 0.000000 0.000000
# 3 -0.006424 -0.006424 0.029144 0.000000 0.000000 0.000000
# 4 0.000000 0.000000 0.000000 0.029234 0.000000 0.000000
# 5 0.000000 0.000000 0.000000 0.000000 0.029234 0.000000
# 6 0.000000 0.000000 0.000000 0.000000 0.000000 0.028488
#
#
# Mechanical properties :
#
#
# Convention : Reuss Voigt Hill
#
# Bulk Modulus (GPa) = 48.87960 62.15523 55.51742
# Shear Modulus (GPa) = 20.51511 26.93087 23.72299
#
# Velocity S-wave (km/s) = 3.05256 3.49746 3.28256
# Velocity P-wave (km/s) = 5.88436 6.67391 6.29153
#
# Compressibility (1/GPa) = 0.02045843
#
# Stress axis : x y z
#
# Youngs Moduli (GPa) = 35.67672 35.67672 34.31189
#
# Poissons Ratio (x) = 0.69657 0.22042
# Poissons Ratio (y) = 0.69657 0.22042
# Poissons Ratio (z) = 0.22919 0.22919
#
# Static dielectric constant tensor:
#      x y z
#    x 1.822700 0.000000 0.000000 
#    y 0.000000 1.822700 0.000000 
#    z 0.000000 0.000000 1.881940 
# 
# From -- ./inp_files/2646.got.cif
#   From: 2010.05.17/outbox.cif.g08.bks.cpg/sg92_2_cif.got.tgz:2646.got - 2010.06.03 19:35:17.
