data_PCOD9549836
_publ_section_title
;
Structure prediction by ZEFSAII (Michael W. Deem and Ramdas Pophale) SiO2 
 PCOD9549836
Probable space group: P 42 2 2
;
_chemical_formula_sum "Si O2"
_cell_formula_units_Z 20
_cell_length_a 5.161235
_cell_length_b 5.161235
_cell_length_c 29.370102
_cell_angle_alpha 90.000000
_cell_angle_beta 90.000000
_cell_angle_gamma 90.000000
_cell_volume 782.370960
_symmetry_space_group_name_H-M "P 42 2 2"
_symmetry_group_IT_number 93
_symmetry_cell_setting 'tetragonal'
loop_
_space_group_symop_operation_xyz
x,y,z
-y,x,1/2+z
-x,-y,z
y,-x,1/2+z
x,-y,-z
-x,y,-z
y,x,1/2-z
-y,-x,1/2-z
loop_
_atom_site_type_symbol
_atom_site_label
_atom_site_fract_x
_atom_site_fract_y
_atom_site_fract_z
Si Si1 0.322686 0.248822 0.077106
Si Si2 0.000000 0.500000 0.000000
Si Si3 0.000000 0.000000 0.750000
Si Si4 0.312336 0.748196 0.820965
O O1 0.500000 0.500000 0.079535
O O2 0.202426 0.236997 0.127538
O O3 0.500000 0.000000 0.070250
O O4 0.145655 0.308106 0.034401
O O5 0.926042 0.224166 0.786244
O O6 0.500000 0.500000 0.814747
O O7 0.500000 0.000000 0.814679
#
# Coordination Sequence:
#
# PCOD9549836 Si02
#       4
#     8   2   2   8
#     4  10  25  48  71 109 152 198 255 324 390 474
#     4  12  26  46  84 108 152 210 266 310 412 462
#     4  12  26  40  78 104 140 196 266 310 404 472
#     4  10  25  47  72 105 153 196 256 326 398 474
#
# _framework density 25.563324000000001
#
# number of rings (size 3 to 8) (size 9 to 14) (size 15 to 20)
#    0.000    1.600    0.000    1.200    5.600   16.000 
#    0.000    4.000    0.000    0.000    0.000    0.000 
#    0.000    0.000    0.000    0.000    0.000    0.000 
#
# Total GULP energy -111862.643568 kJ/mol
# GULP energy per Si atom -5593.132178 kJ/mol
# Density = 2.550514 g / cm^3
# Si number density = 25.563324 Si / 1000 Ang^3
#
#
#
# Elastic Constant Matrix: (Units=GPa)
#
#
# Indices 1 2 3 4 5 6 
#
# 1 156.5445 64.5313 83.9217 0.0000 0.0000 0.0000
# 2 64.5313 156.5445 83.9217 0.0000 0.0000 0.0000
# 3 83.9217 83.9217 292.4536 0.0000 0.0000 0.0000
# 4 0.0000 0.0000 0.0000 79.9790 0.0000 0.0000
# 5 0.0000 0.0000 0.0000 0.0000 79.9790 0.0000
# 6 0.0000 0.0000 0.0000 0.0000 0.0000 50.3205
#
#
#
# Elastic Compliance Matrix: (Units=1/GPa)
#
#
# Indices 1 2 3 4 5 6 
#
# 1 0.008326 -0.002542 -0.001660 0.000000 0.000000 0.000000
# 2 -0.002542 0.008326 -0.001660 0.000000 0.000000 0.000000
# 3 -0.001660 -0.001660 0.004372 0.000000 0.000000 0.000000
# 4 0.000000 0.000000 0.000000 0.012503 0.000000 0.000000
# 5 0.000000 0.000000 0.000000 0.000000 0.012503 0.000000
# 6 0.000000 0.000000 0.000000 0.000000 0.000000 0.019873
#
#
# Mechanical properties :
#
#
# Convention : Reuss Voigt Hill
#
# Bulk Modulus (GPa) = 107.52522 118.92133 113.22328
# Shear Modulus (GPa) = 61.93847 66.93354 64.43601
#
# Velocity S-wave (km/s) = 4.92768 5.12253 5.02605
# Velocity P-wave (km/s) = 8.63306 9.03373 8.83567
#
# Compressibility (1/GPa) = 0.00930014
#
# Stress axis : x y z
#
# Youngs Moduli (GPa) = 120.11077 120.11077 228.73918
#
# Poissons Ratio (x) = 0.30536 0.37961
# Poissons Ratio (y) = 0.30536 0.37961
# Poissons Ratio (z) = 0.19933 0.19933
#
# Static dielectric constant tensor:
#      x y z
#    x 2.014070 0.000000 0.000000 
#    y 0.000000 2.014070 0.000000 
#    z 0.000000 0.000000 2.082150 
# 
# From -- ./inp_files/7107.got.cif
#   From: 2010.05.17/outbox.cif.g08.bks.cpg/sg93_4_cif.got.tgz:7107.got - 2010.06.03 19:38:44.
