data_PCOD9549845
_publ_section_title
;
Structure prediction by ZEFSAII (Michael W. Deem and Ramdas Pophale) SiO2 
 PCOD9549845
Probable space group: P 42 2 2
;
_chemical_formula_sum "Si O2"
_cell_formula_units_Z 40
_cell_length_a 14.670397
_cell_length_b 14.670397
_cell_length_c 8.881218
_cell_angle_alpha 90.000000
_cell_angle_beta 90.000000
_cell_angle_gamma 90.000000
_cell_volume 1911.420606
_symmetry_space_group_name_H-M "P 42 2 2"
_symmetry_group_IT_number 93
_symmetry_cell_setting 'tetragonal'
loop_
_space_group_symop_operation_xyz
x,y,z
-y,x,1/2+z
-x,-y,z
y,-x,1/2+z
x,-y,-z
-x,y,-z
y,x,1/2-z
-y,-x,1/2-z
loop_
_atom_site_type_symbol
_atom_site_label
_atom_site_fract_x
_atom_site_fract_y
_atom_site_fract_z
Si Si1 0.285454 0.914267 0.114347
Si Si2 0.156828 0.025928 0.330272
Si Si3 0.785713 0.249591 0.906719
Si Si4 0.107913 0.510608 0.337017
Si Si5 0.602846 0.101195 0.556094
O O1 0.380421 0.885968 0.194478
O O2 0.208754 0.949807 0.232063
O O3 0.250148 0.831100 0.011275
O O4 0.301102 0.000000 0.000000
O O5 0.069513 0.069513 0.250000
O O6 0.225069 0.111772 0.347004
O O7 0.133270 0.000000 0.500000
O O8 0.733828 0.266173 0.750000
O O9 0.813052 0.338810 0.998569
O O10 0.153005 0.500000 0.500000
O O11 0.125354 0.423689 0.230073
O O12 0.000000 0.500000 0.349192
O O13 0.500000 0.100855 0.500000
O O14 0.636892 0.000000 0.500000
#
# Coordination Sequence:
#
# PCOD9549845 Si02
#       5
#     8   8   8   8   8
#     4  12  22  41  61  93 125 178 216 265 328 388
#     4  11  25  43  60  80 122 173 227 268 314 379
#     4  11  23  41  64  89 133 168 219 271 326 391
#     4  11  20  34  60  87 123 160 211 260 326 395
#     4  11  23  39  63  91 121 168 215 275 336 381
#
# _framework density 20.926842000000001
#
# number of rings (size 3 to 8) (size 9 to 14) (size 15 to 20)
#    0.000    0.800    8.000    3.000    2.800    0.800 
#    0.000    7.000    0.000    0.000    0.000    0.000 
#    0.000   15.200    0.000    0.000    0.000    0.000 
#
# Total GULP energy -222820.324983 kJ/mol
# GULP energy per Si atom -5570.508125 kJ/mol
# Density = 2.087921 g / cm^3
# Si number density = 20.926842 Si / 1000 Ang^3
#
#
#
# Elastic Constant Matrix: (Units=GPa)
#
#
# Indices 1 2 3 4 5 6 
#
# 1 73.7233 60.4143 37.5513 0.0000 0.0000 0.0000
# 2 60.4143 73.7232 37.5514 0.0000 0.0000 0.0000
# 3 37.5513 37.5514 129.2302 0.0000 0.0000 0.0000
# 4 0.0000 0.0000 0.0000 27.8480 0.0000 0.0000
# 5 0.0000 0.0000 0.0000 0.0000 27.8481 0.0000
# 6 0.0000 0.0000 0.0000 0.0000 0.0000 48.6875
#
#
#
# Elastic Compliance Matrix: (Units=1/GPa)
#
#
# Indices 1 2 3 4 5 6 
#
# 1 0.042020 -0.033117 -0.002587 0.000000 0.000000 0.000000
# 2 -0.033117 0.042020 -0.002587 0.000000 0.000000 0.000000
# 3 -0.002587 -0.002587 0.009242 0.000000 0.000000 0.000000
# 4 0.000000 0.000000 0.000000 0.035909 0.000000 0.000000
# 5 0.000000 0.000000 0.000000 0.000000 0.035909 0.000000
# 6 0.000000 0.000000 0.000000 0.000000 0.000000 0.020539
#
#
# Mechanical properties :
#
#
# Convention : Reuss Voigt Hill
#
# Bulk Modulus (GPa) = 59.87977 60.85673 60.36825
# Shear Modulus (GPa) = 18.67141 30.28737 24.47939
#
# Velocity S-wave (km/s) = 2.99025 3.80846 3.42389
# Velocity P-wave (km/s) = 6.37166 6.96298 6.67387
#
# Compressibility (1/GPa) = 0.01670013
#
# Stress axis : x y z
#
# Youngs Moduli (GPa) = 23.79799 23.79792 108.20544
#
# Poissons Ratio (x) = 0.78811 0.27994
# Poissons Ratio (y) = 0.78811 0.27995
# Poissons Ratio (z) = 0.06157 0.06157
#
# Static dielectric constant tensor:
#      x y z
#    x 1.851430 0.000000 0.000000 
#    y 0.000000 1.851430 0.000000 
#    z 0.000000 0.000000 1.988700 
# 
# From -- ./inp_files/1833.got.cif
#   From: 2010.05.17/outbox.cif.g08.bks.cpg/sg93_1_cif.got.tgz:1833.got - 2010.06.03 19:38:44.
