data_PCOD9549637
_publ_section_title
;
Structure prediction by ZEFSAII (Michael W. Deem and Ramdas Pophale) SiO2 
 PCOD9549637
Probable space group: P 42 2 2
;
_chemical_formula_sum "Si O2"
_cell_formula_units_Z 60
_cell_length_a 14.757072
_cell_length_b 14.757072
_cell_length_c 14.362775
_cell_angle_alpha 90.000000
_cell_angle_beta 90.000000
_cell_angle_gamma 90.000000
_cell_volume 3127.798374
_symmetry_space_group_name_H-M "P 42 2 2"
_symmetry_group_IT_number 93
_symmetry_cell_setting 'tetragonal'
loop_
_space_group_symop_operation_xyz
x,y,z
-y,x,1/2+z
-x,-y,z
y,-x,1/2+z
x,-y,-z
-x,y,-z
y,x,1/2-z
-y,-x,1/2-z
loop_
_atom_site_type_symbol
_atom_site_label
_atom_site_fract_x
_atom_site_fract_y
_atom_site_fract_z
Si Si1 0.336673 0.039746 0.398790
Si Si2 0.292583 0.458788 0.871170
Si Si3 0.402226 0.827506 0.198125
Si Si4 0.121435 0.773050 0.185986
Si Si5 0.536486 0.336888 0.102541
Si Si6 0.667561 0.335699 0.649053
Si Si7 0.000000 0.500000 0.241063
Si Si8 0.700041 0.781501 0.505573
O O1 0.419998 0.035422 0.327080
O O2 0.306222 0.139134 0.428712
O O3 0.365044 0.000000 0.500000
O O4 0.257568 0.976409 0.354570
O O5 0.235852 0.440205 0.779702
O O6 0.391093 0.412001 0.868212
O O7 0.304810 0.565773 0.877361
O O8 0.238364 0.398339 0.947229
O O9 0.303653 0.851479 0.237886
O O10 0.413673 0.760396 0.111663
O O11 0.460257 0.918688 0.197599
O O12 0.137913 0.862088 0.250000
O O13 0.185132 0.760636 0.093368
O O14 0.443676 0.335556 0.159715
O O15 0.500000 0.356847 0.000000
O O16 0.699009 0.300992 0.750000
O O17 0.725167 0.303482 0.559987
#
# Coordination Sequence:
#
# PCOD9549637 Si02
#       8
#     8   8   8   8   8   8   4   8
#     4   9  18  30  50  80 106 137 183 234 293 355
#     4  11  21  35  51  70 107 146 193 245 294 335
#     4  10  20  34  52  72  98 140 185 238 284 341
#     4   9  18  33  56  80 108 143 182 231 298 366
#     4  12  24  36  49  72 103 148 203 240 280 344
#     4  12  24  34  49  74 104 156 198 256 295 339
#     4  10  19  32  51  74  98 138 188 240 293 353
#     4  10  20  34  51  75 110 145 187 237 295 346
#
# _framework density 19.182822000000002
#
# number of rings (size 3 to 8) (size 9 to 14) (size 15 to 20)
#    0.000    1.600    2.667    4.600    0.000    4.267 
#    0.000    0.333    0.000    0.000    0.000    0.933 
#    0.000    0.533    0.000    4.800   16.267    0.000 
#
# Total GULP energy -334240.921612 kJ/mol
# GULP energy per Si atom -5570.682027 kJ/mol
# Density = 1.913916 g / cm^3
# Si number density = 19.182822 Si / 1000 Ang^3
#
#
#
# Elastic Constant Matrix: (Units=GPa)
#
#
# Indices 1 2 3 4 5 6 
#
# 1 47.2145 10.1980 28.9911 0.0000 0.0000 0.0000
# 2 10.1980 47.2131 28.9908 0.0000 0.0000 0.0000
# 3 28.9911 28.9908 85.5713 0.0000 0.0000 0.0000
# 4 0.0000 0.0000 0.0000 175.5886 0.0000 0.0000
# 5 0.0000 0.0000 0.0000 0.0000 175.5516 0.0000
# 6 0.0000 0.0000 0.0000 0.0000 0.0000 16.2303
#
#
#
# Elastic Compliance Matrix: (Units=1/GPa)
#
#
# Indices 1 2 3 4 5 6 
#
# 1 0.026746 -0.000269 -0.008970 0.000000 0.000000 0.000000
# 2 -0.000269 0.026747 -0.008971 0.000000 0.000000 0.000000
# 3 -0.008970 -0.008971 0.017764 0.000000 0.000000 0.000000
# 4 0.000000 0.000000 0.000000 0.005695 0.000000 0.000000
# 5 0.000000 0.000000 0.000000 0.000000 0.005696 0.000000
# 6 0.000000 0.000000 0.000000 0.000000 0.000000 0.061613
#
#
# Mechanical properties :
#
#
# Convention : Reuss Voigt Hill
#
# Bulk Modulus (GPa) = 28.70446 35.15098 31.92772
# Shear Modulus (GPa) = 26.00181 80.92868 53.46524
#
# Velocity S-wave (km/s) = 3.68567 6.50228 5.28507
# Velocity P-wave (km/s) = 5.75398 8.64505 7.34320
#
# Compressibility (1/GPa) = 0.03483779
#
# Stress axis : x y z
#
# Youngs Moduli (GPa) = 37.38870 37.38741 56.29242
#
# Poissons Ratio (x) = 0.01006 0.50496
# Poissons Ratio (y) = 0.01006 0.50497
# Poissons Ratio (z) = 0.33539 0.33538
#
# Static dielectric constant tensor:
#      x y z
#    x 1.678040 0.000000 0.000000 
#    y 0.000000 1.678060 0.000000 
#    z 0.000000 0.000000 1.744160 
# 
# From -- ./inp_files/4578.got.cif
#   From: 2010.05.17/outbox.cif.g08.bks.cpg/sg93_3_cif.got.tgz:4578.got - 2010.06.03 19:38:44.
