data_PCOD9549414
_publ_section_title
;
Structure prediction by ZEFSAII (Michael W. Deem and Ramdas Pophale) SiO2 
 PCOD9549414
Probable space group: P 41 21 2
;
_chemical_formula_sum "Si O2"
_cell_formula_units_Z 36
_cell_length_a 12.386917
_cell_length_b 12.386917
_cell_length_c 10.447942
_cell_angle_alpha 90.000000
_cell_angle_beta 90.000000
_cell_angle_gamma 90.000000
_cell_volume 1603.087428
_symmetry_space_group_name_H-M "P 41 21 2"
_symmetry_group_IT_number 92
_symmetry_cell_setting 'tetragonal'
loop_
_space_group_symop_operation_xyz
x,y,z
1/2-y,1/2+x,1/4+z
-x,-y,1/2+z
1/2+y,1/2-x,3/4+z
1/2+x,1/2-y,3/4-z
1/2-x,1/2+y,1/4-z
y,x,-z
-y,-x,1/2-z
loop_
_atom_site_type_symbol
_atom_site_label
_atom_site_fract_x
_atom_site_fract_y
_atom_site_fract_z
Si Si1 0.733706 0.860037 0.663755
Si Si2 0.212834 0.040010 0.889871
Si Si3 0.248956 0.993098 0.405537
Si Si4 0.988952 0.988952 0.000000
Si Si5 0.573168 0.063375 0.314756
O O1 0.750697 0.927265 0.533618
O O2 0.845329 0.794513 0.683060
O O3 0.631518 0.783040 0.648114
O O4 0.716592 0.941397 0.780060
O O5 0.300475 0.959935 0.833169
O O6 0.092382 0.995262 0.906452
O O7 0.122195 0.004044 0.424499
O O8 0.315476 0.045073 0.522775
O O9 0.511155 0.035917 0.445670
#
# Coordination Sequence:
#
# PCOD9549414 Si02
#       5
#     8   8   8   4   8
#     4  10  25  45  72 106 147 200 252 309 394 448
#     4  10  27  47  72 108 142 204 254 314 380 471
#     4  12  25  46  73 109 152 198 249 325 378 461
#     4  10  28  48  68 106 154 198 250 314 392 460
#     4  12  27  48  79 113 150 197 258 318 379 459
#
# _framework density 22.456665000000001
#
# number of rings (size 3 to 8) (size 9 to 14) (size 15 to 20)
#    0.000    1.333    2.222    1.333    9.333    8.889 
#    0.000    0.000    0.000    0.000    0.000    0.000 
#    0.000    0.000    0.000    0.000    0.000    0.000 
#
# Total GULP energy -201630.070319 kJ/mol
# GULP energy per Si atom -5600.835287 kJ/mol
# Density = 2.240555 g / cm^3
# Si number density = 22.456665 Si / 1000 Ang^3
#
#
#
# Elastic Constant Matrix: (Units=GPa)
#
#
# Indices 1 2 3 4 5 6 
#
# 1 8596.2508-8442.3245 34.6572 0.0000 0.0000 0.0000
# 2 -8442.3245 8596.2508 34.6572 0.0000 0.0000 0.0000
# 3 34.6572 34.6572 74.1406 0.0000 0.0000 0.0000
# 4 0.0000 0.0000 0.0000 23.7635 0.0000 0.0000
# 5 0.0000 0.0000 0.0000 0.0000 23.7635 0.0000
# 6 0.0000 0.0000 0.0000 0.0000 0.0000 23.7133
#
#
#
# Elastic Compliance Matrix: (Units=1/GPa)
#
#
# Indices 1 2 3 4 5 6 
#
# 1 0.004144 0.004085 -0.003847 0.000000 0.000000 0.000000
# 2 0.004085 0.004144 -0.003847 0.000000 0.000000 0.000000
# 3 -0.003847 -0.003847 0.017084 0.000000 0.000000 0.000000
# 4 0.000000 0.000000 0.000000 0.042081 0.000000 0.000000
# 5 0.000000 0.000000 0.000000 0.000000 0.042081 0.000000
# 6 0.000000 0.000000 0.000000 0.000000 0.000000 0.042170
#
#
# Mechanical properties :
#
#
# Convention : Reuss Voigt Hill
#
# Bulk Modulus (GPa) = 55.08019 57.84690 56.46355
# Shear Modulus (GPa) = 30.30806 1723.55819 876.93313
#
# Velocity S-wave (km/s) = 3.67771 27.73392 19.78252
# Velocity P-wave (km/s) = 6.52799 32.42492 23.38793
#
# Compressibility (1/GPa) = 0.01815535
#
# Stress axis : x y z
#
# Youngs Moduli (GPa) = 241.32880 241.32880 58.53407
#
# Poissons Ratio (x) = -0.98584 0.22515
# Poissons Ratio (y) = -0.98584 0.22515
# Poissons Ratio (z) = 0.92829 0.92829
#
# Static dielectric constant tensor:
#      x y z
#    x 1.825690 0.000000 0.000000 
#    y 0.000000 1.825690 0.000000 
#    z 0.000000 0.000000 1.826020 
# 
# From -- ./inp_files/1983.got.cif
#   From: 2010.05.17/outbox.cif.g08.bks.cpg/sg92_1_cif.got.tgz:1983.got - 2010.06.03 19:35:17.
