data_PCOD9549516
_publ_section_title
;
Structure prediction by ZEFSAII (Michael W. Deem and Ramdas Pophale) SiO2 
 PCOD9549516
Probable space group: P 41 21 2
;
_chemical_formula_sum "Si O2"
_cell_formula_units_Z 40
_cell_length_a 8.866822
_cell_length_b 8.866822
_cell_length_c 21.108418
_cell_angle_alpha 90.000000
_cell_angle_beta 90.000000
_cell_angle_gamma 90.000000
_cell_volume 1659.555061
_symmetry_space_group_name_H-M "P 41 21 2"
_symmetry_group_IT_number 92
_symmetry_cell_setting 'tetragonal'
loop_
_space_group_symop_operation_xyz
x,y,z
1/2-y,1/2+x,1/4+z
-x,-y,1/2+z
1/2+y,1/2-x,3/4+z
1/2+x,1/2-y,3/4-z
1/2-x,1/2+y,1/4-z
y,x,-z
-y,-x,1/2-z
loop_
_atom_site_type_symbol
_atom_site_label
_atom_site_fract_x
_atom_site_fract_y
_atom_site_fract_z
Si Si1 0.643070 0.044477 0.834577
Si Si2 0.415193 0.654441 0.678076
Si Si3 0.635558 0.383721 0.854165
Si Si4 0.378743 0.122045 0.645956
Si Si5 0.362830 0.611780 0.501263
O O1 0.617674 0.221056 0.821620
O O2 0.716964 0.028107 0.905056
O O3 0.494896 0.946758 0.845675
O O4 0.757602 0.962774 0.785880
O O5 0.376788 0.623213 0.750000
O O6 0.502191 0.504900 0.653503
O O7 0.258567 0.696537 0.643323
O O8 0.776444 0.482499 0.832127
O O9 0.662606 0.352031 0.928261
O O10 0.287715 0.076253 0.708998
O O11 0.463367 0.463367 0.500000
#
# Coordination Sequence:
#
# PCOD9549516 Si02
#       5
#     8   8   8   8   8
#     4  11  26  46  70 106 146 192 240 308 382 437
#     4  11  25  45  69 104 144 187 254 302 360 449
#     4  12  26  48  71 110 144 197 244 311 376 453
#     4  11  26  45  75 107 142 197 247 300 382 447
#     4  11  25  47  75 101 154 191 250 314 371 451
#
# _framework density 24.102848000000002
#
# number of rings (size 3 to 8) (size 9 to 14) (size 15 to 20)
#    0.000    0.800    4.000    3.600    8.400    0.800 
#    0.000    0.000    0.000    0.000    0.000    0.000 
#    0.000    0.000    0.000    0.000    0.000    0.000 
#
# Total GULP energy -223560.533444 kJ/mol
# GULP energy per Si atom -5589.013336 kJ/mol
# Density = 2.404799 g / cm^3
# Si number density = 24.102848 Si / 1000 Ang^3
#
#
#
# Elastic Constant Matrix: (Units=GPa)
#
#
# Indices 1 2 3 4 5 6 
#
# 1 72.4320 49.0321 6.3886 0.0000 0.0000 0.0000
# 2 49.0321 72.4323 6.3879 0.0000 0.0000 0.0000
# 3 6.3886 6.3879 85.1819 0.0000 0.0000 0.0000
# 4 0.0000 0.0000 0.0000 -7.7251 0.0000 0.0000
# 5 0.0000 0.0000 0.0000 0.0000 -7.7257 0.0000
# 6 0.0000 0.0000 0.0000 0.0000 0.0000 -161.0476
#
#
#
# Elastic Compliance Matrix: (Units=1/GPa)
#
#
# Indices 1 2 3 4 5 6 
#
# 1 0.025517 -0.017218 -0.000623 0.000000 0.000000 0.000000
# 2 -0.017218 0.025517 -0.000622 0.000000 0.000000 0.000000
# 3 -0.000623 -0.000622 0.011833 0.000000 0.000000 0.000000
# 4 0.000000 0.000000 0.000000 -0.129449 0.000000 0.000000
# 5 0.000000 0.000000 0.000000 0.000000 -0.129437 0.000000
# 6 0.000000 0.000000 0.000000 0.000000 0.000000 -0.006209
#
#
# Mechanical properties :
#
#
# Convention : Reuss Voigt Hill
#
# Bulk Modulus (GPa) = 38.55011 39.29592 38.92302
# Shear Modulus (GPa) = -31.91695 -24.08385 -28.00040
#
# Velocity S-wave (km/s) = -3.64290 -3.16446 -3.41208
# Velocity P-wave (km/s) = 1.29057 1.72832 0.81287
#
# Compressibility (1/GPa) = 0.02594026
#
# Stress axis : x y z
#
# Youngs Moduli (GPa) = 39.19005 39.19025 84.50990
#
# Poissons Ratio (x) = 0.67479 0.05261
# Poissons Ratio (y) = 0.67479 0.05258
# Poissons Ratio (z) = 0.02440 0.02438
#
# Static dielectric constant tensor:
#      x y z
#    x 1.956720 0.000000 0.000000 
#    y 0.000000 1.956720 0.000000 
#    z 0.000000 0.000000 1.962510 
# 
# From -- ./inp_files/3796.got.cif
#   From: 2010.05.17/outbox.cif.g08.bks.cpg/sg92_2_cif.got.tgz:3796.got - 2010.06.03 19:35:17.
