data_PCOD9549885
_publ_section_title
;
Structure prediction by ZEFSAII (Michael W. Deem and Ramdas Pophale) SiO2 
 PCOD9549885
Probable space group: P 42 2 2
;
_chemical_formula_sum "Si O2"
_cell_formula_units_Z 32
_cell_length_a 9.475836
_cell_length_b 9.475836
_cell_length_c 12.636583
_cell_angle_alpha 90.000000
_cell_angle_beta 90.000000
_cell_angle_gamma 90.000000
_cell_volume 1134.657337
_symmetry_space_group_name_H-M "P 42 2 2"
_symmetry_group_IT_number 93
_symmetry_cell_setting 'tetragonal'
loop_
_space_group_symop_operation_xyz
x,y,z
-y,x,1/2+z
-x,-y,z
y,-x,1/2+z
x,-y,-z
-x,y,-z
y,x,1/2-z
-y,-x,1/2-z
loop_
_atom_site_type_symbol
_atom_site_label
_atom_site_fract_x
_atom_site_fract_y
_atom_site_fract_z
Si Si1 0.384219 0.888413 0.248739
Si Si2 0.159780 0.000930 0.902500
Si Si3 0.171783 0.672491 0.018672
Si Si4 0.567987 0.656835 0.139689
O O1 0.458889 0.782302 0.166623
O O2 0.500000 0.000000 0.285204
O O3 0.268855 0.982983 0.186939
O O4 0.182953 0.685307 0.149366
O O5 0.176139 0.885727 0.999272
O O6 0.324034 0.689189 0.952870
O O7 0.000000 0.000000 0.867591
O O8 0.171925 0.500000 0.000000
O O9 0.000000 0.696525 0.000000
O O10 0.500000 0.500000 0.129443
O O11 0.653937 0.653937 0.250000
#
# Coordination Sequence:
#
# PCOD9549885 Si02
#       4
#     8   8   8   8
#     4  12  29  53  86 130 175 236 306 373 462 554
#     4  11  25  53  83 125 175 234 295 375 462 544
#     4  12  27  52  86 127 176 239 311 376 455 559
#     4  11  29  55  85 126 182 237 299 377 464 551
#
# _framework density 28.202347
#
# number of rings (size 3 to 8) (size 9 to 14) (size 15 to 20)
#    0.000    0.500    2.500    3.750    7.000   10.000 
#    0.000    0.000    0.000    0.000    0.000    0.000 
#    0.000    0.000    0.000    0.000    0.000    0.000 
#
# Total GULP energy -178549.645421 kJ/mol
# GULP energy per Si atom -5579.676419 kJ/mol
# Density = 2.813816 g / cm^3
# Si number density = 28.202347 Si / 1000 Ang^3
#
#
#
# Elastic Constant Matrix: (Units=GPa)
#
#
# Indices 1 2 3 4 5 6 
#
# 1 152.7092 95.1623 84.4677 0.0000 0.0000 0.0000
# 2 95.1623 152.7092 84.4677 0.0000 0.0000 0.0000
# 3 84.4677 84.4677 256.8328 0.0000 0.0000 0.0000
# 4 0.0000 0.0000 0.0000 47.6992 0.0000 0.0000
# 5 0.0000 0.0000 0.0000 0.0000 47.6992 0.0000
# 6 0.0000 0.0000 0.0000 0.0000 0.0000 57.1748
#
#
#
# Elastic Compliance Matrix: (Units=1/GPa)
#
#
# Indices 1 2 3 4 5 6 
#
# 1 0.011289 -0.006089 -0.001710 0.000000 0.000000 0.000000
# 2 -0.006089 0.011289 -0.001710 0.000000 0.000000 0.000000
# 3 -0.001710 -0.001710 0.005018 0.000000 0.000000 0.000000
# 4 0.000000 0.000000 0.000000 0.020965 0.000000 0.000000
# 5 0.000000 0.000000 0.000000 0.000000 0.020965 0.000000
# 6 0.000000 0.000000 0.000000 0.000000 0.000000 0.017490
#
#
# Mechanical properties :
#
#
# Convention : Reuss Voigt Hill
#
# Bulk Modulus (GPa) = 116.58218 121.16072 118.87145
# Shear Modulus (GPa) = 45.91698 50.39154 48.15426
#
# Velocity S-wave (km/s) = 4.03938 4.23162 4.13662
# Velocity P-wave (km/s) = 7.94877 8.18108 8.06576
#
# Compressibility (1/GPa) = 0.00857764
#
# Stress axis : x y z
#
# Youngs Moduli (GPa) = 88.58567 88.58567 199.26439
#
# Poissons Ratio (x) = 0.53936 0.34077
# Poissons Ratio (y) = 0.53936 0.34077
# Poissons Ratio (z) = 0.15149 0.15149
#
# Static dielectric constant tensor:
#      x y z
#    x 2.290240 0.000000 0.000000 
#    y 0.000000 2.290240 0.000000 
#    z 0.000000 0.000000 1.990700 
# 
# From -- ./inp_files/5903.got.cif
#   From: 2010.05.17/outbox.cif.g08.bks.cpg/sg93_3_cif.got.tgz:5903.got - 2010.06.03 19:38:44.
