data_PCOD9549821
_publ_section_title
;
Structure prediction by ZEFSAII (Michael W. Deem and Ramdas Pophale) SiO2 
 PCOD9549821
Probable space group: P 42 2 2
;
_chemical_formula_sum "Si O2"
_cell_formula_units_Z 38
_cell_length_a 8.996561
_cell_length_b 8.996561
_cell_length_c 24.826232
_cell_angle_alpha 90.000000
_cell_angle_beta 90.000000
_cell_angle_gamma 90.000000
_cell_volume 2009.388292
_symmetry_space_group_name_H-M "P 42 2 2"
_symmetry_group_IT_number 93
_symmetry_cell_setting 'tetragonal'
loop_
_space_group_symop_operation_xyz
x,y,z
-y,x,1/2+z
-x,-y,z
y,-x,1/2+z
x,-y,-z
-x,y,-z
y,x,1/2-z
-y,-x,1/2-z
loop_
_atom_site_type_symbol
_atom_site_label
_atom_site_fract_x
_atom_site_fract_y
_atom_site_fract_z
Si Si1 0.833091 0.692966 0.354062
Si Si2 0.140252 0.806346 0.405816
Si Si3 0.000000 0.000000 0.000000
Si Si4 0.010300 0.334282 0.170380
Si Si5 0.500000 0.000000 0.227010
Si Si6 0.514329 0.324635 0.063598
O O1 0.871991 0.566247 0.310474
O O2 0.752332 0.618041 0.404207
O O3 0.988938 0.754304 0.376844
O O4 0.732584 0.824170 0.329869
O O5 0.096968 0.896198 0.460056
O O6 0.224164 0.912279 0.364171
O O7 0.246365 0.667018 0.418332
O O8 0.956977 0.367849 0.231487
O O9 0.000000 0.500000 0.145132
O O10 0.500000 0.500000 0.074519
O O11 0.500000 0.301231 0.000000
#
# Coordination Sequence:
#
# PCOD9549821 Si02
#       6
#     8   8   2   8   4   8
#     4  12  21  46  69  97 136 175 229 276 332 415
#     4  12  23  43  69 101 130 177 222 283 337 408
#     4  12  24  40  72 102 136 168 232 272 362 396
#     4  10  24  42  65  96 136 172 225 277 338 393
#     4  10  24  42  69  93 134 176 226 276 342 380
#     4  11  25  43  68 100 136 175 220 274 343 410
#
# _framework density 18.91123
#
# number of rings (size 3 to 8) (size 9 to 14) (size 15 to 20)
#    0.632    0.211    4.211    3.158    0.000    1.684 
#    0.000    2.105    0.000    0.000    0.000    0.000 
#    0.000    0.000    0.000    0.000    0.000    0.000 
#
# Total GULP energy -212111.986056 kJ/mol
# GULP energy per Si atom -5581.894370 kJ/mol
# Density = 1.886819 g / cm^3
# Si number density = 18.911230 Si / 1000 Ang^3
#
#
#
# Elastic Constant Matrix: (Units=GPa)
#
#
# Indices 1 2 3 4 5 6 
#
# 1 103.9476 82.7529 62.8110 0.0000 0.0000 0.0000
# 2 82.7529 103.9476 62.8110 0.0000 0.0000 0.0000
# 3 62.8110 62.8110 85.1486 0.0000 0.0000 0.0000
# 4 0.0000 0.0000 0.0000 18.0374 0.0000 0.0000
# 5 0.0000 0.0000 0.0000 0.0000 18.0374 0.0000
# 6 0.0000 0.0000 0.0000 0.0000 0.0000 28.6603
#
#
#
# Elastic Compliance Matrix: (Units=1/GPa)
#
#
# Indices 1 2 3 4 5 6 
#
# 1 0.028908 -0.018274 -0.007845 0.000000 0.000000 0.000000
# 2 -0.018274 0.028908 -0.007845 0.000000 0.000000 0.000000
# 3 -0.007845 -0.007845 0.023318 0.000000 0.000000 0.000000
# 4 0.000000 0.000000 0.000000 0.055440 0.000000 0.000000
# 5 0.000000 0.000000 0.000000 0.000000 0.055440 0.000000
# 6 0.000000 0.000000 0.000000 0.000000 0.000000 0.034891
#
#
# Mechanical properties :
#
#
# Convention : Reuss Voigt Hill
#
# Bulk Modulus (GPa) = 75.71220 78.86598 77.28909
# Shear Modulus (GPa) = 16.70931 18.59162 17.65047
#
# Velocity S-wave (km/s) = 2.97571 3.13884 3.05836
# Velocity P-wave (km/s) = 7.20617 7.41149 7.30955
#
# Compressibility (1/GPa) = 0.01320791
#
# Stress axis : x y z
#
# Youngs Moduli (GPa) = 34.59240 34.59240 42.88602
#
# Poissons Ratio (x) = 0.63213 0.33643
# Poissons Ratio (y) = 0.63213 0.33643
# Poissons Ratio (z) = 0.27137 0.27137
#
# Static dielectric constant tensor:
#      x y z
#    x 1.697190 0.000000 0.000000 
#    y 0.000000 1.697190 0.000000 
#    z 0.000000 0.000000 1.646320 
# 
# From -- ./inp_files/6796.got.cif
#   From: 2010.05.17/outbox.cif.g08.bks.cpg/sg93_4_cif.got.tgz:6796.got - 2010.06.03 19:38:44.
