data_PCOD9549723
_publ_section_title
;
Structure prediction by ZEFSAII (Michael W. Deem and Ramdas Pophale) SiO2 
 PCOD9549723
Probable space group: P 42 2 2
;
_chemical_formula_sum "Si O2"
_cell_formula_units_Z 44
_cell_length_a 8.870272
_cell_length_b 8.870272
_cell_length_c 29.383406
_cell_angle_alpha 90.000000
_cell_angle_beta 90.000000
_cell_angle_gamma 90.000000
_cell_volume 2311.937081
_symmetry_space_group_name_H-M "P 42 2 2"
_symmetry_group_IT_number 93
_symmetry_cell_setting 'tetragonal'
loop_
_space_group_symop_operation_xyz
x,y,z
-y,x,1/2+z
-x,-y,z
y,-x,1/2+z
x,-y,-z
-x,y,-z
y,x,1/2-z
-y,-x,1/2-z
loop_
_atom_site_type_symbol
_atom_site_label
_atom_site_fract_x
_atom_site_fract_y
_atom_site_fract_z
Si Si1 0.500000 0.000000 0.685599
Si Si2 0.340116 0.926796 0.139169
Si Si3 0.243505 0.998480 0.759804
Si Si4 0.929617 0.165195 0.453688
Si Si5 0.431471 0.164837 0.548606
Si Si6 0.564117 0.330409 0.361255
O O1 0.636082 0.001893 0.720449
O O2 0.489797 0.167513 0.661152
O O3 0.241319 0.963527 0.094765
O O4 0.340952 0.745259 0.144933
O O5 0.500000 0.000000 0.129230
O O6 0.291249 0.994797 0.187706
O O7 0.147134 0.852867 0.750000
O O8 0.142192 0.142192 0.750000
O O9 0.748821 0.153219 0.456638
O O10 0.000000 0.236913 0.500000
O O11 0.000000 0.000000 0.451660
O O12 0.500000 0.202941 0.500000
O O13 0.466849 0.291498 0.585899
O O14 0.500000 0.000000 0.561796
O O15 0.500000 0.500000 0.349007
#
# Coordination Sequence:
#
# PCOD9549723 Si02
#       6
#     4   8   8   8   8   8
#     4  12  24  46  69 100 139 172 232 282 344 410
#     4  11  25  44  64  97 134 167 228 274 328 412
#     4  11  25  43  68  97 128 176 220 271 334 398
#     4  10  22  39  63  97 128 169 216 269 335 396
#     4  10  20  38  64  96 135 174 227 275 331 417
#     4  11  26  43  67 101 136 181 223 281 348 402
#
# _framework density 19.031662000000001
#
# number of rings (size 3 to 8) (size 9 to 14) (size 15 to 20)
#    0.000    1.273    3.636    2.182    5.091    3.636 
#    0.000    4.545    0.000    0.000    0.000    0.000 
#    0.000    0.000    0.000    0.000    0.000    0.000 
#
# Total GULP energy -245008.641210 kJ/mol
# GULP energy per Si atom -5568.378209 kJ/mol
# Density = 1.898834 g / cm^3
# Si number density = 19.031662 Si / 1000 Ang^3
#
#
#
# Elastic Constant Matrix: (Units=GPa)
#
#
# Indices 1 2 3 4 5 6 
#
# 1 126.6543 38.5173 63.0271 0.0000 0.0000 0.0000
# 2 38.5173 126.6552 63.0318 0.0000 0.0000 0.0000
# 3 63.0271 63.0318 146.8856 0.0000 0.0000 0.0000
# 4 0.0000 0.0000 0.0000 33.2447 0.0000 0.0000
# 5 0.0000 0.0000 0.0000 0.0000 33.2436 0.0000
# 6 0.0000 0.0000 0.0000 0.0000 0.0000 33.1830
#
#
#
# Elastic Compliance Matrix: (Units=1/GPa)
#
#
# Indices 1 2 3 4 5 6 
#
# 1 0.010174 -0.001172 -0.003863 0.000000 0.000000 0.000000
# 2 -0.001172 0.010174 -0.003863 0.000000 0.000000 0.000000
# 3 -0.003863 -0.003863 0.010123 0.000000 0.000000 0.000000
# 4 0.000000 0.000000 0.000000 0.030080 0.000000 0.000000
# 5 0.000000 0.000000 0.000000 0.000000 0.030081 0.000000
# 6 0.000000 0.000000 0.000000 0.000000 0.000000 0.030136
#
#
# Mechanical properties :
#
#
# Convention : Reuss Voigt Hill
#
# Bulk Modulus (GPa) = 78.88766 81.03862 79.96314
# Shear Modulus (GPa) = 35.01654 35.64218 35.32936
#
# Velocity S-wave (km/s) = 4.29407 4.33226 4.31321
# Velocity P-wave (km/s) = 8.13180 8.22788 8.17998
#
# Compressibility (1/GPa) = 0.01267625
#
# Stress axis : x y z
#
# Youngs Moduli (GPa) = 98.28898 98.28594 98.78170
#
# Poissons Ratio (x) = 0.11516 0.38157
# Poissons Ratio (y) = 0.11516 0.38162
# Poissons Ratio (z) = 0.37967 0.37971
#
# Static dielectric constant tensor:
#      x y z
#    x 1.648680 0.000000 0.000000 
#    y 0.000000 1.648670 0.000000 
#    z 0.000000 0.000000 1.632780 
# 
# From -- ./inp_files/7671.got.cif
#   From: 2010.05.17/outbox.cif.g08.bks.cpg/sg93_4_cif.got.tgz:7671.got - 2010.06.03 19:38:44.
