data_PCOD9549596
_publ_section_title
;
Structure prediction by ZEFSAII (Michael W. Deem and Ramdas Pophale) SiO2 
 PCOD9549596
Probable space group: P 42 2 2
;
_chemical_formula_sum "Si O2"
_cell_formula_units_Z 48
_cell_length_a 12.081059
_cell_length_b 12.081059
_cell_length_c 19.236918
_cell_angle_alpha 90.000000
_cell_angle_beta 90.000000
_cell_angle_gamma 90.000000
_cell_volume 2807.666397
_symmetry_space_group_name_H-M "P 42 2 2"
_symmetry_group_IT_number 93
_symmetry_cell_setting 'tetragonal'
loop_
_space_group_symop_operation_xyz
x,y,z
-y,x,1/2+z
-x,-y,z
y,-x,1/2+z
x,-y,-z
-x,y,-z
y,x,1/2-z
-y,-x,1/2-z
loop_
_atom_site_type_symbol
_atom_site_label
_atom_site_fract_x
_atom_site_fract_y
_atom_site_fract_z
Si Si1 0.193368 0.365701 0.153356
Si Si2 0.500000 0.000000 0.723328
Si Si3 0.269104 0.219933 0.640071
Si Si4 0.132464 0.629422 0.999944
Si Si5 0.614105 0.535426 0.826164
Si Si6 0.064597 0.725445 0.278542
Si Si7 0.845283 0.154718 0.750000
O O1 0.099233 0.457447 0.173472
O O2 0.181933 0.332792 0.073210
O O3 0.306312 0.428635 0.172899
O O4 0.173713 0.253119 0.194961
O O5 0.603687 0.984918 0.773974
O O6 0.298185 0.167296 0.566220
O O7 0.361227 0.315655 0.646275
O O8 0.276497 0.133552 0.705130
O O9 0.146620 0.264393 0.656332
O O10 0.167478 0.500000 0.000000
O O11 0.000000 0.631098 0.000000
O O12 0.500000 0.500000 0.863080
O O13 0.577444 0.577444 0.750000
O O14 0.969470 0.819156 0.276953
#
# Coordination Sequence:
#
# PCOD9549596 Si02
#       7
#     8   4   8   8   8   8   4
#     4  11  20  35  56  88 112 144 189 241 288 333
#     4  10  16  34  61  82 111 142 198 234 276 346
#     4  11  20  36  55  85 115 150 186 233 293 347
#     4  11  20  34  59  86 114 146 187 238 285 339
#     4  11  20  33  55  83 116 145 183 231 285 339
#     4  10  20  35  57  82 117 150 192 232 290 340
#     4  10  22  35  55  84 114 148 192 242 278 339
#
# _framework density 17.096049000000001
#
# number of rings (size 3 to 8) (size 9 to 14) (size 15 to 20)
#    0.000    1.333    5.000    4.000    0.000    2.667 
#    0.000    2.500    0.000    1.000    0.000    4.667 
#    0.000    0.000    0.000    0.000    0.000    0.000 
#
# Total GULP energy -267211.695837 kJ/mol
# GULP energy per Si atom -5566.910330 kJ/mol
# Density = 1.705714 g / cm^3
# Si number density = 17.096049 Si / 1000 Ang^3
#
#
#
# Elastic Constant Matrix: (Units=GPa)
#
#
# Indices 1 2 3 4 5 6 
#
# 1 89.4356 33.6333 27.9808 0.0000 0.0000 0.0000
# 2 33.6333 89.4353 27.9812 0.0000 0.0000 0.0000
# 3 27.9808 27.9812 107.4411 0.0000 0.0000 0.0000
# 4 0.0000 0.0000 0.0000 12.8226 0.0000 0.0000
# 5 0.0000 0.0000 0.0000 0.0000 12.8224 0.0000
# 6 0.0000 0.0000 0.0000 0.0000 0.0000 22.3857
#
#
#
# Elastic Compliance Matrix: (Units=1/GPa)
#
#
# Indices 1 2 3 4 5 6 
#
# 1 0.013569 -0.004352 -0.002400 0.000000 0.000000 0.000000
# 2 -0.004352 0.013569 -0.002400 0.000000 0.000000 0.000000
# 3 -0.002400 -0.002400 0.010558 0.000000 0.000000 0.000000
# 4 0.000000 0.000000 0.000000 0.077987 0.000000 0.000000
# 5 0.000000 0.000000 0.000000 0.000000 0.077989 0.000000
# 6 0.000000 0.000000 0.000000 0.000000 0.000000 0.044671
#
#
# Mechanical properties :
#
#
# Convention : Reuss Voigt Hill
#
# Bulk Modulus (GPa) = 51.57247 51.72251 51.64749
# Shear Modulus (GPa) = 19.00338 22.72059 20.86199
#
# Velocity S-wave (km/s) = 3.33763 3.64950 3.49704
# Velocity P-wave (km/s) = 6.71453 6.93384 6.82506
#
# Compressibility (1/GPa) = 0.01939019
#
# Stress axis : x y z
#
# Youngs Moduli (GPa) = 73.69894 73.69852 94.71759
#
# Poissons Ratio (x) = 0.32071 0.22736
# Poissons Ratio (y) = 0.32072 0.22736
# Poissons Ratio (z) = 0.17690 0.17691
#
# Static dielectric constant tensor:
#      x y z
#    x 1.661620 0.000000 0.000000 
#    y 0.000000 1.661620 0.000000 
#    z 0.000000 0.000000 0.078660 
# 
# From -- ./inp_files/6243.got.cif
#   From: 2010.05.17/outbox.cif.g08.bks.cpg/sg93_4_cif.got.tgz:6243.got - 2010.06.03 19:38:44.
