data_PCOD9549178
_publ_section_title
;
Structure prediction by ZEFSAII (Michael W. Deem and Ramdas Pophale) SiO2 
 PCOD9549178
Probable space group: P 41 21 2
;
_chemical_formula_sum "Si O2"
_cell_formula_units_Z 48
_cell_length_a 11.304063
_cell_length_b 11.304063
_cell_length_c 18.145382
_cell_angle_alpha 90.000000
_cell_angle_beta 90.000000
_cell_angle_gamma 90.000000
_cell_volume 2318.650305
_symmetry_space_group_name_H-M "P 41 21 2"
_symmetry_group_IT_number 92
_symmetry_cell_setting 'tetragonal'
loop_
_space_group_symop_operation_xyz
x,y,z
1/2-y,1/2+x,1/4+z
-x,-y,1/2+z
1/2+y,1/2-x,3/4+z
1/2+x,1/2-y,3/4-z
1/2-x,1/2+y,1/4-z
y,x,-z
-y,-x,1/2-z
loop_
_atom_site_type_symbol
_atom_site_label
_atom_site_fract_x
_atom_site_fract_y
_atom_site_fract_z
Si Si1 0.070056 0.655608 0.859277
Si Si2 0.572914 0.561245 0.089087
Si Si3 0.569458 0.965250 0.292902
Si Si4 0.159020 0.200609 0.169312
Si Si5 0.834519 0.671690 0.456936
Si Si6 0.438562 0.701126 0.568092
O O1 0.079192 0.796535 0.872297
O O2 0.199773 0.604311 0.875324
O O3 0.983684 0.574719 0.909987
O O4 0.022886 0.633820 0.777118
O O5 0.459031 0.636689 0.111653
O O6 0.542024 0.425398 0.103551
O O7 0.581215 0.581215 0.000000
O O8 0.662661 0.878970 0.332709
O O9 0.460221 0.881265 0.271118
O O10 0.277915 0.167099 0.126011
O O11 0.181010 0.156144 0.252822
O O12 0.782796 0.782796 0.500000
O O13 0.746625 0.561274 0.465384
#
# Coordination Sequence:
#
# PCOD9549178 Si02
#       6
#     8   8   8   8   8   8
#     4  11  24  42  69 101 136 183 230 289 342 422
#     4  10  21  43  65  96 132 182 220 276 349 394
#     4  11  25  43  70 101 139 180 232 285 358 407
#     4  11  24  44  69  96 138 181 225 290 344 414
#     4  11  25  41  70  96 136 176 234 281 344 413
#     4  10  24  40  69  93 135 176 231 273 350 406
#
# _framework density 20.701696999999999
#
# number of rings (size 3 to 8) (size 9 to 14) (size 15 to 20)
#    0.000    1.333    3.333    2.500   16.333    1.333 
#    0.000    1.667    0.000    0.000    0.000    0.000 
#    0.000    0.000    0.000    0.000    0.000    0.000 
#
# Total GULP energy -267894.102202 kJ/mol
# GULP energy per Si atom -5581.127129 kJ/mol
# Density = 2.065458 g / cm^3
# Si number density = 20.701697 Si / 1000 Ang^3
#
#
#
# Elastic Constant Matrix: (Units=GPa)
#
#
# Indices 1 2 3 4 5 6 
#
# 1 84.7981 56.8329 -0.1901 0.0000 0.0000 0.0000
# 2 56.8329 84.7981 -0.1901 0.0000 0.0000 0.0000
# 3 -0.1901 -0.1901 17.0393 0.0000 0.0000 0.0000
# 4 0.0000 0.0000 0.0000 19.3941 0.0000 0.0000
# 5 0.0000 0.0000 0.0000 0.0000 19.3941 0.0000
# 6 0.0000 0.0000 0.0000 0.0000 0.0000 24.4663
#
#
#
# Elastic Compliance Matrix: (Units=1/GPa)
#
#
# Indices 1 2 3 4 5 6 
#
# 1 0.021410 -0.014349 0.000079 0.000000 0.000000 0.000000
# 2 -0.014349 0.021410 0.000079 0.000000 0.000000 0.000000
# 3 0.000079 0.000079 0.058690 0.000000 0.000000 0.000000
# 4 0.000000 0.000000 0.000000 0.051562 0.000000 0.000000
# 5 0.000000 0.000000 0.000000 0.000000 0.051562 0.000000
# 6 0.000000 0.000000 0.000000 0.000000 0.000000 0.040873
#
#
# Mechanical properties :
#
#
# Convention : Reuss Voigt Hill
#
# Bulk Modulus (GPa) = 13.67494 33.28231 23.47863
# Shear Modulus (GPa) = 16.76366 21.32975 19.04671
#
# Velocity S-wave (km/s) = 2.84874 3.21337 3.03653
# Velocity P-wave (km/s) = 4.17618 5.46623 4.86416
#
# Compressibility (1/GPa) = 0.07312645
#
# Stress axis : x y z
#
# Youngs Moduli (GPa) = 46.70771 46.70771 17.03876
#
# Poissons Ratio (x) = 0.67021 -0.00134
# Poissons Ratio (y) = 0.67021 -0.00134
# Poissons Ratio (z) = -0.00368 -0.00368
#
# Static dielectric constant tensor:
#      x y z
#    x 1.730390 0.000000 0.000000 
#    y 0.000000 1.730390 0.000000 
#    z 0.000000 0.000000 1.818860 
# 
# From -- ./inp_files/3123.got.cif
#   From: 2010.05.17/outbox.cif.g08.bks.cpg/sg92_2_cif.got.tgz:3123.got - 2010.06.03 19:35:17.
