data_PCOD9549702
_publ_section_title
;
Structure prediction by ZEFSAII (Michael W. Deem and Ramdas Pophale) SiO2 
 PCOD9549702
Probable space group: P 42 2 2
;
_chemical_formula_sum "Si O2"
_cell_formula_units_Z 32
_cell_length_a 14.939503
_cell_length_b 14.939503
_cell_length_c 8.165817
_cell_angle_alpha 90.000000
_cell_angle_beta 90.000000
_cell_angle_gamma 90.000000
_cell_volume 1822.518488
_symmetry_space_group_name_H-M "P 42 2 2"
_symmetry_group_IT_number 93
_symmetry_cell_setting 'tetragonal'
loop_
_space_group_symop_operation_xyz
x,y,z
-y,x,1/2+z
-x,-y,z
y,-x,1/2+z
x,-y,-z
-x,y,-z
y,x,1/2-z
-y,-x,1/2-z
loop_
_atom_site_type_symbol
_atom_site_label
_atom_site_fract_x
_atom_site_fract_y
_atom_site_fract_z
Si Si1 0.906978 0.896484 0.555640
Si Si2 0.110121 0.713907 0.995431
Si Si3 0.393531 0.108371 0.817211
Si Si4 0.891015 0.397419 0.681956
O O1 0.898148 0.898148 0.750000
O O2 0.816067 0.858293 0.484013
O O3 0.000000 0.852396 0.500000
O O4 0.910861 0.000000 0.500000
O O5 0.139489 0.659257 0.836917
O O6 0.138138 0.667724 0.166150
O O7 0.000000 0.715286 0.000000
O O8 0.497990 0.132438 0.794253
O O9 0.391834 0.999691 0.817443
O O10 0.367438 0.138207 0.000402
#
# Coordination Sequence:
#
# PCOD9549702 Si02
#       4
#     8   8   8   8
#     4  10  20  36  46  54  66  94 140 195 250 270
#     4   9  16  26  40  58  71  91 123 156 203 268
#     4   8  13  22  36  60  81  99 107 126 182 256
#     4   8  13  22  37  57  85  97 105 131 176 259
#
# _framework density 17.558121
#
# number of rings (size 3 to 8) (size 9 to 14) (size 15 to 20)
#    0.000    3.250    0.000    3.750    0.000    3.000 
#   18.000    0.000    0.000    0.000    0.000    0.000 
#    0.000    0.000    0.000    0.000    0.000    0.000 
#
# Total GULP energy -178366.502404 kJ/mol
# GULP energy per Si atom -5573.953200 kJ/mol
# Density = 1.751816 g / cm^3
# Si number density = 17.558121 Si / 1000 Ang^3
#
#
#
# Elastic Constant Matrix: (Units=GPa)
#
#
# Indices 1 2 3 4 5 6 
#
# 1 77.7754 0.4032 50.3410 0.0000 0.0000 0.0000
# 2 0.4032 77.7754 50.3410 0.0000 0.0000 0.0000
# 3 50.3410 50.3410 151.1090 0.0000 0.0000 0.0000
# 4 0.0000 0.0000 0.0000 3.8419 0.0000 0.0000
# 5 0.0000 0.0000 0.0000 0.0000 3.8419 0.0000
# 6 0.0000 0.0000 0.0000 0.0000 0.0000 -2.0805
#
#
#
# Elastic Compliance Matrix: (Units=1/GPa)
#
#
# Indices 1 2 3 4 5 6 
#
# 1 0.017664 0.004739 -0.007463 0.000000 0.000000 0.000000
# 2 0.004739 0.017664 -0.007463 0.000000 0.000000 0.000000
# 3 -0.007463 -0.007463 0.011591 0.000000 0.000000 0.000000
# 4 0.000000 0.000000 0.000000 0.260285 0.000000 0.000000
# 5 0.000000 0.000000 0.000000 0.000000 0.260285 0.000000
# 6 0.000000 0.000000 0.000000 0.000000 0.000000 -0.480646
#
#
# Mechanical properties :
#
#
# Convention : Reuss Voigt Hill
#
# Bulk Modulus (GPa) = 37.67507 56.53671 47.10589
# Shear Modulus (GPa) = 43.07991 14.82564 28.95278
#
# Velocity S-wave (km/s) = 4.95872 2.90897 4.06515
# Velocity P-wave (km/s) = 7.36811 6.59943 6.99434
#
# Compressibility (1/GPa) = 0.02654275
#
# Stress axis : x y z
#
# Youngs Moduli (GPa) = 56.61323 56.61323 86.27754
#
# Poissons Ratio (x) = -0.26830 0.64392
# Poissons Ratio (y) = -0.26830 0.64392
# Poissons Ratio (z) = 0.42253 0.42253
#
# Static dielectric constant tensor:
#      x y z
#    x 1.594380 0.000000 0.000000 
#    y 0.000000 1.594380 0.000000 
#    z 0.000000 0.000000 1.614230 
# 
# From -- ./inp_files/1543.got.cif
#   From: 2010.05.17/outbox.cif.g08.bks.cpg/sg93_1_cif.got.tgz:1543.got - 2010.06.03 19:38:44.
