data_PCOD9549432
_publ_section_title
;
Structure prediction by ZEFSAII (Michael W. Deem and Ramdas Pophale) SiO2 
 PCOD9549432
Probable space group: P 41 21 2
;
_chemical_formula_sum "Si O2"
_cell_formula_units_Z 48
_cell_length_a 20.851691
_cell_length_b 20.851691
_cell_length_c 5.229863
_cell_angle_alpha 90.000000
_cell_angle_beta 90.000000
_cell_angle_gamma 90.000000
_cell_volume 2273.907915
_symmetry_space_group_name_H-M "P 41 21 2"
_symmetry_group_IT_number 92
_symmetry_cell_setting 'tetragonal'
loop_
_space_group_symop_operation_xyz
x,y,z
1/2-y,1/2+x,1/4+z
-x,-y,1/2+z
1/2+y,1/2-x,3/4+z
1/2+x,1/2-y,3/4-z
1/2-x,1/2+y,1/4-z
y,x,-z
-y,-x,1/2-z
loop_
_atom_site_type_symbol
_atom_site_label
_atom_site_fract_x
_atom_site_fract_y
_atom_site_fract_z
Si Si1 0.411633 0.353802 0.755607
Si Si2 0.324951 0.975602 0.357670
Si Si3 0.240821 0.140626 0.998558
Si Si4 0.247600 0.002554 0.843954
Si Si5 0.234256 0.321458 0.319617
Si Si6 0.645641 0.883834 0.845500
O O1 0.389123 0.389123 0.500000
O O2 0.479771 0.321372 0.699402
O O3 0.367611 0.289784 0.780310
O O4 0.397884 0.397884 0.000000
O O5 0.267543 0.973492 0.569638
O O6 0.366413 0.911021 0.394361
O O7 0.362365 0.041982 0.426523
O O8 0.298038 0.984478 0.070286
O O9 0.280259 0.119397 0.248033
O O10 0.169894 0.169894 0.000000
O O11 0.284548 0.198106 0.899803
O O12 0.245831 0.078955 0.820103
O O13 0.270120 0.270120 0.500000
O O14 0.175868 0.356925 0.461550
#
# Coordination Sequence:
#
# PCOD9549432 Si02
#       6
#     8   8   8   8   8   8
#     4  11  23  37  60  90 120 155 196 248 304 363
#     4  11  24  40  61  86 122 166 205 247 298 353
#     4  11  22  37  60  89 121 154 200 253 308 360
#     4  11  23  40  61  89 122 158 198 250 306 366
#     4  11  20  32  60  91 119 151 199 251 309 354
#     4  11  23  40  59  88 124 163 205 253 299 366
#
# _framework density 21.109034999999999
#
# number of rings (size 3 to 8) (size 9 to 14) (size 15 to 20)
#    0.000    1.000    5.000    2.500    4.667    0.000 
#    0.000    3.333    0.000    1.000    0.000    0.000 
#    0.000    0.000    0.000    0.000    0.000    0.000 
#
# Total GULP energy -267702.876749 kJ/mol
# GULP energy per Si atom -5577.143266 kJ/mol
# Density = 2.106099 g / cm^3
# Si number density = 21.109035 Si / 1000 Ang^3
#
#
#
# Elastic Constant Matrix: (Units=GPa)
#
#
# Indices 1 2 3 4 5 6 
#
# 1 27.3419 46.1521 22.0920 0.0000 0.0000 0.0000
# 2 46.1521 27.3419 22.0920 0.0000 0.0000 0.0000
# 3 22.0920 22.0920 62.4564 0.0000 0.0000 0.0000
# 4 0.0000 0.0000 0.0000 23.9207 0.0000 0.0000
# 5 0.0000 0.0000 0.0000 0.0000 23.9207 0.0000
# 6 0.0000 0.0000 0.0000 0.0000 0.0000 23.7320
#
#
#
# Elastic Compliance Matrix: (Units=1/GPa)
#
#
# Indices 1 2 3 4 5 6 
#
# 1 -0.017941 0.035222 -0.006113 0.000000 0.000000 0.000000
# 2 0.035222 -0.017941 -0.006113 0.000000 0.000000 0.000000
# 3 -0.006113 -0.006113 0.020336 0.000000 0.000000 0.000000
# 4 0.000000 0.000000 0.000000 0.041805 0.000000 0.000000
# 5 0.000000 0.000000 0.000000 0.000000 0.041805 0.000000
# 6 0.000000 0.000000 0.000000 0.000000 0.000000 0.042137
#
#
# Mechanical properties :
#
#
# Convention : Reuss Voigt Hill
#
# Bulk Modulus (GPa) = 32.84345 33.09023 32.96684
# Shear Modulus (GPa) = 67.24296 16.10164 41.67230
#
# Velocity S-wave (km/s) = 5.65015 2.76485 4.44796
# Velocity P-wave (km/s) = 7.62616 5.08944 6.48308
#
# Compressibility (1/GPa) = 0.03044748
#
# Stress axis : x y z
#
# Youngs Moduli (GPa) = -55.73963 -55.73963 49.17489
#
# Poissons Ratio (x) = 1.96327 0.30060
# Poissons Ratio (y) = 1.96327 0.30060
# Poissons Ratio (z) = -0.34072 -0.34072
#
# Static dielectric constant tensor:
#      x y z
#    x 1.860030 0.000000 0.000000 
#    y 0.000000 1.860030 0.000000 
#    z 0.000000 0.000000 1.835440 
# 
# From -- ./inp_files/660.got.cif
#   From: 2010.05.17/outbox.cif.g08.bks.cpg/sg92_1_cif.got.tgz:660.got - 2010.06.03 19:35:17.
