data_PCOD9549931
_publ_section_title
;
Structure prediction by ZEFSAII (Michael W. Deem and Ramdas Pophale) SiO2 
 PCOD9549931
Probable space group: P 42 21 2
;
_chemical_formula_sum "Si O2"
_cell_formula_units_Z 64
_cell_length_a 17.700685
_cell_length_b 17.700685
_cell_length_c 12.151858
_cell_angle_alpha 90.000000
_cell_angle_beta 90.000000
_cell_angle_gamma 90.000000
_cell_volume 3807.350269
_symmetry_space_group_name_H-M "P 42 21 2"
_symmetry_group_IT_number 94
_symmetry_cell_setting 'tetragonal'
loop_
_space_group_symop_operation_xyz
x,y,z
1/2-y,1/2+x,1/2+z
-x,-y,z
1/2+y,1/2-x,1/2+z
1/2+x,1/2-y,1/2-z
1/2-x,1/2+y,1/2-z
y,x,-z
-y,-x,-z
loop_
_atom_site_type_symbol
_atom_site_label
_atom_site_fract_x
_atom_site_fract_y
_atom_site_fract_z
Si Si1 0.834122 0.953128 1.000000
Si Si2 0.426542 0.299812 0.869534
Si Si3 0.887301 0.238458 0.000000
Si Si4 0.331327 0.201730 0.719849
Si Si5 0.791175 0.915594 0.244660
Si Si6 0.201730 0.331327 0.719849
Si Si7 0.208825 0.084407 0.755340
Si Si8 0.299812 0.426543 0.869534
O O1 0.797161 0.923526 0.887303
O O2 0.919445 0.919445 0.000000
O O3 0.797160 0.923526 0.112697
O O4 0.817867 0.041899 1.000000
O O5 0.381139 0.227292 0.823603
O O6 0.504641 0.304194 0.803407
O O7 0.372542 0.372542 0.846881
O O8 0.438932 0.295696 1.000000
O O9 0.881648 0.287363 0.889265
O O10 0.813638 0.186363 0.000000
O O11 0.881648 0.287364 0.110735
O O12 0.263673 0.263673 0.715853
O O13 0.288862 0.122307 0.726268
O O14 0.711137 0.877693 0.273732
O O15 0.857640 0.857640 0.278895
O O16 0.227292 0.381139 0.823603
O O17 0.195806 0.004641 0.696593
#
# Coordination Sequence:
#
# PCOD9549931 Si02
#       8
#     8   8   8   8   8   8   8   8
#     4  10  20  33  52  81 109 134 171 225 279 323
#     4  10  21  36  54  78 109 143 178 219 268 321
#     4  10  18  33  54  77 106 141 179 219 263 315
#     4   9  19  34  53  76 104 140 182 223 259 312
#     4  10  21  35  54  80 109 141 179 220 268 320
#     4   9  19  34  53  76 104 140 182 223 259 312
#     4  10  21  35  54  80 109 141 179 220 268 320
#     4  10  21  36  54  78 109 143 178 219 268 321
#
# _framework density 16.80959
#
# number of rings (size 3 to 8) (size 9 to 14) (size 15 to 20)
#    0.000    2.250    2.500    0.000    3.500    1.250 
#    0.000    3.750    0.000    0.750    0.000    3.500 
#    0.000    0.000    0.000    0.000    0.000    0.000 
#
# Total GULP energy -356458.988244 kJ/mol
# GULP energy per Si atom -5569.671691 kJ/mol
# Density = 1.677133 g / cm^3
# Si number density = 16.809590 Si / 1000 Ang^3
#
#
#
# Elastic Constant Matrix: (Units=GPa)
#
#
# Indices 1 2 3 4 5 6 
#
# 1 58.8160 63.8059 49.5701 0.0000 0.0000 0.0000
# 2 63.8059 58.8202 49.5698 0.0000 0.0000 0.0000
# 3 49.5701 49.5698 106.2028 0.0000 0.0000 0.0000
# 4 0.0000 0.0000 0.0000 15.0592 0.0000 0.0000
# 5 0.0000 0.0000 0.0000 0.0000 15.0595 0.0000
# 6 0.0000 0.0000 0.0000 0.0000 0.0000 21.2104
#
#
#
# Elastic Compliance Matrix: (Units=1/GPa)
#
#
# Indices 1 2 3 4 5 6 
#
# 1 -0.093702 0.106794 -0.006110 0.000000 0.000000 0.000000
# 2 0.106794 -0.093690 -0.006116 0.000000 0.000000 0.000000
# 3 -0.006110 -0.006116 0.015123 0.000000 0.000000 0.000000
# 4 0.000000 0.000000 0.000000 0.066404 0.000000 0.000000
# 5 0.000000 0.000000 0.000000 0.000000 0.066403 0.000000
# 6 0.000000 0.000000 0.000000 0.000000 0.000000 0.047147
#
#
# Mechanical properties :
#
#
# Convention : Reuss Voigt Hill
#
# Bulk Modulus (GPa) = 59.29554 61.08120 60.18837
# Shear Modulus (GPa) = -28.43674 14.32539 -7.05567
#
# Velocity S-wave (km/s) = -4.11749 2.92244 -2.05098
# Velocity P-wave (km/s) = 3.57022 6.91401 5.50227
#
# Compressibility (1/GPa) = 0.01686467
#
# Stress axis : x y z
#
# Youngs Moduli (GPa) = -10.67211 -10.67345 66.12614
#
# Poissons Ratio (x) = 1.13986 0.40405
# Poissons Ratio (y) = 1.13972 0.40444
# Poissons Ratio (z) = -0.06521 -0.06528
#
# Static dielectric constant tensor:
#      x y z
#    x 1.560390 0.000000 0.000000 
#    y 0.000000 1.560390 0.000000 
#    z 0.000000 0.000000 1.583110 
# 
# From -- ./inp_files/2835.got.cif
#   From: 2010.05.17/outbox.cif.g08.bks.cpg/sg94_2_cif.got.tgz:2835.got - 2010.06.03 19:43:16.
