data_PCOD9549369
_publ_section_title
;
Structure prediction by ZEFSAII (Michael W. Deem and Ramdas Pophale) SiO2 
 PCOD9549369
Probable space group: P 41 21 2
;
_chemical_formula_sum "Si O2"
_cell_formula_units_Z 44
_cell_length_a 9.012455
_cell_length_b 9.012455
_cell_length_c 25.721418
_cell_angle_alpha 90.000000
_cell_angle_beta 90.000000
_cell_angle_gamma 90.000000
_cell_volume 2089.205333
_symmetry_space_group_name_H-M "P 41 21 2"
_symmetry_group_IT_number 92
_symmetry_cell_setting 'tetragonal'
loop_
_space_group_symop_operation_xyz
x,y,z
1/2-y,1/2+x,1/4+z
-x,-y,1/2+z
1/2+y,1/2-x,3/4+z
1/2+x,1/2-y,3/4-z
1/2-x,1/2+y,1/4-z
y,x,-z
-y,-x,1/2-z
loop_
_atom_site_type_symbol
_atom_site_label
_atom_site_fract_x
_atom_site_fract_y
_atom_site_fract_z
Si Si1 0.703536 0.897447 0.590599
Si Si2 0.695552 0.615873 0.169688
Si Si3 0.464727 0.676162 0.549557
Si Si4 0.555684 0.444317 0.750000
Si Si5 0.379802 0.580200 0.437182
Si Si6 0.438483 0.128419 0.599216
O O1 0.612118 0.756938 0.569544
O O2 0.811266 0.941806 0.542698
O O3 0.801839 0.861462 0.641110
O O4 0.579490 0.019814 0.607158
O O5 0.829094 0.724449 0.183969
O O6 0.594904 0.566427 0.217615
O O7 0.591469 0.731529 0.137216
O O8 0.790665 0.470544 0.152214
O O9 0.445211 0.661087 0.487809
O O10 0.465762 0.513107 0.574520
O O11 0.227329 0.493885 0.450202
#
# Coordination Sequence:
#
# PCOD9549369 Si02
#       6
#     8   8   8   4   8   8
#     4  11  24  42  71 104 138 183 230 293 348 413
#     4  11  25  44  65 101 138 180 226 289 340 422
#     4  10  24  41  69 104 139 185 235 285 354 417
#     4  12  24  44  70 102 136 174 248 284 346 410
#     4  11  21  43  71  99 138 184 235 286 346 423
#     4  11  24  45  67  98 140 183 224 279 359 404
#
# _framework density 21.060638999999998
#
# number of rings (size 3 to 8) (size 9 to 14) (size 15 to 20)
#    0.000    1.091    1.818    4.364    2.545    1.455 
#    3.273    0.000    0.000    0.000    0.000    0.000 
#    0.000    0.000    0.000    0.000    0.000    0.000 
#
# Total GULP energy -245122.536333 kJ/mol
# GULP energy per Si atom -5570.966735 kJ/mol
# Density = 2.101270 g / cm^3
# Si number density = 21.060639 Si / 1000 Ang^3
#
#
#
# Elastic Constant Matrix: (Units=GPa)
#
#
# Indices 1 2 3 4 5 6 
#
# 1 110.0437 56.3668 29.3535 0.0000 0.0000 0.0000
# 2 56.3668 110.0434 29.3535 0.0000 0.0000 0.0000
# 3 29.3535 29.3535 70.5585 0.0000 0.0000 0.0000
# 4 0.0000 0.0000 0.0000 26.7753 0.0000 0.0000
# 5 0.0000 0.0000 0.0000 0.0000 26.7751 0.0000
# 6 0.0000 0.0000 0.0000 0.0000 0.0000 25.2037
#
#
#
# Elastic Compliance Matrix: (Units=1/GPa)
#
#
# Indices 1 2 3 4 5 6 
#
# 1 0.012836 -0.005794 -0.002930 0.000000 0.000000 0.000000
# 2 -0.005794 0.012836 -0.002930 0.000000 0.000000 0.000000
# 3 -0.002930 -0.002930 0.016610 0.000000 0.000000 0.000000
# 4 0.000000 0.000000 0.000000 0.037348 0.000000 0.000000
# 5 0.000000 0.000000 0.000000 0.000000 0.037348 0.000000
# 6 0.000000 0.000000 0.000000 0.000000 0.000000 0.039677
#
#
# Mechanical properties :
#
#
# Convention : Reuss Voigt Hill
#
# Bulk Modulus (GPa) = 52.69703 57.86593 55.28148
# Shear Modulus (GPa) = 26.84009 27.45561 27.14785
#
# Velocity S-wave (km/s) = 3.57377 3.61452 3.59420
# Velocity P-wave (km/s) = 6.48884 6.70486 6.59774
#
# Compressibility (1/GPa) = 0.01897640
#
# Stress axis : x y z
#
# Youngs Moduli (GPa) = 77.90320 77.90298 60.20299
#
# Poissons Ratio (x) = 0.45134 0.17639
# Poissons Ratio (y) = 0.45134 0.17639
# Poissons Ratio (z) = 0.22825 0.22825
#
# Static dielectric constant tensor:
#      x y z
#    x 1.829320 0.000000 0.000000 
#    y 0.000000 1.829320 0.000000 
#    z 0.000000 0.000000 1.831480 
# 
# From -- ./inp_files/4413.got.cif
#   From: 2010.05.17/outbox.cif.g08.bks.cpg/sg92_3_cif.got.tgz:4413.got - 2010.06.03 19:35:17.
