data_PCOD9549066
_publ_section_title
;
Structure prediction by ZEFSAII (Michael W. Deem and Ramdas Pophale) SiO2 
 PCOD9549066
Probable space group: P 41 21 2
;
_chemical_formula_sum "Si O2"
_cell_formula_units_Z 36
_cell_length_a 14.466018
_cell_length_b 14.466018
_cell_length_c 7.787729
_cell_angle_alpha 90.000000
_cell_angle_beta 90.000000
_cell_angle_gamma 90.000000
_cell_volume 1629.704380
_symmetry_space_group_name_H-M "P 41 21 2"
_symmetry_group_IT_number 92
_symmetry_cell_setting 'tetragonal'
loop_
_space_group_symop_operation_xyz
x,y,z
1/2-y,1/2+x,1/4+z
-x,-y,1/2+z
1/2+y,1/2-x,3/4+z
1/2+x,1/2-y,3/4-z
1/2-x,1/2+y,1/4-z
y,x,-z
-y,-x,1/2-z
loop_
_atom_site_type_symbol
_atom_site_label
_atom_site_fract_x
_atom_site_fract_y
_atom_site_fract_z
Si Si1 0.310063 0.455367 0.069007
Si Si2 0.308372 0.080745 0.769504
Si Si3 0.235997 0.380666 0.428712
Si Si4 0.145033 0.145033 0.000000
Si Si5 0.534132 0.892146 0.554529
O O1 0.270301 0.406283 0.238325
O O2 0.348270 0.553821 0.132714
O O3 0.219099 0.465836 0.950603
O O4 0.391139 0.391139 0.000000
O O5 0.339740 0.134351 0.600767
O O6 0.391622 0.073626 0.908176
O O7 0.268478 0.979790 0.731013
O O8 0.231650 0.140254 0.872008
O O9 0.306002 0.306002 0.500000
O O10 0.438265 0.932299 0.480483
#
# Coordination Sequence:
#
# PCOD9549066 Si02
#       5
#     8   8   8   4   8
#     4  10  23  42  68  94 123 173 217 258 323 390
#     4  10  20  40  64  89 129 167 205 257 330 366
#     4  10  22  42  66  91 130 166 208 269 318 385
#     4  10  20  40  64  94 130 166 212 264 314 386
#     4  11  21  41  65  94 127 167 208 261 321 387
#
# _framework density 22.089896
#
# number of rings (size 3 to 8) (size 9 to 14) (size 15 to 20)
#    0.000    1.778    6.667    0.000    6.222    3.556 
#   12.000    0.000    0.000    0.000    0.000    0.000 
#    0.000    0.000    0.000    0.000    0.000    0.000 
#
# Total GULP energy -201384.934515 kJ/mol
# GULP energy per Si atom -5594.025959 kJ/mol
# Density = 2.203962 g / cm^3
# Si number density = 22.089896 Si / 1000 Ang^3
#
#
#
# Elastic Constant Matrix: (Units=GPa)
#
#
# Indices 1 2 3 4 5 6 
#
# 1 105.9827 75.6630 26.1535 0.0000 0.0000 0.0000
# 2 75.6630 105.9827 26.1535 0.0000 0.0000 0.0000
# 3 26.1535 26.1535 54.4425 0.0000 0.0000 0.0000
# 4 0.0000 0.0000 0.0000 30.0419 0.0000 0.0000
# 5 0.0000 0.0000 0.0000 0.0000 30.0419 0.0000
# 6 0.0000 0.0000 0.0000 0.0000 0.0000 36.9141
#
#
#
# Elastic Compliance Matrix: (Units=1/GPa)
#
#
# Indices 1 2 3 4 5 6 
#
# 1 0.019685 -0.013296 -0.003069 0.000000 0.000000 0.000000
# 2 -0.013296 0.019685 -0.003069 0.000000 0.000000 0.000000
# 3 -0.003069 -0.003069 0.021317 0.000000 0.000000 0.000000
# 4 0.000000 0.000000 0.000000 0.033287 0.000000 0.000000
# 5 0.000000 0.000000 0.000000 0.000000 0.033287 0.000000
# 6 0.000000 0.000000 0.000000 0.000000 0.000000 0.027090
#
#
# Mechanical properties :
#
#
# Convention : Reuss Voigt Hill
#
# Bulk Modulus (GPa) = 45.83364 58.03868 51.93616
# Shear Modulus (GPa) = 24.93845 28.62878 26.78361
#
# Velocity S-wave (km/s) = 3.36363 3.60392 3.48585
# Velocity P-wave (km/s) = 5.98992 6.60671 6.30586
#
# Compressibility (1/GPa) = 0.02181803
#
# Stress axis : x y z
#
# Youngs Moduli (GPa) = 50.79896 50.79896 46.91132
#
# Poissons Ratio (x) = 0.67544 0.14398
# Poissons Ratio (y) = 0.67544 0.14398
# Poissons Ratio (z) = 0.15591 0.15591
#
# Static dielectric constant tensor:
#      x y z
#    x 1.848330 0.000000 0.000000 
#    y 0.000000 1.848330 0.000000 
#    z 0.000000 0.000000 1.822870 
# 
# From -- ./inp_files/1253.got.cif
#   From: 2010.05.17/outbox.cif.g08.bks.cpg/sg92_1_cif.got.tgz:1253.got - 2010.06.03 19:35:17.
