data_PCOD9549405
_publ_section_title
;
Structure prediction by ZEFSAII (Michael W. Deem and Ramdas Pophale) SiO2 
 PCOD9549405
Probable space group: P 41 21 2
;
_chemical_formula_sum "Si O2"
_cell_formula_units_Z 24
_cell_length_a 6.870423
_cell_length_b 6.870423
_cell_length_c 18.719845
_cell_angle_alpha 90.000000
_cell_angle_beta 90.000000
_cell_angle_gamma 90.000000
_cell_volume 883.627456
_symmetry_space_group_name_H-M "P 41 21 2"
_symmetry_group_IT_number 92
_symmetry_cell_setting 'tetragonal'
loop_
_space_group_symop_operation_xyz
x,y,z
1/2-y,1/2+x,1/4+z
-x,-y,1/2+z
1/2+y,1/2-x,3/4+z
1/2+x,1/2-y,3/4-z
1/2-x,1/2+y,1/4-z
y,x,-z
-y,-x,1/2-z
loop_
_atom_site_type_symbol
_atom_site_label
_atom_site_fract_x
_atom_site_fract_y
_atom_site_fract_z
Si Si1 0.466130 0.548614 0.666471
Si Si2 0.542521 0.097179 0.073809
Si Si3 0.306590 0.583939 0.462572
O O1 0.485251 0.514750 0.750000
O O2 0.235999 0.517287 0.651720
O O3 0.399797 0.749624 0.512164
O O4 0.520315 0.763328 0.638620
O O5 0.574170 0.907918 0.293684
O O6 0.425176 0.604205 0.116385
O O7 0.383271 0.383271 0.500000
#
# Coordination Sequence:
#
# PCOD9549405 Si02
#       3
#     8   8   8
#     4  11  24  45  74 112 152 201 262 328 398 473
#     4  11  23  46  81 108 155 207 259 326 404 471
#     4  10  24  49  77 112 152 207 261 329 401 474
#
# _framework density 27.160768999999998
#
# number of rings (size 3 to 8) (size 9 to 14) (size 15 to 20)
#    0.000    1.333    3.333    1.000    4.667    0.000 
#   12.000   10.000    0.000    0.000    0.000    0.000 
#    0.000    0.000    0.000    0.000    0.000    0.000 
#
# Total GULP energy -134764.915709 kJ/mol
# GULP energy per Si atom -5615.204821 kJ/mol
# Density = 2.709895 g / cm^3
# Si number density = 27.160769 Si / 1000 Ang^3
#
#
#
# Elastic Constant Matrix: (Units=GPa)
#
#
# Indices 1 2 3 4 5 6 
#
# 1 152.3879 46.4182 75.9830 0.0000 0.0000 0.0000
# 2 46.4182 152.3877 75.9830 0.0000 0.0000 0.0000
# 3 75.9830 75.9830 250.4901 0.0000 0.0000 0.0000
# 4 0.0000 0.0000 0.0000 49.7315 0.0000 0.0000
# 5 0.0000 0.0000 0.0000 0.0000 49.7314 0.0000
# 6 0.0000 0.0000 0.0000 0.0000 0.0000 13.5286
#
#
#
# Elastic Compliance Matrix: (Units=1/GPa)
#
#
# Indices 1 2 3 4 5 6 
#
# 1 0.007993 -0.001444 -0.001986 0.000000 0.000000 0.000000
# 2 -0.001444 0.007993 -0.001986 0.000000 0.000000 0.000000
# 3 -0.001986 -0.001986 0.005197 0.000000 0.000000 0.000000
# 4 0.000000 0.000000 0.000000 0.020108 0.000000 0.000000
# 5 0.000000 0.000000 0.000000 0.000000 0.020108 0.000000
# 6 0.000000 0.000000 0.000000 0.000000 0.000000 0.073918
#
#
# Mechanical properties :
#
#
# Convention : Reuss Voigt Hill
#
# Bulk Modulus (GPa) = 96.63181 105.78158 101.20670
# Shear Modulus (GPa) = 33.42265 46.39040 39.90653
#
# Velocity S-wave (km/s) = 3.51172 4.13727 3.83727
# Velocity P-wave (km/s) = 7.21789 7.86471 7.54823
#
# Compressibility (1/GPa) = 0.01034856
#
# Stress axis : x y z
#
# Youngs Moduli (GPa) = 125.11681 125.11667 192.40917
#
# Poissons Ratio (x) = 0.18069 0.38220
# Poissons Ratio (y) = 0.18069 0.38220
# Poissons Ratio (z) = 0.24853 0.24853
#
# Static dielectric constant tensor:
#      x y z
#    x 2.153950 0.000000 0.000000 
#    y 0.000000 2.153950 0.000000 
#    z 0.000000 0.000000 2.058760 
# 
# From -- ./inp_files/2449.got.cif
#   From: 2010.05.17/outbox.cif.g08.bks.cpg/sg92_2_cif.got.tgz:2449.got - 2010.06.03 19:35:17.
