data_PCOD9549382
_publ_section_title
;
Structure prediction by ZEFSAII (Michael W. Deem and Ramdas Pophale) SiO2 
 PCOD9549382
Probable space group: P 41 21 2
;
_chemical_formula_sum "Si O2"
_cell_formula_units_Z 28
_cell_length_a 7.075281
_cell_length_b 7.075281
_cell_length_c 21.782312
_cell_angle_alpha 90.000000
_cell_angle_beta 90.000000
_cell_angle_gamma 90.000000
_cell_volume 1090.413853
_symmetry_space_group_name_H-M "P 41 21 2"
_symmetry_group_IT_number 92
_symmetry_cell_setting 'tetragonal'
loop_
_space_group_symop_operation_xyz
x,y,z
1/2-y,1/2+x,1/4+z
-x,-y,1/2+z
1/2+y,1/2-x,3/4+z
1/2+x,1/2-y,3/4-z
1/2-x,1/2+y,1/4-z
y,x,-z
-y,-x,1/2-z
loop_
_atom_site_type_symbol
_atom_site_label
_atom_site_fract_x
_atom_site_fract_y
_atom_site_fract_z
Si Si1 0.107380 0.466199 0.905338
Si Si2 0.367392 0.264694 0.635086
Si Si3 0.718712 0.281289 0.250000
Si Si4 0.599416 0.631707 0.314947
O O1 0.221725 0.659999 0.916339
O O2 0.256345 0.333921 0.870333
O O3 0.940675 0.539753 0.860289
O O4 0.001190 0.327545 0.953391
O O5 0.331547 0.272861 0.560985
O O6 0.492355 0.434610 0.660715
O O7 0.723321 0.502903 0.269496
#
# Coordination Sequence:
#
# PCOD9549382 Si02
#       4
#     8   8   4   8
#     4  11  21  41  70  92 134 183 227 287 347 397
#     4  11  22  44  65  98 141 183 224 301 338 418
#     4  10  24  44  66 108 146 184 238 284 364 422
#     4  11  23  44  69 100 139 186 235 291 346 421
#
# _framework density 25.678324
#
# number of rings (size 3 to 8) (size 9 to 14) (size 15 to 20)
#    0.000    1.143    8.571    0.000    0.000    0.000 
#   15.429    1.429    0.000    0.000    0.000    0.000 
#    0.000    0.000    0.000    0.000    0.000    0.000 
#
# Total GULP energy -156070.232699 kJ/mol
# GULP energy per Si atom -5573.936882 kJ/mol
# Density = 2.561988 g / cm^3
# Si number density = 25.678324 Si / 1000 Ang^3
#
#
#
# Elastic Constant Matrix: (Units=GPa)
#
#
# Indices 1 2 3 4 5 6 
#
# 1 112.4148 25.7787 9.8096 0.0000 0.0000 0.0000
# 2 25.7787 112.4153 9.8096 0.0000 0.0000 0.0000
# 3 9.8096 9.8096 54.6144 0.0000 0.0000 0.0000
# 4 0.0000 0.0000 0.0000 26.7674 0.0000 0.0000
# 5 0.0000 0.0000 0.0000 0.0000 26.7671 0.0000
# 6 0.0000 0.0000 0.0000 0.0000 0.0000 58.4539
#
#
#
# Elastic Compliance Matrix: (Units=1/GPa)
#
#
# Indices 1 2 3 4 5 6 
#
# 1 0.009484 -0.002058 -0.001334 0.000000 0.000000 0.000000
# 2 -0.002058 0.009484 -0.001334 0.000000 0.000000 0.000000
# 3 -0.001334 -0.001334 0.018789 0.000000 0.000000 0.000000
# 4 0.000000 0.000000 0.000000 0.037359 0.000000 0.000000
# 5 0.000000 0.000000 0.000000 0.000000 0.037359 0.000000
# 6 0.000000 0.000000 0.000000 0.000000 0.000000 0.017107
#
#
# Mechanical properties :
#
#
# Convention : Reuss Voigt Hill
#
# Bulk Modulus (GPa) = 35.32889 41.13783 38.23336
# Shear Modulus (GPa) = 33.67682 38.00079 35.83880
#
# Velocity S-wave (km/s) = 3.62538 3.85109 3.73994
# Velocity P-wave (km/s) = 5.59577 5.98580 5.79406
#
# Compressibility (1/GPa) = 0.02830545
#
# Stress axis : x y z
#
# Youngs Moduli (GPa) = 105.44010 105.44060 53.22172
#
# Poissons Ratio (x) = 0.21705 0.07098
# Poissons Ratio (y) = 0.21705 0.07098
# Poissons Ratio (z) = 0.14063 0.14063
#
# Static dielectric constant tensor:
#      x y z
#    x 2.047520 0.000000 0.000000 
#    y 0.000000 2.047510 0.000000 
#    z 0.000000 0.000000 2.126290 
# 
# From -- ./inp_files/3679.got.cif
#   From: 2010.05.17/outbox.cif.g08.bks.cpg/sg92_2_cif.got.tgz:3679.got - 2010.06.03 19:35:17.
