data_PCOD9549476
_publ_section_title
;
Structure prediction by ZEFSAII (Michael W. Deem and Ramdas Pophale) SiO2 
 PCOD9549476
Probable space group: P 41 21 2
;
_chemical_formula_sum "Si O2"
_cell_formula_units_Z 60
_cell_length_a 18.113211
_cell_length_b 18.113211
_cell_length_c 8.240720
_cell_angle_alpha 90.000000
_cell_angle_beta 90.000000
_cell_angle_gamma 90.000000
_cell_volume 2703.684745
_symmetry_space_group_name_H-M "P 41 21 2"
_symmetry_group_IT_number 92
_symmetry_cell_setting 'tetragonal'
loop_
_space_group_symop_operation_xyz
x,y,z
1/2-y,1/2+x,1/4+z
-x,-y,1/2+z
1/2+y,1/2-x,3/4+z
1/2+x,1/2-y,3/4-z
1/2-x,1/2+y,1/4-z
y,x,-z
-y,-x,1/2-z
loop_
_atom_site_type_symbol
_atom_site_label
_atom_site_fract_x
_atom_site_fract_y
_atom_site_fract_z
Si Si1 0.797205 0.797205 0.500000
Si Si2 0.229655 0.055926 0.163595
Si Si3 0.296524 0.765547 0.912909
Si Si4 0.948607 0.743246 0.980518
Si Si5 0.691999 0.060521 0.454653
Si Si6 0.566096 0.452525 0.446058
Si Si7 0.572974 0.965667 0.064163
Si Si8 0.830029 0.047968 0.220724
O O1 0.775865 0.883345 0.521375
O O2 0.766719 0.766943 0.330535
O O3 0.264256 0.079828 0.335496
O O4 0.145770 0.046290 0.223678
O O5 0.276112 0.985077 0.105982
O O6 0.249205 0.750796 0.750000
O O7 0.377131 0.730750 0.871850
O O8 0.307582 0.851010 0.955103
O O9 0.966983 0.660657 0.927638
O O10 0.018340 0.797939 0.952929
O O11 0.607402 0.042062 0.408080
O O12 0.755668 0.044479 0.323157
O O13 0.527882 0.527882 0.500000
O O14 0.560440 0.439561 0.250000
O O15 0.514624 0.388437 0.521436
O O16 0.543304 0.041136 0.136396
O O17 0.875842 0.124159 0.250000
#
# Coordination Sequence:
#
# PCOD9549476 Si02
#       8
#     4   8   8   8   8   8   8   8
#     4  12  26  44  82 104 138 192 252 302 368 470
#     4  12  25  43  73 106 145 190 250 307 364 447
#     4  11  24  50  71 105 147 195 251 306 385 451
#     4  11  23  46  73 105 144 196 243 304 386 450
#     4  11  26  46  70 104 145 186 242 320 374 444
#     4  11  25  41  66 103 149 200 249 293 360 443
#     4  11  26  48  75 101 139 182 247 311 381 455
#     4  11  23  44  72 102 147 199 245 299 374 447
#
# _framework density 22.191935999999998
#
# number of rings (size 3 to 8) (size 9 to 14) (size 15 to 20)
#    0.000    0.800    4.000    2.800    8.400    0.000 
#    8.400    0.000    0.000    0.000    0.000    0.000 
#    0.000    0.000    0.000    0.000    0.000    0.000 
#
# Total GULP energy -334573.761022 kJ/mol
# GULP energy per Si atom -5576.229350 kJ/mol
# Density = 2.214143 g / cm^3
# Si number density = 22.191936 Si / 1000 Ang^3
#
#
#
# Elastic Constant Matrix: (Units=GPa)
#
#
# Indices 1 2 3 4 5 6 
#
# 1 32.5394 38.3211 3.3252 0.0000 0.0000 0.0000
# 2 38.3211 32.5390 3.3246 0.0000 0.0000 0.0000
# 3 3.3252 3.3246 86.3016 0.0000 0.0000 0.0000
# 4 0.0000 0.0000 0.0000 27.3783 0.0000 0.0000
# 5 0.0000 0.0000 0.0000 0.0000 27.3789 0.0000
# 6 0.0000 0.0000 0.0000 0.0000 0.0000 29.7277
#
#
#
# Elastic Compliance Matrix: (Units=1/GPa)
#
#
# Indices 1 2 3 4 5 6 
#
# 1 -0.079395 0.093559 -0.000545 0.000000 0.000000 0.000000
# 2 0.093559 -0.079395 -0.000546 0.000000 0.000000 0.000000
# 3 -0.000545 -0.000546 0.011629 0.000000 0.000000 0.000000
# 4 0.000000 0.000000 0.000000 0.036525 0.000000 0.000000
# 5 0.000000 0.000000 0.000000 0.000000 0.036524 0.000000
# 6 0.000000 0.000000 0.000000 0.000000 0.000000 0.033639
#
#
# Mechanical properties :
#
#
# Convention : Reuss Voigt Hill
#
# Bulk Modulus (GPa) = 26.47352 26.81354 26.64353
# Shear Modulus (GPa) = -23.49452 23.99091 0.24819
#
# Velocity S-wave (km/s) = -3.25729 3.29152 0.33479
# Velocity P-wave (km/s) = 1.48032 5.15308 3.49019
#
# Compressibility (1/GPa) = 0.03777359
#
# Stress axis : x y z
#
# Youngs Moduli (GPa) = -12.59531 -12.59517 85.98958
#
# Poissons Ratio (x) = 1.17839 0.04687
# Poissons Ratio (y) = 1.17840 0.04697
# Poissons Ratio (z) = -0.00687 -0.00688
#
# Static dielectric constant tensor:
#      x y z
#    x 1.851880 0.000000 0.000000 
#    y 0.000000 1.851880 0.000000 
#    z 0.000000 0.000000 1.881160 
# 
# From -- ./inp_files/1636.got.cif
#   From: 2010.05.17/outbox.cif.g08.bks.cpg/sg92_1_cif.got.tgz:1636.got - 2010.06.03 19:35:17.
