data_PCOD9549479
_publ_section_title
;
Structure prediction by ZEFSAII (Michael W. Deem and Ramdas Pophale) SiO2 
 PCOD9549479
Probable space group: P 41 21 2
;
_chemical_formula_sum "Si O2"
_cell_formula_units_Z 48
_cell_length_a 11.131660
_cell_length_b 11.131660
_cell_length_c 16.210277
_cell_angle_alpha 90.000000
_cell_angle_beta 90.000000
_cell_angle_gamma 90.000000
_cell_volume 2008.677903
_symmetry_space_group_name_H-M "P 41 21 2"
_symmetry_group_IT_number 92
_symmetry_cell_setting 'tetragonal'
loop_
_space_group_symop_operation_xyz
x,y,z
1/2-y,1/2+x,1/4+z
-x,-y,1/2+z
1/2+y,1/2-x,3/4+z
1/2+x,1/2-y,3/4-z
1/2-x,1/2+y,1/4-z
y,x,-z
-y,-x,1/2-z
loop_
_atom_site_type_symbol
_atom_site_label
_atom_site_fract_x
_atom_site_fract_y
_atom_site_fract_z
Si Si1 0.247521 0.781841 0.564979
Si Si2 0.748363 0.630865 0.422692
Si Si3 0.826653 0.581538 0.938391
Si Si4 0.857514 0.843545 0.670623
Si Si5 0.943129 0.564504 0.117882
Si Si6 0.901708 0.065317 0.552542
O O1 0.204760 0.721720 0.649464
O O2 0.338633 0.702992 0.510374
O O3 0.321381 0.901762 0.582842
O O4 0.127603 0.807970 0.510681
O O5 0.664817 0.664817 0.500000
O O6 0.767401 0.763819 0.384489
O O7 0.871354 0.555002 0.415430
O O8 0.672886 0.552873 0.357965
O O9 0.717151 0.486541 0.936301
O O10 0.923981 0.532190 0.873460
O O11 0.899396 0.590664 0.024211
O O12 0.859334 0.966184 0.618864
O O13 0.002122 0.002122 0.500000
#
# Coordination Sequence:
#
# PCOD9549479 Si02
#       6
#     8   8   8   8   8   8
#     4  11  25  48  71 108 144 199 253 310 394 471
#     4  11  27  43  73 107 148 194 254 319 380 465
#     4  12  25  46  77 106 152 198 252 320 388 481
#     4  11  24  44  75 108 143 193 252 310 393 455
#     4  12  28  47  73 110 150 201 254 323 393 464
#     4  11  23  45  70 102 144 191 242 313 375 460
#
# _framework density 23.896315000000001
#
# number of rings (size 3 to 8) (size 9 to 14) (size 15 to 20)
#    0.000    0.667    3.333    4.000    7.000    2.667 
#    3.000    0.000    0.000    0.000    0.000    0.000 
#    0.000    0.000    0.000    0.000    0.000    0.000 
#
# Total GULP energy -267643.869528 kJ/mol
# GULP energy per Si atom -5575.913948 kJ/mol
# Density = 2.384193 g / cm^3
# Si number density = 23.896315 Si / 1000 Ang^3
#
#
#
# Elastic Constant Matrix: (Units=GPa)
#
#
# Indices 1 2 3 4 5 6 
#
# 1 19.8862 31.9465 13.5694 0.0000 0.0000 0.0000
# 2 31.9465 19.8862 13.5694 0.0000 0.0000 0.0000
# 3 13.5694 13.5694 75.9689 0.0000 0.0000 0.0000
# 4 0.0000 0.0000 0.0000 28.1505 0.0000 0.0000
# 5 0.0000 0.0000 0.0000 0.0000 28.1505 0.0000
# 6 0.0000 0.0000 0.0000 0.0000 0.0000 -0.0483
#
#
#
# Elastic Compliance Matrix: (Units=1/GPa)
#
#
# Indices 1 2 3 4 5 6 
#
# 1 -0.030817 0.052100 -0.003802 0.000000 0.000000 0.000000
# 2 0.052100 -0.030817 -0.003802 0.000000 0.000000 0.000000
# 3 -0.003802 -0.003802 0.014521 0.000000 0.000000 0.000000
# 4 0.000000 0.000000 0.000000 0.035523 0.000000 0.000000
# 5 0.000000 0.000000 0.000000 0.000000 0.035523 0.000000
# 6 0.000000 0.000000 0.000000 0.000000 0.000000-20.710085
#
#
# Mechanical properties :
#
#
# Convention : Reuss Voigt Hill
#
# Bulk Modulus (GPa) = 23.87681 25.99019 24.93350
# Shear Modulus (GPa) = -0.24083 15.02763 7.39340
#
# Velocity S-wave (km/s) = -0.31781 2.51044 1.76087
# Velocity P-wave (km/s) = 3.14307 4.39351 3.81980
#
# Compressibility (1/GPa) = 0.04188165
#
# Stress axis : x y z
#
# Youngs Moduli (GPa) = -32.44975 -32.44975 68.86425
#
# Poissons Ratio (x) = 1.69064 0.26179
# Poissons Ratio (y) = 1.69064 0.26179
# Poissons Ratio (z) = -0.12336 -0.12336
#
# Static dielectric constant tensor:
#      x y z
#    x 2.083690 0.000000 0.000000 
#    y 0.000000 2.083690 0.000000 
#    z 0.000000 0.000000 2.041450 
# 
# From -- ./inp_files/3110.got.cif
#   From: 2010.05.17/outbox.cif.g08.bks.cpg/sg92_2_cif.got.tgz:3110.got - 2010.06.03 19:35:17.
