data_PCOD9549890
_publ_section_title
;
Structure prediction by ZEFSAII (Michael W. Deem and Ramdas Pophale) SiO2 
 PCOD9549890
Probable space group: P 42 2 2
;
_chemical_formula_sum "Si O2"
_cell_formula_units_Z 22
_cell_length_a 8.135234
_cell_length_b 8.135234
_cell_length_c 13.556881
_cell_angle_alpha 90.000000
_cell_angle_beta 90.000000
_cell_angle_gamma 90.000000
_cell_volume 897.221935
_symmetry_space_group_name_H-M "P 42 2 2"
_symmetry_group_IT_number 93
_symmetry_cell_setting 'tetragonal'
loop_
_space_group_symop_operation_xyz
x,y,z
-y,x,1/2+z
-x,-y,z
y,-x,1/2+z
x,-y,-z
-x,y,-z
y,x,1/2-z
-y,-x,1/2-z
loop_
_atom_site_type_symbol
_atom_site_label
_atom_site_fract_x
_atom_site_fract_y
_atom_site_fract_z
Si Si1 0.232098 0.919391 0.894636
Si Si2 0.558284 0.317254 0.610201
Si Si3 0.500000 0.000000 0.251548
Si Si4 0.000000 0.000000 0.250000
O O1 0.331091 0.753236 0.901116
O O2 0.341442 0.028161 0.820221
O O3 0.064144 0.875985 0.836086
O O4 0.207540 0.000000 0.000000
O O5 0.500000 0.500000 0.638352
O O6 0.500000 0.275656 0.500000
O O7 0.516982 0.166271 0.683232
#
# Coordination Sequence:
#
# PCOD9549890 Si02
#       4
#     8   8   4   2
#     4  12  29  50  76 119 156 209 266 339 419 499
#     4  11  28  53  82 121 162 213 282 348 415 509
#     4  12  26  50  82 116 162 212 262 334 428 482
#     4  12  26  52  78 106 162 208 266 334 408 508
#
# _framework density 24.520130000000002
#
# number of rings (size 3 to 8) (size 9 to 14) (size 15 to 20)
#    0.000    0.364    3.636    1.636   15.273    5.818 
#    0.000    0.000    0.000    0.000    0.000    0.000 
#    0.000    0.000    0.000    0.000    0.000    0.000 
#
# Total GULP energy -122626.045521 kJ/mol
# GULP energy per Si atom -5573.911160 kJ/mol
# Density = 2.446432 g / cm^3
# Si number density = 24.520130 Si / 1000 Ang^3
#
#
#
# Elastic Constant Matrix: (Units=GPa)
#
#
# Indices 1 2 3 4 5 6 
#
# 1 98.2264 50.9992 74.2936 0.0000 0.0000 0.0000
# 2 50.9992 98.2264 74.2936 0.0000 0.0000 0.0000
# 3 74.2936 74.2936 252.4824 0.0000 0.0000 0.0000
# 4 0.0000 0.0000 0.0000 51.4111 0.0000 0.0000
# 5 0.0000 0.0000 0.0000 0.0000 51.4111 0.0000
# 6 0.0000 0.0000 0.0000 0.0000 0.0000 44.4389
#
#
#
# Elastic Compliance Matrix: (Units=1/GPa)
#
#
# Indices 1 2 3 4 5 6 
#
# 1 0.015326 -0.005848 -0.002789 0.000000 0.000000 0.000000
# 2 -0.005848 0.015326 -0.002789 0.000000 0.000000 0.000000
# 3 -0.002789 -0.002789 0.005602 0.000000 0.000000 0.000000
# 4 0.000000 0.000000 0.000000 0.019451 0.000000 0.000000
# 5 0.000000 0.000000 0.000000 0.000000 0.019451 0.000000
# 6 0.000000 0.000000 0.000000 0.000000 0.000000 0.022503
#
#
# Mechanical properties :
#
#
# Convention : Reuss Voigt Hill
#
# Bulk Modulus (GPa) = 74.61221 94.23421 84.42321
# Shear Modulus (GPa) = 40.00667 46.07546 43.04107
#
# Velocity S-wave (km/s) = 4.04367 4.33955 4.19422
# Velocity P-wave (km/s) = 7.23165 7.97645 7.61316
#
# Compressibility (1/GPa) = 0.01340263
#
# Stress axis : x y z
#
# Youngs Moduli (GPa) = 65.24727 65.24727 178.50661
#
# Poissons Ratio (x) = 0.38156 0.49786
# Poissons Ratio (y) = 0.38156 0.49786
# Poissons Ratio (z) = 0.18198 0.18198
#
# Static dielectric constant tensor:
#      x y z
#    x 2.065920 0.000000 0.000000 
#    y 0.000000 2.065920 0.000000 
#    z 0.000000 0.000000 1.957690 
# 
# From -- ./inp_files/4021.got.cif
#   From: 2010.05.17/outbox.cif.g08.bks.cpg/sg93_3_cif.got.tgz:4021.got - 2010.06.03 19:38:44.
