data_PCOD9549857
_publ_section_title
;
Structure prediction by ZEFSAII (Michael W. Deem and Ramdas Pophale) SiO2 
 PCOD9549857
Probable space group: P 42 2 2
;
_chemical_formula_sum "Si O2"
_cell_formula_units_Z 40
_cell_length_a 9.277111
_cell_length_b 9.277111
_cell_length_c 20.058204
_cell_angle_alpha 90.000000
_cell_angle_beta 90.000000
_cell_angle_gamma 90.000000
_cell_volume 1726.305085
_symmetry_space_group_name_H-M "P 42 2 2"
_symmetry_group_IT_number 93
_symmetry_cell_setting 'tetragonal'
loop_
_space_group_symop_operation_xyz
x,y,z
-y,x,1/2+z
-x,-y,z
y,-x,1/2+z
x,-y,-z
-x,y,-z
y,x,1/2-z
-y,-x,1/2-z
loop_
_atom_site_type_symbol
_atom_site_label
_atom_site_fract_x
_atom_site_fract_y
_atom_site_fract_z
Si Si1 0.124528 0.896372 0.409110
Si Si2 0.358700 0.927123 0.851525
Si Si3 0.011905 0.223558 0.772188
Si Si4 0.640749 0.594130 0.169832
Si Si5 0.437109 0.162164 0.566964
O O1 0.264136 0.837843 0.446384
O O2 0.025509 0.770228 0.379041
O O3 0.210735 0.982953 0.350693
O O4 0.000000 0.000000 0.435644
O O5 0.354178 0.958601 0.771528
O O6 0.350411 0.755682 0.860930
O O7 0.500000 0.000000 0.880412
O O8 0.898480 0.101521 0.750000
O O9 0.170799 0.170799 0.750000
O O10 0.500000 0.500000 0.153583
O O11 0.626563 0.626563 0.250000
O O12 0.764481 0.494992 0.135420
O O13 0.500000 0.234565 0.500000
O O14 0.500000 0.000000 0.568650
#
# Coordination Sequence:
#
# PCOD9549857 Si02
#       5
#     8   8   8   8   8
#     4  11  21  40  69 102 136 189 255 302 370 460
#     4  11  22  35  61 101 139 182 237 304 362 439
#     4   9  16  31  53  91 135 173 218 282 365 417
#     4  11  26  45  68 107 148 192 246 307 385 464
#     4  11  27  49  71 102 148 203 248 314 404 470
#
# _framework density 23.170877000000001
#
# number of rings (size 3 to 8) (size 9 to 14) (size 15 to 20)
#    0.000    1.400    4.000    3.000    5.600    0.400 
#    0.000    7.000    0.000    1.200    0.000    0.000 
#    0.000    0.000    0.000    0.000    0.000    0.000 
#
# Total GULP energy -222761.173567 kJ/mol
# GULP energy per Si atom -5569.029339 kJ/mol
# Density = 2.311814 g / cm^3
# Si number density = 23.170877 Si / 1000 Ang^3
#
#
#
# Elastic Constant Matrix: (Units=GPa)
#
#
# Indices 1 2 3 4 5 6 
#
# 1 160.2815 53.0778 24.7748 0.0000 0.0000 0.0000
# 2 53.0778 160.2818 24.7745 0.0000 0.0000 0.0000
# 3 24.7748 24.7745 78.1136 0.0000 0.0000 0.0000
# 4 0.0000 0.0000 0.0000 11.0465 0.0000 0.0000
# 5 0.0000 0.0000 0.0000 0.0000 11.0466 0.0000
# 6 0.0000 0.0000 0.0000 0.0000 0.0000 35.0007
#
#
#
# Elastic Compliance Matrix: (Units=1/GPa)
#
#
# Indices 1 2 3 4 5 6 
#
# 1 0.007194 -0.002134 -0.001605 0.000000 0.000000 0.000000
# 2 -0.002134 0.007194 -0.001605 0.000000 0.000000 0.000000
# 3 -0.001605 -0.001605 0.013820 0.000000 0.000000 0.000000
# 4 0.000000 0.000000 0.000000 0.090527 0.000000 0.000000
# 5 0.000000 0.000000 0.000000 0.000000 0.090526 0.000000
# 6 0.000000 0.000000 0.000000 0.000000 0.000000 0.028571
#
#
# Mechanical properties :
#
#
# Convention : Reuss Voigt Hill
#
# Bulk Modulus (GPa) = 57.07721 67.10343 62.09032
# Shear Modulus (GPa) = 19.65734 31.15541 25.40638
#
# Velocity S-wave (km/s) = 2.91583 3.67085 3.31490
# Velocity P-wave (km/s) = 6.00189 6.85492 6.44254
#
# Compressibility (1/GPa) = 0.01752013
#
# Stress axis : x y z
#
# Youngs Moduli (GPa) = 139.00825 139.00862 72.36009
#
# Poissons Ratio (x) = 0.29667 0.11612
# Poissons Ratio (y) = 0.29667 0.11612
# Poissons Ratio (z) = 0.22307 0.22307
#
# Static dielectric constant tensor:
#      x y z
#    x 1.898190 0.000000 0.000000 
#    y 0.000000 1.898180 0.000000 
#    z 0.000000 0.000000 1.992740 
# 
# From -- ./inp_files/6689.got.cif
#   From: 2010.05.17/outbox.cif.g08.bks.cpg/sg93_4_cif.got.tgz:6689.got - 2010.06.03 19:38:44.
