data_PCOD9549195
_publ_section_title
;
Structure prediction by ZEFSAII (Michael W. Deem and Ramdas Pophale) SiO2 
 PCOD9549195
Probable space group: P 41 21 2
;
_chemical_formula_sum "Si O2"
_cell_formula_units_Z 40
_cell_length_a 13.915111
_cell_length_b 13.915111
_cell_length_c 9.217011
_cell_angle_alpha 90.000000
_cell_angle_beta 90.000000
_cell_angle_gamma 90.000000
_cell_volume 1784.692735
_symmetry_space_group_name_H-M "P 41 21 2"
_symmetry_group_IT_number 92
_symmetry_cell_setting 'tetragonal'
loop_
_space_group_symop_operation_xyz
x,y,z
1/2-y,1/2+x,1/4+z
-x,-y,1/2+z
1/2+y,1/2-x,3/4+z
1/2+x,1/2-y,3/4-z
1/2-x,1/2+y,1/4-z
y,x,-z
-y,-x,1/2-z
loop_
_atom_site_type_symbol
_atom_site_label
_atom_site_fract_x
_atom_site_fract_y
_atom_site_fract_z
Si Si1 0.109905 0.474539 0.168549
Si Si2 0.802906 0.039836 0.094910
Si Si3 0.674410 0.325591 0.750000
Si Si4 0.550658 0.704923 0.182914
Si Si5 0.826841 0.826841 0.000000
Si Si6 0.157946 0.322005 0.754565
O O1 0.202193 0.414676 0.225779
O O2 0.074976 0.528269 0.318036
O O3 0.153828 0.551629 0.056692
O O4 0.778776 0.061189 0.261761
O O5 0.890128 0.107360 0.040800
O O6 0.713399 0.077539 0.002750
O O7 0.824772 0.928078 0.083433
O O8 0.562201 0.310708 0.713110
O O9 0.747495 0.302637 0.621969
O O10 0.830069 0.735635 0.105298
#
# Coordination Sequence:
#
# PCOD9549195 Si02
#       6
#     8   8   4   8   4   8
#     4  11  27  47  72 104 145 199 254 314 371 448
#     4  11  24  42  71 108 141 188 247 301 378 449
#     4  10  21  46  64  91 144 180 234 292 368 431
#     4  10  23  42  68 102 138 185 235 302 371 436
#     4  12  23  46  76 105 148 194 246 312 370 459
#     4  11  25  44  70 104 142 190 241 301 370 437
#
# _framework density 22.412822999999999
#
# number of rings (size 3 to 8) (size 9 to 14) (size 15 to 20)
#    0.000    1.200    2.000    3.000    8.400    1.600 
#    0.000    0.000    0.000    0.000    0.000    0.000 
#    0.000    0.000    0.000    0.000    0.000    0.000 
#
# Total GULP energy -223494.456389 kJ/mol
# GULP energy per Si atom -5587.361410 kJ/mol
# Density = 2.236181 g / cm^3
# Si number density = 22.412823 Si / 1000 Ang^3
#
#
#
# Elastic Constant Matrix: (Units=GPa)
#
#
# Indices 1 2 3 4 5 6 
#
# 1 67.7303 36.7161 20.6278 0.0000 0.0000 0.0000
# 2 36.7161 67.7307 20.6257 0.0000 0.0000 0.0000
# 3 20.6278 20.6257 56.9215 0.0000 0.0000 0.0000
# 4 0.0000 0.0000 0.0000 36.0055 0.0000 0.0000
# 5 0.0000 0.0000 0.0000 0.0000 36.0048 0.0000
# 6 0.0000 0.0000 0.0000 0.0000 0.0000 40.5168
#
#
#
# Elastic Compliance Matrix: (Units=1/GPa)
#
#
# Indices 1 2 3 4 5 6 
#
# 1 0.021709 -0.010535 -0.004050 0.000000 0.000000 0.000000
# 2 -0.010535 0.021708 -0.004048 0.000000 0.000000 0.000000
# 3 -0.004050 -0.004048 0.020503 0.000000 0.000000 0.000000
# 4 0.000000 0.000000 0.000000 0.027774 0.000000 0.000000
# 5 0.000000 0.000000 0.000000 0.000000 0.027774 0.000000
# 6 0.000000 0.000000 0.000000 0.000000 0.000000 0.024681
#
#
# Mechanical properties :
#
#
# Convention : Reuss Voigt Hill
#
# Bulk Modulus (GPa) = 37.51827 38.70239 38.11033
# Shear Modulus (GPa) = 26.27462 30.13296 28.20379
#
# Velocity S-wave (km/s) = 3.42761 3.67065 3.55121
# Velocity P-wave (km/s) = 5.69567 5.93889 5.81855
#
# Compressibility (1/GPa) = 0.02665368
#
# Stress axis : x y z
#
# Youngs Moduli (GPa) = 46.06467 46.06609 48.77451
#
# Poissons Ratio (x) = 0.48530 0.19752
# Poissons Ratio (y) = 0.48528 0.19745
# Poissons Ratio (z) = 0.18655 0.18649
#
# Static dielectric constant tensor:
#      x y z
#    x 1.837160 0.000000 0.000000 
#    y 0.000000 1.837160 0.000000 
#    z 0.000000 0.000000 1.834090 
# 
# From -- ./inp_files/1376.got.cif
#   From: 2010.05.17/outbox.cif.g08.bks.cpg/sg92_1_cif.got.tgz:1376.got - 2010.06.03 19:35:17.
