data_PCOD9549786
_publ_section_title
;
Structure prediction by ZEFSAII (Michael W. Deem and Ramdas Pophale) SiO2 
 PCOD9549786
Probable space group: P 42 2 2
;
_chemical_formula_sum "Si O2"
_cell_formula_units_Z 24
_cell_length_a 10.401214
_cell_length_b 10.401214
_cell_length_c 8.936845
_cell_angle_alpha 90.000000
_cell_angle_beta 90.000000
_cell_angle_gamma 90.000000
_cell_volume 966.834834
_symmetry_space_group_name_H-M "P 42 2 2"
_symmetry_group_IT_number 93
_symmetry_cell_setting 'tetragonal'
loop_
_space_group_symop_operation_xyz
x,y,z
-y,x,1/2+z
-x,-y,z
y,-x,1/2+z
x,-y,-z
-x,y,-z
y,x,1/2-z
-y,-x,1/2-z
loop_
_atom_site_type_symbol
_atom_site_label
_atom_site_fract_x
_atom_site_fract_y
_atom_site_fract_z
Si Si1 0.262716 0.090250 0.888219
Si Si2 0.651906 0.348095 0.250000
Si Si3 0.117524 0.247503 0.128477
Si Si4 0.766318 0.500000 0.000000
O O1 0.339845 0.215705 0.843855
O O2 0.234056 0.008077 0.736824
O O3 0.147713 0.140368 0.000327
O O4 0.340323 0.000000 0.000000
O O5 0.673045 0.461819 0.135756
O O6 0.229449 0.229449 0.250000
O O7 0.141911 0.382408 0.048549
#
# Coordination Sequence:
#
# PCOD9549786 Si02
#       4
#     8   4   8   4
#     4   9  19  37  60  92 131 170 219 267 327 397
#     4  10  22  40  62  94 130 172 220 274 334 402
#     4   9  19  39  62  92 129 173 222 275 333 404
#     4  10  22  41  65  94 132 172 223 279 340 406
#
# _framework density 24.823267000000001
#
# number of rings (size 3 to 8) (size 9 to 14) (size 15 to 20)
#    0.000    2.667    0.000    0.000    0.000    8.000 
#    0.000   38.333    0.000    0.000    0.000    0.000 
#    0.000    0.000    0.000    0.000    0.000    0.000 
#
# Total GULP energy -133754.729766 kJ/mol
# GULP energy per Si atom -5573.113740 kJ/mol
# Density = 2.476677 g / cm^3
# Si number density = 24.823267 Si / 1000 Ang^3
#
#
#
# Elastic Constant Matrix: (Units=GPa)
#
#
# Indices 1 2 3 4 5 6 
#
# 1 113.3596 28.0392 67.5141 0.0000 0.0000 0.0000
# 2 28.0392 113.3596 67.5145 0.0000 0.0000 0.0000
# 3 67.5141 67.5145 177.7751 0.0000 0.0000 0.0000
# 4 0.0000 0.0000 0.0000 43.3473 0.0000 0.0000
# 5 0.0000 0.0000 0.0000 0.0000 43.3469 0.0000
# 6 0.0000 0.0000 0.0000 0.0000 0.0000 -0.0470
#
#
#
# Elastic Compliance Matrix: (Units=1/GPa)
#
#
# Indices 1 2 3 4 5 6 
#
# 1 0.011408 -0.000312 -0.004214 0.000000 0.000000 0.000000
# 2 -0.000312 0.011409 -0.004214 0.000000 0.000000 0.000000
# 3 -0.004214 -0.004214 0.008826 0.000000 0.000000 0.000000
# 4 0.000000 0.000000 0.000000 0.023069 0.000000 0.000000
# 5 0.000000 0.000000 0.000000 0.000000 0.023070 0.000000
# 6 0.000000 0.000000 0.000000 0.000000 0.000000-21.281273
#
#
# Mechanical properties :
#
#
# Convention : Reuss Voigt Hill
#
# Bulk Modulus (GPa) = 70.60998 81.18110 75.89554
# Shear Modulus (GPa) = -0.23606 33.42454 16.59424
#
# Velocity S-wave (km/s) = -0.30871 3.67345 2.58833
# Velocity P-wave (km/s) = 5.32727 7.12509 6.29074
#
# Compressibility (1/GPa) = 0.01416230
#
# Stress axis : x y z
#
# Youngs Moduli (GPa) = 87.65398 87.65369 113.30242
#
# Poissons Ratio (x) = 0.02735 0.47747
# Poissons Ratio (y) = 0.02735 0.47748
# Poissons Ratio (z) = 0.36939 0.36939
#
# Static dielectric constant tensor:
#      x y z
#    x 2.029770 0.000000 0.000000 
#    y 0.000000 2.029770 0.000000 
#    z 0.000000 0.000000 2.080550 
# 
# From -- ./inp_files/1322.got.cif
#   From: 2010.05.17/outbox.cif.g08.bks.cpg/sg93_1_cif.got.tgz:1322.got - 2010.06.03 19:38:44.
