data_PCOD9549462
_publ_section_title
;
Structure prediction by ZEFSAII (Michael W. Deem and Ramdas Pophale) SiO2 
 PCOD9549462
Probable space group: P 41 21 2
;
_chemical_formula_sum "Si O2"
_cell_formula_units_Z 48
_cell_length_a 8.887764
_cell_length_b 8.887764
_cell_length_c 29.107439
_cell_angle_alpha 90.000000
_cell_angle_beta 90.000000
_cell_angle_gamma 90.000000
_cell_volume 2299.264978
_symmetry_space_group_name_H-M "P 41 21 2"
_symmetry_group_IT_number 92
_symmetry_cell_setting 'tetragonal'
loop_
_space_group_symop_operation_xyz
x,y,z
1/2-y,1/2+x,1/4+z
-x,-y,1/2+z
1/2+y,1/2-x,3/4+z
1/2+x,1/2-y,3/4-z
1/2-x,1/2+y,1/4-z
y,x,-z
-y,-x,1/2-z
loop_
_atom_site_type_symbol
_atom_site_label
_atom_site_fract_x
_atom_site_fract_y
_atom_site_fract_z
Si Si1 0.673327 0.326673 0.250000
Si Si2 0.065126 0.987783 0.419571
Si Si3 0.057358 0.293799 0.077542
Si Si4 0.487613 0.822910 0.975666
Si Si5 0.268991 0.174204 0.820947
Si Si6 0.543186 0.497878 0.433342
Si Si7 0.306565 0.306565 0.000000
O O1 0.619839 0.413806 0.205345
O O2 0.844061 0.369183 0.261837
O O3 0.099426 0.031619 0.367538
O O4 0.174020 0.846454 0.430810
O O5 0.887151 0.954744 0.421403
O O6 0.113784 0.330661 0.129493
O O7 0.169130 0.318063 0.034623
O O8 0.914929 0.393800 0.062486
O O9 0.512205 0.654801 0.956141
O O10 0.399084 0.828520 0.023916
O O11 0.091401 0.123450 0.819517
O O12 0.677303 0.553900 0.465562
#
# Coordination Sequence:
#
# PCOD9549462 Si02
#       7
#     4   8   8   8   8   8   4
#     4  12  26  44  68 108 134 190 228 300 360 432
#     4  11  26  46  70 103 143 182 242 299 357 426
#     4  11  27  42  72 101 140 185 237 297 351 425
#     4  12  25  45  68 102 144 181 237 289 368 426
#     4  11  22  46  69 101 141 185 234 300 347 433
#     4  11  24  44  74  99 144 188 232 298 362 428
#     4  12  20  46  66 106 126 190 234 284 356 414
#
# _framework density 20.876238000000001
#
# number of rings (size 3 to 8) (size 9 to 14) (size 15 to 20)
#    0.000    0.667    5.000    2.500    4.667    1.333 
#    3.000    0.000    0.000    0.000    0.000    0.000 
#    0.000    0.000    0.000    0.000    0.000    0.000 
#
# Total GULP energy -267702.781957 kJ/mol
# GULP energy per Si atom -5577.141291 kJ/mol
# Density = 2.082872 g / cm^3
# Si number density = 20.876238 Si / 1000 Ang^3
#
#
#
# Elastic Constant Matrix: (Units=GPa)
#
#
# Indices 1 2 3 4 5 6 
#
# 1 56.5390 43.9720 34.1904 0.0000 0.0000 0.0000
# 2 43.9720 56.5387 34.1905 0.0000 0.0000 0.0000
# 3 34.1904 34.1905 150.9864 0.0000 0.0000 0.0000
# 4 0.0000 0.0000 0.0000 22.4835 0.0000 0.0000
# 5 0.0000 0.0000 0.0000 0.0000 22.4839 0.0000
# 6 0.0000 0.0000 0.0000 0.0000 0.0000 21.2244
#
#
#
# Elastic Compliance Matrix: (Units=1/GPa)
#
#
# Indices 1 2 3 4 5 6 
#
# 1 0.045667 -0.033907 -0.002663 0.000000 0.000000 0.000000
# 2 -0.033907 0.045668 -0.002663 0.000000 0.000000 0.000000
# 3 -0.002663 -0.002663 0.007829 0.000000 0.000000 0.000000
# 4 0.000000 0.000000 0.000000 0.044477 0.000000 0.000000
# 5 0.000000 0.000000 0.000000 0.000000 0.044476 0.000000
# 6 0.000000 0.000000 0.000000 0.000000 0.000000 0.047116
#
#
# Mechanical properties :
#
#
# Convention : Reuss Voigt Hill
#
# Bulk Modulus (GPa) = 48.31290 54.30776 51.31033
# Shear Modulus (GPa) = 15.59581 23.35245 19.47413
#
# Velocity S-wave (km/s) = 2.73621 3.34820 3.05755
# Velocity P-wave (km/s) = 5.75979 6.40452 6.09069
#
# Compressibility (1/GPa) = 0.02069841
#
# Stress axis : x y z
#
# Youngs Moduli (GPa) = 21.89742 21.89730 127.72553
#
# Poissons Ratio (x) = 0.74246 0.34016
# Poissons Ratio (y) = 0.74247 0.34017
# Poissons Ratio (z) = 0.05832 0.05832
#
# Static dielectric constant tensor:
#      x y z
#    x 1.783350 0.000000 0.000000 
#    y 0.000000 1.783350 0.000000 
#    z 0.000000 0.000000 1.741010 
# 
# From -- ./inp_files/4565.got.cif
#   From: 2010.05.17/outbox.cif.g08.bks.cpg/sg92_3_cif.got.tgz:4565.got - 2010.06.03 19:35:17.
