data_PCOD9549944
_publ_section_title
;
Structure prediction by ZEFSAII (Michael W. Deem and Ramdas Pophale) SiO2 
 PCOD9549944
Probable space group: P 42 21 2
;
_chemical_formula_sum "Si O2"
_cell_formula_units_Z 48
_cell_length_a 10.884685
_cell_length_b 10.884685
_cell_length_c 18.036292
_cell_angle_alpha 90.000000
_cell_angle_beta 90.000000
_cell_angle_gamma 90.000000
_cell_volume 2136.874360
_symmetry_space_group_name_H-M "P 42 21 2"
_symmetry_group_IT_number 94
_symmetry_cell_setting 'tetragonal'
loop_
_space_group_symop_operation_xyz
x,y,z
1/2-y,1/2+x,1/2+z
-x,-y,z
1/2+y,1/2-x,1/2+z
1/2+x,1/2-y,1/2-z
1/2-x,1/2+y,1/2-z
y,x,-z
-y,-x,-z
loop_
_atom_site_type_symbol
_atom_site_label
_atom_site_fract_x
_atom_site_fract_y
_atom_site_fract_z
Si Si1 0.360103 0.224209 0.127942
Si Si2 0.274275 0.949843 0.132874
Si Si3 0.364396 0.058728 0.523509
Si Si4 0.126574 0.043616 0.252755
Si Si5 0.547569 0.819587 0.866540
Si Si6 0.546811 0.183699 0.250526
O O1 0.269378 0.336576 0.115473
O O2 0.418194 0.213726 0.210753
O O3 0.295271 0.093413 0.115756
O O4 0.475587 0.228514 0.071761
O O5 0.377528 0.896779 0.189824
O O6 0.150401 0.956296 0.181105
O O7 0.305302 0.874291 0.058680
O O8 0.500000 0.000000 0.536925
O O9 0.339562 0.035755 0.437907
O O10 0.112249 0.186494 0.236236
O O11 0.241788 0.026396 0.305939
O O12 0.000000 0.000000 0.289649
O O13 0.609813 0.937707 0.826785
#
# Coordination Sequence:
#
# PCOD9549944 Si02
#       6
#     8   8   8   8   8   8
#     4  10  18  37  59  84 126 159 203 263 324 373
#     4   9  20  38  60  83 124 167 207 267 321 377
#     4   9  20  37  57  87 119 163 212 258 315 379
#     4  11  21  36  59  94 126 161 211 268 328 386
#     4  11  21  34  61  91 118 163 211 262 318 384
#     4  10  20  35  58  91 121 154 206 264 312 372
#
# _framework density 22.462714999999999
#
# number of rings (size 3 to 8) (size 9 to 14) (size 15 to 20)
#    0.000    2.000    3.333    2.000    0.000    2.667 
#    0.000    3.333    0.000    4.000    0.000    1.167 
#    0.000    0.000    0.000    0.000    0.000    0.000 
#
# Total GULP energy -267743.435987 kJ/mol
# GULP energy per Si atom -5577.988250 kJ/mol
# Density = 2.241159 g / cm^3
# Si number density = 22.462715 Si / 1000 Ang^3
#
#
#
# Elastic Constant Matrix: (Units=GPa)
#
#
# Indices 1 2 3 4 5 6 
#
# 1 58.4381 7.9035 30.2110 0.0000 0.0000 0.0000
# 2 7.9035 58.4381 30.2110 0.0000 0.0000 0.0000
# 3 30.2110 30.2110 138.5638 0.0000 0.0000 0.0000
# 4 0.0000 0.0000 0.0000 19.0779 0.0000 0.0000
# 5 0.0000 0.0000 0.0000 0.0000 19.0779 0.0000
# 6 0.0000 0.0000 0.0000 0.0000 0.0000 32.4658
#
#
#
# Elastic Compliance Matrix: (Units=1/GPa)
#
#
# Indices 1 2 3 4 5 6 
#
# 1 0.019298 -0.000490 -0.004101 0.000000 0.000000 0.000000
# 2 -0.000490 0.019298 -0.004101 0.000000 0.000000 0.000000
# 3 -0.004101 -0.004101 0.009005 0.000000 0.000000 0.000000
# 4 0.000000 0.000000 0.000000 0.052417 0.000000 0.000000
# 5 0.000000 0.000000 0.000000 0.000000 0.052417 0.000000
# 6 0.000000 0.000000 0.000000 0.000000 0.000000 0.030802
#
#
# Mechanical properties :
#
#
# Convention : Reuss Voigt Hill
#
# Bulk Modulus (GPa) = 33.09208 43.56567 38.32887
# Shear Modulus (GPa) = 23.73123 26.59863 25.16493
#
# Velocity S-wave (km/s) = 3.25387 3.44484 3.35072
# Velocity P-wave (km/s) = 5.37409 5.93796 5.66305
#
# Compressibility (1/GPa) = 0.03021871
#
# Stress axis : x y z
#
# Youngs Moduli (GPa) = 51.81773 51.81773 111.04846
#
# Poissons Ratio (x) = 0.02539 0.45539
# Poissons Ratio (y) = 0.02539 0.45539
# Poissons Ratio (z) = 0.21249 0.21249
#
# Static dielectric constant tensor:
#      x y z
#    x 1.852630 0.000000 0.000000 
#    y 0.000000 1.852630 0.000000 
#    z 0.000000 0.000000 1.890340 
# 
# From -- ./inp_files/4078.got.cif
#   From: 2010.05.17/outbox.cif.g08.bks.cpg/sg94_3_cif.got.tgz:4078.got - 2010.06.03 19:43:16.
