data_PCOD9549175
_publ_section_title
;
Structure prediction by ZEFSAII (Michael W. Deem and Ramdas Pophale) SiO2 
 PCOD9549175
Probable space group: P 41 21 2
;
_chemical_formula_sum "Si O2"
_cell_formula_units_Z 40
_cell_length_a 9.048228
_cell_length_b 9.048228
_cell_length_c 20.975063
_cell_angle_alpha 90.000000
_cell_angle_beta 90.000000
_cell_angle_gamma 90.000000
_cell_volume 1717.237426
_symmetry_space_group_name_H-M "P 41 21 2"
_symmetry_group_IT_number 92
_symmetry_cell_setting 'tetragonal'
loop_
_space_group_symop_operation_xyz
x,y,z
1/2-y,1/2+x,1/4+z
-x,-y,1/2+z
1/2+y,1/2-x,3/4+z
1/2+x,1/2-y,3/4-z
1/2-x,1/2+y,1/4-z
y,x,-z
-y,-x,1/2-z
loop_
_atom_site_type_symbol
_atom_site_label
_atom_site_fract_x
_atom_site_fract_y
_atom_site_fract_z
Si Si1 0.557834 0.557834 0.000000
Si Si2 0.716999 0.164663 0.614448
Si Si3 0.069522 0.069522 0.000000
Si Si4 0.838789 0.087372 0.386564
Si Si5 0.229232 0.670896 0.987255
Si Si6 0.371695 0.119151 0.055310
O O1 0.632009 0.611182 0.065983
O O2 0.594266 0.385238 0.998906
O O3 0.558380 0.242168 0.622707
O O4 0.793000 0.225864 0.549348
O O5 0.825134 0.219229 0.670012
O O6 0.671394 0.993517 0.612370
O O7 0.247844 0.060756 0.006836
O O8 0.977612 0.036727 0.063837
O O9 0.768466 0.222487 0.425504
O O10 0.117350 0.536278 0.971414
#
# Coordination Sequence:
#
# PCOD9549175 Si02
#       6
#     4   8   4   8   8   8
#     4  10  25  44  67 104 150 184 241 304 365 434
#     4  10  25  43  68 104 135 182 239 290 351 440
#     4  10  21  42  73  94 138 184 237 296 349 444
#     4  10  23  44  68 100 143 182 237 296 365 422
#     4  11  24  43  72  97 139 186 232 295 358 427
#     4  11  24  41  70 100 136 182 239 291 357 425
#
# _framework density 23.293227999999999
#
# number of rings (size 3 to 8) (size 9 to 14) (size 15 to 20)
#    0.000    1.600    2.000    0.600   16.800    0.000 
#    3.600    1.000    0.000    0.000    0.000    0.000 
#    0.000    0.000    0.000    0.000    0.000    0.000 
#
# Total GULP energy -222950.680038 kJ/mol
# GULP energy per Si atom -5573.767001 kJ/mol
# Density = 2.324021 g / cm^3
# Si number density = 23.293228 Si / 1000 Ang^3
#
#
#
# Elastic Constant Matrix: (Units=GPa)
#
#
# Indices 1 2 3 4 5 6 
#
# 1 86.1984 24.2636 32.6324 0.0000 0.0000 0.0000
# 2 24.2636 86.1984 32.6324 0.0000 0.0000 0.0000
# 3 32.6324 32.6324 152.3100 0.0000 0.0000 0.0000
# 4 0.0000 0.0000 0.0000 36.7130 0.0000 0.0000
# 5 0.0000 0.0000 0.0000 0.0000 36.7130 0.0000
# 6 0.0000 0.0000 0.0000 0.0000 0.0000 20.5607
#
#
#
# Elastic Compliance Matrix: (Units=1/GPa)
#
#
# Indices 1 2 3 4 5 6 
#
# 1 0.013255 -0.002891 -0.002221 0.000000 0.000000 0.000000
# 2 -0.002891 0.013255 -0.002221 0.000000 0.000000 0.000000
# 3 -0.002221 -0.002221 0.007517 0.000000 0.000000 0.000000
# 4 0.000000 0.000000 0.000000 0.027238 0.000000 0.000000
# 5 0.000000 0.000000 0.000000 0.000000 0.027238 0.000000
# 6 0.000000 0.000000 0.000000 0.000000 0.000000 0.048636
#
#
# Mechanical properties :
#
#
# Convention : Reuss Voigt Hill
#
# Bulk Modulus (GPa) = 51.64153 55.97375 53.80764
# Shear Modulus (GPa) = 31.59365 34.47591 33.03478
#
# Velocity S-wave (km/s) = 3.68685 3.85136 3.77000
# Velocity P-wave (km/s) = 6.35155 6.62265 6.48852
#
# Compressibility (1/GPa) = 0.01936426
#
# Stress axis : x y z
#
# Youngs Moduli (GPa) = 75.44048 75.44048 133.02963
#
# Poissons Ratio (x) = 0.21806 0.29542
# Poissons Ratio (y) = 0.21806 0.29542
# Poissons Ratio (z) = 0.16753 0.16753
#
# Static dielectric constant tensor:
#      x y z
#    x 1.909460 0.000000 0.000000 
#    y 0.000000 1.909460 0.000000 
#    z 0.000000 0.000000 2.032130 
# 
# From -- ./inp_files/3845.got.cif
#   From: 2010.05.17/outbox.cif.g08.bks.cpg/sg92_2_cif.got.tgz:3845.got - 2010.06.03 19:35:17.
