data_PCOD9549858
_publ_section_title
;
Structure prediction by ZEFSAII (Michael W. Deem and Ramdas Pophale) SiO2 
 PCOD9549858
Probable space group: P 42 2 2
;
_chemical_formula_sum "Si O2"
_cell_formula_units_Z 40
_cell_length_a 9.100380
_cell_length_b 9.100380
_cell_length_c 20.667085
_cell_angle_alpha 90.000000
_cell_angle_beta 90.000000
_cell_angle_gamma 90.000000
_cell_volume 1711.584245
_symmetry_space_group_name_H-M "P 42 2 2"
_symmetry_group_IT_number 93
_symmetry_cell_setting 'tetragonal'
loop_
_space_group_symop_operation_xyz
x,y,z
-y,x,1/2+z
-x,-y,z
y,-x,1/2+z
x,-y,-z
-x,y,-z
y,x,1/2-z
-y,-x,1/2-z
loop_
_atom_site_type_symbol
_atom_site_label
_atom_site_fract_x
_atom_site_fract_y
_atom_site_fract_z
Si Si1 0.986091 0.172598 0.343133
Si Si2 0.168953 0.537446 0.095359
Si Si3 0.240906 0.344972 0.395901
Si Si4 0.828274 0.815421 0.980580
Si Si5 0.644964 0.270928 0.185729
O O1 0.909956 0.185635 0.414962
O O2 0.888476 0.283248 0.300156
O O3 0.146486 0.242430 0.348372
O O4 0.000000 0.000000 0.327014
O O5 0.278549 0.402150 0.098201
O O6 0.179351 0.642808 0.033918
O O7 0.224041 0.644289 0.150901
O O8 0.000000 0.500000 0.104146
O O9 0.168075 0.302829 0.466328
O O10 0.250449 0.507024 0.363586
O O11 0.000000 0.840292 0.000000
O O12 0.630281 0.369720 0.250000
#
# Coordination Sequence:
#
# PCOD9549858 Si02
#       5
#     8   8   8   8   8
#     4  11  23  43  73 111 145 189 249 310 396 477
#     4  11  23  41  69 104 143 198 254 298 384 473
#     4  12  23  40  73 107 146 194 246 310 382 461
#     4  11  21  40  72 108 155 193 226 298 380 486
#     4  11  28  50  66  96 146 196 267 333 384 448
#
# _framework density 23.370159999999998
#
# number of rings (size 3 to 8) (size 9 to 14) (size 15 to 20)
#    0.000    0.800    4.000    3.600    0.000    6.800 
#    0.000   10.000    0.000    0.000    0.000    0.000 
#    0.000    0.000    0.000    0.000    0.000    0.000 
#
# Total GULP energy -222937.028691 kJ/mol
# GULP energy per Si atom -5573.425717 kJ/mol
# Density = 2.331697 g / cm^3
# Si number density = 23.370160 Si / 1000 Ang^3
#
#
#
# Elastic Constant Matrix: (Units=GPa)
#
#
# Indices 1 2 3 4 5 6 
#
# 1 138.4946 38.1119 30.4217 0.0000 0.0000 0.0000
# 2 38.1119 138.4943 30.4215 0.0000 0.0000 0.0000
# 3 30.4217 30.4215 79.4325 0.0000 0.0000 0.0000
# 4 0.0000 0.0000 0.0000 -25.8959 0.0000 0.0000
# 5 0.0000 0.0000 0.0000 0.0000 -25.8886 0.0000
# 6 0.0000 0.0000 0.0000 0.0000 0.0000 27.1339
#
#
#
# Elastic Compliance Matrix: (Units=1/GPa)
#
#
# Indices 1 2 3 4 5 6 
#
# 1 0.008242 -0.001719 -0.002498 0.000000 0.000000 0.000000
# 2 -0.001719 0.008242 -0.002498 0.000000 0.000000 0.000000
# 3 -0.002498 -0.002498 0.014503 0.000000 0.000000 0.000000
# 4 0.000000 0.000000 0.000000 -0.038616 0.000000 0.000000
# 5 0.000000 0.000000 0.000000 0.000000 -0.038627 0.000000
# 6 0.000000 0.000000 0.000000 0.000000 0.000000 0.036854
#
#
# Mechanical properties :
#
#
# Convention : Reuss Voigt Hill
#
# Bulk Modulus (GPa) = 56.96068 61.59240 59.27654
# Shear Modulus (GPa) = 505.94034 12.23430 259.08732
#
# Velocity S-wave (km/s) = 14.72956 2.29050 10.54055
# Velocity P-wave (km/s) = 17.71175 5.77992 13.17409
#
# Compressibility (1/GPa) = 0.01755597
#
# Stress axis : x y z
#
# Youngs Moduli (GPa) = 121.32351 121.32328 68.95186
#
# Poissons Ratio (x) = 0.20861 0.17226
# Poissons Ratio (y) = 0.20861 0.17226
# Poissons Ratio (z) = 0.30309 0.30309
#
# Static dielectric constant tensor:
#      x y z
#    x 1.900950 0.000000 0.000000 
#    y 0.000000 1.900950 0.000000 
#    z 0.000000 0.000000 2.116270 
# 
# From -- ./inp_files/6692.got.cif
#   From: 2010.05.17/outbox.cif.g08.bks.cpg/sg93_4_cif.got.tgz:6692.got - 2010.06.03 19:38:44.
