data_PCOD9549203
_publ_section_title
;
Structure prediction by ZEFSAII (Michael W. Deem and Ramdas Pophale) SiO2 
 PCOD9549203
Probable space group: P 41 21 2
;
_chemical_formula_sum "Si O2"
_cell_formula_units_Z 40
_cell_length_a 13.435363
_cell_length_b 13.435363
_cell_length_c 8.252549
_cell_angle_alpha 90.000000
_cell_angle_beta 90.000000
_cell_angle_gamma 90.000000
_cell_volume 1489.659194
_symmetry_space_group_name_H-M "P 41 21 2"
_symmetry_group_IT_number 92
_symmetry_cell_setting 'tetragonal'
loop_
_space_group_symop_operation_xyz
x,y,z
1/2-y,1/2+x,1/4+z
-x,-y,1/2+z
1/2+y,1/2-x,3/4+z
1/2+x,1/2-y,3/4-z
1/2-x,1/2+y,1/4-z
y,x,-z
-y,-x,1/2-z
loop_
_atom_site_type_symbol
_atom_site_label
_atom_site_fract_x
_atom_site_fract_y
_atom_site_fract_z
Si Si1 0.714242 0.151926 0.012723
Si Si2 0.997544 0.732736 0.268507
Si Si3 0.203158 0.004702 0.702823
Si Si4 0.575767 0.617646 0.271549
Si Si5 0.589174 0.918577 0.221302
O O1 0.619341 0.220191 0.009072
O O2 0.696870 0.061545 0.884810
O O3 0.824011 0.186221 0.962121
O O4 0.737164 0.100845 0.184060
O O5 0.018987 0.847583 0.317055
O O6 0.035535 0.664073 0.416360
O O7 0.125514 0.983366 0.554778
O O8 0.290641 0.085732 0.695309
O O9 0.150114 0.996989 0.874981
O O10 0.572799 0.022250 0.314391
#
# Coordination Sequence:
#
# PCOD9549203 Si02
#       5
#     8   8   8   8   8
#     4  10  22  31  53  76 115 148 189 229 289 347
#     4  12  20  33  50  83 115 148 185 235 285 349
#     4   9  20  34  49  71 113 158 183 228 278 355
#     4   9  20  37  49  71 116 153 194 224 276 351
#     4  12  22  32  52  83 119 148 183 229 301 359
#
# _framework density 26.851780000000002
#
# number of rings (size 3 to 8) (size 9 to 14) (size 15 to 20)
#    1.200    0.400    4.000    1.800    2.800    0.000 
#    0.000    0.000    0.000    0.000    0.000    0.000 
#   42.000    0.000    0.000    0.000    0.000    0.000 
#
# Total GULP energy -222919.467315 kJ/mol
# GULP energy per Si atom -5572.986683 kJ/mol
# Density = 2.679066 g / cm^3
# Si number density = 26.851780 Si / 1000 Ang^3
#
#
#
# Elastic Constant Matrix: (Units=GPa)
#
#
# Indices 1 2 3 4 5 6 
#
# 1 37.9765 107.2747 -1.3880 0.0000 0.0000 0.0000
# 2 107.2747 37.9765 -1.3880 0.0000 0.0000 0.0000
# 3 -1.3880 -1.3880 33.6308 0.0000 0.0000 0.0000
# 4 0.0000 0.0000 0.0000 24.4234 0.0000 0.0000
# 5 0.0000 0.0000 0.0000 0.0000 24.4234 0.0000
# 6 0.0000 0.0000 0.0000 0.0000 0.0000 65.9639
#
#
#
# Elastic Compliance Matrix: (Units=1/GPa)
#
#
# Indices 1 2 3 4 5 6 
#
# 1 -0.003770 0.010660 0.000284 0.000000 0.000000 0.000000
# 2 0.010660 -0.003770 0.000284 0.000000 0.000000 0.000000
# 3 0.000284 0.000284 0.029758 0.000000 0.000000 0.000000
# 4 0.000000 0.000000 0.000000 0.040944 0.000000 0.000000
# 5 0.000000 0.000000 0.000000 0.000000 0.040944 0.000000
# 6 0.000000 0.000000 0.000000 0.000000 0.000000 0.015160
#
#
# Mechanical properties :
#
#
# Convention : Reuss Voigt Hill
#
# Bulk Modulus (GPa) = 22.38351 35.39788 28.89070
# Shear Modulus (GPa) = 44.76261 23.30113 34.03187
#
# Velocity S-wave (km/s) = 4.08735 2.94899 3.56391
# Velocity P-wave (km/s) = 5.53438 4.98063 5.26479
#
# Compressibility (1/GPa) = 0.04467574
#
# Stress axis : x y z
#
# Youngs Moduli (GPa) = -265.24053 -265.24053 33.60426
#
# Poissons Ratio (x) = 2.82752 -0.00956
# Poissons Ratio (y) = 2.82752 -0.00956
# Poissons Ratio (z) = 0.07543 0.07543
#
# Static dielectric constant tensor:
#      x y z
#    x 2.166360 0.000000 0.000000 
#    y 0.000000 2.166360 0.000000 
#    z 0.000000 0.000000 2.091270 
# 
# From -- ./inp_files/1427.got.cif
#   From: 2010.05.17/outbox.cif.g08.bks.cpg/sg92_1_cif.got.tgz:1427.got - 2010.06.03 19:35:17.
