data_PCOD9549917
_publ_section_title
;
Structure prediction by ZEFSAII (Michael W. Deem and Ramdas Pophale) SiO2 
 PCOD9549917
Probable space group: P 42 21 2
;
_chemical_formula_sum "Si O2"
_cell_formula_units_Z 38
_cell_length_a 9.539208
_cell_length_b 9.539208
_cell_length_c 21.860815
_cell_angle_alpha 90.000000
_cell_angle_beta 90.000000
_cell_angle_gamma 90.000000
_cell_volume 1989.257418
_symmetry_space_group_name_H-M "P 42 21 2"
_symmetry_group_IT_number 94
_symmetry_cell_setting 'tetragonal'
loop_
_space_group_symop_operation_xyz
x,y,z
1/2-y,1/2+x,1/2+z
-x,-y,z
1/2+y,1/2-x,1/2+z
1/2+x,1/2-y,1/2-z
1/2-x,1/2+y,1/2-z
y,x,-z
-y,-x,-z
loop_
_atom_site_type_symbol
_atom_site_label
_atom_site_fract_x
_atom_site_fract_y
_atom_site_fract_z
Si Si1 0.149841 0.423568 0.716044
Si Si2 0.916086 0.860044 0.301912
Si Si3 0.376869 0.715586 0.059741
Si Si4 0.500000 0.000000 0.006596
Si Si5 0.458033 0.238375 0.419726
Si Si6 0.500000 0.500000 0.500000
O O1 0.235880 0.495512 0.770564
O O2 0.140468 0.251510 0.716283
O O3 0.223801 0.469405 0.652489
O O4 0.000000 0.500000 0.715258
O O5 0.925115 0.843256 0.375359
O O6 0.000000 0.000000 0.283625
O O7 0.448683 0.865961 0.045289
O O8 0.208698 0.732262 0.067092
O O9 0.383840 0.616161 0.000000
O O10 0.379727 0.038131 0.958177
O O11 0.508641 0.374852 0.452805
#
# Coordination Sequence:
#
# PCOD9549917 Si02
#       6
#     8   8   8   4   8   2
#     4  11  24  46  68  92 135 176 222 275 331 408
#     4  11  25  45  67  98 130 176 223 273 344 400
#     4   9  20  40  66  90 131 166 213 273 324 393
#     4  10  16  40  60  92 122 174 202 260 332 380
#     4  10  21  38  64  92 131 166 210 269 327 383
#     4  12  20  40  60 104 124 160 226 268 320 396
#
# _framework density 19.102606000000002
#
# number of rings (size 3 to 8) (size 9 to 14) (size 15 to 20)
#    0.000    1.684    4.211    1.263    2.947    0.421 
#    7.579    0.000    0.000    0.000    0.000    0.000 
#    0.000    0.000    0.000    0.000    0.000    0.000 
#
# Total GULP energy -211628.271824 kJ/mol
# GULP energy per Si atom -5569.165048 kJ/mol
# Density = 1.905913 g / cm^3
# Si number density = 19.102606 Si / 1000 Ang^3
#
#
#
# Elastic Constant Matrix: (Units=GPa)
#
#
# Indices 1 2 3 4 5 6 
#
# 1 85.3149 33.6501 55.2450 0.0000 0.0000 0.0000
# 2 33.6501 85.3157 55.2452 0.0000 0.0000 0.0000
# 3 55.2450 55.2452 121.8467 0.0000 0.0000 0.0000
# 4 0.0000 0.0000 0.0000 30.6142 0.0000 0.0000
# 5 0.0000 0.0000 0.0000 0.0000 30.6142 0.0000
# 6 0.0000 0.0000 0.0000 0.0000 0.0000 32.7134
#
#
#
# Elastic Compliance Matrix: (Units=1/GPa)
#
#
# Indices 1 2 3 4 5 6 
#
# 1 0.016938 -0.002418 -0.006583 0.000000 0.000000 0.000000
# 2 -0.002418 0.016938 -0.006583 0.000000 0.000000 0.000000
# 3 -0.006583 -0.006583 0.014177 0.000000 0.000000 0.000000
# 4 0.000000 0.000000 0.000000 0.032665 0.000000 0.000000
# 5 0.000000 0.000000 0.000000 0.000000 0.032665 0.000000
# 6 0.000000 0.000000 0.000000 0.000000 0.000000 0.030569
#
#
# Mechanical properties :
#
#
# Convention : Reuss Voigt Hill
#
# Bulk Modulus (GPa) = 59.22920 64.52865 61.87892
# Shear Modulus (GPa) = 27.66297 28.67750 28.17023
#
# Velocity S-wave (km/s) = 3.80955 3.87878 3.84432
# Velocity P-wave (km/s) = 7.10094 7.34257 7.22276
#
# Compressibility (1/GPa) = 0.01688356
#
# Stress axis : x y z
#
# Youngs Moduli (GPa) = 59.03917 59.03984 70.53726
#
# Poissons Ratio (x) = 0.14273 0.46438
# Poissons Ratio (y) = 0.14273 0.46438
# Poissons Ratio (z) = 0.38868 0.38868
#
# Static dielectric constant tensor:
#      x y z
#    x 1.650430 0.000000 0.000000 
#    y 0.000000 1.650430 0.000000 
#    z 0.000000 0.000000 1.672240 
# 
# From -- ./inp_files/4997.got.cif
#   From: 2010.05.17/outbox.cif.g08.bks.cpg/sg94_3_cif.got.tgz:4997.got - 2010.06.03 19:43:16.
