data_PCOD9549474
_publ_section_title
;
Structure prediction by ZEFSAII (Michael W. Deem and Ramdas Pophale) SiO2 
 PCOD9549474
Probable space group: P 41 21 2
;
_chemical_formula_sum "Si O2"
_cell_formula_units_Z 48
_cell_length_a 11.474260
_cell_length_b 11.474260
_cell_length_c 16.860094
_cell_angle_alpha 90.000000
_cell_angle_beta 90.000000
_cell_angle_gamma 90.000000
_cell_volume 2219.777089
_symmetry_space_group_name_H-M "P 41 21 2"
_symmetry_group_IT_number 92
_symmetry_cell_setting 'tetragonal'
loop_
_space_group_symop_operation_xyz
x,y,z
1/2-y,1/2+x,1/4+z
-x,-y,1/2+z
1/2+y,1/2-x,3/4+z
1/2+x,1/2-y,3/4-z
1/2-x,1/2+y,1/4-z
y,x,-z
-y,-x,1/2-z
loop_
_atom_site_type_symbol
_atom_site_label
_atom_site_fract_x
_atom_site_fract_y
_atom_site_fract_z
Si Si1 0.059591 0.365477 0.012488
Si Si2 0.024261 0.073874 0.391873
Si Si3 0.709328 0.963078 0.844492
Si Si4 0.014346 0.631935 0.685710
Si Si5 0.898127 0.898127 0.500000
Si Si6 0.960233 0.302885 0.475883
Si Si7 0.861166 0.138835 0.250000
O O1 0.157587 0.447554 0.971439
O O2 0.077469 0.235918 0.981615
O O3 0.934012 0.422768 0.992795
O O4 0.059258 0.347163 0.106772
O O5 0.153003 0.044664 0.361062
O O6 0.007651 0.174400 0.458629
O O7 0.953608 0.122219 0.318511
O O8 0.951779 0.966269 0.425580
O O9 0.667257 0.837061 0.808438
O O10 0.666395 0.010062 0.932012
O O11 0.109656 0.532490 0.670943
O O12 0.098027 0.736163 0.715428
#
# Coordination Sequence:
#
# PCOD9549474 Si02
#       7
#     8   8   8   8   4   8   4
#     4  11  25  48  72 103 145 198 251 314 373 465
#     4  12  26  45  68 108 148 186 249 306 374 460
#     4  11  24  44  75 102 143 198 246 301 380 449
#     4  11  24  45  72 105 146 188 250 303 383 455
#     4  12  26  48  68 100 150 192 244 320 374 440
#     4  11  23  43  71 108 144 188 239 309 368 451
#     4  12  26  42  72 108 138 196 232 312 378 446
#
# _framework density 21.623792999999999
#
# number of rings (size 3 to 8) (size 9 to 14) (size 15 to 20)
#    0.000    0.667    3.333    6.000    4.667    6.000 
#    0.000    0.000    0.000    0.000    0.000    0.000 
#    0.000    0.000    0.000    0.000    0.000    0.000 
#
# Total GULP energy -267418.524509 kJ/mol
# GULP energy per Si atom -5571.219261 kJ/mol
# Density = 2.157458 g / cm^3
# Si number density = 21.623793 Si / 1000 Ang^3
#
#
#
# Elastic Constant Matrix: (Units=GPa)
#
#
# Indices 1 2 3 4 5 6 
#
# 1 108.9953 47.9190 18.2935 0.0000 0.0000 0.0000
# 2 47.9190 108.9955 18.2940 0.0000 0.0000 0.0000
# 3 18.2935 18.2940 64.3578 0.0000 0.0000 0.0000
# 4 0.0000 0.0000 0.0000 41.9110 0.0000 0.0000
# 5 0.0000 0.0000 0.0000 0.0000 41.9114 0.0000
# 6 0.0000 0.0000 0.0000 0.0000 0.0000 22.5187
#
#
#
# Elastic Compliance Matrix: (Units=1/GPa)
#
#
# Indices 1 2 3 4 5 6 
#
# 1 0.011599 -0.004774 -0.001940 0.000000 0.000000 0.000000
# 2 -0.004774 0.011599 -0.001940 0.000000 0.000000 0.000000
# 3 -0.001940 -0.001940 0.016641 0.000000 0.000000 0.000000
# 4 0.000000 0.000000 0.000000 0.023860 0.000000 0.000000
# 5 0.000000 0.000000 0.000000 0.000000 0.023860 0.000000
# 6 0.000000 0.000000 0.000000 0.000000 0.000000 0.044408
#
#
# Mechanical properties :
#
#
# Convention : Reuss Voigt Hill
#
# Bulk Modulus (GPa) = 44.38278 50.15130 47.26704
# Shear Modulus (GPa) = 31.89076 34.45770 33.17423
#
# Velocity S-wave (km/s) = 3.84448 3.99621 3.92108
# Velocity P-wave (km/s) = 6.34635 6.67352 6.51199
#
# Compressibility (1/GPa) = 0.02253126
#
# Stress axis : x y z
#
# Youngs Moduli (GPa) = 86.21361 86.21354 60.09224
#
# Poissons Ratio (x) = 0.41157 0.11658
# Poissons Ratio (y) = 0.41157 0.11659
# Poissons Ratio (z) = 0.16726 0.16727
#
# Static dielectric constant tensor:
#      x y z
#    x 1.840380 0.000000 0.000000 
#    y 0.000000 1.840380 0.000000 
#    z 0.000000 0.000000 1.923010 
# 
# From -- ./inp_files/3200.got.cif
#   From: 2010.05.17/outbox.cif.g08.bks.cpg/sg92_2_cif.got.tgz:3200.got - 2010.06.03 19:35:17.
