data_PCOD9549810
_publ_section_title
;
Structure prediction by ZEFSAII (Michael W. Deem and Ramdas Pophale) SiO2 
 PCOD9549810
Probable space group: P 42 2 2
;
_chemical_formula_sum "Si O2"
_cell_formula_units_Z 48
_cell_length_a 8.794729
_cell_length_b 8.794729
_cell_length_c 27.514642
_cell_angle_alpha 90.000000
_cell_angle_beta 90.000000
_cell_angle_gamma 90.000000
_cell_volume 2128.182119
_symmetry_space_group_name_H-M "P 42 2 2"
_symmetry_group_IT_number 93
_symmetry_cell_setting 'tetragonal'
loop_
_space_group_symop_operation_xyz
x,y,z
-y,x,1/2+z
-x,-y,z
y,-x,1/2+z
x,-y,-z
-x,y,-z
y,x,1/2-z
-y,-x,1/2-z
loop_
_atom_site_type_symbol
_atom_site_label
_atom_site_fract_x
_atom_site_fract_y
_atom_site_fract_z
Si Si1 0.285850 0.176004 0.897224
Si Si2 0.039431 0.337765 0.943572
Si Si3 0.660898 0.589687 0.401644
Si Si4 0.112979 0.206298 0.451699
Si Si5 0.774685 0.369013 0.702059
Si Si6 0.720358 0.125479 0.205620
O O1 0.460468 0.213115 0.896838
O O2 0.214701 0.194520 0.844350
O O3 0.211314 0.296525 0.933533
O O4 0.268068 0.004892 0.913382
O O5 0.952881 0.180260 0.932708
O O6 0.000000 0.500000 0.920278
O O7 0.000000 0.350227 0.000000
O O8 0.500000 0.500000 0.408049
O O9 0.729581 0.694013 0.445620
O O10 0.676677 0.663913 0.347477
O O11 0.000000 0.200099 0.500000
O O12 0.691947 0.308054 0.750000
O O13 0.804317 0.550034 0.709273
O O14 0.943881 0.296669 0.699951
O O15 0.822690 0.177311 0.250000
#
# Coordination Sequence:
#
# PCOD9549810 Si02
#       6
#     8   8   8   8   8   8
#     4  11  23  44  69  98 138 184 232 291 354 431
#     4  11  24  44  68 100 137 176 232 292 351 426
#     4  11  25  44  70 104 141 185 242 301 359 430
#     4  12  24  45  72 101 137 189 234 293 367 434
#     4  10  23  42  68 100 137 183 234 293 362 426
#     4  10  23  44  65  98 140 179 233 288 351 434
#
# _framework density 22.554462000000001
#
# number of rings (size 3 to 8) (size 9 to 14) (size 15 to 20)
#    0.000    1.167    3.333    2.000    4.667    3.000 
#    6.000    0.833    0.000    0.000    0.000    0.000 
#    0.000    0.000    0.000    0.000    0.000    0.000 
#
# Total GULP energy -267367.242257 kJ/mol
# GULP energy per Si atom -5570.150880 kJ/mol
# Density = 2.250313 g / cm^3
# Si number density = 22.554462 Si / 1000 Ang^3
#
#
#
# Elastic Constant Matrix: (Units=GPa)
#
#
# Indices 1 2 3 4 5 6 
#
# 1 78.6245 28.6045 31.3110 0.0000 0.0000 0.0000
# 2 28.6045 78.6249 31.3112 0.0000 0.0000 0.0000
# 3 31.3110 31.3112 100.9522 0.0000 0.0000 0.0000
# 4 0.0000 0.0000 0.0000 31.2535 0.0000 0.0000
# 5 0.0000 0.0000 0.0000 0.0000 31.2534 0.0000
# 6 0.0000 0.0000 0.0000 0.0000 0.0000 28.5827
#
#
#
# Elastic Compliance Matrix: (Units=1/GPa)
#
#
# Indices 1 2 3 4 5 6 
#
# 1 0.015690 -0.004302 -0.003532 0.000000 0.000000 0.000000
# 2 -0.004302 0.015690 -0.003532 0.000000 0.000000 0.000000
# 3 -0.003532 -0.003532 0.012097 0.000000 0.000000 0.000000
# 4 0.000000 0.000000 0.000000 0.031996 0.000000 0.000000
# 5 0.000000 0.000000 0.000000 0.000000 0.031997 0.000000
# 6 0.000000 0.000000 0.000000 0.000000 0.000000 0.034986
#
#
# Mechanical properties :
#
#
# Convention : Reuss Voigt Hill
#
# Bulk Modulus (GPa) = 48.20431 48.96166 48.58299
# Shear Modulus (GPa) = 29.05221 29.34958 29.20089
#
# Velocity S-wave (km/s) = 3.59289 3.61123 3.60207
# Velocity P-wave (km/s) = 6.21535 6.25646 6.23594
#
# Compressibility (1/GPa) = 0.02074503
#
# Stress axis : x y z
#
# Youngs Moduli (GPa) = 63.73349 63.73374 82.66640
#
# Poissons Ratio (x) = 0.27416 0.29200
# Poissons Ratio (y) = 0.27416 0.29200
# Poissons Ratio (z) = 0.22513 0.22513
#
# Static dielectric constant tensor:
#      x y z
#    x 1.885230 0.000000 0.000000 
#    y 0.000000 1.885230 0.000000 
#    z 0.000000 0.000000 1.897770 
# 
# From -- ./inp_files/7814.got.cif
#   From: 2010.05.17/outbox.cif.g08.bks.cpg/sg93_4_cif.got.tgz:7814.got - 2010.06.03 19:38:44.
