data_PCOD9549638
_publ_section_title
;
Structure prediction by ZEFSAII (Michael W. Deem and Ramdas Pophale) SiO2 
 PCOD9549638
Probable space group: P 42 2 2
;
_chemical_formula_sum "Si O2"
_cell_formula_units_Z 36
_cell_length_a 14.377752
_cell_length_b 14.377752
_cell_length_c 9.646159
_cell_angle_alpha 90.000000
_cell_angle_beta 90.000000
_cell_angle_gamma 90.000000
_cell_volume 1994.051602
_symmetry_space_group_name_H-M "P 42 2 2"
_symmetry_group_IT_number 93
_symmetry_cell_setting 'tetragonal'
loop_
_space_group_symop_operation_xyz
x,y,z
-y,x,1/2+z
-x,-y,z
y,-x,1/2+z
x,-y,-z
-x,y,-z
y,x,1/2-z
-y,-x,1/2-z
loop_
_atom_site_type_symbol
_atom_site_label
_atom_site_fract_x
_atom_site_fract_y
_atom_site_fract_z
Si Si1 0.500000 0.163287 0.500000
Si Si2 0.020177 0.703024 0.249050
Si Si3 0.500000 0.000000 0.725761
Si Si4 0.845485 0.000000 0.000000
Si Si5 0.862713 0.195729 0.902020
Si Si6 0.775285 0.311455 0.120290
O O1 0.511179 0.091167 0.627994
O O2 0.411142 0.224637 0.544161
O O3 0.004683 0.598212 0.303019
O O4 0.015564 0.779729 0.367575
O O5 0.945099 0.731632 0.131357
O O6 0.122056 0.702116 0.184481
O O7 0.896018 0.902742 0.033595
O O8 0.823501 0.176500 0.750000
O O9 0.780138 0.234627 0.998845
O O10 0.706665 0.293335 0.250000
#
# Coordination Sequence:
#
# PCOD9549638 Si02
#       6
#     4   8   4   4   8   8
#     4   9  18  30  50  82 104 143 186 228 297 336
#     4  10  19  32  52  72 105 147 191 240 286 335
#     4   9  16  29  50  74 104 145 183 232 294 343
#     4  10  20  33  47  74 106 154 190 234 289 331
#     4  10  20  34  50  70 109 150 190 238 283 325
#     4  11  19  34  56  77 107 146 191 239 278 349
#
# _framework density 18.053694
#
# number of rings (size 3 to 8) (size 9 to 14) (size 15 to 20)
#    0.000    2.000    4.444    0.667    0.000    0.444 
#    0.000    2.222    0.000    1.333    0.000    0.000 
#    0.000    2.667    0.000    0.000    0.000    0.000 
#
# Total GULP energy -200434.919682 kJ/mol
# GULP energy per Si atom -5567.636658 kJ/mol
# Density = 1.801260 g / cm^3
# Si number density = 18.053694 Si / 1000 Ang^3
#
#
#
# Elastic Constant Matrix: (Units=GPa)
#
#
# Indices 1 2 3 4 5 6 
#
# 1 89.1701 22.2099 22.8068 0.0000 0.0000 0.0000
# 2 22.2099 89.1698 22.8071 0.0000 0.0000 0.0000
# 3 22.8068 22.8071 76.4286 0.0000 0.0000 0.0000
# 4 0.0000 0.0000 0.0000 10.7954 0.0000 0.0000
# 5 0.0000 0.0000 0.0000 0.0000 10.7948 0.0000
# 6 0.0000 0.0000 0.0000 0.0000 0.0000 8.8963
#
#
#
# Elastic Compliance Matrix: (Units=1/GPa)
#
#
# Indices 1 2 3 4 5 6 
#
# 1 0.012581 -0.002353 -0.003052 0.000000 0.000000 0.000000
# 2 -0.002353 0.012581 -0.003052 0.000000 0.000000 0.000000
# 3 -0.003052 -0.003052 0.014906 0.000000 0.000000 0.000000
# 4 0.000000 0.000000 0.000000 0.092632 0.000000 0.000000
# 5 0.000000 0.000000 0.000000 0.000000 0.092637 0.000000
# 6 0.000000 0.000000 0.000000 0.000000 0.000000 0.112406
#
#
# Mechanical properties :
#
#
# Convention : Reuss Voigt Hill
#
# Bulk Modulus (GPa) = 43.19013 43.37957 43.28485
# Shear Modulus (GPa) = 13.79781 18.56028 16.17905
#
# Velocity S-wave (km/s) = 2.76753 3.20982 2.99685
# Velocity P-wave (km/s) = 5.84700 6.14959 6.00020
#
# Compressibility (1/GPa) = 0.02315344
#
# Stress axis : x y z
#
# Youngs Moduli (GPa) = 79.48343 79.48302 67.08839
#
# Poissons Ratio (x) = 0.18702 0.20477
# Poissons Ratio (y) = 0.18702 0.20477
# Poissons Ratio (z) = 0.24260 0.24260
#
# Static dielectric constant tensor:
#      x y z
#    x 1.666990 0.000000 0.000000 
#    y 0.000000 1.666990 0.000000 
#    z 0.000000 0.000000 1.689590 
# 
# From -- ./inp_files/1748.got.cif
#   From: 2010.05.17/outbox.cif.g08.bks.cpg/sg93_1_cif.got.tgz:1748.got - 2010.06.03 19:38:44.
