data_PCOD9549919
_publ_section_title
;
Structure prediction by ZEFSAII (Michael W. Deem and Ramdas Pophale) SiO2 
 PCOD9549919
Probable space group: P 42 21 2
;
_chemical_formula_sum "Si O2"
_cell_formula_units_Z 40
_cell_length_a 12.558937
_cell_length_b 12.558937
_cell_length_c 14.216192
_cell_angle_alpha 90.000000
_cell_angle_beta 90.000000
_cell_angle_gamma 90.000000
_cell_volume 2242.275874
_symmetry_space_group_name_H-M "P 42 21 2"
_symmetry_group_IT_number 94
_symmetry_cell_setting 'tetragonal'
loop_
_space_group_symop_operation_xyz
x,y,z
1/2-y,1/2+x,1/2+z
-x,-y,z
1/2+y,1/2-x,1/2+z
1/2+x,1/2-y,1/2-z
1/2-x,1/2+y,1/2-z
y,x,-z
-y,-x,-z
loop_
_atom_site_type_symbol
_atom_site_label
_atom_site_fract_x
_atom_site_fract_y
_atom_site_fract_z
Si Si1 0.467727 0.608716 0.603314
Si Si2 0.607762 0.865494 0.762184
Si Si3 0.307667 0.267778 0.603973
Si Si4 0.889725 0.356696 0.239550
Si Si5 0.746684 0.769179 0.111710
O O1 0.500000 0.500000 0.655838
O O2 0.426313 0.573688 0.500000
O O3 0.577522 0.673196 0.595917
O O4 0.367718 0.675124 0.640648
O O5 0.659641 0.836897 0.661515
O O6 0.480230 0.852987 0.761865
O O7 0.663792 0.788007 0.836651
O O8 0.637847 0.986294 0.784572
O O9 0.260318 0.260318 0.500000
O O10 0.221650 0.331101 0.666743
O O11 0.864048 0.307019 0.342239
O O12 0.752174 0.752174 0.000000
#
# Coordination Sequence:
#
# PCOD9549919 Si02
#       5
#     8   8   8   8   8
#     4  10  17  29  53  82 106 134 183 231 273 313
#     4  10  22  38  56  83 117 149 184 231 287 340
#     4  11  21  36  57  87 113 146 193 236 277 337
#     4  10  22  38  56  83 117 149 184 231 287 340
#     4  10  21  36  57  81 110 148 190 226 275 337
#
# _framework density 17.839017999999999
#
# number of rings (size 3 to 8) (size 9 to 14) (size 15 to 20)
#    0.000    1.800    4.000    1.200    2.800    1.600 
#    0.000    4.000    0.000    0.000    0.000    5.600 
#    0.000    0.000    0.000    0.000    0.000    0.000 
#
# Total GULP energy -222735.953302 kJ/mol
# GULP energy per Si atom -5568.398833 kJ/mol
# Density = 1.779842 g / cm^3
# Si number density = 17.839018 Si / 1000 Ang^3
#
#
#
# Elastic Constant Matrix: (Units=GPa)
#
#
# Indices 1 2 3 4 5 6 
#
# 1 49.8217 37.4471 15.5649 0.0000 0.0000 0.0000
# 2 37.4471 49.8214 15.5652 0.0000 0.0000 0.0000
# 3 15.5649 15.5652 82.4762 0.0000 0.0000 0.0000
# 4 0.0000 0.0000 0.0000 19.7355 0.0000 0.0000
# 5 0.0000 0.0000 0.0000 0.0000 19.7355 0.0000
# 6 0.0000 0.0000 0.0000 0.0000 0.0000 29.6341
#
#
#
# Elastic Compliance Matrix: (Units=1/GPa)
#
#
# Indices 1 2 3 4 5 6 
#
# 1 0.046548 -0.034263 -0.002318 0.000000 0.000000 0.000000
# 2 -0.034263 0.046549 -0.002319 0.000000 0.000000 0.000000
# 3 -0.002318 -0.002319 0.013000 0.000000 0.000000 0.000000
# 4 0.000000 0.000000 0.000000 0.050670 0.000000 0.000000
# 5 0.000000 0.000000 0.000000 0.000000 0.050670 0.000000
# 6 0.000000 0.000000 0.000000 0.000000 0.000000 0.033745
#
#
# Mechanical properties :
#
#
# Convention : Reuss Voigt Hill
#
# Bulk Modulus (GPa) = 35.33908 35.47483 35.40696
# Shear Modulus (GPa) = 15.22464 21.39050 18.30757
#
# Velocity S-wave (km/s) = 2.92455 3.46654 3.20701
# Velocity P-wave (km/s) = 5.59079 5.99598 5.79693
#
# Compressibility (1/GPa) = 0.02829729
#
# Stress axis : x y z
#
# Youngs Moduli (GPa) = 21.48297 21.48274 76.92386
#
# Poissons Ratio (x) = 0.73606 0.17834
# Poissons Ratio (y) = 0.73607 0.17837
# Poissons Ratio (z) = 0.04981 0.04982
#
# Static dielectric constant tensor:
#      x y z
#    x 1.627860 0.000000 0.000000 
#    y 0.000000 1.627860 0.000000 
#    z 0.000000 0.000000 1.613290 
# 
# From -- ./inp_files/3368.got.cif
#   From: 2010.05.17/outbox.cif.g08.bks.cpg/sg94_2_cif.got.tgz:3368.got - 2010.06.03 19:43:16.
