data_PCOD9549550
_publ_section_title
;
Structure prediction by ZEFSAII (Michael W. Deem and Ramdas Pophale) SiO2 
 PCOD9549550
Probable space group: P 41 21 2
;
_chemical_formula_sum "Si O2"
_cell_formula_units_Z 24
_cell_length_a 13.843852
_cell_length_b 13.843852
_cell_length_c 4.920392
_cell_angle_alpha 90.000000
_cell_angle_beta 90.000000
_cell_angle_gamma 90.000000
_cell_volume 943.004140
_symmetry_space_group_name_H-M "P 41 21 2"
_symmetry_group_IT_number 92
_symmetry_cell_setting 'tetragonal'
loop_
_space_group_symop_operation_xyz
x,y,z
1/2-y,1/2+x,1/4+z
-x,-y,1/2+z
1/2+y,1/2-x,3/4+z
1/2+x,1/2-y,3/4-z
1/2-x,1/2+y,1/4-z
y,x,-z
-y,-x,1/2-z
loop_
_atom_site_type_symbol
_atom_site_label
_atom_site_fract_x
_atom_site_fract_y
_atom_site_fract_z
Si Si1 0.368486 0.631515 0.250000
Si Si2 0.020303 0.644706 0.000281
Si Si3 0.245496 0.951495 0.986244
Si Si4 0.263967 0.736034 0.750000
O O1 0.482881 0.650621 0.214080
O O2 0.331861 0.698440 0.502688
O O3 0.058286 0.727403 0.198931
O O4 0.937069 0.595543 0.173897
O O5 0.985058 0.684429 0.711306
O O6 0.263608 0.846552 0.857741
#
# Coordination Sequence:
#
# PCOD9549550 Si02
#       4
#     4   8   8   4
#     4  12  26  46  72 100 136 180 226 280 336 398
#     4  12  23  38  65  98 132 170 220 286 348 396
#     4  12  25  44  67  96 136 178 226 272 332 402
#     4  12  26  46  72 100 136 180 226 280 336 398
#
# _framework density 25.450578
#
# number of rings (size 3 to 8) (size 9 to 14) (size 15 to 20)
#    0.000    0.000    0.000   14.000    0.000    0.000 
#    0.000    6.667    0.000    0.000    0.000    0.000 
#    0.000    0.000    0.000    0.000    0.000    0.000 
#
# Total GULP energy -134127.799004 kJ/mol
# GULP energy per Si atom -5588.658292 kJ/mol
# Density = 2.539265 g / cm^3
# Si number density = 25.450578 Si / 1000 Ang^3
#
#
#
# Elastic Constant Matrix: (Units=GPa)
#
#
# Indices 1 2 3 4 5 6 
#
# 1 26.2563 -8.7341 -13.2861 0.0000 0.0000 0.0000
# 2 -8.7341 26.2550 -13.2869 0.0000 0.0000 0.0000
# 3 -13.2861 -13.2869 149.8563 0.0000 0.0000 0.0000
# 4 0.0000 0.0000 0.0000 23.4678 0.0000 0.0000
# 5 0.0000 0.0000 0.0000 0.0000 23.4678 0.0000
# 6 0.0000 0.0000 0.0000 0.0000 0.0000 29.1507
#
#
#
# Elastic Compliance Matrix: (Units=1/GPa)
#
#
# Indices 1 2 3 4 5 6 
#
# 1 0.047258 0.018679 0.005846 0.000000 0.000000 0.000000
# 2 0.018679 0.047261 0.005846 0.000000 0.000000 0.000000
# 3 0.005846 0.005846 0.007710 0.000000 0.000000 0.000000
# 4 0.000000 0.000000 0.000000 0.042612 0.000000 0.000000
# 5 0.000000 0.000000 0.000000 0.000000 0.042612 0.000000
# 6 0.000000 0.000000 0.000000 0.000000 0.000000 0.034304
#
#
# Mechanical properties :
#
#
# Convention : Reuss Voigt Hill
#
# Bulk Modulus (GPa) = 6.13603 14.63929 10.38766
# Shear Modulus (GPa) = 23.21953 31.06226 27.14090
#
# Velocity S-wave (km/s) = 3.02377 3.49735 3.26915
# Velocity P-wave (km/s) = 3.82192 4.69820 4.28254
#
# Compressibility (1/GPa) = 0.16297192
#
# Stress axis : x y z
#
# Youngs Moduli (GPa) = 21.16051 21.15926 129.70628
#
# Poissons Ratio (x) = -0.39524 -0.75827
# Poissons Ratio (y) = -0.39527 -0.75832
# Poissons Ratio (z) = -0.12370 -0.12371
#
# Static dielectric constant tensor:
#      x y z
#    x 2.119080 0.000000 0.000000 
#    y 0.000000 2.119090 0.000000 
#    z 0.000000 0.000000 1.995710 
# 
# From -- ./inp_files/173.got.cif
#   From: 2010.05.17/outbox.cif.g08.bks.cpg/sg92_1_cif.got.tgz:173.got - 2010.06.03 19:35:17.
