data_PCOD9549258
_publ_section_title
;
Structure prediction by ZEFSAII (Michael W. Deem and Ramdas Pophale) SiO2 
 PCOD9549258
Probable space group: P 41 21 2
;
_chemical_formula_sum "Si O2"
_cell_formula_units_Z 40
_cell_length_a 8.866554
_cell_length_b 8.866554
_cell_length_c 22.713118
_cell_angle_alpha 90.000000
_cell_angle_beta 90.000000
_cell_angle_gamma 90.000000
_cell_volume 1785.609484
_symmetry_space_group_name_H-M "P 41 21 2"
_symmetry_group_IT_number 92
_symmetry_cell_setting 'tetragonal'
loop_
_space_group_symop_operation_xyz
x,y,z
1/2-y,1/2+x,1/4+z
-x,-y,1/2+z
1/2+y,1/2-x,3/4+z
1/2+x,1/2-y,3/4-z
1/2-x,1/2+y,1/4-z
y,x,-z
-y,-x,1/2-z
loop_
_atom_site_type_symbol
_atom_site_label
_atom_site_fract_x
_atom_site_fract_y
_atom_site_fract_z
Si Si1 0.879732 0.127175 0.612528
Si Si2 0.076294 0.620424 0.671794
Si Si3 0.776377 0.867835 0.421436
Si Si4 0.869039 0.306110 0.001418
Si Si5 0.687323 0.209270 0.114745
O O1 0.797031 0.204063 0.668481
O O2 0.794974 0.184507 0.553502
O O3 0.044458 0.195513 0.615115
O O4 0.874845 0.945032 0.606132
O O5 0.191593 0.759383 0.666230
O O6 0.151720 0.462276 0.653301
O O7 0.954863 0.659948 0.621730
O O8 0.978344 0.612857 0.730831
O O9 0.758886 0.967628 0.479784
O O10 0.759771 0.283387 0.056287
#
# Coordination Sequence:
#
# PCOD9549258 Si02
#       5
#     8   8   8   8   8
#     4  11  22  42  67  94 134 177 226 283 335 405
#     4  10  23  43  63  93 132 169 219 275 333 408
#     4  10  22  42  64  93 131 174 224 270 333 411
#     4  10  23  42  65  94 132 177 216 268 346 411
#     4  11  23  43  68  98 135 175 226 288 339 401
#
# _framework density 22.401316000000001
#
# number of rings (size 3 to 8) (size 9 to 14) (size 15 to 20)
#    0.000    1.600    0.000    5.400    0.000    6.400 
#    0.000   28.000    0.000    0.000    0.000    0.000 
#    0.000    0.000    0.000    0.000    0.000    0.000 
#
# Total GULP energy -223256.952662 kJ/mol
# GULP energy per Si atom -5581.423817 kJ/mol
# Density = 2.235033 g / cm^3
# Si number density = 22.401316 Si / 1000 Ang^3
#
#
#
# Elastic Constant Matrix: (Units=GPa)
#
#
# Indices 1 2 3 4 5 6 
#
# 1 91.5086 8.1141 19.6015 0.0000 0.0000 0.0000
# 2 8.1141 91.5086 19.6015 0.0000 0.0000 0.0000
# 3 19.6015 19.6015 62.9676 0.0000 0.0000 0.0000
# 4 0.0000 0.0000 0.0000 33.6883 0.0000 0.0000
# 5 0.0000 0.0000 0.0000 0.0000 33.6883 0.0000
# 6 0.0000 0.0000 0.0000 0.0000 0.0000 46.3619
#
#
#
# Elastic Compliance Matrix: (Units=1/GPa)
#
#
# Indices 1 2 3 4 5 6 
#
# 1 0.011715 -0.000276 -0.003561 0.000000 0.000000 0.000000
# 2 -0.000276 0.011715 -0.003561 0.000000 0.000000 0.000000
# 3 -0.003561 -0.003561 0.018098 0.000000 0.000000 0.000000
# 4 0.000000 0.000000 0.000000 0.029684 0.000000 0.000000
# 5 0.000000 0.000000 0.000000 0.000000 0.029684 0.000000
# 6 0.000000 0.000000 0.000000 0.000000 0.000000 0.021569
#
#
# Mechanical properties :
#
#
# Convention : Reuss Voigt Hill
#
# Bulk Modulus (GPa) = 37.40737 37.84656 37.62696
# Shear Modulus (GPa) = 34.20614 35.99220 35.09917
#
# Velocity S-wave (km/s) = 3.91189 4.01272 3.96262
# Velocity P-wave (km/s) = 6.09416 6.19683 6.14571
#
# Compressibility (1/GPa) = 0.02673270
#
# Stress axis : x y z
#
# Youngs Moduli (GPa) = 85.35937 85.35937 55.25412
#
# Poissons Ratio (x) = 0.02356 0.19676
# Poissons Ratio (y) = 0.02356 0.19676
# Poissons Ratio (z) = 0.30396 0.30396
#
# Static dielectric constant tensor:
#      x y z
#    x 1.855970 0.000000 0.000000 
#    y 0.000000 1.855970 0.000000 
#    z 0.000000 0.000000 1.939240 
# 
# From -- ./inp_files/3758.got.cif
#   From: 2010.05.17/outbox.cif.g08.bks.cpg/sg92_2_cif.got.tgz:3758.got - 2010.06.03 19:35:17.
