data_PCOD9549022
_publ_section_title
;
Structure prediction by ZEFSAII (Michael W. Deem and Ramdas Pophale) SiO2 
 PCOD9549022
Probable space group: P 41 21 2
;
_chemical_formula_sum "Si O2"
_cell_formula_units_Z 28
_cell_length_a 6.861565
_cell_length_b 6.861565
_cell_length_c 21.604311
_cell_angle_alpha 90.000000
_cell_angle_beta 90.000000
_cell_angle_gamma 90.000000
_cell_volume 1017.154170
_symmetry_space_group_name_H-M "P 41 21 2"
_symmetry_group_IT_number 92
_symmetry_cell_setting 'tetragonal'
loop_
_space_group_symop_operation_xyz
x,y,z
1/2-y,1/2+x,1/4+z
-x,-y,1/2+z
1/2+y,1/2-x,3/4+z
1/2+x,1/2-y,3/4-z
1/2-x,1/2+y,1/4-z
y,x,-z
-y,-x,1/2-z
loop_
_atom_site_type_symbol
_atom_site_label
_atom_site_fract_x
_atom_site_fract_y
_atom_site_fract_z
Si Si1 0.548565 0.620208 0.132495
Si Si2 0.594304 0.272752 0.052230
Si Si3 0.882260 0.882260 0.000000
Si Si4 0.428811 0.899893 0.042337
O O1 0.526895 0.483707 0.073014
O O2 0.773444 0.686983 0.141309
O O3 0.511112 0.481299 0.190853
O O4 0.433500 0.812922 0.111911
O O5 0.411607 0.132360 0.042013
O O6 0.762004 0.299851 0.000500
O O7 0.898147 0.651270 0.985626
#
# Coordination Sequence:
#
# PCOD9549022 Si02
#       4
#     8   8   4   8
#     4  11  20  39  70 100 144 192 247 305 376 453
#     4  11  20  39  69 110 138 198 251 300 380 457
#     4  10  20  36  68 102 132 200 248 300 374 460
#     4  11  22  39  70 102 147 194 246 313 379 448
#
# _framework density 27.527785000000002
#
# number of rings (size 3 to 8) (size 9 to 14) (size 15 to 20)
#    0.000    1.143    8.571    0.000    0.000    0.000 
#    0.000    5.714   25.143    0.000    0.000    0.000 
#    0.000    0.000    0.000    0.000    0.000    0.000 
#
# Total GULP energy -156466.769056 kJ/mol
# GULP energy per Si atom -5588.098895 kJ/mol
# Density = 2.746513 g / cm^3
# Si number density = 27.527785 Si / 1000 Ang^3
#
#
#
# Elastic Constant Matrix: (Units=GPa)
#
#
# Indices 1 2 3 4 5 6 
#
# 1 102.3075 37.2649 41.7402 0.0000 0.0000 0.0000
# 2 37.2649 102.3075 41.7402 0.0000 0.0000 0.0000
# 3 41.7402 41.7402 123.5194 0.0000 0.0000 0.0000
# 4 0.0000 0.0000 0.0000 47.6290 0.0000 0.0000
# 5 0.0000 0.0000 0.0000 0.0000 47.6290 0.0000
# 6 0.0000 0.0000 0.0000 0.0000 0.0000 49.3704
#
#
#
# Elastic Compliance Matrix: (Units=1/GPa)
#
#
# Indices 1 2 3 4 5 6 
#
# 1 0.012177 -0.003197 -0.003034 0.000000 0.000000 0.000000
# 2 -0.003197 0.012177 -0.003034 0.000000 0.000000 0.000000
# 3 -0.003034 -0.003034 0.010147 0.000000 0.000000 0.000000
# 4 0.000000 0.000000 0.000000 0.020996 0.000000 0.000000
# 5 0.000000 0.000000 0.000000 0.000000 0.020996 0.000000
# 6 0.000000 0.000000 0.000000 0.000000 0.000000 0.020255
#
#
# Mechanical properties :
#
#
# Convention : Reuss Voigt Hill
#
# Bulk Modulus (GPa) = 62.62410 63.29165 62.95787
# Shear Modulus (GPa) = 41.45847 42.75163 42.10505
#
# Velocity S-wave (km/s) = 3.88501 3.94513 3.91519
# Velocity P-wave (km/s) = 6.55158 6.61770 6.58472
#
# Compressibility (1/GPa) = 0.01596829
#
# Stress axis : x y z
#
# Youngs Moduli (GPa) = 82.12128 82.12128 98.55396
#
# Poissons Ratio (x) = 0.26258 0.29906
# Poissons Ratio (y) = 0.26258 0.29906
# Poissons Ratio (z) = 0.24919 0.24919
#
# Static dielectric constant tensor:
#      x y z
#    x 2.180850 0.000000 0.000000 
#    y 0.000000 2.180850 0.000000 
#    z 0.000000 0.000000 2.218060 
# 
# From -- ./inp_files/3301.got.cif
#   From: 2010.05.17/outbox.cif.g08.bks.cpg/sg92_2_cif.got.tgz:3301.got - 2010.06.03 19:35:17.
