data_PCOD9549971
_publ_section_title
;
Structure prediction by ZEFSAII (Michael W. Deem and Ramdas Pophale) SiO2 
 PCOD9549971
Probable space group: P 42 21 2
;
_chemical_formula_sum "Si O2"
_cell_formula_units_Z 54
_cell_length_a 10.669494
_cell_length_b 10.669494
_cell_length_c 20.896955
_cell_angle_alpha 90.000000
_cell_angle_beta 90.000000
_cell_angle_gamma 90.000000
_cell_volume 2378.869699
_symmetry_space_group_name_H-M "P 42 21 2"
_symmetry_group_IT_number 94
_symmetry_cell_setting 'tetragonal'
loop_
_space_group_symop_operation_xyz
x,y,z
1/2-y,1/2+x,1/2+z
-x,-y,z
1/2+y,1/2-x,1/2+z
1/2+x,1/2-y,1/2-z
1/2-x,1/2+y,1/2-z
y,x,-z
-y,-x,-z
loop_
_atom_site_type_symbol
_atom_site_label
_atom_site_fract_x
_atom_site_fract_y
_atom_site_fract_z
Si Si1 0.859075 0.140109 0.073371
Si Si2 0.500000 0.000000 0.561951
Si Si3 0.229845 0.546223 0.343469
Si Si4 0.000000 0.000000 0.500000
Si Si5 0.973083 0.296122 0.699269
Si Si6 0.706513 0.594231 0.812912
Si Si7 0.749434 0.421177 0.929343
Si Si8 0.965613 0.299344 0.175634
O O1 0.841525 0.015111 0.116332
O O2 0.727356 0.221731 0.072824
O O3 0.959461 0.223510 0.110401
O O4 0.887640 0.112361 0.000000
O O5 0.483624 0.883006 0.608476
O O6 0.367375 0.023893 0.529304
O O7 0.216056 0.475663 0.276221
O O8 0.205180 0.690700 0.325519
O O9 0.981489 0.875424 0.458029
O O10 0.924923 0.162923 0.673561
O O11 0.881499 0.410167 0.681771
O O12 0.107982 0.345250 0.677747
O O13 0.747290 0.480187 0.858188
O O14 0.716225 0.549021 0.739714
#
# Coordination Sequence:
#
# PCOD9549971 Si02
#       8
#     8   4   8   2   8   8   8   8
#     4  11  21  38  60  84 119 161 201 243 304 380
#     4   8  16  36  62  80 110 174 216 226 298 404
#     4   9  17  35  58  86 112 151 206 248 296 373
#     4  12  24  40  60 100 152 148 206 288 328 372
#     4  10  19  36  59  87 118 149 199 255 315 353
#     4  10  20  36  63  86 118 157 200 255 316 360
#     4  10  22  38  61  90 128 167 205 255 328 378
#     4  10  21  36  59  87 119 153 200 261 294 378
#
# _framework density 22.699856
#
# number of rings (size 3 to 8) (size 9 to 14) (size 15 to 20)
#    0.000    2.074    2.222    3.556    2.074    0.000 
#    0.000   14.074    0.000    0.889    0.000    0.000 
#    0.000    0.000    0.000    0.000    0.000    0.000 
#
# Total GULP energy -301151.434561 kJ/mol
# GULP energy per Si atom -5576.878418 kJ/mol
# Density = 2.264819 g / cm^3
# Si number density = 22.699856 Si / 1000 Ang^3
#
#
#
# Elastic Constant Matrix: (Units=GPa)
#
#
# Indices 1 2 3 4 5 6 
#
# 1 45.2187 14.3273 17.7513 0.0000 0.0000 0.0000
# 2 14.3273 45.2190 17.7517 0.0000 0.0000 0.0000
# 3 17.7513 17.7517 113.3997 0.0000 0.0000 0.0000
# 4 0.0000 0.0000 0.0000 -17.9151 0.0000 0.0000
# 5 0.0000 0.0000 0.0000 0.0000 -17.9187 0.0000
# 6 0.0000 0.0000 0.0000 0.0000 0.0000 39.8613
#
#
#
# Elastic Compliance Matrix: (Units=1/GPa)
#
#
# Indices 1 2 3 4 5 6 
#
# 1 0.025447 -0.006924 -0.002899 0.000000 0.000000 0.000000
# 2 -0.006924 0.025447 -0.002900 0.000000 0.000000 0.000000
# 3 -0.002899 -0.002900 0.009726 0.000000 0.000000 0.000000
# 4 0.000000 0.000000 0.000000 -0.055819 0.000000 0.000000
# 5 0.000000 0.000000 0.000000 0.000000 -0.055808 0.000000
# 6 0.000000 0.000000 0.000000 0.000000 0.000000 0.025087
#
#
# Mechanical properties :
#
#
# Convention : Reuss Voigt Hill
#
# Bulk Modulus (GPa) = 28.43082 33.72200 31.07641
# Shear Modulus (GPa) = 444.37937 11.07264 227.72600
#
# Velocity S-wave (km/s) = 14.00672 2.21098 10.02688
# Velocity P-wave (km/s) = 16.55705 4.62664 12.15610
#
# Compressibility (1/GPa) = 0.03517309
#
# Stress axis : x y z
#
# Youngs Moduli (GPa) = 39.29747 39.29763 102.81576
#
# Poissons Ratio (x) = 0.27211 0.29811
# Poissons Ratio (y) = 0.27211 0.29812
# Poissons Ratio (z) = 0.11394 0.11395
#
# Static dielectric constant tensor:
#      x y z
#    x 1.945410 0.000000 0.000000 
#    y 0.000000 1.945410 0.000000 
#    z 0.000000 0.000000 1.826110 
# 
# From -- ./inp_files/4778.got.cif
#   From: 2010.05.17/outbox.cif.g08.bks.cpg/sg94_3_cif.got.tgz:4778.got - 2010.06.03 19:43:16.
