data_PCOD9549542
_publ_section_title
;
Structure prediction by ZEFSAII (Michael W. Deem and Ramdas Pophale) SiO2 
 PCOD9549542
Probable space group: P 41 21 2
;
_chemical_formula_sum "Si O2"
_cell_formula_units_Z 40
_cell_length_a 13.470303
_cell_length_b 13.470303
_cell_length_c 9.026751
_cell_angle_alpha 90.000000
_cell_angle_beta 90.000000
_cell_angle_gamma 90.000000
_cell_volume 1637.895510
_symmetry_space_group_name_H-M "P 41 21 2"
_symmetry_group_IT_number 92
_symmetry_cell_setting 'tetragonal'
loop_
_space_group_symop_operation_xyz
x,y,z
1/2-y,1/2+x,1/4+z
-x,-y,1/2+z
1/2+y,1/2-x,3/4+z
1/2+x,1/2-y,3/4-z
1/2-x,1/2+y,1/4-z
y,x,-z
-y,-x,1/2-z
loop_
_atom_site_type_symbol
_atom_site_label
_atom_site_fract_x
_atom_site_fract_y
_atom_site_fract_z
Si Si1 0.228742 0.612517 0.550940
Si Si2 0.743590 0.544171 0.796436
Si Si3 0.105538 0.548951 0.113428
Si Si4 0.098871 0.262664 0.650783
Si Si5 0.964281 0.099537 0.594905
O O1 0.244503 0.512354 0.454547
O O2 0.132037 0.677818 0.512346
O O3 0.215875 0.605062 0.726891
O O4 0.325709 0.681019 0.537500
O O5 0.783985 0.463605 0.679992
O O6 0.634493 0.581829 0.752466
O O7 0.037773 0.565494 0.255287
O O8 0.134662 0.624786 0.983480
O O9 0.989657 0.210830 0.647719
O O10 0.957578 0.042423 0.750000
O O11 0.054891 0.054891 0.500000
#
# Coordination Sequence:
#
# PCOD9549542 Si02
#       5
#     8   8   8   8   8
#     4  11  27  50  74 117 148 204 258 322 386 470
#     4  12  27  46  80 107 156 201 257 318 395 461
#     4  12  29  49  76 110 150 206 257 331 397 478
#     4  11  27  49  73 111 155 194 264 312 388 474
#     4  12  25  47  73 111 151 202 253 318 385 457
#
# _framework density 24.421582000000001
#
# number of rings (size 3 to 8) (size 9 to 14) (size 15 to 20)
#    0.000    0.400    6.000    1.200    8.400    1.600 
#    0.000    0.000    0.000    0.000    0.000    0.000 
#    0.000    0.000    0.000    0.000    0.000    0.000 
#
# Total GULP energy -222870.778394 kJ/mol
# GULP energy per Si atom -5571.769460 kJ/mol
# Density = 2.436600 g / cm^3
# Si number density = 24.421582 Si / 1000 Ang^3
#
#
#
# Elastic Constant Matrix: (Units=GPa)
#
#
# Indices 1 2 3 4 5 6 
#
# 1 50.9831 44.2291 38.1894 0.0000 0.0000 0.0000
# 2 44.2291 50.9851 38.1901 0.0000 0.0000 0.0000
# 3 38.1894 38.1901 106.8926 0.0000 0.0000 0.0000
# 4 0.0000 0.0000 0.0000 43.3766 0.0000 0.0000
# 5 0.0000 0.0000 0.0000 0.0000 43.3761 0.0000
# 6 0.0000 0.0000 0.0000 0.0000 0.0000 35.4405
#
#
#
# Elastic Compliance Matrix: (Units=1/GPa)
#
#
# Indices 1 2 3 4 5 6 
#
# 1 0.081382 -0.066658 -0.005260 0.000000 0.000000 0.000000
# 2 -0.066658 0.081379 -0.005260 0.000000 0.000000 0.000000
# 3 -0.005260 -0.005260 0.013114 0.000000 0.000000 0.000000
# 4 0.000000 0.000000 0.000000 0.023054 0.000000 0.000000
# 5 0.000000 0.000000 0.000000 0.000000 0.023054 0.000000
# 6 0.000000 0.000000 0.000000 0.000000 0.000000 0.028216
#
#
# Mechanical properties :
#
#
# Convention : Reuss Voigt Hill
#
# Bulk Modulus (GPa) = 46.47146 50.00866 48.24006
# Shear Modulus (GPa) = 12.14394 30.32212 21.23303
#
# Velocity S-wave (km/s) = 2.23236 3.52747 2.95182
# Velocity P-wave (km/s) = 5.07097 6.09200 5.60478
#
# Compressibility (1/GPa) = 0.02151858
#
# Stress axis : x y z
#
# Youngs Moduli (GPa) = 12.28771 12.28819 76.25700
#
# Poissons Ratio (x) = 0.81911 0.40110
# Poissons Ratio (y) = 0.81908 0.40109
# Poissons Ratio (z) = 0.06463 0.06463
#
# Static dielectric constant tensor:
#      x y z
#    x 2.087980 0.000000 0.000000 
#    y 0.000000 2.087980 0.000000 
#    z 0.000000 0.000000 2.049970 
# 
# From -- ./inp_files/1281.got.cif
#   From: 2010.05.17/outbox.cif.g08.bks.cpg/sg92_1_cif.got.tgz:1281.got - 2010.06.03 19:35:17.
