data_PCOD9549716
_publ_section_title
;
Structure prediction by ZEFSAII (Michael W. Deem and Ramdas Pophale) SiO2 
 PCOD9549716
Probable space group: P 42 2 2
;
_chemical_formula_sum "Si O2"
_cell_formula_units_Z 60
_cell_length_a 11.650152
_cell_length_b 11.650152
_cell_length_c 22.354012
_cell_angle_alpha 90.000000
_cell_angle_beta 90.000000
_cell_angle_gamma 90.000000
_cell_volume 3034.021563
_symmetry_space_group_name_H-M "P 42 2 2"
_symmetry_group_IT_number 93
_symmetry_cell_setting 'tetragonal'
loop_
_space_group_symop_operation_xyz
x,y,z
-y,x,1/2+z
-x,-y,z
y,-x,1/2+z
x,-y,-z
-x,y,-z
y,x,1/2-z
-y,-x,1/2-z
loop_
_atom_site_type_symbol
_atom_site_label
_atom_site_fract_x
_atom_site_fract_y
_atom_site_fract_z
Si Si1 0.095324 0.343973 0.049903
Si Si2 0.986929 0.632295 0.182928
Si Si3 0.439613 0.125454 0.117962
Si Si4 0.365951 0.284667 0.930293
Si Si5 0.350556 0.239911 0.692467
Si Si6 0.233202 0.125579 0.025281
Si Si7 0.500000 0.295566 0.500000
Si Si8 0.596444 0.780703 0.252113
O O1 0.041189 0.369175 0.113521
O O2 0.132014 0.210875 0.045074
O O3 0.207690 0.423283 0.039993
O O4 0.000000 0.368215 0.000000
O O5 0.877318 0.677212 0.218014
O O6 0.000000 0.500000 0.204691
O O7 0.108325 0.690460 0.192516
O O8 0.515811 0.220266 0.083342
O O9 0.321594 0.114129 0.080913
O O10 0.431085 0.172653 0.185756
O O11 0.500000 0.000000 0.118077
O O12 0.301249 0.311073 0.867949
O O13 0.294951 0.196861 0.971912
O O14 0.368635 0.407214 0.963500
O O15 0.301798 0.301798 0.750000
O O16 0.487223 0.236531 0.704279
O O17 0.202434 0.000000 0.000000
O O18 0.661791 0.661791 0.250000
#
# Coordination Sequence:
#
# PCOD9549716 Si02
#       8
#     8   8   8   8   8   8   4   8
#     4  11  21  39  64  94 128 173 214 275 342 398
#     4  10  20  37  64  90 122 162 219 269 319 400
#     4  12  23  42  68  94 131 181 228 275 338 414
#     4  11  23  40  66  97 130 175 222 269 341 406
#     4  11  22  41  63  93 128 169 216 270 334 406
#     4  11  24  41  64  94 133 173 226 281 332 403
#     4  10  21  38  63  96 132 166 216 270 334 402
#     4  11  24  42  64  96 130 172 223 276 340 403
#
# _framework density 19.775732999999999
#
# number of rings (size 3 to 8) (size 9 to 14) (size 15 to 20)
#    0.000    1.067    2.667    6.600    0.000    1.600 
#    0.000    9.333    0.000    2.000    0.000    0.000 
#    0.000    0.000    0.000    0.000    0.000    0.000 
#
# Total GULP energy -335099.309491 kJ/mol
# GULP energy per Si atom -5584.988492 kJ/mol
# Density = 1.973072 g / cm^3
# Si number density = 19.775733 Si / 1000 Ang^3
#
#
#
# Elastic Constant Matrix: (Units=GPa)
#
#
# Indices 1 2 3 4 5 6 
#
# 1 72.7845 17.0884 4.4974 0.0000 0.0000 0.0000
# 2 17.0884 72.7845 4.4974 0.0000 0.0000 0.0000
# 3 4.4974 4.4974 61.5554 0.0000 0.0000 0.0000
# 4 0.0000 0.0000 0.0000 9.6287 0.0000 0.0000
# 5 0.0000 0.0000 0.0000 0.0000 9.6287 0.0000
# 6 0.0000 0.0000 0.0000 0.0000 0.0000 -61.6405
#
#
#
# Elastic Compliance Matrix: (Units=1/GPa)
#
#
# Indices 1 2 3 4 5 6 
#
# 1 0.014582 -0.003373 -0.000819 0.000000 0.000000 0.000000
# 2 -0.003373 0.014582 -0.000819 0.000000 0.000000 0.000000
# 3 -0.000819 -0.000819 0.016365 0.000000 0.000000 0.000000
# 4 0.000000 0.000000 0.000000 0.103856 0.000000 0.000000
# 5 0.000000 0.000000 0.000000 0.000000 0.103856 0.000000
# 6 0.000000 0.000000 0.000000 0.000000 0.000000 -0.016223
#
#
# Mechanical properties :
#
#
# Convention : Reuss Voigt Hill
#
# Bulk Modulus (GPa) = 28.16348 28.81011 28.48679
# Shear Modulus (GPa) = 19.31434 3.59280 11.45357
#
# Velocity S-wave (km/s) = 3.12856 1.34934 2.40921
# Velocity P-wave (km/s) = 5.22713 4.12646 4.70906
#
# Compressibility (1/GPa) = 0.03550697
#
# Stress axis : x y z
#
# Youngs Moduli (GPa) = 68.57918 68.57918 61.10533
#
# Poissons Ratio (x) = 0.23131 0.05004
# Poissons Ratio (y) = 0.23131 0.05004
# Poissons Ratio (z) = 0.05616 0.05616
#
# Static dielectric constant tensor:
#      x y z
#    x 1.733720 0.000000 0.000000 
#    y 0.000000 1.733720 0.000000 
#    z 0.000000 0.000000 1.691770 
# 
# From -- ./inp_files/6347.got.cif
#   From: 2010.05.17/outbox.cif.g08.bks.cpg/sg93_4_cif.got.tgz:6347.got - 2010.06.03 19:38:44.
