data_PCOD9549495
_publ_section_title
;
Structure prediction by ZEFSAII (Michael W. Deem and Ramdas Pophale) SiO2 
 PCOD9549495
Probable space group: P 41 21 2
;
_chemical_formula_sum "Si O2"
_cell_formula_units_Z 36
_cell_length_a 8.483129
_cell_length_b 8.483129
_cell_length_c 19.681548
_cell_angle_alpha 90.000000
_cell_angle_beta 90.000000
_cell_angle_gamma 90.000000
_cell_volume 1416.352639
_symmetry_space_group_name_H-M "P 41 21 2"
_symmetry_group_IT_number 92
_symmetry_cell_setting 'tetragonal'
loop_
_space_group_symop_operation_xyz
x,y,z
1/2-y,1/2+x,1/4+z
-x,-y,1/2+z
1/2+y,1/2-x,3/4+z
1/2+x,1/2-y,3/4-z
1/2-x,1/2+y,1/4-z
y,x,-z
-y,-x,1/2-z
loop_
_atom_site_type_symbol
_atom_site_label
_atom_site_fract_x
_atom_site_fract_y
_atom_site_fract_z
Si Si1 0.709662 0.709662 0.500000
Si Si2 0.479495 0.132088 0.422242
Si Si3 0.351773 0.648925 0.016256
Si Si4 0.813639 0.960486 0.411940
Si Si5 0.959878 0.245362 0.477332
O O1 0.720327 0.523963 0.510615
O O2 0.812735 0.781609 0.439011
O O3 0.549290 0.294819 0.451889
O O4 0.441280 0.150606 0.342306
O O5 0.635880 0.022149 0.427910
O O6 0.333838 0.081142 0.471543
O O7 0.455536 0.669752 0.082030
O O8 0.199395 0.757909 0.020852
O O9 0.950272 0.071307 0.443027
#
# Coordination Sequence:
#
# PCOD9549495 Si02
#       5
#     4   8   8   8   8
#     4  12  26  46  74 114 156 206 264 330 404 500
#     4  11  23  51  76 119 157 216 277 343 411 495
#     4  11  25  45  78 107 159 212 265 340 412 485
#     4  11  26  48  74 119 161 210 279 333 414 497
#     4  11  25  46  82 110 165 213 269 352 400 493
#
# _framework density 25.417401000000002
#
# number of rings (size 3 to 8) (size 9 to 14) (size 15 to 20)
#    0.000    0.889    4.444    1.333    3.111    3.556 
#    8.000    0.000    0.000    0.000    0.000    0.000 
#    0.000    0.000    0.000    0.000    0.000    0.000 
#
# Total GULP energy -200872.402465 kJ/mol
# GULP energy per Si atom -5579.788957 kJ/mol
# Density = 2.535955 g / cm^3
# Si number density = 25.417401 Si / 1000 Ang^3
#
#
#
# Elastic Constant Matrix: (Units=GPa)
#
#
# Indices 1 2 3 4 5 6 
#
# 1 47.6172 78.6970 28.3640 0.0000 0.0000 0.0000
# 2 78.6970 47.6172 28.3640 0.0000 0.0000 0.0000
# 3 28.3640 28.3640 117.2361 0.0000 0.0000 0.0000
# 4 0.0000 0.0000 0.0000 29.4964 0.0000 0.0000
# 5 0.0000 0.0000 0.0000 0.0000 29.4964 0.0000
# 6 0.0000 0.0000 0.0000 0.0000 0.0000 55.0902
#
#
#
# Elastic Compliance Matrix: (Units=1/GPa)
#
#
# Indices 1 2 3 4 5 6 
#
# 1 -0.011647 0.020529 -0.002149 0.000000 0.000000 0.000000
# 2 0.020529 -0.011647 -0.002149 0.000000 0.000000 0.000000
# 3 -0.002149 -0.002149 0.009570 0.000000 0.000000 0.000000
# 4 0.000000 0.000000 0.000000 0.033902 0.000000 0.000000
# 5 0.000000 0.000000 0.000000 0.000000 0.033902 0.000000
# 6 0.000000 0.000000 0.000000 0.000000 0.000000 0.018152
#
#
# Mechanical properties :
#
#
# Convention : Reuss Voigt Hill
#
# Bulk Modulus (GPa) = 53.36808 53.70227 53.53518
# Shear Modulus (GPa) = 108.65485 27.95297 68.30391
#
# Velocity S-wave (km/s) = 6.54531 3.31986 5.18953
# Velocity P-wave (km/s) = 8.84102 5.98910 7.55092
#
# Compressibility (1/GPa) = 0.01873779
#
# Stress axis : x y z
#
# Youngs Moduli (GPa) = -85.86095 -85.86095 104.49774
#
# Poissons Ratio (x) = 1.76260 0.22455
# Poissons Ratio (y) = 1.76260 0.22455
# Poissons Ratio (z) = -0.18450 -0.18450
#
# Static dielectric constant tensor:
#      x y z
#    x 2.098720 0.000000 0.000000 
#    y 0.000000 2.098720 0.000000 
#    z 0.000000 0.000000 1.993970 
# 
# From -- ./inp_files/3443.got.cif
#   From: 2010.05.17/outbox.cif.g08.bks.cpg/sg92_2_cif.got.tgz:3443.got - 2010.06.03 19:35:17.
