data_PCOD9549069
_publ_section_title
;
Structure prediction by ZEFSAII (Michael W. Deem and Ramdas Pophale) SiO2 
 PCOD9549069
Probable space group: P 41 21 2
;
_chemical_formula_sum "Si O2"
_cell_formula_units_Z 36
_cell_length_a 9.532489
_cell_length_b 9.532489
_cell_length_c 20.053016
_cell_angle_alpha 90.000000
_cell_angle_beta 90.000000
_cell_angle_gamma 90.000000
_cell_volume 1822.184407
_symmetry_space_group_name_H-M "P 41 21 2"
_symmetry_group_IT_number 92
_symmetry_cell_setting 'tetragonal'
loop_
_space_group_symop_operation_xyz
x,y,z
1/2-y,1/2+x,1/4+z
-x,-y,1/2+z
1/2+y,1/2-x,3/4+z
1/2+x,1/2-y,3/4-z
1/2-x,1/2+y,1/4-z
y,x,-z
-y,-x,1/2-z
loop_
_atom_site_type_symbol
_atom_site_label
_atom_site_fract_x
_atom_site_fract_y
_atom_site_fract_z
Si Si1 0.102348 0.861320 0.096391
Si Si2 0.862907 0.841708 0.648409
Si Si3 0.103684 0.142934 0.304553
Si Si4 0.654247 0.345754 0.250000
Si Si5 0.332472 0.288229 0.613978
O O1 0.227487 0.753539 0.100196
O O2 0.999513 0.849429 0.159822
O O3 0.998165 0.837415 0.034045
O O4 0.157597 0.019996 0.103886
O O5 0.904262 0.873798 0.725513
O O6 0.003776 0.767765 0.622758
O O7 0.228648 0.250753 0.322306
O O8 0.951571 0.184372 0.338739
O O9 0.688940 0.230426 0.306035
#
# Coordination Sequence:
#
# PCOD9549069 Si02
#       5
#     8   8   8   4   8
#     4  10  24  41  62  94 129 164 206 256 323 361
#     4  11  23  44  60  94 129 168 204 267 310 376
#     4  10  22  41  67  89 129 164 210 268 303 379
#     4  10  20  42  64  90 122 162 212 260 298 376
#     4  10  20  40  66  93 118 163 215 253 313 363
#
# _framework density 19.756508
#
# number of rings (size 3 to 8) (size 9 to 14) (size 15 to 20)
#    0.000    1.778    2.222    2.000    9.333    3.556 
#    4.000    0.000    0.000    0.000    0.000    0.000 
#    0.000    0.000    0.000    0.000    0.000    0.000 
#
# Total GULP energy -200731.707049 kJ/mol
# GULP energy per Si atom -5575.880751 kJ/mol
# Density = 1.971154 g / cm^3
# Si number density = 19.756508 Si / 1000 Ang^3
#
#
#
# Elastic Constant Matrix: (Units=GPa)
#
#
# Indices 1 2 3 4 5 6 
#
# 1 122.1998 91.2640 11.6387 0.0000 0.0000 0.0000
# 2 91.2640 122.2003 11.6393 0.0000 0.0000 0.0000
# 3 11.6387 11.6393 24.1891 0.0000 0.0000 0.0000
# 4 0.0000 0.0000 0.0000 22.0235 0.0000 0.0000
# 5 0.0000 0.0000 0.0000 0.0000 22.0235 0.0000
# 6 0.0000 0.0000 0.0000 0.0000 0.0000 42.6988
#
#
#
# Elastic Compliance Matrix: (Units=1/GPa)
#
#
# Indices 1 2 3 4 5 6 
#
# 1 0.018634 -0.013690 -0.002379 0.000000 0.000000 0.000000
# 2 -0.013690 0.018634 -0.002379 0.000000 0.000000 0.000000
# 3 -0.002379 -0.002379 0.043630 0.000000 0.000000 0.000000
# 4 0.000000 0.000000 0.000000 0.045406 0.000000 0.000000
# 5 0.000000 0.000000 0.000000 0.000000 0.045406 0.000000
# 6 0.000000 0.000000 0.000000 0.000000 0.000000 0.023420
#
#
# Mechanical properties :
#
#
# Convention : Reuss Voigt Hill
#
# Bulk Modulus (GPa) = 22.72590 55.29702 39.01146
# Shear Modulus (GPa) = 20.26796 27.61899 23.94347
#
# Velocity S-wave (km/s) = 3.20642 3.74300 3.48505
# Velocity P-wave (km/s) = 5.02356 6.83594 5.99859
#
# Compressibility (1/GPa) = 0.04400267
#
# Stress axis : x y z
#
# Youngs Moduli (GPa) = 53.66415 53.66413 22.91989
#
# Poissons Ratio (x) = 0.73468 0.05452
# Poissons Ratio (y) = 0.73468 0.05453
# Poissons Ratio (z) = 0.12764 0.12768
#
# Static dielectric constant tensor:
#      x y z
#    x 1.705110 0.000000 0.000000 
#    y 0.000000 1.705110 0.000000 
#    z 0.000000 0.000000 1.736280 
# 
# From -- ./inp_files/3462.got.cif
#   From: 2010.05.17/outbox.cif.g08.bks.cpg/sg92_2_cif.got.tgz:3462.got - 2010.06.03 19:35:17.
