data_PCOD9549689
_publ_section_title
;
Structure prediction by ZEFSAII (Michael W. Deem and Ramdas Pophale) SiO2 
 PCOD9549689
Probable space group: P 42 2 2
;
_chemical_formula_sum "Si O2"
_cell_formula_units_Z 40
_cell_length_a 14.526114
_cell_length_b 14.526114
_cell_length_c 8.936683
_cell_angle_alpha 90.000000
_cell_angle_beta 90.000000
_cell_angle_gamma 90.000000
_cell_volume 1885.711499
_symmetry_space_group_name_H-M "P 42 2 2"
_symmetry_group_IT_number 93
_symmetry_cell_setting 'tetragonal'
loop_
_space_group_symop_operation_xyz
x,y,z
-y,x,1/2+z
-x,-y,z
y,-x,1/2+z
x,-y,-z
-x,y,-z
y,x,1/2-z
-y,-x,1/2-z
loop_
_atom_site_type_symbol
_atom_site_label
_atom_site_fract_x
_atom_site_fract_y
_atom_site_fract_z
Si Si1 0.398359 0.106522 0.950242
Si Si2 0.598530 0.402674 0.570498
Si Si3 0.135340 0.007366 0.323001
Si Si4 0.718560 0.866743 0.685358
Si Si5 0.752384 0.745010 0.426439
O O1 0.377111 0.127748 0.774557
O O2 0.500000 0.140715 0.000000
O O3 0.310617 0.156575 0.025472
O O4 0.395674 0.000000 0.000000
O O5 0.627381 0.500000 0.500000
O O6 0.500000 0.380830 0.500000
O O7 0.590537 0.409464 0.750000
O O8 0.670354 0.324350 0.529887
O O9 0.067213 0.932788 0.250000
O O10 0.234641 0.965815 0.288053
O O11 0.120069 0.000000 0.500000
O O12 0.103151 0.103151 0.250000
O O13 0.784525 0.784525 0.750000
O O14 0.728164 0.840025 0.511063
O O15 0.753160 0.753160 0.250000
#
# Coordination Sequence:
#
# PCOD9549689 Si02
#       5
#     8   8   8   8   8
#     4  10  22  41  63  85 117 166 215 255 305 377
#     4  10  20  33  55  89 125 161 201 251 309 375
#     4  10  20  34  54  83 116 153 193 243 310 375
#     4   9  21  37  56  83 114 151 199 255 309 367
#     4  10  22  39  61  90 122 160 205 260 318 376
#
# _framework density 21.212153000000001
#
# number of rings (size 3 to 8) (size 9 to 14) (size 15 to 20)
#    0.000    2.200    0.000    3.000    0.000   15.200 
#    0.000    0.000    0.000    2.400    0.000    0.000 
#    0.000    0.000    0.000    0.000    0.000    0.000 
#
# Total GULP energy -223129.645319 kJ/mol
# GULP energy per Si atom -5578.241133 kJ/mol
# Density = 2.116387 g / cm^3
# Si number density = 21.212153 Si / 1000 Ang^3
#
#
#
# Elastic Constant Matrix: (Units=GPa)
#
#
# Indices 1 2 3 4 5 6 
#
# 1 81.6122 50.1395 20.6124 0.0000 0.0000 0.0000
# 2 50.1395 81.6121 20.6104 0.0000 0.0000 0.0000
# 3 20.6124 20.6104 89.6515 0.0000 0.0000 0.0000
# 4 0.0000 0.0000 0.0000 29.5240 0.0000 0.0000
# 5 0.0000 0.0000 0.0000 0.0000 29.5244 0.0000
# 6 0.0000 0.0000 0.0000 0.0000 0.0000 -2.7199
#
#
#
# Elastic Compliance Matrix: (Units=1/GPa)
#
#
# Indices 1 2 3 4 5 6 
#
# 1 0.019976 -0.011798 -0.001881 0.000000 0.000000 0.000000
# 2 -0.011798 0.019976 -0.001880 0.000000 0.000000 0.000000
# 3 -0.001881 -0.001880 0.012019 0.000000 0.000000 0.000000
# 4 0.000000 0.000000 0.000000 0.033871 0.000000 0.000000
# 5 0.000000 0.000000 0.000000 0.000000 0.033870 0.000000
# 6 0.000000 0.000000 0.000000 0.000000 0.000000 -0.367666
#
#
# Mechanical properties :
#
#
# Convention : Reuss Voigt Hill
#
# Bulk Modulus (GPa) = 47.95118 48.40004 48.17561
# Shear Modulus (GPa) = -23.82247 22.03327 -0.89460
#
# Velocity S-wave (km/s) = -3.35484 3.22640 -0.65012
# Velocity P-wave (km/s) = 2.76550 6.06186 4.71138
#
# Compressibility (1/GPa) = 0.02085455
#
# Stress axis : x y z
#
# Youngs Moduli (GPa) = 50.05988 50.06039 83.20254
#
# Poissons Ratio (x) = 0.59059 0.15647
# Poissons Ratio (y) = 0.59059 0.15641
# Poissons Ratio (z) = 0.09414 0.09411
#
# Static dielectric constant tensor:
#      x y z
#    x 1.776480 0.000000 0.000000 
#    y 0.000000 1.776470 0.000000 
#    z 0.000000 0.000000 1.868350 
# 
# From -- ./inp_files/1825.got.cif
#   From: 2010.05.17/outbox.cif.g08.bks.cpg/sg93_1_cif.got.tgz:1825.got - 2010.06.03 19:38:44.
