data_PCOD9549933
_publ_section_title
;
Structure prediction by ZEFSAII (Michael W. Deem and Ramdas Pophale) SiO2 
 PCOD9549933
Probable space group: P 42 21 2
;
_chemical_formula_sum "Si O2"
_cell_formula_units_Z 48
_cell_length_a 18.047305
_cell_length_b 18.047305
_cell_length_c 7.605562
_cell_angle_alpha 90.000000
_cell_angle_beta 90.000000
_cell_angle_gamma 90.000000
_cell_volume 2477.171227
_symmetry_space_group_name_H-M "P 42 21 2"
_symmetry_group_IT_number 94
_symmetry_cell_setting 'tetragonal'
loop_
_space_group_symop_operation_xyz
x,y,z
1/2-y,1/2+x,1/2+z
-x,-y,z
1/2+y,1/2-x,1/2+z
1/2+x,1/2-y,1/2-z
1/2-x,1/2+y,1/2-z
y,x,-z
-y,-x,-z
loop_
_atom_site_type_symbol
_atom_site_label
_atom_site_fract_x
_atom_site_fract_y
_atom_site_fract_z
Si Si1 0.121725 0.305251 0.746812
Si Si2 0.402441 0.306795 0.891423
Si Si3 0.246923 0.714183 0.688096
Si Si4 0.548906 0.798991 0.188559
Si Si5 0.234749 0.470583 0.414440
Si Si6 0.101511 0.358617 0.361579
O O1 0.188202 0.249685 0.696048
O O2 0.160850 0.373351 0.844591
O O3 0.093090 0.339604 0.566314
O O4 0.056187 0.275161 0.866357
O O5 0.323032 0.269135 0.839839
O O6 0.442734 0.303172 0.704174
O O7 0.379685 0.379685 0.000000
O O8 0.452406 0.258167 0.026422
O O9 0.287689 0.712312 0.500000
O O10 0.210456 0.640685 0.763702
O O11 0.548358 0.759491 0.379416
O O12 0.482868 0.859035 0.202899
O O13 0.159344 0.426811 0.349890
#
# Coordination Sequence:
#
# PCOD9549933 Si02
#       6
#     8   8   8   8   8   8
#     4  11  20  36  55  80 115 152 195 236 288 339
#     4  10  19  37  56  79 111 147 190 239 281 338
#     4  10  18  33  56  78 108 149 189 245 278 335
#     4  11  21  35  55  81 115 153 191 233 287 342
#     4  10  23  34  54  84 114 152 194 230 286 351
#     4  10  22  35  53  82 116 152 194 235 286 353
#
# _framework density 19.376940000000001
#
# number of rings (size 3 to 8) (size 9 to 14) (size 15 to 20)
#    0.000    1.667    5.000    1.500    2.333    1.333 
#    0.000    3.333    0.000    0.000    0.000    2.333 
#    0.000    4.000    0.000    0.000    0.000    0.000 
#
# Total GULP energy -267249.309590 kJ/mol
# GULP energy per Si atom -5567.693950 kJ/mol
# Density = 1.933284 g / cm^3
# Si number density = 19.376940 Si / 1000 Ang^3
#
#
#
# Elastic Constant Matrix: (Units=GPa)
#
#
# Indices 1 2 3 4 5 6 
#
# 1 36.4180 29.4740 -2.6298 0.0000 0.0000 0.0000
# 2 29.4740 36.4174 -2.6304 0.0000 0.0000 0.0000
# 3 -2.6298 -2.6304 63.4768 0.0000 0.0000 0.0000
# 4 0.0000 0.0000 0.0000 20.7712 0.0000 0.0000
# 5 0.0000 0.0000 0.0000 0.0000 20.7710 0.0000
# 6 0.0000 0.0000 0.0000 0.0000 0.0000 15.3547
#
#
#
# Elastic Compliance Matrix: (Units=1/GPa)
#
#
# Indices 1 2 3 4 5 6 
#
# 1 0.079620 -0.064394 0.000630 0.000000 0.000000 0.000000
# 2 -0.064394 0.079622 0.000632 0.000000 0.000000 0.000000
# 3 0.000630 0.000632 0.015806 0.000000 0.000000 0.000000
# 4 0.000000 0.000000 0.000000 0.048144 0.000000 0.000000
# 5 0.000000 0.000000 0.000000 0.000000 0.048144 0.000000
# 6 0.000000 0.000000 0.000000 0.000000 0.000000 0.065127
#
#
# Mechanical properties :
#
#
# Convention : Reuss Voigt Hill
#
# Bulk Modulus (GPa) = 20.49883 20.52664 20.51273
# Shear Modulus (GPa) = 10.43866 18.85260 14.64563
#
# Velocity S-wave (km/s) = 2.32354 3.12258 2.75221
# Velocity P-wave (km/s) = 4.21905 4.85974 4.55068
#
# Compressibility (1/GPa) = 0.04878328
#
# Stress axis : x y z
#
# Youngs Moduli (GPa) = 12.55960 12.55936 63.26686
#
# Poissons Ratio (x) = 0.80875 -0.03987
# Poissons Ratio (y) = 0.80877 -0.03996
# Poissons Ratio (z) = -0.00792 -0.00793
#
# Static dielectric constant tensor:
#      x y z
#    x 1.720350 0.000000 0.000000 
#    y 0.000000 1.720350 0.000000 
#    z 0.000000 0.000000 1.761700 
# 
# From -- ./inp_files/1620.got.cif
#   From: 2010.05.17/outbox.cif.g08.bks.cpg/sg94_1_cif.got.tgz:1620.got - 2010.06.03 19:43:16.
