data_PCOD9549104
_publ_section_title
;
Structure prediction by ZEFSAII (Michael W. Deem and Ramdas Pophale) SiO2 
 PCOD9549104
Probable space group: P 41 21 2
;
_chemical_formula_sum "Si O2"
_cell_formula_units_Z 40
_cell_length_a 8.173584
_cell_length_b 8.173584
_cell_length_c 25.001638
_cell_angle_alpha 90.000000
_cell_angle_beta 90.000000
_cell_angle_gamma 90.000000
_cell_volume 1670.296316
_symmetry_space_group_name_H-M "P 41 21 2"
_symmetry_group_IT_number 92
_symmetry_cell_setting 'tetragonal'
loop_
_space_group_symop_operation_xyz
x,y,z
1/2-y,1/2+x,1/4+z
-x,-y,1/2+z
1/2+y,1/2-x,3/4+z
1/2+x,1/2-y,3/4-z
1/2-x,1/2+y,1/4-z
y,x,-z
-y,-x,1/2-z
loop_
_atom_site_type_symbol
_atom_site_label
_atom_site_fract_x
_atom_site_fract_y
_atom_site_fract_z
Si Si1 0.857380 0.092760 0.095764
Si Si2 0.904538 0.177697 0.918922
Si Si3 0.293745 0.872217 0.324717
Si Si4 0.853987 0.375303 0.503204
Si Si5 0.522314 0.073291 0.409600
O O1 0.755969 0.043214 0.148395
O O2 0.988259 0.950450 0.086021
O O3 0.921433 0.280843 0.099339
O O4 0.740962 0.083874 0.044108
O O5 0.851190 0.213103 0.857465
O O6 0.069457 0.246659 0.944293
O O7 0.748905 0.223991 0.954352
O O8 0.244366 0.992750 0.277641
O O9 0.409620 0.971160 0.367303
O O10 0.997628 0.472417 0.533616
#
# Coordination Sequence:
#
# PCOD9549104 Si02
#       5
#     8   8   8   8   8
#     4  11  21  38  62  87 120 160 204 252 312 374
#     4  11  22  39  61  87 121 163 204 254 317 374
#     4  10  22  39  59  88 124 159 207 259 312 377
#     4  10  21  36  59  88 116 153 203 252 305 371
#     4  10  21  38  60  88 121 159 201 255 309 372
#
# _framework density 23.947846999999999
#
# number of rings (size 3 to 8) (size 9 to 14) (size 15 to 20)
#    0.000    1.600    0.000    6.600    0.000    1.600 
#    0.000    8.000    0.000    9.600    0.000    0.000 
#    0.000    0.000    0.000    0.000    0.000    0.000 
#
# Total GULP energy -223210.656530 kJ/mol
# GULP energy per Si atom -5580.266413 kJ/mol
# Density = 2.389334 g / cm^3
# Si number density = 23.947847 Si / 1000 Ang^3
#
#
#
# Elastic Constant Matrix: (Units=GPa)
#
#
# Indices 1 2 3 4 5 6 
#
# 1 77.7819 15.7740 16.3232 0.0000 0.0000 0.0000
# 2 15.7740 77.7819 16.3232 0.0000 0.0000 0.0000
# 3 16.3232 16.3232 62.9347 0.0000 0.0000 0.0000
# 4 0.0000 0.0000 0.0000 22.8472 0.0000 0.0000
# 5 0.0000 0.0000 0.0000 0.0000 22.8472 0.0000
# 6 0.0000 0.0000 0.0000 0.0000 0.0000 28.5036
#
#
#
# Elastic Compliance Matrix: (Units=1/GPa)
#
#
# Indices 1 2 3 4 5 6 
#
# 1 0.013940 -0.002187 -0.003048 0.000000 0.000000 0.000000
# 2 -0.002187 0.013940 -0.003048 0.000000 0.000000 0.000000
# 3 -0.003048 -0.003048 0.017471 0.000000 0.000000 0.000000
# 4 0.000000 0.000000 0.000000 0.043769 0.000000 0.000000
# 5 0.000000 0.000000 0.000000 0.000000 0.043769 0.000000
# 6 0.000000 0.000000 0.000000 0.000000 0.000000 0.035083
#
#
# Mechanical properties :
#
#
# Convention : Reuss Voigt Hill
#
# Bulk Modulus (GPa) = 34.74296 35.03771 34.89033
# Shear Modulus (GPa) = 25.75550 26.17812 25.96681
#
# Velocity S-wave (km/s) = 3.28301 3.30984 3.29645
# Velocity P-wave (km/s) = 5.37682 5.41011 5.39349
#
# Compressibility (1/GPa) = 0.02878281
#
# Stress axis : x y z
#
# Youngs Moduli (GPa) = 71.73745 71.73745 57.23866
#
# Poissons Ratio (x) = 0.15691 0.17448
# Poissons Ratio (y) = 0.15691 0.17448
# Poissons Ratio (z) = 0.21867 0.21867
#
# Static dielectric constant tensor:
#      x y z
#    x 1.947840 0.000000 0.000000 
#    y 0.000000 1.947840 0.000000 
#    z 0.000000 0.000000 1.974260 
# 
# From -- ./inp_files/3788.got.cif
#   From: 2010.05.17/outbox.cif.g08.bks.cpg/sg92_2_cif.got.tgz:3788.got - 2010.06.03 19:35:17.
