data_PCOD9549632
_publ_section_title
;
Structure prediction by ZEFSAII (Michael W. Deem and Ramdas Pophale) SiO2 
 PCOD9549632
Probable space group: P 42 2 2
;
_chemical_formula_sum "Si O2"
_cell_formula_units_Z 54
_cell_length_a 14.546001
_cell_length_b 14.546001
_cell_length_c 12.226681
_cell_angle_alpha 90.000000
_cell_angle_beta 90.000000
_cell_angle_gamma 90.000000
_cell_volume 2586.996300
_symmetry_space_group_name_H-M "P 42 2 2"
_symmetry_group_IT_number 93
_symmetry_cell_setting 'tetragonal'
loop_
_space_group_symop_operation_xyz
x,y,z
-y,x,1/2+z
-x,-y,z
y,-x,1/2+z
x,-y,-z
-x,y,-z
y,x,1/2-z
-y,-x,1/2-z
loop_
_atom_site_type_symbol
_atom_site_label
_atom_site_fract_x
_atom_site_fract_y
_atom_site_fract_z
Si Si1 0.658964 0.572304 0.355852
Si Si2 0.033627 0.680973 0.614978
Si Si3 0.745467 0.560614 0.787644
Si Si4 0.737291 0.834270 0.827865
Si Si5 0.500000 0.359924 0.500000
Si Si6 0.232139 0.259365 0.434382
Si Si7 0.500000 0.000000 0.500000
Si Si8 0.610718 0.875667 0.331866
O O1 0.629227 0.629227 0.250000
O O2 0.678086 0.470629 0.311606
O O3 0.573403 0.581937 0.434549
O O4 0.738786 0.634830 0.408127
O O5 0.124450 0.743850 0.598347
O O6 0.061091 0.628690 0.725993
O O7 0.000000 0.631992 0.500000
O O8 0.939330 0.730716 0.641234
O O9 0.798372 0.649452 0.742955
O O10 0.699987 0.555872 0.908492
O O11 0.810080 0.471642 0.794530
O O12 0.822789 0.822789 0.750000
O O13 0.749365 0.771798 0.935228
O O14 0.302816 0.187805 0.375215
O O15 0.567351 0.936687 0.427913
#
# Coordination Sequence:
#
# PCOD9549632 Si02
#       8
#     8   8   8   8   4   8   2   8
#     4  10  18  35  62  94 120 176 227 273 334 418
#     4  10  23  44  68 103 132 180 237 287 348 437
#     4  11  22  39  66  96 132 183 233 286 362 428
#     4  11  26  41  65  98 141 177 232 303 360 417
#     4  10  19  34  66  93 134 174 240 289 343 424
#     4  11  21  42  69  97 135 191 226 279 363 439
#     4  12  30  36  66 122 146 178 236 300 348 434
#     4  12  23  43  72 104 149 178 234 289 373 432
#
# _framework density 20.873629000000001
#
# number of rings (size 3 to 8) (size 9 to 14) (size 15 to 20)
#    0.000    1.185    4.444    2.667    4.148    0.593 
#    0.000    2.593    3.259    6.667    0.000    0.000 
#    0.000    0.000    0.000    0.000    0.000    0.000 
#
# Total GULP energy -301086.645952 kJ/mol
# GULP energy per Si atom -5575.678629 kJ/mol
# Density = 2.082612 g / cm^3
# Si number density = 20.873629 Si / 1000 Ang^3
#
#
#
# Elastic Constant Matrix: (Units=GPa)
#
#
# Indices 1 2 3 4 5 6 
#
# 1 54.5778 53.6221 41.3986 0.0000 0.0000 0.0000
# 2 53.6221 54.5778 41.3986 0.0000 0.0000 0.0000
# 3 41.3986 41.3986 147.7286 0.0000 0.0000 0.0000
# 4 0.0000 0.0000 0.0000 35.3894 0.0000 0.0000
# 5 0.0000 0.0000 0.0000 0.0000 35.3894 0.0000
# 6 0.0000 0.0000 0.0000 0.0000 0.0000 12.0315
#
#
#
# Elastic Compliance Matrix: (Units=1/GPa)
#
#
# Indices 1 2 3 4 5 6 
#
# 1 0.529044 -0.517279 -0.003297 0.000000 0.000000 0.000000
# 2 -0.517279 0.529044 -0.003297 0.000000 0.000000 0.000000
# 3 -0.003297 -0.003297 0.008617 0.000000 0.000000 0.000000
# 4 0.000000 0.000000 0.000000 0.028257 0.000000 0.000000
# 5 0.000000 0.000000 0.000000 0.000000 0.028257 0.000000
# 6 0.000000 0.000000 0.000000 0.000000 0.000000 0.083115
#
#
# Mechanical properties :
#
#
# Convention : Reuss Voigt Hill
#
# Bulk Modulus (GPa) = 52.74462 58.85809 55.80136
# Shear Modulus (GPa) = 2.21200 24.59306 13.40253
#
# Velocity S-wave (km/s) = 1.03054 3.43620 2.53668
# Velocity P-wave (km/s) = 5.17102 6.63339 5.94732
#
# Compressibility (1/GPa) = 0.01895928
#
# Stress axis : x y z
#
# Youngs Moduli (GPa) = 1.89020 1.89020 116.04926
#
# Poissons Ratio (x) = 0.97776 0.38261
# Poissons Ratio (y) = 0.97776 0.38261
# Poissons Ratio (z) = 0.00623 0.00623
#
# Static dielectric constant tensor:
#      x y z
#    x 1.798900 0.000000 0.000000 
#    y 0.000000 1.798900 0.000000 
#    z 0.000000 0.000000 1.912800 
# 
# From -- ./inp_files/3545.got.cif
#   From: 2010.05.17/outbox.cif.g08.bks.cpg/sg93_2_cif.got.tgz:3545.got - 2010.06.03 19:38:44.
