data_PCOD9549715
_publ_section_title
;
Structure prediction by ZEFSAII (Michael W. Deem and Ramdas Pophale) SiO2 
 PCOD9549715
Probable space group: P 42 2 2
;
_chemical_formula_sum "Si O2"
_cell_formula_units_Z 32
_cell_length_a 9.735046
_cell_length_b 9.735046
_cell_length_c 13.842720
_cell_angle_alpha 90.000000
_cell_angle_beta 90.000000
_cell_angle_gamma 90.000000
_cell_volume 1311.890087
_symmetry_space_group_name_H-M "P 42 2 2"
_symmetry_group_IT_number 93
_symmetry_cell_setting 'tetragonal'
loop_
_space_group_symop_operation_xyz
x,y,z
-y,x,1/2+z
-x,-y,z
y,-x,1/2+z
x,-y,-z
-x,y,-z
y,x,1/2-z
-y,-x,1/2-z
loop_
_atom_site_type_symbol
_atom_site_label
_atom_site_fract_x
_atom_site_fract_y
_atom_site_fract_z
Si Si1 0.749062 0.160840 0.370512
Si Si2 0.847276 0.744245 0.101444
Si Si3 0.993847 0.340698 0.618512
Si Si4 0.513863 0.351233 0.653847
O O1 0.768782 0.146500 0.486736
O O2 0.883804 0.246252 0.341602
O O3 0.627695 0.266072 0.341627
O O4 0.735973 0.997374 0.349727
O O5 0.763203 0.605517 0.106060
O O6 0.744025 0.857935 0.143329
O O7 0.000000 0.500000 0.651562
O O8 0.000000 0.347016 0.500000
O O9 0.500000 0.500000 0.603454
O O10 0.596625 0.403376 0.750000
#
# Coordination Sequence:
#
# PCOD9549715 Si02
#       4
#     8   8   8   8
#     4  10  20  37  63  93 123 153 204 268 318 375
#     4  10  20  37  64  93 118 156 207 264 321 372
#     4   9  17  31  57  94 127 153 191 252 320 378
#     4  11  24  40  55  81 119 161 205 251 314 385
#
# _framework density 24.392289000000002
#
# number of rings (size 3 to 8) (size 9 to 14) (size 15 to 20)
#    0.000    2.000    0.000    3.750    0.000    9.000 
#    0.000   12.500    0.000    1.500    0.000    0.000 
#    0.000    0.000    0.000    0.000    0.000    0.000 
#
# Total GULP energy -178501.924170 kJ/mol
# GULP energy per Si atom -5578.185130 kJ/mol
# Density = 2.433677 g / cm^3
# Si number density = 24.392289 Si / 1000 Ang^3
#
#
#
# Elastic Constant Matrix: (Units=GPa)
#
#
# Indices 1 2 3 4 5 6 
#
# 1 233.9050 94.9144 20.8454 0.0000 0.0000 0.0000
# 2 94.9144 233.9056 20.8455 0.0000 0.0000 0.0000
# 3 20.8454 20.8455 66.8306 0.0000 0.0000 0.0000
# 4 0.0000 0.0000 0.0000 20.2668 0.0000 0.0000
# 5 0.0000 0.0000 0.0000 0.0000 20.2660 0.0000
# 6 0.0000 0.0000 0.0000 0.0000 0.0000 -16.5845
#
#
#
# Elastic Compliance Matrix: (Units=1/GPa)
#
#
# Indices 1 2 3 4 5 6 
#
# 1 0.005181 -0.002014 -0.000988 0.000000 0.000000 0.000000
# 2 -0.002014 0.005181 -0.000988 0.000000 0.000000 0.000000
# 3 -0.000988 -0.000988 0.015579 0.000000 0.000000 0.000000
# 4 0.000000 0.000000 0.000000 0.049342 0.000000 0.000000
# 5 0.000000 0.000000 0.000000 0.000000 0.049344 0.000000
# 6 0.000000 0.000000 0.000000 0.000000 0.000000 -0.060297
#
#
# Mechanical properties :
#
#
# Convention : Reuss Voigt Hill
#
# Bulk Modulus (GPa) = 55.67452 89.76132 72.71792
# Shear Modulus (GPa) = 63.86110 31.32538 47.59324
#
# Velocity S-wave (km/s) = 5.12227 3.58751 4.42198
# Velocity P-wave (km/s) = 7.60643 7.35114 7.47987
#
# Compressibility (1/GPa) = 0.01796154
#
# Stress axis : x y z
#
# Youngs Moduli (GPa) = 193.02911 193.02956 64.18764
#
# Poissons Ratio (x) = 0.38879 0.06339
# Poissons Ratio (y) = 0.38879 0.06339
# Poissons Ratio (z) = 0.19064 0.19065
#
# Static dielectric constant tensor:
#      x y z
#    x 1.950660 0.000000 0.000000 
#    y 0.000000 1.950660 0.000000 
#    z 0.000000 0.000000 2.023410 
# 
# From -- ./inp_files/5868.got.cif
#   From: 2010.05.17/outbox.cif.g08.bks.cpg/sg93_3_cif.got.tgz:5868.got - 2010.06.03 19:38:44.
