data_PCOD9549713
_publ_section_title
;
Structure prediction by ZEFSAII (Michael W. Deem and Ramdas Pophale) SiO2 
 PCOD9549713
Probable space group: P 42 2 2
;
_chemical_formula_sum "Si O2"
_cell_formula_units_Z 48
_cell_length_a 22.085537
_cell_length_b 22.085537
_cell_length_c 4.944792
_cell_angle_alpha 90.000000
_cell_angle_beta 90.000000
_cell_angle_gamma 90.000000
_cell_volume 2411.925865
_symmetry_space_group_name_H-M "P 42 2 2"
_symmetry_group_IT_number 93
_symmetry_cell_setting 'tetragonal'
loop_
_space_group_symop_operation_xyz
x,y,z
-y,x,1/2+z
-x,-y,z
y,-x,1/2+z
x,-y,-z
-x,y,-z
y,x,1/2-z
-y,-x,1/2-z
loop_
_atom_site_type_symbol
_atom_site_label
_atom_site_fract_x
_atom_site_fract_y
_atom_site_fract_z
Si Si1 0.242992 0.185290 0.982007
Si Si2 0.350822 0.734017 0.937598
Si Si3 0.184439 0.540484 0.772536
Si Si4 0.430482 0.372861 0.980417
Si Si5 0.931402 0.398823 0.044438
Si Si6 0.683651 0.067856 0.948405
O O1 0.194899 0.194899 0.750000
O O2 0.265952 0.117669 0.009778
O O3 0.214750 0.214750 0.250000
O O4 0.304364 0.222783 0.907153
O O5 0.308220 0.691781 0.750000
O O6 0.398648 0.777772 0.787393
O O7 0.392768 0.687181 0.097470
O O8 0.176274 0.500000 0.500000
O O9 0.071483 0.660532 0.857111
O O10 0.121732 0.560442 0.919699
O O11 0.401559 0.401559 0.250000
O O12 0.500000 0.355801 0.000000
O O13 0.422205 0.422205 0.750000
O O14 0.922418 0.374724 0.350371
O O15 0.782593 0.500000 0.000000
O O16 0.000000 0.423507 0.000000
O O17 0.704727 0.000000 0.000000
#
# Coordination Sequence:
#
# PCOD9549713 Si02
#       6
#     8   8   8   8   8   8
#     4  11  22  36  61  91 122 155 200 250 298 357
#     4  10  24  41  62  85 117 151 189 243 308 368
#     4  12  26  41  63  89 120 156 207 256 300 364
#     4  11  24  42  62  85 109 139 181 230 295 364
#     4  10  21  40  61  86 120 164 207 250 295 354
#     4  10  20  37  63  88 125 166 205 245 299 359
#
# _framework density 19.901109000000002
#
# number of rings (size 3 to 8) (size 9 to 14) (size 15 to 20)
#    0.000    1.333    1.667    3.500    2.333    6.667 
#    0.000    0.833    0.000    0.000    0.000    0.000 
#    0.000    2.000    0.000    0.000    0.000    0.000 
#
# Total GULP energy -268163.232843 kJ/mol
# GULP energy per Si atom -5586.734018 kJ/mol
# Density = 1.985581 g / cm^3
# Si number density = 19.901109 Si / 1000 Ang^3
#
#
#
# Elastic Constant Matrix: (Units=GPa)
#
#
# Indices 1 2 3 4 5 6 
#
# 1 113.4780 45.0444 9.2685 0.0000 0.0000 0.0000
# 2 45.0444 113.4786 9.2685 0.0000 0.0000 0.0000
# 3 9.2685 9.2685 70.5479 0.0000 0.0000 0.0000
# 4 0.0000 0.0000 0.0000 24.6124 0.0000 0.0000
# 5 0.0000 0.0000 0.0000 0.0000 24.6125 0.0000
# 6 0.0000 0.0000 0.0000 0.0000 0.0000 21.4269
#
#
#
# Elastic Compliance Matrix: (Units=1/GPa)
#
#
# Indices 1 2 3 4 5 6 
#
# 1 0.010510 -0.004103 -0.000842 0.000000 0.000000 0.000000
# 2 -0.004103 0.010510 -0.000842 0.000000 0.000000 0.000000
# 3 -0.000842 -0.000842 0.014396 0.000000 0.000000 0.000000
# 4 0.000000 0.000000 0.000000 0.040630 0.000000 0.000000
# 5 0.000000 0.000000 0.000000 0.000000 0.040630 0.000000
# 6 0.000000 0.000000 0.000000 0.000000 0.000000 0.046670
#
#
# Mechanical properties :
#
#
# Convention : Reuss Voigt Hill
#
# Bulk Modulus (GPa) = 41.94197 47.18525 44.56361
# Shear Modulus (GPa) = 27.34248 29.72521 28.53385
#
# Velocity S-wave (km/s) = 3.71066 3.86896 3.79064
# Velocity P-wave (km/s) = 6.28328 6.61210 6.44979
#
# Compressibility (1/GPa) = 0.02384247
#
# Stress axis : x y z
#
# Youngs Moduli (GPa) = 95.15028 95.15079 69.46409
#
# Poissons Ratio (x) = 0.39040 0.05847
# Poissons Ratio (y) = 0.39040 0.05847
# Poissons Ratio (z) = 0.08009 0.08009
#
# Static dielectric constant tensor:
#      x y z
#    x 1.690870 0.000000 0.000000 
#    y 0.000000 1.690870 0.000000 
#    z 0.000000 0.000000 1.753140 
# 
# From -- ./inp_files/678.got.cif
#   From: 2010.05.17/outbox.cif.g08.bks.cpg/sg93_1_cif.got.tgz:678.got - 2010.06.03 19:38:44.
