data_PCOD9549008
_publ_section_title
;
Structure prediction by ZEFSAII (Michael W. Deem and Ramdas Pophale) SiO2 
 PCOD9549008
Probable space group: P 41 21 2
;
_chemical_formula_sum "Si O2"
_cell_formula_units_Z 40
_cell_length_a 13.105774
_cell_length_b 13.105774
_cell_length_c 9.402454
_cell_angle_alpha 90.000000
_cell_angle_beta 90.000000
_cell_angle_gamma 90.000000
_cell_volume 1614.977836
_symmetry_space_group_name_H-M "P 41 21 2"
_symmetry_group_IT_number 92
_symmetry_cell_setting 'tetragonal'
loop_
_space_group_symop_operation_xyz
x,y,z
1/2-y,1/2+x,1/4+z
-x,-y,1/2+z
1/2+y,1/2-x,3/4+z
1/2+x,1/2-y,3/4-z
1/2-x,1/2+y,1/4-z
y,x,-z
-y,-x,1/2-z
loop_
_atom_site_type_symbol
_atom_site_label
_atom_site_fract_x
_atom_site_fract_y
_atom_site_fract_z
Si Si1 0.233534 0.647432 0.141254
Si Si2 0.746402 0.076312 0.532600
Si Si3 0.016461 0.133315 0.715810
Si Si4 0.975798 0.610923 0.789152
Si Si5 0.276249 0.415409 0.705748
O O1 0.268672 0.731329 0.250000
O O2 0.128102 0.637680 0.479788
O O3 0.326338 0.620608 0.032493
O O4 0.139990 0.686993 0.048311
O O5 0.801828 0.063119 0.685169
O O6 0.719759 0.956264 0.518145
O O7 0.827847 0.137770 0.437517
O O8 0.982395 0.017606 0.750000
O O9 0.999342 0.168382 0.555355
O O10 0.045474 0.545543 0.682367
O O11 0.032894 0.716066 0.827670
#
# Coordination Sequence:
#
# PCOD9549008 Si02
#       5
#     8   8   8   8   8
#     4  10  20  35  70 100 130 180 233 282 331 421
#     4   9  23  39  67  99 136 172 234 278 340 420
#     4   8  18  38  65  95 128 169 228 277 333 419
#     4  12  27  42  69 102 138 180 229 292 350 418
#     4  11  21  42  69  97 139 182 224 287 357 412
#
# _framework density 24.768142000000001
#
# number of rings (size 3 to 8) (size 9 to 14) (size 15 to 20)
#    1.200    0.800    0.000    4.200    8.400    0.800 
#    0.000    2.000    0.000    0.000    0.000    0.000 
#    0.000    0.000    0.000    0.000    0.000    0.000 
#
# Total GULP energy -223193.586658 kJ/mol
# GULP energy per Si atom -5579.839666 kJ/mol
# Density = 2.471177 g / cm^3
# Si number density = 24.768142 Si / 1000 Ang^3
#
#
#
# Elastic Constant Matrix: (Units=GPa)
#
#
# Indices 1 2 3 4 5 6 
#
# 1 79.4066 42.1914 19.4010 0.0000 0.0000 0.0000
# 2 42.1914 79.4052 19.4004 0.0000 0.0000 0.0000
# 3 19.4010 19.4004 59.5499 0.0000 0.0000 0.0000
# 4 0.0000 0.0000 0.0000 38.9888 0.0000 0.0000
# 5 0.0000 0.0000 0.0000 0.0000 38.9889 0.0000
# 6 0.0000 0.0000 0.0000 0.0000 0.0000 43.3417
#
#
#
# Elastic Compliance Matrix: (Units=1/GPa)
#
#
# Indices 1 2 3 4 5 6 
#
# 1 0.018024 -0.008847 -0.002990 0.000000 0.000000 0.000000
# 2 -0.008847 0.018025 -0.002990 0.000000 0.000000 0.000000
# 3 -0.002990 -0.002990 0.018741 0.000000 0.000000 0.000000
# 4 0.000000 0.000000 0.000000 0.025648 0.000000 0.000000
# 5 0.000000 0.000000 0.000000 0.000000 0.025648 0.000000
# 6 0.000000 0.000000 0.000000 0.000000 0.000000 0.023072
#
#
# Mechanical properties :
#
#
# Convention : Reuss Voigt Hill
#
# Bulk Modulus (GPa) = 39.78271 42.26080 41.02175
# Shear Modulus (GPa) = 29.90579 33.42181 31.66380
#
# Velocity S-wave (km/s) = 3.47858 3.67739 3.57936
# Velocity P-wave (km/s) = 5.67723 5.92710 5.80351
#
# Compressibility (1/GPa) = 0.02513655
#
# Stress axis : x y z
#
# Youngs Moduli (GPa) = 55.48012 55.47936 53.35920
#
# Poissons Ratio (x) = 0.49080 0.15955
# Poissons Ratio (y) = 0.49081 0.15954
# Poissons Ratio (z) = 0.16590 0.16588
#
# Static dielectric constant tensor:
#      x y z
#    x 2.013700 0.000000 0.000000 
#    y 0.000000 2.013690 0.000000 
#    z 0.000000 0.000000 1.991820 
# 
# From -- ./inp_files/1317.got.cif
#   From: 2010.05.17/outbox.cif.g08.bks.cpg/sg92_1_cif.got.tgz:1317.got - 2010.06.03 19:35:17.
