data_PCOD9549411
_publ_section_title
;
Structure prediction by ZEFSAII (Michael W. Deem and Ramdas Pophale) SiO2 
 PCOD9549411
Probable space group: P 41 21 2
;
_chemical_formula_sum "Si O2"
_cell_formula_units_Z 40
_cell_length_a 10.978775
_cell_length_b 10.978775
_cell_length_c 14.677637
_cell_angle_alpha 90.000000
_cell_angle_beta 90.000000
_cell_angle_gamma 90.000000
_cell_volume 1769.146967
_symmetry_space_group_name_H-M "P 41 21 2"
_symmetry_group_IT_number 92
_symmetry_cell_setting 'tetragonal'
loop_
_space_group_symop_operation_xyz
x,y,z
1/2-y,1/2+x,1/4+z
-x,-y,1/2+z
1/2+y,1/2-x,3/4+z
1/2+x,1/2-y,3/4-z
1/2-x,1/2+y,1/4-z
y,x,-z
-y,-x,1/2-z
loop_
_atom_site_type_symbol
_atom_site_label
_atom_site_fract_x
_atom_site_fract_y
_atom_site_fract_z
Si Si1 0.516341 0.414108 0.146598
Si Si2 0.544306 0.852627 0.648349
Si Si3 0.425841 0.887408 0.828450
Si Si4 0.278869 0.535187 0.516072
Si Si5 0.177662 0.107418 0.101611
O O1 0.566925 0.433076 0.250000
O O2 0.510733 0.274591 0.110217
O O3 0.604011 0.490352 0.079037
O O4 0.381389 0.472343 0.142965
O O5 0.518036 0.829999 0.754992
O O6 0.682750 0.871994 0.623128
O O7 0.487548 0.983610 0.621567
O O8 0.388577 0.802867 0.912031
O O9 0.309249 0.928668 0.770330
O O10 0.314955 0.606626 0.426565
O O11 0.151307 0.151307 0.000000
#
# Coordination Sequence:
#
# PCOD9549411 Si02
#       5
#     8   8   8   8   8
#     4  11  24  49  74 113 146 200 258 314 391 448
#     4  11  24  47  73 104 148 194 253 314 380 449
#     4  10  25  44  75 110 144 199 249 312 384 439
#     4  11  24  48  72 111 148 197 250 311 373 463
#     4  11  28  43  72 107 150 200 244 314 379 462
#
# _framework density 22.609766
#
# number of rings (size 3 to 8) (size 9 to 14) (size 15 to 20)
#    0.000    1.200    2.000    1.800    8.400    3.200 
#   18.000    0.000    0.000    0.000    0.000    0.000 
#    0.000    0.000    0.000    0.000    0.000    0.000 
#
# Total GULP energy -223174.252783 kJ/mol
# GULP energy per Si atom -5579.356320 kJ/mol
# Density = 2.255831 g / cm^3
# Si number density = 22.609766 Si / 1000 Ang^3
#
#
#
# Elastic Constant Matrix: (Units=GPa)
#
#
# Indices 1 2 3 4 5 6 
#
# 1 78.3027 35.8267 29.4685 0.0000 0.0000 0.0000
# 2 35.8267 78.3029 29.4685 0.0000 0.0000 0.0000
# 3 29.4685 29.4685 152.9908 0.0000 0.0000 0.0000
# 4 0.0000 0.0000 0.0000 -172.1237 0.0000 0.0000
# 5 0.0000 0.0000 0.0000 0.0000 -172.1910 0.0000
# 6 0.0000 0.0000 0.0000 0.0000 0.0000 7.9236
#
#
#
# Elastic Compliance Matrix: (Units=1/GPa)
#
#
# Indices 1 2 3 4 5 6 
#
# 1 0.016636 -0.006906 -0.001874 0.000000 0.000000 0.000000
# 2 -0.006906 0.016636 -0.001874 0.000000 0.000000 0.000000
# 3 -0.001874 -0.001874 0.007258 0.000000 0.000000 0.000000
# 4 0.000000 0.000000 0.000000 -0.005810 0.000000 0.000000
# 5 0.000000 0.000000 0.000000 0.000000 -0.005808 0.000000
# 6 0.000000 0.000000 0.000000 0.000000 0.000000 0.126206
#
#
# Mechanical properties :
#
#
# Convention : Reuss Voigt Hill
#
# Bulk Modulus (GPa) = 52.02532 55.45821 53.74176
# Shear Modulus (GPa) = 27.34693 -52.95605 -12.80456
#
# Velocity S-wave (km/s) = 3.48159 -4.84485 -2.38235
# Velocity P-wave (km/s) = 6.26275 2.59136 4.03155
#
# Compressibility (1/GPa) = 0.01922141
#
# Stress axis : x y z
#
# Youngs Moduli (GPa) = 60.10975 60.10993 137.77318
#
# Poissons Ratio (x) = 0.41515 0.25820
# Poissons Ratio (y) = 0.41514 0.25820
# Poissons Ratio (z) = 0.11265 0.11265
#
# Static dielectric constant tensor:
#      x y z
#    x 2.669630 0.000000 0.000000 
#    y 0.000000 2.669890 0.000000 
#    z 0.000000 0.000000 1.834870 
# 
# From -- ./inp_files/2627.got.cif
#   From: 2010.05.17/outbox.cif.g08.bks.cpg/sg92_2_cif.got.tgz:2627.got - 2010.06.03 19:35:17.
