data_PCOD9549640
_publ_section_title
;
Structure prediction by ZEFSAII (Michael W. Deem and Ramdas Pophale) SiO2 
 PCOD9549640
Probable space group: P 42 2 2
;
_chemical_formula_sum "Si O2"
_cell_formula_units_Z 34
_cell_length_a 8.097708
_cell_length_b 8.097708
_cell_length_c 27.701832
_cell_angle_alpha 90.000000
_cell_angle_beta 90.000000
_cell_angle_gamma 90.000000
_cell_volume 1816.488763
_symmetry_space_group_name_H-M "P 42 2 2"
_symmetry_group_IT_number 93
_symmetry_cell_setting 'tetragonal'
loop_
_space_group_symop_operation_xyz
x,y,z
-y,x,1/2+z
-x,-y,z
y,-x,1/2+z
x,-y,-z
-x,y,-z
y,x,1/2-z
-y,-x,1/2-z
loop_
_atom_site_type_symbol
_atom_site_label
_atom_site_fract_x
_atom_site_fract_y
_atom_site_fract_z
Si Si1 0.000000 0.191058 0.842918
Si Si2 0.805959 0.698409 0.000000
Si Si3 0.000000 0.000000 0.250000
Si Si4 0.681444 0.801767 0.104043
Si Si5 0.801767 0.318556 0.395957
O O1 0.000000 0.157341 0.785678
O O2 0.832527 0.266164 0.863839
O O3 0.167473 0.266164 0.863839
O O4 0.000000 0.000000 0.862210
O O5 0.723193 0.766195 0.951610
O O6 0.793817 0.500000 0.000000
O O7 0.723193 0.766195 0.048390
O O8 0.000000 0.743872 0.000000
O O9 0.500000 0.734689 0.115929
O O10 0.674293 0.000000 0.110985
#
# Coordination Sequence:
#
# PCOD9549640 Si02
#       5
#     8   8   2   8   8
#     4   8  16  31  52  77 102 132 170 220 273 318
#     4  11  22  33  48  73 113 154 183 214 263 321
#     4   8  16  32  56  78  96 136 156 212 296 310
#     4  10  19  32  53  78 103 138 180 217 258 315
#     4  10  19  32  53  78 103 138 180 217 258 315
#
# _framework density 18.71743
#
# number of rings (size 3 to 8) (size 9 to 14) (size 15 to 20)
#    0.706    1.647    2.353    1.412    0.000    4.706 
#    0.000    0.000    0.000    5.647    0.000    0.000 
#    0.000    0.000    0.000    0.000    0.000    0.000 
#
# Total GULP energy -189325.909828 kJ/mol
# GULP energy per Si atom -5568.409113 kJ/mol
# Density = 1.867483 g / cm^3
# Si number density = 18.717430 Si / 1000 Ang^3
#
#
#
# Elastic Constant Matrix: (Units=GPa)
#
#
# Indices 1 2 3 4 5 6 
#
# 1 87.6613 23.1460 31.8269 0.0000 0.0000 0.0000
# 2 23.1460 87.6613 31.8269 0.0000 0.0000 0.0000
# 3 31.8269 31.8269 121.4605 0.0000 0.0000 0.0000
# 4 0.0000 0.0000 0.0000 -11.9046 0.0000 0.0000
# 5 0.0000 0.0000 0.0000 0.0000 -11.9046 0.0000
# 6 0.0000 0.0000 0.0000 0.0000 0.0000 8.9790
#
#
#
# Elastic Compliance Matrix: (Units=1/GPa)
#
#
# Indices 1 2 3 4 5 6 
#
# 1 0.013062 -0.002438 -0.002784 0.000000 0.000000 0.000000
# 2 -0.002438 0.013062 -0.002784 0.000000 0.000000 0.000000
# 3 -0.002784 -0.002784 0.009692 0.000000 0.000000 0.000000
# 4 0.000000 0.000000 0.000000 -0.084001 0.000000 0.000000
# 5 0.000000 0.000000 0.000000 0.000000 -0.084001 0.000000
# 6 0.000000 0.000000 0.000000 0.000000 0.000000 0.111371
#
#
# Mechanical properties :
#
#
# Convention : Reuss Voigt Hill
#
# Bulk Modulus (GPa) = 50.49366 52.26475 51.37920
# Shear Modulus (GPa) = 2781.17582 11.03285 1396.10434
#
# Velocity S-wave (km/s) = 38.58887 2.43048 27.34052
# Velocity P-wave (km/s) = 44.86093 5.98832 32.00283
#
# Compressibility (1/GPa) = 0.01980447
#
# Stress axis : x y z
#
# Youngs Moduli (GPa) = 76.55783 76.55783 103.17732
#
# Poissons Ratio (x) = 0.18666 0.28723
# Poissons Ratio (y) = 0.18666 0.28723
# Poissons Ratio (z) = 0.21312 0.21312
#
# Static dielectric constant tensor:
#      x y z
#    x 1.684490 0.000000 0.000000 
#    y 0.000000 1.684490 0.000000 
#    z 0.000000 0.000000 1.607500 
# 
# From -- ./inp_files/7591.got.cif
#   From: 2010.05.17/outbox.cif.g08.bks.cpg/sg93_4_cif.got.tgz:7591.got - 2010.06.03 19:38:44.
