data_PCOD9549531
_publ_section_title
;
Structure prediction by ZEFSAII (Michael W. Deem and Ramdas Pophale) SiO2 
 PCOD9549531
Probable space group: P 41 21 2
;
_chemical_formula_sum "Si O2"
_cell_formula_units_Z 40
_cell_length_a 13.346003
_cell_length_b 13.346003
_cell_length_c 9.878271
_cell_angle_alpha 90.000000
_cell_angle_beta 90.000000
_cell_angle_gamma 90.000000
_cell_volume 1759.476103
_symmetry_space_group_name_H-M "P 41 21 2"
_symmetry_group_IT_number 92
_symmetry_cell_setting 'tetragonal'
loop_
_space_group_symop_operation_xyz
x,y,z
1/2-y,1/2+x,1/4+z
-x,-y,1/2+z
1/2+y,1/2-x,3/4+z
1/2+x,1/2-y,3/4-z
1/2-x,1/2+y,1/4-z
y,x,-z
-y,-x,1/2-z
loop_
_atom_site_type_symbol
_atom_site_label
_atom_site_fract_x
_atom_site_fract_y
_atom_site_fract_z
Si Si1 0.833826 0.820308 0.337359
Si Si2 0.780494 0.135098 0.051827
Si Si3 0.747086 0.537230 0.923015
Si Si4 0.558105 0.068054 0.726121
Si Si5 0.218193 0.947458 0.277441
O O1 0.822200 0.822200 0.500000
O O2 0.771917 0.731630 0.265734
O O3 0.800119 0.930210 0.288900
O O4 0.948475 0.801639 0.295947
O O5 0.906142 0.324876 0.773599
O O6 0.777449 0.047872 0.940257
O O7 0.901398 0.270346 0.309520
O O8 0.843785 0.510214 0.834074
O O9 0.669708 0.606870 0.840340
O O10 0.525470 0.045253 0.877535
O O11 0.130893 0.869108 0.250000
#
# Coordination Sequence:
#
# PCOD9549531 Si02
#       5
#     8   8   8   8   8
#     4  12  26  47  76 107 150 203 252 311 382 456
#     4  11  26  47  74 109 147 198 253 317 380 459
#     4  11  26  47  73 106 153 194 249 319 383 452
#     4  12  27  44  73 106 145 195 248 316 380 454
#     4  12  26  45  74 105 145 199 258 302 378 460
#
# _framework density 22.734038999999999
#
# number of rings (size 3 to 8) (size 9 to 14) (size 15 to 20)
#    0.000    0.400    0.000    9.000    8.400    4.000 
#    0.000    0.000    0.000    0.000    0.000    0.000 
#    0.000    0.000    0.000    0.000    0.000    0.000 
#
# Total GULP energy -224142.676764 kJ/mol
# GULP energy per Si atom -5603.566919 kJ/mol
# Density = 2.268230 g / cm^3
# Si number density = 22.734039 Si / 1000 Ang^3
#
#
#
# Elastic Constant Matrix: (Units=GPa)
#
#
# Indices 1 2 3 4 5 6 
#
# 1 106.1575 24.9272 44.0158 0.0000 0.0000 0.0000
# 2 24.9272 106.1566 44.0156 0.0000 0.0000 0.0000
# 3 44.0158 44.0156 145.9324 0.0000 0.0000 0.0000
# 4 0.0000 0.0000 0.0000 39.8169 0.0000 0.0000
# 5 0.0000 0.0000 0.0000 0.0000 39.8169 0.0000
# 6 0.0000 0.0000 0.0000 0.0000 0.0000 22.8495
#
#
#
# Elastic Compliance Matrix: (Units=1/GPa)
#
#
# Indices 1 2 3 4 5 6 
#
# 1 0.010939 -0.001372 -0.002885 0.000000 0.000000 0.000000
# 2 -0.001372 0.010939 -0.002885 0.000000 0.000000 0.000000
# 3 -0.002885 -0.002885 0.008593 0.000000 0.000000 0.000000
# 4 0.000000 0.000000 0.000000 0.025115 0.000000 0.000000
# 5 0.000000 0.000000 0.000000 0.000000 0.025115 0.000000
# 6 0.000000 0.000000 0.000000 0.000000 0.000000 0.043765
#
#
# Mechanical properties :
#
#
# Convention : Reuss Voigt Hill
#
# Bulk Modulus (GPa) = 61.78827 64.90706 63.34767
# Shear Modulus (GPa) = 34.68718 36.84918 35.76818
#
# Velocity S-wave (km/s) = 3.91036 4.03038 3.97083
# Velocity P-wave (km/s) = 6.90114 7.09022 6.99632
#
# Compressibility (1/GPa) = 0.01618430
#
# Stress axis : x y z
#
# Youngs Moduli (GPa) = 91.41998 91.41917 116.37309
#
# Poissons Ratio (x) = 0.12544 0.33578
# Poissons Ratio (y) = 0.12544 0.33578
# Poissons Ratio (z) = 0.26378 0.26378
#
# Static dielectric constant tensor:
#      x y z
#    x 1.834800 0.000000 0.000000 
#    y 0.000000 1.834800 0.000000 
#    z 0.000000 0.000000 1.875270 
# 
# From -- ./inp_files/2046.got.cif
#   From: 2010.05.17/outbox.cif.g08.bks.cpg/sg92_2_cif.got.tgz:2046.got - 2010.06.03 19:35:17.
