data_PCOD9549922
_publ_section_title
;
Structure prediction by ZEFSAII (Michael W. Deem and Ramdas Pophale) SiO2 
 PCOD9549922
Probable space group: P 42 21 2
;
_chemical_formula_sum "Si O2"
_cell_formula_units_Z 44
_cell_length_a 11.814085
_cell_length_b 11.814085
_cell_length_c 20.184807
_cell_angle_alpha 90.000000
_cell_angle_beta 90.000000
_cell_angle_gamma 90.000000
_cell_volume 2817.246082
_symmetry_space_group_name_H-M "P 42 21 2"
_symmetry_group_IT_number 94
_symmetry_cell_setting 'tetragonal'
loop_
_space_group_symop_operation_xyz
x,y,z
1/2-y,1/2+x,1/2+z
-x,-y,z
1/2+y,1/2-x,1/2+z
1/2+x,1/2-y,1/2-z
1/2-x,1/2+y,1/2-z
y,x,-z
-y,-x,-z
loop_
_atom_site_type_symbol
_atom_site_label
_atom_site_fract_x
_atom_site_fract_y
_atom_site_fract_z
Si Si1 0.500000 0.500000 0.656344
Si Si2 0.382097 0.890465 0.200984
Si Si3 0.175520 0.161542 0.921662
Si Si4 0.123138 0.649561 0.335235
Si Si5 0.793641 0.144200 0.795142
Si Si6 0.027829 0.371387 0.147905
O O1 0.575991 0.413320 0.612845
O O2 0.408198 0.429613 0.698725
O O3 0.487708 0.853894 0.155310
O O4 0.271375 0.820600 0.185258
O O5 0.418746 0.874000 0.277701
O O6 0.355622 0.022944 0.192446
O O7 0.168870 0.289490 0.894077
O O8 0.295349 0.107263 0.898733
O O9 0.160341 0.160341 0.000000
O O10 0.145140 0.741851 0.278349
O O11 0.700589 0.086540 0.842034
O O12 0.000000 0.500000 0.127850
#
# Coordination Sequence:
#
# PCOD9549922 Si02
#       6
#     4   8   8   8   8   8
#     4  10  21  34  54  78 103 136 178 220 272 298
#     4  10  17  31  53  79 109 125 170 225 268 310
#     4  11  22  36  51  72 108 143 179 211 251 321
#     4  10  19  31  51  78 108 134 165 216 267 304
#     4  10  18  31  55  82 106 131 172 225 274 304
#     4  10  19  34  52  78 104 138 170 221 268 311
#
# _framework density 15.618088
#
# number of rings (size 3 to 8) (size 9 to 14) (size 15 to 20)
#    0.000    1.818    7.273    0.273    0.000    0.000 
#    3.273    0.000    0.000    0.000    0.000    4.455 
#    0.000    0.000    0.000    0.000    0.000    0.000 
#
# Total GULP energy -245090.861990 kJ/mol
# GULP energy per Si atom -5570.246863 kJ/mol
# Density = 1.558254 g / cm^3
# Si number density = 15.618088 Si / 1000 Ang^3
#
#
#
# Elastic Constant Matrix: (Units=GPa)
#
#
# Indices 1 2 3 4 5 6 
#
# 1 113.5080 61.6366 30.6327 0.0000 0.0000 0.0000
# 2 61.6366 113.5080 30.6327 0.0000 0.0000 0.0000
# 3 30.6327 30.6327 52.8285 0.0000 0.0000 0.0000
# 4 0.0000 0.0000 0.0000 12.2161 0.0000 0.0000
# 5 0.0000 0.0000 0.0000 0.0000 12.2161 0.0000
# 6 0.0000 0.0000 0.0000 0.0000 0.0000 23.3328
#
#
#
# Elastic Compliance Matrix: (Units=1/GPa)
#
#
# Indices 1 2 3 4 5 6 
#
# 1 0.013220 -0.006058 -0.004153 0.000000 0.000000 0.000000
# 2 -0.006058 0.013220 -0.004153 0.000000 0.000000 0.000000
# 3 -0.004153 -0.004153 0.023746 0.000000 0.000000 0.000000
# 4 0.000000 0.000000 0.000000 0.081860 0.000000 0.000000
# 5 0.000000 0.000000 0.000000 0.000000 0.081860 0.000000
# 6 0.000000 0.000000 0.000000 0.000000 0.000000 0.042858
#
#
# Mechanical properties :
#
#
# Convention : Reuss Voigt Hill
#
# Bulk Modulus (GPa) = 46.60303 58.40538 52.50421
# Shear Modulus (GPa) = 17.08558 20.01581 18.55070
#
# Velocity S-wave (km/s) = 3.31110 3.58380 3.45014
# Velocity P-wave (km/s) = 6.67246 7.38932 7.04002
#
# Compressibility (1/GPa) = 0.02145783
#
# Stress axis : x y z
#
# Youngs Moduli (GPa) = 75.64081 75.64081 42.11318
#
# Poissons Ratio (x) = 0.45824 0.17490
# Poissons Ratio (y) = 0.45824 0.17490
# Poissons Ratio (z) = 0.31414 0.31414
#
# Static dielectric constant tensor:
#      x y z
#    x 1.539760 0.000000 0.000000 
#    y 0.000000 1.539760 0.000000 
#    z 0.000000 0.000000 1.485970 
# 
# From -- ./inp_files/4026.got.cif
#   From: 2010.05.17/outbox.cif.g08.bks.cpg/sg94_3_cif.got.tgz:4026.got - 2010.06.03 19:43:16.
