data_PCOD9549599
_publ_section_title
;
Structure prediction by ZEFSAII (Michael W. Deem and Ramdas Pophale) SiO2 
 PCOD9549599
Probable space group: P 42 2 2
;
_chemical_formula_sum "Si O2"
_cell_formula_units_Z 56
_cell_length_a 27.947659
_cell_length_b 27.947659
_cell_length_c 5.323602
_cell_angle_alpha 90.000000
_cell_angle_beta 90.000000
_cell_angle_gamma 90.000000
_cell_volume 4158.114564
_symmetry_space_group_name_H-M "P 42 2 2"
_symmetry_group_IT_number 93
_symmetry_cell_setting 'tetragonal'
loop_
_space_group_symop_operation_xyz
x,y,z
-y,x,1/2+z
-x,-y,z
y,-x,1/2+z
x,-y,-z
-x,y,-z
y,x,1/2-z
-y,-x,1/2-z
loop_
_atom_site_type_symbol
_atom_site_label
_atom_site_fract_x
_atom_site_fract_y
_atom_site_fract_z
Si Si1 0.834881 0.755155 0.250000
Si Si2 0.641682 0.031672 0.250000
Si Si3 0.710628 0.125080 0.250000
Si Si4 0.529592 0.936534 0.750000
Si Si5 0.821493 0.527072 0.750000
Si Si6 0.751022 0.325368 0.750000
Si Si7 0.212242 0.634516 0.250000
O O1 0.806275 0.806275 0.250000
O O2 0.865649 0.743031 0.500738
O O3 0.792279 0.715716 0.250000
O O4 0.865649 0.743031 0.999262
O O5 0.679339 0.076126 0.250000
O O6 0.585212 0.047346 0.250000
O O7 0.649090 0.000000 0.500000
O O8 0.649090 0.000000 0.000000
O O9 0.670550 0.166938 0.250000
O O10 0.500000 0.950473 0.500000
O O11 0.529341 0.879044 0.750000
O O12 0.500000 0.950473 0.000000
O O13 0.805791 0.500000 0.500000
O O14 0.804746 0.580881 0.750000
O O15 0.805791 0.500000 0.000000
O O16 0.701191 0.298810 0.750000
O O17 0.758549 0.354847 0.499561
O O18 0.758549 0.354847 0.000438
#
# Coordination Sequence:
#
# PCOD9549599 Si02
#       7
#     8   8   8   8   8   8   8
#     4   9  17  29  48  67  84 102 125 160 206 257
#     4  12  24  35  47  62  83 112 145 179 228 272
#     4  10  19  32  45  63  85 106 134 166 211 263
#     4  10  21  35  48  59  74  99 143 194 233 268
#     4  10  19  30  44  60  76  99 138 177 217 259
#     4   9  17  26  41  64  83  99 122 151 196 264
#     4  10  17  29  45  57  79 106 126 162 217 248
#
# _framework density 13.467643000000001
#
# number of rings (size 3 to 8) (size 9 to 14) (size 15 to 20)
#    0.000    2.000    1.429    3.429    0.000    5.143 
#    0.000    0.000    0.000    0.000    0.000    0.000 
#    0.000    0.000    0.000    0.000    0.000    0.000 
#
# Total GULP energy -312116.135677 kJ/mol
# GULP energy per Si atom -5573.502423 kJ/mol
# Density = 1.343699 g / cm^3
# Si number density = 13.467643 Si / 1000 Ang^3
#
#
#
# Elastic Constant Matrix: (Units=GPa)
#
#
# Indices 1 2 3 4 5 6 
#
# 1 63.1115 42.3759 56.8206 0.0000 0.0000 0.0000
# 2 42.3759 63.1114 56.8205 0.0000 0.0000 0.0000
# 3 56.8206 56.8205 165.5952 0.0000 0.0000 0.0000
# 4 0.0000 0.0000 0.0000 -0.9705 0.0000 0.0000
# 5 0.0000 0.0000 0.0000 0.0000 -0.9725 0.0000
# 6 0.0000 0.0000 0.0000 0.0000 0.0000 33.1156
#
#
#
# Elastic Compliance Matrix: (Units=1/GPa)
#
#
# Indices 1 2 3 4 5 6 
#
# 1 0.031633 -0.016594 -0.005160 0.000000 0.000000 0.000000
# 2 -0.016594 0.031633 -0.005160 0.000000 0.000000 0.000000
# 3 -0.005160 -0.005160 0.009580 0.000000 0.000000 0.000000
# 4 0.000000 0.000000 0.000000 -1.030377 0.000000 0.000000
# 5 0.000000 0.000000 0.000000 0.000000 -1.028261 0.000000
# 6 0.000000 0.000000 0.000000 0.000000 0.000000 0.030197
#
#
# Mechanical properties :
#
#
# Convention : Reuss Voigt Hill
#
# Bulk Modulus (GPa) = 52.58489 67.09467 59.83978
# Shear Modulus (GPa) = -2.63793 15.28791 6.32499
#
# Velocity S-wave (km/s) = -1.40106 3.37287 2.16948
# Velocity P-wave (km/s) = 6.04258 8.06819 7.12771
#
# Compressibility (1/GPa) = 0.01901687
#
# Stress axis : x y z
#
# Youngs Moduli (GPa) = 31.61286 31.61291 104.38264
#
# Poissons Ratio (x) = 0.52457 0.53865
# Poissons Ratio (y) = 0.52457 0.53864
# Poissons Ratio (z) = 0.16313 0.16313
#
# Static dielectric constant tensor:
#      x y z
#    x 1.423120 0.000000 0.000000 
#    y 0.000000 1.423120 0.000000 
#    z 0.000000 0.000000 1.460440 
# 
# From -- ./inp_files/794.got.cif
#   From: 2010.05.17/outbox.cif.g08.bks.cpg/sg93_1_cif.got.tgz:794.got - 2010.06.03 19:38:44.
