data_PCOD9549045
_publ_section_title
;
Structure prediction by ZEFSAII (Michael W. Deem and Ramdas Pophale) SiO2 
 PCOD9549045
Probable space group: P 41 21 2
;
_chemical_formula_sum "Si O2"
_cell_formula_units_Z 48
_cell_length_a 9.506185
_cell_length_b 9.506185
_cell_length_c 28.567356
_cell_angle_alpha 90.000000
_cell_angle_beta 90.000000
_cell_angle_gamma 90.000000
_cell_volume 2581.562065
_symmetry_space_group_name_H-M "P 41 21 2"
_symmetry_group_IT_number 92
_symmetry_cell_setting 'tetragonal'
loop_
_space_group_symop_operation_xyz
x,y,z
1/2-y,1/2+x,1/4+z
-x,-y,1/2+z
1/2+y,1/2-x,3/4+z
1/2+x,1/2-y,3/4-z
1/2-x,1/2+y,1/4-z
y,x,-z
-y,-x,1/2-z
loop_
_atom_site_type_symbol
_atom_site_label
_atom_site_fract_x
_atom_site_fract_y
_atom_site_fract_z
Si Si1 0.772794 0.886206 0.407597
Si Si2 0.127318 0.426297 0.661999
Si Si3 0.053416 0.053416 0.000000
Si Si4 0.746199 0.170873 0.350298
Si Si5 0.779388 0.220613 0.250000
Si Si6 0.550469 0.155212 0.894896
Si Si7 0.552851 0.780167 0.735735
O O1 0.843179 0.910222 0.457670
O O2 0.613518 0.826692 0.408329
O O3 0.875924 0.789350 0.377498
O O4 0.762502 0.036440 0.382649
O O5 0.201901 0.320219 0.626651
O O6 0.198530 0.580322 0.656536
O O7 0.153618 0.386682 0.716028
O O8 0.967754 0.441974 0.644572
O O9 0.888868 0.074078 0.985903
O O10 0.809438 0.143061 0.298609
O O11 0.615499 0.197917 0.237787
O O12 0.640363 0.110602 0.940408
#
# Coordination Sequence:
#
# PCOD9549045 Si02
#       7
#     8   8   4   8   4   8   8
#     4  11  25  41  61  91 129 167 209 255 317 368
#     4  10  21  38  64  90 123 157 206 256 304 370
#     4  11  22  40  67  88 124 166 205 256 311 382
#     4  10  20  40  59  93 119 160 208 258 305 365
#     4   9  18  36  65  86 120 154 205 252 307 366
#     4  11  24  42  62  91 128 167 206 259 307 378
#     4  10  20  38  65  91 116 164 203 250 319 367
#
# _framework density 18.593392999999999
#
# number of rings (size 3 to 8) (size 9 to 14) (size 15 to 20)
#    0.000    1.667    3.333    1.000    2.333    1.333 
#    6.000    0.833    0.000    0.000    0.000    0.000 
#    0.000    0.000    0.000    0.000    0.000    0.000 
#
# Total GULP energy -267889.577558 kJ/mol
# GULP energy per Si atom -5581.032866 kJ/mol
# Density = 1.855107 g / cm^3
# Si number density = 18.593393 Si / 1000 Ang^3
#
#
#
# Elastic Constant Matrix: (Units=GPa)
#
#
# Indices 1 2 3 4 5 6 
#
# 1 48.3740 14.2649 23.2335 0.0000 0.0000 0.0000
# 2 14.2649 48.3746 23.2334 0.0000 0.0000 0.0000
# 3 23.2335 23.2334 117.5079 0.0000 0.0000 0.0000
# 4 0.0000 0.0000 0.0000 29.0691 0.0000 0.0000
# 5 0.0000 0.0000 0.0000 0.0000 29.0692 0.0000
# 6 0.0000 0.0000 0.0000 0.0000 0.0000 25.2618
#
#
#
# Elastic Compliance Matrix: (Units=1/GPa)
#
#
# Indices 1 2 3 4 5 6 
#
# 1 0.024013 -0.005304 -0.003699 0.000000 0.000000 0.000000
# 2 -0.005304 0.024013 -0.003699 0.000000 0.000000 0.000000
# 3 -0.003699 -0.003699 0.009973 0.000000 0.000000 0.000000
# 4 0.000000 0.000000 0.000000 0.034401 0.000000 0.000000
# 5 0.000000 0.000000 0.000000 0.000000 0.034401 0.000000
# 6 0.000000 0.000000 0.000000 0.000000 0.000000 0.039586
#
#
# Mechanical properties :
#
#
# Convention : Reuss Voigt Hill
#
# Bulk Modulus (GPa) = 30.68081 37.30222 33.99151
# Shear Modulus (GPa) = 24.67246 26.91501 25.79374
#
# Velocity S-wave (km/s) = 3.64668 3.80881 3.72862
# Velocity P-wave (km/s) = 5.85387 6.28079 6.07108
#
# Compressibility (1/GPa) = 0.03259367
#
# Stress axis : x y z
#
# Youngs Moduli (GPa) = 41.64396 41.64451 100.27286
#
# Poissons Ratio (x) = 0.22090 0.37091
# Poissons Ratio (y) = 0.22090 0.37091
# Poissons Ratio (z) = 0.15404 0.15404
#
# Static dielectric constant tensor:
#      x y z
#    x 1.632450 0.000000 0.000000 
#    y 0.000000 1.632450 0.000000 
#    z 0.000000 0.000000 1.656260 
# 
# From -- ./inp_files/4543.got.cif
#   From: 2010.05.17/outbox.cif.g08.bks.cpg/sg92_3_cif.got.tgz:4543.got - 2010.06.03 19:35:17.
