data_PCOD9549004
_publ_section_title
;
Structure prediction by ZEFSAII (Michael W. Deem and Ramdas Pophale) SiO2 
 PCOD9549004
Probable space group: P 41 21 2
;
_chemical_formula_sum "Si O2"
_cell_formula_units_Z 32
_cell_length_a 16.754831
_cell_length_b 16.754831
_cell_length_c 5.199429
_cell_angle_alpha 90.000000
_cell_angle_beta 90.000000
_cell_angle_gamma 90.000000
_cell_volume 1459.606388
_symmetry_space_group_name_H-M "P 41 21 2"
_symmetry_group_IT_number 92
_symmetry_cell_setting 'tetragonal'
loop_
_space_group_symop_operation_xyz
x,y,z
1/2-y,1/2+x,1/4+z
-x,-y,1/2+z
1/2+y,1/2-x,3/4+z
1/2+x,1/2-y,3/4-z
1/2-x,1/2+y,1/4-z
y,x,-z
-y,-x,1/2-z
loop_
_atom_site_type_symbol
_atom_site_label
_atom_site_fract_x
_atom_site_fract_y
_atom_site_fract_z
Si Si1 0.232967 0.561317 0.704188
Si Si2 0.542079 0.889438 0.555807
Si Si3 0.164774 0.292557 0.967689
Si Si4 0.103843 0.967169 0.499156
O O1 0.242254 0.605654 0.434547
O O2 0.309374 0.506447 0.753437
O O3 0.154466 0.505076 0.713724
O O4 0.222296 0.625667 0.936244
O O5 0.471291 0.913045 0.368346
O O6 0.613062 0.831087 0.474803
O O7 0.247615 0.247615 0.000000
O O8 0.084988 0.915013 0.250000
O O9 0.085196 0.914805 0.750000
O O10 0.040551 0.040551 0.500000
#
# Coordination Sequence:
#
# PCOD9549004 Si02
#       4
#     8   8   8   8
#     4  11  23  40  63  90 124 165 208 260 318 377
#     4  10  22  41  66  93 126 165 211 260 317 380
#     4  11  23  40  64  91 123 163 207 257 312 377
#     4  10  20  35  57  86 121 161 206 255 308 372
#
# _framework density 21.923718000000001
#
# number of rings (size 3 to 8) (size 9 to 14) (size 15 to 20)
#    0.000    1.500    0.000    5.250    0.000    9.000 
#    0.000    5.000    0.000    0.000    0.000    0.000 
#    0.000    0.000    0.000    0.000    0.000    0.000 
#
# Total GULP energy -178856.495261 kJ/mol
# GULP energy per Si atom -5589.265477 kJ/mol
# Density = 2.187382 g / cm^3
# Si number density = 21.923718 Si / 1000 Ang^3
#
#
#
# Elastic Constant Matrix: (Units=GPa)
#
#
# Indices 1 2 3 4 5 6 
#
# 1 95.5286 35.1064 13.3133 0.0000 0.0000 0.0000
# 2 35.1064 95.5284 13.3146 0.0000 0.0000 0.0000
# 3 13.3133 13.3146 94.0344 0.0000 0.0000 0.0000
# 4 0.0000 0.0000 0.0000 14.9156 0.0000 0.0000
# 5 0.0000 0.0000 0.0000 0.0000 14.9163 0.0000
# 6 0.0000 0.0000 0.0000 0.0000 0.0000 -26.2772
#
#
#
# Elastic Compliance Matrix: (Units=1/GPa)
#
#
# Indices 1 2 3 4 5 6 
#
# 1 0.012216 -0.004334 -0.001116 0.000000 0.000000 0.000000
# 2 -0.004334 0.012216 -0.001116 0.000000 0.000000 0.000000
# 3 -0.001116 -0.001116 0.010950 0.000000 0.000000 0.000000
# 4 0.000000 0.000000 0.000000 0.067044 0.000000 0.000000
# 5 0.000000 0.000000 0.000000 0.000000 0.067041 0.000000
# 6 0.000000 0.000000 0.000000 0.000000 0.000000 -0.038056
#
#
# Mechanical properties :
#
#
# Convention : Reuss Voigt Hill
#
# Bulk Modulus (GPa) = 44.94159 45.39555 45.16857
# Shear Modulus (GPa) = 32.90323 15.60143 24.25233
#
# Velocity S-wave (km/s) = 3.87823 2.67052 3.32959
# Velocity P-wave (km/s) = 6.37164 5.50091 5.95222
#
# Compressibility (1/GPa) = 0.02225111
#
# Stress axis : x y z
#
# Youngs Moduli (GPa) = 81.85797 81.85751 91.32058
#
# Poissons Ratio (x) = 0.35476 0.10191
# Poissons Ratio (y) = 0.35476 0.10193
# Poissons Ratio (z) = 0.09135 0.09137
#
# Static dielectric constant tensor:
#      x y z
#    x 1.819130 0.000000 0.000000 
#    y 0.000000 1.819130 0.000000 
#    z 0.000000 0.000000 1.773670 
# 
# From -- ./inp_files/340.got.cif
#   From: 2010.05.17/outbox.cif.g08.bks.cpg/sg92_1_cif.got.tgz:340.got - 2010.06.03 19:35:17.
