data_PCOD9549829
_publ_section_title
;
Structure prediction by ZEFSAII (Michael W. Deem and Ramdas Pophale) SiO2 
 PCOD9549829
Probable space group: P 42 2 2
;
_chemical_formula_sum "Si O2"
_cell_formula_units_Z 56
_cell_length_a 14.869858
_cell_length_b 14.869858
_cell_length_c 11.342466
_cell_angle_alpha 90.000000
_cell_angle_beta 90.000000
_cell_angle_gamma 90.000000
_cell_volume 2507.963020
_symmetry_space_group_name_H-M "P 42 2 2"
_symmetry_group_IT_number 93
_symmetry_cell_setting 'tetragonal'
loop_
_space_group_symop_operation_xyz
x,y,z
-y,x,1/2+z
-x,-y,z
y,-x,1/2+z
x,-y,-z
-x,y,-z
y,x,1/2-z
-y,-x,1/2-z
loop_
_atom_site_type_symbol
_atom_site_label
_atom_site_fract_x
_atom_site_fract_y
_atom_site_fract_z
Si Si1 0.620564 0.832711 0.737805
Si Si2 0.145121 0.893755 0.484035
Si Si3 0.342733 0.968964 0.758359
Si Si4 0.140697 0.991646 0.814085
Si Si5 0.824138 0.447765 0.885577
Si Si6 0.746912 0.293598 0.014202
Si Si7 0.391505 0.147041 0.012411
O O1 0.519876 0.797780 0.713891
O O2 0.678930 0.767947 0.652392
O O3 0.644364 0.851159 0.875298
O O4 0.616965 0.938601 0.705859
O O5 0.074461 0.851707 0.574381
O O6 0.233278 0.836081 0.502280
O O7 0.090907 0.880196 0.362517
O O8 0.155842 0.000000 0.500000
O O9 0.236309 0.984929 0.751960
O O10 0.380283 0.892007 0.675810
O O11 0.368653 0.932511 0.892423
O O12 0.061139 0.938862 0.750000
O O13 0.862379 0.500000 0.000000
O O14 0.748182 0.386633 0.943896
O O15 0.664300 0.237086 0.957604
O O16 0.500000 0.150905 0.000000
#
# Coordination Sequence:
#
# PCOD9549829 Si02
#       7
#     8   8   8   8   8   8   8
#     4  11  25  43  68 104 137 186 228 304 360 435
#     4  11  25  44  58  95 137 197 247 299 336 411
#     4  12  24  41  70 101 139 185 243 296 366 420
#     4  11  24  42  61  90 137 187 248 291 336 405
#     4  10  24  44  68 100 139 179 231 296 362 443
#     4  11  25  46  71 100 143 189 242 294 372 439
#     4  12  25  45  69 105 145 183 238 303 370 441
#
# _framework density 22.328880000000002
#
# number of rings (size 3 to 8) (size 9 to 14) (size 15 to 20)
#    0.000    0.857    2.857    3.857    6.000    5.143 
#    0.000    0.000    0.000    3.857    0.000    6.000 
#    0.000    0.000    0.000    0.000    0.000    0.000 
#
# Total GULP energy -311897.255592 kJ/mol
# GULP energy per Si atom -5569.593850 kJ/mol
# Density = 2.227806 g / cm^3
# Si number density = 22.328880 Si / 1000 Ang^3
#
#
#
# Elastic Constant Matrix: (Units=GPa)
#
#
# Indices 1 2 3 4 5 6 
#
# 1 89.2595 25.4834 -6.1066 0.0000 0.0000 0.0000
# 2 25.4834 89.2591 -6.1062 0.0000 0.0000 0.0000
# 3 -6.1066 -6.1062 65.4881 0.0000 0.0000 0.0000
# 4 0.0000 0.0000 0.0000 41.5228 0.0000 0.0000
# 5 0.0000 0.0000 0.0000 0.0000 41.5247 0.0000
# 6 0.0000 0.0000 0.0000 0.0000 0.0000 -78.9074
#
#
#
# Elastic Compliance Matrix: (Units=1/GPa)
#
#
# Indices 1 2 3 4 5 6 
#
# 1 0.012241 -0.003439 0.000821 0.000000 0.000000 0.000000
# 2 -0.003439 0.012241 0.000821 0.000000 0.000000 0.000000
# 3 0.000821 0.000821 0.015423 0.000000 0.000000 0.000000
# 4 0.000000 0.000000 0.000000 0.024083 0.000000 0.000000
# 5 0.000000 0.000000 0.000000 0.000000 0.024082 0.000000
# 6 0.000000 0.000000 0.000000 0.000000 0.000000 -0.012673
#
#
# Mechanical properties :
#
#
# Convention : Reuss Voigt Hill
#
# Bulk Modulus (GPa) = 27.53972 30.06088 28.80030
# Shear Modulus (GPa) = 54.88743 16.21042 35.54892
#
# Velocity S-wave (km/s) = 4.96334 2.69733 3.99439
# Velocity P-wave (km/s) = 6.72360 4.81589 5.84806
#
# Compressibility (1/GPa) = 0.03631119
#
# Stress axis : x y z
#
# Youngs Moduli (GPa) = 81.69146 81.69115 64.83814
#
# Poissons Ratio (x) = 0.28091 -0.05322
# Poissons Ratio (y) = 0.28091 -0.05322
# Poissons Ratio (z) = -0.06705 -0.06705
#
# Static dielectric constant tensor:
#      x y z
#    x 1.851700 0.000000 0.000000 
#    y 0.000000 1.851690 0.000000 
#    z 0.000000 0.000000 2.008690 
# 
# From -- ./inp_files/3502.got.cif
#   From: 2010.05.17/outbox.cif.g08.bks.cpg/sg93_2_cif.got.tgz:3502.got - 2010.06.03 19:38:44.
