data_PCOD9549760
_publ_section_title
;
Structure prediction by ZEFSAII (Michael W. Deem and Ramdas Pophale) SiO2 
 PCOD9549760
Probable space group: P 42 2 2
;
_chemical_formula_sum "Si O2"
_cell_formula_units_Z 40
_cell_length_a 8.687593
_cell_length_b 8.687593
_cell_length_c 24.648457
_cell_angle_alpha 90.000000
_cell_angle_beta 90.000000
_cell_angle_gamma 90.000000
_cell_volume 1860.324351
_symmetry_space_group_name_H-M "P 42 2 2"
_symmetry_group_IT_number 93
_symmetry_cell_setting 'tetragonal'
loop_
_space_group_symop_operation_xyz
x,y,z
-y,x,1/2+z
-x,-y,z
y,-x,1/2+z
x,-y,-z
-x,y,-z
y,x,1/2-z
-y,-x,1/2-z
loop_
_atom_site_type_symbol
_atom_site_label
_atom_site_fract_x
_atom_site_fract_y
_atom_site_fract_z
Si Si1 0.419168 0.163528 0.819317
Si Si2 0.675110 0.940620 0.440251
Si Si3 0.944362 0.172248 0.165960
Si Si4 0.403672 0.810097 0.713922
Si Si5 0.615219 0.622575 0.392943
O O1 0.238158 0.170161 0.827802
O O2 0.458855 0.197041 0.756686
O O3 0.511870 0.266768 0.861902
O O4 0.500000 0.000000 0.827495
O O5 0.674609 0.755358 0.432824
O O6 0.500000 0.000000 0.429011
O O7 0.713262 0.000000 0.500000
O O8 0.790560 0.009771 0.396044
O O9 0.035425 0.311695 0.196448
O O10 0.000000 0.000000 0.181567
O O11 0.276919 0.723081 0.750000
O O12 0.448598 0.721962 0.658727
O O13 0.500000 0.500000 0.419015
#
# Coordination Sequence:
#
# PCOD9549760 Si02
#       5
#     8   8   8   8   8
#     4  11  23  37  58  89 127 169 209 260 318 380
#     4  10  22  43  67  91 121 165 215 270 337 397
#     4  11  23  42  64  91 129 171 218 269 323 395
#     4   9  21  37  55  86 127 168 211 256 318 390
#     4  10  21  39  61  91 124 158 210 268 318 384
#
# _framework density 21.501629000000001
#
# number of rings (size 3 to 8) (size 9 to 14) (size 15 to 20)
#    0.000    1.800    0.000    4.800    0.000   13.200 
#    0.000    7.000    0.000    1.200    0.000    0.000 
#    0.000    0.000    0.000    0.000    0.000    0.000 
#
# Total GULP energy -223366.215941 kJ/mol
# GULP energy per Si atom -5584.155399 kJ/mol
# Density = 2.145269 g / cm^3
# Si number density = 21.501629 Si / 1000 Ang^3
#
#
#
# Elastic Constant Matrix: (Units=GPa)
#
#
# Indices 1 2 3 4 5 6 
#
# 1 160.3728 26.2474 37.6744 0.0000 0.0000 0.0000
# 2 26.2474 160.3671 37.6717 0.0000 0.0000 0.0000
# 3 37.6744 37.6717 101.8705 0.0000 0.0000 0.0000
# 4 0.0000 0.0000 0.0000 14.3845 0.0000 0.0000
# 5 0.0000 0.0000 0.0000 0.0000 14.3844 0.0000
# 6 0.0000 0.0000 0.0000 0.0000 0.0000 41.1546
#
#
#
# Elastic Compliance Matrix: (Units=1/GPa)
#
#
# Indices 1 2 3 4 5 6 
#
# 1 0.006877 -0.000578 -0.002330 0.000000 0.000000 0.000000
# 2 -0.000578 0.006878 -0.002329 0.000000 0.000000 0.000000
# 3 -0.002330 -0.002329 0.011539 0.000000 0.000000 0.000000
# 4 0.000000 0.000000 0.000000 0.069519 0.000000 0.000000
# 5 0.000000 0.000000 0.000000 0.000000 0.069520 0.000000
# 6 0.000000 0.000000 0.000000 0.000000 0.000000 0.024299
#
#
# Mechanical properties :
#
#
# Convention : Reuss Voigt Hill
#
# Bulk Modulus (GPa) = 67.47840 69.53305 68.50573
# Shear Modulus (GPa) = 24.50422 35.38583 29.94502
#
# Velocity S-wave (km/s) = 3.37952 4.06116 3.73592
# Velocity P-wave (km/s) = 6.83223 7.37559 7.10910
#
# Compressibility (1/GPa) = 0.01481956
#
# Stress axis : x y z
#
# Youngs Moduli (GPa) = 145.40408 145.40041 86.66018
#
# Poissons Ratio (x) = 0.08410 0.20188
# Poissons Ratio (y) = 0.08410 0.20187
# Poissons Ratio (z) = 0.33873 0.33870
#
# Static dielectric constant tensor:
#      x y z
#    x 1.842340 0.000000 0.000000 
#    y 0.000000 1.842340 0.000000 
#    z 0.000000 0.000000 1.621950 
# 
# From -- ./inp_files/6699.got.cif
#   From: 2010.05.17/outbox.cif.g08.bks.cpg/sg93_4_cif.got.tgz:6699.got - 2010.06.03 19:38:44.
