data_PCOD9549594
_publ_section_title
;
Structure prediction by ZEFSAII (Michael W. Deem and Ramdas Pophale) SiO2 
 PCOD9549594
Probable space group: P 42 2 2
;
_chemical_formula_sum "Si O2"
_cell_formula_units_Z 40
_cell_length_a 11.887940
_cell_length_b 11.887940
_cell_length_c 14.468737
_cell_angle_alpha 90.000000
_cell_angle_beta 90.000000
_cell_angle_gamma 90.000000
_cell_volume 2044.767018
_symmetry_space_group_name_H-M "P 42 2 2"
_symmetry_group_IT_number 93
_symmetry_cell_setting 'tetragonal'
loop_
_space_group_symop_operation_xyz
x,y,z
-y,x,1/2+z
-x,-y,z
y,-x,1/2+z
x,-y,-z
-x,y,-z
y,x,1/2-z
-y,-x,1/2-z
loop_
_atom_site_type_symbol
_atom_site_label
_atom_site_fract_x
_atom_site_fract_y
_atom_site_fract_z
Si Si1 0.208377 0.661055 0.831365
Si Si2 0.371600 0.528574 0.109651
Si Si3 0.404222 0.213955 0.869523
Si Si4 0.003296 0.633289 0.282008
Si Si5 0.342341 0.172623 0.072875
O O1 0.267550 0.732451 0.750000
O O2 0.275193 0.544064 0.840808
O O3 0.076892 0.652372 0.806408
O O4 0.244682 0.734606 0.919309
O O5 0.500000 0.500000 0.138563
O O6 0.360116 0.660059 0.128224
O O7 0.365536 0.500000 0.000000
O O8 0.541643 0.219074 0.878251
O O9 0.350252 0.136380 0.789896
O O10 0.371652 0.155317 0.966837
O O11 0.936243 0.689007 0.367339
O O12 0.000000 0.500000 0.300968
#
# Coordination Sequence:
#
# PCOD9549594 Si02
#       5
#     8   8   8   8   8
#     4  10  19  31  45  72 111 149 180 230 296 344
#     4  11  18  30  49  78 112 146 192 235 286 354
#     4  10  16  28  48  73 106 145 195 232 271 350
#     4   9  19  30  42  66 107 153 186 227 278 339
#     4   9  15  29  47  70  99 146 190 236 284 326
#
# _framework density 19.562131999999998
#
# number of rings (size 3 to 8) (size 9 to 14) (size 15 to 20)
#    0.000    2.200    4.000    1.800    0.000    2.800 
#    0.000    0.000    0.000    0.600    0.000    0.000 
#    0.000   49.600    0.000  111.600    0.000    0.000 
#
# Total GULP energy -222751.966010 kJ/mol
# GULP energy per Si atom -5568.799150 kJ/mol
# Density = 1.951761 g / cm^3
# Si number density = 19.562132 Si / 1000 Ang^3
#
#
#
# Elastic Constant Matrix: (Units=GPa)
#
#
# Indices 1 2 3 4 5 6 
#
# 1 116.3094 25.5502 24.4197 0.0000 0.0000 0.0000
# 2 25.5502 116.3092 24.4194 0.0000 0.0000 0.0000
# 3 24.4197 24.4194 45.9425 0.0000 0.0000 0.0000
# 4 0.0000 0.0000 0.0000 28.3112 0.0000 0.0000
# 5 0.0000 0.0000 0.0000 0.0000 28.3113 0.0000
# 6 0.0000 0.0000 0.0000 0.0000 0.0000 6.2740
#
#
#
# Elastic Compliance Matrix: (Units=1/GPa)
#
#
# Indices 1 2 3 4 5 6 
#
# 1 0.009823 -0.001195 -0.004586 0.000000 0.000000 0.000000
# 2 -0.001195 0.009823 -0.004586 0.000000 0.000000 0.000000
# 3 -0.004586 -0.004586 0.026642 0.000000 0.000000 0.000000
# 4 0.000000 0.000000 0.000000 0.035322 0.000000 0.000000
# 5 0.000000 0.000000 0.000000 0.000000 0.035322 0.000000
# 6 0.000000 0.000000 0.000000 0.000000 0.000000 0.159388
#
#
# Mechanical properties :
#
#
# Convention : Reuss Voigt Hill
#
# Bulk Modulus (GPa) = 39.13353 47.48221 43.30787
# Shear Modulus (GPa) = 16.36279 26.19075 21.27677
#
# Velocity S-wave (km/s) = 2.89529 3.66300 3.30153
# Velocity P-wave (km/s) = 5.58794 6.49733 6.05972
#
# Compressibility (1/GPa) = 0.02555354
#
# Stress axis : x y z
#
# Youngs Moduli (GPa) = 101.80036 101.80053 37.53541
#
# Poissons Ratio (x) = 0.12166 0.17214
# Poissons Ratio (y) = 0.12166 0.17214
# Poissons Ratio (z) = 0.46687 0.46686
#
# Static dielectric constant tensor:
#      x y z
#    x 1.749380 0.000000 0.000000 
#    y 0.000000 1.749380 0.000000 
#    z 0.000000 0.000000 1.784490 
# 
# From -- ./inp_files/4362.got.cif
#   From: 2010.05.17/outbox.cif.g08.bks.cpg/sg93_3_cif.got.tgz:4362.got - 2010.06.03 19:38:44.
