data_PCOD9549892
_publ_section_title
;
Structure prediction by ZEFSAII (Michael W. Deem and Ramdas Pophale) SiO2 
 PCOD9549892
Probable space group: P 42 2 2
;
_chemical_formula_sum "Si O2"
_cell_formula_units_Z 22
_cell_length_a 5.324803
_cell_length_b 5.324803
_cell_length_c 31.886833
_cell_angle_alpha 90.000000
_cell_angle_beta 90.000000
_cell_angle_gamma 90.000000
_cell_volume 904.104180
_symmetry_space_group_name_H-M "P 42 2 2"
_symmetry_group_IT_number 93
_symmetry_cell_setting 'tetragonal'
loop_
_space_group_symop_operation_xyz
x,y,z
-y,x,1/2+z
-x,-y,z
y,-x,1/2+z
x,-y,-z
-x,y,-z
y,x,1/2-z
-y,-x,1/2-z
loop_
_atom_site_type_symbol
_atom_site_label
_atom_site_fract_x
_atom_site_fract_y
_atom_site_fract_z
Si Si1 0.745432 0.844430 0.568087
Si Si2 0.500000 0.500000 0.638221
Si Si3 0.837835 0.250235 0.798211
Si Si4 0.500000 0.000000 0.000000
O O1 0.644140 0.692835 0.608082
O O2 0.829244 0.666070 0.530375
O O3 0.500000 0.000000 0.554846
O O4 0.000000 0.000000 0.578264
O O5 0.290637 0.620453 0.668306
O O6 0.748390 0.251611 0.750000
O O7 0.000000 0.500000 0.803829
O O8 0.000000 0.000000 0.804512
#
# Coordination Sequence:
#
# PCOD9549892 Si02
#       4
#     8   4   8   2
#     4  12  30  53  79 122 158 211 274 343 415 504
#     4  12  29  51  84 118 164 214 270 349 419 506
#     4  11  29  52  79 117 161 215 274 336 415 502
#     4  12  30  54  84 108 168 218 274 338 436 492
#
# _framework density 24.333482
#
# number of rings (size 3 to 8) (size 9 to 14) (size 15 to 20)
#    0.000    0.364    0.000    4.364   10.182   25.455 
#    0.000    0.000    0.000    0.000    0.000    0.000 
#    0.000    0.000    0.000    0.000    0.000    0.000 
#
# Total GULP energy -123525.190615 kJ/mol
# GULP energy per Si atom -5614.781392 kJ/mol
# Density = 2.427810 g / cm^3
# Si number density = 24.333482 Si / 1000 Ang^3
#
#
#
# Elastic Constant Matrix: (Units=GPa)
#
#
# Indices 1 2 3 4 5 6 
#
# 1 183.5435 107.0346 104.4702 0.0000 0.0000 0.0000
# 2 107.0346 183.5429 104.4702 0.0000 0.0000 0.0000
# 3 104.4702 104.4702 220.7151 0.0000 0.0000 0.0000
# 4 0.0000 0.0000 0.0000 70.4432 0.0000 0.0000
# 5 0.0000 0.0000 0.0000 0.0000 70.4286 0.0000
# 6 0.0000 0.0000 0.0000 0.0000 0.0000 24.3530
#
#
#
# Elastic Compliance Matrix: (Units=1/GPa)
#
#
# Indices 1 2 3 4 5 6 
#
# 1 0.009144 -0.003927 -0.002469 0.000000 0.000000 0.000000
# 2 -0.003927 0.009144 -0.002469 0.000000 0.000000 0.000000
# 3 -0.002469 -0.002469 0.006868 0.000000 0.000000 0.000000
# 4 0.000000 0.000000 0.000000 0.014196 0.000000 0.000000
# 5 0.000000 0.000000 0.000000 0.000000 0.014199 0.000000
# 6 0.000000 0.000000 0.000000 0.000000 0.000000 0.041063
#
#
# Mechanical properties :
#
#
# Convention : Reuss Voigt Hill
#
# Bulk Modulus (GPa) = 134.68068 135.52795 135.10432
# Shear Modulus (GPa) = 43.54685 51.16672 47.35679
#
# Velocity S-wave (km/s) = 4.23494 4.59053 4.41631
# Velocity P-wave (km/s) = 8.90960 9.16047 9.03591
#
# Compressibility (1/GPa) = 0.00742497
#
# Stress axis : x y z
#
# Youngs Moduli (GPa) = 109.36503 109.36458 145.59567
#
# Poissons Ratio (x) = 0.42944 0.35952
# Poissons Ratio (y) = 0.42944 0.35953
# Poissons Ratio (z) = 0.27006 0.27006
#
# Static dielectric constant tensor:
#      x y z
#    x 2.031110 0.000000 0.000000 
#    y 0.000000 2.031040 0.000000 
#    z 0.000000 0.000000 1.927910 
# 
# From -- ./inp_files/7507.got.cif
#   From: 2010.05.17/outbox.cif.g08.bks.cpg/sg93_4_cif.got.tgz:7507.got - 2010.06.03 19:38:44.
