data_PCOD9549334
_publ_section_title
;
Structure prediction by ZEFSAII (Michael W. Deem and Ramdas Pophale) SiO2 
 PCOD9549334
Probable space group: P 41 21 2
;
_chemical_formula_sum "Si O2"
_cell_formula_units_Z 48
_cell_length_a 13.356176
_cell_length_b 13.356176
_cell_length_c 10.599086
_cell_angle_alpha 90.000000
_cell_angle_beta 90.000000
_cell_angle_gamma 90.000000
_cell_volume 1890.743790
_symmetry_space_group_name_H-M "P 41 21 2"
_symmetry_group_IT_number 92
_symmetry_cell_setting 'tetragonal'
loop_
_space_group_symop_operation_xyz
x,y,z
1/2-y,1/2+x,1/4+z
-x,-y,1/2+z
1/2+y,1/2-x,3/4+z
1/2+x,1/2-y,3/4-z
1/2-x,1/2+y,1/4-z
y,x,-z
-y,-x,1/2-z
loop_
_atom_site_type_symbol
_atom_site_label
_atom_site_fract_x
_atom_site_fract_y
_atom_site_fract_z
Si Si1 0.639451 0.160292 0.333526
Si Si2 0.087720 0.666733 0.166227
Si Si3 0.250936 0.847244 0.590947
Si Si4 0.665358 0.037642 0.574456
Si Si5 0.359760 0.529927 0.636278
Si Si6 0.491643 0.657936 0.471689
O O1 0.734521 0.224783 0.377683
O O2 0.633975 0.076099 0.439221
O O3 0.554648 0.243673 0.336408
O O4 0.585248 0.401884 0.487894
O O5 0.088630 0.549851 0.133953
O O6 0.121473 0.664838 0.314085
O O7 0.996449 0.745168 0.185213
O O8 0.148138 0.715067 0.052902
O O9 0.995946 0.780424 0.409791
O O10 0.334200 0.878169 0.694594
O O11 0.350577 0.410965 0.636766
O O12 0.590702 0.590702 0.500000
O O13 0.428087 0.571914 0.750000
#
# Coordination Sequence:
#
# PCOD9549334 Si02
#       6
#     8   8   8   8   8   8
#     4  11  26  45  67 108 141 182 240 300 351 422
#     4  10  23  44  66  98 137 189 232 282 355 421
#     4  11  24  42  73  98 141 178 239 296 343 430
#     4  10  24  45  66  99 142 184 235 289 354 420
#     4  12  23  45  75 102 139 192 238 288 370 418
#     4  10  23  42  71 102 139 184 232 289 356 435
#
# _framework density 25.386837
#
# number of rings (size 3 to 8) (size 9 to 14) (size 15 to 20)
#    1.000    0.333    3.333    2.000    7.000    0.000 
#    3.000    0.833    0.000    0.000    0.000    0.000 
#    0.000    0.000    0.000    0.000    0.000    0.000 
#
# Total GULP energy -267566.615037 kJ/mol
# GULP energy per Si atom -5574.304480 kJ/mol
# Density = 2.532906 g / cm^3
# Si number density = 25.386837 Si / 1000 Ang^3
#
#
#
# Elastic Constant Matrix: (Units=GPa)
#
#
# Indices 1 2 3 4 5 6 
#
# 1 93.2848 -22.5957 28.5437 0.0000 0.0000 0.0000
# 2 -22.5957 93.2864 28.5450 0.0000 0.0000 0.0000
# 3 28.5437 28.5450 72.8353 0.0000 0.0000 0.0000
# 4 0.0000 0.0000 0.0000 28.8774 0.0000 0.0000
# 5 0.0000 0.0000 0.0000 0.0000 28.8770 0.0000
# 6 0.0000 0.0000 0.0000 0.0000 0.0000 34.9342
#
#
#
# Elastic Compliance Matrix: (Units=1/GPa)
#
#
# Indices 1 2 3 4 5 6 
#
# 1 0.014663 0.006034 -0.008111 0.000000 0.000000 0.000000
# 2 0.006034 0.014663 -0.008111 0.000000 0.000000 0.000000
# 3 -0.008111 -0.008111 0.020087 0.000000 0.000000 0.000000
# 4 0.000000 0.000000 0.000000 0.034629 0.000000 0.000000
# 5 0.000000 0.000000 0.000000 0.000000 0.034630 0.000000
# 6 0.000000 0.000000 0.000000 0.000000 0.000000 0.028625
#
#
# Mechanical properties :
#
#
# Convention : Reuss Voigt Hill
#
# Bulk Modulus (GPa) = 34.43975 36.48806 35.46391
# Shear Modulus (GPa) = 28.19229 33.53195 30.86212
#
# Velocity S-wave (km/s) = 3.33604 3.63828 3.49043
# Velocity P-wave (km/s) = 5.33239 5.66158 5.49945
#
# Compressibility (1/GPa) = 0.02903621
#
# Stress axis : x y z
#
# Youngs Moduli (GPa) = 68.19792 68.19845 49.78312
#
# Poissons Ratio (x) = -0.41148 0.40379
# Poissons Ratio (y) = -0.41148 0.40380
# Poissons Ratio (z) = 0.55316 0.55317
#
# Static dielectric constant tensor:
#      x y z
#    x 2.046210 0.000000 0.000000 
#    y 0.000000 2.046210 0.000000 
#    z 0.000000 0.000000 2.093200 
# 
# From -- ./inp_files/2197.got.cif
#   From: 2010.05.17/outbox.cif.g08.bks.cpg/sg92_2_cif.got.tgz:2197.got - 2010.06.03 19:35:17.
