data_PCOD9549999
_publ_section_title
;
Structure prediction by ZEFSAII (Michael W. Deem and Ramdas Pophale) SiO2 
 PCOD9549999
Probable space group: P 42 21 2
;
_chemical_formula_sum "Si O2"
_cell_formula_units_Z 40
_cell_length_a 10.662366
_cell_length_b 10.662366
_cell_length_c 13.584172
_cell_angle_alpha 90.000000
_cell_angle_beta 90.000000
_cell_angle_gamma 90.000000
_cell_volume 1544.330840
_symmetry_space_group_name_H-M "P 42 21 2"
_symmetry_group_IT_number 94
_symmetry_cell_setting 'tetragonal'
loop_
_space_group_symop_operation_xyz
x,y,z
1/2-y,1/2+x,1/2+z
-x,-y,z
1/2+y,1/2-x,1/2+z
1/2+x,1/2-y,1/2-z
1/2-x,1/2+y,1/2-z
y,x,-z
-y,-x,-z
loop_
_atom_site_type_symbol
_atom_site_label
_atom_site_fract_x
_atom_site_fract_y
_atom_site_fract_z
Si Si1 0.215542 0.092993 0.696334
Si Si2 0.251822 0.959870 0.118046
Si Si3 0.122064 0.705593 0.432443
Si Si4 0.208433 0.967508 0.882631
Si Si5 0.397880 0.772529 0.924106
O O1 0.345408 0.160518 0.659143
O O2 0.092694 0.164809 0.656698
O O3 0.213457 0.956076 0.646492
O O4 0.216239 0.086104 0.813517
O O5 0.114691 0.911718 0.148318
O O6 0.327413 0.087678 0.128619
O O7 0.221392 0.977771 0.999817
O O8 0.223044 0.776957 0.500000
O O9 0.013620 0.677511 0.514313
O O10 0.331148 0.882998 0.865819
O O11 0.298941 0.701060 0.000000
#
# Coordination Sequence:
#
# PCOD9549999 Si02
#       5
#     8   8   8   8   8
#     4  10  21  39  70 106 134 194 268 305 379 464
#     4  10  21  44  69 102 144 188 250 320 380 451
#     4  11  23  41  67 101 150 191 241 305 381 456
#     4  10  19  41  72  96 140 191 245 324 380 438
#     4   9  18  40  67  99 140 190 251 317 372 448
#
# _framework density 25.901185999999999
#
# number of rings (size 3 to 8) (size 9 to 14) (size 15 to 20)
#    0.000    2.000    6.000    0.600    0.000    6.800 
#   10.800    2.000    4.400    0.000    0.000    0.000 
#    0.000    0.000    0.000    0.000    0.000    0.000 
#
# Total GULP energy -222906.908785 kJ/mol
# GULP energy per Si atom -5572.672720 kJ/mol
# Density = 2.584223 g / cm^3
# Si number density = 25.901186 Si / 1000 Ang^3
#
#
#
# Elastic Constant Matrix: (Units=GPa)
#
#
# Indices 1 2 3 4 5 6 
#
# 1 87.8264 44.2402 24.4528 0.0000 0.0000 0.0000
# 2 44.2402 87.8267 24.4525 0.0000 0.0000 0.0000
# 3 24.4528 24.4525 115.8187 0.0000 0.0000 0.0000
# 4 0.0000 0.0000 0.0000 31.1261 0.0000 0.0000
# 5 0.0000 0.0000 0.0000 0.0000 31.1264 0.0000
# 6 0.0000 0.0000 0.0000 0.0000 0.0000 25.0396
#
#
#
# Elastic Compliance Matrix: (Units=1/GPa)
#
#
# Indices 1 2 3 4 5 6 
#
# 1 0.015579 -0.007364 -0.001734 0.000000 0.000000 0.000000
# 2 -0.007364 0.015579 -0.001734 0.000000 0.000000 0.000000
# 3 -0.001734 -0.001734 0.009366 0.000000 0.000000 0.000000
# 4 0.000000 0.000000 0.000000 0.032127 0.000000 0.000000
# 5 0.000000 0.000000 0.000000 0.000000 0.032127 0.000000
# 6 0.000000 0.000000 0.000000 0.000000 0.000000 0.039937
#
#
# Mechanical properties :
#
#
# Convention : Reuss Voigt Hill
#
# Bulk Modulus (GPa) = 53.02848 53.08473 53.05660
# Shear Modulus (GPa) = 28.95755 30.68017 29.81886
#
# Velocity S-wave (km/s) = 3.34728 3.44540 3.39670
# Velocity P-wave (km/s) = 5.95457 6.03053 5.99267
#
# Compressibility (1/GPa) = 0.01885779
#
# Stress axis : x y z
#
# Youngs Moduli (GPa) = 64.19071 64.19099 106.76369
#
# Poissons Ratio (x) = 0.47273 0.18516
# Poissons Ratio (y) = 0.47273 0.18515
# Poissons Ratio (z) = 0.11132 0.11132
#
# Static dielectric constant tensor:
#      x y z
#    x 2.112530 0.000000 0.000000 
#    y 0.000000 2.112530 0.000000 
#    z 0.000000 0.000000 2.171980 
# 
# From -- ./inp_files/3399.got.cif
#   From: 2010.05.17/outbox.cif.g08.bks.cpg/sg94_2_cif.got.tgz:3399.got - 2010.06.03 19:43:16.
