data_PCOD9549029
_publ_section_title
;
Structure prediction by ZEFSAII (Michael W. Deem and Ramdas Pophale) SiO2 
 PCOD9549029
Probable space group: P 41 21 2
;
_chemical_formula_sum "Si O2"
_cell_formula_units_Z 48
_cell_length_a 12.308317
_cell_length_b 12.308317
_cell_length_c 17.876368
_cell_angle_alpha 90.000000
_cell_angle_beta 90.000000
_cell_angle_gamma 90.000000
_cell_volume 2708.174424
_symmetry_space_group_name_H-M "P 41 21 2"
_symmetry_group_IT_number 92
_symmetry_cell_setting 'tetragonal'
loop_
_space_group_symop_operation_xyz
x,y,z
1/2-y,1/2+x,1/4+z
-x,-y,1/2+z
1/2+y,1/2-x,3/4+z
1/2+x,1/2-y,3/4-z
1/2-x,1/2+y,1/4-z
y,x,-z
-y,-x,1/2-z
loop_
_atom_site_type_symbol
_atom_site_label
_atom_site_fract_x
_atom_site_fract_y
_atom_site_fract_z
Si Si1 0.046992 0.438050 0.961842
Si Si2 0.209661 0.588575 0.465581
Si Si3 0.814906 0.175687 0.032755
Si Si4 0.718810 0.432918 0.799787
Si Si5 0.037184 0.653027 0.054859
Si Si6 0.221488 0.366862 0.553346
O O1 0.115995 0.425958 0.886862
O O2 0.917907 0.429334 0.945335
O O3 0.072123 0.342038 0.019429
O O4 0.067985 0.555232 0.998353
O O5 0.219062 0.702134 0.509026
O O6 0.277031 0.589476 0.388557
O O7 0.238447 0.486961 0.518619
O O8 0.768857 0.144566 0.113816
O O9 0.944974 0.176192 0.036269
O O10 0.762153 0.093656 0.973344
O O11 0.648421 0.351580 0.750000
O O12 0.906741 0.657584 0.054398
O O13 0.282784 0.282784 0.500000
#
# Coordination Sequence:
#
# PCOD9549029 Si02
#       6
#     8   8   8   8   8   8
#     4  10  20  37  65  88 113 152 205 251 297 348
#     4  10  22  39  62  86 118 163 204 243 303 366
#     4  11  24  39  60  92 120 158 203 245 306 363
#     4  11  22  40  61  83 123 165 196 243 301 368
#     4  11  21  38  62  93 115 148 200 258 296 351
#     4  11  23  38  62  86 121 157 195 249 305 358
#
# _framework density 17.724115000000001
#
# number of rings (size 3 to 8) (size 9 to 14) (size 15 to 20)
#    0.000    1.333    5.000    1.000    2.333    0.667 
#    0.000    0.000    0.000    0.000    0.000    0.000 
#    0.000    0.000    0.000    0.000    0.000    0.000 
#
# Total GULP energy -268064.644207 kJ/mol
# GULP energy per Si atom -5584.680088 kJ/mol
# Density = 1.768377 g / cm^3
# Si number density = 17.724115 Si / 1000 Ang^3
#
#
#
# Elastic Constant Matrix: (Units=GPa)
#
#
# Indices 1 2 3 4 5 6 
#
# 1 44.7732 35.4604 22.2427 0.0000 0.0000 0.0000
# 2 35.4604 44.7798 22.2471 0.0000 0.0000 0.0000
# 3 22.2427 22.2471 105.1129 0.0000 0.0000 0.0000
# 4 0.0000 0.0000 0.0000 32.1552 0.0000 0.0000
# 5 0.0000 0.0000 0.0000 0.0000 32.1551 0.0000
# 6 0.0000 0.0000 0.0000 0.0000 0.0000 27.9825
#
#
#
# Elastic Compliance Matrix: (Units=1/GPa)
#
#
# Indices 1 2 3 4 5 6 
#
# 1 0.060734 -0.046611 -0.002987 0.000000 0.000000 0.000000
# 2 -0.046611 0.060727 -0.002990 0.000000 0.000000 0.000000
# 3 -0.002987 -0.002990 0.010778 0.000000 0.000000 0.000000
# 4 0.000000 0.000000 0.000000 0.031099 0.000000 0.000000
# 5 0.000000 0.000000 0.000000 0.000000 0.031099 0.000000
# 6 0.000000 0.000000 0.000000 0.000000 0.000000 0.035737
#
#
# Mechanical properties :
#
#
# Convention : Reuss Voigt Hill
#
# Bulk Modulus (GPa) = 36.94732 39.39625 38.17179
# Shear Modulus (GPa) = 14.51919 26.10625 20.31272
#
# Velocity S-wave (km/s) = 2.86523 3.84203 3.38901
# Velocity P-wave (km/s) = 5.64244 6.47745 6.07431
#
# Compressibility (1/GPa) = 0.02706556
#
# Stress axis : x y z
#
# Youngs Moduli (GPa) = 16.46511 16.46706 92.77858
#
# Poissons Ratio (x) = 0.76754 0.27710
# Poissons Ratio (y) = 0.76745 0.27738
# Poissons Ratio (z) = 0.04918 0.04923
#
# Static dielectric constant tensor:
#      x y z
#    x 1.584960 0.000000 0.000000 
#    y 0.000000 1.584960 0.000000 
#    z 0.000000 0.000000 1.613310 
# 
# From -- ./inp_files/3108.got.cif
#   From: 2010.05.17/outbox.cif.g08.bks.cpg/sg92_2_cif.got.tgz:3108.got - 2010.06.03 19:35:17.
