data_PCOD9549543
_publ_section_title
;
Structure prediction by ZEFSAII (Michael W. Deem and Ramdas Pophale) SiO2 
 PCOD9549543
Probable space group: P 41 21 2
;
_chemical_formula_sum "Si O2"
_cell_formula_units_Z 24
_cell_length_a 8.054336
_cell_length_b 8.054336
_cell_length_c 13.598274
_cell_angle_alpha 90.000000
_cell_angle_beta 90.000000
_cell_angle_gamma 90.000000
_cell_volume 882.151697
_symmetry_space_group_name_H-M "P 41 21 2"
_symmetry_group_IT_number 92
_symmetry_cell_setting 'tetragonal'
loop_
_space_group_symop_operation_xyz
x,y,z
1/2-y,1/2+x,1/4+z
-x,-y,1/2+z
1/2+y,1/2-x,3/4+z
1/2+x,1/2-y,3/4-z
1/2-x,1/2+y,1/4-z
y,x,-z
-y,-x,1/2-z
loop_
_atom_site_type_symbol
_atom_site_label
_atom_site_fract_x
_atom_site_fract_y
_atom_site_fract_z
Si Si1 0.919797 0.187958 0.105956
Si Si2 0.051850 0.192687 0.678319
Si Si3 0.268493 0.894387 0.109940
O O1 0.724788 0.232003 0.107226
O O2 0.051461 0.311568 0.157561
O O3 0.929681 0.002977 0.149158
O O4 0.974729 0.218012 0.993070
O O5 0.883835 0.238056 0.620953
O O6 0.995914 0.245561 0.788477
#
# Coordination Sequence:
#
# PCOD9549543 Si02
#       3
#     8   8   8
#     4  12  29  55  89 127 172 229 285 362 441 512
#     4  11  29  49  88 130 162 224 295 346 427 527
#     4  11  27  54  83 123 178 225 280 353 437 514
#
# _framework density 27.206202000000001
#
# number of rings (size 3 to 8) (size 9 to 14) (size 15 to 20)
#    0.000    0.667    0.000    5.000   23.333    0.000 
#   18.000    0.000    0.000    0.000    0.000    0.000 
#    0.000    0.000    0.000    0.000    0.000    0.000 
#
# Total GULP energy -133973.579782 kJ/mol
# GULP energy per Si atom -5582.232491 kJ/mol
# Density = 2.714428 g / cm^3
# Si number density = 27.206202 Si / 1000 Ang^3
#
#
#
# Elastic Constant Matrix: (Units=GPa)
#
#
# Indices 1 2 3 4 5 6 
#
# 1 158.5136 82.1151 36.8485 0.0000 0.0000 0.0000
# 2 82.1151 158.5136 36.8485 0.0000 0.0000 0.0000
# 3 36.8485 36.8485 102.9945 0.0000 0.0000 0.0000
# 4 0.0000 0.0000 0.0000 47.4786 0.0000 0.0000
# 5 0.0000 0.0000 0.0000 0.0000 47.4786 0.0000
# 6 0.0000 0.0000 0.0000 0.0000 0.0000 73.3347
#
#
#
# Elastic Compliance Matrix: (Units=1/GPa)
#
#
# Indices 1 2 3 4 5 6 
#
# 1 0.008878 -0.004211 -0.001670 0.000000 0.000000 0.000000
# 2 -0.004211 0.008878 -0.001670 0.000000 0.000000 0.000000
# 3 -0.001670 -0.001670 0.010904 0.000000 0.000000 0.000000
# 4 0.000000 0.000000 0.000000 0.021062 0.000000 0.000000
# 5 0.000000 0.000000 0.000000 0.000000 0.021062 0.000000
# 6 0.000000 0.000000 0.000000 0.000000 0.000000 0.013636
#
#
# Mechanical properties :
#
#
# Convention : Reuss Voigt Hill
#
# Bulk Modulus (GPa) = 73.75019 81.29398 77.52209
# Shear Modulus (GPa) = 48.05759 51.27235 49.66497
#
# Velocity S-wave (km/s) = 4.20744 4.34589 4.27722
# Velocity P-wave (km/s) = 7.12531 7.42481 7.27661
#
# Compressibility (1/GPa) = 0.01355929
#
# Stress axis : x y z
#
# Youngs Moduli (GPa) = 112.63520 112.63520 91.70900
#
# Poissons Ratio (x) = 0.47431 0.15313
# Poissons Ratio (y) = 0.47431 0.15313
# Poissons Ratio (z) = 0.18808 0.18808
#
# Static dielectric constant tensor:
#      x y z
#    x 2.235600 0.000000 0.000000 
#    y 0.000000 2.235600 0.000000 
#    z 0.000000 0.000000 2.145850 
# 
# From -- ./inp_files/2460.got.cif
#   From: 2010.05.17/outbox.cif.g08.bks.cpg/sg92_2_cif.got.tgz:2460.got - 2010.06.03 19:35:17.
