data_PCOD9549093
_publ_section_title
;
Structure prediction by ZEFSAII (Michael W. Deem and Ramdas Pophale) SiO2 
 PCOD9549093
Probable space group: P 41 21 2
;
_chemical_formula_sum "Si O2"
_cell_formula_units_Z 48
_cell_length_a 7.996411
_cell_length_b 7.996411
_cell_length_c 32.287211
_cell_angle_alpha 90.000000
_cell_angle_beta 90.000000
_cell_angle_gamma 90.000000
_cell_volume 2064.527859
_symmetry_space_group_name_H-M "P 41 21 2"
_symmetry_group_IT_number 92
_symmetry_cell_setting 'tetragonal'
loop_
_space_group_symop_operation_xyz
x,y,z
1/2-y,1/2+x,1/4+z
-x,-y,1/2+z
1/2+y,1/2-x,3/4+z
1/2+x,1/2-y,3/4-z
1/2-x,1/2+y,1/4-z
y,x,-z
-y,-x,1/2-z
loop_
_atom_site_type_symbol
_atom_site_label
_atom_site_fract_x
_atom_site_fract_y
_atom_site_fract_z
Si Si1 0.619784 0.711968 0.831540
Si Si2 0.680574 0.675136 0.450252
Si Si3 0.807382 0.825788 0.693146
Si Si4 0.492400 0.613194 0.297285
Si Si5 0.074160 0.188181 0.286508
Si Si6 0.760012 0.655748 0.918034
O O1 0.529414 0.535016 0.829403
O O2 0.776555 0.690385 0.800246
O O3 0.707326 0.743617 0.875301
O O4 0.457365 0.826733 0.821236
O O5 0.686389 0.686389 0.500000
O O6 0.510639 0.764992 0.435210
O O7 0.858749 0.746748 0.438455
O O8 0.641132 0.481767 0.441327
O O9 0.676248 0.680363 0.699071
O O10 0.904599 0.834311 0.737597
O O11 0.957264 0.773919 0.663090
O O12 0.449088 0.550913 0.250000
O O13 0.884879 0.223429 0.300490
#
# Coordination Sequence:
#
# PCOD9549093 Si02
#       6
#     8   8   8   8   8   8
#     4  12  24  41  63  94 135 171 220 275 331 399
#     4   8  18  36  61  87 119 161 201 260 323 377
#     4  10  21  43  66  95 125 168 225 267 334 397
#     4  11  22  39  62  97 128 160 212 275 326 389
#     4  10  20  43  69  91 127 168 220 273 325 399
#     4  11  24  43  65  92 131 182 218 271 337 397
#
# _framework density 23.249865
#
# number of rings (size 3 to 8) (size 9 to 14) (size 15 to 20)
#    0.000    1.667    3.333    2.500    0.000    2.667 
#    9.000    0.000    0.000    0.000    0.000    0.000 
#    0.000    0.000    0.000    0.000    0.000    0.000 
#
# Total GULP energy -267491.662602 kJ/mol
# GULP energy per Si atom -5572.742971 kJ/mol
# Density = 2.319695 g / cm^3
# Si number density = 23.249865 Si / 1000 Ang^3
#
#
#
# Elastic Constant Matrix: (Units=GPa)
#
#
# Indices 1 2 3 4 5 6 
#
# 1 52.1971 3.5490 -10.6419 0.0000 0.0000 0.0000
# 2 3.5490 52.1973 -10.6419 0.0000 0.0000 0.0000
# 3 -10.6419 -10.6419 35.6846 0.0000 0.0000 0.0000
# 4 0.0000 0.0000 0.0000 15.8766 0.0000 0.0000
# 5 0.0000 0.0000 0.0000 0.0000 15.8766 0.0000
# 6 0.0000 0.0000 0.0000 0.0000 0.0000 40.3425
#
#
#
# Elastic Compliance Matrix: (Units=1/GPa)
#
#
# Indices 1 2 3 4 5 6 
#
# 1 0.020400 -0.000156 0.006037 0.000000 0.000000 0.000000
# 2 -0.000156 0.020400 0.006037 0.000000 0.000000 0.000000
# 3 0.006037 0.006037 0.031624 0.000000 0.000000 0.000000
# 4 0.000000 0.000000 0.000000 0.062986 0.000000 0.000000
# 5 0.000000 0.000000 0.000000 0.000000 0.062986 0.000000
# 6 0.000000 0.000000 0.000000 0.000000 0.000000 0.024788
#
#
# Mechanical properties :
#
#
# Convention : Reuss Voigt Hill
#
# Bulk Modulus (GPa) = 10.38868 11.62327 11.00597
# Shear Modulus (GPa) = 21.60450 24.94004 23.27227
#
# Velocity S-wave (km/s) = 3.05164 3.27876 3.16723
# Velocity P-wave (km/s) = 4.11031 4.39816 4.25667
#
# Compressibility (1/GPa) = 0.09625865
#
# Stress axis : x y z
#
# Youngs Moduli (GPa) = 49.02062 49.02077 31.62157
#
# Poissons Ratio (x) = 0.00766 -0.19090
# Poissons Ratio (y) = 0.00766 -0.19090
# Poissons Ratio (z) = -0.29594 -0.29594
#
# Static dielectric constant tensor:
#      x y z
#    x 1.969610 0.000000 0.000000 
#    y 0.000000 1.969610 0.000000 
#    z 0.000000 0.000000 1.904330 
# 
# From -- ./inp_files/4486.got.cif
#   From: 2010.05.17/outbox.cif.g08.bks.cpg/sg92_3_cif.got.tgz:4486.got - 2010.06.03 19:35:17.
