data_PCOD9549790
_publ_section_title
;
Structure prediction by ZEFSAII (Michael W. Deem and Ramdas Pophale) SiO2 
 PCOD9549790
Probable space group: P 42 2 2
;
_chemical_formula_sum "Si O2"
_cell_formula_units_Z 42
_cell_length_a 14.001711
_cell_length_b 14.001711
_cell_length_c 9.410746
_cell_angle_alpha 90.000000
_cell_angle_beta 90.000000
_cell_angle_gamma 90.000000
_cell_volume 1844.957094
_symmetry_space_group_name_H-M "P 42 2 2"
_symmetry_group_IT_number 93
_symmetry_cell_setting 'tetragonal'
loop_
_space_group_symop_operation_xyz
x,y,z
-y,x,1/2+z
-x,-y,z
y,-x,1/2+z
x,-y,-z
-x,y,-z
y,x,1/2-z
-y,-x,1/2-z
loop_
_atom_site_type_symbol
_atom_site_label
_atom_site_fract_x
_atom_site_fract_y
_atom_site_fract_z
Si Si1 0.669883 0.330118 0.750000
Si Si2 0.965720 0.687897 0.335532
Si Si3 0.679375 0.167109 0.264876
Si Si4 0.327124 0.459574 0.848065
Si Si5 0.398705 0.205167 0.044911
Si Si6 0.889507 0.110494 0.750000
Si Si7 0.000000 0.000000 0.500000
O O1 0.694062 0.440929 0.770392
O O2 0.727663 0.316026 0.608000
O O3 0.890572 0.600915 0.358300
O O4 0.909635 0.778658 0.275380
O O5 0.000000 0.708551 0.500000
O O6 0.053062 0.676484 0.224674
O O7 0.784132 0.215869 0.250000
O O8 0.609342 0.234632 0.358020
O O9 0.637318 0.177087 0.108432
O O10 0.402584 0.402584 0.750000
O O11 0.362971 0.500000 0.000000
O O12 0.500000 0.249201 0.000000
O O13 0.933411 0.059751 0.609078
#
# Coordination Sequence:
#
# PCOD9549790 Si02
#       7
#     4   8   8   8   8   4   2
#     4  12  22  38  65  95 135 179 226 294 344 429
#     4  10  23  40  69  98 134 182 240 296 364 434
#     4  10  22  41  65  97 136 181 229 294 360 433
#     4  11  24  41  66 100 143 185 237 297 366 437
#     4  11  23  43  66 101 136 183 237 297 359 440
#     4  11  21  42  61 109 134 191 237 314 366 448
#     4  10  24  34  68  94 154 172 236 302 380 430
#
# _framework density 22.764759000000002
#
# number of rings (size 3 to 8) (size 9 to 14) (size 15 to 20)
#    0.000    1.333    2.857    3.143    2.667    4.190 
#    0.000    1.905    0.000    1.143    0.000    0.000 
#    0.000    0.000    0.000    0.000    0.000    0.000 
#
# Total GULP energy -233885.387293 kJ/mol
# GULP energy per Si atom -5568.699697 kJ/mol
# Density = 2.271295 g / cm^3
# Si number density = 22.764759 Si / 1000 Ang^3
#
#
#
# Elastic Constant Matrix: (Units=GPa)
#
#
# Indices 1 2 3 4 5 6 
#
# 1 105.0538 12.8162 28.8007 0.0000 0.0000 0.0000
# 2 12.8162 105.0577 28.7945 0.0000 0.0000 0.0000
# 3 28.8007 28.7945 78.1511 0.0000 0.0000 0.0000
# 4 0.0000 0.0000 0.0000 16.8669 0.0000 0.0000
# 5 0.0000 0.0000 0.0000 0.0000 16.8668 0.0000
# 6 0.0000 0.0000 0.0000 0.0000 0.0000 28.5687
#
#
#
# Elastic Compliance Matrix: (Units=1/GPa)
#
#
# Indices 1 2 3 4 5 6 
#
# 1 0.010595 -0.000247 -0.003813 0.000000 0.000000 0.000000
# 2 -0.000247 0.010594 -0.003812 0.000000 0.000000 0.000000
# 3 -0.003813 -0.003812 0.015606 0.000000 0.000000 0.000000
# 4 0.000000 0.000000 0.000000 0.059288 0.000000 0.000000
# 5 0.000000 0.000000 0.000000 0.000000 0.059288 0.000000
# 6 0.000000 0.000000 0.000000 0.000000 0.000000 0.035003
#
#
# Mechanical properties :
#
#
# Convention : Reuss Voigt Hill
#
# Bulk Modulus (GPa) = 47.50941 47.67618 47.59280
# Shear Modulus (GPa) = 23.45943 26.98389 25.22166
#
# Velocity S-wave (km/s) = 3.21365 3.44661 3.33216
# Velocity P-wave (km/s) = 5.88940 6.06854 5.97964
#
# Compressibility (1/GPa) = 0.02104846
#
# Stress axis : x y z
#
# Youngs Moduli (GPa) = 94.38856 94.39693 64.07986
#
# Poissons Ratio (x) = 0.02335 0.24435
# Poissons Ratio (y) = 0.02334 0.24427
# Poissons Ratio (z) = 0.35993 0.35984
#
# Static dielectric constant tensor:
#      x y z
#    x 2.063540 0.000000 0.000000 
#    y 0.000000 2.063550 0.000000 
#    z 0.000000 0.000000 2.458880 
# 
# From -- ./inp_files/1930.got.cif
#   From: 2010.05.17/outbox.cif.g08.bks.cpg/sg93_1_cif.got.tgz:1930.got - 2010.06.03 19:38:44.
