data_PCOD9549290
_publ_section_title
;
Structure prediction by ZEFSAII (Michael W. Deem and Ramdas Pophale) SiO2 
 PCOD9549290
Probable space group: P 41 21 2
;
_chemical_formula_sum "Si O2"
_cell_formula_units_Z 32
_cell_length_a 7.130260
_cell_length_b 7.130260
_cell_length_c 23.555309
_cell_angle_alpha 90.000000
_cell_angle_beta 90.000000
_cell_angle_gamma 90.000000
_cell_volume 1197.566223
_symmetry_space_group_name_H-M "P 41 21 2"
_symmetry_group_IT_number 92
_symmetry_cell_setting 'tetragonal'
loop_
_space_group_symop_operation_xyz
x,y,z
1/2-y,1/2+x,1/4+z
-x,-y,1/2+z
1/2+y,1/2-x,3/4+z
1/2+x,1/2-y,3/4-z
1/2-x,1/2+y,1/4-z
y,x,-z
-y,-x,1/2-z
loop_
_atom_site_type_symbol
_atom_site_label
_atom_site_fract_x
_atom_site_fract_y
_atom_site_fract_z
Si Si1 0.571880 0.675385 0.179306
Si Si2 0.674216 0.644561 0.334736
Si Si3 0.196808 0.269637 0.436353
Si Si4 0.941668 0.292990 0.793434
O O1 0.745329 0.531518 0.192347
O O2 0.594260 0.731575 0.112824
O O3 0.507061 0.862616 0.212152
O O4 0.399668 0.530221 0.190081
O O5 0.835263 0.733034 0.296820
O O6 0.748438 0.432038 0.341265
O O7 0.633197 0.736510 0.394336
O O8 0.278140 0.278140 0.500000
O O9 0.847106 0.152895 0.750000
#
# Coordination Sequence:
#
# PCOD9549290 Si02
#       4
#     8   8   8   8
#     4  10  23  43  67 105 146 178 250 304 355 458
#     4  10  24  45  66 106 143 178 254 299 359 455
#     4  10  22  44  69 102 142 194 234 303 378 433
#     4  12  24  46  71 101 145 197 236 312 379 436
#
# _framework density 26.720856999999999
#
# number of rings (size 3 to 8) (size 9 to 14) (size 15 to 20)
#    1.500    0.000    2.500    2.250    0.000    5.000 
#    0.000    0.000    0.000    0.000    0.000    0.000 
#    0.000    0.000    0.000    0.000    0.000    0.000 
#
# Total GULP energy -178398.628971 kJ/mol
# GULP energy per Si atom -5574.957155 kJ/mol
# Density = 2.666004 g / cm^3
# Si number density = 26.720857 Si / 1000 Ang^3
#
#
#
# Elastic Constant Matrix: (Units=GPa)
#
#
# Indices 1 2 3 4 5 6 
#
# 1 112.1324 6.7211 33.6613 0.0000 0.0000 0.0000
# 2 6.7211 112.1325 33.6617 0.0000 0.0000 0.0000
# 3 33.6613 33.6617 140.0452 0.0000 0.0000 0.0000
# 4 0.0000 0.0000 0.0000 43.6925 0.0000 0.0000
# 5 0.0000 0.0000 0.0000 0.0000 43.6926 0.0000
# 6 0.0000 0.0000 0.0000 0.0000 0.0000 17.8563
#
#
#
# Elastic Compliance Matrix: (Units=1/GPa)
#
#
# Indices 1 2 3 4 5 6 
#
# 1 0.009613 0.000127 -0.002341 0.000000 0.000000 0.000000
# 2 0.000127 0.009613 -0.002341 0.000000 0.000000 0.000000
# 3 -0.002341 -0.002341 0.008266 0.000000 0.000000 0.000000
# 4 0.000000 0.000000 0.000000 0.022887 0.000000 0.000000
# 5 0.000000 0.000000 0.000000 0.000000 0.022887 0.000000
# 6 0.000000 0.000000 0.000000 0.000000 0.000000 0.056003
#
#
# Mechanical properties :
#
#
# Convention : Reuss Voigt Hill
#
# Bulk Modulus (GPa) = 54.40328 56.93315 55.66822
# Shear Modulus (GPa) = 34.60024 40.39936 37.49980
#
# Velocity S-wave (km/s) = 3.60234 3.89254 3.75025
# Velocity P-wave (km/s) = 6.14057 6.44635 6.29531
#
# Compressibility (1/GPa) = 0.01838124
#
# Stress axis : x y z
#
# Youngs Moduli (GPa) = 104.02349 104.02342 120.97805
#
# Poissons Ratio (x) = -0.01317 0.28322
# Poissons Ratio (y) = -0.01317 0.28322
# Poissons Ratio (z) = 0.24353 0.24353
#
# Static dielectric constant tensor:
#      x y z
#    x 2.168170 0.000000 0.000000 
#    y 0.000000 2.168170 0.000000 
#    z 0.000000 0.000000 2.043070 
# 
# From -- ./inp_files/4053.got.cif
#   From: 2010.05.17/outbox.cif.g08.bks.cpg/sg92_3_cif.got.tgz:4053.got - 2010.06.03 19:35:17.
