data_PCOD9549688
_publ_section_title
;
Structure prediction by ZEFSAII (Michael W. Deem and Ramdas Pophale) SiO2 
 PCOD9549688
Probable space group: P 42 2 2
;
_chemical_formula_sum "Si O2"
_cell_formula_units_Z 40
_cell_length_a 9.297960
_cell_length_b 9.297960
_cell_length_c 26.400853
_cell_angle_alpha 90.000000
_cell_angle_beta 90.000000
_cell_angle_gamma 90.000000
_cell_volume 2282.408132
_symmetry_space_group_name_H-M "P 42 2 2"
_symmetry_group_IT_number 93
_symmetry_cell_setting 'tetragonal'
loop_
_space_group_symop_operation_xyz
x,y,z
-y,x,1/2+z
-x,-y,z
y,-x,1/2+z
x,-y,-z
-x,y,-z
y,x,1/2-z
-y,-x,1/2-z
loop_
_atom_site_type_symbol
_atom_site_label
_atom_site_fract_x
_atom_site_fract_y
_atom_site_fract_z
Si Si1 0.175084 0.334535 1.000000
Si Si2 0.826997 0.168686 0.898348
Si Si3 0.672409 0.669305 0.807999
Si Si4 0.831314 0.173003 0.398348
Si Si5 0.672409 0.669305 0.192001
O O1 0.219859 0.252258 0.050877
O O2 0.222929 0.500000 0.000000
O O3 0.219859 0.252258 0.949123
O O4 0.000000 0.334268 0.000000
O O5 0.753046 0.237487 0.849513
O O6 1.000000 0.183471 0.894062
O O7 0.793957 1.000000 0.902806
O O8 0.709284 0.709284 0.750000
O O9 0.753046 0.762513 0.849513
O O10 0.706600 0.500000 0.814931
O O11 0.500000 0.684414 0.813117
O O12 0.709284 0.709284 0.250000
#
# Coordination Sequence:
#
# PCOD9549688 Si02
#       5
#     8   8   8   8   8
#     4   9  17  31  52  75 100 135 176 212 250 301
#     4  10  20  33  51  77 107 135 166 209 258 305
#     4   9  19  36  55  74  99 133 172 212 254 302
#     4  10  20  33  51  77 107 135 166 209 258 305
#     4   9  19  36  55  74  99 133 172 212 254 302
#
# _framework density 17.525348999999999
#
# number of rings (size 3 to 8) (size 9 to 14) (size 15 to 20)
#    0.000    2.600    0.000    3.000    0.000    7.200 
#    0.000    7.000    0.000    6.000    0.000    0.000 
#    0.000    0.000    0.000    0.000    0.000    0.000 
#
# Total GULP energy -223169.215242 kJ/mol
# GULP energy per Si atom -5579.230381 kJ/mol
# Density = 1.748546 g / cm^3
# Si number density = 17.525349 Si / 1000 Ang^3
#
#
#
# Elastic Constant Matrix: (Units=GPa)
#
#
# Indices 1 2 3 4 5 6 
#
# 1 77.2414 55.5982 92.0950 0.0000 0.0000 0.0000
# 2 55.5982 77.2414 92.0950 0.0000 0.0000 0.0000
# 3 92.0950 92.0950 194.4187 0.0000 0.0000 0.0000
# 4 0.0000 0.0000 0.0000 37.6401 0.0000 0.0000
# 5 0.0000 0.0000 0.0000 0.0000 37.6401 0.0000
# 6 0.0000 0.0000 0.0000 0.0000 0.0000 27.9626
#
#
#
# Elastic Compliance Matrix: (Units=1/GPa)
#
#
# Indices 1 2 3 4 5 6 
#
# 1 0.034069 -0.012135 -0.010390 0.000000 0.000000 0.000000
# 2 -0.012135 0.034069 -0.010390 0.000000 0.000000 0.000000
# 3 -0.010390 -0.010390 0.014987 0.000000 0.000000 0.000000
# 4 0.000000 0.000000 0.000000 0.026567 0.000000 0.000000
# 5 0.000000 0.000000 0.000000 0.000000 0.026567 0.000000
# 6 0.000000 0.000000 0.000000 0.000000 0.000000 0.035762
#
#
# Mechanical properties :
#
#
# Convention : Reuss Voigt Hill
#
# Bulk Modulus (GPa) = 57.81927 92.05307 74.93617
# Shear Modulus (GPa) = 20.52392 27.92277 24.22334
#
# Velocity S-wave (km/s) = 3.42585 3.99592 3.72181
# Velocity P-wave (km/s) = 6.97940 8.59823 7.83076
#
# Compressibility (1/GPa) = 0.01729527
#
# Stress axis : x y z
#
# Youngs Moduli (GPa) = 29.35198 29.35198 66.72352
#
# Poissons Ratio (x) = 0.35617 0.69328
# Poissons Ratio (y) = 0.35617 0.69328
# Poissons Ratio (z) = 0.30498 0.30498
#
# Static dielectric constant tensor:
#      x y z
#    x 1.582190 0.000000 0.000000 
#    y 0.000000 1.582190 0.000000 
#    z 0.000000 0.000000 1.571910 
# 
# From -- ./inp_files/6674.got.cif
#   From: 2010.05.17/outbox.cif.g08.bks.cpg/sg93_4_cif.got.tgz:6674.got - 2010.06.03 19:38:44.
