data_PCOD9549887
_publ_section_title
;
Structure prediction by ZEFSAII (Michael W. Deem and Ramdas Pophale) SiO2 
 PCOD9549887
Probable space group: P 42 2 2
;
_chemical_formula_sum "Si O2"
_cell_formula_units_Z 40
_cell_length_a 9.077639
_cell_length_b 9.077639
_cell_length_c 24.859840
_cell_angle_alpha 90.000000
_cell_angle_beta 90.000000
_cell_angle_gamma 90.000000
_cell_volume 2048.538567
_symmetry_space_group_name_H-M "P 42 2 2"
_symmetry_group_IT_number 93
_symmetry_cell_setting 'tetragonal'
loop_
_space_group_symop_operation_xyz
x,y,z
-y,x,1/2+z
-x,-y,z
y,-x,1/2+z
x,-y,-z
-x,y,-z
y,x,1/2-z
-y,-x,1/2-z
loop_
_atom_site_type_symbol
_atom_site_label
_atom_site_fract_x
_atom_site_fract_y
_atom_site_fract_z
Si Si1 0.174784 0.011788 0.435603
Si Si2 0.648024 0.308158 0.591157
Si Si3 0.500000 0.500000 0.750000
Si Si4 0.500000 0.500000 0.000000
Si Si5 0.497037 0.782858 0.179030
Si Si6 0.500000 0.000000 0.732319
Si Si7 0.201732 0.339689 0.855001
O O1 0.259554 0.161766 0.420312
O O2 0.185521 0.000000 0.500000
O O3 0.265647 0.888009 0.403404
O O4 0.000000 0.000000 0.421698
O O5 0.597921 0.396068 0.538252
O O6 0.756665 0.410335 0.625862
O O7 0.494527 0.272204 0.623255
O O8 0.364662 0.501974 0.711928
O O9 0.568440 0.892357 0.222588
O O10 0.323548 0.780914 0.163547
O O11 0.391449 0.093717 0.693858
#
# Coordination Sequence:
#
# PCOD9549887 Si02
#       7
#     8   8   2   2   8   4   8
#     4  11  27  47  68  96 141 181 222 282 352 425
#     4  12  23  43  72 105 131 174 231 295 343 412
#     4  12  18  40  64  86 140 172 218 288 324 392
#     4  12  22  40  78 112 128 168 240 306 358 404
#     4  12  24  40  65 102 138 172 231 286 334 408
#     4  12  24  40  67  97 140 186 220 272 350 396
#     4  12  22  46  68 100 135 182 232 276 343 415
#
# _framework density 19.526112999999999
#
# number of rings (size 3 to 8) (size 9 to 14) (size 15 to 20)
#    0.000    0.200    8.000    1.200    2.800    0.800 
#    0.000    0.000    0.000    0.000    0.000    0.000 
#    0.000    0.000    0.000    0.000    0.000    0.000 
#
# Total GULP energy -222924.299395 kJ/mol
# GULP energy per Si atom -5573.107485 kJ/mol
# Density = 1.948167 g / cm^3
# Si number density = 19.526113 Si / 1000 Ang^3
#
#
#
# Elastic Constant Matrix: (Units=GPa)
#
#
# Indices 1 2 3 4 5 6 
#
# 1 84.7425 11.8618 38.1941 0.0000 0.0000 0.0000
# 2 11.8618 84.7425 38.1941 0.0000 0.0000 0.0000
# 3 38.1941 38.1941 122.5149 0.0000 0.0000 0.0000
# 4 0.0000 0.0000 0.0000 34.4964 0.0000 0.0000
# 5 0.0000 0.0000 0.0000 0.0000 34.4964 0.0000
# 6 0.0000 0.0000 0.0000 0.0000 0.0000 16.1493
#
#
#
# Elastic Compliance Matrix: (Units=1/GPa)
#
#
# Indices 1 2 3 4 5 6 
#
# 1 0.013730 0.000009 -0.004283 0.000000 0.000000 0.000000
# 2 0.000009 0.013730 -0.004283 0.000000 0.000000 0.000000
# 3 -0.004283 -0.004283 0.010833 0.000000 0.000000 0.000000
# 4 0.000000 0.000000 0.000000 0.028989 0.000000 0.000000
# 5 0.000000 0.000000 0.000000 0.000000 0.028989 0.000000
# 6 0.000000 0.000000 0.000000 0.000000 0.000000 0.061922
#
#
# Mechanical properties :
#
#
# Convention : Reuss Voigt Hill
#
# Bulk Modulus (GPa) = 47.22013 52.05552 49.63783
# Shear Modulus (GPa) = 27.41762 30.61175 29.01468
#
# Velocity S-wave (km/s) = 3.75127 3.96376 3.85897
# Velocity P-wave (km/s) = 6.55730 6.90404 6.73291
#
# Compressibility (1/GPa) = 0.02117741
#
# Stress axis : x y z
#
# Youngs Moduli (GPa) = 72.83548 72.83548 92.31359
#
# Poissons Ratio (x) = -0.00062 0.39537
# Poissons Ratio (y) = -0.00062 0.39537
# Poissons Ratio (z) = 0.31194 0.31194
#
# Static dielectric constant tensor:
#      x y z
#    x 1.660700 0.000000 0.000000 
#    y 0.000000 1.660700 0.000000 
#    z 0.000000 0.000000 1.690950 
# 
# From -- ./inp_files/7359.got.cif
#   From: 2010.05.17/outbox.cif.g08.bks.cpg/sg93_4_cif.got.tgz:7359.got - 2010.06.03 19:38:44.
