data_PCOD9549907
_publ_section_title
;
Structure prediction by ZEFSAII (Michael W. Deem and Ramdas Pophale) SiO2 
 PCOD9549907
Probable space group: P 42 2 2
;
_chemical_formula_sum "Si O2"
_cell_formula_units_Z 36
_cell_length_a 9.000000
_cell_length_b 9.000000
_cell_length_c 21.000000
_cell_angle_alpha 90.000000
_cell_angle_beta 90.000000
_cell_angle_gamma 90.000000
_cell_volume 1701.000000
_symmetry_space_group_name_H-M "P 42 2 2"
_symmetry_group_IT_number 93
_symmetry_cell_setting 'tetragonal'
loop_
_space_group_symop_operation_xyz
x,y,z
-y,x,1/2+z
-x,-y,z
y,-x,1/2+z
x,-y,-z
-x,y,-z
y,x,1/2-z
-y,-x,1/2-z
loop_
_atom_site_type_symbol
_atom_site_label
_atom_site_fract_x
_atom_site_fract_y
_atom_site_fract_z
Si Si1 0.000000 0.500000 0.000000
Si Si2 0.679115 0.520342 0.424215
Si Si3 0.571734 0.227142 0.211775
Si Si4 0.000000 0.000000 0.500000
Si Si5 0.713705 0.061931 0.731951
Si Si6 0.256139 0.860331 0.587190
O O1 0.900485 0.394991 0.957023
O O2 0.500000 0.500000 0.421154
O O3 0.719834 0.500000 0.500000
O O4 0.745735 0.424815 0.364730
O O5 0.734785 0.684084 0.405005
O O6 0.629479 0.370522 0.250000
O O7 0.412899 0.173230 0.239764
O O8 0.677345 0.091944 0.233857
O O9 0.109476 0.908946 0.547664
O O10 0.871043 0.128958 0.750000
O O11 0.715797 0.059908 0.655047
#
# Coordination Sequence:
#
# PCOD9549907 Si02
#       6
#     2   8   8   2   8   8
#     4  10  20  38  70  94 128 186 230 292 336 438
#     4  11  24  43  73 106 143 185 237 306 369 427
#     4  11  25  43  70 104 135 183 242 291 354 427
#     4  10  28  46  72 102 140 198 226 292 368 434
#     4  11  24  44  66  96 137 182 228 289 352 414
#     4  11  23  45  68  99 143 181 242 287 360 435
#
# _framework density 21.164021000000002
#
# number of rings (size 3 to 8) (size 9 to 14) (size 15 to 20)
#    0.000    1.111    2.222    4.000    0.000    7.556 
#    0.000    0.000    0.000    0.000    0.000    0.000 
#    0.000    0.000    0.000    0.000    0.000    0.000 
#
# Total GULP energy -201067.571925 kJ/mol
# GULP energy per Si atom -5585.210331 kJ/mol
# Density = 2.111585 g / cm^3
# Si number density = 21.164021 Si / 1000 Ang^3
#
#
#
# Elastic Constant Matrix: (Units=GPa)
#
#
# Indices 1 2 3 4 5 6 
#
# 1 87.5903 59.5399 50.3690 0.0000 0.0000 0.0000
# 2 59.5399 87.5894 50.3682 0.0000 0.0000 0.0000
# 3 50.3690 50.3682 226.7885 0.0000 0.0000 0.0000
# 4 0.0000 0.0000 0.0000 48.9675 0.0000 0.0000
# 5 0.0000 0.0000 0.0000 0.0000 48.9134 0.0000
# 6 0.0000 0.0000 0.0000 0.0000 0.0000 29.0942
#
#
#
# Elastic Compliance Matrix: (Units=1/GPa)
#
#
# Indices 1 2 3 4 5 6 
#
# 1 0.021833 -0.013818 -0.001780 0.000000 0.000000 0.000000
# 2 -0.013818 0.021833 -0.001780 0.000000 0.000000 0.000000
# 3 -0.001780 -0.001780 0.005200 0.000000 0.000000 0.000000
# 4 0.000000 0.000000 0.000000 0.020422 0.000000 0.000000
# 5 0.000000 0.000000 0.000000 0.000000 0.020444 0.000000
# 6 0.000000 0.000000 0.000000 0.000000 0.000000 0.034371
#
#
# Mechanical properties :
#
#
# Convention : Reuss Voigt Hill
#
# Bulk Modulus (GPa) = 70.86937 80.28028 75.57482
# Shear Modulus (GPa) = 30.56921 41.50775 36.03848
#
# Velocity S-wave (km/s) = 3.80464 4.43339 4.13100
# Velocity P-wave (km/s) = 7.27041 8.01383 7.65115
#
# Compressibility (1/GPa) = 0.01411047
#
# Stress axis : x y z
#
# Youngs Moduli (GPa) = 45.80196 45.80162 192.30198
#
# Poissons Ratio (x) = 0.63287 0.34235
# Poissons Ratio (y) = 0.63287 0.34233
# Poissons Ratio (z) = 0.08154 0.08154
#
# Static dielectric constant tensor:
#      x y z
#    x 0.726590 0.000000 0.000000 
#    y 0.000000 0.728340 0.000000 
#    z 0.000000 0.000000 2.253580 
# 
# From -- ./inp_files/6123.got.cif
#   From: 2010.05.17/outbox.ucp.g08.bks.cvg/sg93_4_cif.got.tgz:6123.got - 2010.06.11 10:36:56.
