data_PCOD9549714
_publ_section_title
;
Structure prediction by ZEFSAII (Michael W. Deem and Ramdas Pophale) SiO2 
 PCOD9549714
Probable space group: P 42 2 2
;
_chemical_formula_sum "Si O2"
_cell_formula_units_Z 40
_cell_length_a 9.695775
_cell_length_b 9.695775
_cell_length_c 21.215781
_cell_angle_alpha 90.000000
_cell_angle_beta 90.000000
_cell_angle_gamma 90.000000
_cell_volume 1994.454262
_symmetry_space_group_name_H-M "P 42 2 2"
_symmetry_group_IT_number 93
_symmetry_cell_setting 'tetragonal'
loop_
_space_group_symop_operation_xyz
x,y,z
-y,x,1/2+z
-x,-y,z
y,-x,1/2+z
x,-y,-z
-x,y,-z
y,x,1/2-z
-y,-x,1/2-z
loop_
_atom_site_type_symbol
_atom_site_label
_atom_site_fract_x
_atom_site_fract_y
_atom_site_fract_z
Si Si1 0.643963 0.004932 0.158905
Si Si2 0.920120 0.143923 0.558948
Si Si3 0.803443 0.259171 0.187966
Si Si4 0.349184 0.049098 0.399646
Si Si5 0.422348 0.793543 0.726293
O O1 0.766052 0.935684 0.120976
O O2 0.616115 0.916118 0.223416
O O3 0.500000 0.000000 0.123157
O O4 0.680196 0.167268 0.161513
O O5 0.758209 0.112078 0.550974
O O6 0.000000 0.210048 0.500000
O O7 0.000000 0.000000 0.568183
O O8 0.835157 0.164844 0.250000
O O9 0.775550 0.413016 0.214921
O O10 0.920163 0.276827 0.135898
O O11 0.372879 0.156027 0.342246
O O12 0.500000 0.000000 0.421943
O O13 0.341575 0.658426 0.750000
#
# Coordination Sequence:
#
# PCOD9549714 Si02
#       5
#     8   8   8   8   8
#     4  12  22  38  61  88 128 170 203 252 314 373
#     4  11  24  41  62  89 120 161 223 269 304 359
#     4  11  20  34  55  91 129 154 195 250 304 383
#     4  10  20  37  63  91 125 159 204 260 323 377
#     4  11  21  34  59  92 124 164 200 244 319 382
#
# _framework density 20.055613000000001
#
# number of rings (size 3 to 8) (size 9 to 14) (size 15 to 20)
#    0.000    1.000    8.000    0.600    0.000    0.800 
#    0.000    5.000    0.000    0.000    0.000    0.000 
#    0.000    0.000    0.000    0.000    0.000    0.000 
#
# Total GULP energy -222755.967297 kJ/mol
# GULP energy per Si atom -5568.899182 kJ/mol
# Density = 2.000997 g / cm^3
# Si number density = 20.055613 Si / 1000 Ang^3
#
#
#
# Elastic Constant Matrix: (Units=GPa)
#
#
# Indices 1 2 3 4 5 6 
#
# 1 108.3572 30.4022 24.0896 0.0000 0.0000 0.0000
# 2 30.4022 108.3588 24.0895 0.0000 0.0000 0.0000
# 3 24.0896 24.0895 59.8952 0.0000 0.0000 0.0000
# 4 0.0000 0.0000 0.0000 19.7264 0.0000 0.0000
# 5 0.0000 0.0000 0.0000 0.0000 19.7272 0.0000
# 6 0.0000 0.0000 0.0000 0.0000 0.0000 39.0653
#
#
#
# Elastic Compliance Matrix: (Units=1/GPa)
#
#
# Indices 1 2 3 4 5 6 
#
# 1 0.010602 -0.002226 -0.003369 0.000000 0.000000 0.000000
# 2 -0.002226 0.010602 -0.003369 0.000000 0.000000 0.000000
# 3 -0.003369 -0.003369 0.019406 0.000000 0.000000 0.000000
# 4 0.000000 0.000000 0.000000 0.050693 0.000000 0.000000
# 5 0.000000 0.000000 0.000000 0.000000 0.050692 0.000000
# 6 0.000000 0.000000 0.000000 0.000000 0.000000 0.025598
#
#
# Mechanical properties :
#
#
# Convention : Reuss Voigt Hill
#
# Bulk Modulus (GPa) = 44.08627 48.19710 46.14169
# Shear Modulus (GPa) = 25.89584 28.90577 27.40080
#
# Velocity S-wave (km/s) = 3.59723 3.80054 3.70028
# Velocity P-wave (km/s) = 6.26763 6.58352 6.42751
#
# Compressibility (1/GPa) = 0.02268280
#
# Stress axis : x y z
#
# Youngs Moduli (GPa) = 94.32013 94.32172 51.53102
#
# Poissons Ratio (x) = 0.20993 0.17361
# Poissons Ratio (y) = 0.20993 0.17360
# Poissons Ratio (z) = 0.31776 0.31776
#
# Static dielectric constant tensor:
#      x y z
#    x 1.738230 0.000000 0.000000 
#    y 0.000000 1.738230 0.000000 
#    z 0.000000 0.000000 1.794720 
# 
# From -- ./inp_files/6671.got.cif
#   From: 2010.05.17/outbox.cif.g08.bks.cpg/sg93_4_cif.got.tgz:6671.got - 2010.06.03 19:38:44.
