data_PCOD9549717
_publ_section_title
;
Structure prediction by ZEFSAII (Michael W. Deem and Ramdas Pophale) SiO2 
 PCOD9549717
Probable space group: P 42 2 2
;
_chemical_formula_sum "Si O2"
_cell_formula_units_Z 40
_cell_length_a 14.616465
_cell_length_b 14.616465
_cell_length_c 8.971750
_cell_angle_alpha 90.000000
_cell_angle_beta 90.000000
_cell_angle_gamma 90.000000
_cell_volume 1916.734082
_symmetry_space_group_name_H-M "P 42 2 2"
_symmetry_group_IT_number 93
_symmetry_cell_setting 'tetragonal'
loop_
_space_group_symop_operation_xyz
x,y,z
-y,x,1/2+z
-x,-y,z
y,-x,1/2+z
x,-y,-z
-x,y,-z
y,x,1/2-z
-y,-x,1/2-z
loop_
_atom_site_type_symbol
_atom_site_label
_atom_site_fract_x
_atom_site_fract_y
_atom_site_fract_z
Si Si1 0.839087 0.076110 0.113434
Si Si2 0.187548 0.440419 0.847890
Si Si3 0.247537 0.736886 0.998464
Si Si4 0.806483 0.615610 0.285448
Si Si5 0.366490 0.985991 0.172173
O O1 0.905204 0.094797 0.250000
O O2 0.741804 0.035738 0.169416
O O3 0.814726 0.175770 0.041806
O O4 0.874819 0.000000 0.000000
O O5 0.234996 0.515677 0.742292
O O6 0.093850 0.411857 0.767077
O O7 0.173782 0.500000 0.000000
O O8 0.239551 0.345185 0.882451
O O9 0.343802 0.780911 0.947106
O O10 0.219612 0.684114 0.847929
O O11 0.915119 0.612128 0.264230
O O12 0.394578 0.000000 0.000000
#
# Coordination Sequence:
#
# PCOD9549717 Si02
#       5
#     8   8   8   8   8
#     4  11  21  40  65  93 128 182 231 282 340 401
#     4  10  22  37  59  92 131 178 219 282 347 416
#     4  10  20  38  58  84 133 175 220 274 340 413
#     4  10  21  36  58  89 127 175 222 274 346 410
#     4  11  21  37  61  93 131 168 212 280 347 404
#
# _framework density 20.868829000000002
#
# number of rings (size 3 to 8) (size 9 to 14) (size 15 to 20)
#    0.000    1.600    6.000    0.600    0.000    7.200 
#    0.000    0.000    0.000    7.200    0.000    0.000 
#    0.000  177.600    0.000    0.000    0.000    0.200 
#
# Total GULP energy -223010.355536 kJ/mol
# GULP energy per Si atom -5575.258888 kJ/mol
# Density = 2.082133 g / cm^3
# Si number density = 20.868829 Si / 1000 Ang^3
#
#
#
# Elastic Constant Matrix: (Units=GPa)
#
#
# Indices 1 2 3 4 5 6 
#
# 1 80.0849 59.0416 59.2218 0.0000 0.0000 0.0000
# 2 59.0416 80.0864 59.2221 0.0000 0.0000 0.0000
# 3 59.2218 59.2221 80.5932 0.0000 0.0000 0.0000
# 4 0.0000 0.0000 0.0000 37.8862 0.0000 0.0000
# 5 0.0000 0.0000 0.0000 0.0000 37.8860 0.0000
# 6 0.0000 0.0000 0.0000 0.0000 0.0000 -6.6067
#
#
#
# Elastic Compliance Matrix: (Units=1/GPa)
#
#
# Indices 1 2 3 4 5 6 
#
# 1 0.033359 -0.014161 -0.014107 0.000000 0.000000 0.000000
# 2 -0.014161 0.033358 -0.014106 0.000000 0.000000 0.000000
# 3 -0.014107 -0.014106 0.033139 0.000000 0.000000 0.000000
# 4 0.000000 0.000000 0.000000 0.026395 0.000000 0.000000
# 5 0.000000 0.000000 0.000000 0.000000 0.026395 0.000000
# 6 0.000000 0.000000 0.000000 0.000000 0.000000 -0.151361
#
#
# Mechanical properties :
#
#
# Convention : Reuss Voigt Hill
#
# Bulk Modulus (GPa) = 66.19119 66.19285 66.19202
# Shear Modulus (GPa) = 54.90391 18.05169 36.47780
#
# Velocity S-wave (km/s) = 5.13480 2.94429 4.18539
# Velocity P-wave (km/s) = 8.18178 6.58376 7.42588
#
# Compressibility (1/GPa) = 0.01510775
#
# Stress axis : x y z
#
# Youngs Moduli (GPa) = 29.97718 29.97815 30.17549
#
# Poissons Ratio (x) = 0.42453 0.42568
# Poissons Ratio (y) = 0.42451 0.42566
# Poissons Ratio (z) = 0.42288 0.42287
#
# Static dielectric constant tensor:
#      x y z
#    x 1.809920 0.000000 0.000000 
#    y 0.000000 1.809920 0.000000 
#    z 0.000000 0.000000 1.806480 
# 
# From -- ./inp_files/1813.got.cif
#   From: 2010.05.17/outbox.cif.g08.bks.cpg/sg93_1_cif.got.tgz:1813.got - 2010.06.03 19:38:44.
