data_PCOD9549523
_publ_section_title
;
Structure prediction by ZEFSAII (Michael W. Deem and Ramdas Pophale) SiO2 
 PCOD9549523
Probable space group: P 41 21 2
;
_chemical_formula_sum "Si O2"
_cell_formula_units_Z 40
_cell_length_a 8.896833
_cell_length_b 8.896833
_cell_length_c 21.284757
_cell_angle_alpha 90.000000
_cell_angle_beta 90.000000
_cell_angle_gamma 90.000000
_cell_volume 1684.765938
_symmetry_space_group_name_H-M "P 41 21 2"
_symmetry_group_IT_number 92
_symmetry_cell_setting 'tetragonal'
loop_
_space_group_symop_operation_xyz
x,y,z
1/2-y,1/2+x,1/4+z
-x,-y,1/2+z
1/2+y,1/2-x,3/4+z
1/2+x,1/2-y,3/4-z
1/2-x,1/2+y,1/4-z
y,x,-z
-y,-x,1/2-z
loop_
_atom_site_type_symbol
_atom_site_label
_atom_site_fract_x
_atom_site_fract_y
_atom_site_fract_z
Si Si1 0.356510 0.643491 0.250000
Si Si2 0.654616 0.122472 0.951365
Si Si3 0.331973 0.304124 0.680427
Si Si4 0.695336 0.641996 0.589499
Si Si5 0.020588 0.979413 0.750000
Si Si6 0.199221 0.467167 0.564067
O O1 0.518389 0.654480 0.218357
O O2 0.296010 0.756236 0.304080
O O3 0.797493 0.173678 0.909482
O O4 0.496446 0.191286 0.925729
O O5 0.635927 0.943668 0.947878
O O6 0.691719 0.168228 0.022593
O O7 0.302210 0.394577 0.617361
O O8 0.349570 0.130401 0.663475
O O9 0.545996 0.572525 0.558334
O O10 0.003341 0.800077 0.752219
#
# Coordination Sequence:
#
# PCOD9549523 Si02
#       6
#     4   8   8   8   4   8
#     4  11  26  49  78 110 154 201 262 309 386 454
#     4  12  27  48  79 111 154 196 259 316 386 459
#     4  12  29  49  74 115 153 201 254 316 380 464
#     4  11  25  49  80 111 147 201 252 321 379 458
#     4  11  26  49  72 106 152 197 242 305 380 456
#     4  12  29  49  75 112 151 200 250 315 383 448
#
# _framework density 23.742170999999999
#
# number of rings (size 3 to 8) (size 9 to 14) (size 15 to 20)
#    0.000    0.400    4.000    2.400   14.000    1.600 
#    0.000    0.000    0.000    0.000    0.000    0.000 
#    0.000    0.000    0.000    0.000    0.000    0.000 
#
# Total GULP energy -223620.237244 kJ/mol
# GULP energy per Si atom -5590.505931 kJ/mol
# Density = 2.368813 g / cm^3
# Si number density = 23.742171 Si / 1000 Ang^3
#
#
#
# Elastic Constant Matrix: (Units=GPa)
#
#
# Indices 1 2 3 4 5 6 
#
# 1 106.2472 32.3430 18.9325 0.0000 0.0000 0.0000
# 2 32.3430 106.2472 18.9324 0.0000 0.0000 0.0000
# 3 18.9325 18.9324 75.6946 0.0000 0.0000 0.0000
# 4 0.0000 0.0000 0.0000 32.7241 0.0000 0.0000
# 5 0.0000 0.0000 0.0000 0.0000 32.7238 0.0000
# 6 0.0000 0.0000 0.0000 0.0000 0.0000 34.0999
#
#
#
# Elastic Compliance Matrix: (Units=1/GPa)
#
#
# Indices 1 2 3 4 5 6 
#
# 1 0.010638 -0.002893 -0.001937 0.000000 0.000000 0.000000
# 2 -0.002893 0.010638 -0.001937 0.000000 0.000000 0.000000
# 3 -0.001937 -0.001937 0.014180 0.000000 0.000000 0.000000
# 4 0.000000 0.000000 0.000000 0.030559 0.000000 0.000000
# 5 0.000000 0.000000 0.000000 0.000000 0.030559 0.000000
# 6 0.000000 0.000000 0.000000 0.000000 0.000000 0.029326
#
#
# Mechanical properties :
#
#
# Convention : Reuss Voigt Hill
#
# Bulk Modulus (GPa) = 45.61808 47.62277 46.62042
# Shear Modulus (GPa) = 34.07379 34.44163 34.25771
#
# Velocity S-wave (km/s) = 3.79246 3.81287 3.80268
# Velocity P-wave (km/s) = 6.19941 6.28378 6.24174
#
# Compressibility (1/GPa) = 0.02192113
#
# Stress axis : x y z
#
# Youngs Moduli (GPa) = 94.00355 94.00358 70.52193
#
# Poissons Ratio (x) = 0.27197 0.13661
# Poissons Ratio (y) = 0.27197 0.13661
# Poissons Ratio (z) = 0.18209 0.18209
#
# Static dielectric constant tensor:
#      x y z
#    x 1.923990 0.000000 0.000000 
#    y 0.000000 1.923990 0.000000 
#    z 0.000000 0.000000 1.921160 
# 
# From -- ./inp_files/3825.got.cif
#   From: 2010.05.17/outbox.cif.g08.bks.cpg/sg92_2_cif.got.tgz:3825.got - 2010.06.03 19:35:17.
