data_PCOD9549720
_publ_section_title
;
Structure prediction by ZEFSAII (Michael W. Deem and Ramdas Pophale) SiO2 
 PCOD9549720
Probable space group: P 42 2 2
;
_chemical_formula_sum "Si O2"
_cell_formula_units_Z 40
_cell_length_a 14.467986
_cell_length_b 14.467986
_cell_length_c 9.500434
_cell_angle_alpha 90.000000
_cell_angle_beta 90.000000
_cell_angle_gamma 90.000000
_cell_volume 1988.655726
_symmetry_space_group_name_H-M "P 42 2 2"
_symmetry_group_IT_number 93
_symmetry_cell_setting 'tetragonal'
loop_
_space_group_symop_operation_xyz
x,y,z
-y,x,1/2+z
-x,-y,z
y,-x,1/2+z
x,-y,-z
-x,y,-z
y,x,1/2-z
-y,-x,1/2-z
loop_
_atom_site_type_symbol
_atom_site_label
_atom_site_fract_x
_atom_site_fract_y
_atom_site_fract_z
Si Si1 0.911855 0.382072 0.776843
Si Si2 0.270596 0.791083 0.528211
Si Si3 0.184528 0.395242 0.500846
Si Si4 0.405093 0.121577 0.685654
Si Si5 0.094640 0.097985 0.578217
O O1 0.900226 0.389063 0.609095
O O2 0.879784 0.483946 0.827887
O O3 0.016094 0.370790 0.828522
O O4 0.847945 0.300565 0.834259
O O5 0.256141 0.682627 0.545693
O O6 0.353662 0.813482 0.422301
O O7 0.177498 0.833417 0.461114
O O8 0.220938 0.500000 0.500000
O O9 0.152198 0.378199 0.658326
O O10 0.087215 0.087215 0.750000
O O11 0.000000 0.130114 0.500000
O O12 0.114259 0.000000 0.500000
#
# Coordination Sequence:
#
# PCOD9549720 Si02
#       5
#     8   8   8   8   8
#     4  10  21  37  61  88 115 145 187 240 294 346
#     4  12  23  36  58  86 115 149 189 236 291 349
#     4  10  22  38  56  81 115 155 195 235 284 341
#     4  10  20  38  61  87 115 146 186 240 295 344
#     4  11  24  40  57  81 117 160 200 238 282 345
#
# _framework density 20.114089
#
# number of rings (size 3 to 8) (size 9 to 14) (size 15 to 20)
#    0.000    1.400    0.000    6.600    0.000   10.400 
#    0.000    0.000    0.000    2.400    0.000   11.200 
#    0.000    0.000    0.000    0.000    0.000    0.000 
#
# Total GULP energy -223523.151004 kJ/mol
# GULP energy per Si atom -5588.078775 kJ/mol
# Density = 2.006831 g / cm^3
# Si number density = 20.114089 Si / 1000 Ang^3
#
#
#
# Elastic Constant Matrix: (Units=GPa)
#
#
# Indices 1 2 3 4 5 6 
#
# 1 63.2081 42.4651 6.8607 0.0000 0.0000 0.0000
# 2 42.4651 63.2081 6.8607 0.0000 0.0000 0.0000
# 3 6.8607 6.8607 97.7018 0.0000 0.0000 0.0000
# 4 0.0000 0.0000 0.0000 -81.5992 0.0000 0.0000
# 5 0.0000 0.0000 0.0000 0.0000 -81.5992 0.0000
# 6 0.0000 0.0000 0.0000 0.0000 0.0000 22.0750
#
#
#
# Elastic Compliance Matrix: (Units=1/GPa)
#
#
# Indices 1 2 3 4 5 6 
#
# 1 0.028880 -0.019329 -0.000671 0.000000 0.000000 0.000000
# 2 -0.019329 0.028880 -0.000671 0.000000 0.000000 0.000000
# 3 -0.000671 -0.000671 0.010329 0.000000 0.000000 0.000000
# 4 0.000000 0.000000 0.000000 -0.012255 0.000000 0.000000
# 5 0.000000 0.000000 0.000000 0.000000 -0.012255 0.000000
# 6 0.000000 0.000000 0.000000 0.000000 0.000000 0.045300
#
#
# Mechanical properties :
#
#
# Convention : Reuss Voigt Hill
#
# Bulk Modulus (GPa) = 37.38690 37.38791 37.38741
# Shear Modulus (GPa) = 35.93609 -17.02926 9.45341
#
# Velocity S-wave (km/s) = 4.23142 -2.91285 2.17028
# Velocity P-wave (km/s) = 6.51928 2.70468 4.99081
#
# Compressibility (1/GPa) = 0.02674733
#
# Stress axis : x y z
#
# Youngs Moduli (GPa) = 34.62644 34.62644 96.81095
#
# Poissons Ratio (x) = 0.66931 0.06492
# Poissons Ratio (y) = 0.66931 0.06492
# Poissons Ratio (z) = 0.02322 0.02322
#
# Static dielectric constant tensor:
#      x y z
#    x 2.125000 0.000000 0.000000 
#    y 0.000000 2.125000 0.000000 
#    z 0.000000 0.000000 1.761930 
# 
# From -- ./inp_files/1809.got.cif
#   From: 2010.05.17/outbox.cif.g08.bks.cpg/sg93_1_cif.got.tgz:1809.got - 2010.06.03 19:38:44.
