data_PCOD9549225
_publ_section_title
;
Structure prediction by ZEFSAII (Michael W. Deem and Ramdas Pophale) SiO2 
 PCOD9549225
Probable space group: P 41 21 2
;
_chemical_formula_sum "Si O2"
_cell_formula_units_Z 48
_cell_length_a 20.386258
_cell_length_b 20.386258
_cell_length_c 5.252323
_cell_angle_alpha 90.000000
_cell_angle_beta 90.000000
_cell_angle_gamma 90.000000
_cell_volume 2182.862893
_symmetry_space_group_name_H-M "P 41 21 2"
_symmetry_group_IT_number 92
_symmetry_cell_setting 'tetragonal'
loop_
_space_group_symop_operation_xyz
x,y,z
1/2-y,1/2+x,1/4+z
-x,-y,1/2+z
1/2+y,1/2-x,3/4+z
1/2+x,1/2-y,3/4-z
1/2-x,1/2+y,1/4-z
y,x,-z
-y,-x,1/2-z
loop_
_atom_site_type_symbol
_atom_site_label
_atom_site_fract_x
_atom_site_fract_y
_atom_site_fract_z
Si Si1 0.933909 0.263377 0.467857
Si Si2 0.674759 0.911628 0.282913
Si Si3 0.789029 0.697204 0.381599
Si Si4 0.405247 0.001892 0.458890
Si Si5 0.997345 0.231019 0.961037
Si Si6 0.113942 0.206660 0.625426
O O1 0.858116 0.277791 0.422122
O O2 0.969582 0.333278 0.516970
O O3 0.943020 0.230356 0.742534
O O4 0.965117 0.222244 0.237161
O O5 0.669072 0.841312 0.415350
O O6 0.608095 0.939010 0.164382
O O7 0.699668 0.964222 0.492525
O O8 0.735793 0.907014 0.077256
O O9 0.721993 0.721993 0.500000
O O10 0.824536 0.760406 0.265661
O O11 0.441821 0.044902 0.248231
O O12 0.057384 0.192053 0.831268
O O13 0.141073 0.141073 0.500000
#
# Coordination Sequence:
#
# PCOD9549225 Si02
#       6
#     8   8   8   8   8   8
#     4  11  25  41  62  80 132 171 223 281 334 402
#     4  10  22  40  58  84 125 161 223 284 338 392
#     4  11  24  37  64  93 123 171 234 293 362 406
#     4  11  25  37  56  86 118 178 233 270 314 379
#     4  10  22  41  58  88 118 175 204 266 346 394
#     4  11  20  39  65  94 126 164 226 288 350 415
#
# _framework density 21.989471999999999
#
# number of rings (size 3 to 8) (size 9 to 14) (size 15 to 20)
#    0.000    1.333    5.000    1.000   11.667    0.000 
#    0.000    0.000    0.000    0.000    0.000    0.000 
#    0.000    0.000    5.667    0.333    0.000    0.000 
#
# Total GULP energy -267521.000434 kJ/mol
# GULP energy per Si atom -5573.354176 kJ/mol
# Density = 2.193942 g / cm^3
# Si number density = 21.989472 Si / 1000 Ang^3
#
#
#
# Elastic Constant Matrix: (Units=GPa)
#
#
# Indices 1 2 3 4 5 6 
#
# 1 19.3466 11.5871 6.1171 0.0000 0.0000 0.0000
# 2 11.5871 19.3466 6.1171 0.0000 0.0000 0.0000
# 3 6.1171 6.1171 100.2337 0.0000 0.0000 0.0000
# 4 0.0000 0.0000 0.0000 20.7317 0.0000 0.0000
# 5 0.0000 0.0000 0.0000 0.0000 20.7317 0.0000
# 6 0.0000 0.0000 0.0000 0.0000 0.0000 22.5624
#
#
#
# Elastic Compliance Matrix: (Units=1/GPa)
#
#
# Indices 1 2 3 4 5 6 
#
# 1 0.081000 -0.047874 -0.002022 0.000000 0.000000 0.000000
# 2 -0.047874 0.081000 -0.002022 0.000000 0.000000 0.000000
# 3 -0.002022 -0.002022 0.010223 0.000000 0.000000 0.000000
# 4 0.000000 0.000000 0.000000 0.048235 0.000000 0.000000
# 5 0.000000 0.000000 0.000000 0.000000 0.048235 0.000000
# 6 0.000000 0.000000 0.000000 0.000000 0.000000 0.044322
#
#
# Mechanical properties :
#
#
# Convention : Reuss Voigt Hill
#
# Bulk Modulus (GPa) = 14.62198 20.72998 17.67598
# Shear Modulus (GPa) = 11.37276 20.47887 15.92581
#
# Velocity S-wave (km/s) = 2.27665 3.05504 2.69410
# Velocity P-wave (km/s) = 3.68440 4.67889 4.21111
#
# Compressibility (1/GPa) = 0.06839018
#
# Stress axis : x y z
#
# Youngs Moduli (GPa) = 12.34562 12.34562 97.81440
#
# Poissons Ratio (x) = 0.59103 0.19775
# Poissons Ratio (y) = 0.59103 0.19775
# Poissons Ratio (z) = 0.02496 0.02496
#
# Static dielectric constant tensor:
#      x y z
#    x 1.825210 0.000000 0.000000 
#    y 0.000000 1.825210 0.000000 
#    z 0.000000 0.000000 1.939710 
# 
# From -- ./inp_files/648.got.cif
#   From: 2010.05.17/outbox.cif.g08.bks.cpg/sg92_1_cif.got.tgz:648.got - 2010.06.03 19:35:17.
