data_PCOD9549028
_publ_section_title
;
Structure prediction by ZEFSAII (Michael W. Deem and Ramdas Pophale) SiO2 
 PCOD9549028
Probable space group: P 41 21 2
;
_chemical_formula_sum "Si O2"
_cell_formula_units_Z 40
_cell_length_a 12.263261
_cell_length_b 12.263261
_cell_length_c 14.205081
_cell_angle_alpha 90.000000
_cell_angle_beta 90.000000
_cell_angle_gamma 90.000000
_cell_volume 2136.267618
_symmetry_space_group_name_H-M "P 41 21 2"
_symmetry_group_IT_number 92
_symmetry_cell_setting 'tetragonal'
loop_
_space_group_symop_operation_xyz
x,y,z
1/2-y,1/2+x,1/4+z
-x,-y,1/2+z
1/2+y,1/2-x,3/4+z
1/2+x,1/2-y,3/4-z
1/2-x,1/2+y,1/4-z
y,x,-z
-y,-x,1/2-z
loop_
_atom_site_type_symbol
_atom_site_label
_atom_site_fract_x
_atom_site_fract_y
_atom_site_fract_z
Si Si1 0.150221 0.594610 0.361450
Si Si2 0.329297 0.303700 0.204023
Si Si3 0.662662 0.914102 0.611417
Si Si4 0.593195 0.472068 0.645328
Si Si5 0.093387 0.819134 0.657943
O O1 0.187152 0.705383 0.414183
O O2 0.168755 0.610093 0.249946
O O3 0.215382 0.488244 0.397180
O O4 0.020897 0.589425 0.376908
O O5 0.374013 0.187484 0.173065
O O6 0.401719 0.398341 0.156103
O O7 0.325289 0.333442 0.313927
O O8 0.787180 0.941175 0.641585
O O9 0.578509 0.421492 0.750000
O O10 0.492385 0.419592 0.592609
O O11 0.167394 0.832607 0.750000
#
# Coordination Sequence:
#
# PCOD9549028 Si02
#       5
#     8   8   8   8   8
#     4  11  20  39  64  90 124 168 214 272 327 388
#     4  10  20  37  64  93 125 167 225 272 325 389
#     4  11  20  36  66  95 124 161 224 273 322 378
#     4   9  16  33  60  89 123 157 218 267 319 386
#     4  11  22  39  61  94 131 180 212 264 342 406
#
# _framework density 18.724245
#
# number of rings (size 3 to 8) (size 9 to 14) (size 15 to 20)
#    0.000    1.600    8.000    0.600    0.000    3.200 
#    3.600    0.000    0.000    0.000    0.000    0.000 
#    0.000    0.000    0.000    0.000    0.000    0.000 
#
# Total GULP energy -223007.629564 kJ/mol
# GULP energy per Si atom -5575.190739 kJ/mol
# Density = 1.868163 g / cm^3
# Si number density = 18.724245 Si / 1000 Ang^3
#
#
#
# Elastic Constant Matrix: (Units=GPa)
#
#
# Indices 1 2 3 4 5 6 
#
# 1 89.4742 49.0610 54.1188 0.0000 0.0000 0.0000
# 2 49.0610 89.4753 54.1197 0.0000 0.0000 0.0000
# 3 54.1188 54.1197 108.4689 0.0000 0.0000 0.0000
# 4 0.0000 0.0000 0.0000 21.7565 0.0000 0.0000
# 5 0.0000 0.0000 0.0000 0.0000 21.7562 0.0000
# 6 0.0000 0.0000 0.0000 0.0000 0.0000 17.2289
#
#
#
# Elastic Compliance Matrix: (Units=1/GPa)
#
#
# Indices 1 2 3 4 5 6 
#
# 1 0.018287 -0.006457 -0.005902 0.000000 0.000000 0.000000
# 2 -0.006457 0.018287 -0.005902 0.000000 0.000000 0.000000
# 3 -0.005902 -0.005902 0.015109 0.000000 0.000000 0.000000
# 4 0.000000 0.000000 0.000000 0.045963 0.000000 0.000000
# 5 0.000000 0.000000 0.000000 0.000000 0.045964 0.000000
# 6 0.000000 0.000000 0.000000 0.000000 0.000000 0.058042
#
#
# Mechanical properties :
#
#
# Convention : Reuss Voigt Hill
#
# Bulk Modulus (GPa) = 65.96592 66.89082 66.42837
# Shear Modulus (GPa) = 20.55676 20.82292 20.68984
#
# Velocity S-wave (km/s) = 3.31700 3.33841 3.32772
# Velocity P-wave (km/s) = 7.06942 7.11770 7.09360
#
# Compressibility (1/GPa) = 0.01515934
#
# Stress axis : x y z
#
# Youngs Moduli (GPa) = 54.68361 54.68379 66.18537
#
# Poissons Ratio (x) = 0.35310 0.39065
# Poissons Ratio (y) = 0.35310 0.39066
# Poissons Ratio (z) = 0.32276 0.32277
#
# Static dielectric constant tensor:
#      x y z
#    x 1.674890 0.000000 0.000000 
#    y 0.000000 1.674890 0.000000 
#    z 0.000000 0.000000 1.672350 
# 
# From -- ./inp_files/2635.got.cif
#   From: 2010.05.17/outbox.cif.g08.bks.cpg/sg92_2_cif.got.tgz:2635.got - 2010.06.03 19:35:17.
