data_PCOD9549207
_publ_section_title
;
Structure prediction by ZEFSAII (Michael W. Deem and Ramdas Pophale) SiO2 
 PCOD9549207
Probable space group: P 41 21 2
;
_chemical_formula_sum "Si O2"
_cell_formula_units_Z 48
_cell_length_a 14.585301
_cell_length_b 14.585301
_cell_length_c 10.447224
_cell_angle_alpha 90.000000
_cell_angle_beta 90.000000
_cell_angle_gamma 90.000000
_cell_volume 2222.448464
_symmetry_space_group_name_H-M "P 41 21 2"
_symmetry_group_IT_number 92
_symmetry_cell_setting 'tetragonal'
loop_
_space_group_symop_operation_xyz
x,y,z
1/2-y,1/2+x,1/4+z
-x,-y,1/2+z
1/2+y,1/2-x,3/4+z
1/2+x,1/2-y,3/4-z
1/2-x,1/2+y,1/4-z
y,x,-z
-y,-x,1/2-z
loop_
_atom_site_type_symbol
_atom_site_label
_atom_site_fract_x
_atom_site_fract_y
_atom_site_fract_z
Si Si1 0.323230 0.903664 0.812079
Si Si2 0.759706 0.633635 0.211899
Si Si3 0.828428 0.049098 0.492314
Si Si4 0.573494 0.017188 0.936159
Si Si5 0.299909 0.666348 0.604536
Si Si6 0.555098 0.425865 0.935630
O O1 0.255530 0.888836 0.690595
O O2 0.267742 0.958681 0.918309
O O3 0.415060 0.936670 0.745254
O O4 0.349906 0.808259 0.881156
O O5 0.656473 0.647711 0.263413
O O6 0.827310 0.562344 0.281494
O O7 0.807860 0.733247 0.208570
O O8 0.836214 0.981145 0.611811
O O9 0.907545 0.007264 0.403053
O O10 0.498733 0.066100 0.031836
O O11 0.333361 0.666640 0.750000
O O12 0.361194 0.597739 0.526525
O O13 0.465484 0.465484 0.000000
#
# Coordination Sequence:
#
# PCOD9549207 Si02
#       6
#     8   8   8   8   8   8
#     4   9  19  37  63  84 111 158 205 246 301 359
#     4   9  19  40  63  85 117 160 207 249 298 364
#     4  10  22  39  57  85 121 157 197 250 300 370
#     4  10  22  36  60  94 116 154 209 259 309 364
#     4   9  20  37  60  85 112 156 200 243 296 360
#     4  11  24  34  57  91 121 153 197 250 309 356
#
# _framework density 21.597799999999999
#
# number of rings (size 3 to 8) (size 9 to 14) (size 15 to 20)
#    0.000    2.333    0.000    2.500    9.333    4.000 
#    0.000    0.000   14.667    0.000    0.000    0.000 
#    0.000    0.000    0.000    0.000    0.000    0.000 
#
# Total GULP energy -267486.883790 kJ/mol
# GULP energy per Si atom -5572.643412 kJ/mol
# Density = 2.154864 g / cm^3
# Si number density = 21.597800 Si / 1000 Ang^3
#
#
#
# Elastic Constant Matrix: (Units=GPa)
#
#
# Indices 1 2 3 4 5 6 
#
# 1 -7.2765 57.8425 12.1149 0.0000 0.0000 0.0000
# 2 57.8425 -7.2825 12.1156 0.0000 0.0000 0.0000
# 3 12.1149 12.1156 17.2017 0.0000 0.0000 0.0000
# 4 0.0000 0.0000 0.0000 15.3920 0.0000 0.0000
# 5 0.0000 0.0000 0.0000 0.0000 15.3913 0.0000
# 6 0.0000 0.0000 0.0000 0.0000 0.0000 32.8946
#
#
#
# Elastic Compliance Matrix: (Units=1/GPa)
#
#
# Indices 1 2 3 4 5 6 
#
# 1 0.007250 0.022604 -0.021027 0.000000 0.000000 0.000000
# 2 0.022604 0.007247 -0.021024 0.000000 0.000000 0.000000
# 3 -0.021027 -0.021024 0.087751 0.000000 0.000000 0.000000
# 4 0.000000 0.000000 0.000000 0.064969 0.000000 0.000000
# 5 0.000000 0.000000 0.000000 0.000000 0.064972 0.000000
# 6 0.000000 0.000000 0.000000 0.000000 0.000000 0.030400
#
#
# Mechanical properties :
#
#
# Convention : Reuss Voigt Hill
#
# Bulk Modulus (GPa) = 15.78429 18.53210 17.15819
# Shear Modulus (GPa) = 15.49906 7.44023 11.46964
#
# Velocity S-wave (km/s) = 2.68175 1.85806 2.30697
# Velocity P-wave (km/s) = 4.11257 3.63350 3.88044
#
# Compressibility (1/GPa) = 0.06335413
#
# Stress axis : x y z
#
# Youngs Moduli (GPa) = 137.92679 137.98707 11.39593
#
# Poissons Ratio (x) = -3.11912 0.23962
# Poissons Ratio (y) = -3.11776 0.23959
# Poissons Ratio (z) = 2.90019 2.90108
#
# Static dielectric constant tensor:
#      x y z
#    x 1.827380 0.000000 0.000000 
#    y 0.000000 1.827380 0.000000 
#    z 0.000000 0.000000 1.838930 
# 
# From -- ./inp_files/2190.got.cif
#   From: 2010.05.17/outbox.cif.g08.bks.cpg/sg92_2_cif.got.tgz:2190.got - 2010.06.03 19:35:17.
