data_PCOD9549844
_publ_section_title
;
Structure prediction by ZEFSAII (Michael W. Deem and Ramdas Pophale) SiO2 
 PCOD9549844
Probable space group: P 42 2 2
;
_chemical_formula_sum "Si O2"
_cell_formula_units_Z 18
_cell_length_a 5.059162
_cell_length_b 5.059162
_cell_length_c 29.132205
_cell_angle_alpha 90.000000
_cell_angle_beta 90.000000
_cell_angle_gamma 90.000000
_cell_volume 745.642287
_symmetry_space_group_name_H-M "P 42 2 2"
_symmetry_group_IT_number 93
_symmetry_cell_setting 'tetragonal'
loop_
_space_group_symop_operation_xyz
x,y,z
-y,x,1/2+z
-x,-y,z
y,-x,1/2+z
x,-y,-z
-x,y,-z
y,x,1/2-z
-y,-x,1/2-z
loop_
_atom_site_type_symbol
_atom_site_label
_atom_site_fract_x
_atom_site_fract_y
_atom_site_fract_z
Si Si1 0.500000 0.000000 0.937155
Si Si2 0.000000 0.000000 0.624192
Si Si3 0.500000 0.500000 0.000000
Si Si4 0.752223 0.315789 0.697494
O O1 0.246553 0.080594 0.907363
O O2 0.600259 0.266194 0.964636
O O3 0.772982 0.092571 0.659310
O O4 0.500000 0.500000 0.694268
O O5 0.778684 0.221316 0.750000
O O6 0.000000 0.500000 0.688208
#
# Coordination Sequence:
#
# PCOD9549844 Si02
#       4
#     4   4   2   8
#     4  11  28  48  84 104 152 186 254 310 398 451
#     4  12  27  49  78 118 144 204 252 321 357 470
#     4  10  28  56  72 116 142 196 236 324 400 476
#     4  11  28  47  73 109 160 206 250 305 368 436
#
# _framework density 24.140260999999999
#
# number of rings (size 3 to 8) (size 9 to 14) (size 15 to 20)
#    0.000    0.889    2.222    0.667   15.556   10.667 
#    0.000    0.000    0.000    0.000    0.000    0.000 
#    0.000    0.000    0.000    0.000    0.000    0.000 
#
# Total GULP energy -100387.194863 kJ/mol
# GULP energy per Si atom -5577.066381 kJ/mol
# Density = 2.408532 g / cm^3
# Si number density = 24.140261 Si / 1000 Ang^3
#
#
#
# Elastic Constant Matrix: (Units=GPa)
#
#
# Indices 1 2 3 4 5 6 
#
# 1 160.2034 33.8269 49.7206 0.0000 0.0000 0.0000
# 2 33.8269 160.2038 49.7207 0.0000 0.0000 0.0000
# 3 49.7206 49.7207 137.0742 0.0000 0.0000 0.0000
# 4 0.0000 0.0000 0.0000 210.8691 0.0000 0.0000
# 5 0.0000 0.0000 0.0000 0.0000 210.8666 0.0000
# 6 0.0000 0.0000 0.0000 0.0000 0.0000 33.8030
#
#
#
# Elastic Compliance Matrix: (Units=1/GPa)
#
#
# Indices 1 2 3 4 5 6 
#
# 1 0.007122 -0.000791 -0.002296 0.000000 0.000000 0.000000
# 2 -0.000791 0.007122 -0.002296 0.000000 0.000000 0.000000
# 3 -0.002296 -0.002296 0.008961 0.000000 0.000000 0.000000
# 4 0.000000 0.000000 0.000000 0.004742 0.000000 0.000000
# 5 0.000000 0.000000 0.000000 0.000000 0.004742 0.000000
# 6 0.000000 0.000000 0.000000 0.000000 0.000000 0.029583
#
#
# Mechanical properties :
#
#
# Convention : Reuss Voigt Hill
#
# Bulk Modulus (GPa) = 80.40321 80.44641 80.42481
# Shear Modulus (GPa) = 64.77882 112.72195 88.75038
#
# Velocity S-wave (km/s) = 5.18581 6.84076 6.06995
# Velocity P-wave (km/s) = 8.32080 9.78731 9.08370
#
# Compressibility (1/GPa) = 0.01243731
#
# Stress axis : x y z
#
# Youngs Moduli (GPa) = 140.41417 140.41457 111.59218
#
# Poissons Ratio (x) = 0.11108 0.25625
# Poissons Ratio (y) = 0.11108 0.25625
# Poissons Ratio (z) = 0.32244 0.32244
#
# Static dielectric constant tensor:
#      x y z
#    x 1.875600 0.000000 0.000000 
#    y 0.000000 1.875600 0.000000 
#    z 0.000000 0.000000 2.056210 
# 
# From -- ./inp_files/7423.got.cif
#   From: 2010.05.17/outbox.cif.g08.bks.cpg/sg93_4_cif.got.tgz:7423.got - 2010.06.03 19:38:44.
