data_PCOD9549930
_publ_section_title
;
Structure prediction by ZEFSAII (Michael W. Deem and Ramdas Pophale) SiO2 
 PCOD9549930
Probable space group: P 42 21 2
;
_chemical_formula_sum "Si O2"
_cell_formula_units_Z 56
_cell_length_a 10.949554
_cell_length_b 10.949554
_cell_length_c 20.850023
_cell_angle_alpha 90.000000
_cell_angle_beta 90.000000
_cell_angle_gamma 90.000000
_cell_volume 2499.766236
_symmetry_space_group_name_H-M "P 42 21 2"
_symmetry_group_IT_number 94
_symmetry_cell_setting 'tetragonal'
loop_
_space_group_symop_operation_xyz
x,y,z
1/2-y,1/2+x,1/2+z
-x,-y,z
1/2+y,1/2-x,1/2+z
1/2+x,1/2-y,1/2-z
1/2-x,1/2+y,1/2-z
y,x,-z
-y,-x,-z
loop_
_atom_site_type_symbol
_atom_site_label
_atom_site_fract_x
_atom_site_fract_y
_atom_site_fract_z
Si Si1 0.646018 0.843784 0.011390
Si Si2 0.044296 0.874589 0.191880
Si Si3 0.450439 0.640408 0.057032
Si Si4 0.315887 0.154580 0.147231
Si Si5 0.089322 0.331803 0.130407
Si Si6 0.310654 0.942216 0.243953
Si Si7 0.551917 0.278251 0.185567
O O1 0.551431 0.735774 0.030375
O O2 0.654960 0.914523 0.079780
O O3 0.774100 0.774100 0.000000
O O4 0.621678 0.908831 0.943153
O O5 0.177153 0.891538 0.223751
O O6 0.028798 0.747041 0.153256
O O7 0.952972 0.861607 0.252681
O O8 0.000000 0.000000 0.157572
O O9 0.500000 0.500000 0.063672
O O10 0.384646 0.669372 0.123531
O O11 0.355359 0.644642 0.000000
O O12 0.190489 0.224674 0.137232
O O13 0.415637 0.259234 0.159126
O O14 0.318549 0.072397 0.210133
O O15 0.139845 0.429763 0.182986
O O16 0.400535 0.852101 0.205981
#
# Coordination Sequence:
#
# PCOD9549930 Si02
#       7
#     8   8   8   8   8   8   8
#     4   9  18  34  57  83 118 154 193 239 298 374
#     4  11  21  36  57  84 116 147 198 249 295 348
#     4  10  18  32  56  88 115 143 188 243 300 348
#     4  10  19  38  60  81 117 159 198 239 307 375
#     4  10  21  37  58  91 115 152 201 252 302 361
#     4  11  22  37  60  84 117 156 198 251 299 361
#     4  10  22  36  54  84 119 153 187 240 310 366
#
# _framework density 22.402094000000002
#
# number of rings (size 3 to 8) (size 9 to 14) (size 15 to 20)
#    0.000    1.857    4.286    0.857    0.000    1.143 
#    0.000    2.143    0.000   12.000    0.000    0.000 
#    0.000    0.000    0.000    0.000    0.000    0.000 
#
# Total GULP energy -311767.646897 kJ/mol
# GULP energy per Si atom -5567.279409 kJ/mol
# Density = 2.235111 g / cm^3
# Si number density = 22.402094 Si / 1000 Ang^3
#
#
#
# Elastic Constant Matrix: (Units=GPa)
#
#
# Indices 1 2 3 4 5 6 
#
# 1 41.2529 -2.2617 10.7719 0.0000 0.0000 0.0000
# 2 -2.2617 41.2527 10.7719 0.0000 0.0000 0.0000
# 3 10.7719 10.7719 167.4254 0.0000 0.0000 0.0000
# 4 0.0000 0.0000 0.0000 26.6377 0.0000 0.0000
# 5 0.0000 0.0000 0.0000 0.0000 26.6409 0.0000
# 6 0.0000 0.0000 0.0000 0.0000 0.0000 22.0608
#
#
#
# Elastic Compliance Matrix: (Units=1/GPa)
#
#
# Indices 1 2 3 4 5 6 
#
# 1 0.024786 0.001806 -0.001711 0.000000 0.000000 0.000000
# 2 0.001806 0.024787 -0.001711 0.000000 0.000000 0.000000
# 3 -0.001711 -0.001711 0.006193 0.000000 0.000000 0.000000
# 4 0.000000 0.000000 0.000000 0.037541 0.000000 0.000000
# 5 0.000000 0.000000 0.000000 0.000000 0.037536 0.000000
# 6 0.000000 0.000000 0.000000 0.000000 0.000000 0.045329
#
#
# Mechanical properties :
#
#
# Convention : Reuss Voigt Hill
#
# Bulk Modulus (GPa) = 19.03536 32.05500 25.54518
# Shear Modulus (GPa) = 25.39156 30.44448 27.91802
#
# Velocity S-wave (km/s) = 3.37032 3.69046 3.53402
# Velocity P-wave (km/s) = 4.86426 5.70082 5.29907
#
# Compressibility (1/GPa) = 0.05253382
#
# Stress axis : x y z
#
# Youngs Moduli (GPa) = 40.34461 40.34438 161.47357
#
# Poissons Ratio (x) = -0.07285 0.27626
# Poissons Ratio (y) = -0.07285 0.27627
# Poissons Ratio (z) = 0.06903 0.06903
#
# Static dielectric constant tensor:
#      x y z
#    x 1.913030 0.000000 0.000000 
#    y 0.000000 1.913030 0.000000 
#    z 0.000000 0.000000 1.949500 
# 
# From -- ./inp_files/4730.got.cif
#   From: 2010.05.17/outbox.cif.g08.bks.cpg/sg94_3_cif.got.tgz:4730.got - 2010.06.03 19:43:16.
