data_PCOD9549191
_publ_section_title
;
Structure prediction by ZEFSAII (Michael W. Deem and Ramdas Pophale) SiO2 
 PCOD9549191
Probable space group: P 41 21 2
;
_chemical_formula_sum "Si O2"
_cell_formula_units_Z 32
_cell_length_a 8.953616
_cell_length_b 8.953616
_cell_length_c 18.513612
_cell_angle_alpha 90.000000
_cell_angle_beta 90.000000
_cell_angle_gamma 90.000000
_cell_volume 1484.185167
_symmetry_space_group_name_H-M "P 41 21 2"
_symmetry_group_IT_number 92
_symmetry_cell_setting 'tetragonal'
loop_
_space_group_symop_operation_xyz
x,y,z
1/2-y,1/2+x,1/4+z
-x,-y,1/2+z
1/2+y,1/2-x,3/4+z
1/2+x,1/2-y,3/4-z
1/2-x,1/2+y,1/4-z
y,x,-z
-y,-x,1/2-z
loop_
_atom_site_type_symbol
_atom_site_label
_atom_site_fract_x
_atom_site_fract_y
_atom_site_fract_z
Si Si1 0.914602 0.986372 0.077405
Si Si2 0.697357 0.813186 0.162037
Si Si3 0.272956 0.658123 0.168969
Si Si4 0.607385 0.920699 0.318253
O O1 0.813557 0.136050 0.076896
O O2 0.083297 0.047021 0.085630
O O3 0.856541 0.878829 0.140004
O O4 0.907511 0.907511 0.000000
O O5 0.634031 0.892456 0.233797
O O6 0.583679 0.851325 0.096761
O O7 0.277030 0.722971 0.250000
O O8 0.306775 0.783040 0.110486
O O9 0.126095 0.559754 0.160712
#
# Coordination Sequence:
#
# PCOD9549191 Si02
#       4
#     8   8   8   8
#     4  10  22  44  63  92 136 171 213 274 328 380
#     4  11  25  39  69  98 133 174 221 276 327 401
#     4  10  21  45  64  89 133 171 214 276 325 387
#     4  11  22  44  65  98 130 174 223 272 329 392
#
# _framework density 21.560652999999999
#
# number of rings (size 3 to 8) (size 9 to 14) (size 15 to 20)
#    0.000    1.500    7.500    0.000    3.500    7.000 
#    4.500    0.000    0.000    0.000    0.000    0.000 
#    0.000    0.000    0.000    0.000    0.000    0.000 
#
# Total GULP energy -178853.411516 kJ/mol
# GULP energy per Si atom -5589.169110 kJ/mol
# Density = 2.151158 g / cm^3
# Si number density = 21.560653 Si / 1000 Ang^3
#
#
#
# Elastic Constant Matrix: (Units=GPa)
#
#
# Indices 1 2 3 4 5 6 
#
# 1 40.4493 10.4577 22.6646 0.0000 0.0000 0.0000
# 2 10.4577 40.4490 22.6647 0.0000 0.0000 0.0000
# 3 22.6646 22.6647 51.3221 0.0000 0.0000 0.0000
# 4 0.0000 0.0000 0.0000 26.6492 0.0000 0.0000
# 5 0.0000 0.0000 0.0000 0.0000 26.6492 0.0000
# 6 0.0000 0.0000 0.0000 0.0000 0.0000 32.2275
#
#
#
# Elastic Compliance Matrix: (Units=1/GPa)
#
#
# Indices 1 2 3 4 5 6 
#
# 1 0.032858 -0.000484 -0.014297 0.000000 0.000000 0.000000
# 2 -0.000484 0.032859 -0.014297 0.000000 0.000000 0.000000
# 3 -0.014297 -0.014297 0.032112 0.000000 0.000000 0.000000
# 4 0.000000 0.000000 0.000000 0.037525 0.000000 0.000000
# 5 0.000000 0.000000 0.000000 0.000000 0.037525 0.000000
# 6 0.000000 0.000000 0.000000 0.000000 0.000000 0.031029
#
#
# Mechanical properties :
#
#
# Convention : Reuss Voigt Hill
#
# Bulk Modulus (GPa) = 25.20613 27.08828 26.14720
# Shear Modulus (GPa) = 18.16275 22.20073 20.18174
#
# Velocity S-wave (km/s) = 2.90557 3.21236 3.06280
# Velocity P-wave (km/s) = 4.79297 5.13322 4.96601
#
# Compressibility (1/GPa) = 0.03967290
#
# Stress axis : x y z
#
# Youngs Moduli (GPa) = 30.43373 30.43324 31.14074
#
# Poissons Ratio (x) = 0.01474 0.44521
# Poissons Ratio (y) = 0.01474 0.44522
# Poissons Ratio (z) = 0.43510 0.43511
#
# Static dielectric constant tensor:
#      x y z
#    x 1.779780 0.000000 0.000000 
#    y 0.000000 1.779780 0.000000 
#    z 0.000000 0.000000 1.756080 
# 
# From -- ./inp_files/3364.got.cif
#   From: 2010.05.17/outbox.cif.g08.bks.cpg/sg92_2_cif.got.tgz:3364.got - 2010.06.03 19:35:17.
