data_PCOD9549729
_publ_section_title
;
Structure prediction by ZEFSAII (Michael W. Deem and Ramdas Pophale) SiO2 
 PCOD9549729
Probable space group: P 42 2 2
;
_chemical_formula_sum "Si O2"
_cell_formula_units_Z 56
_cell_length_a 11.794753
_cell_length_b 11.794753
_cell_length_c 20.131034
_cell_angle_alpha 90.000000
_cell_angle_beta 90.000000
_cell_angle_gamma 90.000000
_cell_volume 2800.552919
_symmetry_space_group_name_H-M "P 42 2 2"
_symmetry_group_IT_number 93
_symmetry_cell_setting 'tetragonal'
loop_
_space_group_symop_operation_xyz
x,y,z
-y,x,1/2+z
-x,-y,z
y,-x,1/2+z
x,-y,-z
-x,y,-z
y,x,1/2-z
-y,-x,1/2-z
loop_
_atom_site_type_symbol
_atom_site_label
_atom_site_fract_x
_atom_site_fract_y
_atom_site_fract_z
Si Si1 0.403544 0.719556 0.701107
Si Si2 0.577779 0.184619 0.939869
Si Si3 0.553776 0.624296 0.436459
Si Si4 0.135396 0.979503 0.424098
Si Si5 0.790018 0.839116 0.141332
Si Si6 0.093364 0.801899 0.314216
Si Si7 0.129947 0.539320 0.302938
O O1 0.387338 0.612663 0.750000
O O2 0.461047 0.689214 0.631952
O O3 0.273225 0.749806 0.679984
O O4 0.475181 0.809866 0.742291
O O5 0.606813 0.314842 0.953164
O O6 0.700370 0.134003 0.918763
O O7 0.505614 0.179412 0.872434
O O8 0.500000 0.138878 0.000000
O O9 0.500000 0.500000 0.429333
O O10 0.500000 0.683857 0.500000
O O11 0.143225 0.863638 0.380825
O O12 0.175068 0.000000 0.500000
O O13 0.186486 0.084176 0.383564
O O14 0.000000 0.000000 0.425605
O O15 0.794261 0.956656 0.181061
O O16 0.125420 0.874581 0.250000
O O17 0.138060 0.674720 0.303195
O O18 0.000000 0.500000 0.302730
#
# Coordination Sequence:
#
# PCOD9549729 Si02
#       7
#     8   8   8   8   8   8   8
#     4  11  22  41  70  92 126 184 226 270 343 414
#     4  11  22  39  68  97 130 179 216 280 348 411
#     4  10  20  40  66  97 131 163 228 284 325 401
#     4   9  21  39  61  92 129 170 219 274 330 406
#     4  10  22  42  70  96 127 177 231 271 341 416
#     4  11  25  42  64 100 134 172 222 289 338 396
#     4  12  25  44  61  96 137 172 224 284 346 409
#
# _framework density 19.99605
#
# number of rings (size 3 to 8) (size 9 to 14) (size 15 to 20)
#    0.000    1.429    5.714    0.000    6.000    3.714 
#    0.000    0.000    0.000    0.000    0.000    0.000 
#    0.000    0.000    0.000    0.000    0.000    0.000 
#
# Total GULP energy -312332.030517 kJ/mol
# GULP energy per Si atom -5577.357688 kJ/mol
# Density = 1.995054 g / cm^3
# Si number density = 19.996050 Si / 1000 Ang^3
#
#
#
# Elastic Constant Matrix: (Units=GPa)
#
#
# Indices 1 2 3 4 5 6 
#
# 1 92.4298 24.0086 50.6192 0.0000 0.0000 0.0000
# 2 24.0086 92.4305 50.6196 0.0000 0.0000 0.0000
# 3 50.6192 50.6196 163.0009 0.0000 0.0000 0.0000
# 4 0.0000 0.0000 0.0000 16.5297 0.0000 0.0000
# 5 0.0000 0.0000 0.0000 0.0000 16.5291 0.0000
# 6 0.0000 0.0000 0.0000 0.0000 0.0000 19.4293
#
#
#
# Elastic Compliance Matrix: (Units=1/GPa)
#
#
# Indices 1 2 3 4 5 6 
#
# 1 0.013190 -0.001425 -0.003654 0.000000 0.000000 0.000000
# 2 -0.001425 0.013190 -0.003654 0.000000 0.000000 0.000000
# 3 -0.003654 -0.003654 0.008404 0.000000 0.000000 0.000000
# 4 0.000000 0.000000 0.000000 0.060497 0.000000 0.000000
# 5 0.000000 0.000000 0.000000 0.000000 0.060499 0.000000
# 6 0.000000 0.000000 0.000000 0.000000 0.000000 0.051469
#
#
# Mechanical properties :
#
#
# Convention : Reuss Voigt Hill
#
# Bulk Modulus (GPa) = 57.73797 66.48400 62.11098
# Shear Modulus (GPa) = 21.69319 25.33854 23.51587
#
# Velocity S-wave (km/s) = 3.29732 3.56361 3.43304
# Velocity P-wave (km/s) = 6.59043 7.08894 6.84423
#
# Compressibility (1/GPa) = 0.01731963
#
# Stress axis : x y z
#
# Youngs Moduli (GPa) = 75.81454 75.81502 118.98930
#
# Poissons Ratio (x) = 0.10805 0.43473
# Poissons Ratio (y) = 0.10805 0.43473
# Poissons Ratio (z) = 0.27699 0.27699
#
# Static dielectric constant tensor:
#      x y z
#    x 1.731010 0.000000 0.000000 
#    y 0.000000 1.731010 0.000000 
#    z 0.000000 0.000000 3.151670 
# 
# From -- ./inp_files/6265.got.cif
#   From: 2010.05.17/outbox.cif.g08.bks.cpg/sg93_4_cif.got.tgz:6265.got - 2010.06.03 19:38:44.
