data_PCOD9549477
_publ_section_title
;
Structure prediction by ZEFSAII (Michael W. Deem and Ramdas Pophale) SiO2 
 PCOD9549477
Probable space group: P 41 21 2
;
_chemical_formula_sum "Si O2"
_cell_formula_units_Z 24
_cell_length_a 10.801543
_cell_length_b 10.801543
_cell_length_c 7.364532
_cell_angle_alpha 90.000000
_cell_angle_beta 90.000000
_cell_angle_gamma 90.000000
_cell_volume 859.244481
_symmetry_space_group_name_H-M "P 41 21 2"
_symmetry_group_IT_number 92
_symmetry_cell_setting 'tetragonal'
loop_
_space_group_symop_operation_xyz
x,y,z
1/2-y,1/2+x,1/4+z
-x,-y,1/2+z
1/2+y,1/2-x,3/4+z
1/2+x,1/2-y,3/4-z
1/2-x,1/2+y,1/4-z
y,x,-z
-y,-x,1/2-z
loop_
_atom_site_type_symbol
_atom_site_label
_atom_site_fract_x
_atom_site_fract_y
_atom_site_fract_z
Si Si1 0.433459 0.155027 0.122796
Si Si2 0.043829 0.148505 0.187079
Si Si3 0.678507 0.757965 0.244701
O O1 0.560452 0.109196 0.031270
O O2 0.362310 0.175612 0.930821
O O3 0.384358 0.282396 0.214619
O O4 0.150584 0.210020 0.309627
O O5 0.110399 0.110399 0.000000
O O6 0.975494 0.024507 0.250000
O O7 0.935714 0.246753 0.139474
#
# Coordination Sequence:
#
# PCOD9549477 Si02
#       3
#     8   8   8
#     4  11  23  44  76 102 149 195 248 313 384 446
#     4  12  28  48  80 111 153 201 255 311 385 446
#     4  11  24  48  72 110 149 195 251 313 373 454
#
# _framework density 27.931514
#
# number of rings (size 3 to 8) (size 9 to 14) (size 15 to 20)
#    0.000    0.667    6.667    0.000    9.333    4.000 
#    0.000    0.000    0.000    0.000    0.000    0.000 
#    0.000    0.000    0.000    0.000    0.000    0.000 
#
# Total GULP energy -133950.730392 kJ/mol
# GULP energy per Si atom -5581.280433 kJ/mol
# Density = 2.786794 g / cm^3
# Si number density = 27.931514 Si / 1000 Ang^3
#
#
#
# Elastic Constant Matrix: (Units=GPa)
#
#
# Indices 1 2 3 4 5 6 
#
# 1 70.9371 90.4287 57.7196 0.0000 0.0000 0.0000
# 2 90.4287 70.9375 57.7192 0.0000 0.0000 0.0000
# 3 57.7196 57.7192 151.2081 0.0000 0.0000 0.0000
# 4 0.0000 0.0000 0.0000 21.8225 0.0000 0.0000
# 5 0.0000 0.0000 0.0000 0.0000 21.8212 0.0000
# 6 0.0000 0.0000 0.0000 0.0000 0.0000 51.3686
#
#
#
# Elastic Compliance Matrix: (Units=1/GPa)
#
#
# Indices 1 2 3 4 5 6 
#
# 1 -0.021390 0.029915 -0.003254 0.000000 0.000000 0.000000
# 2 0.029915 -0.021390 -0.003254 0.000000 0.000000 0.000000
# 3 -0.003254 -0.003254 0.009098 0.000000 0.000000 0.000000
# 4 0.000000 0.000000 0.000000 0.045824 0.000000 0.000000
# 5 0.000000 0.000000 0.000000 0.000000 0.045827 0.000000
# 6 0.000000 0.000000 0.000000 0.000000 0.000000 0.019467
#
#
# Mechanical properties :
#
#
# Convention : Reuss Voigt Hill
#
# Bulk Modulus (GPa) = 76.15474 78.31308 77.23391
# Shear Modulus (GPa) = 142.85528 24.81683 83.83606
#
# Velocity S-wave (km/s) = 7.15932 2.98399 5.48453
# Velocity P-wave (km/s) = 9.78086 6.32223 8.23516
#
# Compressibility (1/GPa) = 0.01313116
#
# Stress axis : x y z
#
# Youngs Moduli (GPa) = -46.75084 -46.75152 109.91648
#
# Poissons Ratio (x) = 1.39857 0.35768
# Poissons Ratio (y) = 1.39855 0.35771
# Poissons Ratio (z) = -0.15213 -0.15215
#
# Static dielectric constant tensor:
#      x y z
#    x 2.229830 0.000000 0.000000 
#    y 0.000000 2.229830 0.000000 
#    z 0.000000 0.000000 2.437380 
# 
# From -- ./inp_files/1016.got.cif
#   From: 2010.05.17/outbox.cif.g08.bks.cpg/sg92_1_cif.got.tgz:1016.got - 2010.06.03 19:35:17.
