data_PCOD9549755
_publ_section_title
;
Structure prediction by ZEFSAII (Michael W. Deem and Ramdas Pophale) SiO2 
 PCOD9549755
Probable space group: P 42 2 2
;
_chemical_formula_sum "Si O2"
_cell_formula_units_Z 52
_cell_length_a 15.865256
_cell_length_b 15.865256
_cell_length_c 9.999677
_cell_angle_alpha 90.000000
_cell_angle_beta 90.000000
_cell_angle_gamma 90.000000
_cell_volume 2516.982178
_symmetry_space_group_name_H-M "P 42 2 2"
_symmetry_group_IT_number 93
_symmetry_cell_setting 'tetragonal'
loop_
_space_group_symop_operation_xyz
x,y,z
-y,x,1/2+z
-x,-y,z
y,-x,1/2+z
x,-y,-z
-x,y,-z
y,x,1/2-z
-y,-x,1/2-z
loop_
_atom_site_type_symbol
_atom_site_label
_atom_site_fract_x
_atom_site_fract_y
_atom_site_fract_z
Si Si1 0.126899 0.787902 0.586698
Si Si2 0.402829 0.788160 0.468770
Si Si3 0.810146 0.500000 0.500000
Si Si4 0.741026 0.903777 0.509156
Si Si5 0.745943 0.047144 0.196960
Si Si6 0.560292 0.925248 0.758312
Si Si7 0.283685 0.664386 0.605238
O O1 0.177125 0.874814 0.570199
O O2 0.098006 0.764508 0.436954
O O3 0.198820 0.720308 0.622932
O O4 0.043710 0.788958 0.676689
O O5 0.500000 0.769017 0.500000
O O6 0.338915 0.851611 0.546777
O O7 0.414549 0.848498 0.340084
O O8 0.345819 0.704877 0.491544
O O9 0.874500 0.477072 0.381881
O O10 0.750498 0.424982 0.553917
O O11 0.762740 0.898986 0.668506
O O12 0.717777 0.000000 0.500000
O O13 0.646292 0.029732 0.199769
O O14 0.500000 0.000000 0.705157
O O15 0.330660 0.669341 0.750000
#
# Coordination Sequence:
#
# PCOD9549755 Si02
#       7
#     8   8   4   8   8   8   8
#     4  10  21  39  61  87 129 172 211 271 329 396
#     4  10  24  41  61  92 135 172 218 271 345 402
#     4  12  23  42  69 100 132 174 230 278 343 407
#     4  10  23  36  60  91 122 169 220 266 331 399
#     4  10  21  38  59  89 126 168 215 269 328 388
#     4  11  23  36  63  97 134 169 219 283 341 408
#     4  11  24  42  68  98 135 177 224 277 341 419
#
# _framework density 20.659661
#
# number of rings (size 3 to 8) (size 9 to 14) (size 15 to 20)
#    0.000    1.538    1.538    2.538   10.769    0.615 
#    0.000    1.923    0.000    4.615    0.000    0.000 
#    0.000    0.000    0.000    0.000    0.000    0.000 
#
# Total GULP energy -289480.693802 kJ/mol
# GULP energy per Si atom -5566.936419 kJ/mol
# Density = 2.061264 g / cm^3
# Si number density = 20.659661 Si / 1000 Ang^3
#
#
#
# Elastic Constant Matrix: (Units=GPa)
#
#
# Indices 1 2 3 4 5 6 
#
# 1 91.6460 42.6460 25.7930 0.0000 0.0000 0.0000
# 2 42.6460 91.6465 25.7933 0.0000 0.0000 0.0000
# 3 25.7930 25.7933 84.3311 0.0000 0.0000 0.0000
# 4 0.0000 0.0000 0.0000 21.5565 0.0000 0.0000
# 5 0.0000 0.0000 0.0000 0.0000 21.5566 0.0000
# 6 0.0000 0.0000 0.0000 0.0000 0.0000 12.9305
#
#
#
# Elastic Compliance Matrix: (Units=1/GPa)
#
#
# Indices 1 2 3 4 5 6 
#
# 1 0.014423 -0.005985 -0.002581 0.000000 0.000000 0.000000
# 2 -0.005985 0.014423 -0.002581 0.000000 0.000000 0.000000
# 3 -0.002581 -0.002581 0.013437 0.000000 0.000000 0.000000
# 4 0.000000 0.000000 0.000000 0.046390 0.000000 0.000000
# 5 0.000000 0.000000 0.000000 0.000000 0.046390 0.000000
# 6 0.000000 0.000000 0.000000 0.000000 0.000000 0.077337
#
#
# Mechanical properties :
#
#
# Convention : Reuss Voigt Hill
#
# Bulk Modulus (GPa) = 50.02677 50.67647 50.35162
# Shear Modulus (GPa) = 20.71640 22.76814 21.74227
#
# Velocity S-wave (km/s) = 3.17005 3.32333 3.24759
# Velocity P-wave (km/s) = 6.13728 6.26964 6.20382
#
# Compressibility (1/GPa) = 0.01998930
#
# Stress axis : x y z
#
# Youngs Moduli (GPa) = 69.33398 69.33423 74.42303
#
# Poissons Ratio (x) = 0.41497 0.19207
# Poissons Ratio (y) = 0.41497 0.19207
# Poissons Ratio (z) = 0.17893 0.17894
#
# Static dielectric constant tensor:
#      x y z
#    x 1.781880 0.000000 0.000000 
#    y 0.000000 1.781880 0.000000 
#    z 0.000000 0.000000 1.878830 
# 
# From -- ./inp_files/3486.got.cif
#   From: 2010.05.17/outbox.cif.g08.bks.cpg/sg93_2_cif.got.tgz:3486.got - 2010.06.03 19:38:44.
