data_PCOD9549539
_publ_section_title
;
Structure prediction by ZEFSAII (Michael W. Deem and Ramdas Pophale) SiO2 
 PCOD9549539
Probable space group: P 41 21 2
;
_chemical_formula_sum "Si O2"
_cell_formula_units_Z 40
_cell_length_a 9.746037
_cell_length_b 9.746037
_cell_length_c 16.753649
_cell_angle_alpha 90.000000
_cell_angle_beta 90.000000
_cell_angle_gamma 90.000000
_cell_volume 1591.349324
_symmetry_space_group_name_H-M "P 41 21 2"
_symmetry_group_IT_number 92
_symmetry_cell_setting 'tetragonal'
loop_
_space_group_symop_operation_xyz
x,y,z
1/2-y,1/2+x,1/4+z
-x,-y,1/2+z
1/2+y,1/2-x,3/4+z
1/2+x,1/2-y,3/4-z
1/2-x,1/2+y,1/4-z
y,x,-z
-y,-x,1/2-z
loop_
_atom_site_type_symbol
_atom_site_label
_atom_site_fract_x
_atom_site_fract_y
_atom_site_fract_z
Si Si1 0.991250 0.008751 0.750000
Si Si2 0.191854 0.476805 0.170211
Si Si3 0.704940 0.005389 0.766399
Si Si4 0.936101 0.284442 0.192650
Si Si5 0.635785 0.693007 0.795113
Si Si6 0.661658 0.338342 0.250000
O O1 0.988495 0.854562 0.717508
O O2 0.855630 0.016554 0.804132
O O3 0.272025 0.999617 0.171343
O O4 0.303949 0.392100 0.219979
O O5 0.138871 0.617255 0.210752
O O6 0.051634 0.390363 0.171242
O O7 0.643038 0.857330 0.787613
O O8 0.849557 0.238756 0.115764
O O9 0.829972 0.340250 0.259822
O O10 0.475739 0.651105 0.804440
#
# Coordination Sequence:
#
# PCOD9549539 Si02
#       6
#     4   8   8   8   8   4
#     4  11  28  47  74 108 146 195 240 303 368 440
#     4  12  27  51  73 112 146 194 246 312 364 445
#     4  12  29  45  78 107 152 189 245 304 378 429
#     4  11  26  50  75 107 146 193 255 299 356 458
#     4  12  28  45  75 108 148 187 246 307 365 436
#     4  11  28  43  78 106 140 199 246 295 366 436
#
# _framework density 25.135901
#
# number of rings (size 3 to 8) (size 9 to 14) (size 15 to 20)
#    0.000    0.400    6.000    0.000   11.200    0.800 
#    0.000    0.000    0.000    0.000    0.000    0.000 
#    0.000    0.000    0.000    0.000    0.000    0.000 
#
# Total GULP energy -223357.504510 kJ/mol
# GULP energy per Si atom -5583.937613 kJ/mol
# Density = 2.507869 g / cm^3
# Si number density = 25.135901 Si / 1000 Ang^3
#
#
#
# Elastic Constant Matrix: (Units=GPa)
#
#
# Indices 1 2 3 4 5 6 
#
# 1 139.1351 38.6856 16.5325 0.0000 0.0000 0.0000
# 2 38.6856 139.1334 16.5320 0.0000 0.0000 0.0000
# 3 16.5325 16.5320 97.9116 0.0000 0.0000 0.0000
# 4 0.0000 0.0000 0.0000 28.2380 0.0000 0.0000
# 5 0.0000 0.0000 0.0000 0.0000 28.2384 0.0000
# 6 0.0000 0.0000 0.0000 0.0000 0.0000 46.6343
#
#
#
# Elastic Compliance Matrix: (Units=1/GPa)
#
#
# Indices 1 2 3 4 5 6 
#
# 1 0.007881 -0.002075 -0.000980 0.000000 0.000000 0.000000
# 2 -0.002075 0.007881 -0.000980 0.000000 0.000000 0.000000
# 3 -0.000980 -0.000980 0.010544 0.000000 0.000000 0.000000
# 4 0.000000 0.000000 0.000000 0.035413 0.000000 0.000000
# 5 0.000000 0.000000 0.000000 0.000000 0.035413 0.000000
# 6 0.000000 0.000000 0.000000 0.000000 0.000000 0.021443
#
#
# Mechanical properties :
#
#
# Convention : Reuss Voigt Hill
#
# Bulk Modulus (GPa) = 54.83977 57.74227 56.29102
# Shear Modulus (GPa) = 37.67211 40.91745 39.29478
#
# Velocity S-wave (km/s) = 3.87555 4.03904 3.95814
# Velocity P-wave (km/s) = 6.47234 6.69131 6.58274
#
# Compressibility (1/GPa) = 0.01823494
#
# Stress axis : x y z
#
# Youngs Moduli (GPa) = 126.89383 126.89246 94.83749
#
# Poissons Ratio (x) = 0.26326 0.09297
# Poissons Ratio (y) = 0.26327 0.09297
# Poissons Ratio (z) = 0.12440 0.12439
#
# Static dielectric constant tensor:
#      x y z
#    x 2.047930 0.000000 0.000000 
#    y 0.000000 2.047940 0.000000 
#    z 0.000000 0.000000 2.112260 
# 
# From -- ./inp_files/4185.got.cif
#   From: 2010.05.17/outbox.cif.g08.bks.cpg/sg92_3_cif.got.tgz:4185.got - 2010.06.03 19:35:17.
