data_PCOD9549286
_publ_section_title
;
Structure prediction by ZEFSAII (Michael W. Deem and Ramdas Pophale) SiO2 
 PCOD9549286
Probable space group: P 41 21 2
;
_chemical_formula_sum "Si O2"
_cell_formula_units_Z 36
_cell_length_a 9.042364
_cell_length_b 9.042364
_cell_length_c 20.317207
_cell_angle_alpha 90.000000
_cell_angle_beta 90.000000
_cell_angle_gamma 90.000000
_cell_volume 1661.223157
_symmetry_space_group_name_H-M "P 41 21 2"
_symmetry_group_IT_number 92
_symmetry_cell_setting 'tetragonal'
loop_
_space_group_symop_operation_xyz
x,y,z
1/2-y,1/2+x,1/4+z
-x,-y,1/2+z
1/2+y,1/2-x,3/4+z
1/2+x,1/2-y,3/4-z
1/2-x,1/2+y,1/4-z
y,x,-z
-y,-x,1/2-z
loop_
_atom_site_type_symbol
_atom_site_label
_atom_site_fract_x
_atom_site_fract_y
_atom_site_fract_z
Si Si1 0.717574 0.177209 0.416435
Si Si2 0.115664 0.884337 0.250000
Si Si3 0.040627 0.059007 0.383332
Si Si4 0.383656 0.954711 0.167290
Si Si5 0.693130 0.714923 0.688163
O O1 0.648892 0.300694 0.369436
O O2 0.750760 0.242234 0.488574
O O3 0.871967 0.108096 0.392053
O O4 0.594749 0.050832 0.425145
O O5 0.286102 0.909415 0.230781
O O6 0.026383 0.937821 0.186082
O O7 0.100380 0.943010 0.436807
O O8 0.317177 0.860729 0.106838
O O9 0.359505 0.129334 0.157860
#
# Coordination Sequence:
#
# PCOD9549286 Si02
#       5
#     8   4   8   8   8
#     4  12  26  44  71 105 141 186 233 300 354 417
#     4  10  22  44  66  92 138 182 230 282 348 430
#     4  11  25  45  66 104 143 181 233 289 353 422
#     4  11  24  42  73  98 138 182 240 288 355 423
#     4  11  25  45  68 103 136 189 235 288 354 432
#
# _framework density 21.670777000000001
#
# number of rings (size 3 to 8) (size 9 to 14) (size 15 to 20)
#    0.000    0.889    2.222    4.667    9.333    1.778 
#    4.000    0.000    0.000    0.000    0.000    0.000 
#    0.000    0.000    0.000    0.000    0.000    0.000 
#
# Total GULP energy -201453.446836 kJ/mol
# GULP energy per Si atom -5595.929079 kJ/mol
# Density = 2.162145 g / cm^3
# Si number density = 21.670777 Si / 1000 Ang^3
#
#
#
# Elastic Constant Matrix: (Units=GPa)
#
#
# Indices 1 2 3 4 5 6 
#
# 1 74.6286 2.8598 -11.2331 0.0000 0.0000 0.0000
# 2 2.8598 74.6279 -11.2329 0.0000 0.0000 0.0000
# 3 -11.2331 -11.2329 42.9718 0.0000 0.0000 0.0000
# 4 0.0000 0.0000 0.0000 25.4723 0.0000 0.0000
# 5 0.0000 0.0000 0.0000 0.0000 25.4725 0.0000
# 6 0.0000 0.0000 0.0000 0.0000 0.0000 41.8663
#
#
#
# Elastic Compliance Matrix: (Units=1/GPa)
#
#
# Indices 1 2 3 4 5 6 
#
# 1 0.013949 0.000015 0.003650 0.000000 0.000000 0.000000
# 2 0.000015 0.013949 0.003650 0.000000 0.000000 0.000000
# 3 0.003650 0.003650 0.025179 0.000000 0.000000 0.000000
# 4 0.000000 0.000000 0.000000 0.039258 0.000000 0.000000
# 5 0.000000 0.000000 0.000000 0.000000 0.039258 0.000000
# 6 0.000000 0.000000 0.000000 0.000000 0.000000 0.023886
#
#
# Mechanical properties :
#
#
# Convention : Reuss Voigt Hill
#
# Bulk Modulus (GPa) = 14.76956 17.00177 15.88566
# Shear Modulus (GPa) = 30.59656 32.68453 31.64055
#
# Velocity S-wave (km/s) = 3.76158 3.88781 3.82521
# Velocity P-wave (km/s) = 5.06914 5.29301 5.18228
#
# Compressibility (1/GPa) = 0.06770684
#
# Stress axis : x y z
#
# Youngs Moduli (GPa) = 71.69210 71.69154 39.71501
#
# Poissons Ratio (x) = -0.00107 -0.14497
# Poissons Ratio (y) = -0.00107 -0.14496
# Poissons Ratio (z) = -0.26169 -0.26168
#
# Static dielectric constant tensor:
#      x y z
#    x 1.784180 0.000000 0.000000 
#    y 0.000000 1.784180 0.000000 
#    z 0.000000 0.000000 1.781730 
# 
# From -- ./inp_files/3439.got.cif
#   From: 2010.05.17/outbox.cif.g08.bks.cpg/sg92_2_cif.got.tgz:3439.got - 2010.06.03 19:35:17.
