data_PCOD9549941
_publ_section_title
;
Structure prediction by ZEFSAII (Michael W. Deem and Ramdas Pophale) SiO2 
 PCOD9549941
Probable space group: P 42 21 2
;
_chemical_formula_sum "Si O2"
_cell_formula_units_Z 56
_cell_length_a 11.472861
_cell_length_b 11.472861
_cell_length_c 20.278737
_cell_angle_alpha 90.000000
_cell_angle_beta 90.000000
_cell_angle_gamma 90.000000
_cell_volume 2669.219977
_symmetry_space_group_name_H-M "P 42 21 2"
_symmetry_group_IT_number 94
_symmetry_cell_setting 'tetragonal'
loop_
_space_group_symop_operation_xyz
x,y,z
1/2-y,1/2+x,1/2+z
-x,-y,z
1/2+y,1/2-x,1/2+z
1/2+x,1/2-y,1/2-z
1/2-x,1/2+y,1/2-z
y,x,-z
-y,-x,-z
loop_
_atom_site_type_symbol
_atom_site_label
_atom_site_fract_x
_atom_site_fract_y
_atom_site_fract_z
Si Si1 0.842367 0.217417 0.145042
Si Si2 0.819190 0.398466 0.266566
Si Si3 0.618768 0.942207 0.437781
Si Si4 0.598467 0.784278 0.835043
Si Si5 0.131158 0.270471 0.441454
Si Si6 0.718076 0.534317 0.828438
Si Si7 0.667180 0.418364 0.691559
O O1 0.813186 0.292398 0.211405
O O2 0.881131 0.314738 0.092638
O O3 0.725759 0.173891 0.109020
O O4 0.956960 0.139938 0.158170
O O5 0.829092 0.515165 0.224011
O O6 0.921724 0.350691 0.313224
O O7 0.698490 0.409151 0.306898
O O8 0.635173 0.935522 0.515181
O O9 0.500000 0.000000 0.417533
O O10 0.713800 0.020303 0.400641
O O11 0.642985 0.652659 0.826861
O O12 0.709504 0.869837 0.836055
O O13 0.191285 0.191285 0.500000
O O14 0.039085 0.205869 0.394941
O O15 0.680850 0.453263 0.767984
#
# Coordination Sequence:
#
# PCOD9549941 Si02
#       7
#     8   8   8   8   8   8   8
#     4   9  17  33  56  80 118 152 196 238 299 367
#     4   9  19  34  56  87 112 152 193 242 301 369
#     4  10  19  36  57  81 110 158 210 240 295 370
#     4  10  21  37  60  85 119 158 197 252 316 371
#     4  10  21  38  56  86 124 161 206 253 310 369
#     4  10  21  36  56  87 121 154 200 250 311 370
#     4  10  18  35  59  83 119 154 191 247 305 372
#
# _framework density 20.979911000000001
#
# number of rings (size 3 to 8) (size 9 to 14) (size 15 to 20)
#    0.000    2.286    2.857    0.000    0.000    1.143 
#    2.571    3.571    0.000    0.000    0.000    0.000 
#    0.000    0.000    0.000    0.000    0.000    0.000 
#
# Total GULP energy -312021.454530 kJ/mol
# GULP energy per Si atom -5571.811688 kJ/mol
# Density = 2.093216 g / cm^3
# Si number density = 20.979911 Si / 1000 Ang^3
#
#
#
# Elastic Constant Matrix: (Units=GPa)
#
#
# Indices 1 2 3 4 5 6 
#
# 1 47.4161 -3.1540 10.4832 0.0000 0.0000 0.0000
# 2 -3.1540 47.4161 10.4832 0.0000 0.0000 0.0000
# 3 10.4832 10.4832 83.7568 0.0000 0.0000 0.0000
# 4 0.0000 0.0000 0.0000 17.3333 0.0000 0.0000
# 5 0.0000 0.0000 0.0000 0.0000 17.3333 0.0000
# 6 0.0000 0.0000 0.0000 0.0000 0.0000 14.6436
#
#
#
# Elastic Compliance Matrix: (Units=1/GPa)
#
#
# Indices 1 2 3 4 5 6 
#
# 1 0.021896 0.002121 -0.003006 0.000000 0.000000 0.000000
# 2 0.002121 0.021896 -0.003006 0.000000 0.000000 0.000000
# 3 -0.003006 -0.003006 0.012692 0.000000 0.000000 0.000000
# 4 0.000000 0.000000 0.000000 0.057692 0.000000 0.000000
# 5 0.000000 0.000000 0.000000 0.000000 0.057692 0.000000
# 6 0.000000 0.000000 0.000000 0.000000 0.000000 0.068289
#
#
# Mechanical properties :
#
#
# Convention : Reuss Voigt Hill
#
# Bulk Modulus (GPa) = 20.53344 23.80155 22.16749
# Shear Modulus (GPa) = 18.92706 20.58050 19.75378
#
# Velocity S-wave (km/s) = 3.00684 3.13543 3.07181
# Velocity P-wave (km/s) = 4.67581 4.94747 4.81356
#
# Compressibility (1/GPa) = 0.04870105
#
# Stress axis : x y z
#
# Youngs Moduli (GPa) = 45.67136 45.67136 78.79098
#
# Poissons Ratio (x) = -0.09687 0.23684
# Poissons Ratio (y) = -0.09687 0.23684
# Poissons Ratio (z) = 0.13729 0.13729
#
# Static dielectric constant tensor:
#      x y z
#    x 1.824560 0.000000 0.000000 
#    y 0.000000 1.824560 0.000000 
#    z 0.000000 0.000000 1.767050 
# 
# From -- ./inp_files/4734.got.cif
#   From: 2010.05.17/outbox.cif.g08.bks.cpg/sg94_3_cif.got.tgz:4734.got - 2010.06.03 19:43:16.
