data_PCOD9549435
_publ_section_title
;
Structure prediction by ZEFSAII (Michael W. Deem and Ramdas Pophale) SiO2 
 PCOD9549435
Probable space group: P 41 21 2
;
_chemical_formula_sum "Si O2"
_cell_formula_units_Z 40
_cell_length_a 14.411405
_cell_length_b 14.411405
_cell_length_c 9.703988
_cell_angle_alpha 90.000000
_cell_angle_beta 90.000000
_cell_angle_gamma 90.000000
_cell_volume 2015.407625
_symmetry_space_group_name_H-M "P 41 21 2"
_symmetry_group_IT_number 92
_symmetry_cell_setting 'tetragonal'
loop_
_space_group_symop_operation_xyz
x,y,z
1/2-y,1/2+x,1/4+z
-x,-y,1/2+z
1/2+y,1/2-x,3/4+z
1/2+x,1/2-y,3/4-z
1/2-x,1/2+y,1/4-z
y,x,-z
-y,-x,1/2-z
loop_
_atom_site_type_symbol
_atom_site_label
_atom_site_fract_x
_atom_site_fract_y
_atom_site_fract_z
Si Si1 0.608498 0.608498 0.500000
Si Si2 0.842954 0.757828 0.862727
Si Si3 0.493161 0.899328 0.808481
Si Si4 0.741057 0.636394 0.238832
Si Si5 0.893200 0.106801 0.250000
Si Si6 0.413609 0.597073 0.102135
O O1 0.679919 0.617924 0.373933
O O2 0.619460 0.504149 0.557566
O O3 0.908897 0.671017 0.899743
O O4 0.747030 0.738664 0.782828
O O5 0.895201 0.829803 0.766053
O O6 0.810866 0.810866 0.000000
O O7 0.579738 0.837238 0.751831
O O8 0.454352 0.967889 0.690905
O O9 0.698020 0.602410 0.092613
O O10 0.975026 0.094039 0.139928
O O11 0.374765 0.625236 0.250000
#
# Coordination Sequence:
#
# PCOD9549435 Si02
#       6
#     4   8   8   8   4   8
#     4  11  26  40  68 106 146 179 244 308 362 435
#     4  12  25  46  76 103 142 197 251 305 385 454
#     4  12  27  50  76 107 150 204 254 311 383 460
#     4  12  24  46  70 103 140 197 244 306 368 456
#     4  11  20  42  68  92 140 181 240 284 374 431
#     4  11  24  40  66 105 140 178 233 308 365 434
#
# _framework density 19.847102
#
# number of rings (size 3 to 8) (size 9 to 14) (size 15 to 20)
#    0.000    0.400    7.000    1.200    1.400    1.600 
#    0.000    0.000    0.000    0.000    0.000    0.000 
#    0.000    0.000    0.000    0.000    0.000    0.000 
#
# Total GULP energy -223313.120085 kJ/mol
# GULP energy per Si atom -5582.828002 kJ/mol
# Density = 1.980193 g / cm^3
# Si number density = 19.847102 Si / 1000 Ang^3
#
#
#
# Elastic Constant Matrix: (Units=GPa)
#
#
# Indices 1 2 3 4 5 6 
#
# 1 101.0192 43.8321 57.5263 0.0000 0.0000 0.0000
# 2 43.8321 101.0201 57.5267 0.0000 0.0000 0.0000
# 3 57.5263 57.5267 142.7315 0.0000 0.0000 0.0000
# 4 0.0000 0.0000 0.0000 32.3337 0.0000 0.0000
# 5 0.0000 0.0000 0.0000 0.0000 32.3331 0.0000
# 6 0.0000 0.0000 0.0000 0.0000 0.0000 35.9582
#
#
#
# Elastic Compliance Matrix: (Units=1/GPa)
#
#
# Indices 1 2 3 4 5 6 
#
# 1 0.013820 -0.003666 -0.004093 0.000000 0.000000 0.000000
# 2 -0.003666 0.013820 -0.004093 0.000000 0.000000 0.000000
# 3 -0.004093 -0.004093 0.010305 0.000000 0.000000 0.000000
# 4 0.000000 0.000000 0.000000 0.030928 0.000000 0.000000
# 5 0.000000 0.000000 0.000000 0.000000 0.030928 0.000000
# 6 0.000000 0.000000 0.000000 0.000000 0.000000 0.027810
#
#
# Mechanical properties :
#
#
# Convention : Reuss Voigt Hill
#
# Bulk Modulus (GPa) = 70.20827 73.61566 71.91196
# Shear Modulus (GPa) = 32.03866 32.51738 32.27802
#
# Velocity S-wave (km/s) = 4.02216 4.05210 4.03716
# Velocity P-wave (km/s) = 7.55127 7.68535 7.61861
#
# Compressibility (1/GPa) = 0.01424334
#
# Stress axis : x y z
#
# Youngs Moduli (GPa) = 72.35707 72.35767 97.03926
#
# Poissons Ratio (x) = 0.26526 0.39714
# Poissons Ratio (y) = 0.26526 0.39714
# Poissons Ratio (z) = 0.29613 0.29613
#
# Static dielectric constant tensor:
#      x y z
#    x 1.803600 0.000000 0.000000 
#    y 0.000000 1.803600 0.000000 
#    z 0.000000 0.000000 1.684600 
# 
# From -- ./inp_files/1389.got.cif
#   From: 2010.05.17/outbox.cif.g08.bks.cpg/sg92_1_cif.got.tgz:1389.got - 2010.06.03 19:35:17.
