data_PCOD9549913
_publ_section_title
;
Structure prediction by ZEFSAII (Michael W. Deem and Ramdas Pophale) SiO2 
 PCOD9549913
Probable space group: P 42 21 2
;
_chemical_formula_sum "Si O2"
_cell_formula_units_Z 36
_cell_length_a 11.084167
_cell_length_b 11.084167
_cell_length_c 13.073255
_cell_angle_alpha 90.000000
_cell_angle_beta 90.000000
_cell_angle_gamma 90.000000
_cell_volume 1606.163873
_symmetry_space_group_name_H-M "P 42 21 2"
_symmetry_group_IT_number 94
_symmetry_cell_setting 'tetragonal'
loop_
_space_group_symop_operation_xyz
x,y,z
1/2-y,1/2+x,1/2+z
-x,-y,z
1/2+y,1/2-x,1/2+z
1/2+x,1/2-y,1/2-z
1/2-x,1/2+y,1/2-z
y,x,-z
-y,-x,-z
loop_
_atom_site_type_symbol
_atom_site_label
_atom_site_fract_x
_atom_site_fract_y
_atom_site_fract_z
Si Si1 0.500000 0.000000 0.281893
Si Si2 0.934267 0.875094 0.181803
Si Si3 0.579513 0.195417 0.140914
Si Si4 0.175727 0.427486 0.555036
Si Si5 0.683536 0.836618 0.067711
O O1 0.590128 0.077918 0.212651
O O2 0.415914 0.083843 0.351707
O O3 0.894796 0.807866 0.286288
O O4 0.807660 0.880220 0.120722
O O5 0.032715 0.800611 0.111345
O O6 0.000000 0.000000 0.202441
O O7 0.434746 0.200921 0.127593
O O8 0.652167 0.169309 0.035964
O O9 0.140190 0.553330 0.501647
O O10 0.724493 0.724493 0.000000
#
# Coordination Sequence:
#
# PCOD9549913 Si02
#       5
#     4   8   8   8   8
#     4  10  16  32  66 100 120 152 224 290 312 374
#     4  10  25  42  61  98 146 183 219 280 363 425
#     4  11  20  39  68  99 130 174 241 284 324 412
#     4  10  19  37  67  94 127 169 231 284 331 392
#     4  10  20  38  64  94 132 173 219 286 337 397
#
# _framework density 22.413653
#
# number of rings (size 3 to 8) (size 9 to 14) (size 15 to 20)
#    0.000    1.778    4.444    0.000    0.000    5.778 
#    4.000    2.222    0.000    6.000    0.000    0.000 
#    0.000    0.000    0.000    0.000    0.000    0.000 
#
# Total GULP energy -200691.657953 kJ/mol
# GULP energy per Si atom -5574.768276 kJ/mol
# Density = 2.236264 g / cm^3
# Si number density = 22.413653 Si / 1000 Ang^3
#
#
#
# Elastic Constant Matrix: (Units=GPa)
#
#
# Indices 1 2 3 4 5 6 
#
# 1 77.3872 36.4991 40.7083 0.0000 0.0000 0.0000
# 2 36.4991 77.3872 40.7083 0.0000 0.0000 0.0000
# 3 40.7083 40.7083 124.3407 0.0000 0.0000 0.0000
# 4 0.0000 0.0000 0.0000 14.9687 0.0000 0.0000
# 5 0.0000 0.0000 0.0000 0.0000 14.9687 0.0000
# 6 0.0000 0.0000 0.0000 0.0000 0.0000 21.4742
#
#
#
# Elastic Compliance Matrix: (Units=1/GPa)
#
#
# Indices 1 2 3 4 5 6 
#
# 1 0.017960 -0.006497 -0.003753 0.000000 0.000000 0.000000
# 2 -0.006497 0.017960 -0.003753 0.000000 0.000000 0.000000
# 3 -0.003753 -0.003753 0.010500 0.000000 0.000000 0.000000
# 4 0.000000 0.000000 0.000000 0.066806 0.000000 0.000000
# 5 0.000000 0.000000 0.000000 0.000000 0.066806 0.000000
# 6 0.000000 0.000000 0.000000 0.000000 0.000000 0.046567
#
#
# Mechanical properties :
#
#
# Convention : Reuss Voigt Hill
#
# Bulk Modulus (GPa) = 54.30391 57.21626 55.76008
# Shear Modulus (GPa) = 19.17586 21.02895 20.10240
#
# Velocity S-wave (km/s) = 2.92814 3.06636 2.99805
# Velocity P-wave (km/s) = 5.97601 6.17411 6.07586
#
# Compressibility (1/GPa) = 0.01841488
#
# Stress axis : x y z
#
# Youngs Moduli (GPa) = 55.67802 55.67802 95.23858
#
# Poissons Ratio (x) = 0.36172 0.35745
# Poissons Ratio (y) = 0.36172 0.35745
# Poissons Ratio (z) = 0.20897 0.20897
#
# Static dielectric constant tensor:
#      x y z
#    x 1.827230 0.000000 0.000000 
#    y 0.000000 1.827230 0.000000 
#    z 0.000000 0.000000 1.901100 
# 
# From -- ./inp_files/2426.got.cif
#   From: 2010.05.17/outbox.cif.g08.bks.cpg/sg94_2_cif.got.tgz:2426.got - 2010.06.03 19:43:16.
