data_PCOD9549161
_publ_section_title
;
Structure prediction by ZEFSAII (Michael W. Deem and Ramdas Pophale) SiO2 
 PCOD9549161
Probable space group: P 41 21 2
;
_chemical_formula_sum "Si O2"
_cell_formula_units_Z 32
_cell_length_a 7.911940
_cell_length_b 7.911940
_cell_length_c 22.592997
_cell_angle_alpha 90.000000
_cell_angle_beta 90.000000
_cell_angle_gamma 90.000000
_cell_volume 1414.294378
_symmetry_space_group_name_H-M "P 41 21 2"
_symmetry_group_IT_number 92
_symmetry_cell_setting 'tetragonal'
loop_
_space_group_symop_operation_xyz
x,y,z
1/2-y,1/2+x,1/4+z
-x,-y,1/2+z
1/2+y,1/2-x,3/4+z
1/2+x,1/2-y,3/4-z
1/2-x,1/2+y,1/4-z
y,x,-z
-y,-x,1/2-z
loop_
_atom_site_type_symbol
_atom_site_label
_atom_site_fract_x
_atom_site_fract_y
_atom_site_fract_z
Si Si1 0.734133 0.579204 0.440820
Si Si2 0.618785 0.705982 0.062300
Si Si3 0.746813 0.577204 0.179174
Si Si4 0.072686 0.111485 0.898687
O O1 0.652485 0.652485 0.500000
O O2 0.794097 0.387763 0.451351
O O3 0.886491 0.706536 0.424010
O O4 0.604416 0.588942 0.385536
O O5 0.740325 0.604617 0.107779
O O6 0.440740 0.704801 0.096353
O O7 0.691497 0.891903 0.054835
O O8 0.615491 0.615491 0.000000
O O9 0.548190 0.598991 0.193214
#
# Coordination Sequence:
#
# PCOD9549161 Si02
#       4
#     8   8   8   8
#     4  12  25  46  71 103 140 188 233 295 355 417
#     4  10  21  41  68  94 135 182 218 286 357 400
#     4  10  22  45  65 100 137 171 242 280 344 427
#     4  10  23  44  65 101 142 169 241 284 339 428
#
# _framework density 22.626121999999999
#
# number of rings (size 3 to 8) (size 9 to 14) (size 15 to 20)
#    1.500    0.000    2.500    2.250    0.000    5.000 
#    9.000    0.000    0.000    0.000    0.000    0.000 
#    0.000    0.000    0.000    0.000    0.000    0.000 
#
# Total GULP energy -178439.862144 kJ/mol
# GULP energy per Si atom -5576.245692 kJ/mol
# Density = 2.257462 g / cm^3
# Si number density = 22.626122 Si / 1000 Ang^3
#
#
#
# Elastic Constant Matrix: (Units=GPa)
#
#
# Indices 1 2 3 4 5 6 
#
# 1 87.7691 37.5161 11.8923 0.0000 0.0000 0.0000
# 2 37.5161 87.7691 11.8923 0.0000 0.0000 0.0000
# 3 11.8923 11.8923 67.9773 0.0000 0.0000 0.0000
# 4 0.0000 0.0000 0.0000 14.6801 0.0000 0.0000
# 5 0.0000 0.0000 0.0000 0.0000 14.6801 0.0000
# 6 0.0000 0.0000 0.0000 0.0000 0.0000 22.2181
#
#
#
# Elastic Compliance Matrix: (Units=1/GPa)
#
#
# Indices 1 2 3 4 5 6 
#
# 1 0.014078 -0.005822 -0.001444 0.000000 0.000000 0.000000
# 2 -0.005822 0.014078 -0.001444 0.000000 0.000000 0.000000
# 3 -0.001444 -0.001444 0.015216 0.000000 0.000000 0.000000
# 4 0.000000 0.000000 0.000000 0.068119 0.000000 0.000000
# 5 0.000000 0.000000 0.000000 0.000000 0.068119 0.000000
# 6 0.000000 0.000000 0.000000 0.000000 0.000000 0.045008
#
#
# Mechanical properties :
#
#
# Convention : Reuss Voigt Hill
#
# Bulk Modulus (GPa) = 38.53449 40.67962 39.60705
# Shear Modulus (GPa) = 19.94498 22.46332 21.20415
#
# Velocity S-wave (km/s) = 2.97223 3.15430 3.06462
# Velocity P-wave (km/s) = 5.37092 5.59323 5.48320
#
# Compressibility (1/GPa) = 0.02595078
#
# Stress axis : x y z
#
# Youngs Moduli (GPa) = 71.03456 71.03456 65.71961
#
# Poissons Ratio (x) = 0.41354 0.09492
# Poissons Ratio (y) = 0.41354 0.09492
# Poissons Ratio (z) = 0.10260 0.10260
#
# Static dielectric constant tensor:
#      x y z
#    x 1.868530 0.000000 0.000000 
#    y 0.000000 1.868530 0.000000 
#    z 0.000000 0.000000 1.907240 
# 
# From -- ./inp_files/3379.got.cif
#   From: 2010.05.17/outbox.cif.g08.bks.cpg/sg92_2_cif.got.tgz:3379.got - 2010.06.03 19:35:17.
