data_PCOD9549622
_publ_section_title
;
Structure prediction by ZEFSAII (Michael W. Deem and Ramdas Pophale) SiO2 
 PCOD9549622
Probable space group: P 42 2 2
;
_chemical_formula_sum "Si O2"
_cell_formula_units_Z 56
_cell_length_a 12.557892
_cell_length_b 12.557892
_cell_length_c 18.668931
_cell_angle_alpha 90.000000
_cell_angle_beta 90.000000
_cell_angle_gamma 90.000000
_cell_volume 2944.102581
_symmetry_space_group_name_H-M "P 42 2 2"
_symmetry_group_IT_number 93
_symmetry_cell_setting 'tetragonal'
loop_
_space_group_symop_operation_xyz
x,y,z
-y,x,1/2+z
-x,-y,z
y,-x,1/2+z
x,-y,-z
-x,y,-z
y,x,1/2-z
-y,-x,1/2-z
loop_
_atom_site_type_symbol
_atom_site_label
_atom_site_fract_x
_atom_site_fract_y
_atom_site_fract_z
Si Si1 0.027837 0.124812 0.078560
Si Si2 0.533433 0.762547 0.072501
Si Si3 0.362391 0.902714 0.134167
Si Si4 0.841725 0.779835 0.831622
Si Si5 0.672871 0.498342 0.267652
Si Si6 0.451620 0.114733 0.705863
Si Si7 0.091999 0.729455 0.563547
O O1 0.154118 0.130754 0.084781
O O2 0.952035 0.174352 0.138298
O O3 0.000000 0.000000 0.077995
O O4 0.000000 0.169634 0.000000
O O5 0.454088 0.864778 0.080551
O O6 0.512406 0.703750 0.148226
O O7 0.650889 0.808201 0.058003
O O8 0.500000 0.702243 0.000000
O O9 0.259667 0.826393 0.125889
O O10 0.408533 0.897676 0.213271
O O11 0.322381 0.021378 0.125221
O O12 0.818149 0.818149 0.750000
O O13 0.852675 0.653305 0.837772
O O14 0.585020 0.585020 0.250000
O O15 0.617409 0.382592 0.250000
O O16 0.776834 0.518528 0.217643
O O17 0.500000 0.000000 0.684198
O O18 0.000000 0.736296 0.500000
#
# Coordination Sequence:
#
# PCOD9549622 Si02
#       7
#     8   8   8   8   8   8   8
#     4  11  21  37  53  78 123 176 203 232 305 384
#     4  11  22  33  60  96 120 148 205 268 322 371
#     4  10  18  33  52  81 120 153 191 246 318 365
#     4  10  21  37  60  84 114 165 216 254 294 373
#     4  10  22  44  67  87 124 172 207 255 332 394
#     4  10  20  36  58  87 117 152 200 259 315 369
#     4  12  20  32  52  85 129 162 197 250 316 378
#
# _framework density 19.021075
#
# number of rings (size 3 to 8) (size 9 to 14) (size 15 to 20)
#    0.000    1.429    4.286    4.286    0.000    1.429 
#    0.000    1.429    0.000    0.429    0.000    0.000 
#    0.000    0.000    0.000    0.000    0.000    0.000 
#
# Total GULP energy -311899.593522 kJ/mol
# GULP energy per Si atom -5569.635599 kJ/mol
# Density = 1.897778 g / cm^3
# Si number density = 19.021075 Si / 1000 Ang^3
#
#
#
# Elastic Constant Matrix: (Units=GPa)
#
#
# Indices 1 2 3 4 5 6 
#
# 1 102.5541 34.7811 19.0682 0.0000 0.0000 0.0000
# 2 34.7811 102.5547 19.0685 0.0000 0.0000 0.0000
# 3 19.0682 19.0685 43.6081 0.0000 0.0000 0.0000
# 4 0.0000 0.0000 0.0000 15.5176 0.0000 0.0000
# 5 0.0000 0.0000 0.0000 0.0000 15.5176 0.0000
# 6 0.0000 0.0000 0.0000 0.0000 0.0000 16.3128
#
#
#
# Elastic Compliance Matrix: (Units=1/GPa)
#
#
# Indices 1 2 3 4 5 6 
#
# 1 0.011521 -0.003234 -0.003624 0.000000 0.000000 0.000000
# 2 -0.003234 0.011521 -0.003624 0.000000 0.000000 0.000000
# 3 -0.003624 -0.003624 0.026101 0.000000 0.000000 0.000000
# 4 0.000000 0.000000 0.000000 0.064443 0.000000 0.000000
# 5 0.000000 0.000000 0.000000 0.000000 0.064443 0.000000
# 6 0.000000 0.000000 0.000000 0.000000 0.000000 0.061302
#
#
# Mechanical properties :
#
#
# Convention : Reuss Voigt Hill
#
# Bulk Modulus (GPa) = 35.48556 43.83918 39.66237
# Shear Modulus (GPa) = 18.53999 21.18956 19.86477
#
# Velocity S-wave (km/s) = 3.12542 3.34129 3.23516
# Velocity P-wave (km/s) = 5.63212 6.16306 5.90356
#
# Compressibility (1/GPa) = 0.02818047
#
# Stress axis : x y z
#
# Youngs Moduli (GPa) = 86.79470 86.79497 38.31304
#
# Poissons Ratio (x) = 0.28066 0.13884
# Poissons Ratio (y) = 0.28066 0.13885
# Poissons Ratio (z) = 0.31454 0.31455
#
# Static dielectric constant tensor:
#      x y z
#    x 1.713640 0.000000 0.000000 
#    y 0.000000 1.713640 0.000000 
#    z 0.000000 0.000000 1.722190 
# 
# From -- ./inp_files/6272.got.cif
#   From: 2010.05.17/outbox.cif.g08.bks.cpg/sg93_4_cif.got.tgz:6272.got - 2010.06.03 19:38:44.
