data_PCOD9549708
_publ_section_title
;
Structure prediction by ZEFSAII (Michael W. Deem and Ramdas Pophale) SiO2 
 PCOD9549708
Probable space group: P 42 2 2
;
_chemical_formula_sum "Si O2"
_cell_formula_units_Z 56
_cell_length_a 11.927562
_cell_length_b 11.927562
_cell_length_c 22.328599
_cell_angle_alpha 90.000000
_cell_angle_beta 90.000000
_cell_angle_gamma 90.000000
_cell_volume 3176.616883
_symmetry_space_group_name_H-M "P 42 2 2"
_symmetry_group_IT_number 93
_symmetry_cell_setting 'tetragonal'
loop_
_space_group_symop_operation_xyz
x,y,z
-y,x,1/2+z
-x,-y,z
y,-x,1/2+z
x,-y,-z
-x,y,-z
y,x,1/2-z
-y,-x,1/2-z
loop_
_atom_site_type_symbol
_atom_site_label
_atom_site_fract_x
_atom_site_fract_y
_atom_site_fract_z
Si Si1 0.564076 0.858192 0.837441
Si Si2 0.208709 0.000000 0.000000
Si Si3 0.739765 0.224550 0.320875
Si Si4 0.863699 0.016066 0.370182
Si Si5 0.343734 0.921008 0.884891
Si Si6 0.836855 0.000000 0.500000
Si Si7 0.248852 0.187313 0.316145
Si Si8 0.133097 0.498516 0.200150
O O1 0.652030 0.759845 0.846744
O O2 0.469027 0.870611 0.887697
O O3 0.507288 0.846038 0.772196
O O4 0.635760 0.974078 0.839679
O O5 0.118072 0.098193 0.989033
O O6 0.286522 0.970107 0.943989
O O7 0.767124 0.232877 0.250000
O O8 0.612440 0.183568 0.326921
O O9 0.826891 0.139185 0.350885
O O10 0.797481 0.983549 0.431734
O O11 0.812627 0.932803 0.320927
O O12 0.000000 0.000000 0.377016
O O13 0.265255 0.823672 0.859700
O O14 0.233860 0.233860 0.250000
O O15 0.381792 0.177971 0.326179
O O16 0.000000 0.500000 0.191800
#
# Coordination Sequence:
#
# PCOD9549708 Si02
#       8
#     8   4   8   8   8   4   8   8
#     4  10  20  37  55  80 123 153 192 247 296 352
#     4  11  20  35  54  82 120 159 189 232 306 366
#     4  10  23  35  55  84 119 161 196 241 306 359
#     4  12  22  33  56  85 119 152 182 236 297 365
#     4  11  21  36  59  84 119 153 198 243 302 360
#     4  11  20  38  50  79 130 149 180 236 297 360
#     4  12  22  34  60  86 114 156 199 242 293 364
#     4  11  19  37  54  81 122 160 187 242 304 355
#
# _framework density 17.628819
#
# number of rings (size 3 to 8) (size 9 to 14) (size 15 to 20)
#    0.000    1.000    7.143    1.714    4.000    1.143 
#    0.000    0.714    0.000    1.714    0.000    0.000 
#    0.000    4.571    0.000    0.000    0.000    0.000 
#
# Total GULP energy -311902.912471 kJ/mol
# GULP energy per Si atom -5569.694866 kJ/mol
# Density = 1.758869 g / cm^3
# Si number density = 17.628819 Si / 1000 Ang^3
#
#
#
# Elastic Constant Matrix: (Units=GPa)
#
#
# Indices 1 2 3 4 5 6 
#
# 1 91.7173 41.5058 26.0294 0.0000 0.0000 0.0000
# 2 41.5058 91.7174 26.0292 0.0000 0.0000 0.0000
# 3 26.0294 26.0292 50.6118 0.0000 0.0000 0.0000
# 4 0.0000 0.0000 0.0000 16.2764 0.0000 0.0000
# 5 0.0000 0.0000 0.0000 0.0000 16.2764 0.0000
# 6 0.0000 0.0000 0.0000 0.0000 0.0000 30.2170
#
#
#
# Elastic Compliance Matrix: (Units=1/GPa)
#
#
# Indices 1 2 3 4 5 6 
#
# 1 0.014655 -0.005261 -0.004831 0.000000 0.000000 0.000000
# 2 -0.005261 0.014655 -0.004831 0.000000 0.000000 0.000000
# 3 -0.004831 -0.004831 0.024728 0.000000 0.000000 0.000000
# 4 0.000000 0.000000 0.000000 0.061439 0.000000 0.000000
# 5 0.000000 0.000000 0.000000 0.000000 0.061439 0.000000
# 6 0.000000 0.000000 0.000000 0.000000 0.000000 0.033094
#
#
# Mechanical properties :
#
#
# Convention : Reuss Voigt Hill
#
# Bulk Modulus (GPa) = 41.33841 46.79725 44.06783
# Shear Modulus (GPa) = 20.16786 21.91944 21.04365
#
# Velocity S-wave (km/s) = 3.38602 3.52999 3.45876
# Velocity P-wave (km/s) = 6.22793 6.57404 6.40332
#
# Compressibility (1/GPa) = 0.02419058
#
# Stress axis : x y z
#
# Youngs Moduli (GPa) = 68.23634 68.23658 40.44059
#
# Poissons Ratio (x) = 0.35898 0.19538
# Poissons Ratio (y) = 0.35898 0.19538
# Poissons Ratio (z) = 0.32967 0.32967
#
# Static dielectric constant tensor:
#      x y z
#    x 1.633580 0.000000 0.000000 
#    y 0.000000 1.633580 0.000000 
#    z 0.000000 0.000000 1.650410 
# 
# From -- ./inp_files/6938.got.cif
#   From: 2010.05.17/outbox.cif.g08.bks.cpg/sg93_4_cif.got.tgz:6938.got - 2010.06.03 19:38:44.
