data_PCOD9549478
_publ_section_title
;
Structure prediction by ZEFSAII (Michael W. Deem and Ramdas Pophale) SiO2 
 PCOD9549478
Probable space group: P 41 21 2
;
_chemical_formula_sum "Si O2"
_cell_formula_units_Z 48
_cell_length_a 11.624335
_cell_length_b 11.624335
_cell_length_c 17.699468
_cell_angle_alpha 90.000000
_cell_angle_beta 90.000000
_cell_angle_gamma 90.000000
_cell_volume 2391.643520
_symmetry_space_group_name_H-M "P 41 21 2"
_symmetry_group_IT_number 92
_symmetry_cell_setting 'tetragonal'
loop_
_space_group_symop_operation_xyz
x,y,z
1/2-y,1/2+x,1/4+z
-x,-y,1/2+z
1/2+y,1/2-x,3/4+z
1/2+x,1/2-y,3/4-z
1/2-x,1/2+y,1/4-z
y,x,-z
-y,-x,1/2-z
loop_
_atom_site_type_symbol
_atom_site_label
_atom_site_fract_x
_atom_site_fract_y
_atom_site_fract_z
Si Si1 0.455524 0.455524 0.500000
Si Si2 0.309297 0.021511 0.753246
Si Si3 0.090095 0.090095 0.500000
Si Si4 0.829754 0.457169 0.170351
Si Si5 0.613197 0.574801 0.380791
Si Si6 0.476546 0.131966 0.058520
Si Si7 0.073416 0.654625 0.364400
O O1 0.484336 0.322067 0.499279
O O2 0.514837 0.514057 0.428825
O O3 0.343002 0.066384 0.669604
O O4 0.336653 0.103507 0.824514
O O5 0.381605 0.909031 0.774854
O O6 0.077720 0.200773 0.444683
O O7 0.974713 0.101106 0.547694
O O8 0.891833 0.582940 0.183006
O O9 0.737357 0.537616 0.414026
O O10 0.592164 0.709696 0.384220
O O11 0.395314 0.048533 0.107339
O O12 0.427492 0.120573 0.973602
#
# Coordination Sequence:
#
# PCOD9549478 Si02
#       7
#     4   8   4   8   8   8   8
#     4  12  25  46  61  98 146 176 216 296 349 399
#     4  11  24  43  71  99 138 178 232 285 344 406
#     4  12  25  44  69 102 132 184 230 278 347 417
#     4  11  23  45  70 101 133 179 231 280 342 410
#     4  12  26  45  66  99 139 181 229 281 351 407
#     4  11  23  45  70  99 136 181 230 284 337 410
#     4  11  24  43  72 100 133 183 233 279 340 414
#
# _framework density 20.069880000000001
#
# number of rings (size 3 to 8) (size 9 to 14) (size 15 to 20)
#    0.000    0.667    3.333    6.500    2.333    4.000 
#    3.000    0.000    0.000    0.000    0.000    0.000 
#    0.000    0.000    0.000    0.000    0.000    0.000 
#
# Total GULP energy -267846.921043 kJ/mol
# GULP energy per Si atom -5580.144188 kJ/mol
# Density = 2.002420 g / cm^3
# Si number density = 20.069880 Si / 1000 Ang^3
#
#
#
# Elastic Constant Matrix: (Units=GPa)
#
#
# Indices 1 2 3 4 5 6 
#
# 1 45.4018 0.1214 -3.4099 0.0000 0.0000 0.0000
# 2 0.1214 45.4018 -3.4099 0.0000 0.0000 0.0000
# 3 -3.4099 -3.4099 106.6967 0.0000 0.0000 0.0000
# 4 0.0000 0.0000 0.0000 50.6858 0.0000 0.0000
# 5 0.0000 0.0000 0.0000 0.0000 50.6858 0.0000
# 6 0.0000 0.0000 0.0000 0.0000 0.0000 4.0931
#
#
#
# Elastic Compliance Matrix: (Units=1/GPa)
#
#
# Indices 1 2 3 4 5 6 
#
# 1 0.022079 -0.000006 0.000705 0.000000 0.000000 0.000000
# 2 -0.000006 0.022079 0.000705 0.000000 0.000000 0.000000
# 3 0.000705 0.000705 0.009417 0.000000 0.000000 0.000000
# 4 0.000000 0.000000 0.000000 0.019729 0.000000 0.000000
# 5 0.000000 0.000000 0.000000 0.000000 0.019729 0.000000
# 6 0.000000 0.000000 0.000000 0.000000 0.000000 0.244316
#
#
# Mechanical properties :
#
#
# Convention : Reuss Voigt Hill
#
# Bulk Modulus (GPa) = 17.73551 20.45594 19.09573
# Shear Modulus (GPa) = 14.15090 34.70620 24.42855
#
# Velocity S-wave (km/s) = 2.65822 4.16296 3.49259
# Velocity P-wave (km/s) = 4.27523 5.77247 5.07932
#
# Compressibility (1/GPa) = 0.05638407
#
# Stress axis : x y z
#
# Youngs Moduli (GPa) = 45.29283 45.29283 106.18588
#
# Poissons Ratio (x) = 0.00028 -0.07491
# Poissons Ratio (y) = 0.00028 -0.07491
# Poissons Ratio (z) = -0.03195 -0.03195
#
# Static dielectric constant tensor:
#      x y z
#    x 1.665920 0.000000 0.000000 
#    y 0.000000 1.665920 0.000000 
#    z 0.000000 0.000000 1.707210 
# 
# From -- ./inp_files/3163.got.cif
#   From: 2010.05.17/outbox.cif.g08.bks.cpg/sg92_2_cif.got.tgz:3163.got - 2010.06.03 19:35:17.
