data_PCOD9549075
_publ_section_title
;
Structure prediction by ZEFSAII (Michael W. Deem and Ramdas Pophale) SiO2 
 PCOD9549075
Probable space group: P 41 21 2
;
_chemical_formula_sum "Si O2"
_cell_formula_units_Z 40
_cell_length_a 8.356756
_cell_length_b 8.356756
_cell_length_c 24.136180
_cell_angle_alpha 90.000000
_cell_angle_beta 90.000000
_cell_angle_gamma 90.000000
_cell_volume 1685.559081
_symmetry_space_group_name_H-M "P 41 21 2"
_symmetry_group_IT_number 92
_symmetry_cell_setting 'tetragonal'
loop_
_space_group_symop_operation_xyz
x,y,z
1/2-y,1/2+x,1/4+z
-x,-y,1/2+z
1/2+y,1/2-x,3/4+z
1/2+x,1/2-y,3/4-z
1/2-x,1/2+y,1/4-z
y,x,-z
-y,-x,1/2-z
loop_
_atom_site_type_symbol
_atom_site_label
_atom_site_fract_x
_atom_site_fract_y
_atom_site_fract_z
Si Si1 0.232502 0.454316 0.687907
Si Si2 0.624691 0.415692 0.817136
Si Si3 0.280739 0.279821 0.193864
Si Si4 0.442018 0.212437 0.510130
Si Si5 0.476681 0.992731 0.156189
O O1 0.402812 0.413757 0.662929
O O2 0.239409 0.349132 0.744074
O O3 0.210341 0.635487 0.708624
O O4 0.084955 0.448427 0.645937
O O5 0.618548 0.381453 0.750000
O O6 0.451458 0.334924 0.829275
O O7 0.812867 0.403195 0.834906
O O8 0.093196 0.289118 0.200886
O O9 0.342386 0.129176 0.159994
O O10 0.393574 0.393574 0.500000
O O11 0.486172 0.102066 0.457788
#
# Coordination Sequence:
#
# PCOD9549075 Si02
#       5
#     8   8   8   8   8
#     4  10  22  41  65  96 118 173 226 265 330 410
#     4  10  20  41  66  90 123 177 211 271 336 390
#     4  10  23  44  63  95 139 168 215 279 343 398
#     4  11  23  41  64  93 132 169 218 278 336 409
#     4  11  23  42  68  96 126 174 227 273 335 413
#
# _framework density 23.730999000000001
#
# number of rings (size 3 to 8) (size 9 to 14) (size 15 to 20)
#    0.000    1.600    4.000    3.000    5.600    0.800 
#    3.600    0.000    0.000    0.000    0.000    0.000 
#    0.000    0.000    0.000    0.000    0.000    0.000 
#
# Total GULP energy -222770.836703 kJ/mol
# GULP energy per Si atom -5569.270918 kJ/mol
# Density = 2.367699 g / cm^3
# Si number density = 23.730999 Si / 1000 Ang^3
#
#
#
# Elastic Constant Matrix: (Units=GPa)
#
#
# Indices 1 2 3 4 5 6 
#
# 1 45.2418 179.8579 27.6768 0.0000 0.0000 0.0000
# 2 179.8579 45.2435 27.6763 0.0000 0.0000 0.0000
# 3 27.6768 27.6763 79.7095 0.0000 0.0000 0.0000
# 4 0.0000 0.0000 0.0000 23.7202 0.0000 0.0000
# 5 0.0000 0.0000 0.0000 0.0000 23.7202 0.0000
# 6 0.0000 0.0000 0.0000 0.0000 0.0000 45.3487
#
#
#
# Elastic Compliance Matrix: (Units=1/GPa)
#
#
# Indices 1 2 3 4 5 6 
#
# 1 -0.001286 0.006143 -0.001686 0.000000 0.000000 0.000000
# 2 0.006143 -0.001286 -0.001687 0.000000 0.000000 0.000000
# 3 -0.001686 -0.001687 0.013717 0.000000 0.000000 0.000000
# 4 0.000000 0.000000 0.000000 0.042158 0.000000 0.000000
# 5 0.000000 0.000000 0.000000 0.000000 0.042158 0.000000
# 6 0.000000 0.000000 0.000000 0.000000 0.000000 0.022051
#
#
# Mechanical properties :
#
#
# Convention : Reuss Voigt Hill
#
# Bulk Modulus (GPa) = 59.93378 71.17964 65.55671
# Shear Modulus (GPa) = 42.54057 14.22342 28.38199
#
# Velocity S-wave (km/s) = 4.23852 2.45084 3.46206
# Velocity P-wave (km/s) = 7.01881 6.16995 6.60803
#
# Compressibility (1/GPa) = 0.01668508
#
# Stress axis : x y z
#
# Youngs Moduli (GPa) = -777.76246 -777.80692 72.90376
#
# Poissons Ratio (x) = 4.77797 0.12295
# Poissons Ratio (y) = 4.77770 0.12295
# Poissons Ratio (z) = -1.31167 -1.31179
#
# Static dielectric constant tensor:
#      x y z
#    x 2.000150 0.000000 0.000000 
#    y 0.000000 2.000150 0.000000 
#    z 0.000000 0.000000 2.069920 
# 
# From -- ./inp_files/3783.got.cif
#   From: 2010.05.17/outbox.cif.g08.bks.cpg/sg92_2_cif.got.tgz:3783.got - 2010.06.03 19:35:17.
