data_PCOD9549864
_publ_section_title
;
Structure prediction by ZEFSAII (Michael W. Deem and Ramdas Pophale) SiO2 
 PCOD9549864
Probable space group: P 42 2 2
;
_chemical_formula_sum "Si O2"
_cell_formula_units_Z 40
_cell_length_a 14.594686
_cell_length_b 14.594686
_cell_length_c 8.649571
_cell_angle_alpha 90.000000
_cell_angle_beta 90.000000
_cell_angle_gamma 90.000000
_cell_volume 1842.400655
_symmetry_space_group_name_H-M "P 42 2 2"
_symmetry_group_IT_number 93
_symmetry_cell_setting 'tetragonal'
loop_
_space_group_symop_operation_xyz
x,y,z
-y,x,1/2+z
-x,-y,z
y,-x,1/2+z
x,-y,-z
-x,y,-z
y,x,1/2-z
-y,-x,1/2-z
loop_
_atom_site_type_symbol
_atom_site_label
_atom_site_fract_x
_atom_site_fract_y
_atom_site_fract_z
Si Si1 0.669169 0.933148 0.625988
Si Si2 0.435837 0.332677 0.864344
Si Si3 0.678264 0.931506 0.135086
Si Si4 0.492895 0.159986 0.312251
Si Si5 0.231837 0.756591 0.432351
O O1 0.586309 0.894203 0.726642
O O2 0.713899 0.849745 0.529884
O O3 0.626379 0.000000 0.500000
O O4 0.726525 0.999601 0.739971
O O5 0.412541 0.412541 0.750000
O O6 0.490105 0.256890 0.766582
O O7 0.337865 0.290440 0.924129
O O8 0.500000 0.362123 0.000000
O O9 0.594270 0.884773 0.228020
O O10 0.737088 0.852845 0.046707
O O11 0.646397 0.000000 0.000000
O O12 0.500000 0.167239 0.500000
O O13 0.217531 0.782470 0.250000
#
# Coordination Sequence:
#
# PCOD9549864 Si02
#       5
#     8   8   8   8   8
#     4  12  25  42  64 104 153 190 244 320 379 459
#     4  11  22  43  73 106 149 202 254 303 369 451
#     4  12  24  39  69 104 145 200 248 315 398 458
#     4  12  24  40  65 109 153 184 234 318 392 453
#     4  11  22  42  67 103 147 191 250 303 378 459
#
# _framework density 21.710805000000001
#
# number of rings (size 3 to 8) (size 9 to 14) (size 15 to 20)
#    0.000    0.400   10.000    0.600    0.000    3.200 
#    0.000    3.000    0.000    2.400    0.000    0.000 
#    0.000    0.000    0.000    0.000    0.000    0.000 
#
# Total GULP energy -222998.664962 kJ/mol
# GULP energy per Si atom -5574.966624 kJ/mol
# Density = 2.166139 g / cm^3
# Si number density = 21.710805 Si / 1000 Ang^3
#
#
#
# Elastic Constant Matrix: (Units=GPa)
#
#
# Indices 1 2 3 4 5 6 
#
# 1 114.0558 70.4168 65.9258 0.0000 0.0000 0.0000
# 2 70.4168 114.0556 65.9257 0.0000 0.0000 0.0000
# 3 65.9258 65.9257 121.3020 0.0000 0.0000 0.0000
# 4 0.0000 0.0000 0.0000 44.1704 0.0000 0.0000
# 5 0.0000 0.0000 0.0000 0.0000 44.1702 0.0000
# 6 0.0000 0.0000 0.0000 0.0000 0.0000 6.7313
#
#
#
# Elastic Compliance Matrix: (Units=1/GPa)
#
#
# Indices 1 2 3 4 5 6 
#
# 1 0.015890 -0.007026 -0.004818 0.000000 0.000000 0.000000
# 2 -0.007026 0.015890 -0.004818 0.000000 0.000000 0.000000
# 3 -0.004818 -0.004818 0.013480 0.000000 0.000000 0.000000
# 4 0.000000 0.000000 0.000000 0.022640 0.000000 0.000000
# 5 0.000000 0.000000 0.000000 0.000000 0.022640 0.000000
# 6 0.000000 0.000000 0.000000 0.000000 0.000000 0.148561
#
#
# Mechanical properties :
#
#
# Convention : Reuss Voigt Hill
#
# Bulk Modulus (GPa) = 83.76190 83.77222 83.76706
# Shear Modulus (GPa) = 18.08967 28.82403 23.45685
#
# Velocity S-wave (km/s) = 2.88967 3.64763 3.29054
# Velocity P-wave (km/s) = 7.05678 7.51063 7.28723
#
# Compressibility (1/GPa) = 0.01193860
#
# Stress axis : x y z
#
# Youngs Moduli (GPa) = 62.93360 62.93345 74.18160
#
# Poissons Ratio (x) = 0.44214 0.35737
# Poissons Ratio (y) = 0.44214 0.35737
# Poissons Ratio (z) = 0.30319 0.30319
#
# Static dielectric constant tensor:
#      x y z
#    x 1.915210 0.000000 0.000000 
#    y 0.000000 1.915210 0.000000 
#    z 0.000000 0.000000 1.897650 
# 
# From -- ./inp_files/1844.got.cif
#   From: 2010.05.17/outbox.cif.g08.bks.cpg/sg93_1_cif.got.tgz:1844.got - 2010.06.03 19:38:44.
