data_PCOD9549272
_publ_section_title
;
Structure prediction by ZEFSAII (Michael W. Deem and Ramdas Pophale) SiO2 
 PCOD9549272
Probable space group: P 41 21 2
;
_chemical_formula_sum "Si O2"
_cell_formula_units_Z 40
_cell_length_a 8.317170
_cell_length_b 8.317170
_cell_length_c 24.562311
_cell_angle_alpha 90.000000
_cell_angle_beta 90.000000
_cell_angle_gamma 90.000000
_cell_volume 1699.105645
_symmetry_space_group_name_H-M "P 41 21 2"
_symmetry_group_IT_number 92
_symmetry_cell_setting 'tetragonal'
loop_
_space_group_symop_operation_xyz
x,y,z
1/2-y,1/2+x,1/4+z
-x,-y,1/2+z
1/2+y,1/2-x,3/4+z
1/2+x,1/2-y,3/4-z
1/2-x,1/2+y,1/4-z
y,x,-z
-y,-x,1/2-z
loop_
_atom_site_type_symbol
_atom_site_label
_atom_site_fract_x
_atom_site_fract_y
_atom_site_fract_z
Si Si1 0.433299 0.440369 0.340675
Si Si2 0.795367 0.366362 0.703756
Si Si3 0.236111 0.280642 0.247686
Si Si4 0.023716 0.699355 0.095020
Si Si5 0.283452 0.418250 0.549233
O O1 0.382504 0.618251 0.322987
O O2 0.361041 0.319729 0.296123
O O3 0.626283 0.439886 0.340581
O O4 0.375934 0.399362 0.401117
O O5 0.768051 0.231950 0.750000
O O6 0.827861 0.543703 0.728077
O O7 0.916683 0.325896 0.655954
O O8 0.328647 0.201334 0.197311
O O9 0.089000 0.180979 0.271594
O O10 0.892058 0.571991 0.076115
O O11 0.292860 0.292860 0.500000
#
# Coordination Sequence:
#
# PCOD9549272 Si02
#       5
#     8   8   8   8   8
#     4  10  22  43  64  88 124 167 212 263 314 374
#     4   9  21  41  65  91 125 168 210 254 316 384
#     4  10  23  42  63  91 130 168 207 260 323 382
#     4  11  23  41  66  92 128 167 211 266 321 380
#     4  12  25  39  64  96 126 162 213 265 317 378
#
# _framework density 23.541793999999999
#
# number of rings (size 3 to 8) (size 9 to 14) (size 15 to 20)
#    0.000    1.600    0.000    5.400    0.000   13.600 
#    0.000    0.000    0.000    0.000    0.000    0.000 
#    0.000    0.000    0.000    0.000    0.000    0.000 
#
# Total GULP energy -224025.278485 kJ/mol
# GULP energy per Si atom -5600.631962 kJ/mol
# Density = 2.348821 g / cm^3
# Si number density = 23.541794 Si / 1000 Ang^3
#
#
#
# Elastic Constant Matrix: (Units=GPa)
#
#
# Indices 1 2 3 4 5 6 
#
# 1 35.9444 10.5507 32.2684 0.0000 0.0000 0.0000
# 2 10.5507 35.9447 32.2685 0.0000 0.0000 0.0000
# 3 32.2684 32.2685 175.7795 0.0000 0.0000 0.0000
# 4 0.0000 0.0000 0.0000 34.3498 0.0000 0.0000
# 5 0.0000 0.0000 0.0000 0.0000 34.3499 0.0000
# 6 0.0000 0.0000 0.0000 0.0000 0.0000 13.0746
#
#
#
# Elastic Compliance Matrix: (Units=1/GPa)
#
#
# Indices 1 2 3 4 5 6 
#
# 1 0.034121 -0.005259 -0.005298 0.000000 0.000000 0.000000
# 2 -0.005259 0.034120 -0.005298 0.000000 0.000000 0.000000
# 3 -0.005298 -0.005298 0.007634 0.000000 0.000000 0.000000
# 4 0.000000 0.000000 0.000000 0.029112 0.000000 0.000000
# 5 0.000000 0.000000 0.000000 0.000000 0.029112 0.000000
# 6 0.000000 0.000000 0.000000 0.000000 0.000000 0.076484
#
#
# Mechanical properties :
#
#
# Convention : Reuss Voigt Hill
#
# Bulk Modulus (GPa) = 22.64256 44.20487 33.42372
# Shear Modulus (GPa) = 19.45404 27.86028 23.65716
#
# Velocity S-wave (km/s) = 2.87777 3.44385 3.17346
# Velocity P-wave (km/s) = 4.54763 5.88484 5.25892
#
# Compressibility (1/GPa) = 0.04416461
#
# Stress axis : x y z
#
# Youngs Moduli (GPa) = 29.30766 29.30791 130.98983
#
# Poissons Ratio (x) = 0.15413 0.69402
# Poissons Ratio (y) = 0.15413 0.69401
# Poissons Ratio (z) = 0.15528 0.15528
#
# Static dielectric constant tensor:
#      x y z
#    x 1.892180 0.000000 0.000000 
#    y 0.000000 1.892180 0.000000 
#    z 0.000000 0.000000 1.867470 
# 
# From -- ./inp_files/3760.got.cif
#   From: 2010.05.17/outbox.cif.g08.bks.cpg/sg92_2_cif.got.tgz:3760.got - 2010.06.03 19:35:17.
