data_PCOD9549019
_publ_section_title
;
Structure prediction by ZEFSAII (Michael W. Deem and Ramdas Pophale) SiO2 
 PCOD9549019
Probable space group: P 41 21 2
;
_chemical_formula_sum "Si O2"
_cell_formula_units_Z 36
_cell_length_a 14.052176
_cell_length_b 14.052176
_cell_length_c 7.109431
_cell_angle_alpha 90.000000
_cell_angle_beta 90.000000
_cell_angle_gamma 90.000000
_cell_volume 1403.854197
_symmetry_space_group_name_H-M "P 41 21 2"
_symmetry_group_IT_number 92
_symmetry_cell_setting 'tetragonal'
loop_
_space_group_symop_operation_xyz
x,y,z
1/2-y,1/2+x,1/4+z
-x,-y,1/2+z
1/2+y,1/2-x,3/4+z
1/2+x,1/2-y,3/4-z
1/2-x,1/2+y,1/4-z
y,x,-z
-y,-x,1/2-z
loop_
_atom_site_type_symbol
_atom_site_label
_atom_site_fract_x
_atom_site_fract_y
_atom_site_fract_z
Si Si1 0.475368 0.524633 0.250000
Si Si2 0.783827 0.430654 0.619852
Si Si3 0.525317 0.697714 0.712076
Si Si4 0.114653 0.189809 0.236489
Si Si5 0.387833 0.952117 0.628539
O O1 0.452019 0.413230 0.223743
O O2 0.407584 0.560719 0.418983
O O3 0.734752 0.516631 0.501283
O O4 0.768385 0.427172 0.842514
O O5 0.723073 0.336535 0.556993
O O6 0.888906 0.429930 0.543372
O O7 0.573440 0.775716 0.848303
O O8 0.420070 0.708195 0.805317
O O9 0.440671 0.916291 0.815664
#
# Coordination Sequence:
#
# PCOD9549019 Si02
#       5
#     4   8   8   8   8
#     4  10  20  36  64  96 126 152 200 252 322 388
#     4   9  20  39  58  88 122 159 206 256 305 371
#     4  11  20  38  61  88 124 158 205 261 312 373
#     4  10  21  36  64  91 125 165 194 256 330 375
#     4  10  24  42  63  87 124 170 219 264 309 370
#
# _framework density 25.643688999999998
#
# number of rings (size 3 to 8) (size 9 to 14) (size 15 to 20)
#    0.000    2.222    2.222    0.667    6.222    0.000 
#    0.000   26.667    0.000    0.000    0.000    0.000 
#    0.000    0.000    0.000    0.000    0.000    0.000 
#
# Total GULP energy -200582.361355 kJ/mol
# GULP energy per Si atom -5571.732260 kJ/mol
# Density = 2.558532 g / cm^3
# Si number density = 25.643689 Si / 1000 Ang^3
#
#
#
# Elastic Constant Matrix: (Units=GPa)
#
#
# Indices 1 2 3 4 5 6 
#
# 1 75.9057 22.0905 -15.0567 0.0000 0.0000 0.0000
# 2 22.0905 75.9049 -15.0569 0.0000 0.0000 0.0000
# 3 -15.0567 -15.0569 89.7763 0.0000 0.0000 0.0000
# 4 0.0000 0.0000 0.0000 31.6721 0.0000 0.0000
# 5 0.0000 0.0000 0.0000 0.0000 31.6721 0.0000
# 6 0.0000 0.0000 0.0000 0.0000 0.0000 25.1142
#
#
#
# Elastic Compliance Matrix: (Units=1/GPa)
#
#
# Indices 1 2 3 4 5 6 
#
# 1 0.014671 -0.003912 0.001804 0.000000 0.000000 0.000000
# 2 -0.003912 0.014671 0.001804 0.000000 0.000000 0.000000
# 3 0.001804 0.001804 0.011744 0.000000 0.000000 0.000000
# 4 0.000000 0.000000 0.000000 0.031574 0.000000 0.000000
# 5 0.000000 0.000000 0.000000 0.000000 0.031574 0.000000
# 6 0.000000 0.000000 0.000000 0.000000 0.000000 0.039818
#
#
# Mechanical properties :
#
#
# Convention : Reuss Voigt Hill
#
# Bulk Modulus (GPa) = 24.70365 25.06009 24.88187
# Shear Modulus (GPa) = 31.61570 34.33234 32.97402
#
# Velocity S-wave (km/s) = 3.51505 3.66296 3.58977
# Velocity P-wave (km/s) = 5.11160 5.26150 5.18709
#
# Compressibility (1/GPa) = 0.04047985
#
# Stress axis : x y z
#
# Youngs Moduli (GPa) = 68.16384 68.16302 85.14943
#
# Poissons Ratio (x) = 0.26663 -0.15364
# Poissons Ratio (y) = 0.26663 -0.15365
# Poissons Ratio (z) = -0.12300 -0.12300
#
# Static dielectric constant tensor:
#      x y z
#    x 2.122690 0.000000 0.000000 
#    y 0.000000 2.122690 0.000000 
#    z 0.000000 0.000000 2.126640 
# 
# From -- ./inp_files/1227.got.cif
#   From: 2010.05.17/outbox.cif.g08.bks.cpg/sg92_1_cif.got.tgz:1227.got - 2010.06.03 19:35:17.
