data_PCOD9549662
_publ_section_title
;
Structure prediction by ZEFSAII (Michael W. Deem and Ramdas Pophale) SiO2 
 PCOD9549662
Probable space group: P 42 2 2
;
_chemical_formula_sum "Si O2"
_cell_formula_units_Z 18
_cell_length_a 8.571873
_cell_length_b 8.571873
_cell_length_c 11.025770
_cell_angle_alpha 90.000000
_cell_angle_beta 90.000000
_cell_angle_gamma 90.000000
_cell_volume 810.140576
_symmetry_space_group_name_H-M "P 42 2 2"
_symmetry_group_IT_number 93
_symmetry_cell_setting 'tetragonal'
loop_
_space_group_symop_operation_xyz
x,y,z
-y,x,1/2+z
-x,-y,z
y,-x,1/2+z
x,-y,-z
-x,y,-z
y,x,1/2-z
-y,-x,1/2-z
loop_
_atom_site_type_symbol
_atom_site_label
_atom_site_fract_x
_atom_site_fract_y
_atom_site_fract_z
Si Si1 0.833520 0.660381 0.560833
Si Si2 0.923115 0.664312 0.842207
Si Si3 0.000000 0.000000 0.750000
O O1 0.783980 0.500000 0.500000
O O2 0.861539 0.637142 0.704190
O O3 0.704343 0.793076 0.557759
O O4 0.000000 0.703394 0.500000
O O5 0.000000 0.500000 0.869733
O O6 0.002325 0.836908 0.825041
#
# Coordination Sequence:
#
# PCOD9549662 Si02
#       3
#     8   8   2
#     4   9  16  32  62 102 139 175 232 298 349 409
#     4  10  19  35  66 102 130 192 228 279 367 425
#     4   8  20  36  62 104 140 174 228 308 344 410
#
# _framework density 22.218366
#
# number of rings (size 3 to 8) (size 9 to 14) (size 15 to 20)
#    0.000    3.111    4.444    0.000    0.000    0.000 
#    0.000   17.778    0.000   44.000    0.000    0.000 
#    0.000    0.000    0.000    0.000    0.000    0.000 
#
# Total GULP energy -100259.456755 kJ/mol
# GULP energy per Si atom -5569.969820 kJ/mol
# Density = 2.216780 g / cm^3
# Si number density = 22.218366 Si / 1000 Ang^3
#
#
#
# Elastic Constant Matrix: (Units=GPa)
#
#
# Indices 1 2 3 4 5 6 
#
# 1 198.6808 129.3174 46.2927 0.0000 0.0000 0.0000
# 2 129.3174 198.6808 46.2927 0.0000 0.0000 0.0000
# 3 46.2927 46.2927 105.2066 0.0000 0.0000 0.0000
# 4 0.0000 0.0000 0.0000 22.0725 0.0000 0.0000
# 5 0.0000 0.0000 0.0000 0.0000 22.0725 0.0000
# 6 0.0000 0.0000 0.0000 0.0000 0.0000 45.8372
#
#
#
# Elastic Compliance Matrix: (Units=1/GPa)
#
#
# Indices 1 2 3 4 5 6 
#
# 1 0.008949 -0.005468 -0.001532 0.000000 0.000000 0.000000
# 2 -0.005468 0.008949 -0.001532 0.000000 0.000000 0.000000
# 3 -0.001532 -0.001532 0.010853 0.000000 0.000000 0.000000
# 4 0.000000 0.000000 0.000000 0.045305 0.000000 0.000000
# 5 0.000000 0.000000 0.000000 0.000000 0.045305 0.000000
# 6 0.000000 0.000000 0.000000 0.000000 0.000000 0.021816
#
#
# Mechanical properties :
#
#
# Convention : Reuss Voigt Hill
#
# Bulk Modulus (GPa) = 85.55515 105.15265 95.35390
# Shear Modulus (GPa) = 30.83812 36.70745 33.77278
#
# Velocity S-wave (km/s) = 3.72957 4.06904 3.90300
# Velocity P-wave (km/s) = 7.55886 8.33701 7.95745
#
# Compressibility (1/GPa) = 0.01168837
#
# Stress axis : x y z
#
# Youngs Moduli (GPa) = 111.74433 111.74433 92.13940
#
# Poissons Ratio (x) = 0.61100 0.14114
# Poissons Ratio (y) = 0.61100 0.14114
# Poissons Ratio (z) = 0.17117 0.17117
#
# Static dielectric constant tensor:
#      x y z
#    x 1.881200 0.000000 0.000000 
#    y 0.000000 1.881200 0.000000 
#    z 0.000000 0.000000 1.833470 
# 
# From -- ./inp_files/2448.got.cif
#   From: 2010.05.17/outbox.cif.g08.bks.cpg/sg93_2_cif.got.tgz:2448.got - 2010.06.03 19:38:44.
