data_PCOD9549641
_publ_section_title
;
Structure prediction by ZEFSAII (Michael W. Deem and Ramdas Pophale) SiO2 
 PCOD9549641
Probable space group: P 42 2 2
;
_chemical_formula_sum "Si O2"
_cell_formula_units_Z 38
_cell_length_a 11.811456
_cell_length_b 11.811456
_cell_length_c 13.566043
_cell_angle_alpha 90.000000
_cell_angle_beta 90.000000
_cell_angle_gamma 90.000000
_cell_volume 1892.605345
_symmetry_space_group_name_H-M "P 42 2 2"
_symmetry_group_IT_number 93
_symmetry_cell_setting 'tetragonal'
loop_
_space_group_symop_operation_xyz
x,y,z
-y,x,1/2+z
-x,-y,z
y,-x,1/2+z
x,-y,-z
-x,y,-z
y,x,1/2-z
-y,-x,1/2-z
loop_
_atom_site_type_symbol
_atom_site_label
_atom_site_fract_x
_atom_site_fract_y
_atom_site_fract_z
Si Si1 0.559210 0.191268 0.643516
Si Si2 0.305176 0.037512 0.102473
Si Si3 0.217079 0.782922 0.750000
Si Si4 0.402282 0.587510 0.131031
Si Si5 0.500000 0.000000 0.500000
Si Si6 0.470993 0.837437 0.133903
O O1 0.684417 0.235477 0.668526
O O2 0.470426 0.283848 0.603904
O O3 0.566981 0.083687 0.572696
O O4 0.513383 0.163702 0.752581
O O5 0.234792 0.101545 0.187611
O O6 0.415897 0.116703 0.079155
O O7 0.366687 0.923562 0.137411
O O8 0.246423 0.000000 0.000000
O O9 0.500000 0.500000 0.103890
O O10 0.404513 0.595488 0.250000
O O11 0.430345 0.714371 0.099270
#
# Coordination Sequence:
#
# PCOD9549641 Si02
#       6
#     8   8   4   8   2   8
#     4  10  20  35  56  83 120 157 190 240 303 367
#     4  10  19  32  54  82 115 157 204 251 297 358
#     4  10  20  38  61  86 117 158 206 258 312 362
#     4   9  16  30  54  83 114 146 180 225 290 362
#     4  12  24  36  50  84 124 160 204 242 304 378
#     4   9  17  32  53  82 120 158 194 233 292 369
#
# _framework density 20.078143000000001
#
# number of rings (size 3 to 8) (size 9 to 14) (size 15 to 20)
#    0.000    2.316    0.000    7.579    0.000    1.684 
#    0.000    2.632    0.000    0.000    0.000   36.842 
#    0.000    1.684    0.000    0.000    0.000    0.000 
#
# Total GULP energy -211847.067931 kJ/mol
# GULP energy per Si atom -5574.922840 kJ/mol
# Density = 2.003244 g / cm^3
# Si number density = 20.078143 Si / 1000 Ang^3
#
#
#
# Elastic Constant Matrix: (Units=GPa)
#
#
# Indices 1 2 3 4 5 6 
#
# 1 117.5802 48.5240 30.0852 0.0000 0.0000 0.0000
# 2 48.5240 117.5804 30.0854 0.0000 0.0000 0.0000
# 3 30.0852 30.0854 85.7372 0.0000 0.0000 0.0000
# 4 0.0000 0.0000 0.0000 14.0669 0.0000 0.0000
# 5 0.0000 0.0000 0.0000 0.0000 14.0677 0.0000
# 6 0.0000 0.0000 0.0000 0.0000 0.0000 21.6118
#
#
#
# Elastic Compliance Matrix: (Units=1/GPa)
#
#
# Indices 1 2 3 4 5 6 
#
# 1 0.010689 -0.003792 -0.002420 0.000000 0.000000 0.000000
# 2 -0.003792 0.010689 -0.002420 0.000000 0.000000 0.000000
# 3 -0.002420 -0.002420 0.013362 0.000000 0.000000 0.000000
# 4 0.000000 0.000000 0.000000 0.071089 0.000000 0.000000
# 5 0.000000 0.000000 0.000000 0.000000 0.071085 0.000000
# 6 0.000000 0.000000 0.000000 0.000000 0.000000 0.046271
#
#
# Mechanical properties :
#
#
# Convention : Reuss Voigt Hill
#
# Bulk Modulus (GPa) = 57.22338 59.80965 58.51651
# Shear Modulus (GPa) = 20.30256 24.09616 22.19936
#
# Velocity S-wave (km/s) = 3.18335 3.46803 3.32874
# Velocity P-wave (km/s) = 6.48643 6.77417 6.63187
#
# Compressibility (1/GPa) = 0.01747537
#
# Stress axis : x y z
#
# Youngs Moduli (GPa) = 93.55431 93.55438 74.83896
#
# Poissons Ratio (x) = 0.35475 0.18112
# Poissons Ratio (y) = 0.35475 0.18112
# Poissons Ratio (z) = 0.22642 0.22642
#
# Static dielectric constant tensor:
#      x y z
#    x 1.730920 0.000000 0.000000 
#    y 0.000000 1.730910 0.000000 
#    z 0.000000 0.000000 1.799290 
# 
# From -- ./inp_files/4399.got.cif
#   From: 2010.05.17/outbox.cif.g08.bks.cpg/sg93_3_cif.got.tgz:4399.got - 2010.06.03 19:38:44.
