data_PCOD9549245
_publ_section_title
;
Structure prediction by ZEFSAII (Michael W. Deem and Ramdas Pophale) SiO2 
 PCOD9549245
Probable space group: P 41 21 2
;
_chemical_formula_sum "Si O2"
_cell_formula_units_Z 28
_cell_length_a 8.553342
_cell_length_b 8.553342
_cell_length_c 20.597420
_cell_angle_alpha 90.000000
_cell_angle_beta 90.000000
_cell_angle_gamma 90.000000
_cell_volume 1506.900231
_symmetry_space_group_name_H-M "P 41 21 2"
_symmetry_group_IT_number 92
_symmetry_cell_setting 'tetragonal'
loop_
_space_group_symop_operation_xyz
x,y,z
1/2-y,1/2+x,1/4+z
-x,-y,1/2+z
1/2+y,1/2-x,3/4+z
1/2+x,1/2-y,3/4-z
1/2-x,1/2+y,1/4-z
y,x,-z
-y,-x,1/2-z
loop_
_atom_site_type_symbol
_atom_site_label
_atom_site_fract_x
_atom_site_fract_y
_atom_site_fract_z
Si Si1 0.423420 0.175276 0.488859
Si Si2 0.494906 0.023738 0.865402
Si Si3 0.484578 0.484578 0.000000
Si Si4 0.737340 0.728883 0.573117
O O1 0.253063 0.253063 0.500000
O O2 0.456430 0.049288 0.544890
O O3 0.534885 0.328499 0.496020
O O4 0.450857 0.101917 0.418499
O O5 0.631490 0.150499 0.858309
O O6 0.342945 0.114069 0.891899
O O7 0.392071 0.407382 0.059902
O O8 0.781123 0.781123 0.500000
#
# Coordination Sequence:
#
# PCOD9549245 Si02
#       4
#     8   8   4   8
#     4  10  24  38  67  93 125 167 210 273 311 381
#     4  12  22  44  64  94 129 172 215 260 334 376
#     4   8  20  40  60  96 122 160 210 270 306 384
#     4  10  22  41  63  93 127 172 211 265 314 391
#
# _framework density 18.581188000000001
#
# number of rings (size 3 to 8) (size 9 to 14) (size 15 to 20)
#    1.714    0.000    2.857    1.714    4.000    0.000 
#    0.000    1.429    0.000    0.000    0.000    0.000 
#    0.000    0.000    0.000    0.000    0.000    0.000 
#
# Total GULP energy -155887.762785 kJ/mol
# GULP energy per Si atom -5567.420099 kJ/mol
# Density = 1.853890 g / cm^3
# Si number density = 18.581188 Si / 1000 Ang^3
#
#
#
# Elastic Constant Matrix: (Units=GPa)
#
#
# Indices 1 2 3 4 5 6 
#
# 1 14.0468 13.1668 -7.9245 0.0000 0.0000 0.0000
# 2 13.1668 14.0468 -7.9245 0.0000 0.0000 0.0000
# 3 -7.9245 -7.9245 46.7300 0.0000 0.0000 0.0000
# 4 0.0000 0.0000 0.0000 28.5358 0.0000 0.0000
# 5 0.0000 0.0000 0.0000 0.0000 28.5358 0.0000
# 6 0.0000 0.0000 0.0000 0.0000 0.0000 42.7485
#
#
#
# Elastic Compliance Matrix: (Units=1/GPa)
#
#
# Indices 1 2 3 4 5 6 
#
# 1 0.588560 -0.547787 0.006914 0.000000 0.000000 0.000000
# 2 -0.547787 0.588560 0.006914 0.000000 0.000000 0.000000
# 3 0.006914 0.006914 0.023745 0.000000 0.000000 0.000000
# 4 0.000000 0.000000 0.000000 0.035044 0.000000 0.000000
# 5 0.000000 0.000000 0.000000 0.000000 0.035044 0.000000
# 6 0.000000 0.000000 0.000000 0.000000 0.000000 0.023393
#
#
# Mechanical properties :
#
#
# Convention : Reuss Voigt Hill
#
# Bulk Modulus (GPa) = 7.52174 7.71771 7.61972
# Shear Modulus (GPa) = 2.07764 25.13107 13.60436
#
# Velocity S-wave (km/s) = 1.05857 3.68163 2.70878
# Velocity P-wave (km/s) = 2.35604 4.71540 3.72733
#
# Compressibility (1/GPa) = 0.13294798
#
# Stress axis : x y z
#
# Youngs Moduli (GPa) = 1.69906 1.69906 42.11486
#
# Poissons Ratio (x) = 0.93072 -0.29119
# Poissons Ratio (y) = 0.93072 -0.29119
# Poissons Ratio (z) = -0.01175 -0.01175
#
# Static dielectric constant tensor:
#      x y z
#    x 1.642240 0.000000 0.000000 
#    y 0.000000 1.642240 0.000000 
#    z 0.000000 0.000000 1.640780 
# 
# From -- ./inp_files/3300.got.cif
#   From: 2010.05.17/outbox.cif.g08.bks.cpg/sg92_2_cif.got.tgz:3300.got - 2010.06.03 19:35:17.
