data_PCOD9549297
_publ_section_title
;
Structure prediction by ZEFSAII (Michael W. Deem and Ramdas Pophale) SiO2 
 PCOD9549297
Probable space group: P 41 21 2
;
_chemical_formula_sum "Si O2"
_cell_formula_units_Z 32
_cell_length_a 10.234584
_cell_length_b 10.234584
_cell_length_c 13.694276
_cell_angle_alpha 90.000000
_cell_angle_beta 90.000000
_cell_angle_gamma 90.000000
_cell_volume 1434.430352
_symmetry_space_group_name_H-M "P 41 21 2"
_symmetry_group_IT_number 92
_symmetry_cell_setting 'tetragonal'
loop_
_space_group_symop_operation_xyz
x,y,z
1/2-y,1/2+x,1/4+z
-x,-y,1/2+z
1/2+y,1/2-x,3/4+z
1/2+x,1/2-y,3/4-z
1/2-x,1/2+y,1/4-z
y,x,-z
-y,-x,1/2-z
loop_
_atom_site_type_symbol
_atom_site_label
_atom_site_fract_x
_atom_site_fract_y
_atom_site_fract_z
Si Si1 0.682882 0.780150 0.895910
Si Si2 0.343385 0.718592 0.439427
Si Si3 0.264412 0.958983 0.325187
Si Si4 0.474462 0.471689 0.637962
O O1 0.762683 0.766319 0.792269
O O2 0.654507 0.935597 0.890557
O O3 0.569118 0.674222 0.881968
O O4 0.751015 0.751015 0.000000
O O5 0.487622 0.778741 0.465831
O O6 0.363008 0.570914 0.406507
O O7 0.289410 0.813126 0.356575
O O8 0.113267 0.993583 0.345410
O O9 0.510857 0.489144 0.750000
#
# Coordination Sequence:
#
# PCOD9549297 Si02
#       4
#     8   8   8   8
#     4  10  23  39  71  97 130 180 227 268 336 408
#     4  10  24  40  70 100 132 178 222 277 343 394
#     4  10  22  45  64  96 137 177 220 284 329 401
#     4  12  22  44  71  98 137 181 227 275 342 405
#
# _framework density 22.308509000000001
#
# number of rings (size 3 to 8) (size 9 to 14) (size 15 to 20)
#    1.500    0.000    2.500    3.000    0.000    2.000 
#    0.000   12.500    0.000    0.000    0.000    0.000 
#    0.000    0.000    0.000    0.000    0.000    0.000 
#
# Total GULP energy -178172.901139 kJ/mol
# GULP energy per Si atom -5567.903161 kJ/mol
# Density = 2.225773 g / cm^3
# Si number density = 22.308509 Si / 1000 Ang^3
#
#
#
# Elastic Constant Matrix: (Units=GPa)
#
#
# Indices 1 2 3 4 5 6 
#
# 1 65.1038 73.9847 11.1302 0.0000 0.0000 0.0000
# 2 73.9847 65.1034 11.1308 0.0000 0.0000 0.0000
# 3 11.1302 11.1308 84.4028 0.0000 0.0000 0.0000
# 4 0.0000 0.0000 0.0000 21.2061 0.0000 0.0000
# 5 0.0000 0.0000 0.0000 0.0000 21.2060 0.0000
# 6 0.0000 0.0000 0.0000 0.0000 0.0000 32.0493
#
#
#
# Elastic Compliance Matrix: (Units=1/GPa)
#
#
# Indices 1 2 3 4 5 6 
#
# 1 -0.052627 0.059972 -0.000969 0.000000 0.000000 0.000000
# 2 0.059972 -0.052627 -0.000968 0.000000 0.000000 0.000000
# 3 -0.000969 -0.000968 0.012103 0.000000 0.000000 0.000000
# 4 0.000000 0.000000 0.000000 0.047156 0.000000 0.000000
# 5 0.000000 0.000000 0.000000 0.000000 0.047157 0.000000
# 6 0.000000 0.000000 0.000000 0.000000 0.000000 0.031202
#
#
# Mechanical properties :
#
#
# Convention : Reuss Voigt Hill
#
# Bulk Modulus (GPa) = 43.63284 45.23348 44.43316
# Shear Modulus (GPa) = -65.73313 22.78322 -21.47496
#
# Velocity S-wave (km/s) = -5.43410 3.19921 -3.10600
# Velocity P-wave (km/s) = 4.44650 5.82812 2.66417
#
# Compressibility (1/GPa) = 0.02291851
#
# Stress axis : x y z
#
# Youngs Moduli (GPa) = -19.00177 -19.00160 82.62133
#
# Poissons Ratio (x) = 1.13956 0.08006
# Poissons Ratio (y) = 1.13957 0.07999
# Poissons Ratio (z) = -0.01841 -0.01840
#
# Static dielectric constant tensor:
#      x y z
#    x 1.871150 0.000000 0.000000 
#    y 0.000000 1.871150 0.000000 
#    z 0.000000 0.000000 1.970630 
# 
# From -- ./inp_files/2977.got.cif
#   From: 2010.05.17/outbox.cif.g08.bks.cpg/sg92_2_cif.got.tgz:2977.got - 2010.06.03 19:35:17.
