data_PCOD9549492
_publ_section_title
;
Structure prediction by ZEFSAII (Michael W. Deem and Ramdas Pophale) SiO2 
 PCOD9549492
Probable space group: P 41 21 2
;
_chemical_formula_sum "Si O2"
_cell_formula_units_Z 24
_cell_length_a 8.090960
_cell_length_b 8.090960
_cell_length_c 13.653196
_cell_angle_alpha 90.000000
_cell_angle_beta 90.000000
_cell_angle_gamma 90.000000
_cell_volume 893.787822
_symmetry_space_group_name_H-M "P 41 21 2"
_symmetry_group_IT_number 92
_symmetry_cell_setting 'tetragonal'
loop_
_space_group_symop_operation_xyz
x,y,z
1/2-y,1/2+x,1/4+z
-x,-y,1/2+z
1/2+y,1/2-x,3/4+z
1/2+x,1/2-y,3/4-z
1/2-x,1/2+y,1/4-z
y,x,-z
-y,-x,1/2-z
loop_
_atom_site_type_symbol
_atom_site_label
_atom_site_fract_x
_atom_site_fract_y
_atom_site_fract_z
Si Si1 0.794933 0.370133 0.344658
Si Si2 0.882440 0.007560 0.604540
Si Si3 0.128263 0.305417 0.239566
O O1 0.702946 0.297055 0.250000
O O2 0.681590 0.525504 0.375446
O O3 0.775353 0.247065 0.436318
O O4 0.981721 0.373163 0.307123
O O5 0.693177 0.060628 0.587519
O O6 0.914587 0.862761 0.681753
O O7 0.939277 0.939277 0.500000
#
# Coordination Sequence:
#
# PCOD9549492 Si02
#       3
#     8   8   8
#     4  11  23  47  77 105 147 200 256 312 379 453
#     4  11  27  47  73 112 152 203 262 316 381 450
#     4  12  26  48  76 111 153 199 255 320 383 459
#
# _framework density 26.85201
#
# number of rings (size 3 to 8) (size 9 to 14) (size 15 to 20)
#    0.000    0.667    0.000    9.000    0.000   10.667 
#    0.000    6.667    0.000    0.000    0.000    0.000 
#    0.000    0.000    0.000    0.000    0.000    0.000 
#
# Total GULP energy -134555.286694 kJ/mol
# GULP energy per Si atom -5606.470279 kJ/mol
# Density = 2.679089 g / cm^3
# Si number density = 26.852010 Si / 1000 Ang^3
#
#
#
# Elastic Constant Matrix: (Units=GPa)
#
#
# Indices 1 2 3 4 5 6 
#
# 1 156.3111 82.8629 47.7655 0.0000 0.0000 0.0000
# 2 82.8629 156.3112 47.7657 0.0000 0.0000 0.0000
# 3 47.7655 47.7657 112.3970 0.0000 0.0000 0.0000
# 4 0.0000 0.0000 0.0000 54.1020 0.0000 0.0000
# 5 0.0000 0.0000 0.0000 0.0000 54.1022 0.0000
# 6 0.0000 0.0000 0.0000 0.0000 0.0000 45.4594
#
#
#
# Elastic Compliance Matrix: (Units=1/GPa)
#
#
# Indices 1 2 3 4 5 6 
#
# 1 0.009325 -0.004290 -0.002140 0.000000 0.000000 0.000000
# 2 -0.004290 0.009325 -0.002140 0.000000 0.000000 0.000000
# 3 -0.002140 -0.002140 0.010716 0.000000 0.000000 0.000000
# 4 0.000000 0.000000 0.000000 0.018484 0.000000 0.000000
# 5 0.000000 0.000000 0.000000 0.000000 0.018484 0.000000
# 6 0.000000 0.000000 0.000000 0.000000 0.000000 0.021998
#
#
# Mechanical properties :
#
#
# Convention : Reuss Voigt Hill
#
# Bulk Modulus (GPa) = 81.78410 86.86751 84.32581
# Shear Modulus (GPa) = 45.64250 47.17440 46.40845
#
# Velocity S-wave (km/s) = 4.12731 4.19600 4.16180
# Velocity P-wave (km/s) = 7.29633 7.47636 7.38689
#
# Compressibility (1/GPa) = 0.01222732
#
# Stress axis : x y z
#
# Youngs Moduli (GPa) = 107.23355 107.23342 93.31843
#
# Poissons Ratio (x) = 0.45999 0.19971
# Poissons Ratio (y) = 0.45999 0.19971
# Poissons Ratio (z) = 0.22949 0.22949
#
# Static dielectric constant tensor:
#      x y z
#    x 2.167890 0.000000 0.000000 
#    y 0.000000 2.167880 0.000000 
#    z 0.000000 0.000000 2.061660 
# 
# From -- ./inp_files/2406.got.cif
#   From: 2010.05.17/outbox.cif.g08.bks.cpg/sg92_2_cif.got.tgz:2406.got - 2010.06.03 19:35:17.
