data_PCOD9549782
_publ_section_title
;
Structure prediction by ZEFSAII (Michael W. Deem and Ramdas Pophale) SiO2 
 PCOD9549782
Probable space group: P 42 2 2
;
_chemical_formula_sum "Si O2"
_cell_formula_units_Z 40
_cell_length_a 11.560332
_cell_length_b 11.560332
_cell_length_c 14.891546
_cell_angle_alpha 90.000000
_cell_angle_beta 90.000000
_cell_angle_gamma 90.000000
_cell_volume 1990.125208
_symmetry_space_group_name_H-M "P 42 2 2"
_symmetry_group_IT_number 93
_symmetry_cell_setting 'tetragonal'
loop_
_space_group_symop_operation_xyz
x,y,z
-y,x,1/2+z
-x,-y,z
y,-x,1/2+z
x,-y,-z
-x,y,-z
y,x,1/2-z
-y,-x,1/2-z
loop_
_atom_site_type_symbol
_atom_site_label
_atom_site_fract_x
_atom_site_fract_y
_atom_site_fract_z
Si Si1 0.978885 0.701463 0.904333
Si Si2 0.458435 0.134442 0.096460
Si Si3 0.200311 0.173204 0.152813
Si Si4 0.170670 0.936884 0.096347
Si Si5 0.642865 0.169536 0.230320
O O1 0.910035 0.824813 0.915420
O O2 0.912804 0.643247 0.819261
O O3 0.109341 0.737752 0.884653
O O4 0.000000 0.639929 0.000000
O O5 0.321477 0.152121 0.103789
O O6 0.519903 0.187923 0.183858
O O7 0.500000 0.000000 0.098546
O O8 0.500000 0.181157 0.000000
O O9 0.222348 0.222348 0.250000
O O10 0.137113 0.047541 0.156726
O O11 0.281633 0.890183 0.150483
O O12 0.184065 0.000000 0.000000
O O13 0.713444 0.286557 0.250000
#
# Coordination Sequence:
#
# PCOD9549782 Si02
#       5
#     8   8   8   8   8
#     4  11  22  31  53  86 124 168 198 240 297 376
#     4  11  22  37  60  87 121 160 209 259 307 367
#     4  12  22  34  53  83 120 158 206 244 302 355
#     4  11  19  31  51  83 124 159 199 233 296 359
#     4  10  22  38  56  86 126 163 202 256 312 362
#
# _framework density 20.099236999999999
#
# number of rings (size 3 to 8) (size 9 to 14) (size 15 to 20)
#    0.000    1.000    6.000    1.800    2.800    0.800 
#    0.000    0.000    0.000    6.000    0.000    1.400 
#    0.000    0.000    0.000    0.000    0.000    0.000 
#
# Total GULP energy -222770.249628 kJ/mol
# GULP energy per Si atom -5569.256241 kJ/mol
# Density = 2.005349 g / cm^3
# Si number density = 20.099237 Si / 1000 Ang^3
#
#
#
# Elastic Constant Matrix: (Units=GPa)
#
#
# Indices 1 2 3 4 5 6 
#
# 1 65.7842 14.9491 48.2409 0.0000 0.0000 0.0000
# 2 14.9491 65.7839 48.2410 0.0000 0.0000 0.0000
# 3 48.2409 48.2410 124.5807 0.0000 0.0000 0.0000
# 4 0.0000 0.0000 0.0000 -10.9858 0.0000 0.0000
# 5 0.0000 0.0000 0.0000 0.0000 -10.9860 0.0000
# 6 0.0000 0.0000 0.0000 0.0000 0.0000 9.5159
#
#
#
# Elastic Compliance Matrix: (Units=1/GPa)
#
#
# Indices 1 2 3 4 5 6 
#
# 1 0.021364 0.001692 -0.008928 0.000000 0.000000 0.000000
# 2 0.001692 0.021364 -0.008928 0.000000 0.000000 0.000000
# 3 -0.008928 -0.008928 0.014941 0.000000 0.000000 0.000000
# 4 0.000000 0.000000 0.000000 -0.091027 0.000000 0.000000
# 5 0.000000 0.000000 0.000000 0.000000 -0.091025 0.000000
# 6 0.000000 0.000000 0.000000 0.000000 0.000000 0.105087
#
#
# Mechanical properties :
#
#
# Convention : Reuss Voigt Hill
#
# Bulk Modulus (GPa) = 39.46097 53.22341 46.34219
# Shear Modulus (GPa) = 232.79568 7.15668 119.97618
#
# Velocity S-wave (km/s) = 10.77379 1.88902 7.73444
# Velocity P-wave (km/s) = 13.20764 5.59425 10.14242
#
# Compressibility (1/GPa) = 0.02534150
#
# Stress axis : x y z
#
# Youngs Moduli (GPa) = 46.80858 46.80818 66.92940
#
# Poissons Ratio (x) = -0.07921 0.59753
# Poissons Ratio (y) = -0.07921 0.59754
# Poissons Ratio (z) = 0.41790 0.41790
#
# Static dielectric constant tensor:
#      x y z
#    x 1.915810 0.000000 0.000000 
#    y 0.000000 1.915820 0.000000 
#    z 0.000000 0.000000 1.362490 
# 
# From -- ./inp_files/4323.got.cif
#   From: 2010.05.17/outbox.cif.g08.bks.cpg/sg93_3_cif.got.tgz:4323.got - 2010.06.03 19:38:44.
