data_PCOD9549134
_publ_section_title
;
Structure prediction by ZEFSAII (Michael W. Deem and Ramdas Pophale) SiO2 
 PCOD9549134
Probable space group: P 41 21 2
;
_chemical_formula_sum "Si O2"
_cell_formula_units_Z 56
_cell_length_a 15.054744
_cell_length_b 15.054744
_cell_length_c 11.228406
_cell_angle_alpha 90.000000
_cell_angle_beta 90.000000
_cell_angle_gamma 90.000000
_cell_volume 2544.865636
_symmetry_space_group_name_H-M "P 41 21 2"
_symmetry_group_IT_number 92
_symmetry_cell_setting 'tetragonal'
loop_
_space_group_symop_operation_xyz
x,y,z
1/2-y,1/2+x,1/4+z
-x,-y,1/2+z
1/2+y,1/2-x,3/4+z
1/2+x,1/2-y,3/4-z
1/2-x,1/2+y,1/4-z
y,x,-z
-y,-x,1/2-z
loop_
_atom_site_type_symbol
_atom_site_label
_atom_site_fract_x
_atom_site_fract_y
_atom_site_fract_z
Si Si1 0.624594 0.556162 0.609989
Si Si2 0.338521 0.124436 0.188171
Si Si3 0.302859 0.367831 0.686116
Si Si4 0.350561 0.645042 0.126743
Si Si5 0.760043 0.493499 0.007829
Si Si6 0.172494 0.423487 0.054165
Si Si7 0.165178 0.369051 0.330225
O O1 0.557996 0.557996 0.500000
O O2 0.606167 0.623692 0.716123
O O3 0.630861 0.457006 0.656284
O O4 0.720166 0.580447 0.551973
O O5 0.382246 0.205285 0.257272
O O6 0.233755 0.141350 0.208758
O O7 0.357878 0.023867 0.223546
O O8 0.363141 0.132105 0.048704
O O9 0.300260 0.434429 0.575581
O O10 0.321466 0.262701 0.660864
O O11 0.315188 0.684813 0.250000
O O12 0.431891 0.698718 0.075218
O O13 0.808167 0.422167 0.094991
O O14 0.826702 0.549868 0.923174
O O15 0.154362 0.399664 0.192042
#
# Coordination Sequence:
#
# PCOD9549134 Si02
#       7
#     8   8   8   8   8   8   8
#     4  10  21  39  66 101 135 177 236 295 353 413
#     4  11  22  41  69  97 138 184 233 296 355 421
#     4  11  24  44  73 102 145 193 230 297 371 429
#     4  11  23  41  72 101 130 180 245 299 354 420
#     4  12  26  48  71 103 147 193 241 294 370 442
#     4  10  21  39  68 102 130 180 247 290 347 416
#     4  11  24  47  71 101 141 191 242 297 361 433
#
# _framework density 22.005089999999999
#
# number of rings (size 3 to 8) (size 9 to 14) (size 15 to 20)
#    0.000    1.143    2.857    4.714    2.000    3.429 
#    7.714    0.000    0.000    0.000    0.000    0.000 
#    0.000    0.000    0.000    0.000    0.000    0.000 
#
# Total GULP energy -312691.162720 kJ/mol
# GULP energy per Si atom -5583.770763 kJ/mol
# Density = 2.195501 g / cm^3
# Si number density = 22.005090 Si / 1000 Ang^3
#
#
#
# Elastic Constant Matrix: (Units=GPa)
#
#
# Indices 1 2 3 4 5 6 
#
# 1 299.8488 -154.0496 32.3118 0.0000 0.0000 0.0000
# 2 -154.0496 299.8509 32.3146 0.0000 0.0000 0.0000
# 3 32.3118 32.3146 59.1266 0.0000 0.0000 0.0000
# 4 0.0000 0.0000 0.0000 29.9018 0.0000 0.0000
# 5 0.0000 0.0000 0.0000 0.0000 29.9019 0.0000
# 6 0.0000 0.0000 0.0000 0.0000 0.0000 16.6502
#
#
#
# Elastic Compliance Matrix: (Units=1/GPa)
#
#
# Indices 1 2 3 4 5 6 
#
# 1 0.005627 0.003424 -0.004947 0.000000 0.000000 0.000000
# 2 0.003424 0.005627 -0.004947 0.000000 0.000000 0.000000
# 3 -0.004947 -0.004947 0.022320 0.000000 0.000000 0.000000
# 4 0.000000 0.000000 0.000000 0.033443 0.000000 0.000000
# 5 0.000000 0.000000 0.000000 0.000000 0.033443 0.000000
# 6 0.000000 0.000000 0.000000 0.000000 0.000000 0.060059
#
#
# Mechanical properties :
#
#
# Convention : Reuss Voigt Hill
#
# Bulk Modulus (GPa) = 48.45960 53.33109 50.89535
# Shear Modulus (GPa) = 27.72610 65.17409 46.45010
#
# Velocity S-wave (km/s) = 3.55348 5.44812 4.59942
# Velocity P-wave (km/s) = 6.23747 7.99152 7.16835
#
# Compressibility (1/GPa) = 0.02063575
#
# Stress axis : x y z
#
# Youngs Moduli (GPa) = 177.70822 177.70766 44.80371
#
# Poissons Ratio (x) = -0.60849 0.22162
# Poissons Ratio (y) = -0.60849 0.22163
# Poissons Ratio (z) = 0.87904 0.87906
#
# Static dielectric constant tensor:
#      x y z
#    x 1.804840 0.000000 0.000000 
#    y 0.000000 1.804840 0.000000 
#    z 0.000000 0.000000 1.898750 
# 
# From -- ./inp_files/2288.got.cif
#   From: 2010.05.17/outbox.cif.g08.bks.cpg/sg92_2_cif.got.tgz:2288.got - 2010.06.03 19:35:17.
