data_PCOD9549979
_publ_section_title
;
Structure prediction by ZEFSAII (Michael W. Deem and Ramdas Pophale) SiO2 
 PCOD9549979
Probable space group: P 42 21 2
;
_chemical_formula_sum "Si O2"
_cell_formula_units_Z 64
_cell_length_a 17.374487
_cell_length_b 17.374487
_cell_length_c 11.178984
_cell_angle_alpha 90.000000
_cell_angle_beta 90.000000
_cell_angle_gamma 90.000000
_cell_volume 3374.631185
_symmetry_space_group_name_H-M "P 42 21 2"
_symmetry_group_IT_number 94
_symmetry_cell_setting 'tetragonal'
loop_
_space_group_symop_operation_xyz
x,y,z
1/2-y,1/2+x,1/2+z
-x,-y,z
1/2+y,1/2-x,1/2+z
1/2+x,1/2-y,1/2-z
1/2-x,1/2+y,1/2-z
y,x,-z
-y,-x,-z
loop_
_atom_site_type_symbol
_atom_site_label
_atom_site_fract_x
_atom_site_fract_y
_atom_site_fract_z
Si Si1 0.441625 0.159111 0.903048
Si Si2 0.849750 0.279095 0.966021
Si Si3 0.860742 0.237889 0.418995
Si Si4 0.295484 0.937307 0.785683
Si Si5 0.207804 0.160358 0.124323
Si Si6 0.791436 0.381167 0.754161
Si Si7 0.223176 0.500245 0.332906
Si Si8 0.442299 0.936895 0.613404
O O1 0.360822 0.143152 0.835357
O O2 0.495565 0.190307 0.800817
O O3 0.426121 0.223490 0.001430
O O4 0.466191 0.088038 0.984958
O O5 0.816771 0.350983 0.886416
O O6 0.918392 0.246041 0.880189
O O7 0.782352 0.217649 0.000000
O O8 0.894840 0.301832 0.087569
O O9 0.830492 0.169509 0.500000
O O10 0.893880 0.227541 0.287436
O O11 0.789574 0.297598 0.402651
O O12 0.373449 0.926137 0.708012
O O13 0.281063 0.028581 0.773963
O O14 0.164576 0.214628 0.218127
O O15 0.221659 0.072757 0.158691
O O16 0.162865 0.162865 0.000000
O O17 0.145600 0.519167 0.407460
O O18 0.500000 0.000000 0.664080
#
# Coordination Sequence:
#
# PCOD9549979 Si02
#       8
#     8   8   8   8   8   8   8   8
#     4  10  20  35  57  86 123 156 209 244 301 381
#     4  11  25  41  62  93 135 166 215 274 330 386
#     4  10  19  37  64  83 111 162 217 249 302 375
#     4  11  23  38  60  91 131 166 209 262 329 380
#     4  11  18  38  67  87 119 162 223 259 303 382
#     4  11  22  39  62  95 125 169 211 264 317 393
#     4  11  23  36  60  94 118 167 213 262 322 375
#     4  11  22  38  56  89 130 175 196 247 317 399
#
# _framework density 18.965036000000001
#
# number of rings (size 3 to 8) (size 9 to 14) (size 15 to 20)
#    0.000    1.250    5.000    3.750    1.750    4.500 
#    0.000    0.000    0.000    3.375    0.000    0.875 
#    0.000    0.000    0.000    0.000    0.000    0.000 
#
# Total GULP energy -356852.938899 kJ/mol
# GULP energy per Si atom -5575.827170 kJ/mol
# Density = 1.892187 g / cm^3
# Si number density = 18.965036 Si / 1000 Ang^3
#
#
#
# Elastic Constant Matrix: (Units=GPa)
#
#
# Indices 1 2 3 4 5 6 
#
# 1 56.1352 38.0511 34.8036 0.0000 0.0000 0.0000
# 2 38.0511 56.1338 34.8034 0.0000 0.0000 0.0000
# 3 34.8036 34.8034 140.7277 0.0000 0.0000 0.0000
# 4 0.0000 0.0000 0.0000 14.5225 0.0000 0.0000
# 5 0.0000 0.0000 0.0000 0.0000 14.5224 0.0000
# 6 0.0000 0.0000 0.0000 0.0000 0.0000 28.2762
#
#
#
# Elastic Compliance Matrix: (Units=1/GPa)
#
#
# Indices 1 2 3 4 5 6 
#
# 1 0.034145 -0.021154 -0.003213 0.000000 0.000000 0.000000
# 2 -0.021154 0.034146 -0.003213 0.000000 0.000000 0.000000
# 3 -0.003213 -0.003213 0.008695 0.000000 0.000000 0.000000
# 4 0.000000 0.000000 0.000000 0.068859 0.000000 0.000000
# 5 0.000000 0.000000 0.000000 0.000000 0.068859 0.000000
# 6 0.000000 0.000000 0.000000 0.000000 0.000000 0.035365
#
#
# Mechanical properties :
#
#
# Convention : Reuss Voigt Hill
#
# Bulk Modulus (GPa) = 45.81524 52.03478 48.92501
# Shear Modulus (GPa) = 15.99976 21.15346 18.57661
#
# Velocity S-wave (km/s) = 2.90771 3.34337 3.13312
# Velocity P-wave (km/s) = 5.95678 6.51160 6.24036
#
# Compressibility (1/GPa) = 0.02182680
#
# Stress axis : x y z
#
# Youngs Moduli (GPa) = 29.28676 29.28596 115.00655
#
# Poissons Ratio (x) = 0.61951 0.36951
# Poissons Ratio (y) = 0.61952 0.36953
# Poissons Ratio (z) = 0.09410 0.09410
#
# Static dielectric constant tensor:
#      x y z
#    x 1.689460 0.000000 0.000000 
#    y 0.000000 1.689460 0.000000 
#    z 0.000000 0.000000 1.728110 
# 
# From -- ./inp_files/2841.got.cif
#   From: 2010.05.17/outbox.cif.g08.bks.cpg/sg94_2_cif.got.tgz:2841.got - 2010.06.03 19:43:16.
