data_PCOD9549442
_publ_section_title
;
Structure prediction by ZEFSAII (Michael W. Deem and Ramdas Pophale) SiO2 
 PCOD9549442
Probable space group: P 41 21 2
;
_chemical_formula_sum "Si O2"
_cell_formula_units_Z 48
_cell_length_a 9.560974
_cell_length_b 9.560974
_cell_length_c 25.178144
_cell_angle_alpha 90.000000
_cell_angle_beta 90.000000
_cell_angle_gamma 90.000000
_cell_volume 2301.590135
_symmetry_space_group_name_H-M "P 41 21 2"
_symmetry_group_IT_number 92
_symmetry_cell_setting 'tetragonal'
loop_
_space_group_symop_operation_xyz
x,y,z
1/2-y,1/2+x,1/4+z
-x,-y,1/2+z
1/2+y,1/2-x,3/4+z
1/2+x,1/2-y,3/4-z
1/2-x,1/2+y,1/4-z
y,x,-z
-y,-x,1/2-z
loop_
_atom_site_type_symbol
_atom_site_label
_atom_site_fract_x
_atom_site_fract_y
_atom_site_fract_z
Si Si1 0.566847 0.702016 0.076449
Si Si2 0.723937 0.448527 0.809677
Si Si3 0.215736 0.596740 0.822116
Si Si4 0.146703 0.569227 0.524223
Si Si5 0.460704 0.539297 0.750000
Si Si6 0.689060 0.689060 0.500000
Si Si7 0.364602 0.564143 0.931104
O O1 0.500248 0.754288 0.131274
O O2 0.733370 0.729224 0.073698
O O3 0.540799 0.533676 0.072578
O O4 0.499086 0.782976 0.027141
O O5 0.566964 0.496786 0.796495
O O6 0.763868 0.289419 0.798202
O O7 0.816026 0.529740 0.765699
O O8 0.052622 0.578543 0.810096
O O9 0.305759 0.531824 0.774173
O O10 0.280934 0.540564 0.876647
O O11 0.272882 0.644988 0.554720
O O12 0.698182 0.532304 0.477325
#
# Coordination Sequence:
#
# PCOD9549442 Si02
#       7
#     8   8   8   8   4   4   8
#     4  11  21  42  68  95 130 170 217 268 326 389
#     4  11  26  42  63  95 137 167 215 271 326 390
#     4  11  21  39  72  98 121 170 223 260 328 388
#     4  11  23  41  67 101 124 166 219 278 313 386
#     4  11  22  43  64  94 132 171 206 271 326 386
#     4  11  26  47  60  94 136 177 214 263 338 398
#     4  11  21  42  70  91 130 174 213 268 328 382
#
# _framework density 20.855146999999999
#
# number of rings (size 3 to 8) (size 9 to 14) (size 15 to 20)
#    0.000    1.000    6.667    1.000    0.000    4.000 
#    3.000    0.000    0.000    0.000    0.000    0.000 
#    0.000    0.000    0.000    0.000    0.000    0.000 
#
# Total GULP energy -267893.463566 kJ/mol
# GULP energy per Si atom -5581.113824 kJ/mol
# Density = 2.080768 g / cm^3
# Si number density = 20.855147 Si / 1000 Ang^3
#
#
#
# Elastic Constant Matrix: (Units=GPa)
#
#
# Indices 1 2 3 4 5 6 
#
# 1 27.3968 64.4668 3.5836 0.0000 0.0000 0.0000
# 2 64.4668 27.3978 3.5850 0.0000 0.0000 0.0000
# 3 3.5836 3.5850 74.8030 0.0000 0.0000 0.0000
# 4 0.0000 0.0000 0.0000 16.2792 0.0000 0.0000
# 5 0.0000 0.0000 0.0000 0.0000 16.2789 0.0000
# 6 0.0000 0.0000 0.0000 0.0000 0.0000 28.1244
#
#
#
# Elastic Compliance Matrix: (Units=1/GPa)
#
#
# Indices 1 2 3 4 5 6 
#
# 1 -0.008025 0.018951 -0.000524 0.000000 0.000000 0.000000
# 2 0.018951 -0.008025 -0.000523 0.000000 0.000000 0.000000
# 3 -0.000524 -0.000523 0.013419 0.000000 0.000000 0.000000
# 4 0.000000 0.000000 0.000000 0.061428 0.000000 0.000000
# 5 0.000000 0.000000 0.000000 0.000000 0.061429 0.000000
# 6 0.000000 0.000000 0.000000 0.000000 0.000000 0.035556
#
#
# Mechanical properties :
#
#
# Convention : Reuss Voigt Hill
#
# Bulk Modulus (GPa) = 30.14102 30.31871 30.22987
# Shear Modulus (GPa) = 38.15835 16.00065 27.07950
#
# Velocity S-wave (km/s) = 4.28212 2.77289 3.60732
# Velocity P-wave (km/s) = 6.23961 4.98209 5.64597
#
# Compressibility (1/GPa) = 0.03317738
#
# Stress axis : x y z
#
# Youngs Moduli (GPa) = -124.60928 -124.61335 74.52334
#
# Poissons Ratio (x) = 2.36160 0.03903
# Poissons Ratio (y) = 2.36153 0.03900
# Poissons Ratio (z) = -0.06527 -0.06521
#
# Static dielectric constant tensor:
#      x y z
#    x 1.738230 0.000000 0.000000 
#    y 0.000000 1.738220 0.000000 
#    z 0.000000 0.000000 1.764700 
# 
# From -- ./inp_files/4580.got.cif
#   From: 2010.05.17/outbox.cif.g08.bks.cpg/sg92_3_cif.got.tgz:4580.got - 2010.06.03 19:35:17.
