data_PCOD9549086
_publ_section_title
;
Structure prediction by ZEFSAII (Michael W. Deem and Ramdas Pophale) SiO2 
 PCOD9549086
Probable space group: P 41 21 2
;
_chemical_formula_sum "Si O2"
_cell_formula_units_Z 44
_cell_length_a 7.809040
_cell_length_b 7.809040
_cell_length_c 28.251225
_cell_angle_alpha 90.000000
_cell_angle_beta 90.000000
_cell_angle_gamma 90.000000
_cell_volume 1722.790938
_symmetry_space_group_name_H-M "P 41 21 2"
_symmetry_group_IT_number 92
_symmetry_cell_setting 'tetragonal'
loop_
_space_group_symop_operation_xyz
x,y,z
1/2-y,1/2+x,1/4+z
-x,-y,1/2+z
1/2+y,1/2-x,3/4+z
1/2+x,1/2-y,3/4-z
1/2-x,1/2+y,1/4-z
y,x,-z
-y,-x,1/2-z
loop_
_atom_site_type_symbol
_atom_site_label
_atom_site_fract_x
_atom_site_fract_y
_atom_site_fract_z
Si Si1 0.160071 0.908531 0.430153
Si Si2 0.740751 0.737937 0.071117
Si Si3 0.131029 0.410802 0.334014
Si Si4 0.390194 0.067819 0.097875
Si Si5 0.950737 0.049264 0.250000
Si Si6 0.328894 0.810962 0.525394
O O1 0.259594 0.897358 0.379461
O O2 0.295970 0.862496 0.471399
O O3 0.995501 0.784257 0.427145
O O4 0.128541 0.109944 0.441286
O O5 0.828394 0.551356 0.071040
O O6 0.690985 0.778598 0.123802
O O7 0.581019 0.704875 0.036890
O O8 0.255317 0.363024 0.291730
O O9 0.077795 0.580379 0.361488
O O10 0.551421 0.075330 0.060610
O O11 0.133618 0.064993 0.273869
#
# Coordination Sequence:
#
# PCOD9549086 Si02
#       6
#     8   8   8   8   4   8
#     4  11  26  44  71 103 150 180 251 299 384 432
#     4  10  22  39  67 102 128 183 235 294 353 427
#     4  10  20  42  67  94 133 180 237 291 345 434
#     4  11  26  46  71 104 151 189 240 311 372 438
#     4  10  24  40  74  92 138 190 246 280 364 434
#     4  11  24  44  70 102 138 195 248 297 366 451
#
# _framework density 25.539953000000001
#
# number of rings (size 3 to 8) (size 9 to 14) (size 15 to 20)
#    0.000    1.455    3.636    1.091   12.727    1.455 
#    0.000    0.909    0.000    0.000    0.000    0.000 
#    0.000    0.000    0.000    0.000    0.000    0.000 
#
# Total GULP energy -245327.417439 kJ/mol
# GULP energy per Si atom -5575.623124 kJ/mol
# Density = 2.548182 g / cm^3
# Si number density = 25.539953 Si / 1000 Ang^3
#
#
#
# Elastic Constant Matrix: (Units=GPa)
#
#
# Indices 1 2 3 4 5 6 
#
# 1 62.4145 -8.9243 14.6170 0.0000 0.0000 0.0000
# 2 -8.9243 62.4144 14.6168 0.0000 0.0000 0.0000
# 3 14.6170 14.6168 108.9431 0.0000 0.0000 0.0000
# 4 0.0000 0.0000 0.0000 34.9150 0.0000 0.0000
# 5 0.0000 0.0000 0.0000 0.0000 34.9150 0.0000
# 6 0.0000 0.0000 0.0000 0.0000 0.0000 29.4103
#
#
#
# Elastic Compliance Matrix: (Units=1/GPa)
#
#
# Indices 1 2 3 4 5 6 
#
# 1 0.017096 0.003078 -0.002707 0.000000 0.000000 0.000000
# 2 0.003078 0.017096 -0.002707 0.000000 0.000000 0.000000
# 3 -0.002707 -0.002707 0.009905 0.000000 0.000000 0.000000
# 4 0.000000 0.000000 0.000000 0.028641 0.000000 0.000000
# 5 0.000000 0.000000 0.000000 0.000000 0.028641 0.000000
# 6 0.000000 0.000000 0.000000 0.000000 0.000000 0.034002
#
#
# Mechanical properties :
#
#
# Convention : Reuss Voigt Hill
#
# Bulk Modulus (GPa) = 25.36333 30.48787 27.92560
# Shear Modulus (GPa) = 32.63839 34.07890 33.35865
#
# Velocity S-wave (km/s) = 3.57870 3.65682 3.61797
# Velocity P-wave (km/s) = 5.19890 5.45830 5.33018
#
# Compressibility (1/GPa) = 0.03942700
#
# Stress axis : x y z
#
# Youngs Moduli (GPa) = 58.49326 58.49323 100.95457
#
# Poissons Ratio (x) = -0.18006 0.27326
# Poissons Ratio (y) = -0.18006 0.27326
# Poissons Ratio (z) = 0.15833 0.15833
#
# Static dielectric constant tensor:
#      x y z
#    x 2.115180 0.000000 0.000000 
#    y 0.000000 2.115180 0.000000 
#    z 0.000000 0.000000 1.758370 
# 
# From -- ./inp_files/4404.got.cif
#   From: 2010.05.17/outbox.cif.g08.bks.cpg/sg92_3_cif.got.tgz:4404.got - 2010.06.03 19:35:17.
