data_PCOD9549049
_publ_section_title
;
Structure prediction by ZEFSAII (Michael W. Deem and Ramdas Pophale) SiO2 
 PCOD9549049
Probable space group: P 41 21 2
;
_chemical_formula_sum "Si O2"
_cell_formula_units_Z 16
_cell_length_a 10.026318
_cell_length_b 10.026318
_cell_length_c 5.731007
_cell_angle_alpha 90.000000
_cell_angle_beta 90.000000
_cell_angle_gamma 90.000000
_cell_volume 576.121242
_symmetry_space_group_name_H-M "P 41 21 2"
_symmetry_group_IT_number 92
_symmetry_cell_setting 'tetragonal'
loop_
_space_group_symop_operation_xyz
x,y,z
1/2-y,1/2+x,1/4+z
-x,-y,1/2+z
1/2+y,1/2-x,3/4+z
1/2+x,1/2-y,3/4-z
1/2-x,1/2+y,1/4-z
y,x,-z
-y,-x,1/2-z
loop_
_atom_site_type_symbol
_atom_site_label
_atom_site_fract_x
_atom_site_fract_y
_atom_site_fract_z
Si Si1 0.155935 0.398150 0.233163
Si Si2 0.105435 0.175631 0.746321
O O1 0.148875 0.504518 0.438519
O O2 0.216358 0.489042 0.026083
O O3 0.230403 0.258155 0.257235
O O4 0.099185 0.099185 0.500000
O O5 0.101743 0.101743 0.000000
#
# Coordination Sequence:
#
# PCOD9549049 Si02
#       2
#     8   8
#     4  10  20  38  68  98 130 172 216 268 324 384
#     4  10  22  38  64 100 130 166 218 268 320 382
#
# _framework density 27.771930999999999
#
# number of rings (size 3 to 8) (size 9 to 14) (size 15 to 20)
#    0.000    2.000    0.000    3.000    0.000   12.000 
#    0.000    0.000    0.000  216.000    0.000    0.000 
#    0.000    0.000    0.000    0.000    0.000    0.000 
#
# Total GULP energy -89212.598653 kJ/mol
# GULP energy per Si atom -5575.787416 kJ/mol
# Density = 2.770872 g / cm^3
# Si number density = 27.771931 Si / 1000 Ang^3
#
#
#
# Elastic Constant Matrix: (Units=GPa)
#
#
# Indices 1 2 3 4 5 6 
#
# 1 -156.7487 394.5894 32.1926 0.0000 0.0000 0.0000
# 2 394.5894 -156.7487 32.1926 0.0000 0.0000 0.0000
# 3 32.1926 32.1926 224.5664 0.0000 0.0000 0.0000
# 4 0.0000 0.0000 0.0000 9.4701 0.0000 0.0000
# 5 0.0000 0.0000 0.0000 0.0000 9.4701 0.0000
# 6 0.0000 0.0000 0.0000 0.0000 0.0000 35.6515
#
#
#
# Elastic Compliance Matrix: (Units=1/GPa)
#
#
# Indices 1 2 3 4 5 6 
#
# 1 0.001280 0.003094 -0.000627 0.000000 0.000000 0.000000
# 2 0.003094 0.001280 -0.000627 0.000000 0.000000 0.000000
# 3 -0.000627 -0.000627 0.004633 0.000000 0.000000 0.000000
# 4 0.000000 0.000000 0.000000 0.105596 0.000000 0.000000
# 5 0.000000 0.000000 0.000000 0.000000 0.105596 0.000000
# 6 0.000000 0.000000 0.000000 0.000000 0.000000 0.028049
#
#
# Mechanical properties :
#
#
# Convention : Reuss Voigt Hill
#
# Bulk Modulus (GPa) = 91.97065 92.11313 92.04189
# Shear Modulus (GPa) = 20.29396 -25.60871 -2.65737
#
# Velocity S-wave (km/s) = 2.70615 -3.03992 -0.97925
# Velocity P-wave (km/s) = 6.55382 4.57365 5.65114
#
# Compressibility (1/GPa) = 0.01087303
#
# Stress axis : x y z
#
# Youngs Moduli (GPa) = 781.10414 781.10414 215.85165
#
# Poissons Ratio (x) = -2.41674 0.13535
# Poissons Ratio (y) = -2.41674 0.13535
# Poissons Ratio (z) = 0.48981 0.48981
#
# Static dielectric constant tensor:
#      x y z
#    x 2.179280 0.000000 0.000000 
#    y 0.000000 2.179280 0.000000 
#    z 0.000000 0.000000 2.276540 
# 
# From -- ./inp_files/48.got.cif
#   From: 2010.05.17/outbox.cif.g08.bks.cpg/sg92_1_cif.got.tgz:48.got - 2010.06.03 19:35:17.
