data_PCOD9549261
_publ_section_title
;
Structure prediction by ZEFSAII (Michael W. Deem and Ramdas Pophale) SiO2 
 PCOD9549261
Probable space group: P 41 21 2
;
_chemical_formula_sum "Si O2"
_cell_formula_units_Z 40
_cell_length_a 11.394161
_cell_length_b 11.394161
_cell_length_c 14.586583
_cell_angle_alpha 90.000000
_cell_angle_beta 90.000000
_cell_angle_gamma 90.000000
_cell_volume 1893.730924
_symmetry_space_group_name_H-M "P 41 21 2"
_symmetry_group_IT_number 92
_symmetry_cell_setting 'tetragonal'
loop_
_space_group_symop_operation_xyz
x,y,z
1/2-y,1/2+x,1/4+z
-x,-y,1/2+z
1/2+y,1/2-x,3/4+z
1/2+x,1/2-y,3/4-z
1/2-x,1/2+y,1/4-z
y,x,-z
-y,-x,1/2-z
loop_
_atom_site_type_symbol
_atom_site_label
_atom_site_fract_x
_atom_site_fract_y
_atom_site_fract_z
Si Si1 0.466568 0.819333 0.240848
Si Si2 0.500481 0.615962 0.386303
Si Si3 0.333356 0.988237 0.780347
Si Si4 0.786679 0.786679 0.000000
Si Si5 0.194294 0.805707 0.250000
Si Si6 0.907441 0.880451 0.825031
O O1 0.478182 0.701976 0.302812
O O2 0.490692 0.792821 0.134702
O O3 0.548577 0.930738 0.269018
O O4 0.328766 0.841633 0.248287
O O5 0.636183 0.638447 0.410608
O O6 0.429766 0.648049 0.479571
O O7 0.496335 0.474548 0.387300
O O8 0.241548 0.037386 0.706677
O O9 0.324310 0.848487 0.766760
O O10 0.822966 0.856800 0.909042
#
# Coordination Sequence:
#
# PCOD9549261 Si02
#       6
#     8   8   8   4   4   8
#     4  12  24  46  76 108 148 196 243 316 375 447
#     4  10  24  44  71 104 145 193 252 302 371 457
#     4  12  26  47  74 109 148 195 251 307 389 447
#     4  12  26  48  72 108 154 192 246 318 378 454
#     4  10  22  42  68 100 146 190 242 296 366 432
#     4  10  24  48  67 105 143 198 248 302 377 445
#
# _framework density 21.122325
#
# number of rings (size 3 to 8) (size 9 to 14) (size 15 to 20)
#    0.000    1.200    4.000    2.400    0.000    8.800 
#    0.000    0.000    0.000    0.000    0.000    0.000 
#    0.000    0.000    0.000    0.000    0.000    0.000 
#
# Total GULP energy -222879.473534 kJ/mol
# GULP energy per Si atom -5571.986838 kJ/mol
# Density = 2.107425 g / cm^3
# Si number density = 21.122325 Si / 1000 Ang^3
#
#
#
# Elastic Constant Matrix: (Units=GPa)
#
#
# Indices 1 2 3 4 5 6 
#
# 1 11.2607 130.6734 28.4405 0.0000 0.0000 0.0000
# 2 130.6734 11.2548 28.4372 0.0000 0.0000 0.0000
# 3 28.4405 28.4372 95.5729 0.0000 0.0000 0.0000
# 4 0.0000 0.0000 0.0000-1378.8091 0.0000 0.0000
# 5 0.0000 0.0000 0.0000 0.0000-1387.8895 0.0000
# 6 0.0000 0.0000 0.0000 0.0000 0.0000 23.1793
#
#
#
# Elastic Compliance Matrix: (Units=1/GPa)
#
#
# Indices 1 2 3 4 5 6 
#
# 1 -0.000187 0.008187 -0.002380 0.000000 0.000000 0.000000
# 2 0.008187 -0.000187 -0.002380 0.000000 0.000000 0.000000
# 3 -0.002380 -0.002380 0.011880 0.000000 0.000000 0.000000
# 4 0.000000 0.000000 0.000000 -0.000725 0.000000 0.000000
# 5 0.000000 0.000000 0.000000 0.000000 -0.000721 0.000000
# 6 0.000000 0.000000 0.000000 0.000000 0.000000 0.043142
#
#
# Mechanical properties :
#
#
# Convention : Reuss Voigt Hill
#
# Bulk Modulus (GPa) = 54.47360 54.79895 54.63627
# Shear Modulus (GPa) = 95.29527 -553.33472 -229.01972
#
# Velocity S-wave (km/s) = 6.72412 -16.20295 -10.42405
# Velocity P-wave (km/s) = 9.28066 18.00132 10.90680
#
# Compressibility (1/GPa) = 0.01835752
#
# Stress axis : x y z
#
# Youngs Moduli (GPa) = -5343.70034 -5336.31225 84.17628
#
# Poissons Ratio (x) = 43.68757 0.20036
# Poissons Ratio (y) = 43.74806 0.20038
# Poissons Ratio (z) = -12.71940 -12.70297
#
# Static dielectric constant tensor:
#      x y z
#    x 1.847670 0.000000 0.000000 
#    y 0.000000 1.847690 0.000000 
#    z 0.000000 0.000000 1.773940 
# 
# From -- ./inp_files/2664.got.cif
#   From: 2010.05.17/outbox.cif.g08.bks.cpg/sg92_2_cif.got.tgz:2664.got - 2010.06.03 19:35:17.
