data_PCOD9549517
_publ_section_title
;
Structure prediction by ZEFSAII (Michael W. Deem and Ramdas Pophale) SiO2 
 PCOD9549517
Probable space group: P 41 21 2
;
_chemical_formula_sum "Si O2"
_cell_formula_units_Z 36
_cell_length_a 8.623218
_cell_length_b 8.623218
_cell_length_c 19.834380
_cell_angle_alpha 90.000000
_cell_angle_beta 90.000000
_cell_angle_gamma 90.000000
_cell_volume 1474.882289
_symmetry_space_group_name_H-M "P 41 21 2"
_symmetry_group_IT_number 92
_symmetry_cell_setting 'tetragonal'
loop_
_space_group_symop_operation_xyz
x,y,z
1/2-y,1/2+x,1/4+z
-x,-y,1/2+z
1/2+y,1/2-x,3/4+z
1/2+x,1/2-y,3/4-z
1/2-x,1/2+y,1/4-z
y,x,-z
-y,-x,1/2-z
loop_
_atom_site_type_symbol
_atom_site_label
_atom_site_fract_x
_atom_site_fract_y
_atom_site_fract_z
Si Si1 0.032618 0.032618 0.500000
Si Si2 0.332253 0.734393 0.850064
Si Si3 0.324329 0.009616 0.149938
Si Si4 0.175769 0.026651 0.881986
Si Si5 0.075601 0.364743 0.694883
O O1 0.875890 0.028240 0.456898
O O2 0.080951 0.163885 0.554056
O O3 0.709652 0.627128 0.911473
O O4 0.291233 0.665984 0.923060
O O5 0.493972 0.819990 0.835016
O O6 0.142280 0.043250 0.142814
O O7 0.414266 0.112909 0.094516
O O8 0.376647 0.834267 0.135358
O O9 0.627113 0.950089 0.725971
#
# Coordination Sequence:
#
# PCOD9549517 Si02
#       5
#     4   8   8   8   8
#     4  12  24  50  74 104 162 202 262 330 398 470
#     4  11  25  45  77 108 151 212 256 328 394 475
#     4  11  27  48  76 116 159 204 267 327 403 490
#     4  11  27  48  78 115 152 212 258 328 409 481
#     4  11  25  46  73 115 154 208 265 324 398 476
#
# _framework density 24.408729999999998
#
# number of rings (size 3 to 8) (size 9 to 14) (size 15 to 20)
#    0.000    0.889    2.222    2.667    6.222    8.889 
#    0.000    0.000    0.000    0.000    0.000    0.000 
#    0.000    0.000    0.000    0.000    0.000    0.000 
#
# Total GULP energy -200918.653536 kJ/mol
# GULP energy per Si atom -5581.073709 kJ/mol
# Density = 2.435317 g / cm^3
# Si number density = 24.408730 Si / 1000 Ang^3
#
#
#
# Elastic Constant Matrix: (Units=GPa)
#
#
# Indices 1 2 3 4 5 6 
#
# 1 102.4135 58.6236 25.1434 0.0000 0.0000 0.0000
# 2 58.6236 102.4135 25.1434 0.0000 0.0000 0.0000
# 3 25.1434 25.1434 78.0215 0.0000 0.0000 0.0000
# 4 0.0000 0.0000 0.0000 34.3444 0.0000 0.0000
# 5 0.0000 0.0000 0.0000 0.0000 34.3444 0.0000
# 6 0.0000 0.0000 0.0000 0.0000 0.0000 62.7062
#
#
#
# Elastic Compliance Matrix: (Units=1/GPa)
#
#
# Indices 1 2 3 4 5 6 
#
# 1 0.014870 -0.007966 -0.002225 0.000000 0.000000 0.000000
# 2 -0.007966 0.014870 -0.002225 0.000000 0.000000 0.000000
# 3 -0.002225 -0.002225 0.014251 0.000000 0.000000 0.000000
# 4 0.000000 0.000000 0.000000 0.029117 0.000000 0.000000
# 5 0.000000 0.000000 0.000000 0.000000 0.029117 0.000000
# 6 0.000000 0.000000 0.000000 0.000000 0.000000 0.015947
#
#
# Mechanical properties :
#
#
# Convention : Reuss Voigt Hill
#
# Bulk Modulus (GPa) = 52.19232 55.62992 53.91112
# Shear Modulus (GPa) = 33.46907 37.87489 35.67198
#
# Velocity S-wave (km/s) = 3.70698 3.94343 3.82703
# Velocity P-wave (km/s) = 6.30487 6.60111 6.45469
#
# Compressibility (1/GPa) = 0.01915991
#
# Stress axis : x y z
#
# Youngs Moduli (GPa) = 67.24752 67.24752 70.17000
#
# Poissons Ratio (x) = 0.53568 0.15613
# Poissons Ratio (y) = 0.53568 0.15613
# Poissons Ratio (z) = 0.14963 0.14963
#
# Static dielectric constant tensor:
#      x y z
#    x 1.981720 0.000000 0.000000 
#    y 0.000000 1.981720 0.000000 
#    z 0.000000 0.000000 1.934450 
# 
# From -- ./inp_files/4074.got.cif
#   From: 2010.05.17/outbox.cif.g08.bks.cpg/sg92_3_cif.got.tgz:4074.got - 2010.06.03 19:35:17.
