data_PCOD9549356
_publ_section_title
;
Structure prediction by ZEFSAII (Michael W. Deem and Ramdas Pophale) SiO2 
 PCOD9549356
Probable space group: P 41 21 2
;
_chemical_formula_sum "Si O2"
_cell_formula_units_Z 32
_cell_length_a 7.995293
_cell_length_b 7.995293
_cell_length_c 19.961541
_cell_angle_alpha 90.000000
_cell_angle_beta 90.000000
_cell_angle_gamma 90.000000
_cell_volume 1276.035723
_symmetry_space_group_name_H-M "P 41 21 2"
_symmetry_group_IT_number 92
_symmetry_cell_setting 'tetragonal'
loop_
_space_group_symop_operation_xyz
x,y,z
1/2-y,1/2+x,1/4+z
-x,-y,1/2+z
1/2+y,1/2-x,3/4+z
1/2+x,1/2-y,3/4-z
1/2-x,1/2+y,1/4-z
y,x,-z
-y,-x,1/2-z
loop_
_atom_site_type_symbol
_atom_site_label
_atom_site_fract_x
_atom_site_fract_y
_atom_site_fract_z
Si Si1 0.100647 0.127323 0.928372
Si Si2 0.799752 0.700934 0.843475
Si Si3 0.426921 0.145510 0.514774
Si Si4 0.277173 0.936267 0.407489
O O1 0.153298 0.936115 0.913424
O O2 0.793202 0.407526 0.024923
O O3 0.903842 0.118610 0.931589
O O4 0.174813 0.174813 0.000000
O O5 0.890406 0.603067 0.906678
O O6 0.752267 0.888391 0.866752
O O7 0.711646 0.711646 0.000000
O O8 0.616884 0.018115 0.972669
O O9 0.724190 0.850168 0.620542
#
# Coordination Sequence:
#
# PCOD9549356 Si02
#       4
#     8   8   8   8
#     4  12  28  48  74 119 155 202 265 322 387 476
#     4  11  25  48  78 106 155 195 257 317 395 462
#     4  10  23  45  75 108 142 202 247 311 391 458
#     4  11  25  47  74 112 156 204 258 324 385 464
#
# _framework density 25.077665
#
# number of rings (size 3 to 8) (size 9 to 14) (size 15 to 20)
#    0.000    1.000    0.000    6.750    7.000    3.000 
#    0.000    0.000    0.000    0.000    0.000    0.000 
#    0.000    0.000    0.000    0.000    0.000    0.000 
#
# Total GULP energy -178946.582084 kJ/mol
# GULP energy per Si atom -5592.080690 kJ/mol
# Density = 2.502059 g / cm^3
# Si number density = 25.077665 Si / 1000 Ang^3
#
#
#
# Elastic Constant Matrix: (Units=GPa)
#
#
# Indices 1 2 3 4 5 6 
#
# 1 75.6020 9.8687 27.1625 0.0000 0.0000 0.0000
# 2 9.8687 75.6020 27.1625 0.0000 0.0000 0.0000
# 3 27.1625 27.1625 101.1128 0.0000 0.0000 0.0000
# 4 0.0000 0.0000 0.0000 40.5877 0.0000 0.0000
# 5 0.0000 0.0000 0.0000 0.0000 40.5877 0.0000
# 6 0.0000 0.0000 0.0000 0.0000 0.0000 44.9094
#
#
#
# Elastic Compliance Matrix: (Units=1/GPa)
#
#
# Indices 1 2 3 4 5 6 
#
# 1 0.014661 -0.000552 -0.003790 0.000000 0.000000 0.000000
# 2 -0.000552 0.014661 -0.003790 0.000000 0.000000 0.000000
# 3 -0.003790 -0.003790 0.011926 0.000000 0.000000 0.000000
# 4 0.000000 0.000000 0.000000 0.024638 0.000000 0.000000
# 5 0.000000 0.000000 0.000000 0.000000 0.024638 0.000000
# 6 0.000000 0.000000 0.000000 0.000000 0.000000 0.022267
#
#
# Mechanical properties :
#
#
# Convention : Reuss Voigt Hill
#
# Bulk Modulus (GPa) = 40.02640 42.30047 41.16344
# Shear Modulus (GPa) = 36.39439 37.75851 37.07645
#
# Velocity S-wave (km/s) = 3.81368 3.88450 3.84925
# Velocity P-wave (km/s) = 5.94877 6.08469 6.01712
#
# Compressibility (1/GPa) = 0.02498351
#
# Stress axis : x y z
#
# Youngs Moduli (GPa) = 68.20833 68.20833 83.84835
#
# Poissons Ratio (x) = 0.03765 0.31780
# Poissons Ratio (y) = 0.03765 0.31780
# Poissons Ratio (z) = 0.25852 0.25852
#
# Static dielectric constant tensor:
#      x y z
#    x 1.946870 0.000000 0.000000 
#    y 0.000000 1.946870 0.000000 
#    z 0.000000 0.000000 2.079950 
# 
# From -- ./inp_files/3391.got.cif
#   From: 2010.05.17/outbox.cif.g08.bks.cpg/sg92_2_cif.got.tgz:3391.got - 2010.06.03 19:35:17.
