data_PCOD9549431
_publ_section_title
;
Structure prediction by ZEFSAII (Michael W. Deem and Ramdas Pophale) SiO2 
 PCOD9549431
Probable space group: P 41 21 2
;
_chemical_formula_sum "Si O2"
_cell_formula_units_Z 32
_cell_length_a 12.093605
_cell_length_b 12.093605
_cell_length_c 10.273039
_cell_angle_alpha 90.000000
_cell_angle_beta 90.000000
_cell_angle_gamma 90.000000
_cell_volume 1502.486215
_symmetry_space_group_name_H-M "P 41 21 2"
_symmetry_group_IT_number 92
_symmetry_cell_setting 'tetragonal'
loop_
_space_group_symop_operation_xyz
x,y,z
1/2-y,1/2+x,1/4+z
-x,-y,1/2+z
1/2+y,1/2-x,3/4+z
1/2+x,1/2-y,3/4-z
1/2-x,1/2+y,1/4-z
y,x,-z
-y,-x,1/2-z
loop_
_atom_site_type_symbol
_atom_site_label
_atom_site_fract_x
_atom_site_fract_y
_atom_site_fract_z
Si Si1 0.335191 0.602859 0.052955
Si Si2 0.797334 0.338206 0.144625
Si Si3 0.672755 0.509983 0.289585
Si Si4 0.299197 0.475937 0.298465
O O1 0.273767 0.562733 0.183195
O O2 0.461150 0.619073 0.102094
O O3 0.318432 0.720040 0.981910
O O4 0.312739 0.512350 0.942211
O O5 0.748704 0.251296 0.250000
O O6 0.922591 0.307026 0.114710
O O7 0.874147 0.129313 0.991915
O O8 0.575309 0.424692 0.250000
O O9 0.773350 0.459806 0.204656
#
# Coordination Sequence:
#
# PCOD9549431 Si02
#       4
#     8   8   8   8
#     4   9  20  35  53  87 113 139 197 234 285 333
#     4   9  22  33  52  88 116 143 188 237 287 349
#     4   9  18  33  52  85 110 137 187 233 278 334
#     4  11  19  32  65  77 112 152 181 245 283 335
#
# _framework density 21.298031999999999
#
# number of rings (size 3 to 8) (size 9 to 14) (size 15 to 20)
#    0.000    3.000    2.500    0.750   10.500    0.000 
#    9.000    0.000    0.000    3.000    0.000    0.000 
#    0.000    0.000    0.000    0.000    0.000    0.000 
#
# Total GULP energy -178189.904258 kJ/mol
# GULP energy per Si atom -5568.434508 kJ/mol
# Density = 2.124956 g / cm^3
# Si number density = 21.298032 Si / 1000 Ang^3
#
#
#
# Elastic Constant Matrix: (Units=GPa)
#
#
# Indices 1 2 3 4 5 6 
#
# 1 25.0858 25.5818 31.8969 0.0000 0.0000 0.0000
# 2 25.5818 25.0843 31.8985 0.0000 0.0000 0.0000
# 3 31.8969 31.8985 100.0469 0.0000 0.0000 0.0000
# 4 0.0000 0.0000 0.0000 16.7917 0.0000 0.0000
# 5 0.0000 0.0000 0.0000 0.0000 16.7920 0.0000
# 6 0.0000 0.0000 0.0000 0.0000 0.0000 36.4087
#
#
#
# Elastic Compliance Matrix: (Units=1/GPa)
#
#
# Indices 1 2 3 4 5 6 
#
# 1 -0.989960 1.023020 -0.010556 0.000000 0.000000 0.000000
# 2 1.023020 -0.990132 -0.010470 0.000000 0.000000 0.000000
# 3 -0.010556 -0.010470 0.016699 0.000000 0.000000 0.000000
# 4 0.000000 0.000000 0.000000 0.059553 0.000000 0.000000
# 5 0.000000 0.000000 0.000000 0.000000 0.059552 0.000000
# 6 0.000000 0.000000 0.000000 0.000000 0.000000 0.027466
#
#
# Mechanical properties :
#
#
# Convention : Reuss Voigt Hill
#
# Bulk Modulus (GPa) = 24.63376 36.55239 30.59307
# Shear Modulus (GPa) = -1.31327 18.05447 8.37060
#
# Velocity S-wave (km/s) = -0.78610 2.91470 1.98463
# Velocity P-wave (km/s) = 3.28137 5.34106 4.43251
#
# Compressibility (1/GPa) = 0.04059470
#
# Stress axis : x y z
#
# Youngs Moduli (GPa) = -1.01014 -1.00997 59.88409
#
# Poissons Ratio (x) = 1.03322 0.63213
# Poissons Ratio (y) = 1.03339 0.62698
# Poissons Ratio (z) = -0.01066 -0.01057
#
# Static dielectric constant tensor:
#      x y z
#    x 1.806080 0.000000 0.000000 
#    y 0.000000 1.806080 0.000000 
#    z 0.000000 0.000000 1.860130 
# 
# From -- ./inp_files/1113.got.cif
#   From: 2010.05.17/outbox.cif.g08.bks.cpg/sg92_1_cif.got.tgz:1113.got - 2010.06.03 19:35:17.
