data_PCOD9549609
_publ_section_title
;
Structure prediction by ZEFSAII (Michael W. Deem and Ramdas Pophale) SiO2 
 PCOD9549609
Probable space group: P 42 2 2
;
_chemical_formula_sum "Si O2"
_cell_formula_units_Z 56
_cell_length_a 13.869314
_cell_length_b 13.869314
_cell_length_c 15.524310
_cell_angle_alpha 90.000000
_cell_angle_beta 90.000000
_cell_angle_gamma 90.000000
_cell_volume 2986.223218
_symmetry_space_group_name_H-M "P 42 2 2"
_symmetry_group_IT_number 93
_symmetry_cell_setting 'tetragonal'
loop_
_space_group_symop_operation_xyz
x,y,z
-y,x,1/2+z
-x,-y,z
y,-x,1/2+z
x,-y,-z
-x,y,-z
y,x,1/2-z
-y,-x,1/2-z
loop_
_atom_site_type_symbol
_atom_site_label
_atom_site_fract_x
_atom_site_fract_y
_atom_site_fract_z
Si Si1 0.146601 0.529072 0.235149
Si Si2 0.758922 0.681301 0.659554
Si Si3 0.202358 0.907877 0.041446
Si Si4 0.660809 0.043185 0.728728
Si Si5 0.008563 0.863736 0.298826
Si Si6 0.417631 0.753112 0.438528
Si Si7 0.727335 0.105745 0.540697
O O1 0.208920 0.576785 0.309876
O O2 0.112772 0.423272 0.261410
O O3 0.200325 0.529376 0.143840
O O4 0.057258 0.602722 0.218325
O O5 0.735567 0.735567 0.750000
O O6 0.843038 0.733672 0.605906
O O7 0.663366 0.684086 0.601617
O O8 0.122946 0.962151 0.101709
O O9 0.158172 0.829827 0.975633
O O10 0.255179 0.000000 0.000000
O O11 0.699506 0.087170 0.639294
O O12 0.754043 0.023565 0.786052
O O13 0.106528 0.893473 0.250000
O O14 0.929092 0.929092 0.250000
O O15 0.500000 0.711779 0.500000
O O16 0.355851 0.833737 0.491183
O O17 0.734069 0.000000 0.500000
#
# Coordination Sequence:
#
# PCOD9549609 Si02
#       7
#     8   8   8   8   8   8   8
#     4  10  19  31  52  78 109 152 190 242 302 365
#     4   9  19  35  54  74 111 157 188 235 311 379
#     4  11  22  35  50  70 102 150 206 249 293 349
#     4  11  20  31  52  76 105 148 202 247 290 347
#     4  11  23  38  53  71 107 159 205 244 287 344
#     4  10  18  30  49  78 112 146 187 242 312 357
#     4  11  20  29  45  70 107 145 191 256 298 337
#
# _framework density 18.752784999999999
#
# number of rings (size 3 to 8) (size 9 to 14) (size 15 to 20)
#    0.000    1.571    4.286    2.143    2.000    1.714 
#    0.000    0.000    0.000    1.714    0.000    0.000 
#    0.000    5.143   11.429    2.286    1.143    2.429 
#
# Total GULP energy -312153.887623 kJ/mol
# GULP energy per Si atom -5574.176565 kJ/mol
# Density = 1.871010 g / cm^3
# Si number density = 18.752785 Si / 1000 Ang^3
#
#
#
# Elastic Constant Matrix: (Units=GPa)
#
#
# Indices 1 2 3 4 5 6 
#
# 1 105.6118 47.5773 41.3230 0.0000 0.0000 0.0000
# 2 47.5773 105.6128 41.3233 0.0000 0.0000 0.0000
# 3 41.3230 41.3233 61.1257 0.0000 0.0000 0.0000
# 4 0.0000 0.0000 0.0000 12.7077 0.0000 0.0000
# 5 0.0000 0.0000 0.0000 0.0000 12.7076 0.0000
# 6 0.0000 0.0000 0.0000 0.0000 0.0000 18.0888
#
#
#
# Elastic Compliance Matrix: (Units=1/GPa)
#
#
# Indices 1 2 3 4 5 6 
#
# 1 0.013753 -0.003478 -0.006947 0.000000 0.000000 0.000000
# 2 -0.003478 0.013753 -0.006947 0.000000 0.000000 0.000000
# 3 -0.006947 -0.006947 0.025752 0.000000 0.000000 0.000000
# 4 0.000000 0.000000 0.000000 0.078692 0.000000 0.000000
# 5 0.000000 0.000000 0.000000 0.000000 0.078693 0.000000
# 6 0.000000 0.000000 0.000000 0.000000 0.000000 0.055283
#
#
# Mechanical properties :
#
#
# Convention : Reuss Voigt Hill
#
# Bulk Modulus (GPa) = 54.00545 59.19971 56.60258
# Shear Modulus (GPa) = 16.29506 18.17593 17.23549
#
# Velocity S-wave (km/s) = 2.95098 3.11664 3.03494
# Velocity P-wave (km/s) = 6.36177 6.67744 6.52152
#
# Compressibility (1/GPa) = 0.01851665
#
# Stress axis : x y z
#
# Youngs Moduli (GPa) = 72.70946 72.71013 38.83166
#
# Poissons Ratio (x) = 0.25286 0.26975
# Poissons Ratio (y) = 0.25286 0.26975
# Poissons Ratio (z) = 0.50509 0.50509
#
# Static dielectric constant tensor:
#      x y z
#    x 1.667050 0.000000 0.000000 
#    y 0.000000 1.667050 0.000000 
#    z 0.000000 0.000000 1.697900 
# 
# From -- ./inp_files/4512.got.cif
#   From: 2010.05.17/outbox.cif.g08.bks.cpg/sg93_3_cif.got.tgz:4512.got - 2010.06.03 19:38:44.
