data_PCOD9549107
_publ_section_title
;
Structure prediction by ZEFSAII (Michael W. Deem and Ramdas Pophale) SiO2 
 PCOD9549107
Probable space group: P 41 21 2
;
_chemical_formula_sum "Si O2"
_cell_formula_units_Z 56
_cell_length_a 12.055640
_cell_length_b 12.055640
_cell_length_c 19.144281
_cell_angle_alpha 90.000000
_cell_angle_beta 90.000000
_cell_angle_gamma 90.000000
_cell_volume 2782.400238
_symmetry_space_group_name_H-M "P 41 21 2"
_symmetry_group_IT_number 92
_symmetry_cell_setting 'tetragonal'
loop_
_space_group_symop_operation_xyz
x,y,z
1/2-y,1/2+x,1/4+z
-x,-y,1/2+z
1/2+y,1/2-x,3/4+z
1/2+x,1/2-y,3/4-z
1/2-x,1/2+y,1/4-z
y,x,-z
-y,-x,1/2-z
loop_
_atom_site_type_symbol
_atom_site_label
_atom_site_fract_x
_atom_site_fract_y
_atom_site_fract_z
Si Si1 0.447061 0.815405 0.982926
Si Si2 0.075387 0.409477 0.033723
Si Si3 0.679296 0.599658 0.931804
Si Si4 0.873524 0.577924 0.373563
Si Si5 0.179173 0.376002 0.624850
Si Si6 0.265087 0.295813 0.766569
Si Si7 0.508358 0.331914 0.709087
O O1 0.504607 0.789979 0.908504
O O2 0.334900 0.750287 0.000656
O O3 0.537190 0.788080 0.042102
O O4 0.427046 0.945167 0.981049
O O5 0.129997 0.417177 0.957391
O O6 0.107414 0.504741 0.089768
O O7 0.076881 0.281056 0.056070
O O8 0.701746 0.726429 0.909602
O O9 0.629306 0.537714 0.865727
O O10 0.602298 0.602298 0.000000
O O11 0.852324 0.447861 0.355916
O O12 0.784550 0.659300 0.338319
O O13 0.199787 0.364884 0.706853
O O14 0.396459 0.312858 0.754568
O O15 0.583984 0.416017 0.750000
#
# Coordination Sequence:
#
# PCOD9549107 Si02
#       7
#     8   8   8   8   8   8   8
#     4   9  19  36  61  84 117 157 203 243 296 375
#     4  10  21  36  62  85 118 161 204 251 298 371
#     4   9  18  37  61  88 114 154 208 247 300 368
#     4  11  20  38  59  89 121 150 202 253 315 360
#     4   9  19  38  57  88 114 155 196 249 305 367
#     4  10  21  39  56  86 124 151 194 258 310 360
#     4  10  22  40  60  85 120 162 207 245 307 376
#
# _framework density 20.12651
#
# number of rings (size 3 to 8) (size 9 to 14) (size 15 to 20)
#    0.000    2.286    1.429    0.857    2.000    1.143 
#   15.429    0.000    0.000    2.571    0.000    0.000 
#    0.000    0.000    0.000    0.000    0.000    0.000 
#
# Total GULP energy -312067.098009 kJ/mol
# GULP energy per Si atom -5572.626750 kJ/mol
# Density = 2.008070 g / cm^3
# Si number density = 20.126510 Si / 1000 Ang^3
#
#
#
# Elastic Constant Matrix: (Units=GPa)
#
#
# Indices 1 2 3 4 5 6 
#
# 1 42.9637 13.2695 0.4710 0.0000 0.0000 0.0000
# 2 13.2695 42.9626 0.4723 0.0000 0.0000 0.0000
# 3 0.4710 0.4723 65.7093 0.0000 0.0000 0.0000
# 4 0.0000 0.0000 0.0000 22.2159 0.0000 0.0000
# 5 0.0000 0.0000 0.0000 0.0000 22.2162 0.0000
# 6 0.0000 0.0000 0.0000 0.0000 0.0000 24.5561
#
#
#
# Elastic Compliance Matrix: (Units=1/GPa)
#
#
# Indices 1 2 3 4 5 6 
#
# 1 0.025731 -0.007946 -0.000127 0.000000 0.000000 0.000000
# 2 -0.007946 0.025732 -0.000128 0.000000 0.000000 0.000000
# 3 -0.000127 -0.000128 0.015220 0.000000 0.000000 0.000000
# 4 0.000000 0.000000 0.000000 0.045013 0.000000 0.000000
# 5 0.000000 0.000000 0.000000 0.000000 0.045012 0.000000
# 6 0.000000 0.000000 0.000000 0.000000 0.000000 0.040723
#
#
# Mechanical properties :
#
#
# Convention : Reuss Voigt Hill
#
# Bulk Modulus (GPa) = 19.88841 20.00680 19.94760
# Shear Modulus (GPa) = 21.68318 22.95919 22.32118
#
# Velocity S-wave (km/s) = 3.28585 3.38115 3.33384
# Velocity P-wave (km/s) = 4.92939 5.02046 4.97514
#
# Compressibility (1/GPa) = 0.05028054
#
# Stress axis : x y z
#
# Youngs Moduli (GPa) = 38.86369 38.86268 65.70140
#
# Poissons Ratio (x) = 0.30880 0.00837
# Poissons Ratio (y) = 0.30881 0.00841
# Poissons Ratio (z) = 0.00495 0.00497
#
# Static dielectric constant tensor:
#      x y z
#    x 1.740980 0.000000 0.000000 
#    y 0.000000 1.740980 0.000000 
#    z 0.000000 0.000000 1.772980 
# 
# From -- ./inp_files/3560.got.cif
#   From: 2010.05.17/outbox.cif.g08.bks.cpg/sg92_2_cif.got.tgz:3560.got - 2010.06.03 19:35:17.
