data_PCOD9549929
_publ_section_title
;
Structure prediction by ZEFSAII (Michael W. Deem and Ramdas Pophale) SiO2 
 PCOD9549929
Probable space group: P 42 21 2
;
_chemical_formula_sum "Si O2"
_cell_formula_units_Z 60
_cell_length_a 13.120447
_cell_length_b 13.120447
_cell_length_c 16.617311
_cell_angle_alpha 90.000000
_cell_angle_beta 90.000000
_cell_angle_gamma 90.000000
_cell_volume 2860.605771
_symmetry_space_group_name_H-M "P 42 21 2"
_symmetry_group_IT_number 94
_symmetry_cell_setting 'tetragonal'
loop_
_space_group_symop_operation_xyz
x,y,z
1/2-y,1/2+x,1/2+z
-x,-y,z
1/2+y,1/2-x,1/2+z
1/2+x,1/2-y,1/2-z
1/2-x,1/2+y,1/2-z
y,x,-z
-y,-x,-z
loop_
_atom_site_type_symbol
_atom_site_label
_atom_site_fract_x
_atom_site_fract_y
_atom_site_fract_z
Si Si1 0.360824 0.093156 0.061730
Si Si2 0.967248 0.195776 0.467667
Si Si3 0.900221 0.447731 0.607894
Si Si4 0.755989 0.983565 0.366800
Si Si5 0.347144 0.795168 0.722972
Si Si6 0.365542 0.417732 0.801251
Si Si7 0.634261 0.365740 0.500000
Si Si8 0.437094 0.673876 0.336612
O O1 0.434980 0.189617 0.054328
O O2 0.346639 0.074875 0.157182
O O3 0.248651 0.125531 0.032793
O O4 0.391261 0.020490 0.987036
O O5 0.869851 0.130150 0.500000
O O6 0.042364 0.202126 0.543894
O O7 0.988322 0.146234 0.381083
O O8 0.929016 0.328593 0.615117
O O9 0.793137 0.465174 0.650617
O O10 0.000000 0.500000 0.643484
O O11 0.842880 0.040826 0.316647
O O12 0.708663 0.894561 0.312282
O O13 0.239045 0.852521 0.711737
O O14 0.330861 0.677729 0.697212
O O15 0.376989 0.486434 0.724109
O O16 0.561749 0.376850 0.424294
#
# Coordination Sequence:
#
# PCOD9549929 Si02
#       8
#     8   8   8   8   8   8   4   8
#     4   8  14  27  50  75 104 140 183 232 277 339
#     4   8  14  28  51  77 102 138 184 231 288 337
#     4  10  18  32  54  83 113 148 192 246 298 348
#     4  10  19  33  54  81 114 150 192 243 292 348
#     4  10  19  34  54  82 116 151 187 237 289 347
#     4  10  19  34  56  84 114 149 195 244 290 351
#     4   8  14  28  52  77  98 142 193 236 270 334
#     4  10  19  33  56  84 112 153 197 238 292 349
#
# _framework density 20.974577
#
# number of rings (size 3 to 8) (size 9 to 14) (size 15 to 20)
#    0.000    2.667    2.000    0.800    0.000    0.533 
#    0.000    5.333    0.000   14.400   10.400    0.000 
#    0.000    0.000    0.000    0.000    0.000    0.000 
#
# Total GULP energy -334231.643380 kJ/mol
# GULP energy per Si atom -5570.527390 kJ/mol
# Density = 2.092684 g / cm^3
# Si number density = 20.974577 Si / 1000 Ang^3
#
#
#
# Elastic Constant Matrix: (Units=GPa)
#
#
# Indices 1 2 3 4 5 6 
#
# 1 53.3586 14.5397 37.7467 0.0000 0.0000 0.0000
# 2 14.5397 53.3587 37.7455 0.0000 0.0000 0.0000
# 3 37.7467 37.7455 117.1933 0.0000 0.0000 0.0000
# 4 0.0000 0.0000 0.0000 26.0228 0.0000 0.0000
# 5 0.0000 0.0000 0.0000 0.0000 26.0229 0.0000
# 6 0.0000 0.0000 0.0000 0.0000 0.0000 24.6187
#
#
#
# Elastic Compliance Matrix: (Units=1/GPa)
#
#
# Indices 1 2 3 4 5 6 
#
# 1 0.024353 -0.001408 -0.007390 0.000000 0.000000 0.000000
# 2 -0.001408 0.024352 -0.007390 0.000000 0.000000 0.000000
# 3 -0.007390 -0.007390 0.013293 0.000000 0.000000 0.000000
# 4 0.000000 0.000000 0.000000 0.038428 0.000000 0.000000
# 5 0.000000 0.000000 0.000000 0.000000 0.038428 0.000000
# 6 0.000000 0.000000 0.000000 0.000000 0.000000 0.040620
#
#
# Mechanical properties :
#
#
# Convention : Reuss Voigt Hill
#
# Bulk Modulus (GPa) = 33.75861 44.88604 39.32233
# Shear Modulus (GPa) = 22.55056 24.25811 23.40433
#
# Velocity S-wave (km/s) = 3.28249 3.40450 3.34405
# Velocity P-wave (km/s) = 5.52234 6.07460 5.80504
#
# Compressibility (1/GPa) = 0.02962207
#
# Stress axis : x y z
#
# Youngs Moduli (GPa) = 41.06299 41.06389 75.22562
#
# Poissons Ratio (x) = 0.05782 0.55594
# Poissons Ratio (y) = 0.05782 0.55590
# Poissons Ratio (z) = 0.30347 0.30345
#
# Static dielectric constant tensor:
#      x y z
#    x 1.779180 0.000000 0.000000 
#    y 0.000000 1.779180 0.000000 
#    z 0.000000 0.000000 1.818270 
# 
# From -- ./inp_files/3593.got.cif
#   From: 2010.05.17/outbox.cif.g08.bks.cpg/sg94_2_cif.got.tgz:3593.got - 2010.06.03 19:43:16.
