data_PCOD9549095
_publ_section_title
;
Structure prediction by ZEFSAII (Michael W. Deem and Ramdas Pophale) SiO2 
 PCOD9549095
Probable space group: P 41 21 2
;
_chemical_formula_sum "Si O2"
_cell_formula_units_Z 40
_cell_length_a 7.162933
_cell_length_b 7.162933
_cell_length_c 29.448494
_cell_angle_alpha 90.000000
_cell_angle_beta 90.000000
_cell_angle_gamma 90.000000
_cell_volume 1510.931821
_symmetry_space_group_name_H-M "P 41 21 2"
_symmetry_group_IT_number 92
_symmetry_cell_setting 'tetragonal'
loop_
_space_group_symop_operation_xyz
x,y,z
1/2-y,1/2+x,1/4+z
-x,-y,1/2+z
1/2+y,1/2-x,3/4+z
1/2+x,1/2-y,3/4-z
1/2-x,1/2+y,1/4-z
y,x,-z
-y,-x,1/2-z
loop_
_atom_site_type_symbol
_atom_site_label
_atom_site_fract_x
_atom_site_fract_y
_atom_site_fract_z
Si Si1 0.890027 0.850763 0.839718
Si Si2 0.984235 0.169390 0.083945
Si Si3 0.686073 0.186211 0.944525
Si Si4 0.503980 0.503980 0.500000
Si Si5 0.624581 0.937579 0.593676
Si Si6 0.432305 0.567695 0.750000
O O1 0.837987 0.640285 0.851819
O O2 0.001405 0.949241 0.880171
O O3 0.008854 0.870946 0.793909
O O4 0.686086 0.944547 0.832046
O O5 0.921393 0.106763 0.034244
O O6 0.202335 0.190981 0.077947
O O7 0.581450 0.147976 0.897766
O O8 0.863831 0.322991 0.929989
O O9 0.551230 0.297007 0.978530
O O10 0.763782 0.993473 0.966518
#
# Coordination Sequence:
#
# PCOD9549095 Si02
#       6
#     8   8   8   4   8   4
#     4  12  26  44  74 105 152 193 253 318 390 463
#     4  11  25  43  71 107 146 195 249 316 385 464
#     4  11  22  44  77 109 155 197 261 312 392 469
#     4  12  24  47  71 112 148 194 261 319 378 482
#     4  11  23  46  74 105 149 206 242 314 393 461
#     4  10  20  45  75 104 152 192 255 327 374 466
#
# _framework density 26.47373
#
# number of rings (size 3 to 8) (size 9 to 14) (size 15 to 20)
#    0.000    0.800    8.000    0.000    2.800    3.200 
#    0.000    4.000    0.000    0.000    0.000    0.000 
#    0.000    0.000    0.000    0.000    0.000    0.000 
#
# Total GULP energy -223497.915739 kJ/mol
# GULP energy per Si atom -5587.447893 kJ/mol
# Density = 2.641347 g / cm^3
# Si number density = 26.473730 Si / 1000 Ang^3
#
#
#
# Elastic Constant Matrix: (Units=GPa)
#
#
# Indices 1 2 3 4 5 6 
#
# 1 110.3080 60.8365 18.2611 0.0000 0.0000 0.0000
# 2 60.8365 110.3080 18.2611 0.0000 0.0000 0.0000
# 3 18.2611 18.2611 152.9181 0.0000 0.0000 0.0000
# 4 0.0000 0.0000 0.0000 -21.0415 0.0000 0.0000
# 5 0.0000 0.0000 0.0000 0.0000 -21.0415 0.0000
# 6 0.0000 0.0000 0.0000 0.0000 0.0000 65.0645
#
#
#
# Elastic Compliance Matrix: (Units=1/GPa)
#
#
# Indices 1 2 3 4 5 6 
#
# 1 0.013105 -0.007109 -0.000716 0.000000 0.000000 0.000000
# 2 -0.007109 0.013105 -0.000716 0.000000 0.000000 0.000000
# 3 -0.000716 -0.000716 0.006710 0.000000 0.000000 0.000000
# 4 0.000000 0.000000 0.000000 -0.047525 0.000000 0.000000
# 5 0.000000 0.000000 0.000000 0.000000 -0.047525 0.000000
# 6 0.000000 0.000000 0.000000 0.000000 0.000000 0.015369
#
#
# Mechanical properties :
#
#
# Convention : Reuss Voigt Hill
#
# Bulk Modulus (GPa) = 63.13903 63.13903 63.13903
# Shear Modulus (GPa) = -204.91897 23.00800 -90.95548
#
# Velocity S-wave (km/s) = -8.80754 2.95123 -5.86783
# Velocity P-wave (km/s) = 8.91789 5.95940 4.69118
#
# Compressibility (1/GPa) = 0.01583806
#
# Stress axis : x y z
#
# Youngs Moduli (GPa) = 76.30836 76.30836 149.02116
#
# Poissons Ratio (x) = 0.54247 0.10670
# Poissons Ratio (y) = 0.54247 0.10670
# Poissons Ratio (z) = 0.05464 0.05464
#
# Static dielectric constant tensor:
#      x y z
#    x 2.104800 0.000000 0.000000 
#    y 0.000000 2.104800 0.000000 
#    z 0.000000 0.000000 2.030270 
# 
# From -- ./inp_files/4367.got.cif
#   From: 2010.05.17/outbox.cif.g08.bks.cpg/sg92_3_cif.got.tgz:4367.got - 2010.06.03 19:35:17.
