data_PCOD9549220
_publ_section_title
;
Structure prediction by ZEFSAII (Michael W. Deem and Ramdas Pophale) SiO2 
 PCOD9549220
Probable space group: P 41 21 2
;
_chemical_formula_sum "Si O2"
_cell_formula_units_Z 52
_cell_length_a 20.486071
_cell_length_b 20.486071
_cell_length_c 5.260726
_cell_angle_alpha 90.000000
_cell_angle_beta 90.000000
_cell_angle_gamma 90.000000
_cell_volume 2207.816779
_symmetry_space_group_name_H-M "P 41 21 2"
_symmetry_group_IT_number 92
_symmetry_cell_setting 'tetragonal'
loop_
_space_group_symop_operation_xyz
x,y,z
1/2-y,1/2+x,1/4+z
-x,-y,1/2+z
1/2+y,1/2-x,3/4+z
1/2+x,1/2-y,3/4-z
1/2-x,1/2+y,1/4-z
y,x,-z
-y,-x,1/2-z
loop_
_atom_site_type_symbol
_atom_site_label
_atom_site_fract_x
_atom_site_fract_y
_atom_site_fract_z
Si Si1 0.973727 0.973727 0.500000
Si Si2 0.937964 0.674311 0.710108
Si Si3 0.995048 0.835070 0.230866
Si Si4 0.431650 0.933801 0.409262
Si Si5 0.725327 0.365745 0.588486
Si Si6 0.547678 0.725363 0.001518
Si Si7 0.323315 0.848011 0.644061
O O1 0.984432 0.905153 0.358270
O O2 0.019980 0.980020 0.750000
O O3 0.960036 0.607388 0.578931
O O4 0.907971 0.725331 0.508769
O O5 0.998295 0.714964 0.818533
O O6 0.878085 0.659082 0.891144
O O7 0.921717 0.808589 0.170965
O O8 0.030680 0.796229 0.461483
O O9 0.034595 0.827931 0.968591
O O10 0.489643 0.923775 0.611185
O O11 0.362957 0.897154 0.455897
O O12 0.671410 0.328591 0.750000
O O13 0.774569 0.315644 0.456894
O O14 0.618628 0.757171 0.980931
#
# Coordination Sequence:
#
# PCOD9549220 Si02
#       7
#     4   8   8   8   8   8   8
#     4  12  26  50  86 116 140 170 226 298 364 430
#     4  10  22  39  61  90 129 180 234 286 343 398
#     4  11  24  47  72 107 137 180 227 290 352 421
#     4  11  25  35  53  85 129 180 238 294 337 383
#     4  10  22  42  68  99 127 175 232 289 332 407
#     4  11  24  40  70  98 143 184 228 280 351 410
#     4  11  23  40  61  91 136 183 230 278 341 418
#
# _framework density 23.552676999999999
#
# number of rings (size 3 to 8) (size 9 to 14) (size 15 to 20)
#    0.000    1.231    2.308    2.769   12.923    0.615 
#    0.000    2.308    3.385    0.000    0.000    0.000 
#    0.000    0.000    0.000    0.000    0.000    0.000 
#
# Total GULP energy -290421.117862 kJ/mol
# GULP energy per Si atom -5585.021497 kJ/mol
# Density = 2.349907 g / cm^3
# Si number density = 23.552677 Si / 1000 Ang^3
#
#
#
# Elastic Constant Matrix: (Units=GPa)
#
#
# Indices 1 2 3 4 5 6 
#
# 1 44.1612 -6.1309 -7.4757 0.0000 0.0000 0.0000
# 2 -6.1309 44.1523 -7.4784 0.0000 0.0000 0.0000
# 3 -7.4757 -7.4784 54.9013 0.0000 0.0000 0.0000
# 4 0.0000 0.0000 0.0000 20.8396 0.0000 0.0000
# 5 0.0000 0.0000 0.0000 0.0000 20.8365 0.0000
# 6 0.0000 0.0000 0.0000 0.0000 0.0000 19.0823
#
#
#
# Elastic Compliance Matrix: (Units=1/GPa)
#
#
# Indices 1 2 3 4 5 6 
#
# 1 0.023833 0.003950 0.003783 0.000000 0.000000 0.000000
# 2 0.003950 0.023838 0.003785 0.000000 0.000000 0.000000
# 3 0.003783 0.003785 0.019245 0.000000 0.000000 0.000000
# 4 0.000000 0.000000 0.000000 0.047985 0.000000 0.000000
# 5 0.000000 0.000000 0.000000 0.000000 0.047993 0.000000
# 6 0.000000 0.000000 0.000000 0.000000 0.000000 0.052405
#
#
# Mechanical properties :
#
#
# Convention : Reuss Voigt Hill
#
# Bulk Modulus (GPa) = 11.11677 11.22721 11.17199
# Shear Modulus (GPa) = 22.49747 23.10500 22.80124
#
# Velocity S-wave (km/s) = 3.09398 3.13548 3.11480
# Velocity P-wave (km/s) = 4.18256 4.22912 4.20591
#
# Compressibility (1/GPa) = 0.08995415
#
# Stress axis : x y z
#
# Youngs Moduli (GPa) = 41.95837 41.94896 51.96085
#
# Poissons Ratio (x) = -0.16571 -0.19659
# Poissons Ratio (y) = -0.16574 -0.19667
# Poissons Ratio (z) = -0.15874 -0.15878
#
# Static dielectric constant tensor:
#      x y z
#    x 1.923190 0.000000 0.000000 
#    y 0.000000 1.923200 0.000000 
#    z 0.000000 0.000000 1.983870 
# 
# From -- ./inp_files/708.got.cif
#   From: 2010.05.17/outbox.cif.g08.bks.cpg/sg92_1_cif.got.tgz:708.got - 2010.06.03 19:35:17.
