data_PCOD9549064
_publ_section_title
;
Structure prediction by ZEFSAII (Michael W. Deem and Ramdas Pophale) SiO2 
 PCOD9549064
Probable space group: P 41 21 2
;
_chemical_formula_sum "Si O2"
_cell_formula_units_Z 40
_cell_length_a 7.697038
_cell_length_b 7.697038
_cell_length_c 28.160577
_cell_angle_alpha 90.000000
_cell_angle_beta 90.000000
_cell_angle_gamma 90.000000
_cell_volume 1668.356318
_symmetry_space_group_name_H-M "P 41 21 2"
_symmetry_group_IT_number 92
_symmetry_cell_setting 'tetragonal'
loop_
_space_group_symop_operation_xyz
x,y,z
1/2-y,1/2+x,1/4+z
-x,-y,1/2+z
1/2+y,1/2-x,3/4+z
1/2+x,1/2-y,3/4-z
1/2-x,1/2+y,1/4-z
y,x,-z
-y,-x,1/2-z
loop_
_atom_site_type_symbol
_atom_site_label
_atom_site_fract_x
_atom_site_fract_y
_atom_site_fract_z
Si Si1 0.486795 0.894214 0.476306
Si Si2 0.357143 0.767927 0.150461
Si Si3 0.283310 0.837025 0.674198
Si Si4 0.522333 0.557374 0.418538
Si Si5 0.988145 0.425801 0.417953
O O1 0.366652 0.042079 0.453594
O O2 0.481672 0.908530 0.532130
O O3 0.675565 0.927521 0.451930
O O4 0.448473 0.700373 0.456322
O O5 0.149885 0.796487 0.154472
O O6 0.422047 0.591052 0.129123
O O7 0.428021 0.913401 0.113584
O O8 0.201437 0.649301 0.681260
O O9 0.135857 0.983028 0.686030
O O10 0.325667 0.863903 0.618589
#
# Coordination Sequence:
#
# PCOD9549064 Si02
#       5
#     8   8   8   8   8
#     4   9  20  38  62  85 124 159 204 255 310 369
#     4   8  19  37  60  81 125 152 198 261 298 358
#     4  10  21  37  63  86 124 160 205 254 312 368
#     4   9  19  38  59  87 118 160 202 252 305 369
#     4  10  20  40  59  89 120 164 200 262 309 368
#
# _framework density 23.975695000000002
#
# number of rings (size 3 to 8) (size 9 to 14) (size 15 to 20)
#    1.200    1.600    0.000    0.600    2.800    0.000 
#   25.200    1.000    0.000    0.000    0.000    0.000 
#    0.000    0.000    0.000    0.000    0.000    0.000 
#
# Total GULP energy -223249.651698 kJ/mol
# GULP energy per Si atom -5581.241292 kJ/mol
# Density = 2.392112 g / cm^3
# Si number density = 23.975695 Si / 1000 Ang^3
#
#
#
# Elastic Constant Matrix: (Units=GPa)
#
#
# Indices 1 2 3 4 5 6 
#
# 1 12.6466 59.9045 33.2144 0.0000 0.0000 0.0000
# 2 59.9045 12.6466 33.2144 0.0000 0.0000 0.0000
# 3 33.2144 33.2144 159.6603 0.0000 0.0000 0.0000
# 4 0.0000 0.0000 0.0000 16.3379 0.0000 0.0000
# 5 0.0000 0.0000 0.0000 0.0000 16.3379 0.0000
# 6 0.0000 0.0000 0.0000 0.0000 0.0000 21.0235
#
#
#
# Elastic Compliance Matrix: (Units=1/GPa)
#
#
# Indices 1 2 3 4 5 6 
#
# 1 -0.002067 0.019094 -0.003542 0.000000 0.000000 0.000000
# 2 0.019094 -0.002067 -0.003542 0.000000 0.000000 0.000000
# 3 -0.003542 -0.003542 0.007737 0.000000 0.000000 0.000000
# 4 0.000000 0.000000 0.000000 0.061207 0.000000 0.000000
# 5 0.000000 0.000000 0.000000 0.000000 0.061207 0.000000
# 6 0.000000 0.000000 0.000000 0.000000 0.000000 0.047566
#
#
# Mechanical properties :
#
#
# Convention : Reuss Voigt Hill
#
# Bulk Modulus (GPa) = 36.20321 48.62445 42.41383
# Shear Modulus (GPa) = 31.49170 14.64788 23.06979
#
# Velocity S-wave (km/s) = 3.62813 2.47442 3.10533
# Velocity P-wave (km/s) = 5.71698 5.33745 5.53047
#
# Compressibility (1/GPa) = 0.02762186
#
# Stress axis : x y z
#
# Youngs Moduli (GPa) = -483.79842 -483.79842 129.24878
#
# Poissons Ratio (x) = 9.23741 0.45781
# Poissons Ratio (y) = 9.23741 0.45781
# Poissons Ratio (z) = -1.71364 -1.71364
#
# Static dielectric constant tensor:
#      x y z
#    x 2.009750 0.000000 0.000000 
#    y 0.000000 2.009750 0.000000 
#    z 0.000000 0.000000 1.868050 
# 
# From -- ./inp_files/4128.got.cif
#   From: 2010.05.17/outbox.cif.g08.bks.cpg/sg92_3_cif.got.tgz:4128.got - 2010.06.03 19:35:17.
