data_PCOD9549047
_publ_section_title
;
Structure prediction by ZEFSAII (Michael W. Deem and Ramdas Pophale) SiO2 
 PCOD9549047
Probable space group: P 41 21 2
;
_chemical_formula_sum "Si O2"
_cell_formula_units_Z 40
_cell_length_a 17.145833
_cell_length_b 17.145833
_cell_length_c 6.846751
_cell_angle_alpha 90.000000
_cell_angle_beta 90.000000
_cell_angle_gamma 90.000000
_cell_volume 2012.805047
_symmetry_space_group_name_H-M "P 41 21 2"
_symmetry_group_IT_number 92
_symmetry_cell_setting 'tetragonal'
loop_
_space_group_symop_operation_xyz
x,y,z
1/2-y,1/2+x,1/4+z
-x,-y,1/2+z
1/2+y,1/2-x,3/4+z
1/2+x,1/2-y,3/4-z
1/2-x,1/2+y,1/4-z
y,x,-z
-y,-x,1/2-z
loop_
_atom_site_type_symbol
_atom_site_label
_atom_site_fract_x
_atom_site_fract_y
_atom_site_fract_z
Si Si1 0.713703 0.029836 0.772802
Si Si2 0.238434 0.238434 0.000000
Si Si3 0.002079 0.895493 0.108623
Si Si4 0.614830 0.614830 0.000000
Si Si5 0.221513 0.366749 0.328291
Si Si6 0.330303 0.142022 0.277938
O O1 0.807303 0.011007 0.801654
O O2 0.692184 0.063843 0.558853
O O3 0.666923 0.950239 0.794564
O O4 0.684517 0.095428 0.926806
O O5 0.246485 0.303604 0.166500
O O6 0.258238 0.162443 0.129442
O O7 0.036750 0.963251 0.250000
O O8 0.062160 0.899209 0.932809
O O9 0.920914 0.920914 0.000000
O O10 0.602793 0.703020 0.063322
O O11 0.171783 0.326675 0.498775
#
# Coordination Sequence:
#
# PCOD9549047 Si02
#       6
#     8   4   8   4   8   8
#     4  11  26  45  66 100 133 178 240 283 346 419
#     4  10  20  38  67 100 126 165 224 274 334 416
#     4  12  24  40  64  98 139 175 217 269 341 419
#     4  12  18  38  69  88 128 179 210 264 332 400
#     4  11  20  40  71  93 129 177 222 275 337 406
#     4  11  24  44  67  97 133 181 230 290 346 407
#
# _framework density 19.872765000000001
#
# number of rings (size 3 to 8) (size 9 to 14) (size 15 to 20)
#    0.000    0.800    7.000    1.200    1.400    4.800 
#    9.000    0.000    0.000    0.000    0.000    0.000 
#    0.000    0.000    0.000    0.000    0.000    0.000 
#
# Total GULP energy -222696.794538 kJ/mol
# GULP energy per Si atom -5567.419863 kJ/mol
# Density = 1.982753 g / cm^3
# Si number density = 19.872765 Si / 1000 Ang^3
#
#
#
# Elastic Constant Matrix: (Units=GPa)
#
#
# Indices 1 2 3 4 5 6 
#
# 1 53.0143 17.6430 26.0804 0.0000 0.0000 0.0000
# 2 17.6430 53.0131 26.0800 0.0000 0.0000 0.0000
# 3 26.0804 26.0800 147.4261 0.0000 0.0000 0.0000
# 4 0.0000 0.0000 0.0000 79.9246 0.0000 0.0000
# 5 0.0000 0.0000 0.0000 0.0000 79.9274 0.0000
# 6 0.0000 0.0000 0.0000 0.0000 0.0000 25.5267
#
#
#
# Elastic Compliance Matrix: (Units=1/GPa)
#
#
# Indices 1 2 3 4 5 6 
#
# 1 0.022275 -0.005997 -0.002880 0.000000 0.000000 0.000000
# 2 -0.005997 0.022276 -0.002880 0.000000 0.000000 0.000000
# 3 -0.002880 -0.002880 0.007802 0.000000 0.000000 0.000000
# 4 0.000000 0.000000 0.000000 0.012512 0.000000 0.000000
# 5 0.000000 0.000000 0.000000 0.000000 0.012511 0.000000
# 6 0.000000 0.000000 0.000000 0.000000 0.000000 0.039175
#
#
# Mechanical properties :
#
#
# Convention : Reuss Voigt Hill
#
# Bulk Modulus (GPa) = 34.67343 43.67337 39.17340
# Shear Modulus (GPa) = 33.40539 49.31907 41.36223
#
# Velocity S-wave (km/s) = 4.10440 4.98711 4.56713
# Velocity P-wave (km/s) = 6.32037 7.42872 6.89685
#
# Compressibility (1/GPa) = 0.02884053
#
# Stress axis : x y z
#
# Youngs Moduli (GPa) = 44.89300 44.89202 128.17305
#
# Poissons Ratio (x) = 0.26920 0.36911
# Poissons Ratio (y) = 0.26920 0.36911
# Poissons Ratio (z) = 0.12928 0.12928
#
# Static dielectric constant tensor:
#      x y z
#    x 1.760310 0.000000 0.000000 
#    y 0.000000 1.760310 0.000000 
#    z 0.000000 0.000000 1.673830 
# 
# From -- ./inp_files/453.got.cif
#   From: 2010.05.17/outbox.cif.g08.bks.cpg/sg92_1_cif.got.tgz:453.got - 2010.06.03 19:35:17.
