data_PCOD9549927
_publ_section_title
;
Structure prediction by ZEFSAII (Michael W. Deem and Ramdas Pophale) SiO2 
 PCOD9549927
Probable space group: P 42 21 2
;
_chemical_formula_sum "Si O2"
_cell_formula_units_Z 32
_cell_length_a 12.865033
_cell_length_b 12.865033
_cell_length_c 7.542174
_cell_angle_alpha 90.000000
_cell_angle_beta 90.000000
_cell_angle_gamma 90.000000
_cell_volume 1248.298235
_symmetry_space_group_name_H-M "P 42 21 2"
_symmetry_group_IT_number 94
_symmetry_cell_setting 'tetragonal'
loop_
_space_group_symop_operation_xyz
x,y,z
1/2-y,1/2+x,1/2+z
-x,-y,z
1/2+y,1/2-x,1/2+z
1/2+x,1/2-y,1/2-z
1/2-x,1/2+y,1/2-z
y,x,-z
-y,-x,-z
loop_
_atom_site_type_symbol
_atom_site_label
_atom_site_fract_x
_atom_site_fract_y
_atom_site_fract_z
Si Si1 0.495130 0.272750 0.513958
Si Si2 0.061494 0.607654 0.544280
Si Si3 0.602027 0.395170 0.203117
Si Si4 0.649791 0.179650 0.109688
O O1 0.522659 0.343349 0.343114
O O2 0.514508 0.343896 0.685491
O O3 0.383365 0.222668 0.477746
O O4 0.572770 0.172529 0.537201
O O5 0.972535 0.675473 0.448403
O O6 0.000000 0.500000 0.582787
O O7 0.101454 0.657254 0.724156
O O8 0.676379 0.294538 0.173450
O O9 0.575886 0.424115 0.000000
#
# Coordination Sequence:
#
# PCOD9549927 Si02
#       4
#     8   8   8   8
#     4   9  19  33  47  73 108 136 174 219 261 321
#     4   9  16  27  46  72 102 134 168 213 272 331
#     4  10  20  32  48  72 106 145 179 216 266 316
#     4  10  18  30  50  74 103 141 177 217 269 324
#
# _framework density 25.634898
#
# number of rings (size 3 to 8) (size 9 to 14) (size 15 to 20)
#    0.000    2.500    0.000    3.750    0.000    4.000 
#    0.000    2.500    0.000    0.000    0.000   12.250 
#    0.000   32.000    0.000    0.000    0.000    0.000 
#
# Total GULP energy -178457.978253 kJ/mol
# GULP energy per Si atom -5576.811820 kJ/mol
# Density = 2.557655 g / cm^3
# Si number density = 25.634898 Si / 1000 Ang^3
#
#
#
# Elastic Constant Matrix: (Units=GPa)
#
#
# Indices 1 2 3 4 5 6 
#
# 1 72.1032 58.6792 44.8770 0.0000 0.0000 0.0000
# 2 58.6792 72.1026 44.8767 0.0000 0.0000 0.0000
# 3 44.8770 44.8767 137.6147 0.0000 0.0000 0.0000
# 4 0.0000 0.0000 0.0000 7.0740 0.0000 0.0000
# 5 0.0000 0.0000 0.0000 0.0000 7.0738 0.0000
# 6 0.0000 0.0000 0.0000 0.0000 0.0000 39.6327
#
#
#
# Elastic Compliance Matrix: (Units=1/GPa)
#
#
# Indices 1 2 3 4 5 6 
#
# 1 0.042173 -0.032322 -0.003212 0.000000 0.000000 0.000000
# 2 -0.032322 0.042173 -0.003212 0.000000 0.000000 0.000000
# 3 -0.003212 -0.003212 0.009362 0.000000 0.000000 0.000000
# 4 0.000000 0.000000 0.000000 0.141364 0.000000 0.000000
# 5 0.000000 0.000000 0.000000 0.000000 0.141366 0.000000
# 6 0.000000 0.000000 0.000000 0.000000 0.000000 0.025232
#
#
# Mechanical properties :
#
#
# Convention : Reuss Voigt Hill
#
# Bulk Modulus (GPa) = 61.67517 64.29848 62.98683
# Shear Modulus (GPa) = 10.31846 19.64861 14.98353
#
# Velocity S-wave (km/s) = 2.00846 2.77154 2.42026
# Velocity P-wave (km/s) = 5.43045 5.94800 5.69511
#
# Compressibility (1/GPa) = 0.01621398
#
# Stress axis : x y z
#
# Youngs Moduli (GPa) = 23.71190 23.71171 106.81644
#
# Poissons Ratio (x) = 0.76641 0.34315
# Poissons Ratio (y) = 0.76642 0.34314
# Poissons Ratio (z) = 0.07617 0.07617
#
# Static dielectric constant tensor:
#      x y z
#    x 2.102980 0.000000 0.000000 
#    y 0.000000 2.102980 0.000000 
#    z 0.000000 0.000000 2.131840 
# 
# From -- ./inp_files/1183.got.cif
#   From: 2010.05.17/outbox.cif.g08.bks.cpg/sg94_1_cif.got.tgz:1183.got - 2010.06.03 19:43:16.
