data_PCOD9549154
_publ_section_title
;
Structure prediction by ZEFSAII (Michael W. Deem and Ramdas Pophale) SiO2 
 PCOD9549154
Probable space group: P 41 21 2
;
_chemical_formula_sum "Si O2"
_cell_formula_units_Z 56
_cell_length_a 11.396341
_cell_length_b 11.396341
_cell_length_c 17.891268
_cell_angle_alpha 90.000000
_cell_angle_beta 90.000000
_cell_angle_gamma 90.000000
_cell_volume 2323.656846
_symmetry_space_group_name_H-M "P 41 21 2"
_symmetry_group_IT_number 92
_symmetry_cell_setting 'tetragonal'
loop_
_space_group_symop_operation_xyz
x,y,z
1/2-y,1/2+x,1/4+z
-x,-y,1/2+z
1/2+y,1/2-x,3/4+z
1/2+x,1/2-y,3/4-z
1/2-x,1/2+y,1/4-z
y,x,-z
-y,-x,1/2-z
loop_
_atom_site_type_symbol
_atom_site_label
_atom_site_fract_x
_atom_site_fract_y
_atom_site_fract_z
Si Si1 0.891736 0.108265 0.250000
Si Si2 0.573314 0.238185 0.038302
Si Si3 0.233571 0.233571 0.000000
Si Si4 0.951216 0.953528 0.107379
Si Si5 0.865374 0.550735 0.041807
Si Si6 0.969341 0.619814 0.462276
Si Si7 0.065174 0.795491 0.353129
Si Si8 0.961322 0.275473 0.462601
O O1 0.918700 0.246567 0.248084
O O2 0.954290 0.064010 0.324591
O O3 0.585682 0.327876 0.106443
O O4 0.478443 0.132082 0.049696
O O5 0.694593 0.173345 0.017526
O O6 0.519302 0.308555 0.968780
O O7 0.099743 0.269980 0.996605
O O8 0.303591 0.285309 0.928818
O O9 0.857151 0.996717 0.046877
O O10 0.090776 0.946196 0.095570
O O11 0.956192 0.653879 0.019612
O O12 0.930634 0.435174 0.012955
O O13 0.829461 0.532717 0.127989
O O14 0.027405 0.672122 0.388421
#
# Coordination Sequence:
#
# PCOD9549154 Si02
#       8
#     4   8   4   8   8   8   8   8
#     4  10  21  42  66  97 138 192 230 293 350 436
#     4  10  21  41  66  99 130 177 237 283 354 415
#     4  10  21  42  64  99 142 174 232 289 352 434
#     4  11  20  42  65  98 135 184 226 283 359 424
#     4  10  24  44  68 103 138 185 239 294 361 421
#     4  10  23  39  73  99 133 179 232 291 356 413
#     4  11  20  42  69  94 133 186 228 288 355 429
#     4  10  25  40  71 102 139 184 236 295 358 434
#
# _framework density 24.099945999999999
#
# number of rings (size 3 to 8) (size 9 to 14) (size 15 to 20)
#    0.000    1.714    4.286    0.000   16.000    1.143 
#    0.000    0.000    3.143    0.000    0.000    0.000 
#    0.000    0.000    0.000    0.000    0.000    0.000 
#
# Total GULP energy -313127.943916 kJ/mol
# GULP energy per Si atom -5591.570427 kJ/mol
# Density = 2.404509 g / cm^3
# Si number density = 24.099946 Si / 1000 Ang^3
#
#
#
# Elastic Constant Matrix: (Units=GPa)
#
#
# Indices 1 2 3 4 5 6 
#
# 1 32.8833 119.2609 35.6623 0.0000 0.0000 0.0000
# 2 119.2609 32.8799 35.6626 0.0000 0.0000 0.0000
# 3 35.6623 35.6626 72.8048 0.0000 0.0000 0.0000
# 4 0.0000 0.0000 0.0000 18.3533 0.0000 0.0000
# 5 0.0000 0.0000 0.0000 0.0000 18.3525 0.0000
# 6 0.0000 0.0000 0.0000 0.0000 0.0000 45.2926
#
#
#
# Elastic Compliance Matrix: (Units=1/GPa)
#
#
# Indices 1 2 3 4 5 6 
#
# 1 -0.001522 0.010054 -0.004179 0.000000 0.000000 0.000000
# 2 0.010054 -0.001523 -0.004179 0.000000 0.000000 0.000000
# 3 -0.004179 -0.004179 0.017830 0.000000 0.000000 0.000000
# 4 0.000000 0.000000 0.000000 0.054486 0.000000 0.000000
# 5 0.000000 0.000000 0.000000 0.000000 0.054488 0.000000
# 6 0.000000 0.000000 0.000000 0.000000 0.000000 0.022079
#
#
# Mechanical properties :
#
#
# Convention : Reuss Voigt Hill
#
# Bulk Modulus (GPa) = 55.01585 57.74886 56.38235
# Shear Modulus (GPa) = 33.66881 12.93183 23.30032
#
# Velocity S-wave (km/s) = 3.74177 2.31896 3.11275
# Velocity P-wave (km/s) = 6.44558 5.58429 6.03033
#
# Compressibility (1/GPa) = 0.01817658
#
# Stress axis : x y z
#
# Youngs Moduli (GPa) = -656.93807 -656.78386 56.08611
#
# Poissons Ratio (x) = 6.60360 0.23441
# Poissons Ratio (y) = 6.60515 0.23440
# Poissons Ratio (z) = -2.74562 -2.74484
#
# Static dielectric constant tensor:
#      x y z
#    x 1.969260 0.000000 0.000000 
#    y 0.000000 1.969260 0.000000 
#    z 0.000000 0.000000 2.011730 
# 
# From -- ./inp_files/3608.got.cif
#   From: 2010.05.17/outbox.cif.g08.bks.cpg/sg92_2_cif.got.tgz:3608.got - 2010.06.03 19:35:17.
