data_PCOD9549591
_publ_section_title
;
Structure prediction by ZEFSAII (Michael W. Deem and Ramdas Pophale) SiO2 
 PCOD9549591
Probable space group: P 41 21 2
;
_chemical_formula_sum "Si O2"
_cell_formula_units_Z 56
_cell_length_a 15.000000
_cell_length_b 15.000000
_cell_length_c 12.000000
_cell_angle_alpha 90.000000
_cell_angle_beta 90.000000
_cell_angle_gamma 90.000000
_cell_volume 2700.000000
_symmetry_space_group_name_H-M "P 41 21 2"
_symmetry_group_IT_number 92
_symmetry_cell_setting 'tetragonal'
loop_
_space_group_symop_operation_xyz
x,y,z
1/2-y,1/2+x,1/4+z
-x,-y,1/2+z
1/2+y,1/2-x,3/4+z
1/2+x,1/2-y,3/4-z
1/2-x,1/2+y,1/4-z
y,x,-z
-y,-x,1/2-z
loop_
_atom_site_type_symbol
_atom_site_label
_atom_site_fract_x
_atom_site_fract_y
_atom_site_fract_z
Si Si1 0.656764 0.118300 0.387894
Si Si2 0.818201 0.181800 0.250000
Si Si3 0.462466 0.734976 0.259488
Si Si4 0.474069 0.525932 0.250000
Si Si5 0.227809 0.144727 0.795679
Si Si6 0.383229 0.818304 0.479422
Si Si7 0.978557 0.682886 0.029842
Si Si8 0.504417 0.349514 0.381643
O O1 0.729971 0.176819 0.322426
O O2 0.625982 0.176127 0.492801
O O3 0.575710 0.113313 0.299972
O O4 0.710233 0.034462 0.436182
O O5 0.820035 0.092125 0.176870
O O6 0.487386 0.630729 0.280517
O O7 0.443232 0.786261 0.374325
O O8 0.379065 0.730051 0.175012
O O9 0.495783 0.451471 0.342998
O O10 0.195359 0.244704 0.773181
O O11 0.162765 0.076626 0.729759
O O12 0.434176 0.813698 0.598022
O O13 0.346627 0.918379 0.463639
O O14 0.971809 0.779445 0.967404
#
# Coordination Sequence:
#
# PCOD9549591 Si02
#       8
#     8   4   8   4   8   8   8   8
#     4  11  24  43  77 102 135 188 246 296 357 434
#     4  12  20  41  74 108 139 176 242 302 360 424
#     4  12  26  46  70 110 145 196 234 298 388 441
#     4  12  22  43  70 108 153 180 234 296 370 452
#     4  11  23  46  72 104 148 186 238 303 367 448
#     4  12  27  47  66 102 151 187 242 308 361 442
#     4  11  27  47  71 104 140 193 254 303 360 427
#     4  11  22  41  75 110 137 185 242 302 364 432
#
# _framework density 20.740741
#
# number of rings (size 3 to 8) (size 9 to 14) (size 15 to 20)
#    0.000    0.571    4.286    3.429    4.000    3.429 
#    2.571    0.000    0.000    0.000    0.000    0.000 
#    0.000    0.000    0.000    0.000    0.000    0.000 
#
# Total GULP energy -313172.276890 kJ/mol
# GULP energy per Si atom -5592.362087 kJ/mol
# Density = 2.069353 g / cm^3
# Si number density = 20.740741 Si / 1000 Ang^3
#
#
#
# Elastic Constant Matrix: (Units=GPa)
#
#
# Indices 1 2 3 4 5 6 
#
# 1 108.8910 25.9675 43.1050 0.0000 0.0000 0.0000
# 2 25.9675 108.8914 43.1052 0.0000 0.0000 0.0000
# 3 43.1050 43.1052 144.0667 0.0000 0.0000 0.0000
# 4 0.0000 0.0000 0.0000 35.7540 0.0000 0.0000
# 5 0.0000 0.0000 0.0000 0.0000 35.7539 0.0000
# 6 0.0000 0.0000 0.0000 0.0000 0.0000 39.8589
#
#
#
# Elastic Compliance Matrix: (Units=1/GPa)
#
#
# Indices 1 2 3 4 5 6 
#
# 1 0.010614 -0.001445 -0.002743 0.000000 0.000000 0.000000
# 2 -0.001445 0.010614 -0.002743 0.000000 0.000000 0.000000
# 3 -0.002743 -0.002743 0.008583 0.000000 0.000000 0.000000
# 4 0.000000 0.000000 0.000000 0.027969 0.000000 0.000000
# 5 0.000000 0.000000 0.000000 0.000000 0.027969 0.000000
# 6 0.000000 0.000000 0.000000 0.000000 0.000000 0.025089
#
#
# Mechanical properties :
#
#
# Convention : Reuss Voigt Hill
#
# Bulk Modulus (GPa) = 62.70678 65.13382 63.92030
# Shear Modulus (GPa) = 38.45653 38.91813 38.68733
#
# Velocity S-wave (km/s) = 4.31066 4.33645 4.32358
# Velocity P-wave (km/s) = 7.42125 7.51965 7.47061
#
# Compressibility (1/GPa) = 0.01594724
#
# Stress axis : x y z
#
# Youngs Moduli (GPa) = 94.21435 94.21459 116.51124
#
# Poissons Ratio (x) = 0.13616 0.31963
# Poissons Ratio (y) = 0.13616 0.31963
# Poissons Ratio (z) = 0.25846 0.25846
#
# Static dielectric constant tensor:
#      x y z
#    x 1.750820 0.000000 0.000000 
#    y 0.000000 1.750820 0.000000 
#    z 0.000000 0.000000 1.755870 
# 
# From -- ./inp_files/2316.got.cif
#   From: 2010.05.17/outbox.ucp.g08.bks.cvg/sg92_2_cif.got.tgz:2316.got - 2010.06.11 10:36:43.
