data_PCOD9549430
_publ_section_title
;
Structure prediction by ZEFSAII (Michael W. Deem and Ramdas Pophale) SiO2 
 PCOD9549430
Probable space group: P 41 21 2
;
_chemical_formula_sum "Si O2"
_cell_formula_units_Z 32
_cell_length_a 7.045193
_cell_length_b 7.045193
_cell_length_c 25.371164
_cell_angle_alpha 90.000000
_cell_angle_beta 90.000000
_cell_angle_gamma 90.000000
_cell_volume 1259.291240
_symmetry_space_group_name_H-M "P 41 21 2"
_symmetry_group_IT_number 92
_symmetry_cell_setting 'tetragonal'
loop_
_space_group_symop_operation_xyz
x,y,z
1/2-y,1/2+x,1/4+z
-x,-y,1/2+z
1/2+y,1/2-x,3/4+z
1/2+x,1/2-y,3/4-z
1/2-x,1/2+y,1/4-z
y,x,-z
-y,-x,1/2-z
loop_
_atom_site_type_symbol
_atom_site_label
_atom_site_fract_x
_atom_site_fract_y
_atom_site_fract_z
Si Si1 0.671293 0.712364 0.217224
Si Si2 0.885932 0.062003 0.916692
Si Si3 0.124574 0.739343 0.802152
Si Si4 0.660390 0.566226 0.443804
O O1 0.530573 0.586440 0.182597
O O2 0.665875 0.670485 0.279714
O O3 0.892417 0.691395 0.200303
O O4 0.625237 0.932190 0.207644
O O5 0.754784 0.874211 0.908404
O O6 0.845429 0.171490 0.862158
O O7 0.250893 0.749108 0.750000
O O8 0.042360 0.950674 0.809890
O O9 0.669981 0.669981 0.500000
#
# Coordination Sequence:
#
# PCOD9549430 Si02
#       4
#     8   8   8   8
#     4   9  20  33  62  98 117 165 218 248 317 383
#     4  11  18  37  66  89 127 172 210 260 320 384
#     4   9  18  36  61  88 125 161 206 260 309 379
#     4   9  20  37  60  88 128 165 205 269 318 371
#
# _framework density 25.411123
#
# number of rings (size 3 to 8) (size 9 to 14) (size 15 to 20)
#    1.500    1.000    2.500    1.500    0.000    0.000 
#    0.000    2.500   16.500    0.000    0.000    0.000 
#    0.000    0.000    0.000    0.000    0.000    0.000 
#
# Total GULP energy -178327.404760 kJ/mol
# GULP energy per Si atom -5572.731399 kJ/mol
# Density = 2.535329 g / cm^3
# Si number density = 25.411123 Si / 1000 Ang^3
#
#
#
# Elastic Constant Matrix: (Units=GPa)
#
#
# Indices 1 2 3 4 5 6 
#
# 1 28.3945 48.9261 21.9575 0.0000 0.0000 0.0000
# 2 48.9261 28.3943 21.9569 0.0000 0.0000 0.0000
# 3 21.9575 21.9569 222.1080 0.0000 0.0000 0.0000
# 4 0.0000 0.0000 0.0000 -430.7151 0.0000 0.0000
# 5 0.0000 0.0000 0.0000 0.0000 -430.6223 0.0000
# 6 0.0000 0.0000 0.0000 0.0000 0.0000 13.1553
#
#
#
# Elastic Compliance Matrix: (Units=1/GPa)
#
#
# Indices 1 2 3 4 5 6 
#
# 1 -0.017501 0.031204 -0.001355 0.000000 0.000000 0.000000
# 2 0.031204 -0.017501 -0.001355 0.000000 0.000000 0.000000
# 3 -0.001355 -0.001355 0.004770 0.000000 0.000000 0.000000
# 4 0.000000 0.000000 0.000000 -0.002322 0.000000 0.000000
# 5 0.000000 0.000000 0.000000 0.000000 -0.002322 0.000000
# 6 0.000000 0.000000 0.000000 0.000000 0.000000 0.076015
#
#
# Mechanical properties :
#
#
# Convention : Reuss Voigt Hill
#
# Bulk Modulus (GPa) = 37.37371 51.61976 44.49674
# Shear Modulus (GPa) = -721.30184 -157.23265 -439.26725
#
# Velocity S-wave (km/s) = -16.86621 -7.87463 -13.16205
# Velocity P-wave (km/s) = 19.09326 7.89442 14.60949
#
# Compressibility (1/GPa) = 0.02675678
#
# Stress axis : x y z
#
# Youngs Moduli (GPa) = -57.13841 -57.13819 209.63737
#
# Poissons Ratio (x) = 1.78294 0.28396
# Poissons Ratio (y) = 1.78294 0.28399
# Poissons Ratio (z) = -0.07740 -0.07740
#
# Static dielectric constant tensor:
#      x y z
#    x 2.136250 0.000000 0.000000 
#    y 0.000000 2.136220 0.000000 
#    z 0.000000 0.000000 2.068700 
# 
# From -- ./inp_files/3700.got.cif
#   From: 2010.05.17/outbox.cif.g08.bks.cpg/sg92_2_cif.got.tgz:3700.got - 2010.06.03 19:35:17.
