data_PCOD9549170
_publ_section_title
;
Structure prediction by ZEFSAII (Michael W. Deem and Ramdas Pophale) SiO2 
 PCOD9549170
Probable space group: P 41 21 2
;
_chemical_formula_sum "Si O2"
_cell_formula_units_Z 60
_cell_length_a 11.940152
_cell_length_b 11.940152
_cell_length_c 20.157842
_cell_angle_alpha 90.000000
_cell_angle_beta 90.000000
_cell_angle_gamma 90.000000
_cell_volume 2873.847692
_symmetry_space_group_name_H-M "P 41 21 2"
_symmetry_group_IT_number 92
_symmetry_cell_setting 'tetragonal'
loop_
_space_group_symop_operation_xyz
x,y,z
1/2-y,1/2+x,1/4+z
-x,-y,1/2+z
1/2+y,1/2-x,3/4+z
1/2+x,1/2-y,3/4-z
1/2-x,1/2+y,1/4-z
y,x,-z
-y,-x,1/2-z
loop_
_atom_site_type_symbol
_atom_site_label
_atom_site_fract_x
_atom_site_fract_y
_atom_site_fract_z
Si Si1 0.407989 0.148016 0.496732
Si Si2 0.639897 0.569460 0.074797
Si Si3 0.583128 0.346993 0.818658
Si Si4 0.487473 0.053646 0.933804
Si Si5 0.501204 0.759108 0.123906
Si Si6 0.517556 0.618930 0.632145
Si Si7 0.343916 0.656085 0.750000
Si Si8 0.407163 0.152061 0.060902
O O1 0.426494 0.226739 0.432377
O O2 0.495161 0.190233 0.550805
O O3 0.283507 0.153791 0.527316
O O4 0.432463 0.024270 0.476223
O O5 0.599915 0.666593 0.125194
O O6 0.573104 0.457057 0.091934
O O7 0.603614 0.603614 0.000000
O O8 0.584874 0.415127 0.750000
O O9 0.682432 0.394075 0.864316
O O10 0.464151 0.377978 0.851490
O O11 0.621665 0.222958 0.801149
O O12 0.366231 0.996886 0.921047
O O13 0.552164 0.065252 0.864048
O O14 0.461905 0.151532 0.987112
O O15 0.444382 0.648695 0.697468
O O16 0.561082 0.730359 0.595685
#
# Coordination Sequence:
#
# PCOD9549170 Si02
#       8
#     8   8   8   8   8   8   4   8
#     4  11  22  40  69 100 140 181 232 293 359 427
#     4   9  21  41  67  99 129 181 238 288 356 424
#     4  11  24  46  71 100 138 190 239 295 364 437
#     4  12  25  42  66 104 147 183 241 292 376 439
#     4  10  21  42  66  94 132 180 226 284 349 425
#     4  11  26  44  71 101 139 187 243 299 364 438
#     4  12  22  44  66 102 144 178 236 302 352 432
#     4  12  28  45  69 106 140 192 239 311 365 443
#
# _framework density 20.877935000000001
#
# number of rings (size 3 to 8) (size 9 to 14) (size 15 to 20)
#    0.000    1.067    6.667    0.000    3.733    3.733 
#    0.000    1.333    0.000    0.000    0.000    0.000 
#    0.000    0.000    0.000    0.000    0.000    0.000 
#
# Total GULP energy -334121.183989 kJ/mol
# GULP energy per Si atom -5568.686400 kJ/mol
# Density = 2.083042 g / cm^3
# Si number density = 20.877935 Si / 1000 Ang^3
#
#
#
# Elastic Constant Matrix: (Units=GPa)
#
#
# Indices 1 2 3 4 5 6 
#
# 1 77.8561 20.1572 7.5132 0.0000 0.0000 0.0000
# 2 20.1572 77.8559 7.5130 0.0000 0.0000 0.0000
# 3 7.5132 7.5130 51.2659 0.0000 0.0000 0.0000
# 4 0.0000 0.0000 0.0000 45.9209 0.0000 0.0000
# 5 0.0000 0.0000 0.0000 0.0000 45.9187 0.0000
# 6 0.0000 0.0000 0.0000 0.0000 0.0000 16.8815
#
#
#
# Elastic Compliance Matrix: (Units=1/GPa)
#
#
# Indices 1 2 3 4 5 6 
#
# 1 0.013884 -0.003447 -0.001530 0.000000 0.000000 0.000000
# 2 -0.003447 0.013884 -0.001530 0.000000 0.000000 0.000000
# 3 -0.001530 -0.001530 0.019954 0.000000 0.000000 0.000000
# 4 0.000000 0.000000 0.000000 0.021777 0.000000 0.000000
# 5 0.000000 0.000000 0.000000 0.000000 0.021778 0.000000
# 6 0.000000 0.000000 0.000000 0.000000 0.000000 0.059237
#
#
# Mechanical properties :
#
#
# Convention : Reuss Voigt Hill
#
# Bulk Modulus (GPa) = 28.80971 30.81608 29.81289
# Shear Modulus (GPa) = 28.55567 33.19717 30.87642
#
# Velocity S-wave (km/s) = 3.70231 3.99188 3.84982
# Velocity P-wave (km/s) = 5.66615 6.00325 5.83713
#
# Compressibility (1/GPa) = 0.03471052
#
# Stress axis : x y z
#
# Youngs Moduli (GPa) = 72.02389 72.02377 50.11408
#
# Poissons Ratio (x) = 0.24827 0.07666
# Poissons Ratio (y) = 0.24827 0.07665
# Poissons Ratio (z) = 0.11017 0.11017
#
# Static dielectric constant tensor:
#      x y z
#    x 1.777790 0.000000 0.000000 
#    y 0.000000 1.777790 0.000000 
#    z 0.000000 0.000000 1.788260 
# 
# From -- ./inp_files/3614.got.cif
#   From: 2010.05.17/outbox.cif.g08.bks.cpg/sg92_2_cif.got.tgz:3614.got - 2010.06.03 19:35:17.
