data_PCOD9549020
_publ_section_title
;
Structure prediction by ZEFSAII (Michael W. Deem and Ramdas Pophale) SiO2 
 PCOD9549020
Probable space group: P 41 21 2
;
_chemical_formula_sum "Si O2"
_cell_formula_units_Z 40
_cell_length_a 11.570368
_cell_length_b 11.570368
_cell_length_c 15.076938
_cell_angle_alpha 90.000000
_cell_angle_beta 90.000000
_cell_angle_gamma 90.000000
_cell_volume 2018.401188
_symmetry_space_group_name_H-M "P 41 21 2"
_symmetry_group_IT_number 92
_symmetry_cell_setting 'tetragonal'
loop_
_space_group_symop_operation_xyz
x,y,z
1/2-y,1/2+x,1/4+z
-x,-y,1/2+z
1/2+y,1/2-x,3/4+z
1/2+x,1/2-y,3/4-z
1/2-x,1/2+y,1/4-z
y,x,-z
-y,-x,1/2-z
loop_
_atom_site_type_symbol
_atom_site_label
_atom_site_fract_x
_atom_site_fract_y
_atom_site_fract_z
Si Si1 0.822431 0.210036 0.856862
Si Si2 0.007551 0.401234 0.344038
Si Si3 0.284643 0.030572 0.837874
Si Si4 0.611861 0.460013 0.564369
Si Si5 0.630656 0.883402 0.729623
O O1 0.801193 0.198808 0.750000
O O2 0.831135 0.344067 0.881972
O O3 0.722308 0.148383 0.912052
O O4 0.942541 0.150658 0.882821
O O5 0.012385 0.308986 0.265999
O O6 0.923426 0.360901 0.423323
O O7 0.961364 0.527056 0.311154
O O8 0.140021 0.429280 0.369592
O O9 0.149900 0.048191 0.854142
O O10 0.523058 0.523058 0.500000
O O11 0.736525 0.430806 0.517341
#
# Coordination Sequence:
#
# PCOD9549020 Si02
#       5
#     8   8   8   8   8
#     4  10  20  36  66  93 121 154 215 268 319 366
#     4  10  20  38  60  91 126 161 214 252 313 396
#     4  10  22  36  61  92 123 166 205 260 317 381
#     4  10  20  38  59  88 126 159 207 269 316 368
#     4  10  20  36  66  92 119 168 209 263 322 374
#
# _framework density 19.817665000000002
#
# number of rings (size 3 to 8) (size 9 to 14) (size 15 to 20)
#    0.000    2.000    2.000    2.400    2.800    0.000 
#    7.200    0.000    4.400    0.000    0.000    0.000 
#    0.000    0.000    0.000    0.000    0.000    0.000 
#
# Total GULP energy -222698.518111 kJ/mol
# GULP energy per Si atom -5567.462953 kJ/mol
# Density = 1.977256 g / cm^3
# Si number density = 19.817665 Si / 1000 Ang^3
#
#
#
# Elastic Constant Matrix: (Units=GPa)
#
#
# Indices 1 2 3 4 5 6 
#
# 1 63.0275 18.2861 13.0799 0.0000 0.0000 0.0000
# 2 18.2861 63.0276 13.0799 0.0000 0.0000 0.0000
# 3 13.0799 13.0799 79.5098 0.0000 0.0000 0.0000
# 4 0.0000 0.0000 0.0000 -548.2455 0.0000 0.0000
# 5 0.0000 0.0000 0.0000 0.0000 -548.5060 0.0000
# 6 0.0000 0.0000 0.0000 0.0000 0.0000 24.5805
#
#
#
# Elastic Compliance Matrix: (Units=1/GPa)
#
#
# Indices 1 2 3 4 5 6 
#
# 1 0.017668 -0.004683 -0.002136 0.000000 0.000000 0.000000
# 2 -0.004683 0.017668 -0.002136 0.000000 0.000000 0.000000
# 3 -0.002136 -0.002136 0.013280 0.000000 0.000000 0.000000
# 4 0.000000 0.000000 0.000000 -0.001824 0.000000 0.000000
# 5 0.000000 0.000000 0.000000 0.000000 -0.001823 0.000000
# 6 0.000000 0.000000 0.000000 0.000000 0.000000 0.040683
#
#
# Mechanical properties :
#
#
# Convention : Reuss Voigt Hill
#
# Bulk Modulus (GPa) = 32.56711 32.71740 32.64226
# Shear Modulus (GPa) = 43.93806 -203.69293 -79.87743
#
# Velocity S-wave (km/s) = 4.71373 -10.14922 -6.35560
# Velocity P-wave (km/s) = 6.78931 10.99078 6.11156
#
# Compressibility (1/GPa) = 0.03070582
#
# Stress axis : x y z
#
# Youngs Moduli (GPa) = 56.59961 56.59964 75.30185
#
# Poissons Ratio (x) = 0.26504 0.16086
# Poissons Ratio (y) = 0.26504 0.16086
# Poissons Ratio (z) = 0.12091 0.12091
#
# Static dielectric constant tensor:
#      x y z
#    x 2.340040 0.000000 0.000000 
#    y 0.000000 2.340310 0.000000 
#    z 0.000000 0.000000 1.720710 
# 
# From -- ./inp_files/2615.got.cif
#   From: 2010.05.17/outbox.cif.g08.bks.cpg/sg92_2_cif.got.tgz:2615.got - 2010.06.03 19:35:17.
