data_PCOD9549677
_publ_section_title
;
Structure prediction by ZEFSAII (Michael W. Deem and Ramdas Pophale) SiO2 
 PCOD9549677
Probable space group: P 42 2 2
;
_chemical_formula_sum "Si O2"
_cell_formula_units_Z 38
_cell_length_a 11.922524
_cell_length_b 11.922524
_cell_length_c 12.190529
_cell_angle_alpha 90.000000
_cell_angle_beta 90.000000
_cell_angle_gamma 90.000000
_cell_volume 1732.841988
_symmetry_space_group_name_H-M "P 42 2 2"
_symmetry_group_IT_number 93
_symmetry_cell_setting 'tetragonal'
loop_
_space_group_symop_operation_xyz
x,y,z
-y,x,1/2+z
-x,-y,z
y,-x,1/2+z
x,-y,-z
-x,y,-z
y,x,1/2-z
-y,-x,1/2-z
loop_
_atom_site_type_symbol
_atom_site_label
_atom_site_fract_x
_atom_site_fract_y
_atom_site_fract_z
Si Si1 0.181497 0.823519 0.411447
Si Si2 0.682516 0.682516 0.750000
Si Si3 0.324434 0.833147 0.878845
Si Si4 0.000000 0.500000 0.500000
Si Si5 0.366287 0.472710 0.374518
Si Si6 0.800997 0.982240 0.263877
O O1 0.283561 0.756252 0.354405
O O2 0.162842 0.778875 0.533447
O O3 0.074948 0.791957 0.333613
O O4 0.202323 0.952315 0.378387
O O5 0.556090 0.695114 0.790828
O O6 0.358747 0.703492 0.864102
O O7 0.292179 0.891233 0.764691
O O8 0.420925 0.913952 0.931168
O O9 0.500000 0.500000 0.362733
O O10 0.343368 0.500000 0.500000
O O11 0.916313 0.916313 0.250000
#
# Coordination Sequence:
#
# PCOD9549677 Si02
#       6
#     8   4   8   2   8   8
#     4  10  20  39  60  96 129 172 221 300 364 415
#     4  10  19  38  61  90 128 174 220 296 349 420
#     4  12  22  40  67  96 133 177 243 300 360 441
#     4  12  20  36  62 102 116 174 232 302 344 410
#     4  11  23  38  61  97 132 181 233 291 359 431
#     4  10  22  37  60  93 131 175 223 282 363 437
#
# _framework density 21.929293000000001
#
# number of rings (size 3 to 8) (size 9 to 14) (size 15 to 20)
#    0.000    1.474    5.263    1.579    2.947    2.526 
#    0.000    4.211    0.000    0.000    0.000    0.000 
#    0.000    0.000    0.000    0.000    0.000    0.000 
#
# Total GULP energy -211742.293385 kJ/mol
# GULP energy per Si atom -5572.165615 kJ/mol
# Density = 2.187938 g / cm^3
# Si number density = 21.929293 Si / 1000 Ang^3
#
#
#
# Elastic Constant Matrix: (Units=GPa)
#
#
# Indices 1 2 3 4 5 6 
#
# 1 167.9332 -12.6476 31.8956 0.0000 0.0000 0.0000
# 2 -12.6476 167.9332 31.8956 0.0000 0.0000 0.0000
# 3 31.8956 31.8956 93.8111 0.0000 0.0000 0.0000
# 4 0.0000 0.0000 0.0000 14.9290 0.0000 0.0000
# 5 0.0000 0.0000 0.0000 0.0000 14.9290 0.0000
# 6 0.0000 0.0000 0.0000 0.0000 0.0000 40.1778
#
#
#
# Elastic Compliance Matrix: (Units=1/GPa)
#
#
# Indices 1 2 3 4 5 6 
#
# 1 0.006511 0.000974 -0.002545 0.000000 0.000000 0.000000
# 2 0.000974 0.006511 -0.002545 0.000000 0.000000 0.000000
# 3 -0.002545 -0.002545 0.012390 0.000000 0.000000 0.000000
# 4 0.000000 0.000000 0.000000 0.066984 0.000000 0.000000
# 5 0.000000 0.000000 0.000000 0.000000 0.066984 0.000000
# 6 0.000000 0.000000 0.000000 0.000000 0.000000 0.024889
#
#
# Mechanical properties :
#
#
# Convention : Reuss Voigt Hill
#
# Bulk Modulus (GPa) = 58.20427 59.10720 58.65574
# Shear Modulus (GPa) = 25.22329 39.24274 32.23302
#
# Velocity S-wave (km/s) = 3.39515 4.23485 3.83804
# Velocity P-wave (km/s) = 6.47834 7.13611 6.81516
#
# Compressibility (1/GPa) = 0.01718087
#
# Stress axis : x y z
#
# Youngs Moduli (GPa) = 153.57556 153.57556 80.70836
#
# Poissons Ratio (x) = -0.14955 0.20540
# Poissons Ratio (y) = -0.14955 0.20540
# Poissons Ratio (z) = 0.39084 0.39084
#
# Static dielectric constant tensor:
#      x y z
#    x 1.873940 0.000000 0.000000 
#    y 0.000000 1.873940 0.000000 
#    z 0.000000 0.000000 1.780540 
# 
# From -- ./inp_files/4390.got.cif
#   From: 2010.05.17/outbox.cif.g08.bks.cpg/sg93_3_cif.got.tgz:4390.got - 2010.06.03 19:38:44.
