data_PCOD9549314
_publ_section_title
;
Structure prediction by ZEFSAII (Michael W. Deem and Ramdas Pophale) SiO2 
 PCOD9549314
Probable space group: P 41 21 2
;
_chemical_formula_sum "Si O2"
_cell_formula_units_Z 28
_cell_length_a 17.554432
_cell_length_b 17.554432
_cell_length_c 5.157412
_cell_angle_alpha 90.000000
_cell_angle_beta 90.000000
_cell_angle_gamma 90.000000
_cell_volume 1589.298194
_symmetry_space_group_name_H-M "P 41 21 2"
_symmetry_group_IT_number 92
_symmetry_cell_setting 'tetragonal'
loop_
_space_group_symop_operation_xyz
x,y,z
1/2-y,1/2+x,1/4+z
-x,-y,1/2+z
1/2+y,1/2-x,3/4+z
1/2+x,1/2-y,3/4-z
1/2-x,1/2+y,1/4-z
y,x,-z
-y,-x,1/2-z
loop_
_atom_site_type_symbol
_atom_site_label
_atom_site_fract_x
_atom_site_fract_y
_atom_site_fract_z
Si Si1 0.037435 0.962566 0.750000
Si Si2 0.688801 0.388084 0.500999
Si Si3 0.807998 0.268154 0.499191
Si Si4 0.943842 0.171665 0.598643
O O1 0.124088 0.969314 0.654848
O O2 0.988124 0.988124 0.500000
O O3 0.646854 0.353147 0.750000
O O4 0.774104 0.352922 0.482694
O O5 0.687679 0.478956 0.500778
O O6 0.643932 0.356069 0.250000
O O7 0.767392 0.232608 0.750000
O O8 0.896301 0.247011 0.529675
O O9 0.777287 0.222714 0.250000
O O10 0.885882 0.114118 0.750000
#
# Coordination Sequence:
#
# PCOD9549314 Si02
#       4
#     4   8   8   8
#     4  12  24  32  46  80 118 136 168 210 268 324
#     4  10  23  34  52  78 109 139 178 220 260 321
#     4   9  19  38  50  71 104 146 181 206 256 326
#     4  11  23  34  55  77 112 145 172 220 271 323
#
# _framework density 17.617840000000001
#
# number of rings (size 3 to 8) (size 9 to 14) (size 15 to 20)
#    0.000    1.714    2.857    0.857    8.000    0.000 
#    0.000    0.000    0.000    0.000    0.000   20.000 
#    0.000    0.000    0.000    0.000    0.000    0.000 
#
# Total GULP energy -156180.424948 kJ/mol
# GULP energy per Si atom -5577.872320 kJ/mol
# Density = 1.757774 g / cm^3
# Si number density = 17.617840 Si / 1000 Ang^3
#
#
#
# Elastic Constant Matrix: (Units=GPa)
#
#
# Indices 1 2 3 4 5 6 
#
# 1 105.7400 87.5730 23.5413 0.0000 0.0000 0.0000
# 2 87.5730 105.7389 23.5423 0.0000 0.0000 0.0000
# 3 23.5413 23.5423 116.5706 0.0000 0.0000 0.0000
# 4 0.0000 0.0000 0.0000 17.5409 0.0000 0.0000
# 5 0.0000 0.0000 0.0000 0.0000 17.5412 0.0000
# 6 0.0000 0.0000 0.0000 0.0000 0.0000 37.5276
#
#
#
# Elastic Compliance Matrix: (Units=1/GPa)
#
#
# Indices 1 2 3 4 5 6 
#
# 1 0.030243 -0.024803 -0.001098 0.000000 0.000000 0.000000
# 2 -0.024803 0.030244 -0.001099 0.000000 0.000000 0.000000
# 3 -0.001098 -0.001099 0.009022 0.000000 0.000000 0.000000
# 4 0.000000 0.000000 0.000000 0.057010 0.000000 0.000000
# 5 0.000000 0.000000 0.000000 0.000000 0.057009 0.000000
# 6 0.000000 0.000000 0.000000 0.000000 0.000000 0.026647
#
#
# Mechanical properties :
#
#
# Convention : Reuss Voigt Hill
#
# Bulk Modulus (GPa) = 64.48087 66.37364 65.42725
# Shear Modulus (GPa) = 18.56353 27.41480 22.98916
#
# Velocity S-wave (km/s) = 3.24956 3.94900 3.61623
# Velocity P-wave (km/s) = 7.12452 7.65171 7.39282
#
# Compressibility (1/GPa) = 0.01550848
#
# Stress axis : x y z
#
# Youngs Moduli (GPa) = 33.06507 33.06459 110.83675
#
# Poissons Ratio (x) = 0.82010 0.12175
# Poissons Ratio (y) = 0.82011 0.12181
# Poissons Ratio (z) = 0.03632 0.03634
#
# Static dielectric constant tensor:
#      x y z
#    x 1.632350 0.000000 0.000000 
#    y 0.000000 1.632360 0.000000 
#    z 0.000000 0.000000 1.656010 
# 
# From -- ./inp_files/302.got.cif
#   From: 2010.05.17/outbox.cif.g08.bks.cpg/sg92_1_cif.got.tgz:302.got - 2010.06.03 19:35:17.
