data_PCOD9549026
_publ_section_title
;
Structure prediction by ZEFSAII (Michael W. Deem and Ramdas Pophale) SiO2 
 PCOD9549026
Probable space group: P 41 21 2
;
_chemical_formula_sum "Si O2"
_cell_formula_units_Z 48
_cell_length_a 9.535675
_cell_length_b 9.535675
_cell_length_c 27.992660
_cell_angle_alpha 90.000000
_cell_angle_beta 90.000000
_cell_angle_gamma 90.000000
_cell_volume 2545.347316
_symmetry_space_group_name_H-M "P 41 21 2"
_symmetry_group_IT_number 92
_symmetry_cell_setting 'tetragonal'
loop_
_space_group_symop_operation_xyz
x,y,z
1/2-y,1/2+x,1/4+z
-x,-y,1/2+z
1/2+y,1/2-x,3/4+z
1/2+x,1/2-y,3/4-z
1/2-x,1/2+y,1/4-z
y,x,-z
-y,-x,1/2-z
loop_
_atom_site_type_symbol
_atom_site_label
_atom_site_fract_x
_atom_site_fract_y
_atom_site_fract_z
Si Si1 0.979902 0.866398 0.050418
Si Si2 0.052499 0.582046 0.806350
Si Si3 0.019007 0.282657 0.106139
Si Si4 0.558836 0.720293 0.854963
Si Si5 0.214768 0.094899 0.048888
Si Si6 0.955439 0.509794 0.948434
O O1 0.993522 0.702359 0.058691
O O2 0.882368 0.930183 0.092149
O O3 0.902147 0.902147 0.000000
O O4 0.125072 0.950723 0.048743
O O5 0.924169 0.488767 0.825224
O O6 0.057632 0.715484 0.841885
O O7 0.028562 0.609192 0.750677
O O8 0.150368 0.188908 0.091102
O O9 0.877244 0.193722 0.096111
O O10 0.016342 0.332863 0.160332
O O11 0.539157 0.852680 0.819703
O O12 0.376659 0.058133 0.052142
O O13 0.173973 0.173973 0.000000
#
# Coordination Sequence:
#
# PCOD9549026 Si02
#       6
#     8   8   8   8   8   8
#     4  10  20  37  61  87 120 166 203 241 312 376
#     4  11  20  34  61  91 120 152 207 253 295 357
#     4  10  23  40  59  90 122 161 202 251 305 367
#     4  10  22  38  58  89 126 159 201 251 308 364
#     4  10  21  41  63  86 124 165 197 244 309 376
#     4  11  22  36  63  93 116 159 206 253 301 362
#
# _framework density 18.857938999999998
#
# number of rings (size 3 to 8) (size 9 to 14) (size 15 to 20)
#    0.000    1.667    3.333    2.000    0.000    2.667 
#    0.000    0.000    0.000    3.000    0.000    0.000 
#    0.000    0.000    0.000    0.000    0.000    0.000 
#
# Total GULP energy -267943.672056 kJ/mol
# GULP energy per Si atom -5582.159835 kJ/mol
# Density = 1.881502 g / cm^3
# Si number density = 18.857939 Si / 1000 Ang^3
#
#
#
# Elastic Constant Matrix: (Units=GPa)
#
#
# Indices 1 2 3 4 5 6 
#
# 1 91.3676 31.7044 18.9602 0.0000 0.0000 0.0000
# 2 31.7044 91.3676 18.9602 0.0000 0.0000 0.0000
# 3 18.9602 18.9602 108.7425 0.0000 0.0000 0.0000
# 4 0.0000 0.0000 0.0000 16.5966 0.0000 0.0000
# 5 0.0000 0.0000 0.0000 0.0000 16.5966 0.0000
# 6 0.0000 0.0000 0.0000 0.0000 0.0000 8.5464
#
#
#
# Elastic Compliance Matrix: (Units=1/GPa)
#
#
# Indices 1 2 3 4 5 6 
#
# 1 0.012674 -0.004087 -0.001497 0.000000 0.000000 0.000000
# 2 -0.004087 0.012674 -0.001497 0.000000 0.000000 0.000000
# 3 -0.001497 -0.001497 0.009718 0.000000 0.000000 0.000000
# 4 0.000000 0.000000 0.000000 0.060253 0.000000 0.000000
# 5 0.000000 0.000000 0.000000 0.000000 0.060253 0.000000
# 6 0.000000 0.000000 0.000000 0.000000 0.000000 0.117009
#
#
# Mechanical properties :
#
#
# Convention : Reuss Voigt Hill
#
# Bulk Modulus (GPa) = 47.84057 47.85857 47.84957
# Shear Modulus (GPa) = 17.02351 23.13811 20.08081
#
# Velocity S-wave (km/s) = 3.00780 3.50661 3.26674
# Velocity P-wave (km/s) = 6.12262 6.46751 6.29742
#
# Compressibility (1/GPa) = 0.02090276
#
# Stress axis : x y z
#
# Youngs Moduli (GPa) = 78.90367 78.90367 102.90059
#
# Poissons Ratio (x) = 0.32248 0.15406
# Poissons Ratio (y) = 0.32248 0.15406
# Poissons Ratio (z) = 0.11813 0.11813
#
# Static dielectric constant tensor:
#      x y z
#    x 1.648050 0.000000 0.000000 
#    y 0.000000 1.648050 0.000000 
#    z 0.000000 0.000000 1.683510 
# 
# From -- ./inp_files/4470.got.cif
#   From: 2010.05.17/outbox.cif.g08.bks.cpg/sg92_3_cif.got.tgz:4470.got - 2010.06.03 19:35:17.
