data_PCOD9549674
_publ_section_title
;
Structure prediction by ZEFSAII (Michael W. Deem and Ramdas Pophale) SiO2 
 PCOD9549674
Probable space group: P 42 2 2
;
_chemical_formula_sum "Si O2"
_cell_formula_units_Z 56
_cell_length_a 12.400541
_cell_length_b 12.400541
_cell_length_c 17.752689
_cell_angle_alpha 90.000000
_cell_angle_beta 90.000000
_cell_angle_gamma 90.000000
_cell_volume 2729.891650
_symmetry_space_group_name_H-M "P 42 2 2"
_symmetry_group_IT_number 93
_symmetry_cell_setting 'tetragonal'
loop_
_space_group_symop_operation_xyz
x,y,z
-y,x,1/2+z
-x,-y,z
y,-x,1/2+z
x,-y,-z
-x,y,-z
y,x,1/2-z
-y,-x,1/2-z
loop_
_atom_site_type_symbol
_atom_site_label
_atom_site_fract_x
_atom_site_fract_y
_atom_site_fract_z
Si Si1 0.152409 0.823938 0.834537
Si Si2 0.159802 0.390909 0.591587
Si Si3 0.430139 0.391778 0.335706
Si Si4 0.211521 0.907523 0.320694
Si Si5 0.812973 0.964368 0.913401
Si Si6 0.378208 0.788132 0.915635
Si Si7 0.717129 0.361852 0.172791
O O1 0.191245 0.808756 0.750000
O O2 0.255985 0.799971 0.886382
O O3 0.034304 0.770850 0.830989
O O4 0.133206 0.947551 0.859405
O O5 0.059927 0.311641 0.609461
O O6 0.174797 0.383089 0.501740
O O7 0.152501 0.514923 0.618034
O O8 0.270220 0.338938 0.622449
O O9 0.500000 0.500000 0.339561
O O10 0.384202 0.384202 0.250000
O O11 0.336494 0.400270 0.396780
O O12 0.515451 0.296595 0.351758
O O13 0.136987 0.863014 0.250000
O O14 0.147727 0.871077 0.395667
O O15 0.320409 0.838150 0.313558
O O16 0.820465 0.000000 0.000000
O O17 0.650721 0.349280 0.250000
#
# Coordination Sequence:
#
# PCOD9549674 Si02
#       7
#     8   8   8   8   8   8   8
#     4  12  24  40  61  95 128 171 213 268 327 390
#     4  10  22  40  59  94 124 167 210 267 339 384
#     4  11  19  36  64  94 121 166 219 273 326 402
#     4  10  22  39  64  89 126 168 218 268 317 400
#     4  11  22  41  65  91 121 171 216 270 326 394
#     4  11  23  39  60  90 137 161 209 273 330 405
#     4  10  19  37  62  89 123 162 217 267 319 384
#
# _framework density 20.513632999999999
#
# number of rings (size 3 to 8) (size 9 to 14) (size 15 to 20)
#    0.000    1.286    5.714    0.857    0.000    2.286 
#    0.000    0.714    3.143    0.000    0.000    2.000 
#    0.000    0.000    0.000    0.000    0.000    0.000 
#
# Total GULP energy -312011.008518 kJ/mol
# GULP energy per Si atom -5571.625152 kJ/mol
# Density = 2.046694 g / cm^3
# Si number density = 20.513633 Si / 1000 Ang^3
#
#
#
# Elastic Constant Matrix: (Units=GPa)
#
#
# Indices 1 2 3 4 5 6 
#
# 1 104.3567 10.3763 4.8248 0.0000 0.0000 0.0000
# 2 10.3763 104.3543 4.8258 0.0000 0.0000 0.0000
# 3 4.8248 4.8258 32.2238 0.0000 0.0000 0.0000
# 4 0.0000 0.0000 0.0000 25.8188 0.0000 0.0000
# 5 0.0000 0.0000 0.0000 0.0000 25.8185 0.0000
# 6 0.0000 0.0000 0.0000 0.0000 0.0000 35.1152
#
#
#
# Elastic Compliance Matrix: (Units=1/GPa)
#
#
# Indices 1 2 3 4 5 6 
#
# 1 0.009734 -0.000907 -0.001322 0.000000 0.000000 0.000000
# 2 -0.000907 0.009734 -0.001322 0.000000 0.000000 0.000000
# 3 -0.001322 -0.001322 0.031429 0.000000 0.000000 0.000000
# 4 0.000000 0.000000 0.000000 0.038732 0.000000 0.000000
# 5 0.000000 0.000000 0.000000 0.000000 0.038732 0.000000
# 6 0.000000 0.000000 0.000000 0.000000 0.000000 0.028478
#
#
# Mechanical properties :
#
#
# Convention : Reuss Voigt Hill
#
# Bulk Modulus (GPa) = 22.83317 31.22096 27.02707
# Shear Modulus (GPa) = 28.00539 32.07770 30.04154
#
# Velocity S-wave (km/s) = 3.69888 3.95869 3.83099
# Velocity P-wave (km/s) = 5.42192 6.01229 5.72472
#
# Compressibility (1/GPa) = 0.04379593
#
# Stress axis : x y z
#
# Youngs Moduli (GPa) = 102.73502 102.73230 31.81791
#
# Poissons Ratio (x) = 0.09315 0.04205
# Poissons Ratio (y) = 0.09315 0.04206
# Poissons Ratio (z) = 0.13578 0.13581
#
# Static dielectric constant tensor:
#      x y z
#    x 1.802840 0.000000 0.000000 
#    y 0.000000 1.802840 0.000000 
#    z 0.000000 0.000000 1.851300 
# 
# From -- ./inp_files/6281.got.cif
#   From: 2010.05.17/outbox.cif.g08.bks.cpg/sg93_4_cif.got.tgz:6281.got - 2010.06.03 19:38:44.
