data_PCOD9549345
_publ_section_title
;
Structure prediction by ZEFSAII (Michael W. Deem and Ramdas Pophale) SiO2 
 PCOD9549345
Probable space group: P 41 21 2
;
_chemical_formula_sum "Si O2"
_cell_formula_units_Z 40
_cell_length_a 14.457921
_cell_length_b 14.457921
_cell_length_c 8.881305
_cell_angle_alpha 90.000000
_cell_angle_beta 90.000000
_cell_angle_gamma 90.000000
_cell_volume 1856.472325
_symmetry_space_group_name_H-M "P 41 21 2"
_symmetry_group_IT_number 92
_symmetry_cell_setting 'tetragonal'
loop_
_space_group_symop_operation_xyz
x,y,z
1/2-y,1/2+x,1/4+z
-x,-y,1/2+z
1/2+y,1/2-x,3/4+z
1/2+x,1/2-y,3/4-z
1/2-x,1/2+y,1/4-z
y,x,-z
-y,-x,1/2-z
loop_
_atom_site_type_symbol
_atom_site_label
_atom_site_fract_x
_atom_site_fract_y
_atom_site_fract_z
Si Si1 0.390908 0.997762 0.370696
Si Si2 0.024363 0.842080 0.841737
Si Si3 0.311299 0.448481 0.934603
Si Si4 0.316681 0.189383 0.405102
Si Si5 0.166659 0.142367 0.175067
O O1 0.442011 0.039851 0.226057
O O2 0.348815 0.087950 0.454834
O O3 0.299169 0.941652 0.328861
O O4 0.074866 0.925134 0.750000
O O5 0.094509 0.754938 0.833480
O O6 0.925122 0.824091 0.765239
O O7 0.021764 0.855265 0.022834
O O8 0.357897 0.357897 0.000000
O O9 0.331995 0.532326 0.047303
O O10 0.237312 0.237312 0.500000
O O11 0.262341 0.178059 0.247782
O O12 0.162503 0.162503 0.000000
#
# Coordination Sequence:
#
# PCOD9549345 Si02
#       5
#     8   8   8   8   8
#     4  11  24  50  67 100 142 192 237 288 364 437
#     4  11  22  42  70 103 141 182 236 292 365 431
#     4  11  23  44  72 103 142 180 237 303 358 426
#     4  10  23  44  70 100 136 186 240 293 352 422
#     4  11  23  42  70 104 143 188 236 298 368 427
#
# _framework density 21.546240999999998
#
# number of rings (size 3 to 8) (size 9 to 14) (size 15 to 20)
#    0.000    1.200    2.000    4.800    0.000    0.800 
#   14.400    0.000    0.000    0.000    0.000    0.000 
#    0.000    0.000    0.000    0.000    0.000    0.000 
#
# Total GULP energy -223514.859847 kJ/mol
# GULP energy per Si atom -5587.871496 kJ/mol
# Density = 2.149720 g / cm^3
# Si number density = 21.546241 Si / 1000 Ang^3
#
#
#
# Elastic Constant Matrix: (Units=GPa)
#
#
# Indices 1 2 3 4 5 6 
#
# 1 120.5513 81.3062 54.6938 0.0000 0.0000 0.0000
# 2 81.3062 120.5507 54.6939 0.0000 0.0000 0.0000
# 3 54.6938 54.6939 80.4218 0.0000 0.0000 0.0000
# 4 0.0000 0.0000 0.0000 28.4378 0.0000 0.0000
# 5 0.0000 0.0000 0.0000 0.0000 28.4375 0.0000
# 6 0.0000 0.0000 0.0000 0.0000 0.0000 38.6369
#
#
#
# Elastic Compliance Matrix: (Units=1/GPa)
#
#
# Indices 1 2 3 4 5 6 
#
# 1 0.016663 -0.008818 -0.005335 0.000000 0.000000 0.000000
# 2 -0.008818 0.016663 -0.005336 0.000000 0.000000 0.000000
# 3 -0.005335 -0.005336 0.019692 0.000000 0.000000 0.000000
# 4 0.000000 0.000000 0.000000 0.035165 0.000000 0.000000
# 5 0.000000 0.000000 0.000000 0.000000 0.035165 0.000000
# 6 0.000000 0.000000 0.000000 0.000000 0.000000 0.025882
#
#
# Mechanical properties :
#
#
# Convention : Reuss Voigt Hill
#
# Bulk Modulus (GPa) = 71.22361 78.10128 74.66245
# Shear Modulus (GPa) = 25.92186 27.82443 26.87315
#
# Velocity S-wave (km/s) = 3.47231 3.59748 3.53545
# Velocity P-wave (km/s) = 7.01454 7.32002 7.16891
#
# Compressibility (1/GPa) = 0.01404029
#
# Stress axis : x y z
#
# Youngs Moduli (GPa) = 60.01267 60.01209 50.78285
#
# Poissons Ratio (x) = 0.52918 0.27095
# Poissons Ratio (y) = 0.52918 0.27096
# Poissons Ratio (z) = 0.32019 0.32020
#
# Static dielectric constant tensor:
#      x y z
#    x 1.790660 0.000000 0.000000 
#    y 0.000000 1.790660 0.000000 
#    z 0.000000 0.000000 1.808400 
# 
# From -- ./inp_files/1340.got.cif
#   From: 2010.05.17/outbox.cif.g08.bks.cpg/sg92_1_cif.got.tgz:1340.got - 2010.06.03 19:35:17.
