data_PCOD9549263
_publ_section_title
;
Structure prediction by ZEFSAII (Michael W. Deem and Ramdas Pophale) SiO2 
 PCOD9549263
Probable space group: P 41 21 2
;
_chemical_formula_sum "Si O2"
_cell_formula_units_Z 56
_cell_length_a 11.452908
_cell_length_b 11.452908
_cell_length_c 18.579639
_cell_angle_alpha 90.000000
_cell_angle_beta 90.000000
_cell_angle_gamma 90.000000
_cell_volume 2437.074557
_symmetry_space_group_name_H-M "P 41 21 2"
_symmetry_group_IT_number 92
_symmetry_cell_setting 'tetragonal'
loop_
_space_group_symop_operation_xyz
x,y,z
1/2-y,1/2+x,1/4+z
-x,-y,1/2+z
1/2+y,1/2-x,3/4+z
1/2+x,1/2-y,3/4-z
1/2-x,1/2+y,1/4-z
y,x,-z
-y,-x,1/2-z
loop_
_atom_site_type_symbol
_atom_site_label
_atom_site_fract_x
_atom_site_fract_y
_atom_site_fract_z
Si Si1 0.179542 0.204831 0.135032
Si Si2 0.586663 0.972613 0.427280
Si Si3 0.699562 0.171265 0.339516
Si Si4 0.174363 0.014277 0.541570
Si Si5 0.968017 0.070083 0.172525
Si Si6 0.788008 0.325586 0.462784
Si Si7 0.618809 0.077930 0.828612
O O1 0.121953 0.323547 0.106198
O O2 0.202247 0.197449 0.220699
O O3 0.302487 0.186547 0.094699
O O4 0.083900 0.100560 0.126372
O O5 0.456820 0.947462 0.399569
O O6 0.599194 0.969512 0.512493
O O7 0.624255 0.094799 0.394541
O O8 0.611132 0.225076 0.283405
O O9 0.802339 0.088819 0.312142
O O10 0.748856 0.277077 0.385911
O O11 0.062270 0.062270 0.500000
O O12 0.126032 0.995728 0.622806
O O13 0.240000 0.897077 0.518924
O O14 0.988453 0.011548 0.250000
O O15 0.813395 0.462565 0.448741
#
# Coordination Sequence:
#
# PCOD9549263 Si02
#       7
#     8   8   8   8   8   8   8
#     4  11  25  45  66 101 139 186 231 285 353 422
#     4  11  24  45  73  97 140 184 232 293 354 421
#     4  10  22  42  69  99 133 178 233 294 353 404
#     4  11  24  41  69 103 132 178 229 297 347 408
#     4  10  23  44  67  99 139 181 229 285 351 419
#     4  11  24  44  68 103 138 181 238 292 349 426
#     4  12  24  45  68 103 138 185 234 284 353 432
#
# _framework density 22.978368
#
# number of rings (size 3 to 8) (size 9 to 14) (size 15 to 20)
#    0.000    1.143    2.857    2.571    2.000    5.714 
#    2.571    0.000    0.000    0.000    0.000    0.000 
#    0.000    0.000    0.000    0.000    0.000    0.000 
#
# Total GULP energy -312881.319168 kJ/mol
# GULP energy per Si atom -5587.166414 kJ/mol
# Density = 2.292607 g / cm^3
# Si number density = 22.978368 Si / 1000 Ang^3
#
#
#
# Elastic Constant Matrix: (Units=GPa)
#
#
# Indices 1 2 3 4 5 6 
#
# 1 -78.6148 166.2867 -1.3742 0.0000 0.0000 0.0000
# 2 166.2867 -78.6138 -1.3735 0.0000 0.0000 0.0000
# 3 -1.3742 -1.3735 62.8799 0.0000 0.0000 0.0000
# 4 0.0000 0.0000 0.0000 26.7543 0.0000 0.0000
# 5 0.0000 0.0000 0.0000 0.0000 26.7543 0.0000
# 6 0.0000 0.0000 0.0000 0.0000 0.0000 26.0117
#
#
#
# Elastic Compliance Matrix: (Units=1/GPa)
#
#
# Indices 1 2 3 4 5 6 
#
# 1 0.003665 0.007749 0.000249 0.000000 0.000000 0.000000
# 2 0.007749 0.003665 0.000249 0.000000 0.000000 0.000000
# 3 0.000249 0.000249 0.015914 0.000000 0.000000 0.000000
# 4 0.000000 0.000000 0.000000 0.037377 0.000000 0.000000
# 5 0.000000 0.000000 0.000000 0.000000 0.037377 0.000000
# 6 0.000000 0.000000 0.000000 0.000000 0.000000 0.038444
#
#
# Mechanical properties :
#
#
# Convention : Reuss Voigt Hill
#
# Bulk Modulus (GPa) = 25.16382 25.85880 25.51131
# Shear Modulus (GPa) = 37.53886 -1.28846 18.12520
#
# Velocity S-wave (km/s) = 4.04624 -0.74963 2.81159
# Velocity P-wave (km/s) = 5.72750 3.24480 4.65473
#
# Compressibility (1/GPa) = 0.03973960
#
# Stress axis : x y z
#
# Youngs Moduli (GPa) = 272.82966 272.82587 62.83683
#
# Poissons Ratio (x) = -2.11402 -0.01567
# Poissons Ratio (y) = -2.11405 -0.01567
# Poissons Ratio (z) = -0.06803 -0.06804
#
# Static dielectric constant tensor:
#      x y z
#    x 1.890140 0.000000 0.000000 
#    y 0.000000 1.890140 0.000000 
#    z 0.000000 0.000000 1.863400 
# 
# From -- ./inp_files/3572.got.cif
#   From: 2010.05.17/outbox.cif.g08.bks.cpg/sg92_2_cif.got.tgz:3572.got - 2010.06.03 19:35:17.
