data_PCOD9549037
_publ_section_title
;
Structure prediction by ZEFSAII (Michael W. Deem and Ramdas Pophale) SiO2 
 PCOD9549037
Probable space group: P 41 21 2
;
_chemical_formula_sum "Si O2"
_cell_formula_units_Z 48
_cell_length_a 7.879529
_cell_length_b 7.879529
_cell_length_c 33.277722
_cell_angle_alpha 90.000000
_cell_angle_beta 90.000000
_cell_angle_gamma 90.000000
_cell_volume 2066.113169
_symmetry_space_group_name_H-M "P 41 21 2"
_symmetry_group_IT_number 92
_symmetry_cell_setting 'tetragonal'
loop_
_space_group_symop_operation_xyz
x,y,z
1/2-y,1/2+x,1/4+z
-x,-y,1/2+z
1/2+y,1/2-x,3/4+z
1/2+x,1/2-y,3/4-z
1/2-x,1/2+y,1/4-z
y,x,-z
-y,-x,1/2-z
loop_
_atom_site_type_symbol
_atom_site_label
_atom_site_fract_x
_atom_site_fract_y
_atom_site_fract_z
Si Si1 0.418500 0.078367 0.750114
Si Si2 0.023411 0.976590 0.750000
Si Si3 0.951116 0.005520 0.584711
Si Si4 0.360349 0.545462 0.916739
Si Si5 0.484541 0.515460 0.250000
Si Si6 0.858163 0.560540 0.832764
Si Si7 0.431127 0.004326 0.086822
O O1 0.467967 0.281297 0.750837
O O2 0.478777 0.021493 0.705592
O O3 0.495077 0.003889 0.790974
O O4 0.221284 0.026627 0.753288
O O5 0.939678 0.028044 0.792432
O O6 0.041583 0.061456 0.543033
O O7 0.758529 0.070925 0.587629
O O8 0.941676 0.803777 0.578857
O O9 0.043966 0.025332 0.626978
O O10 0.309688 0.741874 0.923521
O O11 0.201841 0.434378 0.904064
O O12 0.925107 0.538566 0.877473
#
# Coordination Sequence:
#
# PCOD9549037 Si02
#       7
#     8   4   8   8   4   8   8
#     4   9  20  39  62  88 121 163 208 258 313 375
#     4  10  22  39  62  89 122 166 210 256 312 376
#     4  10  20  38  61  86 118 156 204 255 307 371
#     4  11  23  37  59  89 121 161 204 254 314 372
#     4   8  18  37  62  89 120 160 206 260 314 372
#     4  10  21  40  59  83 122 159 199 251 311 377
#     4  11  22  37  61  90 119 158 205 256 312 370
#
# _framework density 23.232028
#
# number of rings (size 3 to 8) (size 9 to 14) (size 15 to 20)
#    0.000    2.000    0.000    3.000    0.000    8.000 
#    0.000    6.667    0.000    5.000    0.000    0.000 
#    0.000    0.000    0.000    0.000    0.000    0.000 
#
# Total GULP energy -267285.755385 kJ/mol
# GULP energy per Si atom -5568.453237 kJ/mol
# Density = 2.317915 g / cm^3
# Si number density = 23.232028 Si / 1000 Ang^3
#
#
#
# Elastic Constant Matrix: (Units=GPa)
#
#
# Indices 1 2 3 4 5 6 
#
# 1 46.6955 5.2142 -4.9050 0.0000 0.0000 0.0000
# 2 5.2142 46.6956 -4.9052 0.0000 0.0000 0.0000
# 3 -4.9050 -4.9052 146.1431 0.0000 0.0000 0.0000
# 4 0.0000 0.0000 0.0000 17.3864 0.0000 0.0000
# 5 0.0000 0.0000 0.0000 0.0000 17.3863 0.0000
# 6 0.0000 0.0000 0.0000 0.0000 0.0000 27.4955
#
#
#
# Elastic Compliance Matrix: (Units=1/GPa)
#
#
# Indices 1 2 3 4 5 6 
#
# 1 0.021747 -0.002360 0.000651 0.000000 0.000000 0.000000
# 2 -0.002360 0.021747 0.000651 0.000000 0.000000 0.000000
# 3 0.000651 0.000651 0.006886 0.000000 0.000000 0.000000
# 4 0.000000 0.000000 0.000000 0.057516 0.000000 0.000000
# 5 0.000000 0.000000 0.000000 0.000000 0.057517 0.000000
# 6 0.000000 0.000000 0.000000 0.000000 0.000000 0.036370
#
#
# Mechanical properties :
#
#
# Convention : Reuss Voigt Hill
#
# Bulk Modulus (GPa) = 20.71961 25.59357 23.15659
# Shear Modulus (GPa) = 22.72850 28.72898 25.72874
#
# Velocity S-wave (km/s) = 3.13121 3.52036 3.33148
# Velocity P-wave (km/s) = 4.69154 5.25018 4.97870
#
# Compressibility (1/GPa) = 0.04826346
#
# Stress axis : x y z
#
# Youngs Moduli (GPa) = 45.98288 45.98293 145.21609
#
# Poissons Ratio (x) = 0.10852 -0.09449
# Poissons Ratio (y) = 0.10852 -0.09450
# Poissons Ratio (z) = -0.02992 -0.02992
#
# Static dielectric constant tensor:
#      x y z
#    x 1.893710 0.000000 0.000000 
#    y 0.000000 1.893710 0.000000 
#    z 0.000000 0.000000 2.036620 
# 
# From -- ./inp_files/4540.got.cif
#   From: 2010.05.17/outbox.cif.g08.bks.cpg/sg92_3_cif.got.tgz:4540.got - 2010.06.03 19:35:17.
