data_PCOD9549327
_publ_section_title
;
Structure prediction by ZEFSAII (Michael W. Deem and Ramdas Pophale) SiO2 
 PCOD9549327
Probable space group: P 41 21 2
;
_chemical_formula_sum "Si O2"
_cell_formula_units_Z 56
_cell_length_a 13.595721
_cell_length_b 13.595721
_cell_length_c 14.089609
_cell_angle_alpha 90.000000
_cell_angle_beta 90.000000
_cell_angle_gamma 90.000000
_cell_volume 2604.374466
_symmetry_space_group_name_H-M "P 41 21 2"
_symmetry_group_IT_number 92
_symmetry_cell_setting 'tetragonal'
loop_
_space_group_symop_operation_xyz
x,y,z
1/2-y,1/2+x,1/4+z
-x,-y,1/2+z
1/2+y,1/2-x,3/4+z
1/2+x,1/2-y,3/4-z
1/2-x,1/2+y,1/4-z
y,x,-z
-y,-x,1/2-z
loop_
_atom_site_type_symbol
_atom_site_label
_atom_site_fract_x
_atom_site_fract_y
_atom_site_fract_z
Si Si1 0.777986 0.079001 0.411826
Si Si2 0.249795 0.925343 0.586038
Si Si3 0.780537 0.404810 0.506078
Si Si4 0.733057 0.413662 0.295097
Si Si5 0.118918 0.454145 0.492558
Si Si6 0.069264 0.650024 0.403792
Si Si7 0.703605 0.363889 0.852160
O O1 0.842011 0.172731 0.384474
O O2 0.680936 0.077587 0.348387
O O3 0.738640 0.074504 0.519868
O O4 0.831198 0.976322 0.389763
O O5 0.333261 0.868194 0.526999
O O6 0.302916 0.980100 0.673860
O O7 0.191097 0.999166 0.518742
O O8 0.724040 0.428758 0.407480
O O9 0.823690 0.492682 0.570854
O O10 0.705305 0.343911 0.569954
O O11 0.684965 0.315035 0.250000
O O12 0.850895 0.423851 0.278074
O O13 0.051721 0.546248 0.460779
O O14 0.178645 0.636962 0.362912
O O15 0.676124 0.323877 0.750000
#
# Coordination Sequence:
#
# PCOD9549327 Si02
#       7
#     8   8   8   8   8   8   8
#     4  11  22  40  71  99 135 183 233 290 357 438
#     4  11  24  43  68 100 144 183 237 287 361 428
#     4  11  25  45  70 106 142 185 237 308 361 435
#     4  11  26  44  68  97 148 187 234 292 358 434
#     4  10  23  41  69  99 136 181 234 295 351 423
#     4  11  24  41  72 102 134 179 243 292 367 429
#     4  11  24  43  70  95 142 183 234 296 369 434
#
# _framework density 21.502284
#
# number of rings (size 3 to 8) (size 9 to 14) (size 15 to 20)
#    0.000    1.143    2.857    3.000    6.000    5.143 
#    0.000    0.000    0.000    0.000    0.000    0.000 
#    0.000    0.000    0.000    0.000    0.000    0.000 
#
# Total GULP energy -312778.136708 kJ/mol
# GULP energy per Si atom -5585.323870 kJ/mol
# Density = 2.145334 g / cm^3
# Si number density = 21.502284 Si / 1000 Ang^3
#
#
#
# Elastic Constant Matrix: (Units=GPa)
#
#
# Indices 1 2 3 4 5 6 
#
# 1 73.6719 31.3995 31.0497 0.0000 0.0000 0.0000
# 2 31.3995 73.6715 31.0478 0.0000 0.0000 0.0000
# 3 31.0497 31.0478 123.2883 0.0000 0.0000 0.0000
# 4 0.0000 0.0000 0.0000 29.6895 0.0000 0.0000
# 5 0.0000 0.0000 0.0000 0.0000 29.6893 0.0000
# 6 0.0000 0.0000 0.0000 0.0000 0.0000 17.4070
#
#
#
# Elastic Compliance Matrix: (Units=1/GPa)
#
#
# Indices 1 2 3 4 5 6 
#
# 1 0.017419 -0.006237 -0.002816 0.000000 0.000000 0.000000
# 2 -0.006237 0.017419 -0.002816 0.000000 0.000000 0.000000
# 3 -0.002816 -0.002816 0.009529 0.000000 0.000000 0.000000
# 4 0.000000 0.000000 0.000000 0.033682 0.000000 0.000000
# 5 0.000000 0.000000 0.000000 0.000000 0.033682 0.000000
# 6 0.000000 0.000000 0.000000 0.000000 0.000000 0.057448
#
#
# Mechanical properties :
#
#
# Convention : Reuss Voigt Hill
#
# Bulk Modulus (GPa) = 48.47599 50.84730 49.66165
# Shear Modulus (GPa) = 25.02578 27.16616 26.09597
#
# Velocity S-wave (km/s) = 3.41525 3.55830 3.48751
# Velocity P-wave (km/s) = 6.17620 6.37030 6.27400
#
# Compressibility (1/GPa) = 0.02062877
#
# Stress axis : x y z
#
# Youngs Moduli (GPa) = 57.40863 57.40915 104.93837
#
# Poissons Ratio (x) = 0.35808 0.29552
# Poissons Ratio (y) = 0.35808 0.29548
# Poissons Ratio (z) = 0.16167 0.16165
#
# Static dielectric constant tensor:
#      x y z
#    x 1.824740 0.000000 0.000000 
#    y 0.000000 1.824730 0.000000 
#    z 0.000000 0.000000 1.822570 
# 
# From -- ./inp_files/2271.got.cif
#   From: 2010.05.17/outbox.cif.g08.bks.cpg/sg92_2_cif.got.tgz:2271.got - 2010.06.03 19:35:17.
