data_PCOD9549167
_publ_section_title
;
Structure prediction by ZEFSAII (Michael W. Deem and Ramdas Pophale) SiO2 
 PCOD9549167
Probable space group: P 41 21 2
;
_chemical_formula_sum "Si O2"
_cell_formula_units_Z 40
_cell_length_a 7.795327
_cell_length_b 7.795327
_cell_length_c 24.380873
_cell_angle_alpha 90.000000
_cell_angle_beta 90.000000
_cell_angle_gamma 90.000000
_cell_volume 1481.555509
_symmetry_space_group_name_H-M "P 41 21 2"
_symmetry_group_IT_number 92
_symmetry_cell_setting 'tetragonal'
loop_
_space_group_symop_operation_xyz
x,y,z
1/2-y,1/2+x,1/4+z
-x,-y,1/2+z
1/2+y,1/2-x,3/4+z
1/2+x,1/2-y,3/4-z
1/2-x,1/2+y,1/4-z
y,x,-z
-y,-x,1/2-z
loop_
_atom_site_type_symbol
_atom_site_label
_atom_site_fract_x
_atom_site_fract_y
_atom_site_fract_z
Si Si1 0.148633 0.101905 0.696081
Si Si2 0.762696 0.729101 0.085632
Si Si3 0.012945 0.594915 0.337548
Si Si4 0.300012 0.300012 0.000000
Si Si5 0.938043 0.938043 0.000000
Si Si6 0.683049 0.790905 0.303433
O O1 0.236365 0.203467 0.646793
O O2 0.268995 0.109567 0.748720
O O3 0.969722 0.190996 0.711722
O O4 0.115598 0.905753 0.678515
O O5 0.793809 0.890371 0.045766
O O6 0.924103 0.599150 0.079516
O O7 0.863395 0.733749 0.329250
O O8 0.160009 0.644665 0.292612
O O9 0.081312 0.611498 0.399306
O O10 0.117408 0.912726 0.031487
#
# Coordination Sequence:
#
# PCOD9549167 Si02
#       6
#     8   8   8   4   4   8
#     4  11  24  40  64  94 130 169 215 270 329 393
#     4  11  24  42  66  96 131 170 216 270 328 393
#     4  10  23  41  64  93 130 170 219 272 328 394
#     4  10  21  42  63  88 124 170 215 268 325 384
#     4  10  21  42  67  92 126 170 221 272 325 390
#     4  10  23  41  64  95 130 173 221 273 329 391
#
# _framework density 26.998653999999998
#
# number of rings (size 3 to 8) (size 9 to 14) (size 15 to 20)
#    0.000    1.600    0.000    4.200    0.000   12.800 
#    0.000    1.000    0.000    0.000    0.000    0.000 
#    0.000    0.000    0.000    0.000    0.000    0.000 
#
# Total GULP energy -224187.150458 kJ/mol
# GULP energy per Si atom -5604.678761 kJ/mol
# Density = 2.693720 g / cm^3
# Si number density = 26.998654 Si / 1000 Ang^3
#
#
#
# Elastic Constant Matrix: (Units=GPa)
#
#
# Indices 1 2 3 4 5 6 
#
# 1 76.9707 6.5832 23.1400 0.0000 0.0000 0.0000
# 2 6.5832 76.9707 23.1400 0.0000 0.0000 0.0000
# 3 23.1400 23.1400 160.0053 0.0000 0.0000 0.0000
# 4 0.0000 0.0000 0.0000 47.8076 0.0000 0.0000
# 5 0.0000 0.0000 0.0000 0.0000 47.8076 0.0000
# 6 0.0000 0.0000 0.0000 0.0000 0.0000 39.2962
#
#
#
# Elastic Compliance Matrix: (Units=1/GPa)
#
#
# Indices 1 2 3 4 5 6 
#
# 1 0.013609 -0.000598 -0.001882 0.000000 0.000000 0.000000
# 2 -0.000598 0.013609 -0.001882 0.000000 0.000000 0.000000
# 3 -0.001882 -0.001882 0.006794 0.000000 0.000000 0.000000
# 4 0.000000 0.000000 0.000000 0.020917 0.000000 0.000000
# 5 0.000000 0.000000 0.000000 0.000000 0.020917 0.000000
# 6 0.000000 0.000000 0.000000 0.000000 0.000000 0.025448
#
#
# Mechanical properties :
#
#
# Convention : Reuss Voigt Hill
#
# Bulk Modulus (GPa) = 39.54332 46.63036 43.08684
# Shear Modulus (GPa) = 42.21326 44.38784 43.30055
#
# Velocity S-wave (km/s) = 3.95844 4.05912 4.00910
# Velocity P-wave (km/s) = 5.96411 6.26717 6.11752
#
# Compressibility (1/GPa) = 0.02528872
#
# Stress axis : x y z
#
# Youngs Moduli (GPa) = 73.48188 73.48188 147.18810
#
# Poissons Ratio (x) = 0.04396 0.27695
# Poissons Ratio (y) = 0.04396 0.27695
# Poissons Ratio (z) = 0.13826 0.13826
#
# Static dielectric constant tensor:
#      x y z
#    x 2.233640 0.000000 0.000000 
#    y 0.000000 2.233640 0.000000 
#    z 0.000000 0.000000 2.054790 
# 
# From -- ./inp_files/3831.got.cif
#   From: 2010.05.17/outbox.cif.g08.bks.cpg/sg92_2_cif.got.tgz:3831.got - 2010.06.03 19:35:17.
