data_PCOD9549798
_publ_section_title
;
Structure prediction by ZEFSAII (Michael W. Deem and Ramdas Pophale) SiO2 
 PCOD9549798
Probable space group: P 42 2 2
;
_chemical_formula_sum "Si O2"
_cell_formula_units_Z 48
_cell_length_a 8.918392
_cell_length_b 8.918392
_cell_length_c 30.151200
_cell_angle_alpha 90.000000
_cell_angle_beta 90.000000
_cell_angle_gamma 90.000000
_cell_volume 2398.157579
_symmetry_space_group_name_H-M "P 42 2 2"
_symmetry_group_IT_number 93
_symmetry_cell_setting 'tetragonal'
loop_
_space_group_symop_operation_xyz
x,y,z
-y,x,1/2+z
-x,-y,z
y,-x,1/2+z
x,-y,-z
-x,y,-z
y,x,1/2-z
-y,-x,1/2-z
loop_
_atom_site_type_symbol
_atom_site_label
_atom_site_fract_x
_atom_site_fract_y
_atom_site_fract_z
Si Si1 0.592805 0.866451 0.165331
Si Si2 0.057789 0.329295 0.452935
Si Si3 0.489883 0.257233 0.743887
Si Si4 0.834951 0.936318 0.866781
Si Si5 0.381256 0.622742 0.910486
Si Si6 0.841853 0.574232 0.854953
O O1 0.528363 0.842058 0.213935
O O2 0.574881 0.720082 0.134288
O O3 0.500000 0.000000 0.143296
O O4 0.753950 0.945871 0.166861
O O5 0.238875 0.332958 0.442793
O O6 0.000000 0.500000 0.452609
O O7 0.000000 0.266621 0.500000
O O8 0.974545 0.240628 0.413900
O O9 0.326799 0.326799 0.750000
O O10 0.611818 0.388182 0.750000
O O11 0.487723 0.196321 0.694343
O O12 0.830212 0.757043 0.856470
O O13 0.000000 0.000000 0.869200
O O14 0.500000 0.500000 0.928662
O O15 0.261373 0.506580 0.891007
O O16 0.000000 0.500000 0.864944
#
# Coordination Sequence:
#
# PCOD9549798 Si02
#       6
#     8   8   8   8   8   8
#     4  11  21  38  61  87 125 172 212 262 327 388
#     4  10  22  43  68  96 130 168 208 261 333 406
#     4  11  22  37  59  89 123 165 217 276 323 375
#     4  11  24  43  66  92 129 175 215 263 339 406
#     4  11  20  37  65  95 124 162 210 262 316 385
#     4  12  24  39  62  90 126 169 221 275 319 383
#
# _framework density 20.015364999999999
#
# number of rings (size 3 to 8) (size 9 to 14) (size 15 to 20)
#    0.000    1.000    1.667    8.500    0.000    0.333 
#    0.000    5.833    0.000    1.000    0.000    0.000 
#    0.000    0.000    0.000    0.000    0.000    0.000 
#
# Total GULP energy -267222.537914 kJ/mol
# GULP energy per Si atom -5567.136207 kJ/mol
# Density = 1.996981 g / cm^3
# Si number density = 20.015365 Si / 1000 Ang^3
#
#
#
# Elastic Constant Matrix: (Units=GPa)
#
#
# Indices 1 2 3 4 5 6 
#
# 1 98.7029 54.5718 45.6770 0.0000 0.0000 0.0000
# 2 54.5718 98.7029 45.6770 0.0000 0.0000 0.0000
# 3 45.6770 45.6770 124.4255 0.0000 0.0000 0.0000
# 4 0.0000 0.0000 0.0000 25.0675 0.0000 0.0000
# 5 0.0000 0.0000 0.0000 0.0000 25.0675 0.0000
# 6 0.0000 0.0000 0.0000 0.0000 0.0000 34.4327
#
#
#
# Elastic Compliance Matrix: (Units=1/GPa)
#
#
# Indices 1 2 3 4 5 6 
#
# 1 0.015506 -0.007154 -0.003066 0.000000 0.000000 0.000000
# 2 -0.007154 0.015506 -0.003066 0.000000 0.000000 0.000000
# 3 -0.003066 -0.003066 0.010288 0.000000 0.000000 0.000000
# 4 0.000000 0.000000 0.000000 0.039892 0.000000 0.000000
# 5 0.000000 0.000000 0.000000 0.000000 0.039892 0.000000
# 6 0.000000 0.000000 0.000000 0.000000 0.000000 0.029042
#
#
# Mechanical properties :
#
#
# Convention : Reuss Voigt Hill
#
# Bulk Modulus (GPa) = 67.90020 68.18700 68.04360
# Shear Modulus (GPa) = 27.53202 28.64058 28.08630
#
# Velocity S-wave (km/s) = 3.71286 3.78687 3.75004
# Velocity P-wave (km/s) = 7.23727 7.29807 7.26773
#
# Compressibility (1/GPa) = 0.01472750
#
# Stress axis : x y z
#
# Youngs Moduli (GPa) = 64.49268 64.49268 97.20133
#
# Poissons Ratio (x) = 0.46139 0.29801
# Poissons Ratio (y) = 0.46139 0.29801
# Poissons Ratio (z) = 0.19773 0.19773
#
# Static dielectric constant tensor:
#      x y z
#    x 2.042740 0.000000 0.000000 
#    y 0.000000 2.042740 0.000000 
#    z 0.000000 0.000000 1.578380 
# 
# From -- ./inp_files/7772.got.cif
#   From: 2010.05.17/outbox.cif.g08.bks.cpg/sg93_4_cif.got.tgz:7772.got - 2010.06.03 19:38:44.
