data_PCOD9549288
_publ_section_title
;
Structure prediction by ZEFSAII (Michael W. Deem and Ramdas Pophale) SiO2 
 PCOD9549288
Probable space group: P 41 21 2
;
_chemical_formula_sum "Si O2"
_cell_formula_units_Z 32
_cell_length_a 10.054663
_cell_length_b 10.054663
_cell_length_c 16.962379
_cell_angle_alpha 90.000000
_cell_angle_beta 90.000000
_cell_angle_gamma 90.000000
_cell_volume 1714.832875
_symmetry_space_group_name_H-M "P 41 21 2"
_symmetry_group_IT_number 92
_symmetry_cell_setting 'tetragonal'
loop_
_space_group_symop_operation_xyz
x,y,z
1/2-y,1/2+x,1/4+z
-x,-y,1/2+z
1/2+y,1/2-x,3/4+z
1/2+x,1/2-y,3/4-z
1/2-x,1/2+y,1/4-z
y,x,-z
-y,-x,1/2-z
loop_
_atom_site_type_symbol
_atom_site_label
_atom_site_fract_x
_atom_site_fract_y
_atom_site_fract_z
Si Si1 0.220878 0.656194 0.036399
Si Si2 0.600588 0.821163 0.201376
Si Si3 0.483978 0.276136 0.533482
Si Si4 0.169715 0.373813 0.961877
O O1 0.379222 0.647299 0.056184
O O2 0.143290 0.669645 0.118050
O O3 0.216621 0.790458 0.984296
O O4 0.179685 0.525998 0.989139
O O5 0.567589 0.797635 0.110973
O O6 0.467018 0.815764 0.252535
O O7 0.670467 0.962808 0.219318
O O8 0.375567 0.375567 0.500000
O O9 0.290162 0.290162 0.000000
#
# Coordination Sequence:
#
# PCOD9549288 Si02
#       4
#     8   8   8   8
#     4  10  24  39  69 102 130 183 224 287 336 413
#     4  10  23  42  64 101 138 176 225 288 336 407
#     4  10  22  44  66  97 142 174 228 287 342 407
#     4  12  20  42  71  98 138 178 234 277 343 409
#
# _framework density 18.660710999999999
#
# number of rings (size 3 to 8) (size 9 to 14) (size 15 to 20)
#    1.500    0.000    2.500    3.750    0.000    4.000 
#    0.000    0.000    0.000    0.000    0.000    0.000 
#    0.000    0.000    0.000    0.000    0.000    0.000 
#
# Total GULP energy -178432.443542 kJ/mol
# GULP energy per Si atom -5576.013861 kJ/mol
# Density = 1.861824 g / cm^3
# Si number density = 18.660711 Si / 1000 Ang^3
#
#
#
# Elastic Constant Matrix: (Units=GPa)
#
#
# Indices 1 2 3 4 5 6 
#
# 1 71.3623 39.9528 50.8779 0.0000 0.0000 0.0000
# 2 39.9528 71.3623 50.8779 0.0000 0.0000 0.0000
# 3 50.8779 50.8779 124.3525 0.0000 0.0000 0.0000
# 4 0.0000 0.0000 0.0000 -64.1805 0.0000 0.0000
# 5 0.0000 0.0000 0.0000 0.0000 -64.1805 0.0000
# 6 0.0000 0.0000 0.0000 0.0000 0.0000 18.5381
#
#
#
# Elastic Compliance Matrix: (Units=1/GPa)
#
#
# Indices 1 2 3 4 5 6 
#
# 1 0.023094 -0.008743 -0.005872 0.000000 0.000000 0.000000
# 2 -0.008743 0.023094 -0.005872 0.000000 0.000000 0.000000
# 3 -0.005872 -0.005872 0.012846 0.000000 0.000000 0.000000
# 4 0.000000 0.000000 0.000000 -0.015581 0.000000 0.000000
# 5 0.000000 0.000000 0.000000 0.000000 -0.015581 0.000000
# 6 0.000000 0.000000 0.000000 0.000000 0.000000 0.053943
#
#
# Mechanical properties :
#
#
# Convention : Reuss Voigt Hill
#
# Bulk Modulus (GPa) = 55.36562 61.16605 58.26584
# Shear Modulus (GPa) = 38.81724 -13.60666 12.60529
#
# Velocity S-wave (km/s) = 4.56582 -2.70323 2.60186
# Velocity P-wave (km/s) = 7.58483 4.80686 6.34963
#
# Compressibility (1/GPa) = 0.01806175
#
# Stress axis : x y z
#
# Youngs Moduli (GPa) = 43.30095 43.30095 77.84379
#
# Poissons Ratio (x) = 0.37860 0.45706
# Poissons Ratio (y) = 0.37860 0.45706
# Poissons Ratio (z) = 0.25424 0.25424
#
# Static dielectric constant tensor:
#      x y z
#    x 1.647770 0.000000 0.000000 
#    y 0.000000 1.647770 0.000000 
#    z 0.000000 0.000000 1.606230 
# 
# From -- ./inp_files/2501.got.cif
#   From: 2010.05.17/outbox.cif.g08.bks.cpg/sg92_2_cif.got.tgz:2501.got - 2010.06.03 19:35:17.
