data_PCOD9549375
_publ_section_title
;
Structure prediction by ZEFSAII (Michael W. Deem and Ramdas Pophale) SiO2 
 PCOD9549375
Probable space group: P 41 21 2
;
_chemical_formula_sum "Si O2"
_cell_formula_units_Z 40
_cell_length_a 8.548708
_cell_length_b 8.548708
_cell_length_c 22.827511
_cell_angle_alpha 90.000000
_cell_angle_beta 90.000000
_cell_angle_gamma 90.000000
_cell_volume 1668.243828
_symmetry_space_group_name_H-M "P 41 21 2"
_symmetry_group_IT_number 92
_symmetry_cell_setting 'tetragonal'
loop_
_space_group_symop_operation_xyz
x,y,z
1/2-y,1/2+x,1/4+z
-x,-y,1/2+z
1/2+y,1/2-x,3/4+z
1/2+x,1/2-y,3/4-z
1/2-x,1/2+y,1/4-z
y,x,-z
-y,-x,1/2-z
loop_
_atom_site_type_symbol
_atom_site_label
_atom_site_fract_x
_atom_site_fract_y
_atom_site_fract_z
Si Si1 0.815214 0.339558 0.801516
Si Si2 0.667796 0.197507 0.466065
Si Si3 0.668771 0.222693 0.916867
Si Si4 0.628213 0.731475 0.888809
Si Si5 0.886587 0.921700 0.932826
O O1 0.780467 0.219534 0.750000
O O2 0.790918 0.515076 0.778494
O O3 0.703513 0.299802 0.855171
O O4 0.989773 0.320141 0.824775
O O5 0.668300 0.276477 0.529153
O O6 0.503971 0.196908 0.431086
O O7 0.799602 0.283376 0.425072
O O8 0.770719 0.063720 0.919725
O O9 0.788459 0.757572 0.925164
O O10 0.526260 0.586118 0.864322
O O11 0.935683 0.935683 0.000000
#
# Coordination Sequence:
#
# PCOD9549375 Si02
#       5
#     8   8   8   8   8
#     4  12  30  48  75 106 147 194 246 307 375 448
#     4  11  25  47  76 109 149 192 248 301 368 435
#     4  12  28  48  74 104 151 187 246 306 370 445
#     4  10  24  42  74 105 142 190 242 292 361 434
#     4  11  23  45  71 103 143 188 239 301 362 430
#
# _framework density 23.977311
#
# number of rings (size 3 to 8) (size 9 to 14) (size 15 to 20)
#    0.000    0.800    4.000    1.200   11.200    4.800 
#    0.000    0.000    0.000    0.000    0.000    0.000 
#    0.000    0.000    0.000    0.000    0.000    0.000 
#
# Total GULP energy -223252.835331 kJ/mol
# GULP energy per Si atom -5581.320883 kJ/mol
# Density = 2.392274 g / cm^3
# Si number density = 23.977311 Si / 1000 Ang^3
#
#
#
# Elastic Constant Matrix: (Units=GPa)
#
#
# Indices 1 2 3 4 5 6 
#
# 1 81.7064 38.6885 17.8084 0.0000 0.0000 0.0000
# 2 38.6885 81.7080 17.8097 0.0000 0.0000 0.0000
# 3 17.8084 17.8097 99.6629 0.0000 0.0000 0.0000
# 4 0.0000 0.0000 0.0000 8.3381 0.0000 0.0000
# 5 0.0000 0.0000 0.0000 0.0000 8.3372 0.0000
# 6 0.0000 0.0000 0.0000 0.0000 0.0000 42.0035
#
#
#
# Elastic Compliance Matrix: (Units=1/GPa)
#
#
# Indices 1 2 3 4 5 6 
#
# 1 0.016008 -0.007238 -0.001567 0.000000 0.000000 0.000000
# 2 -0.007238 0.016008 -0.001567 0.000000 0.000000 0.000000
# 3 -0.001567 -0.001567 0.010594 0.000000 0.000000 0.000000
# 4 0.000000 0.000000 0.000000 0.119931 0.000000 0.000000
# 5 0.000000 0.000000 0.000000 0.000000 0.119945 0.000000
# 6 0.000000 0.000000 0.000000 0.000000 0.000000 0.023808
#
#
# Mechanical properties :
#
#
# Convention : Reuss Voigt Hill
#
# Bulk Modulus (GPa) = 45.73574 45.74339 45.73956
# Shear Modulus (GPa) = 14.95551 24.32046 19.63798
#
# Velocity S-wave (km/s) = 2.50018 3.18828 2.86496
# Velocity P-wave (km/s) = 5.23933 5.71600 5.48285
#
# Compressibility (1/GPa) = 0.02186474
#
# Stress axis : x y z
#
# Youngs Moduli (GPa) = 62.46983 62.47067 94.39422
#
# Poissons Ratio (x) = 0.45217 0.14791
# Poissons Ratio (y) = 0.45216 0.14793
# Poissons Ratio (z) = 0.09789 0.09790
#
# Static dielectric constant tensor:
#      x y z
#    x 1.950830 0.000000 0.000000 
#    y 0.000000 1.950830 0.000000 
#    z 0.000000 0.000000 1.863130 
# 
# From -- ./inp_files/3805.got.cif
#   From: 2010.05.17/outbox.cif.g08.bks.cpg/sg92_2_cif.got.tgz:3805.got - 2010.06.03 19:35:17.
