data_PCOD9549997
_publ_section_title
;
Structure prediction by ZEFSAII (Michael W. Deem and Ramdas Pophale) SiO2 
 PCOD9549997
Probable space group: P 42 21 2
;
_chemical_formula_sum "Si O2"
_cell_formula_units_Z 28
_cell_length_a 7.949541
_cell_length_b 7.949541
_cell_length_c 17.752580
_cell_angle_alpha 90.000000
_cell_angle_beta 90.000000
_cell_angle_gamma 90.000000
_cell_volume 1121.877881
_symmetry_space_group_name_H-M "P 42 21 2"
_symmetry_group_IT_number 94
_symmetry_cell_setting 'tetragonal'
loop_
_space_group_symop_operation_xyz
x,y,z
1/2-y,1/2+x,1/2+z
-x,-y,z
1/2+y,1/2-x,1/2+z
1/2+x,1/2-y,1/2-z
1/2-x,1/2+y,1/2-z
y,x,-z
-y,-x,-z
loop_
_atom_site_type_symbol
_atom_site_label
_atom_site_fract_x
_atom_site_fract_y
_atom_site_fract_z
Si Si1 0.944643 0.803463 0.433814
Si Si2 0.790457 0.790457 0.000000
Si Si3 0.252585 0.106143 0.299671
Si Si4 0.751197 0.891261 0.839637
O O1 0.805020 0.805020 0.500000
O O2 0.868295 0.779145 0.351980
O O3 0.102993 0.698480 0.462828
O O4 0.000000 0.000000 0.429344
O O5 0.905088 0.802604 0.073314
O O6 0.432638 0.191622 0.306983
O O7 0.186712 0.109640 0.214915
O O8 0.274768 0.917200 0.331956
#
# Coordination Sequence:
#
# PCOD9549997 Si02
#       4
#     8   4   8   8
#     4   9  16  34  65  84 114 165 207 251 316 367
#     4  10  19  40  62  87 120 168 210 271 312 383
#     4  11  23  41  63  94 125 170 212 261 314 393
#     4  11  24  40  64  94 129 165 216 257 324 377
#
# _framework density 24.958152999999999
#
# number of rings (size 3 to 8) (size 9 to 14) (size 15 to 20)
#    0.000    2.000    5.714    1.714    0.000    0.000 
#    5.143    2.857    0.000    0.000    0.000    0.000 
#    0.000    0.000    0.000    0.000    0.000    0.000 
#
# Total GULP energy -156514.062039 kJ/mol
# GULP energy per Si atom -5589.787930 kJ/mol
# Density = 2.490135 g / cm^3
# Si number density = 24.958153 Si / 1000 Ang^3
#
#
#
# Elastic Constant Matrix: (Units=GPa)
#
#
# Indices 1 2 3 4 5 6 
#
# 1 42.5527 14.6076 28.8994 0.0000 0.0000 0.0000
# 2 14.6076 42.5527 28.8994 0.0000 0.0000 0.0000
# 3 28.8994 28.8994 174.5065 0.0000 0.0000 0.0000
# 4 0.0000 0.0000 0.0000 28.6884 0.0000 0.0000
# 5 0.0000 0.0000 0.0000 0.0000 28.6884 0.0000
# 6 0.0000 0.0000 0.0000 0.0000 0.0000 16.2150
#
#
#
# Elastic Compliance Matrix: (Units=1/GPa)
#
#
# Indices 1 2 3 4 5 6 
#
# 1 0.028399 -0.007385 -0.003480 0.000000 0.000000 0.000000
# 2 -0.007385 0.028399 -0.003480 0.000000 0.000000 0.000000
# 3 -0.003480 -0.003480 0.006883 0.000000 0.000000 0.000000
# 4 0.000000 0.000000 0.000000 0.034857 0.000000 0.000000
# 5 0.000000 0.000000 0.000000 0.000000 0.034857 0.000000
# 6 0.000000 0.000000 0.000000 0.000000 0.000000 0.061671
#
#
# Mechanical properties :
#
#
# Convention : Reuss Voigt Hill
#
# Bulk Modulus (GPa) = 28.57945 44.93606 36.75776
# Shear Modulus (GPa) = 21.23853 27.19873 24.21863
#
# Velocity S-wave (km/s) = 2.92030 3.30475 3.11845
# Velocity P-wave (km/s) = 4.77982 5.71012 5.26556
#
# Compressibility (1/GPa) = 0.03499017
#
# Stress axis : x y z
#
# Youngs Moduli (GPa) = 35.21254 35.21254 145.28442
#
# Poissons Ratio (x) = 0.26006 0.50558
# Poissons Ratio (y) = 0.26006 0.50558
# Poissons Ratio (z) = 0.12254 0.12254
#
# Static dielectric constant tensor:
#      x y z
#    x 2.047190 0.000000 0.000000 
#    y 0.000000 2.047190 0.000000 
#    z 0.000000 0.000000 2.055330 
# 
# From -- ./inp_files/3843.got.cif
#   From: 2010.05.17/outbox.cif.g08.bks.cpg/sg94_2_cif.got.tgz:3843.got - 2010.06.03 19:43:16.
