data_PCOD9549385
_publ_section_title
;
Structure prediction by ZEFSAII (Michael W. Deem and Ramdas Pophale) SiO2 
 PCOD9549385
Probable space group: P 41 21 2
;
_chemical_formula_sum "Si O2"
_cell_formula_units_Z 36
_cell_length_a 11.812688
_cell_length_b 11.812688
_cell_length_c 9.580835
_cell_angle_alpha 90.000000
_cell_angle_beta 90.000000
_cell_angle_gamma 90.000000
_cell_volume 1336.905862
_symmetry_space_group_name_H-M "P 41 21 2"
_symmetry_group_IT_number 92
_symmetry_cell_setting 'tetragonal'
loop_
_space_group_symop_operation_xyz
x,y,z
1/2-y,1/2+x,1/4+z
-x,-y,1/2+z
1/2+y,1/2-x,3/4+z
1/2+x,1/2-y,3/4-z
1/2-x,1/2+y,1/4-z
y,x,-z
-y,-x,1/2-z
loop_
_atom_site_type_symbol
_atom_site_label
_atom_site_fract_x
_atom_site_fract_y
_atom_site_fract_z
Si Si1 0.167444 0.199623 0.194887
Si Si2 0.878977 0.705920 0.976199
Si Si3 0.695278 0.596972 0.352207
Si Si4 0.464982 0.900089 0.170470
Si Si5 0.543655 0.456346 0.750000
O O1 0.099196 0.221176 0.336921
O O2 0.300769 0.225770 0.204141
O O3 0.117310 0.087745 0.129903
O O4 0.121300 0.298496 0.093692
O O5 0.877899 0.578497 0.920959
O O6 0.752499 0.752499 0.000000
O O7 0.976232 0.736385 0.089484
O O8 0.642410 0.642410 0.500000
O O9 0.588191 0.573656 0.251116
O O10 0.497245 0.914677 0.330805
#
# Coordination Sequence:
#
# PCOD9549385 Si02
#       5
#     8   8   8   8   4
#     4  11  26  47  71 107 147 199 244 317 379 464
#     4  11  25  46  71 106 143 192 247 309 386 454
#     4  12  27  47  75 114 149 200 258 319 394 456
#     4  10  24  44  70 104 140 191 242 302 371 455
#     4  12  24  46  74 104 156 186 252 318 380 470
#
# _framework density 26.927848000000001
#
# number of rings (size 3 to 8) (size 9 to 14) (size 15 to 20)
#    0.000    0.889    2.222    4.000    9.333    1.778 
#    0.000    0.000    0.000    0.000    0.000    0.000 
#    0.000    0.000    0.000    0.000    0.000    0.000 
#
# Total GULP energy -201260.095797 kJ/mol
# GULP energy per Si atom -5590.558217 kJ/mol
# Density = 2.686656 g / cm^3
# Si number density = 26.927848 Si / 1000 Ang^3
#
#
#
# Elastic Constant Matrix: (Units=GPa)
#
#
# Indices 1 2 3 4 5 6 
#
# 1 117.3056 89.9239 11.9166 0.0000 0.0000 0.0000
# 2 89.9239 117.3062 11.9168 0.0000 0.0000 0.0000
# 3 11.9166 11.9168 73.0903 0.0000 0.0000 0.0000
# 4 0.0000 0.0000 0.0000 33.0978 0.0000 0.0000
# 5 0.0000 0.0000 0.0000 0.0000 33.0979 0.0000
# 6 0.0000 0.0000 0.0000 0.0000 0.0000 34.9675
#
#
#
# Elastic Compliance Matrix: (Units=1/GPa)
#
#
# Indices 1 2 3 4 5 6 
#
# 1 0.020719 -0.015801 -0.000802 0.000000 0.000000 0.000000
# 2 -0.015801 0.020719 -0.000802 0.000000 0.000000 0.000000
# 3 -0.000802 -0.000802 0.013943 0.000000 0.000000 0.000000
# 4 0.000000 0.000000 0.000000 0.030213 0.000000 0.000000
# 5 0.000000 0.000000 0.000000 0.000000 0.030213 0.000000
# 6 0.000000 0.000000 0.000000 0.000000 0.000000 0.028598
#
#
# Mechanical properties :
#
#
# Convention : Reuss Voigt Hill
#
# Bulk Modulus (GPa) = 48.61090 59.46851 54.03970
# Shear Modulus (GPa) = 26.87119 33.16231 30.01675
#
# Velocity S-wave (km/s) = 3.16238 3.51312 3.34235
# Velocity P-wave (km/s) = 5.60586 6.21195 5.91667
#
# Compressibility (1/GPa) = 0.02057152
#
# Stress axis : x y z
#
# Youngs Moduli (GPa) = 48.26472 48.26494 71.71982
#
# Poissons Ratio (x) = 0.76265 0.05750
# Poissons Ratio (y) = 0.76264 0.05751
# Poissons Ratio (z) = 0.03870 0.03870
#
# Static dielectric constant tensor:
#      x y z
#    x 2.143720 0.000000 0.000000 
#    y 0.000000 2.143720 0.000000 
#    z 0.000000 0.000000 2.257380 
# 
# From -- ./inp_files/1977.got.cif
#   From: 2010.05.17/outbox.cif.g08.bks.cpg/sg92_1_cif.got.tgz:1977.got - 2010.06.03 19:35:17.
