data_PCOD9549441
_publ_section_title
;
Structure prediction by ZEFSAII (Michael W. Deem and Ramdas Pophale) SiO2 
 PCOD9549441
Probable space group: P 41 21 2
;
_chemical_formula_sum "Si O2"
_cell_formula_units_Z 48
_cell_length_a 10.823384
_cell_length_b 10.823384
_cell_length_c 20.291519
_cell_angle_alpha 90.000000
_cell_angle_beta 90.000000
_cell_angle_gamma 90.000000
_cell_volume 2377.063004
_symmetry_space_group_name_H-M "P 41 21 2"
_symmetry_group_IT_number 92
_symmetry_cell_setting 'tetragonal'
loop_
_space_group_symop_operation_xyz
x,y,z
1/2-y,1/2+x,1/4+z
-x,-y,1/2+z
1/2+y,1/2-x,3/4+z
1/2+x,1/2-y,3/4-z
1/2-x,1/2+y,1/4-z
y,x,-z
-y,-x,1/2-z
loop_
_atom_site_type_symbol
_atom_site_label
_atom_site_fract_x
_atom_site_fract_y
_atom_site_fract_z
Si Si1 0.238159 0.308360 0.747135
Si Si2 0.652318 0.263652 0.138028
Si Si3 0.917039 0.401084 0.966565
Si Si4 0.974110 0.067025 0.436652
Si Si5 0.579000 0.688982 0.061961
Si Si6 0.041972 0.551572 0.081447
O O1 0.173883 0.228690 0.690109
O O2 0.354562 0.232023 0.773979
O O3 0.298547 0.426388 0.710739
O O4 0.137811 0.353779 0.798757
O O5 0.584991 0.385562 0.163417
O O6 0.787046 0.246005 0.169866
O O7 0.572621 0.142783 0.154145
O O8 0.800657 0.491951 0.957921
O O9 0.994759 0.412918 0.899885
O O10 0.995729 0.448007 0.029439
O O11 0.885869 0.032295 0.375987
O O12 0.978032 0.978032 0.500000
O O13 0.599680 0.599680 0.000000
#
# Coordination Sequence:
#
# PCOD9549441 Si02
#       6
#     8   8   8   8   8   8
#     4  11  25  41  65 101 134 181 229 279 350 414
#     4  11  21  39  70 100 130 171 231 292 346 393
#     4  12  26  45  68 105 139 183 228 287 352 416
#     4  11  22  38  64  95 130 171 221 286 335 405
#     4  11  22  36  65  99 132 170 227 289 345 404
#     4  12  23  44  72  98 141 179 226 290 346 417
#
# _framework density 20.192985
#
# number of rings (size 3 to 8) (size 9 to 14) (size 15 to 20)
#    0.000    0.667    5.000    4.500    4.667    1.333 
#    0.000    0.833    0.000    0.000    0.000    0.000 
#    0.000    0.000    0.000    0.000    0.000    0.000 
#
# Total GULP energy -268443.798824 kJ/mol
# GULP energy per Si atom -5592.579142 kJ/mol
# Density = 2.014702 g / cm^3
# Si number density = 20.192985 Si / 1000 Ang^3
#
#
#
# Elastic Constant Matrix: (Units=GPa)
#
#
# Indices 1 2 3 4 5 6 
#
# 1 46.9711 14.1298 16.7203 0.0000 0.0000 0.0000
# 2 14.1298 46.9711 16.7203 0.0000 0.0000 0.0000
# 3 16.7203 16.7203 94.0613 0.0000 0.0000 0.0000
# 4 0.0000 0.0000 0.0000 31.0304 0.0000 0.0000
# 5 0.0000 0.0000 0.0000 0.0000 31.0304 0.0000
# 6 0.0000 0.0000 0.0000 0.0000 0.0000 32.6761
#
#
#
# Elastic Compliance Matrix: (Units=1/GPa)
#
#
# Indices 1 2 3 4 5 6 
#
# 1 0.024290 -0.006160 -0.003223 0.000000 0.000000 0.000000
# 2 -0.006160 0.024290 -0.003223 0.000000 0.000000 0.000000
# 3 -0.003223 -0.003223 0.011777 0.000000 0.000000 0.000000
# 4 0.000000 0.000000 0.000000 0.032226 0.000000 0.000000
# 5 0.000000 0.000000 0.000000 0.000000 0.032226 0.000000
# 6 0.000000 0.000000 0.000000 0.000000 0.000000 0.030603
#
#
# Mechanical properties :
#
#
# Convention : Reuss Voigt Hill
#
# Bulk Modulus (GPa) = 28.45249 31.46049 29.95649
# Shear Modulus (GPa) = 25.99575 28.30958 27.15266
#
# Velocity S-wave (km/s) = 3.59188 3.74833 3.67094
# Velocity P-wave (km/s) = 5.59670 5.86063 5.73018
#
# Compressibility (1/GPa) = 0.03514631
#
# Stress axis : x y z
#
# Youngs Moduli (GPa) = 41.16944 41.16944 84.91027
#
# Poissons Ratio (x) = 0.25359 0.27365
# Poissons Ratio (y) = 0.25359 0.27365
# Poissons Ratio (z) = 0.13268 0.13268
#
# Static dielectric constant tensor:
#      x y z
#    x 1.725900 0.000000 0.000000 
#    y 0.000000 1.725900 0.000000 
#    z 0.000000 0.000000 1.743770 
# 
# From -- ./inp_files/3111.got.cif
#   From: 2010.05.17/outbox.cif.g08.bks.cpg/sg92_2_cif.got.tgz:3111.got - 2010.06.03 19:35:17.
