data_PCOD9549326
_publ_section_title
;
Structure prediction by ZEFSAII (Michael W. Deem and Ramdas Pophale) SiO2 
 PCOD9549326
Probable space group: P 41 21 2
;
_chemical_formula_sum "Si O2"
_cell_formula_units_Z 40
_cell_length_a 8.045456
_cell_length_b 8.045456
_cell_length_c 30.240034
_cell_angle_alpha 90.000000
_cell_angle_beta 90.000000
_cell_angle_gamma 90.000000
_cell_volume 1957.418115
_symmetry_space_group_name_H-M "P 41 21 2"
_symmetry_group_IT_number 92
_symmetry_cell_setting 'tetragonal'
loop_
_space_group_symop_operation_xyz
x,y,z
1/2-y,1/2+x,1/4+z
-x,-y,1/2+z
1/2+y,1/2-x,3/4+z
1/2+x,1/2-y,3/4-z
1/2-x,1/2+y,1/4-z
y,x,-z
-y,-x,1/2-z
loop_
_atom_site_type_symbol
_atom_site_label
_atom_site_fract_x
_atom_site_fract_y
_atom_site_fract_z
Si Si1 0.473962 0.379542 0.123798
Si Si2 0.263539 0.109124 0.859345
Si Si3 0.822561 0.333642 0.076398
Si Si4 0.964569 0.859139 0.957514
Si Si5 0.784453 0.524481 0.987311
O O1 0.431009 0.572237 0.117922
O O2 0.293982 0.293970 0.121805
O O3 0.632142 0.351187 0.092330
O O4 0.553375 0.346507 0.171955
O O5 0.364883 0.962847 0.885654
O O6 0.287681 0.091855 0.806263
O O7 0.837857 0.142177 0.063611
O O8 0.848905 0.439945 0.032048
O O9 0.893360 0.683469 0.973179
O O10 0.975156 0.975156 0.000000
O O11 0.604010 0.604010 0.000000
#
# Coordination Sequence:
#
# PCOD9549326 Si02
#       5
#     8   8   8   8   8
#     4  11  24  42  68 100 134 179 235 287 354 422
#     4  11  25  42  70 100 139 182 230 296 357 420
#     4  11  24  44  66 103 137 178 244 288 357 434
#     4  10  23  41  66  93 132 179 222 285 353 422
#     4  11  22  42  68  94 135 181 227 285 353 423
#
# _framework density 20.435082000000001
#
# number of rings (size 3 to 8) (size 9 to 14) (size 15 to 20)
#    0.000    1.200    4.000    1.200    2.800    4.800 
#    0.000    0.000    0.000    0.000    0.000    0.000 
#    0.000    0.000    0.000    0.000    0.000    0.000 
#
# Total GULP energy -223081.893269 kJ/mol
# GULP energy per Si atom -5577.047332 kJ/mol
# Density = 2.038857 g / cm^3
# Si number density = 20.435082 Si / 1000 Ang^3
#
#
#
# Elastic Constant Matrix: (Units=GPa)
#
#
# Indices 1 2 3 4 5 6 
#
# 1 117.7927 19.8755 42.5434 0.0000 0.0000 0.0000
# 2 19.8755 117.7927 42.5434 0.0000 0.0000 0.0000
# 3 42.5434 42.5434 130.7485 0.0000 0.0000 0.0000
# 4 0.0000 0.0000 0.0000 25.9096 0.0000 0.0000
# 5 0.0000 0.0000 0.0000 0.0000 25.9096 0.0000
# 6 0.0000 0.0000 0.0000 0.0000 0.0000 38.5990
#
#
#
# Elastic Compliance Matrix: (Units=1/GPa)
#
#
# Indices 1 2 3 4 5 6 
#
# 1 0.009653 -0.000560 -0.002959 0.000000 0.000000 0.000000
# 2 -0.000560 0.009653 -0.002959 0.000000 0.000000 0.000000
# 3 -0.002959 -0.002959 0.009574 0.000000 0.000000 0.000000
# 4 0.000000 0.000000 0.000000 0.038596 0.000000 0.000000
# 5 0.000000 0.000000 0.000000 0.000000 0.038596 0.000000
# 6 0.000000 0.000000 0.000000 0.000000 0.000000 0.025907
#
#
# Mechanical properties :
#
#
# Convention : Reuss Voigt Hill
#
# Bulk Modulus (GPa) = 62.79716 64.02870 63.41293
# Shear Modulus (GPa) = 33.28009 35.50842 34.39425
#
# Velocity S-wave (km/s) = 4.03994 4.17300 4.10701
# Velocity P-wave (km/s) = 7.24971 7.39049 7.32044
#
# Compressibility (1/GPa) = 0.01592429
#
# Stress axis : x y z
#
# Youngs Moduli (GPa) = 103.59968 103.59968 104.45431
#
# Poissons Ratio (x) = 0.05803 0.30903
# Poissons Ratio (y) = 0.05803 0.30903
# Poissons Ratio (z) = 0.30650 0.30650
#
# Static dielectric constant tensor:
#      x y z
#    x 1.773160 0.000000 0.000000 
#    y 0.000000 1.773160 0.000000 
#    z 0.000000 0.000000 1.808930 
# 
# From -- ./inp_files/4167.got.cif
#   From: 2010.05.17/outbox.cif.g08.bks.cpg/sg92_3_cif.got.tgz:4167.got - 2010.06.03 19:35:17.
