data_PCOD9549042
_publ_section_title
;
Structure prediction by ZEFSAII (Michael W. Deem and Ramdas Pophale) SiO2 
 PCOD9549042
Probable space group: P 41 21 2
;
_chemical_formula_sum "Si O2"
_cell_formula_units_Z 48
_cell_length_a 14.268145
_cell_length_b 14.268145
_cell_length_c 12.297456
_cell_angle_alpha 90.000000
_cell_angle_beta 90.000000
_cell_angle_gamma 90.000000
_cell_volume 2503.515622
_symmetry_space_group_name_H-M "P 41 21 2"
_symmetry_group_IT_number 92
_symmetry_cell_setting 'tetragonal'
loop_
_space_group_symop_operation_xyz
x,y,z
1/2-y,1/2+x,1/4+z
-x,-y,1/2+z
1/2+y,1/2-x,3/4+z
1/2+x,1/2-y,3/4-z
1/2-x,1/2+y,1/4-z
y,x,-z
-y,-x,1/2-z
loop_
_atom_site_type_symbol
_atom_site_label
_atom_site_fract_x
_atom_site_fract_y
_atom_site_fract_z
Si Si1 0.936242 0.190700 0.681423
Si Si2 0.991651 0.350691 0.846050
Si Si3 0.301564 0.844310 0.502762
Si Si4 0.348119 0.659541 0.623860
Si Si5 0.997777 0.715348 0.814903
Si Si6 0.964169 0.365594 0.086345
O O1 0.893593 0.106408 0.750000
O O2 0.869999 0.220524 0.581853
O O3 0.944540 0.279569 0.762059
O O4 0.040395 0.169550 0.639332
O O5 0.099314 0.359381 0.809145
O O6 0.941310 0.451388 0.842479
O O7 0.978594 0.316738 0.969917
O O8 0.301479 0.739382 0.548839
O O9 0.296378 0.915664 0.603679
O O10 0.324243 0.675758 0.750000
O O11 0.310087 0.558846 0.587259
O O12 0.923463 0.632058 0.839548
O O13 0.028321 0.701009 0.690418
#
# Coordination Sequence:
#
# PCOD9549042 Si02
#       6
#     8   8   8   8   8   8
#     4  11  25  43  64  88 129 177 218 252 319 391
#     4  10  20  38  62  97 128 162 200 262 328 392
#     4  11  22  38  67  91 123 169 211 261 333 378
#     4  11  24  43  64  94 129 171 221 268 320 394
#     4  11  22  38  61  95 128 160 208 273 327 383
#     4  10  21  33  62  95 132 150 203 268 335 377
#
# _framework density 19.173038999999999
#
# number of rings (size 3 to 8) (size 9 to 14) (size 15 to 20)
#    0.000    1.333    3.333    3.000    9.333    0.000 
#    0.000    6.667    0.000    0.000    0.000    0.000 
#    0.000    0.000    0.000    0.000    0.000    0.000 
#
# Total GULP energy -268271.380662 kJ/mol
# GULP energy per Si atom -5588.987097 kJ/mol
# Density = 1.912940 g / cm^3
# Si number density = 19.173039 Si / 1000 Ang^3
#
#
#
# Elastic Constant Matrix: (Units=GPa)
#
#
# Indices 1 2 3 4 5 6 
#
# 1 32.7303 14.3463 14.0698 0.0000 0.0000 0.0000
# 2 14.3463 32.7348 14.0700 0.0000 0.0000 0.0000
# 3 14.0698 14.0700 129.8070 0.0000 0.0000 0.0000
# 4 0.0000 0.0000 0.0000 22.7775 0.0000 0.0000
# 5 0.0000 0.0000 0.0000 0.0000 22.7782 0.0000
# 6 0.0000 0.0000 0.0000 0.0000 0.0000 18.0320
#
#
#
# Elastic Compliance Matrix: (Units=1/GPa)
#
#
# Indices 1 2 3 4 5 6 
#
# 1 0.038553 -0.015838 -0.002462 0.000000 0.000000 0.000000
# 2 -0.015838 0.038548 -0.002462 0.000000 0.000000 0.000000
# 3 -0.002462 -0.002462 0.008237 0.000000 0.000000 0.000000
# 4 0.000000 0.000000 0.000000 0.043903 0.000000 0.000000
# 5 0.000000 0.000000 0.000000 0.000000 0.043902 0.000000
# 6 0.000000 0.000000 0.000000 0.000000 0.000000 0.055457
#
#
# Mechanical properties :
#
#
# Convention : Reuss Voigt Hill
#
# Bulk Modulus (GPa) = 22.82327 31.13829 26.98078
# Shear Modulus (GPa) = 17.56060 22.90326 20.23193
#
# Velocity S-wave (km/s) = 3.02967 3.45998 3.25195
# Velocity P-wave (km/s) = 4.91612 5.67784 5.31065
#
# Compressibility (1/GPa) = 0.04381492
#
# Stress axis : x y z
#
# Youngs Moduli (GPa) = 25.93817 25.94190 121.39715
#
# Poissons Ratio (x) = 0.41087 0.29889
# Poissons Ratio (y) = 0.41081 0.29883
# Poissons Ratio (z) = 0.06386 0.06386
#
# Static dielectric constant tensor:
#      x y z
#    x 1.640380 0.000000 0.000000 
#    y 0.000000 1.640380 0.000000 
#    z 0.000000 0.000000 1.675200 
# 
# From -- ./inp_files/2198.got.cif
#   From: 2010.05.17/outbox.cif.g08.bks.cpg/sg92_2_cif.got.tgz:2198.got - 2010.06.03 19:35:17.
