data_PCOD9549108
_publ_section_title
;
Structure prediction by ZEFSAII (Michael W. Deem and Ramdas Pophale) SiO2 
 PCOD9549108
Probable space group: P 41 21 2
;
_chemical_formula_sum "Si O2"
_cell_formula_units_Z 60
_cell_length_a 17.908007
_cell_length_b 17.908007
_cell_length_c 9.339429
_cell_angle_alpha 90.000000
_cell_angle_beta 90.000000
_cell_angle_gamma 90.000000
_cell_volume 2995.124198
_symmetry_space_group_name_H-M "P 41 21 2"
_symmetry_group_IT_number 92
_symmetry_cell_setting 'tetragonal'
loop_
_space_group_symop_operation_xyz
x,y,z
1/2-y,1/2+x,1/4+z
-x,-y,1/2+z
1/2+y,1/2-x,3/4+z
1/2+x,1/2-y,3/4-z
1/2-x,1/2+y,1/4-z
y,x,-z
-y,-x,1/2-z
loop_
_atom_site_type_symbol
_atom_site_label
_atom_site_fract_x
_atom_site_fract_y
_atom_site_fract_z
Si Si1 0.330423 0.569731 0.158509
Si Si2 0.470440 0.813709 0.167266
Si Si3 0.711615 0.517004 0.410968
Si Si4 0.447020 0.939139 0.605686
Si Si5 0.565169 0.846272 0.421910
Si Si6 0.557239 0.558148 0.721495
Si Si7 0.370120 0.370120 0.500000
Si Si8 0.443836 0.219246 0.389253
O O1 0.360190 0.639811 0.250000
O O2 0.264742 0.539934 0.256750
O O3 0.397807 0.510479 0.154740
O O4 0.299160 0.561800 0.995827
O O5 0.537573 0.849837 0.258639
O O6 0.396346 0.862164 0.187098
O O7 0.493346 0.800164 0.005630
O O8 0.762348 0.568207 0.516309
O O9 0.631522 0.551257 0.373478
O O10 0.751856 0.518493 0.256963
O O11 0.484500 0.948423 0.761553
O O12 0.500056 0.883940 0.516690
O O13 0.362412 0.909012 0.610054
O O14 0.474616 0.525385 0.750000
O O15 0.601107 0.581258 0.865509
O O16 0.390704 0.284540 0.455347
#
# Coordination Sequence:
#
# PCOD9549108 Si02
#       8
#     8   8   8   8   8   8   4   8
#     4  10  22  40  64  91 127 166 223 277 332 401
#     4  11  23  38  62  92 127 172 215 278 336 404
#     4  10  22  39  63  95 129 172 217 277 341 401
#     4  12  23  39  67  99 129 172 228 286 339 408
#     4  11  22  40  62  94 130 168 223 280 332 407
#     4  10  21  36  66  94 126 167 226 275 333 398
#     4  10  22  42  58  96 134 174 212 290 344 406
#     4  11  23  39  63  93 133 171 223 275 347 411
#
# _framework density 20.032558000000002
#
# number of rings (size 3 to 8) (size 9 to 14) (size 15 to 20)
#    0.000    1.333    4.000    1.200    5.600    0.000 
#    0.000    2.667    7.333    0.000    0.000    0.000 
#    0.000    0.000    0.000    0.000    0.000    0.000 
#
# Total GULP energy -334508.519693 kJ/mol
# GULP energy per Si atom -5575.141995 kJ/mol
# Density = 1.998696 g / cm^3
# Si number density = 20.032558 Si / 1000 Ang^3
#
#
#
# Elastic Constant Matrix: (Units=GPa)
#
#
# Indices 1 2 3 4 5 6 
#
# 1 66.0935 28.4585 22.1803 0.0000 0.0000 0.0000
# 2 28.4585 66.0786 22.1770 0.0000 0.0000 0.0000
# 3 22.1803 22.1770 116.5075 0.0000 0.0000 0.0000
# 4 0.0000 0.0000 0.0000 21.4088 0.0000 0.0000
# 5 0.0000 0.0000 0.0000 0.0000 21.4092 0.0000
# 6 0.0000 0.0000 0.0000 0.0000 0.0000 11.4504
#
#
#
# Elastic Compliance Matrix: (Units=1/GPa)
#
#
# Indices 1 2 3 4 5 6 
#
# 1 0.019093 -0.007481 -0.002211 0.000000 0.000000 0.000000
# 2 -0.007481 0.019097 -0.002211 0.000000 0.000000 0.000000
# 3 -0.002211 -0.002211 0.009425 0.000000 0.000000 0.000000
# 4 0.000000 0.000000 0.000000 0.046710 0.000000 0.000000
# 5 0.000000 0.000000 0.000000 0.000000 0.046709 0.000000
# 6 0.000000 0.000000 0.000000 0.000000 0.000000 0.087333
#
#
# Mechanical properties :
#
#
# Convention : Reuss Voigt Hill
#
# Bulk Modulus (GPa) = 41.99948 43.81235 42.90591
# Shear Modulus (GPa) = 19.22264 22.57792 20.90028
#
# Velocity S-wave (km/s) = 3.10105 3.36082 3.23354
# Velocity P-wave (km/s) = 5.81663 6.08097 5.95027
#
# Compressibility (1/GPa) = 0.02380982
#
# Stress axis : x y z
#
# Youngs Moduli (GPa) = 52.37465 52.36318 106.10202
#
# Poissons Ratio (x) = 0.39173 0.23458
# Poissons Ratio (y) = 0.39181 0.23459
# Poissons Ratio (z) = 0.11580 0.11577
#
# Static dielectric constant tensor:
#      x y z
#    x 1.735810 0.000000 0.000000 
#    y 0.000000 1.735810 0.000000 
#    z 0.000000 0.000000 1.768730 
# 
# From -- ./inp_files/1654.got.cif
#   From: 2010.05.17/outbox.cif.g08.bks.cpg/sg92_1_cif.got.tgz:1654.got - 2010.06.03 19:35:17.
