data_PCOD9549881
_publ_section_title
;
Structure prediction by ZEFSAII (Michael W. Deem and Ramdas Pophale) SiO2 
 PCOD9549881
Probable space group: P 42 2 2
;
_chemical_formula_sum "Si O2"
_cell_formula_units_Z 40
_cell_length_a 8.398118
_cell_length_b 8.398118
_cell_length_c 23.022349
_cell_angle_alpha 90.000000
_cell_angle_beta 90.000000
_cell_angle_gamma 90.000000
_cell_volume 1623.729116
_symmetry_space_group_name_H-M "P 42 2 2"
_symmetry_group_IT_number 93
_symmetry_cell_setting 'tetragonal'
loop_
_space_group_symop_operation_xyz
x,y,z
-y,x,1/2+z
-x,-y,z
y,-x,1/2+z
x,-y,-z
-x,y,-z
y,x,1/2-z
-y,-x,1/2-z
loop_
_atom_site_type_symbol
_atom_site_label
_atom_site_fract_x
_atom_site_fract_y
_atom_site_fract_z
Si Si1 0.223190 0.123600 0.326626
Si Si2 0.809488 0.812119 0.502276
Si Si3 0.675909 0.951693 0.791641
Si Si4 0.336186 0.398813 0.100907
Si Si5 0.283308 0.807302 0.375312
O O1 0.041785 0.172427 0.318406
O O2 0.305189 0.028673 0.273162
O O3 0.293396 0.297670 0.342086
O O4 0.232668 0.990750 0.375228
O O5 0.709945 0.711034 0.454315
O O6 0.781238 0.733368 0.565411
O O7 0.000000 0.810170 0.500000
O O8 0.758420 0.000000 0.500000
O O9 0.500000 0.000000 0.810686
O O10 0.713712 0.776096 0.817531
O O11 0.500000 0.500000 0.097456
O O12 0.202360 0.530494 0.114196
#
# Coordination Sequence:
#
# PCOD9549881 Si02
#       5
#     8   8   8   8   8
#     4  11  24  44  72 103 149 207 268 326 408 499
#     4  11  25  45  75 108 146 203 273 334 404 495
#     4  11  24  44  69 107 151 200 268 338 407 487
#     4  12  26  47  74 113 156 209 263 340 424 489
#     4  12  24  41  72 104 146 198 258 331 403 486
#
# _framework density 24.634649
#
# number of rings (size 3 to 8) (size 9 to 14) (size 15 to 20)
#    0.000    0.600    2.000    6.000    2.800    4.000 
#    0.000    7.000    0.000    0.000    0.000    0.000 
#    0.000    0.000    0.000    0.000    0.000    0.000 
#
# Total GULP energy -222712.873779 kJ/mol
# GULP energy per Si atom -5567.821844 kJ/mol
# Density = 2.457858 g / cm^3
# Si number density = 24.634649 Si / 1000 Ang^3
#
#
#
# Elastic Constant Matrix: (Units=GPa)
#
#
# Indices 1 2 3 4 5 6 
#
# 1 120.5614 30.0800 42.1898 0.0000 0.0000 0.0000
# 2 30.0800 120.5614 42.1898 0.0000 0.0000 0.0000
# 3 42.1898 42.1898 122.9150 0.0000 0.0000 0.0000
# 4 0.0000 0.0000 0.0000 10.1185 0.0000 0.0000
# 5 0.0000 0.0000 0.0000 0.0000 10.1185 0.0000
# 6 0.0000 0.0000 0.0000 0.0000 0.0000 51.1055
#
#
#
# Elastic Compliance Matrix: (Units=1/GPa)
#
#
# Indices 1 2 3 4 5 6 
#
# 1 0.009635 -0.001417 -0.002821 0.000000 0.000000 0.000000
# 2 -0.001417 0.009635 -0.002821 0.000000 0.000000 0.000000
# 3 -0.002821 -0.002821 0.010072 0.000000 0.000000 0.000000
# 4 0.000000 0.000000 0.000000 0.098829 0.000000 0.000000
# 5 0.000000 0.000000 0.000000 0.000000 0.098829 0.000000
# 6 0.000000 0.000000 0.000000 0.000000 0.000000 0.019567
#
#
# Mechanical properties :
#
#
# Convention : Reuss Voigt Hill
#
# Bulk Modulus (GPa) = 65.67999 65.88413 65.78206
# Shear Modulus (GPa) = 18.81394 30.90703 24.86049
#
# Velocity S-wave (km/s) = 2.76654 3.54590 3.18019
# Velocity P-wave (km/s) = 6.07656 6.60054 6.34396
#
# Compressibility (1/GPa) = 0.01522534
#
# Stress axis : x y z
#
# Youngs Moduli (GPa) = 103.78631 103.78631 99.28297
#
# Poissons Ratio (x) = 0.14705 0.28007
# Poissons Ratio (y) = 0.14705 0.28007
# Poissons Ratio (z) = 0.29277 0.29277
#
# Static dielectric constant tensor:
#      x y z
#    x 2.122870 0.000000 0.000000 
#    y 0.000000 2.122870 0.000000 
#    z 0.000000 0.000000 2.241260 
# 
# From -- ./inp_files/6735.got.cif
#   From: 2010.05.17/outbox.cif.g08.bks.cpg/sg93_4_cif.got.tgz:6735.got - 2010.06.03 19:38:44.
