data_PCOD9549842
_publ_section_title
;
Structure prediction by ZEFSAII (Michael W. Deem and Ramdas Pophale) SiO2 
 PCOD9549842
Probable space group: P 42 2 2
;
_chemical_formula_sum "Si O2"
_cell_formula_units_Z 40
_cell_length_a 18.253185
_cell_length_b 18.253185
_cell_length_c 5.928727
_cell_angle_alpha 90.000000
_cell_angle_beta 90.000000
_cell_angle_gamma 90.000000
_cell_volume 1975.325926
_symmetry_space_group_name_H-M "P 42 2 2"
_symmetry_group_IT_number 93
_symmetry_cell_setting 'tetragonal'
loop_
_space_group_symop_operation_xyz
x,y,z
-y,x,1/2+z
-x,-y,z
y,-x,1/2+z
x,-y,-z
-x,y,-z
y,x,1/2-z
-y,-x,1/2-z
loop_
_atom_site_type_symbol
_atom_site_label
_atom_site_fract_x
_atom_site_fract_y
_atom_site_fract_z
Si Si1 0.185584 0.077556 0.375511
Si Si2 0.287872 0.180856 0.666729
Si Si3 0.820064 0.571208 0.138486
Si Si4 0.331292 0.922358 0.924612
Si Si5 0.462805 0.658080 0.754703
O O1 0.116819 0.116819 0.250000
O O2 0.221476 0.139138 0.538467
O O3 0.255590 0.063775 0.212854
O O4 0.168195 0.000000 0.500000
O O5 0.257150 0.257150 0.750000
O O6 0.359346 0.195209 0.520995
O O7 0.309775 0.128938 0.869883
O O8 0.882552 0.604270 0.293177
O O9 0.744891 0.551521 0.262874
O O10 0.843355 0.500000 0.000000
O O11 0.359158 0.000000 0.000000
O O12 0.500000 0.646227 0.500000
O O13 0.389125 0.610876 0.750000
O O14 0.500000 0.638416 0.000000
#
# Coordination Sequence:
#
# PCOD9549842 Si02
#       5
#     8   8   8   8   8
#     4  11  22  40  67 104 136 174 232 290 354 429
#     4  11  23  40  72 101 129 181 235 285 348 423
#     4  10  27  43  65 101 140 175 231 293 348 422
#     4  11  23  42  72  94 134 181 229 292 345 422
#     4  11  26  46  73 105 144 188 237 297 361 431
#
# _framework density 20.249824
#
# number of rings (size 3 to 8) (size 9 to 14) (size 15 to 20)
#    0.000    1.200    4.000    0.600    8.400    1.200 
#    0.000    3.000    0.000   10.800    0.000    0.000 
#    0.000    0.000    0.000    0.000    0.000    0.000 
#
# Total GULP energy -223153.336185 kJ/mol
# GULP energy per Si atom -5578.833405 kJ/mol
# Density = 2.020373 g / cm^3
# Si number density = 20.249824 Si / 1000 Ang^3
#
#
#
# Elastic Constant Matrix: (Units=GPa)
#
#
# Indices 1 2 3 4 5 6 
#
# 1 36.1069 32.2117 24.3338 0.0000 0.0000 0.0000
# 2 32.2117 36.0916 24.3291 0.0000 0.0000 0.0000
# 3 24.3338 24.3291 84.5270 0.0000 0.0000 0.0000
# 4 0.0000 0.0000 0.0000 -44.3610 0.0000 0.0000
# 5 0.0000 0.0000 0.0000 0.0000 -44.4744 0.0000
# 6 0.0000 0.0000 0.0000 0.0000 0.0000 -37.3435
#
#
#
# Elastic Compliance Matrix: (Units=1/GPa)
#
#
# Indices 1 2 3 4 5 6 
#
# 1 0.137795 -0.119409 -0.005300 0.000000 0.000000 0.000000
# 2 -0.119409 0.137854 -0.005302 0.000000 0.000000 0.000000
# 3 -0.005300 -0.005302 0.014882 0.000000 0.000000 0.000000
# 4 0.000000 0.000000 0.000000 -0.022542 0.000000 0.000000
# 5 0.000000 0.000000 0.000000 0.000000 -0.022485 0.000000
# 6 0.000000 0.000000 0.000000 0.000000 0.000000 -0.026778
#
#
# Mechanical properties :
#
#
# Convention : Reuss Voigt Hill
#
# Bulk Modulus (GPa) = 32.77711 35.38608 34.08160
# Shear Modulus (GPa) = 10.22667 -20.17907 -4.97620
#
# Velocity S-wave (km/s) = 2.24971 -3.16017 -1.56931
# Velocity P-wave (km/s) = 4.79268 2.04868 3.68557
#
# Compressibility (1/GPa) = 0.03050909
#
# Stress axis : x y z
#
# Youngs Moduli (GPa) = 7.25717 7.25404 67.19387
#
# Poissons Ratio (x) = 0.86620 0.35610
# Poissons Ratio (y) = 0.86657 0.35628
# Poissons Ratio (z) = 0.03846 0.03846
#
# Static dielectric constant tensor:
#      x y z
#    x 1.683630 0.000000 0.000000 
#    y 0.000000 1.683640 0.000000 
#    z 0.000000 0.000000 1.796030 
# 
# From -- ./inp_files/478.got.cif
#   From: 2010.05.17/outbox.cif.g08.bks.cpg/sg93_1_cif.got.tgz:478.got - 2010.06.03 19:38:44.
