data_PCOD9549267
_publ_section_title
;
Structure prediction by ZEFSAII (Michael W. Deem and Ramdas Pophale) SiO2 
 PCOD9549267
Probable space group: P 41 21 2
;
_chemical_formula_sum "Si O2"
_cell_formula_units_Z 44
_cell_length_a 8.910368
_cell_length_b 8.910368
_cell_length_c 24.872402
_cell_angle_alpha 90.000000
_cell_angle_beta 90.000000
_cell_angle_gamma 90.000000
_cell_volume 1974.735848
_symmetry_space_group_name_H-M "P 41 21 2"
_symmetry_group_IT_number 92
_symmetry_cell_setting 'tetragonal'
loop_
_space_group_symop_operation_xyz
x,y,z
1/2-y,1/2+x,1/4+z
-x,-y,1/2+z
1/2+y,1/2-x,3/4+z
1/2+x,1/2-y,3/4-z
1/2-x,1/2+y,1/4-z
y,x,-z
-y,-x,1/2-z
loop_
_atom_site_type_symbol
_atom_site_label
_atom_site_fract_x
_atom_site_fract_y
_atom_site_fract_z
Si Si1 0.098157 0.679734 0.046588
Si Si2 0.324826 0.578819 0.346996
Si Si3 0.233997 0.643212 0.934831
Si Si4 0.865484 0.166417 0.855997
Si Si5 0.966455 0.966455 0.000000
Si Si6 0.551469 0.108134 0.389038
O O1 0.190948 0.788575 0.085923
O O2 0.981385 0.800507 0.023007
O O3 0.008264 0.547432 0.075842
O O4 0.197725 0.627928 0.997210
O O5 0.216149 0.705798 0.321896
O O6 0.458974 0.649712 0.382731
O O7 0.411671 0.495148 0.297863
O O8 0.203394 0.478846 0.379840
O O9 0.301798 0.489950 0.913326
O O10 0.365409 0.762613 0.922755
O O11 0.073045 0.666651 0.903652
#
# Coordination Sequence:
#
# PCOD9549267 Si02
#       6
#     8   8   8   8   4   8
#     4  10  23  41  66  95 135 180 227 271 347 410
#     4  11  22  44  66  95 131 179 222 284 342 407
#     4  11  23  41  65  97 138 171 229 285 335 410
#     4  10  23  40  65  96 132 172 230 277 337 412
#     4  10  22  42  70  92 134 188 224 276 352 400
#     4  11  24  40  67  97 131 179 225 277 346 407
#
# _framework density 22.281462999999999
#
# number of rings (size 3 to 8) (size 9 to 14) (size 15 to 20)
#    0.000    1.455    1.818    3.273    7.636    1.455 
#    0.000    0.000    0.000    0.000    0.000    0.000 
#    0.000    0.000    0.000    0.000    0.000    0.000 
#
# Total GULP energy -245300.458922 kJ/mol
# GULP energy per Si atom -5575.010430 kJ/mol
# Density = 2.223075 g / cm^3
# Si number density = 22.281463 Si / 1000 Ang^3
#
#
#
# Elastic Constant Matrix: (Units=GPa)
#
#
# Indices 1 2 3 4 5 6 
#
# 1 108.7602 41.7841 8.4117 0.0000 0.0000 0.0000
# 2 41.7841 108.7602 8.4117 0.0000 0.0000 0.0000
# 3 8.4117 8.4117 28.8825 0.0000 0.0000 0.0000
# 4 0.0000 0.0000 0.0000 13.2754 0.0000 0.0000
# 5 0.0000 0.0000 0.0000 0.0000 13.2754 0.0000
# 6 0.0000 0.0000 0.0000 0.0000 0.0000 51.2490
#
#
#
# Elastic Compliance Matrix: (Units=1/GPa)
#
#
# Indices 1 2 3 4 5 6 
#
# 1 0.010898 -0.004032 -0.002000 0.000000 0.000000 0.000000
# 2 -0.004032 0.010898 -0.002000 0.000000 0.000000 0.000000
# 3 -0.002000 -0.002000 0.035788 0.000000 0.000000 0.000000
# 4 0.000000 0.000000 0.000000 0.075328 0.000000 0.000000
# 5 0.000000 0.000000 0.000000 0.000000 0.075328 0.000000
# 6 0.000000 0.000000 0.000000 0.000000 0.000000 0.019513
#
#
# Mechanical properties :
#
#
# Convention : Reuss Voigt Hill
#
# Bulk Modulus (GPa) = 24.08403 40.40198 32.24300
# Shear Modulus (GPa) = 19.40572 28.07964 23.74268
#
# Velocity S-wave (km/s) = 2.95436 3.55381 3.26786
# Velocity P-wave (km/s) = 4.74027 5.91704 5.36104
#
# Compressibility (1/GPa) = 0.04152130
#
# Stress axis : x y z
#
# Youngs Moduli (GPa) = 91.75693 91.75693 27.94246
#
# Poissons Ratio (x) = 0.37000 0.05587
# Poissons Ratio (y) = 0.37000 0.05587
# Poissons Ratio (z) = 0.18348 0.18348
#
# Static dielectric constant tensor:
#      x y z
#    x 1.884790 0.000000 0.000000 
#    y 0.000000 1.884790 0.000000 
#    z 0.000000 0.000000 1.844400 
# 
# From -- ./inp_files/4420.got.cif
#   From: 2010.05.17/outbox.cif.g08.bks.cpg/sg92_3_cif.got.tgz:4420.got - 2010.06.03 19:35:17.
