data_PCOD9549936
_publ_section_title
;
Structure prediction by ZEFSAII (Michael W. Deem and Ramdas Pophale) SiO2 
 PCOD9549936
Probable space group: P 42 21 2
;
_chemical_formula_sum "Si O2"
_cell_formula_units_Z 52
_cell_length_a 18.581582
_cell_length_b 18.581582
_cell_length_c 8.843381
_cell_angle_alpha 90.000000
_cell_angle_beta 90.000000
_cell_angle_gamma 90.000000
_cell_volume 3053.400052
_symmetry_space_group_name_H-M "P 42 21 2"
_symmetry_group_IT_number 94
_symmetry_cell_setting 'tetragonal'
loop_
_space_group_symop_operation_xyz
x,y,z
1/2-y,1/2+x,1/2+z
-x,-y,z
1/2+y,1/2-x,1/2+z
1/2+x,1/2-y,1/2-z
1/2-x,1/2+y,1/2-z
y,x,-z
-y,-x,-z
loop_
_atom_site_type_symbol
_atom_site_label
_atom_site_fract_x
_atom_site_fract_y
_atom_site_fract_z
Si Si1 0.700896 0.187451 0.919252
Si Si2 0.588337 0.411664 0.000000
Si Si3 0.728253 0.541325 0.671871
Si Si4 0.417593 0.446107 0.827409
Si Si5 0.171701 0.201093 0.829986
Si Si6 0.085441 0.244952 0.385839
Si Si7 0.628475 0.475088 0.409125
O O1 0.724851 0.106377 0.890551
O O2 0.683238 0.225761 0.760172
O O3 0.764071 0.235930 0.000000
O O4 0.629106 0.196016 0.020569
O O5 0.533087 0.430500 0.139490
O O6 0.575745 0.325231 0.002990
O O7 0.662668 0.568631 0.773920
O O8 0.765229 0.483769 0.785734
O O9 0.684480 0.506105 0.532166
O O10 0.465338 0.403723 0.703953
O O11 0.421673 0.421673 0.000000
O O12 0.214292 0.140911 0.737150
O O13 0.089959 0.172570 0.833442
O O14 0.200554 0.200554 0.000000
O O15 0.563095 0.436906 0.500000
#
# Coordination Sequence:
#
# PCOD9549936 Si02
#       7
#     8   4   8   8   8   8   8
#     4  10  21  37  60  78 117 159 193 248 295 343
#     4  10  19  32  48  80 108 168 203 220 270 356
#     4  11  23  38  54  87 115 154 202 239 304 347
#     4  11  24  30  49  78 128 157 196 236 286 353
#     4  10  18  34  58  79 109 156 205 230 276 353
#     4  10  18  37  58  78 113 160 206 231 289 361
#     4  11  22  36  52  83 121 161 192 238 286 365
#
# _framework density 17.030196
#
# number of rings (size 3 to 8) (size 9 to 14) (size 15 to 20)
#    0.000    1.538    5.385    2.538    6.462    1.231 
#    1.385    0.000    0.000    0.000    0.000    3.231 
#    0.000    0.000    0.000    0.000    0.000    0.000 
#
# Total GULP energy -289554.360880 kJ/mol
# GULP energy per Si atom -5568.353094 kJ/mol
# Density = 1.699143 g / cm^3
# Si number density = 17.030196 Si / 1000 Ang^3
#
#
#
# Elastic Constant Matrix: (Units=GPa)
#
#
# Indices 1 2 3 4 5 6 
#
# 1 97.0667 51.3476 51.0881 0.0000 0.0000 0.0000
# 2 51.3476 97.0608 51.0880 0.0000 0.0000 0.0000
# 3 51.0881 51.0880 133.6300 0.0000 0.0000 0.0000
# 4 0.0000 0.0000 0.0000 19.4967 0.0000 0.0000
# 5 0.0000 0.0000 0.0000 0.0000 19.4965 0.0000
# 6 0.0000 0.0000 0.0000 0.0000 0.0000 33.2255
#
#
#
# Elastic Compliance Matrix: (Units=1/GPa)
#
#
# Indices 1 2 3 4 5 6 
#
# 1 0.015509 -0.006365 -0.003496 0.000000 0.000000 0.000000
# 2 -0.006365 0.015510 -0.003496 0.000000 0.000000 0.000000
# 3 -0.003496 -0.003496 0.010157 0.000000 0.000000 0.000000
# 4 0.000000 0.000000 0.000000 0.051291 0.000000 0.000000
# 5 0.000000 0.000000 0.000000 0.000000 0.051291 0.000000
# 6 0.000000 0.000000 0.000000 0.000000 0.000000 0.030097
#
#
# Mechanical properties :
#
#
# Convention : Reuss Voigt Hill
#
# Bulk Modulus (GPa) = 69.14770 70.53388 69.84079
# Shear Modulus (GPa) = 24.34394 26.05932 25.20163
#
# Velocity S-wave (km/s) = 3.78492 3.91600 3.85102
# Velocity P-wave (km/s) = 7.73253 7.87106 7.80210
#
# Compressibility (1/GPa) = 0.01446180
#
# Stress axis : x y z
#
# Youngs Moduli (GPa) = 64.47865 64.47377 98.45764
#
# Poissons Ratio (x) = 0.41034 0.34421
# Poissons Ratio (y) = 0.41038 0.34425
# Poissons Ratio (z) = 0.22542 0.22543
#
# Static dielectric constant tensor:
#      x y z
#    x 1.617460 0.000000 0.000000 
#    y 0.000000 1.617460 0.000000 
#    z 0.000000 0.000000 1.818780 
# 
# From -- ./inp_files/1689.got.cif
#   From: 2010.05.17/outbox.cif.g08.bks.cpg/sg94_1_cif.got.tgz:1689.got - 2010.06.03 19:43:16.
