data_PCOD9549749
_publ_section_title
;
Structure prediction by ZEFSAII (Michael W. Deem and Ramdas Pophale) SiO2 
 PCOD9549749
Probable space group: P 42 2 2
;
_chemical_formula_sum "Si O2"
_cell_formula_units_Z 32
_cell_length_a 18.274739
_cell_length_b 18.274739
_cell_length_c 5.059474
_cell_angle_alpha 90.000000
_cell_angle_beta 90.000000
_cell_angle_gamma 90.000000
_cell_volume 1689.692727
_symmetry_space_group_name_H-M "P 42 2 2"
_symmetry_group_IT_number 93
_symmetry_cell_setting 'tetragonal'
loop_
_space_group_symop_operation_xyz
x,y,z
-y,x,1/2+z
-x,-y,z
y,-x,1/2+z
x,-y,-z
-x,y,-z
y,x,1/2-z
-y,-x,1/2-z
loop_
_atom_site_type_symbol
_atom_site_label
_atom_site_fract_x
_atom_site_fract_y
_atom_site_fract_z
Si Si1 0.671900 0.449376 0.758619
Si Si2 0.550751 0.842237 0.255059
Si Si3 0.840055 0.914241 0.494710
Si Si4 0.317286 0.950643 0.735654
O O1 0.666591 0.500000 0.500000
O O2 0.621383 0.378618 0.750000
O O3 0.757082 0.429265 0.800444
O O4 0.647609 0.500000 0.000000
O O5 0.500000 0.866723 0.500000
O O6 0.622747 0.889693 0.204764
O O7 0.500000 0.846081 0.000000
O O8 0.880485 0.880485 0.250000
O O9 0.754446 0.915981 0.407378
O O10 0.860056 0.000000 0.500000
O O11 0.868160 0.868160 0.750000
O O12 0.349654 0.000000 0.500000
O O13 0.300069 0.000000 0.000000
#
# Coordination Sequence:
#
# PCOD9549749 Si02
#       4
#     8   8   8   8
#     4  10  21  37  56  82 114 148 191 239 287 345
#     4  10  22  39  59  86 119 154 196 245 296 356
#     4  11  23  40  60  86 118 152 194 243 294 352
#     4  11  23  40  61  88 120 154 198 247 296 357
#
# _framework density 18.938351999999998
#
# number of rings (size 3 to 8) (size 9 to 14) (size 15 to 20)
#    0.000    1.500    0.000    6.000    0.000    7.000 
#    0.000    5.000    0.000    0.000    0.000    0.000 
#    0.000    0.000    0.000    0.000    0.000    0.000 
#
# Total GULP energy -178470.015543 kJ/mol
# GULP energy per Si atom -5577.187986 kJ/mol
# Density = 1.889525 g / cm^3
# Si number density = 18.938352 Si / 1000 Ang^3
#
#
#
# Elastic Constant Matrix: (Units=GPa)
#
#
# Indices 1 2 3 4 5 6 
#
# 1 94.1294 80.7033 31.4224 0.0000 0.0000 0.0000
# 2 80.7033 94.1338 31.4231 0.0000 0.0000 0.0000
# 3 31.4224 31.4231 125.1786 0.0000 0.0000 0.0000
# 4 0.0000 0.0000 0.0000 46.9693 0.0000 0.0000
# 5 0.0000 0.0000 0.0000 0.0000 46.9651 0.0000
# 6 0.0000 0.0000 0.0000 0.0000 0.0000 65.5045
#
#
#
# Elastic Compliance Matrix: (Units=1/GPa)
#
#
# Indices 1 2 3 4 5 6 
#
# 1 0.040379 -0.034091 -0.001578 0.000000 0.000000 0.000000
# 2 -0.034091 0.040377 -0.001578 0.000000 0.000000 0.000000
# 3 -0.001578 -0.001578 0.008781 0.000000 0.000000 0.000000
# 4 0.000000 0.000000 0.000000 0.021291 0.000000 0.000000
# 5 0.000000 0.000000 0.000000 0.000000 0.021292 0.000000
# 6 0.000000 0.000000 0.000000 0.000000 0.000000 0.015266
#
#
# Mechanical properties :
#
#
# Convention : Reuss Voigt Hill
#
# Bulk Modulus (GPa) = 66.47994 66.72662 66.60328
# Shear Modulus (GPa) = 22.03655 43.21397 32.62526
#
# Velocity S-wave (km/s) = 3.41485 4.78203 4.15506
# Velocity P-wave (km/s) = 7.12235 8.11175 7.63309
#
# Compressibility (1/GPa) = 0.01504213
#
# Stress axis : x y z
#
# Youngs Moduli (GPa) = 24.76523 24.76640 113.88351
#
# Poissons Ratio (x) = 0.84432 0.17973
# Poissons Ratio (y) = 0.84428 0.17972
# Poissons Ratio (z) = 0.03908 0.03908
#
# Static dielectric constant tensor:
#      x y z
#    x 1.666660 0.000000 0.000000 
#    y 0.000000 1.666660 0.000000 
#    z 0.000000 0.000000 1.639110 
# 
# From -- ./inp_files/429.got.cif
#   From: 2010.05.17/outbox.cif.g08.bks.cpg/sg93_1_cif.got.tgz:429.got - 2010.06.03 19:38:44.
