data_PCOD9549515
_publ_section_title
;
Structure prediction by ZEFSAII (Michael W. Deem and Ramdas Pophale) SiO2 
 PCOD9549515
Probable space group: P 41 21 2
;
_chemical_formula_sum "Si O2"
_cell_formula_units_Z 32
_cell_length_a 17.393835
_cell_length_b 17.393835
_cell_length_c 5.133628
_cell_angle_alpha 90.000000
_cell_angle_beta 90.000000
_cell_angle_gamma 90.000000
_cell_volume 1553.156030
_symmetry_space_group_name_H-M "P 41 21 2"
_symmetry_group_IT_number 92
_symmetry_cell_setting 'tetragonal'
loop_
_space_group_symop_operation_xyz
x,y,z
1/2-y,1/2+x,1/4+z
-x,-y,1/2+z
1/2+y,1/2-x,3/4+z
1/2+x,1/2-y,3/4-z
1/2-x,1/2+y,1/4-z
y,x,-z
-y,-x,1/2-z
loop_
_atom_site_type_symbol
_atom_site_label
_atom_site_fract_x
_atom_site_fract_y
_atom_site_fract_z
Si Si1 0.226134 0.106473 0.124697
Si Si2 0.408715 0.591286 0.750000
Si Si3 0.768328 0.056908 0.394350
Si Si4 0.728219 0.148065 0.865726
Si Si5 0.929024 0.070977 0.250000
O O1 0.174257 0.081118 0.368666
O O2 0.302701 0.153150 0.191736
O O3 0.168465 0.168465 0.000000
O O4 0.240010 0.034335 0.935803
O O5 0.418614 0.517440 0.569851
O O6 0.715832 0.094386 0.616022
O O7 0.752599 0.095847 0.113407
O O8 0.790140 0.209860 0.750000
O O9 0.858174 0.078880 0.451056
#
# Coordination Sequence:
#
# PCOD9549515 Si02
#       5
#     8   4   8   8   4
#     4  11  26  42  66  98 136 183 225 275 341 410
#     4  12  24  41  60  98 148 185 214 260 324 422
#     4  12  24  43  66  97 138 179 221 280 337 394
#     4  11  25  42  67  96 136 176 229 278 328 400
#     4  12  22  37  60  98 136 181 206 256 328 414
#
# _framework density 20.603210000000001
#
# number of rings (size 3 to 8) (size 9 to 14) (size 15 to 20)
#    0.000    0.500    5.000    3.000    7.000    0.000 
#    0.000    0.000    0.000    3.000    0.000    0.000 
#    0.000    0.000    0.000    0.000    0.000    0.000 
#
# Total GULP energy -178447.737223 kJ/mol
# GULP energy per Si atom -5576.491788 kJ/mol
# Density = 2.055632 g / cm^3
# Si number density = 20.603210 Si / 1000 Ang^3
#
#
#
# Elastic Constant Matrix: (Units=GPa)
#
#
# Indices 1 2 3 4 5 6 
#
# 1 73.4637 99.7954 43.6730 0.0000 0.0000 0.0000
# 2 99.7954 73.4634 43.6769 0.0000 0.0000 0.0000
# 3 43.6730 43.6769 112.4402 0.0000 0.0000 0.0000
# 4 0.0000 0.0000 0.0000 22.9423 0.0000 0.0000
# 5 0.0000 0.0000 0.0000 0.0000 22.9402 0.0000
# 6 0.0000 0.0000 0.0000 0.0000 0.0000 39.9079
#
#
#
# Elastic Compliance Matrix: (Units=1/GPa)
#
#
# Indices 1 2 3 4 5 6 
#
# 1 -0.015399 0.022577 -0.002789 0.000000 0.000000 0.000000
# 2 0.022577 -0.015400 -0.002787 0.000000 0.000000 0.000000
# 3 -0.002789 -0.002787 0.011059 0.000000 0.000000 0.000000
# 4 0.000000 0.000000 0.000000 0.043588 0.000000 0.000000
# 5 0.000000 0.000000 0.000000 0.000000 0.043592 0.000000
# 6 0.000000 0.000000 0.000000 0.000000 0.000000 0.025058
#
#
# Mechanical properties :
#
#
# Convention : Reuss Voigt Hill
#
# Bulk Modulus (GPa) = 70.11412 70.40643 70.26027
# Shear Modulus (GPa) = 79.05385 21.97289 50.51337
#
# Velocity S-wave (km/s) = 6.20105 3.26924 4.95686
# Velocity P-wave (km/s) = 9.23987 6.96400 8.18146
#
# Compressibility (1/GPa) = 0.01426246
#
# Stress axis : x y z
#
# Youngs Moduli (GPa) = -64.93773 -64.93396 90.42114
#
# Poissons Ratio (x) = 1.46602 0.25215
# Poissons Ratio (y) = 1.46610 0.25200
# Poissons Ratio (z) = -0.18109 -0.18097
#
# Static dielectric constant tensor:
#      x y z
#    x 1.795290 0.000000 0.000000 
#    y 0.000000 1.795290 0.000000 
#    z 0.000000 0.000000 1.848650 
# 
# From -- ./inp_files/380.got.cif
#   From: 2010.05.17/outbox.cif.g08.bks.cpg/sg92_1_cif.got.tgz:380.got - 2010.06.03 19:35:17.
