data_PCOD9549094
_publ_section_title
;
Structure prediction by ZEFSAII (Michael W. Deem and Ramdas Pophale) SiO2 
 PCOD9549094
Probable space group: P 41 21 2
;
_chemical_formula_sum "Si O2"
_cell_formula_units_Z 40
_cell_length_a 14.821436
_cell_length_b 14.821436
_cell_length_c 8.965792
_cell_angle_alpha 90.000000
_cell_angle_beta 90.000000
_cell_angle_gamma 90.000000
_cell_volume 1969.560045
_symmetry_space_group_name_H-M "P 41 21 2"
_symmetry_group_IT_number 92
_symmetry_cell_setting 'tetragonal'
loop_
_space_group_symop_operation_xyz
x,y,z
1/2-y,1/2+x,1/4+z
-x,-y,1/2+z
1/2+y,1/2-x,3/4+z
1/2+x,1/2-y,3/4-z
1/2-x,1/2+y,1/4-z
y,x,-z
-y,-x,1/2-z
loop_
_atom_site_type_symbol
_atom_site_label
_atom_site_fract_x
_atom_site_fract_y
_atom_site_fract_z
Si Si1 0.978969 0.096752 0.610424
Si Si2 0.768736 0.120365 0.527064
Si Si3 0.256563 0.256563 0.500000
Si Si4 0.219202 0.219202 0.000000
Si Si5 0.493600 0.894026 0.344540
Si Si6 0.254993 0.095616 0.267734
O O1 0.970132 0.029869 0.750000
O O2 0.875558 0.105891 0.553590
O O3 0.013863 0.194049 0.669834
O O4 0.051109 0.051109 0.500000
O O5 0.758242 0.160446 0.362802
O O6 0.728671 0.192031 0.646866
O O7 0.701032 0.037568 0.545892
O O8 0.256727 0.168663 0.397768
O O9 0.211839 0.139545 0.119522
O O10 0.455374 0.941400 0.196909
O O11 0.421691 0.857583 0.465590
#
# Coordination Sequence:
#
# PCOD9549094 Si02
#       6
#     8   8   4   4   8   8
#     4  12  26  44  68 105 138 179 234 297 344 426
#     4  11  23  49  67 100 140 187 226 285 365 416
#     4  10  26  44  72  98 136 186 228 280 348 432
#     4  10  20  44  76  94 136 188 226 264 376 420
#     4  12  27  47  71 103 137 187 240 296 344 416
#     4  11  23  46  70 102 137 180 229 290 348 420
#
# _framework density 20.309104999999999
#
# number of rings (size 3 to 8) (size 9 to 14) (size 15 to 20)
#    0.000    0.800    6.000    0.000    8.400    0.000 
#    3.600    0.000    0.000    0.000    0.000    0.000 
#    0.000    0.000    0.000    0.000    0.000    0.000 
#
# Total GULP energy -223152.416840 kJ/mol
# GULP energy per Si atom -5578.810421 kJ/mol
# Density = 2.026288 g / cm^3
# Si number density = 20.309105 Si / 1000 Ang^3
#
#
#
# Elastic Constant Matrix: (Units=GPa)
#
#
# Indices 1 2 3 4 5 6 
#
# 1 756.2328 -639.2745 37.6447 0.0000 0.0000 0.0000
# 2 -639.2745 756.0724 37.5389 0.0000 0.0000 0.0000
# 3 37.6447 37.5389 122.9321 0.0000 0.0000 0.0000
# 4 0.0000 0.0000 0.0000 23.6668 0.0000 0.0000
# 5 0.0000 0.0000 0.0000 0.0000 23.6664 0.0000
# 6 0.0000 0.0000 0.0000 0.0000 0.0000 34.6317
#
#
#
# Elastic Compliance Matrix: (Units=1/GPa)
#
#
# Indices 1 2 3 4 5 6 
#
# 1 0.005683 0.004967 -0.003257 0.000000 0.000000 0.000000
# 2 0.004967 0.005684 -0.003257 0.000000 0.000000 0.000000
# 3 -0.003257 -0.003257 0.010127 0.000000 0.000000 0.000000
# 4 0.000000 0.000000 0.000000 0.042253 0.000000 0.000000
# 5 0.000000 0.000000 0.000000 0.000000 0.042254 0.000000
# 6 0.000000 0.000000 0.000000 0.000000 0.000000 0.028875
#
#
# Mechanical properties :
#
#
# Convention : Reuss Voigt Hill
#
# Bulk Modulus (GPa) = 54.34622 56.33949 55.34285
# Shear Modulus (GPa) = 34.69718 163.01486 98.85602
#
# Velocity S-wave (km/s) = 4.13783 8.96890 6.98437
# Velocity P-wave (km/s) = 7.04602 11.62136 9.60996
#
# Compressibility (1/GPa) = 0.01840055
#
# Stress axis : x y z
#
# Youngs Moduli (GPa) = 175.94886 175.92626 98.75063
#
# Poissons Ratio (x) = -0.87386 0.32165
# Poissons Ratio (y) = -0.87397 0.32161
# Poissons Ratio (z) = 0.57310 0.57296
#
# Static dielectric constant tensor:
#      x y z
#    x 1.768490 0.000000 0.000000 
#    y 0.000000 1.768490 0.000000 
#    z 0.000000 0.000000 1.924050 
# 
# From -- ./inp_files/1370.got.cif
#   From: 2010.05.17/outbox.cif.g08.bks.cpg/sg92_1_cif.got.tgz:1370.got - 2010.06.03 19:35:17.
