data_PCOD9549700
_publ_section_title
;
Structure prediction by ZEFSAII (Michael W. Deem and Ramdas Pophale) SiO2 
 PCOD9549700
Probable space group: P 42 2 2
;
_chemical_formula_sum "Si O2"
_cell_formula_units_Z 28
_cell_length_a 7.833909
_cell_length_b 7.833909
_cell_length_c 19.928972
_cell_angle_alpha 90.000000
_cell_angle_beta 90.000000
_cell_angle_gamma 90.000000
_cell_volume 1223.043607
_symmetry_space_group_name_H-M "P 42 2 2"
_symmetry_group_IT_number 93
_symmetry_cell_setting 'tetragonal'
loop_
_space_group_symop_operation_xyz
x,y,z
-y,x,1/2+z
-x,-y,z
y,-x,1/2+z
x,-y,-z
-x,y,-z
y,x,1/2-z
-y,-x,1/2-z
loop_
_atom_site_type_symbol
_atom_site_label
_atom_site_fract_x
_atom_site_fract_y
_atom_site_fract_z
Si Si1 0.301341 0.553101 0.075646
Si Si2 0.955636 0.687629 0.577261
Si Si3 0.371447 0.864552 0.290228
Si Si4 0.000000 0.000000 0.664355
O O1 0.500000 0.500000 0.081330
O O2 0.293714 0.755246 0.078759
O O3 0.194189 0.519020 0.143534
O O4 0.242539 0.500000 0.000000
O O5 0.000000 0.500000 0.600914
O O6 0.000000 0.703496 0.500000
O O7 0.039195 0.834759 0.619875
O O8 0.304454 0.695547 0.250000
O O9 0.500000 0.000000 0.255625
O O10 0.187008 0.957671 0.303663
#
# Coordination Sequence:
#
# PCOD9549700 Si02
#       4
#     8   8   8   4
#     4  10  22  41  68 108 143 183 244 306 367 446
#     4  10  20  35  65 100 147 188 228 296 370 430
#     4  11  27  49  73 105 147 200 251 312 378 457
#     4  10  24  44  68 102 140 191 251 300 358 447
#
# _framework density 22.893706000000002
#
# number of rings (size 3 to 8) (size 9 to 14) (size 15 to 20)
#    0.000    1.714    0.000    4.286    8.000    5.714 
#    5.143    0.000    0.000    0.000    0.000    0.000 
#    0.000    0.000    0.000    0.000    0.000    0.000 
#
# Total GULP energy -156019.915637 kJ/mol
# GULP energy per Si atom -5572.139844 kJ/mol
# Density = 2.284160 g / cm^3
# Si number density = 22.893706 Si / 1000 Ang^3
#
#
#
# Elastic Constant Matrix: (Units=GPa)
#
#
# Indices 1 2 3 4 5 6 
#
# 1 75.0544 29.0770 47.5370 0.0000 0.0000 0.0000
# 2 29.0770 75.0551 47.5369 0.0000 0.0000 0.0000
# 3 47.5370 47.5369 110.7002 0.0000 0.0000 0.0000
# 4 0.0000 0.0000 0.0000 15.0485 0.0000 0.0000
# 5 0.0000 0.0000 0.0000 0.0000 15.0471 0.0000
# 6 0.0000 0.0000 0.0000 0.0000 0.0000 52.1529
#
#
#
# Elastic Compliance Matrix: (Units=1/GPa)
#
#
# Indices 1 2 3 4 5 6 
#
# 1 0.018773 -0.002977 -0.006783 0.000000 0.000000 0.000000
# 2 -0.002977 0.018773 -0.006783 0.000000 0.000000 0.000000
# 3 -0.006783 -0.006783 0.014859 0.000000 0.000000 0.000000
# 4 0.000000 0.000000 0.000000 0.066452 0.000000 0.000000
# 5 0.000000 0.000000 0.000000 0.000000 0.066458 0.000000
# 6 0.000000 0.000000 0.000000 0.000000 0.000000 0.019174
#
#
# Mechanical properties :
#
#
# Convention : Reuss Voigt Hill
#
# Bulk Modulus (GPa) = 51.76289 56.56796 54.16542
# Shear Modulus (GPa) = 20.49050 25.56029 23.02539
#
# Velocity S-wave (km/s) = 2.99495 3.34500 3.17480
# Velocity P-wave (km/s) = 5.88377 6.29931 6.09508
#
# Compressibility (1/GPa) = 0.01931886
#
# Stress axis : x y z
#
# Youngs Moduli (GPa) = 53.26739 53.26809 67.29825
#
# Poissons Ratio (x) = 0.15856 0.45651
# Poissons Ratio (y) = 0.15855 0.45650
# Poissons Ratio (z) = 0.36133 0.36133
#
# Static dielectric constant tensor:
#      x y z
#    x 1.864730 0.000000 0.000000 
#    y 0.000000 1.864730 0.000000 
#    z 0.000000 0.000000 1.395270 
# 
# From -- ./inp_files/5770.got.cif
#   From: 2010.05.17/outbox.cif.g08.bks.cpg/sg93_3_cif.got.tgz:5770.got - 2010.06.03 19:38:44.
