data_PCOD9549546
_publ_section_title
;
Structure prediction by ZEFSAII (Michael W. Deem and Ramdas Pophale) SiO2 
 PCOD9549546
Probable space group: P 41 21 2
;
_chemical_formula_sum "Si O2"
_cell_formula_units_Z 16
_cell_length_a 9.704239
_cell_length_b 9.704239
_cell_length_c 5.608802
_cell_angle_alpha 90.000000
_cell_angle_beta 90.000000
_cell_angle_gamma 90.000000
_cell_volume 528.193530
_symmetry_space_group_name_H-M "P 41 21 2"
_symmetry_group_IT_number 92
_symmetry_cell_setting 'tetragonal'
loop_
_space_group_symop_operation_xyz
x,y,z
1/2-y,1/2+x,1/4+z
-x,-y,1/2+z
1/2+y,1/2-x,3/4+z
1/2+x,1/2-y,3/4-z
1/2-x,1/2+y,1/4-z
y,x,-z
-y,-x,1/2-z
loop_
_atom_site_type_symbol
_atom_site_label
_atom_site_fract_x
_atom_site_fract_y
_atom_site_fract_z
Si Si1 0.543876 0.661613 0.254077
Si Si2 0.111236 0.341065 0.499458
O O1 0.603143 0.603143 0.500000
O O2 0.384993 0.615008 0.250000
O O3 0.583929 0.818678 0.227553
O O4 0.599840 0.599840 0.000000
O O5 0.154160 0.447817 0.708303
O O6 0.192528 0.192528 0.500000
#
# Coordination Sequence:
#
# PCOD9549546 Si02
#       2
#     8   8
#     4   9  20  41  72 110 154 209 270 333 406 486
#     4  11  28  51  79 120 168 219 283 351 422 506
#
# _framework density 30.291927999999999
#
# number of rings (size 3 to 8) (size 9 to 14) (size 15 to 20)
#    0.000    2.000    0.000    0.000    0.000   30.000 
#    0.000    0.000    0.000    0.000    0.000    0.000 
#    0.000    0.000    0.000    0.000    0.000    0.000 
#
# Total GULP energy -89326.491729 kJ/mol
# GULP energy per Si atom -5582.905733 kJ/mol
# Density = 3.022298 g / cm^3
# Si number density = 30.291928 Si / 1000 Ang^3
#
#
#
# Elastic Constant Matrix: (Units=GPa)
#
#
# Indices 1 2 3 4 5 6 
#
# 1 103.6856 73.6326 78.9070 0.0000 0.0000 0.0000
# 2 73.6326 103.6835 78.9056 0.0000 0.0000 0.0000
# 3 78.9070 78.9056 215.4041 0.0000 0.0000 0.0000
# 4 0.0000 0.0000 0.0000 56.8504 0.0000 0.0000
# 5 0.0000 0.0000 0.0000 0.0000 56.8515 0.0000
# 6 0.0000 0.0000 0.0000 0.0000 0.0000 62.3143
#
#
#
# Elastic Compliance Matrix: (Units=1/GPa)
#
#
# Indices 1 2 3 4 5 6 
#
# 1 0.020822 -0.012454 -0.003065 0.000000 0.000000 0.000000
# 2 -0.012454 0.020822 -0.003065 0.000000 0.000000 0.000000
# 3 -0.003065 -0.003065 0.006888 0.000000 0.000000 0.000000
# 4 0.000000 0.000000 0.000000 0.017590 0.000000 0.000000
# 5 0.000000 0.000000 0.000000 0.000000 0.017590 0.000000
# 6 0.000000 0.000000 0.000000 0.000000 0.000000 0.016048
#
#
# Mechanical properties :
#
#
# Convention : Reuss Voigt Hill
#
# Bulk Modulus (GPa) = 88.00826 98.40707 93.20767
# Shear Modulus (GPa) = 35.53273 47.95844 41.74559
#
# Velocity S-wave (km/s) = 3.42864 3.98327 3.71632
# Velocity P-wave (km/s) = 6.69257 7.32885 7.01793
#
# Compressibility (1/GPa) = 0.01136257
#
# Stress axis : x y z
#
# Youngs Moduli (GPa) = 48.02722 48.02651 145.17733
#
# Poissons Ratio (x) = 0.59812 0.44501
# Poissons Ratio (y) = 0.59813 0.44499
# Poissons Ratio (z) = 0.14722 0.14721
#
# Static dielectric constant tensor:
#      x y z
#    x 2.440890 0.000000 0.000000 
#    y 0.000000 2.440900 0.000000 
#    z 0.000000 0.000000 2.302730 
# 
# From -- ./inp_files/43.got.cif
#   From: 2010.05.17/outbox.cif.g08.bks.cpg/sg92_1_cif.got.tgz:43.got - 2010.06.03 19:35:17.
