data_PCOD9549566
_publ_section_title
;
Structure prediction by ZEFSAII (Michael W. Deem and Ramdas Pophale) SiO2 
 PCOD9549566
Probable space group: P 41 21 2
;
_chemical_formula_sum "Si O2"
_cell_formula_units_Z 32
_cell_length_a 7.923211
_cell_length_b 7.923211
_cell_length_c 22.076800
_cell_angle_alpha 90.000000
_cell_angle_beta 90.000000
_cell_angle_gamma 90.000000
_cell_volume 1385.921291
_symmetry_space_group_name_H-M "P 41 21 2"
_symmetry_group_IT_number 92
_symmetry_cell_setting 'tetragonal'
loop_
_space_group_symop_operation_xyz
x,y,z
1/2-y,1/2+x,1/4+z
-x,-y,1/2+z
1/2+y,1/2-x,3/4+z
1/2+x,1/2-y,3/4-z
1/2-x,1/2+y,1/4-z
y,x,-z
-y,-x,1/2-z
loop_
_atom_site_type_symbol
_atom_site_label
_atom_site_fract_x
_atom_site_fract_y
_atom_site_fract_z
Si Si1 0.868876 0.620177 0.158305
Si Si2 0.544991 0.427282 0.179925
Si Si3 0.123680 0.679814 0.392119
Si Si4 0.693806 0.457561 0.530667
O O1 0.675000 0.563789 0.152982
O O2 0.919040 0.759492 0.108913
O O3 0.897757 0.690684 0.225697
O O4 0.003528 0.470634 0.150462
O O5 0.592004 0.407997 0.250000
O O6 0.344879 0.459378 0.174595
O O7 0.304604 0.669652 0.423257
O O8 0.108701 0.727763 0.321066
O O9 0.523660 0.523660 0.500000
#
# Coordination Sequence:
#
# PCOD9549566 Si02
#       4
#     8   8   8   8
#     4  12  28  48  79 114 157 206 268 330 398 485
#     4  12  27  51  75 116 153 209 266 328 405 472
#     4  12  26  50  78 111 157 206 256 328 393 478
#     4  12  25  51  76 115 155 206 261 323 406 474
#
# _framework density 23.089331000000001
#
# number of rings (size 3 to 8) (size 9 to 14) (size 15 to 20)
#    0.000    0.000    7.500    0.000    3.500    8.000 
#    0.000    0.000    0.000    0.000    0.000    0.000 
#    0.000    0.000    0.000    0.000    0.000    0.000 
#
# Total GULP energy -179133.695937 kJ/mol
# GULP energy per Si atom -5597.927998 kJ/mol
# Density = 2.303678 g / cm^3
# Si number density = 23.089331 Si / 1000 Ang^3
#
#
#
# Elastic Constant Matrix: (Units=GPa)
#
#
# Indices 1 2 3 4 5 6 
#
# 1 79.6087 22.1739 31.5294 0.0000 0.0000 0.0000
# 2 22.1739 79.6088 31.5293 0.0000 0.0000 0.0000
# 3 31.5294 31.5293 137.4029 0.0000 0.0000 0.0000
# 4 0.0000 0.0000 0.0000 27.5037 0.0000 0.0000
# 5 0.0000 0.0000 0.0000 0.0000 27.5035 0.0000
# 6 0.0000 0.0000 0.0000 0.0000 0.0000 29.4176
#
#
#
# Elastic Compliance Matrix: (Units=1/GPa)
#
#
# Indices 1 2 3 4 5 6 
#
# 1 0.014432 -0.002979 -0.002628 0.000000 0.000000 0.000000
# 2 -0.002979 0.014432 -0.002628 0.000000 0.000000 0.000000
# 3 -0.002628 -0.002628 0.008484 0.000000 0.000000 0.000000
# 4 0.000000 0.000000 0.000000 0.036359 0.000000 0.000000
# 5 0.000000 0.000000 0.000000 0.000000 0.036359 0.000000
# 6 0.000000 0.000000 0.000000 0.000000 0.000000 0.033993
#
#
# Mechanical properties :
#
#
# Convention : Reuss Voigt Hill
#
# Bulk Modulus (GPa) = 47.89788 51.89840 49.89814
# Shear Modulus (GPa) = 29.85275 30.97747 30.41511
#
# Velocity S-wave (km/s) = 3.59963 3.66681 3.63337
# Velocity P-wave (km/s) = 6.16977 6.36029 6.26575
#
# Compressibility (1/GPa) = 0.02087775
#
# Stress axis : x y z
#
# Youngs Moduli (GPa) = 69.29019 69.29029 117.86915
#
# Poissons Ratio (x) = 0.20641 0.30977
# Poissons Ratio (y) = 0.20641 0.30977
# Poissons Ratio (z) = 0.18210 0.18210
#
# Static dielectric constant tensor:
#      x y z
#    x 1.884540 0.000000 0.000000 
#    y 0.000000 1.884540 0.000000 
#    z 0.000000 0.000000 1.830380 
# 
# From -- ./inp_files/3695.got.cif
#   From: 2010.05.17/outbox.cif.g08.bks.cpg/sg92_2_cif.got.tgz:3695.got - 2010.06.03 19:35:17.
