data_PCOD9549090
_publ_section_title
;
Structure prediction by ZEFSAII (Michael W. Deem and Ramdas Pophale) SiO2 
 PCOD9549090
Probable space group: P 41 21 2
;
_chemical_formula_sum "Si O2"
_cell_formula_units_Z 28
_cell_length_a 7.516277
_cell_length_b 7.516277
_cell_length_c 20.830403
_cell_angle_alpha 90.000000
_cell_angle_beta 90.000000
_cell_angle_gamma 90.000000
_cell_volume 1176.801535
_symmetry_space_group_name_H-M "P 41 21 2"
_symmetry_group_IT_number 92
_symmetry_cell_setting 'tetragonal'
loop_
_space_group_symop_operation_xyz
x,y,z
1/2-y,1/2+x,1/4+z
-x,-y,1/2+z
1/2+y,1/2-x,3/4+z
1/2+x,1/2-y,3/4-z
1/2-x,1/2+y,1/4-z
y,x,-z
-y,-x,1/2-z
loop_
_atom_site_type_symbol
_atom_site_label
_atom_site_fract_x
_atom_site_fract_y
_atom_site_fract_z
Si Si1 0.169033 0.347217 0.922001
Si Si2 0.922670 0.593078 0.286667
Si Si3 0.084818 0.053702 0.837746
Si Si4 0.236561 0.763440 0.750000
O O1 0.057815 0.436892 0.863249
O O2 0.408292 0.101751 0.009496
O O3 0.147753 0.139334 0.904530
O O4 0.371270 0.418799 0.914575
O O5 0.844104 0.793721 0.287903
O O6 0.799436 0.442894 0.258273
O O7 0.155647 0.869251 0.811460
#
# Coordination Sequence:
#
# PCOD9549090 Si02
#       4
#     8   8   8   4
#     4  10  20  43  65  98 133 181 225 287 338 423
#     4  10  24  39  68  98 133 175 239 267 357 408
#     4  10  21  42  67  90 141 174 226 283 349 403
#     4  12  22  44  66  96 142 180 214 312 326 422
#
# _framework density 23.793305
#
# number of rings (size 3 to 8) (size 9 to 14) (size 15 to 20)
#    1.714    0.000    2.857    1.714    0.000    2.286 
#    0.000    2.857    0.000    0.000    0.000    0.000 
#    0.000    0.000    0.000    0.000    0.000    0.000 
#
# Total GULP energy -156004.585017 kJ/mol
# GULP energy per Si atom -5571.592322 kJ/mol
# Density = 2.373915 g / cm^3
# Si number density = 23.793305 Si / 1000 Ang^3
#
#
#
# Elastic Constant Matrix: (Units=GPa)
#
#
# Indices 1 2 3 4 5 6 
#
# 1 56.1379 42.4627 20.7947 0.0000 0.0000 0.0000
# 2 42.4627 56.1369 20.7945 0.0000 0.0000 0.0000
# 3 20.7947 20.7945 122.1207 0.0000 0.0000 0.0000
# 4 0.0000 0.0000 0.0000 28.4204 0.0000 0.0000
# 5 0.0000 0.0000 0.0000 0.0000 28.4201 0.0000
# 6 0.0000 0.0000 0.0000 0.0000 0.0000 22.0552
#
#
#
# Elastic Compliance Matrix: (Units=1/GPa)
#
#
# Indices 1 2 3 4 5 6 
#
# 1 0.042027 -0.031100 -0.001861 0.000000 0.000000 0.000000
# 2 -0.031100 0.042028 -0.001861 0.000000 0.000000 0.000000
# 3 -0.001861 -0.001861 0.008822 0.000000 0.000000 0.000000
# 4 0.000000 0.000000 0.000000 0.035186 0.000000 0.000000
# 5 0.000000 0.000000 0.000000 0.000000 0.035186 0.000000
# 6 0.000000 0.000000 0.000000 0.000000 0.000000 0.045341
#
#
# Mechanical properties :
#
#
# Convention : Reuss Voigt Hill
#
# Bulk Modulus (GPa) = 43.04148 44.72215 43.88181
# Shear Modulus (GPa) = 17.48388 25.80204 21.64296
#
# Velocity S-wave (km/s) = 2.71370 3.29663 3.01927
# Velocity P-wave (km/s) = 5.28658 5.77298 5.53513
#
# Compressibility (1/GPa) = 0.02323340
#
# Stress axis : x y z
#
# Youngs Moduli (GPa) = 23.79432 23.79390 113.34957
#
# Poissons Ratio (x) = 0.74000 0.21090
# Poissons Ratio (y) = 0.74001 0.21090
# Poissons Ratio (z) = 0.04427 0.04427
#
# Static dielectric constant tensor:
#      x y z
#    x 1.929030 0.000000 0.000000 
#    y 0.000000 1.929030 0.000000 
#    z 0.000000 0.000000 1.946950 
# 
# From -- ./inp_files/3299.got.cif
#   From: 2010.05.17/outbox.cif.g08.bks.cpg/sg92_2_cif.got.tgz:3299.got - 2010.06.03 19:35:17.
