data_PCOD9549803
_publ_section_title
;
Structure prediction by ZEFSAII (Michael W. Deem and Ramdas Pophale) SiO2 
 PCOD9549803
Probable space group: P 42 2 2
;
_chemical_formula_sum "Si O2"
_cell_formula_units_Z 38
_cell_length_a 9.180866
_cell_length_b 9.180866
_cell_length_c 21.746818
_cell_angle_alpha 90.000000
_cell_angle_beta 90.000000
_cell_angle_gamma 90.000000
_cell_volume 1833.002331
_symmetry_space_group_name_H-M "P 42 2 2"
_symmetry_group_IT_number 93
_symmetry_cell_setting 'tetragonal'
loop_
_space_group_symop_operation_xyz
x,y,z
-y,x,1/2+z
-x,-y,z
y,-x,1/2+z
x,-y,-z
-x,y,-z
y,x,1/2-z
-y,-x,1/2-z
loop_
_atom_site_type_symbol
_atom_site_label
_atom_site_fract_x
_atom_site_fract_y
_atom_site_fract_z
Si Si1 0.825574 0.704441 0.371922
Si Si2 0.149909 0.812006 0.399172
Si Si3 0.000000 0.000000 0.000000
Si Si4 0.020956 0.336117 0.182436
Si Si5 0.500000 0.000000 0.197014
Si Si6 0.672345 0.337766 0.001340
O O1 0.732475 0.819780 0.331631
O O2 0.754324 0.708971 0.439756
O O3 0.994612 0.750921 0.378377
O O4 0.855871 0.544658 0.341834
O O5 0.258964 0.706116 0.434500
O O6 0.105456 0.915435 0.455163
O O7 0.228967 0.903992 0.347098
O O8 0.988860 0.366213 0.254240
O O9 0.000000 0.500000 0.154867
O O10 0.739362 0.500000 0.000000
O O11 0.500000 0.351445 0.000000
#
# Coordination Sequence:
#
# PCOD9549803 Si02
#       6
#     8   8   2   8   4   8
#     4  12  21  42  66  94 135 172 231 291 346 419
#     4  12  21  39  67  99 134 169 223 288 353 409
#     4  12  20  36  60 106 124 160 206 278 362 396
#     4  10  23  41  63  95 132 175 227 281 347 422
#     4  10  26  40  63  93 130 186 226 282 350 416
#     4  11  24  40  64  99 136 181 223 277 352 429
#
# _framework density 20.731016
#
# number of rings (size 3 to 8) (size 9 to 14) (size 15 to 20)
#    0.632    0.211    4.211    3.158    0.000    1.684 
#    0.000    4.211    0.000    0.000    5.474    0.000 
#    0.000    0.000    0.000    0.000    0.000    0.000 
#
# Total GULP energy -211705.980362 kJ/mol
# GULP energy per Si atom -5571.210010 kJ/mol
# Density = 2.068383 g / cm^3
# Si number density = 20.731016 Si / 1000 Ang^3
#
#
#
# Elastic Constant Matrix: (Units=GPa)
#
#
# Indices 1 2 3 4 5 6 
#
# 1 106.2442 40.8826 41.9959 0.0000 0.0000 0.0000
# 2 40.8826 106.2442 41.9959 0.0000 0.0000 0.0000
# 3 41.9959 41.9959 125.7233 0.0000 0.0000 0.0000
# 4 0.0000 0.0000 0.0000 48.5804 0.0000 0.0000
# 5 0.0000 0.0000 0.0000 0.0000 48.5804 0.0000
# 6 0.0000 0.0000 0.0000 0.0000 0.0000 40.7350
#
#
#
# Elastic Compliance Matrix: (Units=1/GPa)
#
#
# Indices 1 2 3 4 5 6 
#
# 1 0.011849 -0.003451 -0.002805 0.000000 0.000000 0.000000
# 2 -0.003451 0.011849 -0.002805 0.000000 0.000000 0.000000
# 3 -0.002805 -0.002805 0.009828 0.000000 0.000000 0.000000
# 4 0.000000 0.000000 0.000000 0.020584 0.000000 0.000000
# 5 0.000000 0.000000 0.000000 0.000000 0.020584 0.000000
# 6 0.000000 0.000000 0.000000 0.000000 0.000000 0.024549
#
#
# Mechanical properties :
#
#
# Convention : Reuss Voigt Hill
#
# Bulk Modulus (GPa) = 64.92032 65.32898 65.12465
# Shear Modulus (GPa) = 40.81607 41.80167 41.30887
#
# Velocity S-wave (km/s) = 4.44198 4.49529 4.46871
# Velocity P-wave (km/s) = 7.59551 7.65013 7.62287
#
# Compressibility (1/GPa) = 0.01540350
#
# Stress axis : x y z
#
# Youngs Moduli (GPa) = 84.39576 84.39576 101.74866
#
# Poissons Ratio (x) = 0.29121 0.28544
# Poissons Ratio (y) = 0.29121 0.28544
# Poissons Ratio (z) = 0.23676 0.23676
#
# Static dielectric constant tensor:
#      x y z
#    x 1.853170 0.000000 0.000000 
#    y 0.000000 1.853170 0.000000 
#    z 0.000000 0.000000 1.772300 
# 
# From -- ./inp_files/6794.got.cif
#   From: 2010.05.17/outbox.cif.g08.bks.cpg/sg93_4_cif.got.tgz:6794.got - 2010.06.03 19:38:44.
