data_PCOD9549403
_publ_section_title
;
Structure prediction by ZEFSAII (Michael W. Deem and Ramdas Pophale) SiO2 
 PCOD9549403
Probable space group: P 41 21 2
;
_chemical_formula_sum "Si O2"
_cell_formula_units_Z 24
_cell_length_a 9.796965
_cell_length_b 9.796965
_cell_length_c 9.901673
_cell_angle_alpha 90.000000
_cell_angle_beta 90.000000
_cell_angle_gamma 90.000000
_cell_volume 950.367755
_symmetry_space_group_name_H-M "P 41 21 2"
_symmetry_group_IT_number 92
_symmetry_cell_setting 'tetragonal'
loop_
_space_group_symop_operation_xyz
x,y,z
1/2-y,1/2+x,1/4+z
-x,-y,1/2+z
1/2+y,1/2-x,3/4+z
1/2+x,1/2-y,3/4-z
1/2-x,1/2+y,1/4-z
y,x,-z
-y,-x,1/2-z
loop_
_atom_site_type_symbol
_atom_site_label
_atom_site_fract_x
_atom_site_fract_y
_atom_site_fract_z
Si Si1 0.478131 0.762329 0.110968
Si Si2 0.054629 0.265063 0.434523
Si Si3 0.146839 0.832168 0.395770
O O1 0.585341 0.887845 0.097017
O O2 0.532078 0.678696 0.238953
O O3 0.322929 0.807672 0.130618
O O4 0.483195 0.701398 0.960210
O O5 0.174726 0.174726 0.500000
O O6 0.926322 0.261535 0.534354
O O7 0.109220 0.890781 0.250000
#
# Coordination Sequence:
#
# PCOD9549403 Si02
#       3
#     8   8   8
#     4  10  24  48  73 105 150 196 251 309 372 451
#     4  11  24  46  77 109 153 206 249 309 381 454
#     4  11  26  44  72 110 148 194 249 310 376 449
#
# _framework density 25.253382999999999
#
# number of rings (size 3 to 8) (size 9 to 14) (size 15 to 20)
#    0.000    1.333    0.000    5.000    0.000   22.667 
#    0.000    0.000    0.000    0.000    0.000    0.000 
#    0.000    0.000    0.000    0.000    0.000    0.000 
#
# Total GULP energy -134371.532481 kJ/mol
# GULP energy per Si atom -5598.813853 kJ/mol
# Density = 2.519591 g / cm^3
# Si number density = 25.253383 Si / 1000 Ang^3
#
#
#
# Elastic Constant Matrix: (Units=GPa)
#
#
# Indices 1 2 3 4 5 6 
#
# 1 100.3764 103.8956 53.5595 0.0000 0.0000 0.0000
# 2 103.8956 100.3760 53.5592 0.0000 0.0000 0.0000
# 3 53.5595 53.5592 246.4186 0.0000 0.0000 0.0000
# 4 0.0000 0.0000 0.0000 35.5456 0.0000 0.0000
# 5 0.0000 0.0000 0.0000 0.0000 35.5458 0.0000
# 6 0.0000 0.0000 0.0000 0.0000 0.0000 50.6117
#
#
#
# Elastic Compliance Matrix: (Units=1/GPa)
#
#
# Indices 1 2 3 4 5 6 
#
# 1 -0.139307 0.144832 -0.001201 0.000000 0.000000 0.000000
# 2 0.144832 -0.139307 -0.001201 0.000000 0.000000 0.000000
# 3 -0.001201 -0.001201 0.004580 0.000000 0.000000 0.000000
# 4 0.000000 0.000000 0.000000 0.028133 0.000000 0.000000
# 5 0.000000 0.000000 0.000000 0.000000 0.028133 0.000000
# 6 0.000000 0.000000 0.000000 0.000000 0.000000 0.019758
#
#
# Mechanical properties :
#
#
# Convention : Reuss Voigt Hill
#
# Bulk Modulus (GPa) = 92.36239 96.57775 94.47007
# Shear Modulus (GPa) = -10.43272 40.08439 14.82583
#
# Velocity S-wave (km/s) = -2.03474 3.98840 2.42561
# Velocity P-wave (km/s) = 5.57973 7.71598 6.73312
#
# Compressibility (1/GPa) = 0.01082692
#
# Stress axis : x y z
#
# Youngs Moduli (GPa) = -7.17840 -7.17838 218.33243
#
# Poissons Ratio (x) = 1.03966 0.26217
# Poissons Ratio (y) = 1.03966 0.26222
# Poissons Ratio (z) = -0.00862 -0.00862
#
# Static dielectric constant tensor:
#      x y z
#    x 2.035440 0.000000 0.000000 
#    y 0.000000 2.035440 0.000000 
#    z 0.000000 0.000000 2.025360 
# 
# From -- ./inp_files/1014.got.cif
#   From: 2010.05.17/outbox.cif.g08.bks.cpg/sg92_1_cif.got.tgz:1014.got - 2010.06.03 19:35:17.
