data_PCOD9549562
_publ_section_title
;
Structure prediction by ZEFSAII (Michael W. Deem and Ramdas Pophale) SiO2 
 PCOD9549562
Probable space group: P 41 21 2
;
_chemical_formula_sum "Si O2"
_cell_formula_units_Z 24
_cell_length_a 12.670588
_cell_length_b 12.670588
_cell_length_c 6.619304
_cell_angle_alpha 90.000000
_cell_angle_beta 90.000000
_cell_angle_gamma 90.000000
_cell_volume 1062.688219
_symmetry_space_group_name_H-M "P 41 21 2"
_symmetry_group_IT_number 92
_symmetry_cell_setting 'tetragonal'
loop_
_space_group_symop_operation_xyz
x,y,z
1/2-y,1/2+x,1/4+z
-x,-y,1/2+z
1/2+y,1/2-x,3/4+z
1/2+x,1/2-y,3/4-z
1/2-x,1/2+y,1/4-z
y,x,-z
-y,-x,1/2-z
loop_
_atom_site_type_symbol
_atom_site_label
_atom_site_fract_x
_atom_site_fract_y
_atom_site_fract_z
Si Si1 0.899781 0.392267 0.683191
Si Si2 0.963893 0.806618 0.609444
Si Si3 0.124565 0.817865 0.946612
O O1 0.814267 0.428016 0.849751
O O2 0.871595 0.279973 0.590305
O O3 0.017428 0.390858 0.765560
O O4 0.930838 0.165201 0.978096
O O5 0.874366 0.874366 0.500000
O O6 0.169004 0.990120 0.665873
O O7 0.199833 0.800168 0.750000
#
# Coordination Sequence:
#
# PCOD9549562 Si02
#       3
#     8   8   8
#     4  12  25  38  66  93 132 165 206 263 322 385
#     4   9  22  42  68  90 126 164 214 261 313 382
#     4   8  23  44  59  93 126 163 213 262 306 380
#
# _framework density 22.584233000000001
#
# number of rings (size 3 to 8) (size 9 to 14) (size 15 to 20)
#    2.000    0.000    0.000    2.000    4.667    8.000 
#    0.000    0.000    0.000    0.000    0.000    0.000 
#    0.000    0.000    0.000    0.000    0.000    0.000 
#
# Total GULP energy -133715.699914 kJ/mol
# GULP energy per Si atom -5571.487496 kJ/mol
# Density = 2.253283 g / cm^3
# Si number density = 22.584233 Si / 1000 Ang^3
#
#
#
# Elastic Constant Matrix: (Units=GPa)
#
#
# Indices 1 2 3 4 5 6 
#
# 1 70.2278 20.0856 8.7857 0.0000 0.0000 0.0000
# 2 20.0856 70.2284 8.7857 0.0000 0.0000 0.0000
# 3 8.7857 8.7857 34.5435 0.0000 0.0000 0.0000
# 4 0.0000 0.0000 0.0000 29.3331 0.0000 0.0000
# 5 0.0000 0.0000 0.0000 0.0000 29.3331 0.0000
# 6 0.0000 0.0000 0.0000 0.0000 0.0000 24.0725
#
#
#
# Elastic Compliance Matrix: (Units=1/GPa)
#
#
# Indices 1 2 3 4 5 6 
#
# 1 0.015796 -0.004147 -0.002963 0.000000 0.000000 0.000000
# 2 -0.004147 0.015796 -0.002963 0.000000 0.000000 0.000000
# 3 -0.002963 -0.002963 0.030456 0.000000 0.000000 0.000000
# 4 0.000000 0.000000 0.000000 0.034091 0.000000 0.000000
# 5 0.000000 0.000000 0.000000 0.000000 0.034091 0.000000
# 6 0.000000 0.000000 0.000000 0.000000 0.000000 0.041541
#
#
# Mechanical properties :
#
#
# Convention : Reuss Voigt Hill
#
# Bulk Modulus (GPa) = 23.86468 27.81264 25.83866
# Shear Modulus (GPa) = 24.28543 25.70391 24.99467
#
# Velocity S-wave (km/s) = 3.28277 3.37729 3.33037
# Velocity P-wave (km/s) = 4.99587 5.24880 5.12390
#
# Compressibility (1/GPa) = 0.04190293
#
# Stress axis : x y z
#
# Youngs Moduli (GPa) = 63.30662 63.30721 32.83410
#
# Poissons Ratio (x) = 0.26254 0.09728
# Poissons Ratio (y) = 0.26254 0.09728
# Poissons Ratio (z) = 0.18756 0.18756
#
# Static dielectric constant tensor:
#      x y z
#    x 1.842090 0.000000 0.000000 
#    y 0.000000 1.842090 0.000000 
#    z 0.000000 0.000000 1.927330 
# 
# From -- ./inp_files/120.got.cif
#   From: 2010.05.17/outbox.cif.g08.bks.cpg/sg92_1_cif.got.tgz:120.got - 2010.06.03 19:35:17.
