data_PCOD9549311
_publ_section_title
;
Structure prediction by ZEFSAII (Michael W. Deem and Ramdas Pophale) SiO2 
 PCOD9549311
Probable space group: P 41 21 2
;
_chemical_formula_sum "Si O2"
_cell_formula_units_Z 36
_cell_length_a 11.295422
_cell_length_b 11.295422
_cell_length_c 12.173348
_cell_angle_alpha 90.000000
_cell_angle_beta 90.000000
_cell_angle_gamma 90.000000
_cell_volume 1553.155573
_symmetry_space_group_name_H-M "P 41 21 2"
_symmetry_group_IT_number 92
_symmetry_cell_setting 'tetragonal'
loop_
_space_group_symop_operation_xyz
x,y,z
1/2-y,1/2+x,1/4+z
-x,-y,1/2+z
1/2+y,1/2-x,3/4+z
1/2+x,1/2-y,3/4-z
1/2-x,1/2+y,1/4-z
y,x,-z
-y,-x,1/2-z
loop_
_atom_site_type_symbol
_atom_site_label
_atom_site_fract_x
_atom_site_fract_y
_atom_site_fract_z
Si Si1 0.175803 0.992707 0.682367
Si Si2 0.854823 0.668045 0.477656
Si Si3 0.473068 0.956193 0.929656
Si Si4 0.996052 0.996052 0.500000
Si Si5 0.805047 0.960557 0.694268
O O1 0.315815 0.008045 0.688412
O O2 0.121204 0.982545 0.561201
O O3 0.119059 0.113678 0.729663
O O4 0.117339 0.882662 0.750000
O O5 0.791084 0.791084 0.500000
O O6 0.754380 0.571157 0.496230
O O7 0.897412 0.688801 0.354620
O O8 0.968554 0.649605 0.556501
O O9 0.502526 0.978108 0.800161
O O10 0.893891 0.993546 0.593921
#
# Coordination Sequence:
#
# PCOD9549311 Si02
#       5
#     8   8   8   4   8
#     4  10  25  51  77 110 157 205 262 338 405 479
#     4  12  24  44  75 108 149 205 262 325 392 478
#     4  12  28  51  72 115 159 207 262 330 406 475
#     4  10  22  48  76 108 148 200 276 318 402 478
#     4  11  24  44  74 111 147 202 265 322 398 484
#
# _framework density 23.178619999999999
#
# number of rings (size 3 to 8) (size 9 to 14) (size 15 to 20)
#    0.000    0.889    3.333    3.333    3.111    3.556 
#    6.000    0.000    0.000    0.000    0.000    0.000 
#    0.000    0.000    0.000    0.000    0.000    0.000 
#
# Total GULP energy -200514.964125 kJ/mol
# GULP energy per Si atom -5569.860115 kJ/mol
# Density = 2.312586 g / cm^3
# Si number density = 23.178620 Si / 1000 Ang^3
#
#
#
# Elastic Constant Matrix: (Units=GPa)
#
#
# Indices 1 2 3 4 5 6 
#
# 1 87.8444 88.9078 60.4059 0.0000 0.0000 0.0000
# 2 88.9078 87.8457 60.4064 0.0000 0.0000 0.0000
# 3 60.4059 60.4064 133.1319 0.0000 0.0000 0.0000
# 4 0.0000 0.0000 0.0000 -12.6040 0.0000 0.0000
# 5 0.0000 0.0000 0.0000 0.0000 -12.6024 0.0000
# 6 0.0000 0.0000 0.0000 0.0000 0.0000 37.8028
#
#
#
# Elastic Compliance Matrix: (Units=1/GPa)
#
#
# Indices 1 2 3 4 5 6 
#
# 1 -0.466388 0.474586 -0.003722 0.000000 0.000000 0.000000
# 2 0.474586 -0.466383 -0.003720 0.000000 0.000000 0.000000
# 3 -0.003722 -0.003720 0.010888 0.000000 0.000000 0.000000
# 4 0.000000 0.000000 0.000000 -0.079340 0.000000 0.000000
# 5 0.000000 0.000000 0.000000 0.000000 -0.079350 0.000000
# 6 0.000000 0.000000 0.000000 0.000000 0.000000 0.026453
#
#
# Mechanical properties :
#
#
# Convention : Reuss Voigt Hill
#
# Bulk Modulus (GPa) = 80.60713 80.91802 80.76257
# Shear Modulus (GPa) = -2.51981 9.12607 3.30313
#
# Velocity S-wave (km/s) = -1.04379 1.98641 1.19506
# Velocity P-wave (km/s) = 5.77922 6.34409 6.06823
#
# Compressibility (1/GPa) = 0.01240585
#
# Stress axis : x y z
#
# Youngs Moduli (GPa) = -2.14414 -2.14416 91.84368
#
# Poissons Ratio (x) = 1.01759 0.34183
# Poissons Ratio (y) = 1.01758 0.34168
# Poissons Ratio (z) = -0.00798 -0.00798
#
# Static dielectric constant tensor:
#      x y z
#    x 2.255690 0.000000 0.000000 
#    y 0.000000 2.255710 0.000000 
#    z 0.000000 0.000000 1.873070 
# 
# From -- ./inp_files/1998.got.cif
#   From: 2010.05.17/outbox.cif.g08.bks.cpg/sg92_1_cif.got.tgz:1998.got - 2010.06.03 19:35:17.
