data_PCOD9549197
_publ_section_title
;
Structure prediction by ZEFSAII (Michael W. Deem and Ramdas Pophale) SiO2 
 PCOD9549197
Probable space group: P 41 21 2
;
_chemical_formula_sum "Si O2"
_cell_formula_units_Z 48
_cell_length_a 8.411619
_cell_length_b 8.411619
_cell_length_c 27.199356
_cell_angle_alpha 90.000000
_cell_angle_beta 90.000000
_cell_angle_gamma 90.000000
_cell_volume 1924.499524
_symmetry_space_group_name_H-M "P 41 21 2"
_symmetry_group_IT_number 92
_symmetry_cell_setting 'tetragonal'
loop_
_space_group_symop_operation_xyz
x,y,z
1/2-y,1/2+x,1/4+z
-x,-y,1/2+z
1/2+y,1/2-x,3/4+z
1/2+x,1/2-y,3/4-z
1/2-x,1/2+y,1/4-z
y,x,-z
-y,-x,1/2-z
loop_
_atom_site_type_symbol
_atom_site_label
_atom_site_fract_x
_atom_site_fract_y
_atom_site_fract_z
Si Si1 0.379268 0.531527 0.095541
Si Si2 0.061617 0.428877 0.242443
Si Si3 0.834771 0.539108 0.173285
Si Si4 0.085500 0.914501 0.750000
Si Si5 0.122077 0.122077 0.500000
Si Si6 0.786247 0.163704 0.928532
Si Si7 0.929821 0.292326 0.093801
O O1 0.491749 0.527182 0.048005
O O2 0.376162 0.372304 0.127397
O O3 0.207828 0.602167 0.079931
O O4 0.451509 0.667647 0.131305
O O5 0.175621 0.360191 0.200599
O O6 0.160474 0.479844 0.289260
O O7 0.966767 0.567147 0.214938
O O8 0.953236 0.273763 0.257569
O O9 0.728017 0.404965 0.200767
O O10 0.901857 0.448878 0.126071
O O11 0.734374 0.693190 0.160828
O O12 0.961107 0.169198 0.529223
#
# Coordination Sequence:
#
# PCOD9549197 Si02
#       7
#     8   8   8   4   4   8   8
#     4  11  24  46  72 103 144 191 232 309 352 440
#     4  11  24  45  69 104 145 184 241 294 359 434
#     4  12  26  43  76 101 142 192 231 306 353 435
#     4  10  21  46  67 100 144 182 239 300 351 424
#     4  12  25  44  69 106 140 186 233 294 359 424
#     4  11  23  47  68  99 147 184 233 291 365 417
#     4  12  25  46  69 108 143 183 247 296 362 430
#
# _framework density 24.941545999999999
#
# number of rings (size 3 to 8) (size 9 to 14) (size 15 to 20)
#    0.000    0.667    6.667    1.500    2.333    2.667 
#    0.000    0.833    0.000    0.000    0.000    0.000 
#    0.000    0.000    0.000    0.000    0.000    0.000 
#
# Total GULP energy -268486.545080 kJ/mol
# GULP energy per Si atom -5593.469689 kJ/mol
# Density = 2.488478 g / cm^3
# Si number density = 24.941546 Si / 1000 Ang^3
#
#
#
# Elastic Constant Matrix: (Units=GPa)
#
#
# Indices 1 2 3 4 5 6 
#
# 1 43.7373 7.0363 27.4488 0.0000 0.0000 0.0000
# 2 7.0363 43.7371 27.4490 0.0000 0.0000 0.0000
# 3 27.4488 27.4490 137.3737 0.0000 0.0000 0.0000
# 4 0.0000 0.0000 0.0000 43.1649 0.0000 0.0000
# 5 0.0000 0.0000 0.0000 0.0000 43.1650 0.0000
# 6 0.0000 0.0000 0.0000 0.0000 0.0000 42.9351
#
#
#
# Elastic Compliance Matrix: (Units=1/GPa)
#
#
# Indices 1 2 3 4 5 6 
#
# 1 0.026185 -0.001062 -0.005020 0.000000 0.000000 0.000000
# 2 -0.001062 0.026185 -0.005020 0.000000 0.000000 0.000000
# 3 -0.005020 -0.005020 0.009285 0.000000 0.000000 0.000000
# 4 0.000000 0.000000 0.000000 0.023167 0.000000 0.000000
# 5 0.000000 0.000000 0.000000 0.000000 0.023167 0.000000
# 6 0.000000 0.000000 0.000000 0.000000 0.000000 0.023291
#
#
# Mechanical properties :
#
#
# Convention : Reuss Voigt Hill
#
# Bulk Modulus (GPa) = 25.34732 38.74625 32.04678
# Shear Modulus (GPa) = 30.00569 36.71393 33.35981
#
# Velocity S-wave (km/s) = 3.47225 3.84083 3.66118
# Velocity P-wave (km/s) = 5.12446 5.93614 5.54517
#
# Compressibility (1/GPa) = 0.03945191
#
# Stress axis : x y z
#
# Youngs Moduli (GPa) = 38.18976 38.18947 107.69513
#
# Poissons Ratio (x) = 0.04056 0.54061
# Poissons Ratio (y) = 0.04056 0.54062
# Poissons Ratio (z) = 0.19171 0.19171
#
# Static dielectric constant tensor:
#      x y z
#    x 2.056170 0.000000 0.000000 
#    y 0.000000 2.056170 0.000000 
#    z 0.000000 0.000000 1.910530 
# 
# From -- ./inp_files/4542.got.cif
#   From: 2010.05.17/outbox.cif.g08.bks.cpg/sg92_3_cif.got.tgz:4542.got - 2010.06.03 19:35:17.
