data_PCOD9549504
_publ_section_title
;
Structure prediction by ZEFSAII (Michael W. Deem and Ramdas Pophale) SiO2 
 PCOD9549504
Probable space group: P 41 21 2
;
_chemical_formula_sum "Si O2"
_cell_formula_units_Z 48
_cell_length_a 11.780667
_cell_length_b 11.780667
_cell_length_c 16.770434
_cell_angle_alpha 90.000000
_cell_angle_beta 90.000000
_cell_angle_gamma 90.000000
_cell_volume 2327.469840
_symmetry_space_group_name_H-M "P 41 21 2"
_symmetry_group_IT_number 92
_symmetry_cell_setting 'tetragonal'
loop_
_space_group_symop_operation_xyz
x,y,z
1/2-y,1/2+x,1/4+z
-x,-y,1/2+z
1/2+y,1/2-x,3/4+z
1/2+x,1/2-y,3/4-z
1/2-x,1/2+y,1/4-z
y,x,-z
-y,-x,1/2-z
loop_
_atom_site_type_symbol
_atom_site_label
_atom_site_fract_x
_atom_site_fract_y
_atom_site_fract_z
Si Si1 0.345472 0.668097 0.845328
Si Si2 0.035557 0.593997 0.305814
Si Si3 0.040679 0.978547 0.842381
Si Si4 0.187337 0.909455 0.088709
Si Si5 0.412413 0.226752 0.658401
Si Si6 0.691943 0.045343 0.868854
O O1 0.336961 0.663040 0.750000
O O2 0.470217 0.627672 0.872719
O O3 0.314435 0.790738 0.878224
O O4 0.258357 0.573713 0.878703
O O5 0.054809 0.703586 0.360930
O O6 0.121436 0.497381 0.334664
O O7 0.060215 0.631028 0.215739
O O8 0.906374 0.552629 0.315375
O O9 0.998427 0.087182 0.892030
O O10 0.174247 0.959420 0.851208
O O11 0.007271 0.992730 0.750000
O O12 0.140412 0.787291 0.116535
O O13 0.217520 0.904629 0.995987
#
# Coordination Sequence:
#
# PCOD9549504 Si02
#       6
#     8   8   8   8   8   8
#     4  11  26  46  71 100 139 187 232 285 350 408
#     4  12  26  42  70 106 136 180 229 285 344 413
#     4  11  25  45  72 100 137 181 232 285 350 414
#     4  11  24  46  68  99 136 182 228 280 353 408
#     4  12  27  42  72 102 139 181 234 290 338 422
#     4  11  25  45  70  96 141 179 226 290 342 410
#
# _framework density 20.623253999999999
#
# number of rings (size 3 to 8) (size 9 to 14) (size 15 to 20)
#    0.000    0.667    1.667    6.500    9.333    1.333 
#    0.000    0.000    0.000    0.000    0.000    0.000 
#    0.000    0.000    0.000    0.000    0.000    0.000 
#
# Total GULP energy -268804.953515 kJ/mol
# GULP energy per Si atom -5600.103198 kJ/mol
# Density = 2.057631 g / cm^3
# Si number density = 20.623254 Si / 1000 Ang^3
#
#
#
# Elastic Constant Matrix: (Units=GPa)
#
#
# Indices 1 2 3 4 5 6 
#
# 1 72.2025 36.0726 -20.6683 0.0000 0.0000 0.0000
# 2 36.0726 72.2018 -20.6681 0.0000 0.0000 0.0000
# 3 -20.6683 -20.6681 51.3601 0.0000 0.0000 0.0000
# 4 0.0000 0.0000 0.0000 -17.6962 0.0000 0.0000
# 5 0.0000 0.0000 0.0000 0.0000 -17.6955 0.0000
# 6 0.0000 0.0000 0.0000 0.0000 0.0000 19.4039
#
#
#
# Elastic Compliance Matrix: (Units=1/GPa)
#
#
# Indices 1 2 3 4 5 6 
#
# 1 0.019295 -0.008383 0.004391 0.000000 0.000000 0.000000
# 2 -0.008383 0.019295 0.004391 0.000000 0.000000 0.000000
# 3 0.004391 0.004391 0.023005 0.000000 0.000000 0.000000
# 4 0.000000 0.000000 0.000000 -0.056509 0.000000 0.000000
# 5 0.000000 0.000000 0.000000 0.000000 -0.056512 0.000000
# 6 0.000000 0.000000 0.000000 0.000000 0.000000 0.051536
#
#
# Mechanical properties :
#
#
# Convention : Reuss Voigt Hill
#
# Bulk Modulus (GPa) = 16.02715 20.58187 18.30451
# Shear Modulus (GPa) = 248.64558 10.20433 129.42496
#
# Velocity S-wave (km/s) = 10.99215 2.22682 7.93051
# Velocity P-wave (km/s) = 12.99582 4.07593 9.63080
#
# Compressibility (1/GPa) = 0.06239414
#
# Stress axis : x y z
#
# Youngs Moduli (GPa) = 51.82667 51.82618 43.46955
#
# Poissons Ratio (x) = 0.43446 -0.19089
# Poissons Ratio (y) = 0.43446 -0.19089
# Poissons Ratio (z) = -0.22758 -0.22758
#
# Static dielectric constant tensor:
#      x y z
#    x 1.712380 0.000000 0.000000 
#    y 0.000000 1.712380 0.000000 
#    z 0.000000 0.000000 1.735960 
# 
# From -- ./inp_files/3113.got.cif
#   From: 2010.05.17/outbox.cif.g08.bks.cpg/sg92_2_cif.got.tgz:3113.got - 2010.06.03 19:35:17.
