data_PCOD9549903
_publ_section_title
;
Structure prediction by ZEFSAII (Michael W. Deem and Ramdas Pophale) SiO2 
 PCOD9549903
Probable space group: P 42 2 2
;
_chemical_formula_sum "Si O2"
_cell_formula_units_Z 26
_cell_length_a 7.872030
_cell_length_b 7.872030
_cell_length_c 19.545830
_cell_angle_alpha 90.000000
_cell_angle_beta 90.000000
_cell_angle_gamma 90.000000
_cell_volume 1211.232731
_symmetry_space_group_name_H-M "P 42 2 2"
_symmetry_group_IT_number 93
_symmetry_cell_setting 'tetragonal'
loop_
_space_group_symop_operation_xyz
x,y,z
-y,x,1/2+z
-x,-y,z
y,-x,1/2+z
x,-y,-z
-x,y,-z
y,x,1/2-z
-y,-x,1/2-z
loop_
_atom_site_type_symbol
_atom_site_label
_atom_site_fract_x
_atom_site_fract_y
_atom_site_fract_z
Si Si1 0.668009 0.173957 0.872818
Si Si2 0.208395 0.684783 0.324767
Si Si3 0.208690 0.988532 0.421409
Si Si4 0.500000 0.000000 0.000000
O O1 0.505007 0.266748 0.842920
O O2 0.846133 0.266441 0.879161
O O3 0.687118 0.998194 0.830614
O O4 0.615015 0.111748 0.949470
O O5 0.262114 0.737887 0.250000
O O6 0.262117 0.818457 0.382945
O O7 0.262632 0.000000 0.500000
O O8 0.000000 0.000000 0.420792
#
# Coordination Sequence:
#
# PCOD9549903 Si02
#       4
#     8   8   8   2
#     4   9  16  25  41  65  96 140 178 219 281 329
#     4   9  17  27  40  64  99 136 176 222 270 330
#     4   9  15  24  41  66  98 135 176 227 282 336
#     4   8  12  24  38  56  92 126 160 216 274 314
#
# _framework density 21.465733
#
# number of rings (size 3 to 8) (size 9 to 14) (size 15 to 20)
#    0.000    3.385    0.000    5.538    0.000    5.538 
#    0.000    0.000    0.000    0.000    0.000   21.538 
#    0.000    2.462    0.000  397.231    0.000    0.000 
#
# Total GULP energy -145096.418871 kJ/mol
# GULP energy per Si atom -5580.631495 kJ/mol
# Density = 2.141688 g / cm^3
# Si number density = 21.465733 Si / 1000 Ang^3
#
#
#
# Elastic Constant Matrix: (Units=GPa)
#
#
# Indices 1 2 3 4 5 6 
#
# 1 101.0855 12.3398 42.2369 0.0000 0.0000 0.0000
# 2 12.3398 101.0853 42.2369 0.0000 0.0000 0.0000
# 3 42.2369 42.2369 147.5015 0.0000 0.0000 0.0000
# 4 0.0000 0.0000 0.0000 -4.1068 0.0000 0.0000
# 5 0.0000 0.0000 0.0000 0.0000 -4.1061 0.0000
# 6 0.0000 0.0000 0.0000 0.0000 0.0000 -7.2263
#
#
#
# Elastic Compliance Matrix: (Units=1/GPa)
#
#
# Indices 1 2 3 4 5 6 
#
# 1 0.011237 -0.000031 -0.003209 0.000000 0.000000 0.000000
# 2 -0.000031 0.011237 -0.003209 0.000000 0.000000 0.000000
# 3 -0.003209 -0.003209 0.008617 0.000000 0.000000 0.000000
# 4 0.000000 0.000000 0.000000 -0.243498 0.000000 0.000000
# 5 0.000000 0.000000 0.000000 0.000000 -0.243541 0.000000
# 6 0.000000 0.000000 0.000000 0.000000 0.000000 -0.138383
#
#
# Mechanical properties :
#
#
# Convention : Reuss Voigt Hill
#
# Bulk Modulus (GPa) = 54.96258 60.36660 57.66459
# Shear Modulus (GPa) = -8.69010 13.76940 2.53965
#
# Velocity S-wave (km/s) = -2.01424 2.53545 1.08889
# Velocity P-wave (km/s) = 4.50009 6.06257 5.33880
#
# Compressibility (1/GPa) = 0.01819420
#
# Stress axis : x y z
#
# Youngs Moduli (GPa) = 88.99037 88.99010 116.04543
#
# Poissons Ratio (x) = 0.00276 0.37238
# Poissons Ratio (y) = 0.00276 0.37238
# Poissons Ratio (z) = 0.28556 0.28556
#
# Static dielectric constant tensor:
#      x y z
#    x 1.850340 0.000000 0.000000 
#    y 0.000000 1.850350 0.000000 
#    z 0.000000 0.000000 1.727910 
# 
# From -- ./inp_files/4895.got.cif
#   From: 2010.05.17/outbox.cif.g08.bks.cpg/sg93_3_cif.got.tgz:4895.got - 2010.06.03 19:38:44.
