data_PCOD9549304
_publ_section_title
;
Structure prediction by ZEFSAII (Michael W. Deem and Ramdas Pophale) SiO2 
 PCOD9549304
Probable space group: P 41 21 2
;
_chemical_formula_sum "Si O2"
_cell_formula_units_Z 32
_cell_length_a 8.006699
_cell_length_b 8.006699
_cell_length_c 22.885061
_cell_angle_alpha 90.000000
_cell_angle_beta 90.000000
_cell_angle_gamma 90.000000
_cell_volume 1467.097843
_symmetry_space_group_name_H-M "P 41 21 2"
_symmetry_group_IT_number 92
_symmetry_cell_setting 'tetragonal'
loop_
_space_group_symop_operation_xyz
x,y,z
1/2-y,1/2+x,1/4+z
-x,-y,1/2+z
1/2+y,1/2-x,3/4+z
1/2+x,1/2-y,3/4-z
1/2-x,1/2+y,1/4-z
y,x,-z
-y,-x,1/2-z
loop_
_atom_site_type_symbol
_atom_site_label
_atom_site_fract_x
_atom_site_fract_y
_atom_site_fract_z
Si Si1 0.896857 0.100489 0.105713
Si Si2 0.090004 0.248346 0.923207
Si Si3 0.580453 0.283381 0.065673
Si Si4 0.371757 0.720634 0.057122
O O1 0.717894 0.142560 0.080428
O O2 0.054968 0.132889 0.062739
O O3 0.947703 0.215677 0.161475
O O4 0.913772 0.914929 0.131362
O O5 0.211828 0.395582 0.942628
O O6 0.108652 0.239274 0.851984
O O7 0.904945 0.297801 0.941081
O O8 0.644806 0.369031 0.006658
#
# Coordination Sequence:
#
# PCOD9549304 Si02
#       4
#     8   8   8   8
#     4  10  23  42  64 103 132 174 233 282 332 424
#     4  10  22  46  65 100 136 173 236 277 340 419
#     4  12  23  43  73  96 142 179 229 290 346 409
#     4  10  23  44  65 100 131 188 217 286 355 399
#
# _framework density 21.811768000000001
#
# number of rings (size 3 to 8) (size 9 to 14) (size 15 to 20)
#    1.500    0.000    2.500    2.250    0.000    5.000 
#    9.000    2.500    0.000    0.000    0.000    0.000 
#    0.000    0.000    0.000    0.000    0.000    0.000 
#
# Total GULP energy -178467.165359 kJ/mol
# GULP energy per Si atom -5577.098917 kJ/mol
# Density = 2.176212 g / cm^3
# Si number density = 21.811768 Si / 1000 Ang^3
#
#
#
# Elastic Constant Matrix: (Units=GPa)
#
#
# Indices 1 2 3 4 5 6 
#
# 1 91.7834 52.5915 14.4852 0.0000 0.0000 0.0000
# 2 52.5915 91.7834 14.4852 0.0000 0.0000 0.0000
# 3 14.4852 14.4852 69.0103 0.0000 0.0000 0.0000
# 4 0.0000 0.0000 0.0000 20.9844 0.0000 0.0000
# 5 0.0000 0.0000 0.0000 0.0000 20.9844 0.0000
# 6 0.0000 0.0000 0.0000 0.0000 0.0000 34.8381
#
#
#
# Elastic Compliance Matrix: (Units=1/GPa)
#
#
# Indices 1 2 3 4 5 6 
#
# 1 0.016373 -0.009142 -0.001518 0.000000 0.000000 0.000000
# 2 -0.009142 0.016373 -0.001518 0.000000 0.000000 0.000000
# 3 -0.001518 -0.001518 0.015128 0.000000 0.000000 0.000000
# 4 0.000000 0.000000 0.000000 0.047654 0.000000 0.000000
# 5 0.000000 0.000000 0.000000 0.000000 0.047654 0.000000
# 6 0.000000 0.000000 0.000000 0.000000 0.000000 0.028704
#
#
# Mechanical properties :
#
#
# Convention : Reuss Voigt Hill
#
# Bulk Modulus (GPa) = 42.51955 46.18899 44.35427
# Shear Modulus (GPa) = 24.49992 26.76240 25.63116
#
# Velocity S-wave (km/s) = 3.35512 3.50661 3.43170
# Velocity P-wave (km/s) = 5.87752 6.13329 6.00677
#
# Compressibility (1/GPa) = 0.02351859
#
# Stress axis : x y z
#
# Youngs Moduli (GPa) = 61.07537 61.07537 66.10366
#
# Poissons Ratio (x) = 0.55837 0.10033
# Poissons Ratio (y) = 0.55837 0.10033
# Poissons Ratio (z) = 0.09270 0.09270
#
# Static dielectric constant tensor:
#      x y z
#    x 1.803970 0.000000 0.000000 
#    y 0.000000 1.803970 0.000000 
#    z 0.000000 0.000000 1.821210 
# 
# From -- ./inp_files/3398.got.cif
#   From: 2010.05.17/outbox.cif.g08.bks.cpg/sg92_2_cif.got.tgz:3398.got - 2010.06.03 19:35:17.
