data_PCOD9549964
_publ_section_title
;
Structure prediction by ZEFSAII (Michael W. Deem and Ramdas Pophale) SiO2 
 PCOD9549964
Probable space group: P 42 21 2
;
_chemical_formula_sum "Si O2"
_cell_formula_units_Z 54
_cell_length_a 15.891663
_cell_length_b 15.891663
_cell_length_c 11.751868
_cell_angle_alpha 90.000000
_cell_angle_beta 90.000000
_cell_angle_gamma 90.000000
_cell_volume 2967.874951
_symmetry_space_group_name_H-M "P 42 21 2"
_symmetry_group_IT_number 94
_symmetry_cell_setting 'tetragonal'
loop_
_space_group_symop_operation_xyz
x,y,z
1/2-y,1/2+x,1/2+z
-x,-y,z
1/2+y,1/2-x,1/2+z
1/2+x,1/2-y,1/2-z
1/2-x,1/2+y,1/2-z
y,x,-z
-y,-x,-z
loop_
_atom_site_type_symbol
_atom_site_label
_atom_site_fract_x
_atom_site_fract_y
_atom_site_fract_z
Si Si1 0.500000 0.000000 0.737826
Si Si2 0.601176 0.146246 0.618103
Si Si3 0.027396 0.175790 0.889114
Si Si4 0.093295 0.920045 0.306950
Si Si5 0.650102 0.894108 0.850511
Si Si6 0.459122 0.665301 0.352952
Si Si7 0.780802 0.224411 0.367037
Si Si8 0.000000 0.000000 0.500000
O O1 0.440661 0.936158 0.668860
O O2 0.567542 0.939472 0.801713
O O3 0.538255 0.225140 0.624213
O O4 0.616834 0.132190 0.484517
O O5 0.687753 0.179346 0.675336
O O6 0.117393 0.130332 0.865095
O O7 0.964666 0.140528 0.796236
O O8 0.002865 0.155004 0.019596
O O9 0.147027 0.844658 0.357511
O O10 0.074620 0.985297 0.409277
O O11 0.010751 0.880601 0.246157
O O12 0.735179 0.949045 0.833866
O O13 0.682309 0.801686 0.810046
O O14 0.759088 0.240913 0.500000
#
# Coordination Sequence:
#
# PCOD9549964 Si02
#       8
#     4   8   8   8   8   8   8   2
#     4  12  22  36  56  90 116 148 178 252 300 334
#     4  10  21  38  59  82 111 148 196 233 280 344
#     4  10  19  35  59  82 108 143 190 237 274 327
#     4  12  21  35  53  87 117 146 179 232 290 344
#     4  10  21  38  59  82 111 148 196 233 280 344
#     4  10  19  35  59  82 108 143 190 237 274 327
#     4  10  20  36  57  78 107 154 194 222 270 346
#     4  12  24  32  46  84 128 144 184 220 296 358
#
# _framework density 18.194837
#
# number of rings (size 3 to 8) (size 9 to 14) (size 15 to 20)
#    0.000    1.481    3.704    2.667    0.000    1.185 
#    0.000    0.000    0.000    0.000    7.704    0.000 
#    0.000    0.000    0.000    0.000    0.000    0.000 
#
# Total GULP energy -300686.449303 kJ/mol
# GULP energy per Si atom -5568.267580 kJ/mol
# Density = 1.815342 g / cm^3
# Si number density = 18.194837 Si / 1000 Ang^3
#
#
#
# Elastic Constant Matrix: (Units=GPa)
#
#
# Indices 1 2 3 4 5 6 
#
# 1 85.6927 50.2492 32.3927 0.0000 0.0000 0.0000
# 2 50.2492 85.6934 32.3932 0.0000 0.0000 0.0000
# 3 32.3927 32.3932 60.3570 0.0000 0.0000 0.0000
# 4 0.0000 0.0000 0.0000 23.3246 0.0000 0.0000
# 5 0.0000 0.0000 0.0000 0.0000 23.3246 0.0000
# 6 0.0000 0.0000 0.0000 0.0000 0.0000 31.4207
#
#
#
# Elastic Compliance Matrix: (Units=1/GPa)
#
#
# Indices 1 2 3 4 5 6 
#
# 1 0.019049 -0.009165 -0.005305 0.000000 0.000000 0.000000
# 2 -0.009165 0.019049 -0.005305 0.000000 0.000000 0.000000
# 3 -0.005305 -0.005305 0.022262 0.000000 0.000000 0.000000
# 4 0.000000 0.000000 0.000000 0.042873 0.000000 0.000000
# 5 0.000000 0.000000 0.000000 0.000000 0.042873 0.000000
# 6 0.000000 0.000000 0.000000 0.000000 0.000000 0.031826
#
#
# Mechanical properties :
#
#
# Convention : Reuss Voigt Hill
#
# Bulk Modulus (GPa) = 48.05043 51.31260 49.68151
# Shear Modulus (GPa) = 22.27988 23.39452 22.83720
#
# Velocity S-wave (km/s) = 3.50311 3.58966 3.54665
# Velocity P-wave (km/s) = 6.54435 6.74121 6.64351
#
# Compressibility (1/GPa) = 0.02081147
#
# Stress axis : x y z
#
# Youngs Moduli (GPa) = 52.49642 52.49662 44.91957
#
# Poissons Ratio (x) = 0.48112 0.23828
# Poissons Ratio (y) = 0.48112 0.23829
# Poissons Ratio (z) = 0.27847 0.27848
#
# Static dielectric constant tensor:
#      x y z
#    x 1.651100 0.000000 0.000000 
#    y 0.000000 1.651100 0.000000 
#    z 0.000000 0.000000 1.615750 
# 
# From -- ./inp_files/2753.got.cif
#   From: 2010.05.17/outbox.cif.g08.bks.cpg/sg94_2_cif.got.tgz:2753.got - 2010.06.03 19:43:16.
