data_PCOD9549736
_publ_section_title
;
Structure prediction by ZEFSAII (Michael W. Deem and Ramdas Pophale) SiO2 
 PCOD9549736
Probable space group: P 42 2 2
;
_chemical_formula_sum "Si O2"
_cell_formula_units_Z 48
_cell_length_a 17.409699
_cell_length_b 17.409699
_cell_length_c 8.529786
_cell_angle_alpha 90.000000
_cell_angle_beta 90.000000
_cell_angle_gamma 90.000000
_cell_volume 2585.357829
_symmetry_space_group_name_H-M "P 42 2 2"
_symmetry_group_IT_number 93
_symmetry_cell_setting 'tetragonal'
loop_
_space_group_symop_operation_xyz
x,y,z
-y,x,1/2+z
-x,-y,z
y,-x,1/2+z
x,-y,-z
-x,y,-z
y,x,1/2-z
-y,-x,1/2-z
loop_
_atom_site_type_symbol
_atom_site_label
_atom_site_fract_x
_atom_site_fract_y
_atom_site_fract_z
Si Si1 0.628559 0.878460 0.451738
Si Si2 0.358306 0.565286 0.877818
Si Si3 0.379301 0.154543 0.947616
Si Si4 0.014483 0.406514 0.752078
Si Si5 0.797435 0.517214 0.262750
Si Si6 0.722833 0.293349 0.061520
O O1 0.606773 0.930693 0.598318
O O2 0.553621 0.836277 0.387814
O O3 0.687132 0.810485 0.504961
O O4 0.641554 0.938938 0.306632
O O5 0.422539 0.577462 0.750000
O O6 0.289648 0.536128 0.767222
O O7 0.376097 0.500000 0.000000
O O8 0.329205 0.642757 0.969492
O O9 0.376040 0.066192 0.892766
O O10 0.428953 0.192341 0.805477
O O11 0.305224 0.206779 0.980989
O O12 0.434299 0.166780 0.095378
O O13 0.000000 0.500000 0.734205
O O14 0.707726 0.292275 0.250000
#
# Coordination Sequence:
#
# PCOD9549736 Si02
#       6
#     8   8   8   8   8   8
#     4  10  21  33  54  79 116 152 197 247 310 382
#     4  11  23  40  63  84 108 148 203 270 332 374
#     4  11  21  36  57  82 118 146 202 255 307 376
#     4  11  21  34  54  84 118 151 193 255 310 379
#     4  10  22  36  56  84 111 147 191 260 315 369
#     4  11  21  37  59  85 110 154 207 257 312 380
#
# _framework density 18.566096000000002
#
# number of rings (size 3 to 8) (size 9 to 14) (size 15 to 20)
#    0.000    1.333    5.000    2.000    2.333    0.667 
#    0.000    0.000    0.000   16.500    0.000    0.000 
#    0.000    0.000    0.000    0.000    0.000  133.333 
#
# Total GULP energy -267260.197698 kJ/mol
# GULP energy per Si atom -5567.920785 kJ/mol
# Density = 1.852384 g / cm^3
# Si number density = 18.566096 Si / 1000 Ang^3
#
#
#
# Elastic Constant Matrix: (Units=GPa)
#
#
# Indices 1 2 3 4 5 6 
#
# 1 94.1818 63.5581 47.6213 0.0000 0.0000 0.0000
# 2 63.5581 94.1842 47.6206 0.0000 0.0000 0.0000
# 3 47.6213 47.6206 77.0968 0.0000 0.0000 0.0000
# 4 0.0000 0.0000 0.0000 42.4528 0.0000 0.0000
# 5 0.0000 0.0000 0.0000 0.0000 42.4400 0.0000
# 6 0.0000 0.0000 0.0000 0.0000 0.0000 20.2849
#
#
#
# Elastic Compliance Matrix: (Units=1/GPa)
#
#
# Indices 1 2 3 4 5 6 
#
# 1 0.021382 -0.011272 -0.006245 0.000000 0.000000 0.000000
# 2 -0.011272 0.021381 -0.006244 0.000000 0.000000 0.000000
# 3 -0.006245 -0.006244 0.020685 0.000000 0.000000 0.000000
# 4 0.000000 0.000000 0.000000 0.023556 0.000000 0.000000
# 5 0.000000 0.000000 0.000000 0.000000 0.023563 0.000000
# 6 0.000000 0.000000 0.000000 0.000000 0.000000 0.049298
#
#
# Mechanical properties :
#
#
# Convention : Reuss Voigt Hill
#
# Bulk Modulus (GPa) = 62.78933 64.78473 63.78703
# Shear Modulus (GPa) = 23.50783 28.14639 25.82711
#
# Velocity S-wave (km/s) = 3.56219 3.89782 3.73378
# Velocity P-wave (km/s) = 7.12823 7.43150 7.28145
#
# Compressibility (1/GPa) = 0.01592627
#
# Stress axis : x y z
#
# Youngs Moduli (GPa) = 46.76811 46.77047 48.34393
#
# Poissons Ratio (x) = 0.52718 0.30192
# Poissons Ratio (y) = 0.52715 0.30187
# Poissons Ratio (z) = 0.29207 0.29204
#
# Static dielectric constant tensor:
#      x y z
#    x 1.696620 0.000000 0.000000 
#    y 0.000000 1.696640 0.000000 
#    z 0.000000 0.000000 1.738560 
# 
# From -- ./inp_files/2056.got.cif
#   From: 2010.05.17/outbox.cif.g08.bks.cpg/sg93_2_cif.got.tgz:2056.got - 2010.06.03 19:38:44.
