data_PCOD9549730
_publ_section_title
;
Structure prediction by ZEFSAII (Michael W. Deem and Ramdas Pophale) SiO2 
 PCOD9549730
Probable space group: P 42 2 2
;
_chemical_formula_sum "Si O2"
_cell_formula_units_Z 52
_cell_length_a 22.549683
_cell_length_b 22.549683
_cell_length_c 5.201849
_cell_angle_alpha 90.000000
_cell_angle_beta 90.000000
_cell_angle_gamma 90.000000
_cell_volume 2645.078852
_symmetry_space_group_name_H-M "P 42 2 2"
_symmetry_group_IT_number 93
_symmetry_cell_setting 'tetragonal'
loop_
_space_group_symop_operation_xyz
x,y,z
-y,x,1/2+z
-x,-y,z
y,-x,1/2+z
x,-y,-z
-x,y,-z
y,x,1/2-z
-y,-x,1/2-z
loop_
_atom_site_type_symbol
_atom_site_label
_atom_site_fract_x
_atom_site_fract_y
_atom_site_fract_z
Si Si1 0.069670 0.873226 0.495051
Si Si2 0.934730 0.433565 0.603533
Si Si3 0.500000 0.131259 0.500000
Si Si4 0.779460 0.164521 0.002276
Si Si5 0.370231 0.569868 0.001676
Si Si6 0.769768 0.412557 0.094999
Si Si7 0.357787 0.178855 0.069352
O O1 0.088712 0.911289 0.250000
O O2 0.100576 0.809330 0.459842
O O3 0.000000 0.867868 0.500000
O O4 0.095518 0.904483 0.750000
O O5 0.925735 0.500000 0.500000
O O6 0.883986 0.389444 0.514907
O O7 0.000000 0.416233 0.500000
O O8 0.914264 0.449168 0.897031
O O9 0.465264 0.182632 0.663382
O O10 0.796795 0.203206 0.250000
O O11 0.809644 0.190357 0.750000
O O12 0.710891 0.165522 0.945519
O O13 0.395984 0.604017 0.750000
O O14 0.298144 0.571929 0.028688
O O15 0.386672 0.500000 0.000000
O O16 0.398726 0.601275 0.250000
O O17 0.796753 0.380389 0.843332
O O18 0.773633 0.372911 0.349040
#
# Coordination Sequence:
#
# PCOD9549730 Si02
#       7
#     8   8   4   8   8   8   8
#     4  10  21  37  59  88 120 160 200 251 309 363
#     4  10  21  37  58  90 123 161 208 249 308 364
#     4  10  20  41  62  84 125 166 198 252 308 364
#     4  10  22  40  61  85 122 162 204 250 306 363
#     4  12  27  46  69  98 128 164 205 260 319 392
#     4  11  23  41  65  91 122 159 210 251 312 364
#     4  11  23  39  64  91 123 166 208 259 309 365
#
# _framework density 19.65915
#
# number of rings (size 3 to 8) (size 9 to 14) (size 15 to 20)
#    0.000    1.385    2.308    2.769    0.000    7.385 
#    0.000    0.000    0.000    5.538    0.000    0.000 
#    0.000    0.000    0.000    0.000    0.000    0.000 
#
# Total GULP energy -289693.931451 kJ/mol
# GULP energy per Si atom -5571.037143 kJ/mol
# Density = 1.961441 g / cm^3
# Si number density = 19.659150 Si / 1000 Ang^3
#
#
#
# Elastic Constant Matrix: (Units=GPa)
#
#
# Indices 1 2 3 4 5 6 
#
# 1 110.6022 33.1548 27.7129 0.0000 0.0000 0.0000
# 2 33.1548 110.5960 27.7134 0.0000 0.0000 0.0000
# 3 27.7129 27.7134 105.9836 0.0000 0.0000 0.0000
# 4 0.0000 0.0000 0.0000 21.8682 0.0000 0.0000
# 5 0.0000 0.0000 0.0000 0.0000 21.8701 0.0000
# 6 0.0000 0.0000 0.0000 0.0000 0.0000 -24.6092
#
#
#
# Elastic Compliance Matrix: (Units=1/GPa)
#
#
# Indices 1 2 3 4 5 6 
#
# 1 0.010324 -0.002588 -0.002023 0.000000 0.000000 0.000000
# 2 -0.002588 0.010325 -0.002023 0.000000 0.000000 0.000000
# 3 -0.002023 -0.002023 0.010493 0.000000 0.000000 0.000000
# 4 0.000000 0.000000 0.000000 0.045729 0.000000 0.000000
# 5 0.000000 0.000000 0.000000 0.000000 0.045725 0.000000
# 6 0.000000 0.000000 0.000000 0.000000 0.000000 -0.040635
#
#
# Mechanical properties :
#
#
# Convention : Reuss Voigt Hill
#
# Bulk Modulus (GPa) = 55.94640 56.03820 55.99230
# Shear Modulus (GPa) = 49.41395 19.73254 34.57324
#
# Velocity S-wave (km/s) = 5.01895 3.17161 4.19816
# Velocity P-wave (km/s) = 7.88077 6.47912 7.21406
#
# Compressibility (1/GPa) = 0.01787425
#
# Stress axis : x y z
#
# Youngs Moduli (GPa) = 96.86099 96.85493 95.29841
#
# Poissons Ratio (x) = 0.25067 0.19277
# Poissons Ratio (y) = 0.25069 0.19279
# Poissons Ratio (z) = 0.19593 0.19594
#
# Static dielectric constant tensor:
#      x y z
#    x 1.702210 0.000000 0.000000 
#    y 0.000000 1.702220 0.000000 
#    z 0.000000 0.000000 1.926290 
# 
# From -- ./inp_files/735.got.cif
#   From: 2010.05.17/outbox.cif.g08.bks.cpg/sg93_1_cif.got.tgz:735.got - 2010.06.03 19:38:44.
