data_PCOD9549510
_publ_section_title
;
Structure prediction by ZEFSAII (Michael W. Deem and Ramdas Pophale) SiO2 
 PCOD9549510
Probable space group: P 41 21 2
;
_chemical_formula_sum "Si O2"
_cell_formula_units_Z 24
_cell_length_a 7.956782
_cell_length_b 7.956782
_cell_length_c 13.454807
_cell_angle_alpha 90.000000
_cell_angle_beta 90.000000
_cell_angle_gamma 90.000000
_cell_volume 851.828941
_symmetry_space_group_name_H-M "P 41 21 2"
_symmetry_group_IT_number 92
_symmetry_cell_setting 'tetragonal'
loop_
_space_group_symop_operation_xyz
x,y,z
1/2-y,1/2+x,1/4+z
-x,-y,1/2+z
1/2+y,1/2-x,3/4+z
1/2+x,1/2-y,3/4-z
1/2-x,1/2+y,1/4-z
y,x,-z
-y,-x,1/2-z
loop_
_atom_site_type_symbol
_atom_site_label
_atom_site_fract_x
_atom_site_fract_y
_atom_site_fract_z
Si Si1 0.184123 0.365922 0.914258
Si Si2 0.295662 0.082628 0.790548
Si Si3 0.101725 0.019047 0.613974
O O1 0.225576 0.269527 0.812163
O O2 0.328815 0.503510 0.917773
O O3 0.990430 0.411701 0.928423
O O4 0.234022 0.234022 0.000000
O O5 0.274761 0.024795 0.676316
O O6 0.163251 0.971921 0.855551
O O7 0.073617 0.073617 0.500000
#
# Coordination Sequence:
#
# PCOD9549510 Si02
#       3
#     8   8   8
#     4  12  23  49  91 124 171 239 294 368 452 531
#     4  11  24  47  89 124 171 239 289 367 455 526
#     4  11  25  53  85 129 180 231 304 371 444 539
#
# _framework density 28.174669000000002
#
# number of rings (size 3 to 8) (size 9 to 14) (size 15 to 20)
#    0.000    0.667    6.667    1.000    0.000    0.000 
#    6.000    6.667    7.333    0.000    0.000    0.000 
#    0.000    0.000    0.000    0.000    0.000    0.000 
#
# Total GULP energy -134322.959925 kJ/mol
# GULP energy per Si atom -5596.789997 kJ/mol
# Density = 2.811054 g / cm^3
# Si number density = 28.174669 Si / 1000 Ang^3
#
#
#
# Elastic Constant Matrix: (Units=GPa)
#
#
# Indices 1 2 3 4 5 6 
#
# 1 189.8801 112.3051 59.6130 0.0000 0.0000 0.0000
# 2 112.3051 189.8801 59.6130 0.0000 0.0000 0.0000
# 3 59.6130 59.6130 182.3378 0.0000 0.0000 0.0000
# 4 0.0000 0.0000 0.0000 19.3829 0.0000 0.0000
# 5 0.0000 0.0000 0.0000 0.0000 19.3829 0.0000
# 6 0.0000 0.0000 0.0000 0.0000 0.0000 40.3981
#
#
#
# Elastic Compliance Matrix: (Units=1/GPa)
#
#
# Indices 1 2 3 4 5 6 
#
# 1 0.008345 -0.004546 -0.001242 0.000000 0.000000 0.000000
# 2 -0.004546 0.008345 -0.001242 0.000000 0.000000 0.000000
# 3 -0.001242 -0.001242 0.006297 0.000000 0.000000 0.000000
# 4 0.000000 0.000000 0.000000 0.051592 0.000000 0.000000
# 5 0.000000 0.000000 0.000000 0.000000 0.051592 0.000000
# 6 0.000000 0.000000 0.000000 0.000000 0.000000 0.024754
#
#
# Mechanical properties :
#
#
# Convention : Reuss Voigt Hill
#
# Bulk Modulus (GPa) = 112.02469 113.90668 112.96568
# Shear Modulus (GPa) = 29.76911 37.87060 33.81985
#
# Velocity S-wave (km/s) = 3.25405 3.67022 3.46839
# Velocity P-wave (km/s) = 7.34613 7.64704 7.49809
#
# Compressibility (1/GPa) = 0.00892660
#
# Stress axis : x y z
#
# Youngs Moduli (GPa) = 119.83187 119.83187 158.81773
#
# Poissons Ratio (x) = 0.54472 0.19727
# Poissons Ratio (y) = 0.54472 0.19727
# Poissons Ratio (z) = 0.14885 0.14885
#
# Static dielectric constant tensor:
#      x y z
#    x 2.200450 0.000000 0.000000 
#    y 0.000000 2.200450 0.000000 
#    z 0.000000 0.000000 2.302860 
# 
# From -- ./inp_files/2432.got.cif
#   From: 2010.05.17/outbox.cif.g08.bks.cpg/sg92_2_cif.got.tgz:2432.got - 2010.06.03 19:35:17.
