data_PCOD9549300
_publ_section_title
;
Structure prediction by ZEFSAII (Michael W. Deem and Ramdas Pophale) SiO2 
 PCOD9549300
Probable space group: P 41 21 2
;
_chemical_formula_sum "Si O2"
_cell_formula_units_Z 40
_cell_length_a 14.997568
_cell_length_b 14.997568
_cell_length_c 8.160998
_cell_angle_alpha 90.000000
_cell_angle_beta 90.000000
_cell_angle_gamma 90.000000
_cell_volume 1835.629172
_symmetry_space_group_name_H-M "P 41 21 2"
_symmetry_group_IT_number 92
_symmetry_cell_setting 'tetragonal'
loop_
_space_group_symop_operation_xyz
x,y,z
1/2-y,1/2+x,1/4+z
-x,-y,1/2+z
1/2+y,1/2-x,3/4+z
1/2+x,1/2-y,3/4-z
1/2-x,1/2+y,1/4-z
y,x,-z
-y,-x,1/2-z
loop_
_atom_site_type_symbol
_atom_site_label
_atom_site_fract_x
_atom_site_fract_y
_atom_site_fract_z
Si Si1 0.952417 0.393544 0.354091
Si Si2 0.811458 0.650424 0.611896
Si Si3 0.937753 0.080764 0.947633
Si Si4 0.353064 0.256211 0.236907
Si Si5 0.725352 0.992421 0.441054
O O1 0.923042 0.478531 0.245863
O O2 0.869582 0.337301 0.426661
O O3 0.994805 0.316217 0.239367
O O4 0.748253 0.706915 0.733536
O O5 0.757052 0.622495 0.452892
O O6 0.836528 0.559041 0.701495
O O7 0.888992 0.708961 0.535834
O O8 0.926828 0.073173 0.750000
O O9 0.840619 0.085858 0.035345
O O10 0.981933 0.174400 0.008641
O O11 0.999047 0.999047 0.000000
#
# Coordination Sequence:
#
# PCOD9549300 Si02
#       5
#     8   8   8   8   8
#     4  12  29  46  72 110 149 198 249 312 382 461
#     4  10  22  45  74 100 145 187 249 304 375 443
#     4  11  25  46  74 107 145 193 249 311 375 451
#     4  10  24  47  68 104 145 193 242 311 371 445
#     4  11  23  45  71 107 143 189 247 303 378 450
#
# _framework density 21.790891999999999
#
# number of rings (size 3 to 8) (size 9 to 14) (size 15 to 20)
#    0.000    1.200    6.000    0.000   11.200    2.400 
#    0.000    0.000    0.000    0.000    0.000    0.000 
#    0.000    0.000    0.000    0.000    0.000    0.000 
#
# Total GULP energy -222916.175436 kJ/mol
# GULP energy per Si atom -5572.904386 kJ/mol
# Density = 2.174129 g / cm^3
# Si number density = 21.790892 Si / 1000 Ang^3
#
#
#
# Elastic Constant Matrix: (Units=GPa)
#
#
# Indices 1 2 3 4 5 6 
#
# 1 110.9508 75.6817 41.0992 0.0000 0.0000 0.0000
# 2 75.6817 110.9513 41.0995 0.0000 0.0000 0.0000
# 3 41.0992 41.0995 59.2614 0.0000 0.0000 0.0000
# 4 0.0000 0.0000 0.0000 44.2267 0.0000 0.0000
# 5 0.0000 0.0000 0.0000 0.0000 44.2265 0.0000
# 6 0.0000 0.0000 0.0000 0.0000 0.0000 40.0146
#
#
#
# Elastic Compliance Matrix: (Units=1/GPa)
#
#
# Indices 1 2 3 4 5 6 
#
# 1 0.018034 -0.010319 -0.005350 0.000000 0.000000 0.000000
# 2 -0.010319 0.018034 -0.005350 0.000000 0.000000 0.000000
# 3 -0.005350 -0.005350 0.024295 0.000000 0.000000 0.000000
# 4 0.000000 0.000000 0.000000 0.022611 0.000000 0.000000
# 5 0.000000 0.000000 0.000000 0.000000 0.022611 0.000000
# 6 0.000000 0.000000 0.000000 0.000000 0.000000 0.024991
#
#
# Mechanical properties :
#
#
# Convention : Reuss Voigt Hill
#
# Bulk Modulus (GPa) = 54.57452 66.32493 60.44972
# Shear Modulus (GPa) = 27.97626 33.91246 30.94436
#
# Velocity S-wave (km/s) = 3.58697 3.94924 3.77246
# Velocity P-wave (km/s) = 6.50032 7.16229 6.83932
#
# Compressibility (1/GPa) = 0.01832357
#
# Stress axis : x y z
#
# Youngs Moduli (GPa) = 55.45121 55.45132 41.16004
#
# Poissons Ratio (x) = 0.57222 0.22021
# Poissons Ratio (y) = 0.57222 0.22022
# Poissons Ratio (z) = 0.29667 0.29668
#
# Static dielectric constant tensor:
#      x y z
#    x 1.879490 0.000000 0.000000 
#    y 0.000000 1.879490 0.000000 
#    z 0.000000 0.000000 1.860520 
# 
# From -- ./inp_files/1335.got.cif
#   From: 2010.05.17/outbox.cif.g08.bks.cpg/sg92_1_cif.got.tgz:1335.got - 2010.06.03 19:35:17.
