data_PCOD9549056
_publ_section_title
;
Structure prediction by ZEFSAII (Michael W. Deem and Ramdas Pophale) SiO2 
 PCOD9549056
Probable space group: P 41 21 2
;
_chemical_formula_sum "Si O2"
_cell_formula_units_Z 40
_cell_length_a 8.044870
_cell_length_b 8.044870
_cell_length_c 25.842695
_cell_angle_alpha 90.000000
_cell_angle_beta 90.000000
_cell_angle_gamma 90.000000
_cell_volume 1672.537497
_symmetry_space_group_name_H-M "P 41 21 2"
_symmetry_group_IT_number 92
_symmetry_cell_setting 'tetragonal'
loop_
_space_group_symop_operation_xyz
x,y,z
1/2-y,1/2+x,1/4+z
-x,-y,1/2+z
1/2+y,1/2-x,3/4+z
1/2+x,1/2-y,3/4-z
1/2-x,1/2+y,1/4-z
y,x,-z
-y,-x,1/2-z
loop_
_atom_site_type_symbol
_atom_site_label
_atom_site_fract_x
_atom_site_fract_y
_atom_site_fract_z
Si Si1 0.354609 0.083389 0.402444
Si Si2 0.507236 0.259611 0.310035
Si Si3 0.214232 0.480829 0.502530
Si Si4 0.811146 0.264860 0.908753
Si Si5 0.841790 0.889481 0.442427
O O1 0.409240 0.130133 0.345085
O O2 0.179661 0.177415 0.414190
O O3 0.500568 0.163630 0.438091
O O4 0.314221 0.890663 0.408929
O O5 0.573230 0.156510 0.261667
O O6 0.392092 0.417826 0.298561
O O7 0.390991 0.390991 0.500000
O O8 0.215728 0.617510 0.458331
O O9 0.790037 0.357955 0.853503
O O10 0.992468 0.189775 0.917936
O O11 0.813184 0.813184 0.500000
#
# Coordination Sequence:
#
# PCOD9549056 Si02
#       5
#     8   8   8   8   8
#     4  10  22  39  63  93 128 170 218 276 332 397
#     4  10  20  39  64  89 123 172 218 259 329 416
#     4  10  21  40  63  91 130 174 219 267 332 413
#     4  11  24  42  67 101 134 172 230 287 341 401
#     4  11  24  44  66  94 135 174 219 279 340 403
#
# _framework density 23.915759000000001
#
# number of rings (size 3 to 8) (size 9 to 14) (size 15 to 20)
#    0.000    1.600    0.000    6.600    0.000    6.400 
#    0.000    9.000    0.000    0.000    0.000    0.000 
#    0.000    0.000    0.000    0.000    0.000    0.000 
#
# Total GULP energy -223671.730246 kJ/mol
# GULP energy per Si atom -5591.793256 kJ/mol
# Density = 2.386133 g / cm^3
# Si number density = 23.915759 Si / 1000 Ang^3
#
#
#
# Elastic Constant Matrix: (Units=GPa)
#
#
# Indices 1 2 3 4 5 6 
#
# 1 78.2794 26.5427 22.2199 0.0000 0.0000 0.0000
# 2 26.5427 78.2794 22.2199 0.0000 0.0000 0.0000
# 3 22.2199 22.2199 90.4272 0.0000 0.0000 0.0000
# 4 0.0000 0.0000 0.0000 43.2279 0.0000 0.0000
# 5 0.0000 0.0000 0.0000 0.0000 43.2279 0.0000
# 6 0.0000 0.0000 0.0000 0.0000 0.0000 37.5060
#
#
#
# Elastic Compliance Matrix: (Units=1/GPa)
#
#
# Indices 1 2 3 4 5 6 
#
# 1 0.014989 -0.004340 -0.002617 0.000000 0.000000 0.000000
# 2 -0.004340 0.014989 -0.002617 0.000000 0.000000 0.000000
# 3 -0.002617 -0.002617 0.012345 0.000000 0.000000 0.000000
# 4 0.000000 0.000000 0.000000 0.023133 0.000000 0.000000
# 5 0.000000 0.000000 0.000000 0.000000 0.023133 0.000000
# 6 0.000000 0.000000 0.000000 0.000000 0.000000 0.026662
#
#
# Mechanical properties :
#
#
# Convention : Reuss Voigt Hill
#
# Bulk Modulus (GPa) = 43.14763 43.21677 43.18220
# Shear Modulus (GPa) = 35.18073 36.52593 35.85333
#
# Velocity S-wave (km/s) = 3.83956 3.91228 3.87609
# Velocity P-wave (km/s) = 6.14304 6.20625 6.17472
#
# Compressibility (1/GPa) = 0.02317624
#
# Stress axis : x y z
#
# Youngs Moduli (GPa) = 66.71551 66.71551 81.00696
#
# Poissons Ratio (x) = 0.28952 0.21198
# Poissons Ratio (y) = 0.28952 0.21198
# Poissons Ratio (z) = 0.17458 0.17458
#
# Static dielectric constant tensor:
#      x y z
#    x 1.940330 0.000000 0.000000 
#    y 0.000000 1.940330 0.000000 
#    z 0.000000 0.000000 1.907990 
# 
# From -- ./inp_files/3802.got.cif
#   From: 2010.05.17/outbox.cif.g08.bks.cpg/sg92_2_cif.got.tgz:3802.got - 2010.06.03 19:35:17.
