data_PCOD9549840
_publ_section_title
;
Structure prediction by ZEFSAII (Michael W. Deem and Ramdas Pophale) SiO2 
 PCOD9549840
Probable space group: P 42 2 2
;
_chemical_formula_sum "Si O2"
_cell_formula_units_Z 16
_cell_length_a 5.092632
_cell_length_b 5.092632
_cell_length_c 25.723929
_cell_angle_alpha 90.000000
_cell_angle_beta 90.000000
_cell_angle_gamma 90.000000
_cell_volume 667.147544
_symmetry_space_group_name_H-M "P 42 2 2"
_symmetry_group_IT_number 93
_symmetry_cell_setting 'tetragonal'
loop_
_space_group_symop_operation_xyz
x,y,z
-y,x,1/2+z
-x,-y,z
y,-x,1/2+z
x,-y,-z
-x,y,-z
y,x,1/2-z
-y,-x,1/2-z
loop_
_atom_site_type_symbol
_atom_site_label
_atom_site_fract_x
_atom_site_fract_y
_atom_site_fract_z
Si Si1 0.000000 0.500000 0.175286
Si Si2 0.000000 0.000000 0.250000
Si Si3 0.000000 0.500000 0.000000
Si Si4 0.751251 0.813473 0.091467
O O1 0.229461 0.411183 0.135458
O O2 0.977386 0.252494 0.213089
O O3 0.815033 0.324647 0.963226
O O4 0.500000 0.000000 0.091493
O O5 0.000000 0.000000 0.102106
#
# Coordination Sequence:
#
# PCOD9549840 Si02
#       4
#     4   2   2   8
#     4  11  28  51  78 120 154 207 262 331 394 480
#     4  12  28  48  84 110 158 202 264 326 404 464
#     4  10  26  46  80 116 160 212 272 330 404 482
#     4  11  26  49  78 113 159 207 263 329 397 479
#
# _framework density 23.982704999999999
#
# number of rings (size 3 to 8) (size 9 to 14) (size 15 to 20)
#    0.000    1.000    2.500    0.750    3.500   19.000 
#    0.000    0.000    5.500    0.000    0.000    0.000 
#    0.000    0.000    0.000    0.000    0.000    0.000 
#
# Total GULP energy -89594.500600 kJ/mol
# GULP energy per Si atom -5599.656287 kJ/mol
# Density = 2.392812 g / cm^3
# Si number density = 23.982705 Si / 1000 Ang^3
#
#
#
# Elastic Constant Matrix: (Units=GPa)
#
#
# Indices 1 2 3 4 5 6 
#
# 1 226.2339 105.5731 107.1313 0.0000 0.0000 0.0000
# 2 105.5731 226.2339 107.1313 0.0000 0.0000 0.0000
# 3 107.1313 107.1313 230.6308 0.0000 0.0000 0.0000
# 4 0.0000 0.0000 0.0000 -49.1883 0.0000 0.0000
# 5 0.0000 0.0000 0.0000 0.0000 -49.1883 0.0000
# 6 0.0000 0.0000 0.0000 0.0000 0.0000 60.2343
#
#
#
# Elastic Compliance Matrix: (Units=1/GPa)
#
#
# Indices 1 2 3 4 5 6 
#
# 1 0.006296 -0.001991 -0.002000 0.000000 0.000000 0.000000
# 2 -0.001991 0.006296 -0.002000 0.000000 0.000000 0.000000
# 3 -0.002000 -0.002000 0.006194 0.000000 0.000000 0.000000
# 4 0.000000 0.000000 0.000000 -0.020330 0.000000 0.000000
# 5 0.000000 0.000000 0.000000 0.000000 -0.020330 0.000000
# 6 0.000000 0.000000 0.000000 0.000000 0.000000 0.016602
#
#
# Mechanical properties :
#
#
# Convention : Reuss Voigt Hill
#
# Bulk Modulus (GPa) = 146.95282 146.97444 146.96363
# Shear Modulus (GPa) = 556.88307 16.58906 286.73606
#
# Velocity S-wave (km/s) = 15.25471 2.63289 10.94619
# Velocity P-wave (km/s) = 19.27906 8.40591 14.87181
#
# Compressibility (1/GPa) = 0.00680491
#
# Stress axis : x y z
#
# Youngs Moduli (GPa) = 158.82017 158.82017 161.45143
#
# Poissons Ratio (x) = 0.31625 0.32287
# Poissons Ratio (y) = 0.31625 0.32287
# Poissons Ratio (z) = 0.31761 0.31761
#
# Static dielectric constant tensor:
#      x y z
#    x 1.966840 0.000000 0.000000 
#    y 0.000000 1.966840 0.000000 
#    z 0.000000 0.000000 1.927660 
# 
# From -- ./inp_files/6388.got.cif
#   From: 2010.05.17/outbox.cif.g08.bks.cpg/sg93_4_cif.got.tgz:6388.got - 2010.06.03 19:38:44.
