data_PCOD9549188
_publ_section_title
;
Structure prediction by ZEFSAII (Michael W. Deem and Ramdas Pophale) SiO2 
 PCOD9549188
Probable space group: P 41 21 2
;
_chemical_formula_sum "Si O2"
_cell_formula_units_Z 32
_cell_length_a 13.030345
_cell_length_b 13.030345
_cell_length_c 8.437928
_cell_angle_alpha 90.000000
_cell_angle_beta 90.000000
_cell_angle_gamma 90.000000
_cell_volume 1432.674874
_symmetry_space_group_name_H-M "P 41 21 2"
_symmetry_group_IT_number 92
_symmetry_cell_setting 'tetragonal'
loop_
_space_group_symop_operation_xyz
x,y,z
1/2-y,1/2+x,1/4+z
-x,-y,1/2+z
1/2+y,1/2-x,3/4+z
1/2+x,1/2-y,3/4-z
1/2-x,1/2+y,1/4-z
y,x,-z
-y,-x,1/2-z
loop_
_atom_site_type_symbol
_atom_site_label
_atom_site_fract_x
_atom_site_fract_y
_atom_site_fract_z
Si Si1 0.739650 0.416834 0.560284
Si Si2 0.749206 0.137905 0.120252
Si Si3 0.252468 0.071862 0.812918
Si Si4 0.631139 0.740749 0.376530
O O1 0.829450 0.352919 0.475300
O O2 0.637566 0.350711 0.530718
O O3 0.752765 0.445119 0.747289
O O4 0.733326 0.534335 0.508581
O O5 0.774024 0.225977 0.250000
O O6 0.742352 0.028589 0.205520
O O7 0.847504 0.153581 0.004088
O O8 0.347908 0.150245 0.793207
O O9 0.726448 0.726448 0.500000
#
# Coordination Sequence:
#
# PCOD9549188 Si02
#       4
#     8   8   8   8
#     4  10  22  43  69  99 146 189 236 308 366 426
#     4  11  22  41  76 106 138 192 254 297 361 453
#     4  10  21  44  69  98 147 190 238 304 369 433
#     4  11  22  43  70 101 146 188 238 307 370 426
#
# _framework density 22.335840999999999
#
# number of rings (size 3 to 8) (size 9 to 14) (size 15 to 20)
#    0.000    1.500    7.500    0.000    0.000    5.000 
#    0.000    2.500    0.000    0.000    0.000    0.000 
#    0.000    0.000    0.000    0.000    0.000    0.000 
#
# Total GULP energy -178196.174033 kJ/mol
# GULP energy per Si atom -5568.630439 kJ/mol
# Density = 2.228500 g / cm^3
# Si number density = 22.335841 Si / 1000 Ang^3
#
#
#
# Elastic Constant Matrix: (Units=GPa)
#
#
# Indices 1 2 3 4 5 6 
#
# 1 131.6154 60.2226 64.0204 0.0000 0.0000 0.0000
# 2 60.2226 131.6130 64.0202 0.0000 0.0000 0.0000
# 3 64.0204 64.0202 83.9569 0.0000 0.0000 0.0000
# 4 0.0000 0.0000 0.0000 43.8733 0.0000 0.0000
# 5 0.0000 0.0000 0.0000 0.0000 43.8734 0.0000
# 6 0.0000 0.0000 0.0000 0.0000 0.0000 17.4300
#
#
#
# Elastic Compliance Matrix: (Units=1/GPa)
#
#
# Indices 1 2 3 4 5 6 
#
# 1 0.012311 -0.001696 -0.008095 0.000000 0.000000 0.000000
# 2 -0.001696 0.012312 -0.008095 0.000000 0.000000 0.000000
# 3 -0.008095 -0.008095 0.024256 0.000000 0.000000 0.000000
# 4 0.000000 0.000000 0.000000 0.022793 0.000000 0.000000
# 5 0.000000 0.000000 0.000000 0.000000 0.022793 0.000000
# 6 0.000000 0.000000 0.000000 0.000000 0.000000 0.057372
#
#
# Mechanical properties :
#
#
# Convention : Reuss Voigt Hill
#
# Bulk Modulus (GPa) = 76.28889 80.41241 78.35065
# Shear Modulus (GPa) = 26.04475 31.63013 28.83744
#
# Velocity S-wave (km/s) = 3.41845 3.76721 3.59706
# Velocity P-wave (km/s) = 7.05766 7.41635 7.23923
#
# Compressibility (1/GPa) = 0.01310807
#
# Stress axis : x y z
#
# Youngs Moduli (GPa) = 81.22636 81.22430 41.22679
#
# Poissons Ratio (x) = 0.13774 0.33372
# Poissons Ratio (y) = 0.13775 0.33373
# Poissons Ratio (z) = 0.65750 0.65750
#
# Static dielectric constant tensor:
#      x y z
#    x 1.944170 0.000000 0.000000 
#    y 0.000000 1.944170 0.000000 
#    z 0.000000 0.000000 2.021500 
# 
# From -- ./inp_files/1110.got.cif
#   From: 2010.05.17/outbox.cif.g08.bks.cpg/sg92_1_cif.got.tgz:1110.got - 2010.06.03 19:35:17.
