data_PCOD9549331
_publ_section_title
;
Structure prediction by ZEFSAII (Michael W. Deem and Ramdas Pophale) SiO2 
 PCOD9549331
Probable space group: P 41 21 2
;
_chemical_formula_sum "Si O2"
_cell_formula_units_Z 48
_cell_length_a 9.102518
_cell_length_b 9.102518
_cell_length_c 27.405275
_cell_angle_alpha 90.000000
_cell_angle_beta 90.000000
_cell_angle_gamma 90.000000
_cell_volume 2270.686914
_symmetry_space_group_name_H-M "P 41 21 2"
_symmetry_group_IT_number 92
_symmetry_cell_setting 'tetragonal'
loop_
_space_group_symop_operation_xyz
x,y,z
1/2-y,1/2+x,1/4+z
-x,-y,1/2+z
1/2+y,1/2-x,3/4+z
1/2+x,1/2-y,3/4-z
1/2-x,1/2+y,1/4-z
y,x,-z
-y,-x,1/2-z
loop_
_atom_site_type_symbol
_atom_site_label
_atom_site_fract_x
_atom_site_fract_y
_atom_site_fract_z
Si Si1 0.054232 0.652328 0.565773
Si Si2 0.658663 0.619873 0.266391
Si Si3 0.075606 0.087880 0.898529
Si Si4 0.033437 0.819135 0.823509
Si Si5 0.212611 0.212611 0.500000
Si Si6 0.048811 0.301778 0.815595
Si Si7 0.948373 0.051628 0.750000
O O1 0.112191 0.763495 0.524699
O O2 0.190693 0.573922 0.592141
O O3 0.959102 0.512996 0.550918
O O4 0.934512 0.751649 0.593056
O O5 0.522671 0.584198 0.302772
O O6 0.723447 0.465602 0.245333
O O7 0.783412 0.696989 0.298675
O O8 0.045559 0.239620 0.870383
O O9 0.047421 0.944712 0.864376
O O10 0.185302 0.763966 0.796630
O O11 0.948365 0.900552 0.779787
O O12 0.951943 0.186262 0.785868
#
# Coordination Sequence:
#
# PCOD9549331 Si02
#       7
#     8   8   8   8   4   8   4
#     4  12  24  41  69  99 125 181 224 265 340 402
#     4  12  24  45  67  99 134 176 221 281 332 392
#     4  11  26  43  63  99 141 165 220 288 325 396
#     4  10  23  42  68  95 125 177 222 271 328 390
#     4  11  22  45  68  94 136 175 228 273 324 400
#     4  11  24  43  66  95 134 175 220 269 340 387
#     4   9  20  41  64  90 128 167 218 271 314 398
#
# _framework density 21.138976
#
# number of rings (size 3 to 8) (size 9 to 14) (size 15 to 20)
#    0.000    1.000    5.000    1.000    4.667    0.000 
#    0.000    1.667    0.000    0.000    0.000    0.000 
#    0.000    0.000    0.000    0.000    0.000    0.000 
#
# Total GULP energy -267361.102503 kJ/mol
# GULP energy per Si atom -5570.022969 kJ/mol
# Density = 2.109086 g / cm^3
# Si number density = 21.138976 Si / 1000 Ang^3
#
#
#
# Elastic Constant Matrix: (Units=GPa)
#
#
# Indices 1 2 3 4 5 6 
#
# 1 73.2770 23.2712 12.4732 0.0000 0.0000 0.0000
# 2 23.2712 73.2766 12.4735 0.0000 0.0000 0.0000
# 3 12.4732 12.4735 37.9929 0.0000 0.0000 0.0000
# 4 0.0000 0.0000 0.0000 27.0022 0.0000 0.0000
# 5 0.0000 0.0000 0.0000 0.0000 27.0021 0.0000
# 6 0.0000 0.0000 0.0000 0.0000 0.0000 42.5473
#
#
#
# Elastic Compliance Matrix: (Units=1/GPa)
#
#
# Indices 1 2 3 4 5 6 
#
# 1 0.015658 -0.004340 -0.003716 0.000000 0.000000 0.000000
# 2 -0.004340 0.015658 -0.003716 0.000000 0.000000 0.000000
# 3 -0.003716 -0.003716 0.028760 0.000000 0.000000 0.000000
# 4 0.000000 0.000000 0.000000 0.037034 0.000000 0.000000
# 5 0.000000 0.000000 0.000000 0.000000 0.037034 0.000000
# 6 0.000000 0.000000 0.000000 0.000000 0.000000 0.023503
#
#
# Mechanical properties :
#
#
# Convention : Reuss Voigt Hill
#
# Bulk Modulus (GPa) = 27.37249 31.22026 29.29637
# Shear Modulus (GPa) = 25.85746 28.39888 27.12817
#
# Velocity S-wave (km/s) = 3.50124 3.66927 3.58624
# Velocity P-wave (km/s) = 5.41496 5.72298 5.57110
#
# Compressibility (1/GPa) = 0.03653304
#
# Stress axis : x y z
#
# Youngs Moduli (GPa) = 63.86666 63.86612 34.76999
#
# Poissons Ratio (x) = 0.27718 0.12919
# Poissons Ratio (y) = 0.27719 0.12920
# Poissons Ratio (z) = 0.23730 0.23731
#
# Static dielectric constant tensor:
#      x y z
#    x 1.800710 0.000000 0.000000 
#    y 0.000000 1.800710 0.000000 
#    z 0.000000 0.000000 1.777760 
# 
# From -- ./inp_files/4547.got.cif
#   From: 2010.05.17/outbox.cif.g08.bks.cpg/sg92_3_cif.got.tgz:4547.got - 2010.06.03 19:35:17.
