data_PCOD9549473
_publ_section_title
;
Structure prediction by ZEFSAII (Michael W. Deem and Ramdas Pophale) SiO2 
 PCOD9549473
Probable space group: P 41 21 2
;
_chemical_formula_sum "Si O2"
_cell_formula_units_Z 24
_cell_length_a 13.277273
_cell_length_b 13.277273
_cell_length_c 6.649158
_cell_angle_alpha 90.000000
_cell_angle_beta 90.000000
_cell_angle_gamma 90.000000
_cell_volume 1172.153323
_symmetry_space_group_name_H-M "P 41 21 2"
_symmetry_group_IT_number 92
_symmetry_cell_setting 'tetragonal'
loop_
_space_group_symop_operation_xyz
x,y,z
1/2-y,1/2+x,1/4+z
-x,-y,1/2+z
1/2+y,1/2-x,3/4+z
1/2+x,1/2-y,3/4-z
1/2-x,1/2+y,1/4-z
y,x,-z
-y,-x,1/2-z
loop_
_atom_site_type_symbol
_atom_site_label
_atom_site_fract_x
_atom_site_fract_y
_atom_site_fract_z
Si Si1 0.241251 0.896023 0.386628
Si Si2 0.140049 0.024713 0.736869
Si Si3 0.739388 0.419674 0.586676
O O1 0.150805 0.849196 0.250000
O O2 0.321236 0.807598 0.414848
O O3 0.202741 0.951770 0.588026
O O4 0.292949 0.985210 0.261463
O O5 0.105824 0.140324 0.704356
O O6 0.200841 0.042385 0.945497
O O7 0.035671 0.964330 0.750000
#
# Coordination Sequence:
#
# PCOD9549473 Si02
#       3
#     8   8   8
#     4  12  24  45  70 102 146 182 239 305 362 436
#     4  11  23  42  76 100 138 187 242 301 355 427
#     4  11  26  45  67 109 140 187 246 297 367 442
#
# _framework density 20.475138000000001
#
# number of rings (size 3 to 8) (size 9 to 14) (size 15 to 20)
#    0.000    0.667    6.667    2.000    4.667    5.333 
#    6.000    0.000    0.000    0.000    0.000    0.000 
#    0.000    0.000    0.000    0.000    0.000    0.000 
#
# Total GULP energy -133744.528264 kJ/mol
# GULP energy per Si atom -5572.688678 kJ/mol
# Density = 2.042854 g / cm^3
# Si number density = 20.475138 Si / 1000 Ang^3
#
#
#
# Elastic Constant Matrix: (Units=GPa)
#
#
# Indices 1 2 3 4 5 6 
#
# 1 124.2683 82.6078 62.6810 0.0000 0.0000 0.0000
# 2 82.6078 124.2685 62.6818 0.0000 0.0000 0.0000
# 3 62.6810 62.6818 122.2668 0.0000 0.0000 0.0000
# 4 0.0000 0.0000 0.0000 32.0220 0.0000 0.0000
# 5 0.0000 0.0000 0.0000 0.0000 32.0231 0.0000
# 6 0.0000 0.0000 0.0000 0.0000 0.0000 51.2056
#
#
#
# Elastic Compliance Matrix: (Units=1/GPa)
#
#
# Indices 1 2 3 4 5 6 
#
# 1 0.015508 -0.008496 -0.003595 0.000000 0.000000 0.000000
# 2 -0.008496 0.015508 -0.003595 0.000000 0.000000 0.000000
# 3 -0.003595 -0.003595 0.011865 0.000000 0.000000 0.000000
# 4 0.000000 0.000000 0.000000 0.031229 0.000000 0.000000
# 5 0.000000 0.000000 0.000000 0.000000 0.031227 0.000000
# 6 0.000000 0.000000 0.000000 0.000000 0.000000 0.019529
#
#
# Mechanical properties :
#
#
# Convention : Reuss Voigt Hill
#
# Bulk Modulus (GPa) = 86.88364 87.41608 87.14986
# Shear Modulus (GPa) = 31.23576 33.90569 32.57072
#
# Velocity S-wave (km/s) = 3.91006 4.07374 3.99274
# Velocity P-wave (km/s) = 7.93162 8.05690 7.99451
#
# Compressibility (1/GPa) = 0.01150965
#
# Stress axis : x y z
#
# Youngs Moduli (GPa) = 64.48361 64.48320 84.28310
#
# Poissons Ratio (x) = 0.54782 0.30298
# Poissons Ratio (y) = 0.54783 0.30300
# Poissons Ratio (z) = 0.23181 0.23182
#
# Static dielectric constant tensor:
#      x y z
#    x 1.726110 0.000000 0.000000 
#    y 0.000000 1.726110 0.000000 
#    z 0.000000 0.000000 1.830060 
# 
# From -- ./inp_files/217.got.cif
#   From: 2010.05.17/outbox.cif.g08.bks.cpg/sg92_1_cif.got.tgz:217.got - 2010.06.03 19:35:17.
