data_PCOD9549452
_publ_section_title
;
Structure prediction by ZEFSAII (Michael W. Deem and Ramdas Pophale) SiO2 
 PCOD9549452
Probable space group: P 41 21 2
;
_chemical_formula_sum "Si O2"
_cell_formula_units_Z 24
_cell_length_a 13.999182
_cell_length_b 13.999182
_cell_length_c 4.940858
_cell_angle_alpha 90.000000
_cell_angle_beta 90.000000
_cell_angle_gamma 90.000000
_cell_volume 968.295006
_symmetry_space_group_name_H-M "P 41 21 2"
_symmetry_group_IT_number 92
_symmetry_cell_setting 'tetragonal'
loop_
_space_group_symop_operation_xyz
x,y,z
1/2-y,1/2+x,1/4+z
-x,-y,1/2+z
1/2+y,1/2-x,3/4+z
1/2+x,1/2-y,3/4-z
1/2-x,1/2+y,1/4-z
y,x,-z
-y,-x,1/2-z
loop_
_atom_site_type_symbol
_atom_site_label
_atom_site_fract_x
_atom_site_fract_y
_atom_site_fract_z
Si Si1 0.609797 0.901799 0.338951
Si Si2 0.877653 0.021371 0.004938
Si Si3 0.348766 0.207397 0.344547
O O1 0.498605 0.884973 0.261155
O O2 0.660517 0.825613 0.536089
O O3 0.648750 0.884934 0.037447
O O4 0.941277 0.058724 0.250000
O O5 0.771284 0.053926 0.079085
O O6 0.915389 0.084612 0.750000
O O7 0.909706 0.909706 0.000000
O O8 0.275684 0.275684 0.500000
#
# Coordination Sequence:
#
# PCOD9549452 Si02
#       3
#     8   8   8
#     4  12  25  45  68  92 128 179 227 263 319 400
#     4   9  17  32  56  88 127 170 208 249 324 413
#     4  11  22  41  68  98 131 167 217 284 340 381
#
# _framework density 24.785834000000001
#
# number of rings (size 3 to 8) (size 9 to 14) (size 15 to 20)
#    0.000    1.333    0.000    9.000    0.000    0.000 
#    0.000   10.000    0.000    0.000    0.000    0.000 
#    0.000    0.000    0.000    0.000    0.000    0.000 
#
# Total GULP energy -133648.594457 kJ/mol
# GULP energy per Si atom -5568.691436 kJ/mol
# Density = 2.472942 g / cm^3
# Si number density = 24.785834 Si / 1000 Ang^3
#
#
#
# Elastic Constant Matrix: (Units=GPa)
#
#
# Indices 1 2 3 4 5 6 
#
# 1 99.5709 10.6591 35.9394 0.0000 0.0000 0.0000
# 2 10.6591 99.5713 35.9402 0.0000 0.0000 0.0000
# 3 35.9394 35.9402 200.7115 0.0000 0.0000 0.0000
# 4 0.0000 0.0000 0.0000 24.0781 0.0000 0.0000
# 5 0.0000 0.0000 0.0000 0.0000 24.0779 0.0000
# 6 0.0000 0.0000 0.0000 0.0000 0.0000 37.7988
#
#
#
# Elastic Compliance Matrix: (Units=1/GPa)
#
#
# Indices 1 2 3 4 5 6 
#
# 1 0.010759 -0.000488 -0.001839 0.000000 0.000000 0.000000
# 2 -0.000488 0.010759 -0.001839 0.000000 0.000000 0.000000
# 3 -0.001839 -0.001839 0.005641 0.000000 0.000000 0.000000
# 4 0.000000 0.000000 0.000000 0.041532 0.000000 0.000000
# 5 0.000000 0.000000 0.000000 0.000000 0.041532 0.000000
# 6 0.000000 0.000000 0.000000 0.000000 0.000000 0.026456
#
#
# Mechanical properties :
#
#
# Convention : Reuss Voigt Hill
#
# Bulk Modulus (GPa) = 53.11621 62.77013 57.94317
# Shear Modulus (GPa) = 33.04982 38.34527 35.69755
#
# Velocity S-wave (km/s) = 3.65556 3.93754 3.79917
# Velocity P-wave (km/s) = 6.26850 6.78618 6.53247
#
# Compressibility (1/GPa) = 0.01882664
#
# Stress axis : x y z
#
# Youngs Moduli (GPa) = 92.94401 92.94418 177.27566
#
# Poissons Ratio (x) = 0.04535 0.32604
# Poissons Ratio (y) = 0.04535 0.32605
# Poissons Ratio (z) = 0.17094 0.17094
#
# Static dielectric constant tensor:
#      x y z
#    x 2.053030 0.000000 0.000000 
#    y 0.000000 2.053030 0.000000 
#    z 0.000000 0.000000 1.855430 
# 
# From -- ./inp_files/208.got.cif
#   From: 2010.05.17/outbox.cif.g08.bks.cpg/sg92_1_cif.got.tgz:208.got - 2010.06.03 19:35:17.
