data_PCOD9549621
_publ_section_title
;
Structure prediction by ZEFSAII (Michael W. Deem and Ramdas Pophale) SiO2 
 PCOD9549621
Probable space group: P 42 2 2
;
_chemical_formula_sum "Si O2"
_cell_formula_units_Z 56
_cell_length_a 11.819496
_cell_length_b 11.819496
_cell_length_c 22.682061
_cell_angle_alpha 90.000000
_cell_angle_beta 90.000000
_cell_angle_gamma 90.000000
_cell_volume 3168.694938
_symmetry_space_group_name_H-M "P 42 2 2"
_symmetry_group_IT_number 93
_symmetry_cell_setting 'tetragonal'
loop_
_space_group_symop_operation_xyz
x,y,z
-y,x,1/2+z
-x,-y,z
y,-x,1/2+z
x,-y,-z
-x,y,-z
y,x,1/2-z
-y,-x,1/2-z
loop_
_atom_site_type_symbol
_atom_site_label
_atom_site_fract_x
_atom_site_fract_y
_atom_site_fract_z
Si Si1 0.787139 0.707787 0.546287
Si Si2 0.476358 0.628781 0.070650
Si Si3 0.130843 0.958050 0.436254
Si Si4 0.796713 0.105672 0.668025
Si Si5 0.025116 0.201850 0.721268
Si Si6 0.028800 0.375499 0.622166
Si Si7 0.686129 0.223874 0.908003
O O1 0.676733 0.651292 0.576587
O O2 0.842664 0.825599 0.566321
O O3 0.884918 0.620609 0.567190
O O4 0.762095 0.718733 0.476805
O O5 0.500000 0.500000 0.088435
O O6 0.569386 0.709326 0.100726
O O7 0.500000 0.636036 0.000000
O O8 0.170024 0.000000 0.500000
O O9 0.197710 0.017064 0.384372
O O10 0.000000 0.000000 0.431906
O O11 0.744122 0.218786 0.640041
O O12 0.927701 0.131115 0.686852
O O13 0.743445 0.047678 0.725382
O O14 0.119588 0.119588 0.750000
O O15 0.070297 0.294567 0.675295
O O16 0.000000 0.500000 0.644572
O O17 0.910236 0.326856 0.599566
#
# Coordination Sequence:
#
# PCOD9549621 Si02
#       7
#     8   8   8   8   8   8   8
#     4  11  20  32  52  85 123 149 178 236 297 355
#     4   9  19  35  55  77 105 150 201 239 283 348
#     4  11  20  29  47  84 127 151 174 216 284 365
#     4  10  18  33  52  78 107 146 188 222 272 344
#     4  10  20  34  54  73 106 154 193 226 264 348
#     4  11  21  32  52  83 116 144 183 240 301 358
#     4  10  19  32  53  84 115 146 182 234 299 353
#
# _framework density 17.672891
#
# number of rings (size 3 to 8) (size 9 to 14) (size 15 to 20)
#    0.000    1.714    2.857    4.714    2.000    0.571 
#    0.000    0.000    6.286    0.000    0.000    7.000 
#    0.000    0.000    0.000    0.000    0.000    0.000 
#
# Total GULP energy -311792.632671 kJ/mol
# GULP energy per Si atom -5567.725583 kJ/mol
# Density = 1.763267 g / cm^3
# Si number density = 17.672891 Si / 1000 Ang^3
#
#
#
# Elastic Constant Matrix: (Units=GPa)
#
#
# Indices 1 2 3 4 5 6 
#
# 1 73.8677 22.1642 15.1445 0.0000 0.0000 0.0000
# 2 22.1642 73.8677 15.1445 0.0000 0.0000 0.0000
# 3 15.1445 15.1445 83.5067 0.0000 0.0000 0.0000
# 4 0.0000 0.0000 0.0000 0.5531 0.0000 0.0000
# 5 0.0000 0.0000 0.0000 0.0000 0.5531 0.0000
# 6 0.0000 0.0000 0.0000 0.0000 0.0000 19.5097
#
#
#
# Elastic Compliance Matrix: (Units=1/GPa)
#
#
# Indices 1 2 3 4 5 6 
#
# 1 0.015193 -0.004148 -0.002003 0.000000 0.000000 0.000000
# 2 -0.004148 0.015193 -0.002003 0.000000 0.000000 0.000000
# 3 -0.002003 -0.002003 0.012702 0.000000 0.000000 0.000000
# 4 0.000000 0.000000 0.000000 1.807886 0.000000 0.000000
# 5 0.000000 0.000000 0.000000 0.000000 1.807886 0.000000
# 6 0.000000 0.000000 0.000000 0.000000 0.000000 0.051256
#
#
# Mechanical properties :
#
#
# Convention : Reuss Voigt Hill
#
# Bulk Modulus (GPa) = 37.34229 37.34982 37.34606
# Shear Modulus (GPa) = 1.33856 16.04246 8.69051
#
# Velocity S-wave (km/s) = 0.87124 3.01615 2.21993
# Velocity P-wave (km/s) = 4.71038 5.77143 5.26769
#
# Compressibility (1/GPa) = 0.02677929
#
# Stress axis : x y z
#
# Youngs Moduli (GPa) = 65.81969 65.81969 78.73008
#
# Poissons Ratio (x) = 0.27302 0.15770
# Poissons Ratio (y) = 0.27302 0.15770
# Poissons Ratio (z) = 0.13184 0.13184
#
# Static dielectric constant tensor:
#      x y z
#    x 1.643450 0.000000 0.000000 
#    y 0.000000 1.643450 0.000000 
#    z 0.000000 0.000000 1.631920 
# 
# From -- ./inp_files/6903.got.cif
#   From: 2010.05.17/outbox.cif.g08.bks.cpg/sg93_4_cif.got.tgz:6903.got - 2010.06.03 19:38:44.
