data_PCOD9549947
_publ_section_title
;
Structure prediction by ZEFSAII (Michael W. Deem and Ramdas Pophale) SiO2 
 PCOD9549947
Probable space group: P 42 21 2
;
_chemical_formula_sum "Si O2"
_cell_formula_units_Z 48
_cell_length_a 10.294748
_cell_length_b 10.294748
_cell_length_c 17.736103
_cell_angle_alpha 90.000000
_cell_angle_beta 90.000000
_cell_angle_gamma 90.000000
_cell_volume 1879.704766
_symmetry_space_group_name_H-M "P 42 21 2"
_symmetry_group_IT_number 94
_symmetry_cell_setting 'tetragonal'
loop_
_space_group_symop_operation_xyz
x,y,z
1/2-y,1/2+x,1/2+z
-x,-y,z
1/2+y,1/2-x,1/2+z
1/2+x,1/2-y,1/2-z
1/2-x,1/2+y,1/2-z
y,x,-z
-y,-x,-z
loop_
_atom_site_type_symbol
_atom_site_label
_atom_site_fract_x
_atom_site_fract_y
_atom_site_fract_z
Si Si1 0.784694 0.104636 0.721503
Si Si2 0.681776 0.131509 0.465014
Si Si3 0.280190 0.537412 0.282146
Si Si4 0.464985 0.297428 0.553343
Si Si5 0.048660 0.351814 0.411979
Si Si6 0.084935 0.383179 0.191386
O O1 0.938084 0.129084 0.734190
O O2 0.684364 0.228309 0.734441
O O3 0.740670 0.030171 0.644971
O O4 0.736219 0.004226 0.785887
O O5 0.809667 0.190334 0.500000
O O6 0.564713 0.215744 0.501612
O O7 0.671756 0.991078 0.501221
O O8 0.682926 0.144254 0.376105
O O9 0.330143 0.535731 0.368032
O O10 0.149022 0.452554 0.263862
O O11 0.404304 0.404304 0.500000
O O12 0.351725 0.203406 0.585806
O O13 0.000000 0.500000 0.397134
O O14 0.000000 0.500000 0.156674
#
# Coordination Sequence:
#
# PCOD9549947 Si02
#       6
#     8   8   8   8   8   8
#     4  11  20  39  62  94 126 175 224 273 336 399
#     4  11  22  36  62  93 124 166 214 274 332 386
#     4  11  22  37  66  92 133 171 223 281 333 404
#     4  11  22  39  63  93 125 176 217 269 330 401
#     4  10  18  39  65  85 121 174 219 262 322 403
#     4  10  20  36  59  92 122 168 224 262 315 417
#
# _framework density 25.535927999999998
#
# number of rings (size 3 to 8) (size 9 to 14) (size 15 to 20)
#    0.000    1.333    5.000    4.000    0.000    1.667 
#    0.000    0.833    0.000    2.500    0.000    0.000 
#    0.000    0.000    0.000    0.000    0.000    0.000 
#
# Total GULP energy -267914.766231 kJ/mol
# GULP energy per Si atom -5581.557630 kJ/mol
# Density = 2.547781 g / cm^3
# Si number density = 25.535928 Si / 1000 Ang^3
#
#
#
# Elastic Constant Matrix: (Units=GPa)
#
#
# Indices 1 2 3 4 5 6 
#
# 1 62.3649 42.8092 25.7662 0.0000 0.0000 0.0000
# 2 42.8092 62.3661 25.7658 0.0000 0.0000 0.0000
# 3 25.7662 25.7658 156.7948 0.0000 0.0000 0.0000
# 4 0.0000 0.0000 0.0000 27.7484 0.0000 0.0000
# 5 0.0000 0.0000 0.0000 0.0000 27.7492 0.0000
# 6 0.0000 0.0000 0.0000 0.0000 0.0000 47.6819
#
#
#
# Elastic Compliance Matrix: (Units=1/GPa)
#
#
# Indices 1 2 3 4 5 6 
#
# 1 0.030738 -0.020397 -0.001699 0.000000 0.000000 0.000000
# 2 -0.020397 0.030737 -0.001699 0.000000 0.000000 0.000000
# 3 -0.001699 -0.001699 0.006936 0.000000 0.000000 0.000000
# 4 0.000000 0.000000 0.000000 0.036038 0.000000 0.000000
# 5 0.000000 0.000000 0.000000 0.000000 0.036037 0.000000
# 6 0.000000 0.000000 0.000000 0.000000 0.000000 0.020972
#
#
# Mechanical properties :
#
#
# Convention : Reuss Voigt Hill
#
# Bulk Modulus (GPa) = 48.02994 52.24534 50.13764
# Shear Modulus (GPa) = 23.14927 33.11488 28.13207
#
# Velocity S-wave (km/s) = 3.01414 3.60501 3.32274
# Velocity P-wave (km/s) = 5.56444 6.15078 5.86494
#
# Compressibility (1/GPa) = 0.02082034
#
# Stress axis : x y z
#
# Youngs Moduli (GPa) = 32.53324 32.53400 144.17032
#
# Poissons Ratio (x) = 0.66359 0.24500
# Poissons Ratio (y) = 0.66358 0.24497
# Poissons Ratio (z) = 0.05529 0.05528
#
# Static dielectric constant tensor:
#      x y z
#    x 2.137260 0.000000 0.000000 
#    y 0.000000 2.137250 0.000000 
#    z 0.000000 0.000000 1.998750 
# 
# From -- ./inp_files/4120.got.cif
#   From: 2010.05.17/outbox.cif.g08.bks.cpg/sg94_3_cif.got.tgz:4120.got - 2010.06.03 19:43:16.
