data_PCOD9549645
_publ_section_title
;
Structure prediction by ZEFSAII (Michael W. Deem and Ramdas Pophale) SiO2 
 PCOD9549645
Probable space group: P 42 2 2
;
_chemical_formula_sum "Si O2"
_cell_formula_units_Z 32
_cell_length_a 14.116070
_cell_length_b 14.116070
_cell_length_c 8.355845
_cell_angle_alpha 90.000000
_cell_angle_beta 90.000000
_cell_angle_gamma 90.000000
_cell_volume 1665.014354
_symmetry_space_group_name_H-M "P 42 2 2"
_symmetry_group_IT_number 93
_symmetry_cell_setting 'tetragonal'
loop_
_space_group_symop_operation_xyz
x,y,z
-y,x,1/2+z
-x,-y,z
y,-x,1/2+z
x,-y,-z
-x,y,-z
y,x,1/2-z
-y,-x,1/2-z
loop_
_atom_site_type_symbol
_atom_site_label
_atom_site_fract_x
_atom_site_fract_y
_atom_site_fract_z
Si Si1 0.803972 0.410680 0.887456
Si Si2 0.687303 0.176062 0.302239
Si Si3 0.015175 0.613131 0.683939
Si Si4 0.679033 0.534472 0.679883
O O1 0.881720 0.376492 0.761160
O O2 0.712998 0.450031 0.795544
O O3 0.838655 0.500000 0.000000
O O4 0.787142 0.331142 0.018627
O O5 0.790139 0.209862 0.250000
O O6 0.610006 0.233606 0.194568
O O7 0.664467 0.066040 0.286093
O O8 0.000000 0.500000 0.688815
O O9 0.000000 0.643026 0.500000
O O10 0.666572 0.500000 0.500000
O O11 0.588510 0.588510 0.750000
#
# Coordination Sequence:
#
# PCOD9549645 Si02
#       4
#     8   8   8   8
#     4  10  19  33  56  80 107 145 191 236 285 345
#     4  10  21  35  53  82 115 144 185 246 291 338
#     4  11  19  31  56  83 110 144 188 233 287 349
#     4  10  20  36  54  75 104 148 199 247 291 333
#
# _framework density 19.219054
#
# number of rings (size 3 to 8) (size 9 to 14) (size 15 to 20)
#    0.000    1.750    5.000    2.250    0.000    0.000 
#    0.000   30.000    0.000   17.250    0.000    0.000 
#    0.000   12.000    0.000    0.000    0.000    0.000 
#
# Total GULP energy -178664.589303 kJ/mol
# GULP energy per Si atom -5583.268416 kJ/mol
# Density = 1.917531 g / cm^3
# Si number density = 19.219054 Si / 1000 Ang^3
#
#
#
# Elastic Constant Matrix: (Units=GPa)
#
#
# Indices 1 2 3 4 5 6 
#
# 1 54.7791 54.5449 44.5983 0.0000 0.0000 0.0000
# 2 54.5449 54.7801 44.5987 0.0000 0.0000 0.0000
# 3 44.5983 44.5987 145.4760 0.0000 0.0000 0.0000
# 4 0.0000 0.0000 0.0000 16.5229 0.0000 0.0000
# 5 0.0000 0.0000 0.0000 0.0000 16.5223 0.0000
# 6 0.0000 0.0000 0.0000 0.0000 0.0000 16.3977
#
#
#
# Elastic Compliance Matrix: (Units=1/GPa)
#
#
# Indices 1 2 3 4 5 6 
#
# 1 2.136611 -2.124393 -0.003740 0.000000 0.000000 0.000000
# 2 -2.124393 2.136571 -0.003740 0.000000 0.000000 0.000000
# 3 -0.003740 -0.003740 0.009167 0.000000 0.000000 0.000000
# 4 0.000000 0.000000 0.000000 0.060522 0.000000 0.000000
# 5 0.000000 0.000000 0.000000 0.000000 0.060524 0.000000
# 6 0.000000 0.000000 0.000000 0.000000 0.000000 0.060984
#
#
# Mechanical properties :
#
#
# Convention : Reuss Voigt Hill
#
# Bulk Modulus (GPa) = 53.74935 60.27988 57.01462
# Shear Modulus (GPa) = 0.57245 17.30812 8.94029
#
# Velocity S-wave (km/s) = 0.54636 3.00421 2.15914
# Velocity P-wave (km/s) = 5.33155 6.59291 5.99549
#
# Compressibility (1/GPa) = 0.01860488
#
# Stress axis : x y z
#
# Youngs Moduli (GPa) = 0.46803 0.46804 109.08842
#
# Poissons Ratio (x) = 0.99430 0.40795
# Poissons Ratio (y) = 0.99428 0.40795
# Poissons Ratio (z) = 0.00175 0.00175
#
# Static dielectric constant tensor:
#      x y z
#    x 1.683100 0.000000 0.000000 
#    y 0.000000 1.683100 0.000000 
#    z 0.000000 0.000000 1.708450 
# 
# From -- ./inp_files/1529.got.cif
#   From: 2010.05.17/outbox.cif.g08.bks.cpg/sg93_1_cif.got.tgz:1529.got - 2010.06.03 19:38:44.
