data_PCOD9549499
_publ_section_title
;
Structure prediction by ZEFSAII (Michael W. Deem and Ramdas Pophale) SiO2 
 PCOD9549499
Probable space group: P 41 21 2
;
_chemical_formula_sum "Si O2"
_cell_formula_units_Z 40
_cell_length_a 7.921342
_cell_length_b 7.921342
_cell_length_c 26.180635
_cell_angle_alpha 90.000000
_cell_angle_beta 90.000000
_cell_angle_gamma 90.000000
_cell_volume 1642.773560
_symmetry_space_group_name_H-M "P 41 21 2"
_symmetry_group_IT_number 92
_symmetry_cell_setting 'tetragonal'
loop_
_space_group_symop_operation_xyz
x,y,z
1/2-y,1/2+x,1/4+z
-x,-y,1/2+z
1/2+y,1/2-x,3/4+z
1/2+x,1/2-y,3/4-z
1/2-x,1/2+y,1/4-z
y,x,-z
-y,-x,1/2-z
loop_
_atom_site_type_symbol
_atom_site_label
_atom_site_fract_x
_atom_site_fract_y
_atom_site_fract_z
Si Si1 0.947102 0.511780 0.138206
Si Si2 0.293837 0.757123 0.932209
Si Si3 0.013345 0.206851 0.217005
Si Si4 0.074889 0.791641 0.345974
Si Si5 0.597849 0.399387 0.689617
O O1 0.902791 0.686153 0.165290
O O2 0.790252 0.454590 0.103312
O O3 0.977686 0.363657 0.179887
O O4 0.108133 0.515516 0.101236
O O5 0.177484 0.919892 0.922846
O O6 0.348695 0.754562 0.990606
O O7 0.851524 0.148477 0.250000
O O8 0.086091 0.042855 0.187439
O O9 0.060175 0.859189 0.404391
O O10 0.255635 0.738257 0.323298
O O11 0.582042 0.417959 0.750000
#
# Coordination Sequence:
#
# PCOD9549499 Si02
#       5
#     8   8   8   8   8
#     4  11  26  48  70 106 146 184 239 293 359 427
#     4  11  26  45  70 101 147 180 238 294 354 427
#     4  12  26  45  72 104 140 194 240 289 362 426
#     4  11  24  45  69 104 141 183 241 290 350 430
#     4  11  25  45  71 104 141 188 237 291 365 422
#
# _framework density 24.349062
#
# number of rings (size 3 to 8) (size 9 to 14) (size 15 to 20)
#    0.000    0.800    4.000    3.000   11.200    0.800 
#    0.000    0.000    0.000    0.000    0.000    0.000 
#    0.000    0.000    0.000    0.000    0.000    0.000 
#
# Total GULP energy -223958.177251 kJ/mol
# GULP energy per Si atom -5598.954431 kJ/mol
# Density = 2.429364 g / cm^3
# Si number density = 24.349062 Si / 1000 Ang^3
#
#
#
# Elastic Constant Matrix: (Units=GPa)
#
#
# Indices 1 2 3 4 5 6 
#
# 1 54.1639 -17.8710 9.3621 0.0000 0.0000 0.0000
# 2 -17.8710 54.1629 9.3617 0.0000 0.0000 0.0000
# 3 9.3621 9.3617 133.4500 0.0000 0.0000 0.0000
# 4 0.0000 0.0000 0.0000 39.0499 0.0000 0.0000
# 5 0.0000 0.0000 0.0000 0.0000 39.0505 0.0000
# 6 0.0000 0.0000 0.0000 0.0000 0.0000 40.6148
#
#
#
# Elastic Compliance Matrix: (Units=1/GPa)
#
#
# Indices 1 2 3 4 5 6 
#
# 1 0.021235 0.007353 -0.002006 0.000000 0.000000 0.000000
# 2 0.007353 0.021236 -0.002006 0.000000 0.000000 0.000000
# 3 -0.002006 -0.002006 0.007775 0.000000 0.000000 0.000000
# 4 0.000000 0.000000 0.000000 0.025608 0.000000 0.000000
# 5 0.000000 0.000000 0.000000 0.000000 0.025608 0.000000
# 6 0.000000 0.000000 0.000000 0.000000 0.000000 0.024622
#
#
# Mechanical properties :
#
#
# Convention : Reuss Voigt Hill
#
# Bulk Modulus (GPa) = 17.56547 27.05362 22.30954
# Shear Modulus (GPa) = 36.13344 39.80465 37.96905
#
# Velocity S-wave (km/s) = 3.85642 4.04759 3.95316
# Velocity P-wave (km/s) = 5.20183 5.74272 5.47895
#
# Compressibility (1/GPa) = 0.05692989
#
# Stress axis : x y z
#
# Youngs Moduli (GPa) = 47.09143 47.09062 128.62002
#
# Poissons Ratio (x) = -0.34627 0.25796
# Poissons Ratio (y) = -0.34627 0.25796
# Poissons Ratio (z) = 0.09445 0.09444
#
# Static dielectric constant tensor:
#      x y z
#    x 1.982870 0.000000 0.000000 
#    y 0.000000 1.982870 0.000000 
#    z 0.000000 0.000000 1.891410 
# 
# From -- ./inp_files/3754.got.cif
#   From: 2010.05.17/outbox.cif.g08.bks.cpg/sg92_2_cif.got.tgz:3754.got - 2010.06.03 19:35:17.
