data_PCOD9549746
_publ_section_title
;
Structure prediction by ZEFSAII (Michael W. Deem and Ramdas Pophale) SiO2 
 PCOD9549746
Probable space group: P 42 2 2
;
_chemical_formula_sum "Si O2"
_cell_formula_units_Z 34
_cell_length_a 14.653218
_cell_length_b 14.653218
_cell_length_c 8.837225
_cell_angle_alpha 90.000000
_cell_angle_beta 90.000000
_cell_angle_gamma 90.000000
_cell_volume 1897.500653
_symmetry_space_group_name_H-M "P 42 2 2"
_symmetry_group_IT_number 93
_symmetry_cell_setting 'tetragonal'
loop_
_space_group_symop_operation_xyz
x,y,z
-y,x,1/2+z
-x,-y,z
y,-x,1/2+z
x,-y,-z
-x,y,-z
y,x,1/2-z
-y,-x,1/2-z
loop_
_atom_site_type_symbol
_atom_site_label
_atom_site_fract_x
_atom_site_fract_y
_atom_site_fract_z
Si Si1 0.487811 0.293744 0.168712
Si Si2 0.610175 0.002231 0.175892
Si Si3 0.681377 0.187499 0.695732
Si Si4 0.590257 0.168615 0.395051
Si Si5 0.500000 0.500000 0.250000
O O1 0.391538 0.255466 0.226051
O O2 0.558413 0.251477 0.288786
O O3 0.497090 0.402706 0.166113
O O4 0.500000 0.256574 0.000000
O O5 0.625396 0.089449 0.283915
O O6 0.500000 0.000000 0.172521
O O7 0.652423 0.913320 0.254112
O O8 0.640255 0.000000 0.000000
O O9 0.779653 0.220348 0.750000
O O10 0.665742 0.195651 0.516850
O O11 0.500000 0.142739 0.500000
#
# Coordination Sequence:
#
# PCOD9549746 Si02
#       5
#     8   8   8   8   2
#     4  11  23  36  52  74 109 161 215 246 284 341
#     4  11  20  36  60  86 111 152 204 261 312 361
#     4  11  23  37  56  84 120 148 198 254 313 358
#     4  10  21  36  57  81 108 151 203 254 302 352
#     4  12  26  36  52  70 122 176 220 236 280 340
#
# _framework density 17.918309000000001
#
# number of rings (size 3 to 8) (size 9 to 14) (size 15 to 20)
#    0.000    1.176    5.882    2.471    3.294    1.882 
#    0.000    0.000    0.000    0.000    0.000    0.000 
#    0.000   11.294    0.000    0.000    0.000    0.000 
#
# Total GULP energy -189621.819869 kJ/mol
# GULP energy per Si atom -5577.112349 kJ/mol
# Density = 1.787753 g / cm^3
# Si number density = 17.918309 Si / 1000 Ang^3
#
#
#
# Elastic Constant Matrix: (Units=GPa)
#
#
# Indices 1 2 3 4 5 6 
#
# 1 75.9319 26.9421 35.6712 0.0000 0.0000 0.0000
# 2 26.9421 75.9337 35.6724 0.0000 0.0000 0.0000
# 3 35.6712 35.6724 159.2056 0.0000 0.0000 0.0000
# 4 0.0000 0.0000 0.0000 -25.2177 0.0000 0.0000
# 5 0.0000 0.0000 0.0000 0.0000 -25.2840 0.0000
# 6 0.0000 0.0000 0.0000 0.0000 0.0000 17.3970
#
#
#
# Elastic Compliance Matrix: (Units=1/GPa)
#
#
# Indices 1 2 3 4 5 6 
#
# 1 0.015961 -0.004452 -0.002579 0.000000 0.000000 0.000000
# 2 -0.004452 0.015960 -0.002579 0.000000 0.000000 0.000000
# 3 -0.002579 -0.002579 0.007437 0.000000 0.000000 0.000000
# 4 0.000000 0.000000 0.000000 -0.039655 0.000000 0.000000
# 5 0.000000 0.000000 0.000000 0.000000 -0.039551 0.000000
# 6 0.000000 0.000000 0.000000 0.000000 0.000000 0.057481
#
#
# Mechanical properties :
#
#
# Convention : Reuss Voigt Hill
#
# Bulk Modulus (GPa) = 49.65313 56.40474 53.02894
# Shear Modulus (GPa) = 114.77215 7.56476 61.16845
#
# Velocity S-wave (km/s) = 8.01199 2.05693 5.84906
# Velocity P-wave (km/s) = 10.64708 6.09823 8.67608
#
# Compressibility (1/GPa) = 0.02013972
#
# Stress axis : x y z
#
# Youngs Moduli (GPa) = 62.65431 62.65552 134.46717
#
# Poissons Ratio (x) = 0.27892 0.34674
# Poissons Ratio (y) = 0.27891 0.34676
# Poissons Ratio (z) = 0.16156 0.16157
#
# Static dielectric constant tensor:
#      x y z
#    x 1.666690 0.000000 0.000000 
#    y 0.000000 1.666800 0.000000 
#    z 0.000000 0.000000 1.644070 
# 
# From -- ./inp_files/1592.got.cif
#   From: 2010.05.17/outbox.cif.g08.bks.cpg/sg93_1_cif.got.tgz:1592.got - 2010.06.03 19:38:44.
