data_PCOD9549847
_publ_section_title
;
Structure prediction by ZEFSAII (Michael W. Deem and Ramdas Pophale) SiO2 
 PCOD9549847
Probable space group: P 42 2 2
;
_chemical_formula_sum "Si O2"
_cell_formula_units_Z 32
_cell_length_a 16.083628
_cell_length_b 16.083628
_cell_length_c 7.618340
_cell_angle_alpha 90.000000
_cell_angle_beta 90.000000
_cell_angle_gamma 90.000000
_cell_volume 1970.735729
_symmetry_space_group_name_H-M "P 42 2 2"
_symmetry_group_IT_number 93
_symmetry_cell_setting 'tetragonal'
loop_
_space_group_symop_operation_xyz
x,y,z
-y,x,1/2+z
-x,-y,z
y,-x,1/2+z
x,-y,-z
-x,y,-z
y,x,1/2-z
-y,-x,1/2-z
loop_
_atom_site_type_symbol
_atom_site_label
_atom_site_fract_x
_atom_site_fract_y
_atom_site_fract_z
Si Si1 0.710798 0.160613 0.705718
Si Si2 0.265766 0.132672 0.697450
Si Si3 0.846402 0.977553 0.202679
Si Si4 0.900084 0.596855 0.502169
O O1 0.749762 0.250239 0.750000
O O2 0.701108 0.144188 0.499548
O O3 0.779461 0.094700 0.771465
O O4 0.633122 0.139679 0.825348
O O5 0.213440 0.213440 0.750000
O O6 0.197005 0.057029 0.702698
O O7 0.340884 0.121795 0.836124
O O8 0.934552 0.934552 0.250000
O O9 0.851464 0.000000 0.000000
O O10 0.876327 0.500000 0.500000
O O11 0.000000 0.600717 0.500000
#
# Coordination Sequence:
#
# PCOD9549847 Si02
#       4
#     8   8   8   8
#     4  11  20  36  58  82 109 150 190 229 278 331
#     4  12  21  37  59  79 111 152 192 236 283 328
#     4  11  21  37  52  76 110 149 199 241 279 321
#     4  11  23  40  57  83 118 149 189 238 285 338
#
# _framework density 16.237589
#
# number of rings (size 3 to 8) (size 9 to 14) (size 15 to 20)
#    0.000    0.750    7.500    2.250    0.000    1.500 
#    0.000    8.750    0.000    0.000    0.000    0.000 
#    0.000    3.000    0.000    0.000    0.000    0.000 
#
# Total GULP energy -178478.174104 kJ/mol
# GULP energy per Si atom -5577.442941 kJ/mol
# Density = 1.620063 g / cm^3
# Si number density = 16.237589 Si / 1000 Ang^3
#
#
#
# Elastic Constant Matrix: (Units=GPa)
#
#
# Indices 1 2 3 4 5 6 
#
# 1 237.7424 -79.0467 60.6644 0.0000 0.0000 0.0000
# 2 -79.0467 237.7084 60.6886 0.0000 0.0000 0.0000
# 3 60.6644 60.6886 161.3870 0.0000 0.0000 0.0000
# 4 0.0000 0.0000 0.0000 1.1871 0.0000 0.0000
# 5 0.0000 0.0000 0.0000 0.0000 1.1872 0.0000
# 6 0.0000 0.0000 0.0000 0.0000 0.0000 16.5640
#
#
#
# Elastic Compliance Matrix: (Units=1/GPa)
#
#
# Indices 1 2 3 4 5 6 
#
# 1 0.006000 0.002844 -0.003325 0.000000 0.000000 0.000000
# 2 0.002844 0.006002 -0.003326 0.000000 0.000000 0.000000
# 3 -0.003325 -0.003326 0.008697 0.000000 0.000000 0.000000
# 4 0.000000 0.000000 0.000000 0.842424 0.000000 0.000000
# 5 0.000000 0.000000 0.000000 0.000000 0.842315 0.000000
# 6 0.000000 0.000000 0.000000 0.000000 0.000000 0.060372
#
#
# Mechanical properties :
#
#
# Convention : Reuss Voigt Hill
#
# Bulk Modulus (GPa) = 76.42159 80.16115 78.29137
# Shear Modulus (GPa) = 2.81249 43.42309 23.11779
#
# Velocity S-wave (km/s) = 1.31751 5.17691 3.77732
# Velocity P-wave (km/s) = 7.03429 9.23085 8.20640
#
# Compressibility (1/GPa) = 0.01308531
#
# Stress axis : x y z
#
# Youngs Moduli (GPa) = 166.65647 166.61597 114.98335
#
# Poissons Ratio (x) = -0.47390 0.38233
# Poissons Ratio (y) = -0.47401 0.38244
# Poissons Ratio (z) = 0.55414 0.55418
#
# Static dielectric constant tensor:
#      x y z
#    x 1.581270 0.000000 0.000000 
#    y 0.000000 1.581280 0.000000 
#    z 0.000000 0.000000 1.527500 
# 
# From -- ./inp_files/1553.got.cif
#   From: 2010.05.17/outbox.cif.g08.bks.cpg/sg93_1_cif.got.tgz:1553.got - 2010.06.03 19:38:44.
