data_PCOD9549231
_publ_section_title
;
Structure prediction by ZEFSAII (Michael W. Deem and Ramdas Pophale) SiO2 
 PCOD9549231
Probable space group: P 41 21 2
;
_chemical_formula_sum "Si O2"
_cell_formula_units_Z 36
_cell_length_a 9.695640
_cell_length_b 9.695640
_cell_length_c 19.215320
_cell_angle_alpha 90.000000
_cell_angle_beta 90.000000
_cell_angle_gamma 90.000000
_cell_volume 1806.344515
_symmetry_space_group_name_H-M "P 41 21 2"
_symmetry_group_IT_number 92
_symmetry_cell_setting 'tetragonal'
loop_
_space_group_symop_operation_xyz
x,y,z
1/2-y,1/2+x,1/4+z
-x,-y,1/2+z
1/2+y,1/2-x,3/4+z
1/2+x,1/2-y,3/4-z
1/2-x,1/2+y,1/4-z
y,x,-z
-y,-x,1/2-z
loop_
_atom_site_type_symbol
_atom_site_label
_atom_site_fract_x
_atom_site_fract_y
_atom_site_fract_z
Si Si1 0.824921 0.473934 0.909285
Si Si2 0.266794 0.773657 0.645814
Si Si3 0.422656 0.577345 0.750000
Si Si4 0.476384 0.015129 0.457677
Si Si5 0.806413 0.242455 0.516366
O O1 0.724230 0.605142 0.915550
O O2 0.884377 0.477816 0.831717
O O3 0.775788 0.326972 0.936037
O O4 0.951576 0.504505 0.961618
O O5 0.336718 0.642809 0.685049
O O6 0.349618 0.906427 0.673264
O O7 0.275981 0.762614 0.562778
O O8 0.383168 0.417630 0.760685
O O9 0.366982 0.894167 0.452056
#
# Coordination Sequence:
#
# PCOD9549231 Si02
#       5
#     8   8   4   8   8
#     4  12  22  39  68  95 129 172 213 272 332 385
#     4  11  19  38  69  92 120 172 226 262 314 389
#     4  10  22  40  62  94 134 170 216 284 320 384
#     4  11  22  42  63  97 132 165 217 279 317 388
#     4  11  24  38  66  97 130 171 222 271 330 391
#
# _framework density 19.929753000000002
#
# number of rings (size 3 to 8) (size 9 to 14) (size 15 to 20)
#    0.000    0.889    8.889    0.000    0.000    1.778 
#    0.000    0.000    0.000    0.000    0.000    0.000 
#    0.000    0.000    0.000    0.000    0.000    0.000 
#
# Total GULP energy -201008.229483 kJ/mol
# GULP energy per Si atom -5583.561930 kJ/mol
# Density = 1.988439 g / cm^3
# Si number density = 19.929753 Si / 1000 Ang^3
#
#
#
# Elastic Constant Matrix: (Units=GPa)
#
#
# Indices 1 2 3 4 5 6 
#
# 1 95.5019 41.6302 11.1747 0.0000 0.0000 0.0000
# 2 41.6302 95.5015 11.1743 0.0000 0.0000 0.0000
# 3 11.1747 11.1743 66.7038 0.0000 0.0000 0.0000
# 4 0.0000 0.0000 0.0000 23.0993 0.0000 0.0000
# 5 0.0000 0.0000 0.0000 0.0000 23.0992 0.0000
# 6 0.0000 0.0000 0.0000 0.0000 0.0000 19.8841
#
#
#
# Elastic Compliance Matrix: (Units=1/GPa)
#
#
# Indices 1 2 3 4 5 6 
#
# 1 0.013030 -0.005533 -0.001256 0.000000 0.000000 0.000000
# 2 -0.005533 0.013030 -0.001256 0.000000 0.000000 0.000000
# 3 -0.001256 -0.001256 0.015412 0.000000 0.000000 0.000000
# 4 0.000000 0.000000 0.000000 0.043291 0.000000 0.000000
# 5 0.000000 0.000000 0.000000 0.000000 0.043292 0.000000
# 6 0.000000 0.000000 0.000000 0.000000 0.000000 0.050292
#
#
# Mechanical properties :
#
#
# Convention : Reuss Voigt Hill
#
# Bulk Modulus (GPa) = 39.39702 42.85175 41.12439
# Shear Modulus (GPa) = 24.64307 26.13172 25.38739
#
# Velocity S-wave (km/s) = 3.52020 3.62497 3.57297
# Velocity P-wave (km/s) = 6.02771 6.25049 6.14011
#
# Compressibility (1/GPa) = 0.02538263
#
# Stress axis : x y z
#
# Youngs Moduli (GPa) = 76.74719 76.74698 64.88266
#
# Poissons Ratio (x) = 0.42463 0.08149
# Poissons Ratio (y) = 0.42463 0.08148
# Poissons Ratio (z) = 0.09639 0.09638
#
# Static dielectric constant tensor:
#      x y z
#    x 1.712400 0.000000 0.000000 
#    y 0.000000 1.712400 0.000000 
#    z 0.000000 0.000000 1.694840 
# 
# From -- ./inp_files/3479.got.cif
#   From: 2010.05.17/outbox.cif.g08.bks.cpg/sg92_2_cif.got.tgz:3479.got - 2010.06.03 19:35:17.
