data_PCOD9549576
_publ_section_title
;
Structure prediction by ZEFSAII (Michael W. Deem and Ramdas Pophale) SiO2 
 PCOD9549576
Probable space group: P 41 21 2
;
_chemical_formula_sum "Si O2"
_cell_formula_units_Z 60
_cell_length_a 11.313541
_cell_length_b 11.313541
_cell_length_c 20.800960
_cell_angle_alpha 90.000000
_cell_angle_beta 90.000000
_cell_angle_gamma 90.000000
_cell_volume 2662.444044
_symmetry_space_group_name_H-M "P 41 21 2"
_symmetry_group_IT_number 92
_symmetry_cell_setting 'tetragonal'
loop_
_space_group_symop_operation_xyz
x,y,z
1/2-y,1/2+x,1/4+z
-x,-y,1/2+z
1/2+y,1/2-x,3/4+z
1/2+x,1/2-y,3/4-z
1/2-x,1/2+y,1/4-z
y,x,-z
-y,-x,1/2-z
loop_
_atom_site_type_symbol
_atom_site_label
_atom_site_fract_x
_atom_site_fract_y
_atom_site_fract_z
Si Si1 0.583170 0.046336 0.856314
Si Si2 0.307697 0.752943 0.435578
Si Si3 0.316648 0.932902 0.685936
Si Si4 0.589624 0.491087 0.137591
Si Si5 0.807109 0.913174 0.435896
Si Si6 0.683327 0.509847 0.469930
Si Si7 0.323205 0.676796 0.750000
Si Si8 0.344621 0.908037 0.008818
O O1 0.638662 0.122770 0.914047
O O2 0.478767 0.117908 0.822426
O O3 0.551502 0.917769 0.882195
O O4 0.684942 0.031830 0.803519
O O5 0.282347 0.677315 0.371479
O O6 0.405304 0.686461 0.478104
O O7 0.186003 0.757672 0.474933
O O8 0.334280 0.807772 0.720500
O O9 0.188746 0.940593 0.653497
O O10 0.336393 0.041756 0.734317
O O11 0.493998 0.582312 0.164589
O O12 0.529017 0.396209 0.090364
O O13 0.652436 0.418377 0.194323
O O14 0.700676 0.999954 0.455595
O O15 0.843768 0.843768 0.500000
O O16 0.625274 0.625274 0.500000
#
# Coordination Sequence:
#
# PCOD9549576 Si02
#       8
#     8   8   8   8   8   8   4   8
#     4  12  28  48  77 109 149 192 245 306 367 439
#     4  12  28  48  76 110 148 192 246 302 372 436
#     4  12  28  48  77 109 149 192 245 306 367 439
#     4  12  27  49  76 109 147 196 245 304 369 440
#     4  12  27  49  76 109 147 196 245 304 369 440
#     4  12  27  49  76 109 147 196 245 304 369 440
#     4  12  28  48  76 110 148 192 246 302 372 436
#     4  12  28  48  77 109 149 192 245 306 367 439
#
# _framework density 22.535685000000001
#
# number of rings (size 3 to 8) (size 9 to 14) (size 15 to 20)
#    0.000    0.000    6.000    2.400   14.000    0.000 
#    0.000    0.000    0.000    0.000    0.000    0.000 
#    0.000    0.000    0.000    0.000    0.000    0.000 
#
# Total GULP energy -336436.927822 kJ/mol
# GULP energy per Si atom -5607.282130 kJ/mol
# Density = 2.248439 g / cm^3
# Si number density = 22.535685 Si / 1000 Ang^3
#
#
#
# Elastic Constant Matrix: (Units=GPa)
#
#
# Indices 1 2 3 4 5 6 
#
# 1 51.5169 -2.5724 7.0412 0.0000 0.0000 0.0000
# 2 -2.5724 51.5174 7.0412 0.0000 0.0000 0.0000
# 3 7.0412 7.0412 58.6573 0.0000 0.0000 0.0000
# 4 0.0000 0.0000 0.0000 29.7278 0.0000 0.0000
# 5 0.0000 0.0000 0.0000 0.0000 29.7277 0.0000
# 6 0.0000 0.0000 0.0000 0.0000 0.0000 24.4979
#
#
#
# Elastic Compliance Matrix: (Units=1/GPa)
#
#
# Indices 1 2 3 4 5 6 
#
# 1 0.019825 0.001337 -0.002540 0.000000 0.000000 0.000000
# 2 0.001337 0.019825 -0.002540 0.000000 0.000000 0.000000
# 3 -0.002540 -0.002540 0.017658 0.000000 0.000000 0.000000
# 4 0.000000 0.000000 0.000000 0.033638 0.000000 0.000000
# 5 0.000000 0.000000 0.000000 0.000000 0.033639 0.000000
# 6 0.000000 0.000000 0.000000 0.000000 0.000000 0.040820
#
#
# Mechanical properties :
#
#
# Convention : Reuss Voigt Hill
#
# Bulk Modulus (GPa) = 20.07183 20.52351 20.29767
# Shear Modulus (GPa) = 26.38538 26.80280 26.59409
#
# Velocity S-wave (km/s) = 3.42545 3.45244 3.43897
# Velocity P-wave (km/s) = 4.95691 5.00193 4.97947
#
# Compressibility (1/GPa) = 0.04982107
#
# Stress axis : x y z
#
# Youngs Moduli (GPa) = 50.44121 50.44165 56.63146
#
# Poissons Ratio (x) = -0.06745 0.14386
# Poissons Ratio (y) = -0.06744 0.14386
# Poissons Ratio (z) = 0.12813 0.12814
#
# Static dielectric constant tensor:
#      x y z
#    x 1.795380 0.000000 0.000000 
#    y 0.000000 1.795380 0.000000 
#    z 0.000000 0.000000 1.807210 
# 
# From -- ./inp_files/3615.got.cif
#   From: 2010.05.17/outbox.cif.g08.bks.cpg/sg92_2_cif.got.tgz:3615.got - 2010.06.03 19:35:17.
