data_PCOD9549354
_publ_section_title
;
Structure prediction by ZEFSAII (Michael W. Deem and Ramdas Pophale) SiO2 
 PCOD9549354
Probable space group: P 41 21 2
;
_chemical_formula_sum "Si O2"
_cell_formula_units_Z 48
_cell_length_a 12.126574
_cell_length_b 12.126574
_cell_length_c 15.371889
_cell_angle_alpha 90.000000
_cell_angle_beta 90.000000
_cell_angle_gamma 90.000000
_cell_volume 2260.494644
_symmetry_space_group_name_H-M "P 41 21 2"
_symmetry_group_IT_number 92
_symmetry_cell_setting 'tetragonal'
loop_
_space_group_symop_operation_xyz
x,y,z
1/2-y,1/2+x,1/4+z
-x,-y,1/2+z
1/2+y,1/2-x,3/4+z
1/2+x,1/2-y,3/4-z
1/2-x,1/2+y,1/4-z
y,x,-z
-y,-x,1/2-z
loop_
_atom_site_type_symbol
_atom_site_label
_atom_site_fract_x
_atom_site_fract_y
_atom_site_fract_z
Si Si1 0.294105 0.293423 0.282818
Si Si2 0.127359 0.430042 0.392731
Si Si3 0.288212 0.603381 0.423908
Si Si4 0.502467 0.502467 0.000000
Si Si5 0.121517 0.380518 0.585923
Si Si6 0.731647 0.268354 0.750000
Si Si7 0.706366 0.563377 0.387693
O O1 0.219807 0.388128 0.325594
O O2 0.204102 0.209992 0.241361
O O3 0.361726 0.231469 0.357797
O O4 0.370003 0.323536 0.200599
O O5 0.166513 0.551032 0.421092
O O6 0.136397 0.363669 0.483082
O O7 0.004603 0.420379 0.355948
O O8 0.379843 0.516773 0.454734
O O9 0.300125 0.651460 0.328138
O O10 0.404864 0.482975 0.930300
O O11 0.031342 0.292679 0.615933
O O12 0.852956 0.266515 0.705462
#
# Coordination Sequence:
#
# PCOD9549354 Si02
#       7
#     8   8   8   4   8   4   8
#     4  11  24  46  68  99 138 175 240 289 348 423
#     4  12  27  43  70 103 138 183 229 291 352 419
#     4  11  25  44  65 104 138 180 230 290 351 414
#     4  11  24  46  70  98 147 188 234 296 351 432
#     4  12  24  46  71 100 136 185 231 291 353 420
#     4   9  24  42  68 100 133 174 234 298 341 412
#     4  10  23  45  73  99 133 188 236 287 358 419
#
# _framework density 21.234290999999999
#
# number of rings (size 3 to 8) (size 9 to 14) (size 15 to 20)
#    0.000    1.000    5.000    0.500    7.000    0.000 
#    6.000    0.000    0.000    0.000    0.000    0.000 
#    0.000    0.000    0.000    0.000    0.000    0.000 
#
# Total GULP energy -268094.255623 kJ/mol
# GULP energy per Si atom -5585.296992 kJ/mol
# Density = 2.118596 g / cm^3
# Si number density = 21.234291 Si / 1000 Ang^3
#
#
#
# Elastic Constant Matrix: (Units=GPa)
#
#
# Indices 1 2 3 4 5 6 
#
# 1 45.2055 12.7062 12.6872 0.0000 0.0000 0.0000
# 2 12.7062 45.2052 12.6869 0.0000 0.0000 0.0000
# 3 12.6872 12.6869 100.0789 0.0000 0.0000 0.0000
# 4 0.0000 0.0000 0.0000 23.6031 0.0000 0.0000
# 5 0.0000 0.0000 0.0000 0.0000 23.6028 0.0000
# 6 0.0000 0.0000 0.0000 0.0000 0.0000 33.7412
#
#
#
# Elastic Compliance Matrix: (Units=1/GPa)
#
#
# Indices 1 2 3 4 5 6 
#
# 1 0.024527 -0.006243 -0.002318 0.000000 0.000000 0.000000
# 2 -0.006243 0.024527 -0.002318 0.000000 0.000000 0.000000
# 3 -0.002318 -0.002318 0.010580 0.000000 0.000000 0.000000
# 4 0.000000 0.000000 0.000000 0.042367 0.000000 0.000000
# 5 0.000000 0.000000 0.000000 0.000000 0.042368 0.000000
# 6 0.000000 0.000000 0.000000 0.000000 0.000000 0.029637
#
#
# Mechanical properties :
#
#
# Convention : Reuss Voigt Hill
#
# Bulk Modulus (GPa) = 26.40254 29.62781 28.01518
# Shear Modulus (GPa) = 23.99366 26.35006 25.17186
#
# Velocity S-wave (km/s) = 3.36512 3.52649 3.44675
# Velocity P-wave (km/s) = 5.24972 5.52853 5.39093
#
# Compressibility (1/GPa) = 0.03787514
#
# Stress axis : x y z
#
# Youngs Moduli (GPa) = 40.77211 40.77186 94.52006
#
# Poissons Ratio (x) = 0.25456 0.21908
# Poissons Ratio (y) = 0.25456 0.21907
# Poissons Ratio (z) = 0.09450 0.09450
#
# Static dielectric constant tensor:
#      x y z
#    x 1.769680 0.000000 0.000000 
#    y 0.000000 1.769680 0.000000 
#    z 0.000000 0.000000 1.794800 
# 
# From -- ./inp_files/3188.got.cif
#   From: 2010.05.17/outbox.cif.g08.bks.cpg/sg92_2_cif.got.tgz:3188.got - 2010.06.03 19:35:17.
