data_PCOD9549916
_publ_section_title
;
Structure prediction by ZEFSAII (Michael W. Deem and Ramdas Pophale) SiO2 
 PCOD9549916
Probable space group: P 42 21 2
;
_chemical_formula_sum "Si O2"
_cell_formula_units_Z 30
_cell_length_a 9.998034
_cell_length_b 9.998034
_cell_length_c 12.485458
_cell_angle_alpha 90.000000
_cell_angle_beta 90.000000
_cell_angle_gamma 90.000000
_cell_volume 1248.054920
_symmetry_space_group_name_H-M "P 42 21 2"
_symmetry_group_IT_number 94
_symmetry_cell_setting 'tetragonal'
loop_
_space_group_symop_operation_xyz
x,y,z
1/2-y,1/2+x,1/2+z
-x,-y,z
1/2+y,1/2-x,1/2+z
1/2+x,1/2-y,1/2-z
1/2-x,1/2+y,1/2-z
y,x,-z
-y,-x,-z
loop_
_atom_site_type_symbol
_atom_site_label
_atom_site_fract_x
_atom_site_fract_y
_atom_site_fract_z
Si Si1 0.776984 0.315709 0.222488
Si Si2 0.500000 0.500000 0.500000
Si Si3 0.713014 0.994046 0.075834
Si Si4 0.150331 0.556092 0.653572
Si Si5 0.296561 0.703440 0.000000
O O1 0.818026 0.420561 0.314777
O O2 0.678808 0.207565 0.277728
O O3 0.704930 0.374301 0.114299
O O4 0.921576 0.263612 0.180791
O O5 0.504562 0.371514 0.572399
O O6 0.675041 0.147135 0.048144
O O7 0.665031 0.912145 0.972152
O O8 0.000000 0.500000 0.665261
#
# Coordination Sequence:
#
# PCOD9549916 Si02
#       5
#     8   2   8   8   4
#     4  11  22  42  64 101 139 188 227 297 364 419
#     4  10  16  36  68  98 114 170 258 262 330 444
#     4  10  20  39  67  93 126 183 232 287 348 427
#     4  11  24  42  67 103 142 185 243 301 358 436
#     4   9  22  37  62 101 135 172 240 291 343 426
#
# _framework density 24.037403999999999
#
# number of rings (size 3 to 8) (size 9 to 14) (size 15 to 20)
#    0.000    1.600    2.667    1.600    0.000    5.333 
#    0.000    2.667    0.000    0.800    0.000    0.000 
#    0.000    0.000    0.000    0.000    0.000    0.000 
#
# Total GULP energy -167150.953689 kJ/mol
# GULP energy per Si atom -5571.698456 kJ/mol
# Density = 2.398269 g / cm^3
# Si number density = 24.037404 Si / 1000 Ang^3
#
#
#
# Elastic Constant Matrix: (Units=GPa)
#
#
# Indices 1 2 3 4 5 6 
#
# 1 54.0507 46.6738 43.8853 0.0000 0.0000 0.0000
# 2 46.6738 54.0514 43.8852 0.0000 0.0000 0.0000
# 3 43.8853 43.8852 256.3031 0.0000 0.0000 0.0000
# 4 0.0000 0.0000 0.0000 54.8771 0.0000 0.0000
# 5 0.0000 0.0000 0.0000 0.0000 54.8764 0.0000
# 6 0.0000 0.0000 0.0000 0.0000 0.0000 19.6135
#
#
#
# Elastic Compliance Matrix: (Units=1/GPa)
#
#
# Indices 1 2 3 4 5 6 
#
# 1 0.073611 -0.061941 -0.001998 0.000000 0.000000 0.000000
# 2 -0.061941 0.073610 -0.001998 0.000000 0.000000 0.000000
# 3 -0.001998 -0.001998 0.004586 0.000000 0.000000 0.000000
# 4 0.000000 0.000000 0.000000 0.018223 0.000000 0.000000
# 5 0.000000 0.000000 0.000000 0.000000 0.018223 0.000000
# 6 0.000000 0.000000 0.000000 0.000000 0.000000 0.050985
#
#
# Mechanical properties :
#
#
# Convention : Reuss Voigt Hill
#
# Bulk Modulus (GPa) = 50.17075 70.36598 60.26837
# Shear Modulus (GPa) = 13.23607 41.20414 27.22011
#
# Velocity S-wave (km/s) = 2.34913 4.14474 3.36878
# Velocity P-wave (km/s) = 5.31744 7.22788 6.34497
#
# Compressibility (1/GPa) = 0.01993193
#
# Stress axis : x y z
#
# Youngs Moduli (GPa) = 13.58495 13.58516 218.06199
#
# Poissons Ratio (x) = 0.84148 0.43572
# Poissons Ratio (y) = 0.84147 0.43567
# Poissons Ratio (z) = 0.02714 0.02714
#
# Static dielectric constant tensor:
#      x y z
#    x 2.040130 0.000000 0.000000 
#    y 0.000000 2.040130 0.000000 
#    z 0.000000 0.000000 1.788190 
# 
# From -- ./inp_files/2219.got.cif
#   From: 2010.05.17/outbox.cif.g08.bks.cpg/sg94_2_cif.got.tgz:2219.got - 2010.06.03 19:43:16.
