data_PCOD9549537
_publ_section_title
;
Structure prediction by ZEFSAII (Michael W. Deem and Ramdas Pophale) SiO2 
 PCOD9549537
Probable space group: P 41 21 2
;
_chemical_formula_sum "Si O2"
_cell_formula_units_Z 32
_cell_length_a 11.216603
_cell_length_b 11.216603
_cell_length_c 10.179408
_cell_angle_alpha 90.000000
_cell_angle_beta 90.000000
_cell_angle_gamma 90.000000
_cell_volume 1280.693541
_symmetry_space_group_name_H-M "P 41 21 2"
_symmetry_group_IT_number 92
_symmetry_cell_setting 'tetragonal'
loop_
_space_group_symop_operation_xyz
x,y,z
1/2-y,1/2+x,1/4+z
-x,-y,1/2+z
1/2+y,1/2-x,3/4+z
1/2+x,1/2-y,3/4-z
1/2-x,1/2+y,1/4-z
y,x,-z
-y,-x,1/2-z
loop_
_atom_site_type_symbol
_atom_site_label
_atom_site_fract_x
_atom_site_fract_y
_atom_site_fract_z
Si Si1 0.457531 0.322274 0.906102
Si Si2 0.435299 0.925920 0.087400
Si Si3 0.113782 0.824430 0.899208
Si Si4 0.300512 0.632530 0.543196
O O1 0.487284 0.184794 0.884736
O O2 0.421499 0.372958 0.764518
O O3 0.343629 0.343629 0.000000
O O4 0.566591 0.372490 0.988992
O O5 0.406377 0.787063 0.075341
O O6 0.458729 0.965382 0.939845
O O7 0.132047 0.867954 0.750000
O O8 0.231375 0.738686 0.920069
O O9 0.973966 0.784607 0.900839
#
# Coordination Sequence:
#
# PCOD9549537 Si02
#       4
#     8   8   8   8
#     4  11  28  49  81 112 156 205 259 320 402 482
#     4  11  28  48  75 109 156 203 257 324 394 467
#     4  11  27  50  80 120 157 212 263 335 398 477
#     4  11  26  49  82 115 163 204 272 326 400 478
#
# _framework density 24.986462
#
# number of rings (size 3 to 8) (size 9 to 14) (size 15 to 20)
#    0.000    1.000    0.000    3.750   14.000    7.000 
#    0.000    0.000    0.000    0.000    0.000    0.000 
#    0.000    0.000    0.000    0.000    0.000    0.000 
#
# Total GULP energy -178847.861990 kJ/mol
# GULP energy per Si atom -5588.995687 kJ/mol
# Density = 2.492959 g / cm^3
# Si number density = 24.986462 Si / 1000 Ang^3
#
#
#
# Elastic Constant Matrix: (Units=GPa)
#
#
# Indices 1 2 3 4 5 6 
#
# 1 8.0971 168.7517 28.3174 0.0000 0.0000 0.0000
# 2 168.7517 8.0993 28.3212 0.0000 0.0000 0.0000
# 3 28.3174 28.3212 70.0335 0.0000 0.0000 0.0000
# 4 0.0000 0.0000 0.0000 28.2728 0.0000 0.0000
# 5 0.0000 0.0000 0.0000 0.0000 28.2726 0.0000
# 6 0.0000 0.0000 0.0000 0.0000 0.0000 27.1224
#
#
#
# Elastic Compliance Matrix: (Units=1/GPa)
#
#
# Indices 1 2 3 4 5 6 
#
# 1 0.000136 0.006360 -0.002627 0.000000 0.000000 0.000000
# 2 0.006360 0.000136 -0.002626 0.000000 0.000000 0.000000
# 3 -0.002627 -0.002626 0.016403 0.000000 0.000000 0.000000
# 4 0.000000 0.000000 0.000000 0.035370 0.000000 0.000000
# 5 0.000000 0.000000 0.000000 0.000000 0.035370 0.000000
# 6 0.000000 0.000000 0.000000 0.000000 0.000000 0.036870
#
#
# Mechanical properties :
#
#
# Convention : Reuss Voigt Hill
#
# Bulk Modulus (GPa) = 52.94376 59.66784 56.30580
# Shear Modulus (GPa) = 38.95107 7.45620 23.20364
#
# Velocity S-wave (km/s) = 3.95256 1.72933 3.05068
# Velocity P-wave (km/s) = 6.48577 5.28388 5.91543
#
# Compressibility (1/GPa) = 0.01888797
#
# Stress axis : x y z
#
# Youngs Moduli (GPa) = 7374.78586 7376.53475 60.96388
#
# Poissons Ratio (x) = -46.91591 0.16014
# Poissons Ratio (y) = -46.90479 0.16012
# Poissons Ratio (z) = 19.37239 19.37440
#
# Static dielectric constant tensor:
#      x y z
#    x 2.030460 0.000000 0.000000 
#    y 0.000000 2.030460 0.000000 
#    z 0.000000 0.000000 1.959240 
# 
# From -- ./inp_files/1124.got.cif
#   From: 2010.05.17/outbox.cif.g08.bks.cpg/sg92_1_cif.got.tgz:1124.got - 2010.06.03 19:35:17.
