data_PCOD9549514
_publ_section_title
;
Structure prediction by ZEFSAII (Michael W. Deem and Ramdas Pophale) SiO2 
 PCOD9549514
Probable space group: P 41 21 2
;
_chemical_formula_sum "Si O2"
_cell_formula_units_Z 40
_cell_length_a 7.132834
_cell_length_b 7.132834
_cell_length_c 28.831515
_cell_angle_alpha 90.000000
_cell_angle_beta 90.000000
_cell_angle_gamma 90.000000
_cell_volume 1466.870240
_symmetry_space_group_name_H-M "P 41 21 2"
_symmetry_group_IT_number 92
_symmetry_cell_setting 'tetragonal'
loop_
_space_group_symop_operation_xyz
x,y,z
1/2-y,1/2+x,1/4+z
-x,-y,1/2+z
1/2+y,1/2-x,3/4+z
1/2+x,1/2-y,3/4-z
1/2-x,1/2+y,1/4-z
y,x,-z
-y,-x,1/2-z
loop_
_atom_site_type_symbol
_atom_site_label
_atom_site_fract_x
_atom_site_fract_y
_atom_site_fract_z
Si Si1 0.935760 0.809094 0.277699
Si Si2 0.488953 0.074181 0.368391
Si Si3 0.921557 0.010068 0.049043
Si Si4 0.596756 0.945002 0.221533
Si Si5 0.811548 0.134333 0.626336
O O1 0.108613 0.891388 0.250000
O O2 0.939311 0.588413 0.266001
O O3 0.758191 0.924717 0.259458
O O4 0.988143 0.823511 0.331315
O O5 0.507953 0.240084 0.331960
O O6 0.481311 0.159420 0.420599
O O7 0.647940 0.913396 0.369722
O O8 0.306104 0.945864 0.359183
O O9 0.956519 0.227405 0.037073
O O10 0.097415 0.935045 0.078532
O O11 0.906160 0.906160 0.000000
#
# Coordination Sequence:
#
# PCOD9549514 Si02
#       5
#     8   8   8   8   8
#     4  11  24  52  82 119 171 225 284 358 443 521
#     4  11  25  53  86 123 171 232 293 357 456 529
#     4  12  27  49  80 121 173 224 298 366 430 537
#     4  11  27  51  80 126 167 220 293 360 438 531
#     4  11  26  51  84 121 177 230 282 367 449 536
#
# _framework density 27.268940000000001
#
# number of rings (size 3 to 8) (size 9 to 14) (size 15 to 20)
#    0.000    0.800    0.000    6.600    5.600    1.600 
#   14.400    0.000    0.000    0.000    0.000    0.000 
#    0.000    0.000    0.000    0.000    0.000    0.000 
#
# Total GULP energy -224445.783056 kJ/mol
# GULP energy per Si atom -5611.144576 kJ/mol
# Density = 2.720687 g / cm^3
# Si number density = 27.268940 Si / 1000 Ang^3
#
#
#
# Elastic Constant Matrix: (Units=GPa)
#
#
# Indices 1 2 3 4 5 6 
#
# 1 112.1168 37.3453 45.6593 0.0000 0.0000 0.0000
# 2 37.3453 112.1181 45.6576 0.0000 0.0000 0.0000
# 3 45.6593 45.6576 176.0117 0.0000 0.0000 0.0000
# 4 0.0000 0.0000 0.0000 55.8260 0.0000 0.0000
# 5 0.0000 0.0000 0.0000 0.0000 55.8257 0.0000
# 6 0.0000 0.0000 0.0000 0.0000 0.0000 27.7094
#
#
#
# Elastic Compliance Matrix: (Units=1/GPa)
#
#
# Indices 1 2 3 4 5 6 
#
# 1 0.010662 -0.002712 -0.002063 0.000000 0.000000 0.000000
# 2 -0.002712 0.010662 -0.002062 0.000000 0.000000 0.000000
# 3 -0.002063 -0.002062 0.006751 0.000000 0.000000 0.000000
# 4 0.000000 0.000000 0.000000 0.017913 0.000000 0.000000
# 5 0.000000 0.000000 0.000000 0.000000 0.017913 0.000000
# 6 0.000000 0.000000 0.000000 0.000000 0.000000 0.036089
#
#
# Mechanical properties :
#
#
# Convention : Reuss Voigt Hill
#
# Bulk Modulus (GPa) = 69.42965 73.06344 71.24655
# Shear Modulus (GPa) = 42.20661 45.97784 44.09223
#
# Velocity S-wave (km/s) = 3.93847 4.11066 4.02548
# Velocity P-wave (km/s) = 6.79694 7.02722 6.91304
#
# Compressibility (1/GPa) = 0.01440307
#
# Stress axis : x y z
#
# Youngs Moduli (GPa) = 93.78699 93.78899 148.11587
#
# Poissons Ratio (x) = 0.25432 0.30550
# Poissons Ratio (y) = 0.25431 0.30547
# Poissons Ratio (z) = 0.19344 0.19343
#
# Static dielectric constant tensor:
#      x y z
#    x 2.179300 0.000000 0.000000 
#    y 0.000000 2.179300 0.000000 
#    z 0.000000 0.000000 2.121840 
# 
# From -- ./inp_files/4145.got.cif
#   From: 2010.05.17/outbox.cif.g08.bks.cpg/sg92_3_cif.got.tgz:4145.got - 2010.06.03 19:35:17.
