data_PCOD9549932
_publ_section_title
;
Structure prediction by ZEFSAII (Michael W. Deem and Ramdas Pophale) SiO2 
 PCOD9549932
Probable space group: P 42 21 2
;
_chemical_formula_sum "Si O2"
_cell_formula_units_Z 36
_cell_length_a 9.709598
_cell_length_b 9.709598
_cell_length_c 20.053674
_cell_angle_alpha 90.000000
_cell_angle_beta 90.000000
_cell_angle_gamma 90.000000
_cell_volume 1890.586052
_symmetry_space_group_name_H-M "P 42 21 2"
_symmetry_group_IT_number 94
_symmetry_cell_setting 'tetragonal'
loop_
_space_group_symop_operation_xyz
x,y,z
1/2-y,1/2+x,1/2+z
-x,-y,z
1/2+y,1/2-x,1/2+z
1/2+x,1/2-y,1/2-z
1/2-x,1/2+y,1/2-z
y,x,-z
-y,-x,-z
loop_
_atom_site_type_symbol
_atom_site_label
_atom_site_fract_x
_atom_site_fract_y
_atom_site_fract_z
Si Si1 0.251161 0.251161 0.000000
Si Si2 0.751040 0.919316 0.790401
Si Si3 0.767745 0.249582 0.165212
Si Si4 0.472340 0.156219 0.900100
Si Si5 0.843144 0.972367 0.102151
O O1 0.385418 0.237290 0.954803
O O2 0.121075 0.236627 0.950343
O O3 0.746994 0.856309 0.717298
O O4 0.622026 0.866143 0.834228
O O5 0.884690 0.863890 0.829963
O O6 0.752061 0.085181 0.795110
O O7 0.772607 0.386853 0.121296
O O8 0.771336 0.115302 0.119027
O O9 0.500000 0.000000 0.924633
O O10 0.000000 0.000000 0.078457
#
# Coordination Sequence:
#
# PCOD9549932 Si02
#       5
#     4   8   8   8   8
#     4  10  19  36  56  74 103 144 194 228 257 320
#     4   9  18  32  53  79 108 137 173 219 273 331
#     4  10  18  33  55  81 108 136 174 223 277 323
#     4   9  19  34  54  79 109 145 181 225 275 325
#     4   9  18  31  53  78  98 138 185 219 258 320
#
# _framework density 19.041713000000001
#
# number of rings (size 3 to 8) (size 9 to 14) (size 15 to 20)
#    0.000    2.667    0.000    3.000    0.000    0.000 
#    0.000    4.444    0.000    5.333    0.000    0.000 
#    0.000    0.000    0.000    0.000    0.000    0.000 
#
# Total GULP energy -200983.135609 kJ/mol
# GULP energy per Si atom -5582.864878 kJ/mol
# Density = 1.899837 g / cm^3
# Si number density = 19.041713 Si / 1000 Ang^3
#
#
#
# Elastic Constant Matrix: (Units=GPa)
#
#
# Indices 1 2 3 4 5 6 
#
# 1 98.8574 33.3300 48.1648 0.0000 0.0000 0.0000
# 2 33.3300 98.8574 48.1648 0.0000 0.0000 0.0000
# 3 48.1648 48.1648 84.5253 0.0000 0.0000 0.0000
# 4 0.0000 0.0000 0.0000 36.6535 0.0000 0.0000
# 5 0.0000 0.0000 0.0000 0.0000 36.6535 0.0000
# 6 0.0000 0.0000 0.0000 0.0000 0.0000 12.8542
#
#
#
# Elastic Compliance Matrix: (Units=1/GPa)
#
#
# Indices 1 2 3 4 5 6 
#
# 1 0.014099 -0.001162 -0.007372 0.000000 0.000000 0.000000
# 2 -0.001162 0.014099 -0.007372 0.000000 0.000000 0.000000
# 3 -0.007372 -0.007372 0.020232 0.000000 0.000000 0.000000
# 4 0.000000 0.000000 0.000000 0.027283 0.000000 0.000000
# 5 0.000000 0.000000 0.000000 0.000000 0.027283 0.000000
# 6 0.000000 0.000000 0.000000 0.000000 0.000000 0.077795
#
#
# Mechanical properties :
#
#
# Convention : Reuss Voigt Hill
#
# Bulk Modulus (GPa) = 60.17271 60.17322 60.17297
# Shear Modulus (GPa) = 22.92086 27.40427 25.16256
#
# Velocity S-wave (km/s) = 3.47323 3.79776 3.63911
# Velocity P-wave (km/s) = 6.91039 7.13442 7.02330
#
# Compressibility (1/GPa) = 0.01661883
#
# Stress axis : x y z
#
# Youngs Moduli (GPa) = 70.92695 70.92695 49.42593
#
# Poissons Ratio (x) = 0.08240 0.36437
# Poissons Ratio (y) = 0.08240 0.36437
# Poissons Ratio (z) = 0.52287 0.52287
#
# Static dielectric constant tensor:
#      x y z
#    x 1.657040 0.000000 0.000000 
#    y 0.000000 1.657040 0.000000 
#    z 0.000000 0.000000 1.637650 
# 
# From -- ./inp_files/4531.got.cif
#   From: 2010.05.17/outbox.cif.g08.bks.cpg/sg94_3_cif.got.tgz:4531.got - 2010.06.03 19:43:16.
