data_PCOD9549695
_publ_section_title
;
Structure prediction by ZEFSAII (Michael W. Deem and Ramdas Pophale) SiO2 
 PCOD9549695
Probable space group: P 42 2 2
;
_chemical_formula_sum "Si O2"
_cell_formula_units_Z 56
_cell_length_a 12.051620
_cell_length_b 12.051620
_cell_length_c 19.415838
_cell_angle_alpha 90.000000
_cell_angle_beta 90.000000
_cell_angle_gamma 90.000000
_cell_volume 2819.986301
_symmetry_space_group_name_H-M "P 42 2 2"
_symmetry_group_IT_number 93
_symmetry_cell_setting 'tetragonal'
loop_
_space_group_symop_operation_xyz
x,y,z
-y,x,1/2+z
-x,-y,z
y,-x,1/2+z
x,-y,-z
-x,y,-z
y,x,1/2-z
-y,-x,1/2-z
loop_
_atom_site_type_symbol
_atom_site_label
_atom_site_fract_x
_atom_site_fract_y
_atom_site_fract_z
Si Si1 0.137828 0.770196 0.177747
Si Si2 0.376134 0.115257 0.138850
Si Si3 0.613319 0.939817 0.300043
Si Si4 0.064673 0.223027 0.565597
Si Si5 0.432244 0.787029 0.064584
Si Si6 0.638945 0.689490 0.330184
Si Si7 0.345336 0.609782 0.170065
O O1 0.175124 0.824877 0.250000
O O2 0.149628 0.861295 0.117457
O O3 0.222515 0.665828 0.167275
O O4 0.017440 0.717555 0.184361
O O5 0.392545 0.083546 0.218319
O O6 0.492734 0.118618 0.099687
O O7 0.340627 0.244951 0.134713
O O8 0.287102 0.030977 0.108042
O O9 0.626291 0.821399 0.334508
O O10 0.500000 0.000000 0.320884
O O11 0.152772 0.318471 0.542379
O O12 0.000000 0.172887 0.500000
O O13 0.412607 0.692805 0.121358
O O14 0.500000 0.742991 0.000000
O O15 0.654897 0.654897 0.250000
O O16 0.518085 0.645199 0.352297
O O17 0.381497 0.618504 0.250000
#
# Coordination Sequence:
#
# PCOD9549695 Si02
#       7
#     8   8   8   8   8   8   8
#     4  10  20  34  60  95 121 159 215 275 320 374
#     4  11  22  34  55  89 126 166 205 260 323 386
#     4  11  19  36  63  88 121 161 215 271 323 378
#     4  11  21  37  61  88 126 163 210 264 327 390
#     4  11  22  35  60  93 125 171 219 257 316 396
#     4  10  22  36  56  87 124 170 207 258 331 392
#     4  10  20  36  56  88 128 168 209 257 321 388
#
# _framework density 19.858250999999999
#
# number of rings (size 3 to 8) (size 9 to 14) (size 15 to 20)
#    0.000    1.429    4.286    3.000    2.000    2.000 
#    0.000    2.143    0.000    1.714    0.000    1.000 
#    0.000    0.000    0.000    0.000    0.000    0.143 
#
# Total GULP energy -312676.966114 kJ/mol
# GULP energy per Si atom -5583.517252 kJ/mol
# Density = 1.981305 g / cm^3
# Si number density = 19.858251 Si / 1000 Ang^3
#
#
#
# Elastic Constant Matrix: (Units=GPa)
#
#
# Indices 1 2 3 4 5 6 
#
# 1 114.1415 37.3747 26.2933 0.0000 0.0000 0.0000
# 2 37.3747 114.1416 26.2934 0.0000 0.0000 0.0000
# 3 26.2933 26.2934 70.4221 0.0000 0.0000 0.0000
# 4 0.0000 0.0000 0.0000 23.2870 0.0000 0.0000
# 5 0.0000 0.0000 0.0000 0.0000 23.2870 0.0000
# 6 0.0000 0.0000 0.0000 0.0000 0.0000 28.4812
#
#
#
# Elastic Compliance Matrix: (Units=1/GPa)
#
#
# Indices 1 2 3 4 5 6 
#
# 1 0.010304 -0.002722 -0.002831 0.000000 0.000000 0.000000
# 2 -0.002722 0.010304 -0.002831 0.000000 0.000000 0.000000
# 3 -0.002831 -0.002831 0.016314 0.000000 0.000000 0.000000
# 4 0.000000 0.000000 0.000000 0.042942 0.000000 0.000000
# 5 0.000000 0.000000 0.000000 0.000000 0.042942 0.000000
# 6 0.000000 0.000000 0.000000 0.000000 0.000000 0.035111
#
#
# Mechanical properties :
#
#
# Convention : Reuss Voigt Hill
#
# Bulk Modulus (GPa) = 49.61566 53.18086 51.39826
# Shear Modulus (GPa) = 27.56260 28.92731 28.24495
#
# Velocity S-wave (km/s) = 3.72958 3.82080 3.77547
# Velocity P-wave (km/s) = 6.60194 6.80464 6.70405
#
# Compressibility (1/GPa) = 0.02015493
#
# Stress axis : x y z
#
# Youngs Moduli (GPa) = 97.04509 97.04502 61.29649
#
# Poissons Ratio (x) = 0.26415 0.17353
# Poissons Ratio (y) = 0.26415 0.17354
# Poissons Ratio (z) = 0.27474 0.27474
#
# Static dielectric constant tensor:
#      x y z
#    x 1.717420 0.000000 0.000000 
#    y 0.000000 1.717420 0.000000 
#    z 0.000000 0.000000 1.699070 
# 
# From -- ./inp_files/6274.got.cif
#   From: 2010.05.17/outbox.cif.g08.bks.cpg/sg93_4_cif.got.tgz:6274.got - 2010.06.03 19:38:44.
