data_PCOD9549732
_publ_section_title
;
Structure prediction by ZEFSAII (Michael W. Deem and Ramdas Pophale) SiO2 
 PCOD9549732
Probable space group: P 42 2 2
;
_chemical_formula_sum "Si O2"
_cell_formula_units_Z 38
_cell_length_a 11.823758
_cell_length_b 11.823758
_cell_length_c 14.577799
_cell_angle_alpha 90.000000
_cell_angle_beta 90.000000
_cell_angle_gamma 90.000000
_cell_volume 2037.994570
_symmetry_space_group_name_H-M "P 42 2 2"
_symmetry_group_IT_number 93
_symmetry_cell_setting 'tetragonal'
loop_
_space_group_symop_operation_xyz
x,y,z
-y,x,1/2+z
-x,-y,z
y,-x,1/2+z
x,-y,-z
-x,y,-z
y,x,1/2-z
-y,-x,1/2-z
loop_
_atom_site_type_symbol
_atom_site_label
_atom_site_fract_x
_atom_site_fract_y
_atom_site_fract_z
Si Si1 0.000000 0.000000 0.750000
Si Si2 0.088050 0.400181 0.162929
Si Si3 0.880363 0.322834 0.632255
Si Si4 0.654843 0.389027 0.848515
Si Si5 0.500000 0.000000 0.000000
Si Si6 0.500000 0.500000 0.000000
Si Si7 0.846127 0.932731 0.408173
O O1 0.003862 0.894223 0.818660
O O2 0.072369 0.353654 0.267102
O O3 0.218577 0.440311 0.153352
O O4 0.074822 0.289506 0.100021
O O5 0.000000 0.500000 0.144105
O O6 0.745555 0.329788 0.643125
O O7 0.899320 0.193676 0.599343
O O8 0.925595 0.416459 0.562552
O O9 0.595376 0.404625 0.750000
O O10 0.580516 0.429830 0.932634
O O11 0.874890 0.000000 0.500000
#
# Coordination Sequence:
#
# PCOD9549732 Si02
#       7
#     2   8   8   8   2   2   8
#     4  12  22  40  60  82 128 158 196 248 308 370
#     4  10  20  42  64  86 123 162 199 249 308 358
#     4  10  21  40  57  90 124 161 200 250 305 355
#     4   9  21  38  61  84 122 160 196 250 310 353
#     4  12  22  32  66  90 118 164 218 246 288 382
#     4  12  20  36  62  88 116 160 204 250 292 364
#     4  11  24  39  64  90 122 164 202 250 309 366
#
# _framework density 18.645782000000001
#
# number of rings (size 3 to 8) (size 9 to 14) (size 15 to 20)
#    0.000    1.684    3.158    2.526    2.947    3.789 
#    0.000    0.000    4.632    0.000    0.000    0.000 
#    0.000    0.000    0.000    0.000    0.000    0.000 
#
# Total GULP energy -212021.929005 kJ/mol
# GULP energy per Si atom -5579.524447 kJ/mol
# Density = 1.860334 g / cm^3
# Si number density = 18.645782 Si / 1000 Ang^3
#
#
#
# Elastic Constant Matrix: (Units=GPa)
#
#
# Indices 1 2 3 4 5 6 
#
# 1 78.2450 58.1653 35.5956 0.0000 0.0000 0.0000
# 2 58.1653 78.2446 35.5955 0.0000 0.0000 0.0000
# 3 35.5956 35.5955 124.3832 0.0000 0.0000 0.0000
# 4 0.0000 0.0000 0.0000 24.8096 0.0000 0.0000
# 5 0.0000 0.0000 0.0000 0.0000 24.8100 0.0000
# 6 0.0000 0.0000 0.0000 0.0000 0.0000 33.7369
#
#
#
# Elastic Compliance Matrix: (Units=1/GPa)
#
#
# Indices 1 2 3 4 5 6 
#
# 1 0.029210 -0.020592 -0.002466 0.000000 0.000000 0.000000
# 2 -0.020592 0.029210 -0.002466 0.000000 0.000000 0.000000
# 3 -0.002466 -0.002466 0.009451 0.000000 0.000000 0.000000
# 4 0.000000 0.000000 0.000000 0.040307 0.000000 0.000000
# 5 0.000000 0.000000 0.000000 0.000000 0.040306 0.000000
# 6 0.000000 0.000000 0.000000 0.000000 0.000000 0.029641
#
#
# Mechanical properties :
#
#
# Convention : Reuss Voigt Hill
#
# Bulk Modulus (GPa) = 59.44555 59.95397 59.69976
# Shear Modulus (GPa) = 21.29637 26.77241 24.03439
#
# Velocity S-wave (km/s) = 3.38324 3.79336 3.59416
# Velocity P-wave (km/s) = 6.87114 7.17008 7.02220
#
# Compressibility (1/GPa) = 0.01682212
#
# Stress axis : x y z
#
# Youngs Moduli (GPa) = 34.23501 34.23483 105.80623
#
# Poissons Ratio (x) = 0.70496 0.26095
# Poissons Ratio (y) = 0.70497 0.26095
# Poissons Ratio (z) = 0.08443 0.08443
#
# Static dielectric constant tensor:
#      x y z
#    x 1.649200 0.000000 0.000000 
#    y 0.000000 1.649200 0.000000 
#    z 0.000000 0.000000 1.664890 
# 
# From -- ./inp_files/4434.got.cif
#   From: 2010.05.17/outbox.cif.g08.bks.cpg/sg93_3_cif.got.tgz:4434.got - 2010.06.03 19:38:44.
