data_PCOD9549308
_publ_section_title
;
Structure prediction by ZEFSAII (Michael W. Deem and Ramdas Pophale) SiO2 
 PCOD9549308
Probable space group: P 41 21 2
;
_chemical_formula_sum "Si O2"
_cell_formula_units_Z 40
_cell_length_a 18.033641
_cell_length_b 18.033641
_cell_length_c 5.083615
_cell_angle_alpha 90.000000
_cell_angle_beta 90.000000
_cell_angle_gamma 90.000000
_cell_volume 1653.253657
_symmetry_space_group_name_H-M "P 41 21 2"
_symmetry_group_IT_number 92
_symmetry_cell_setting 'tetragonal'
loop_
_space_group_symop_operation_xyz
x,y,z
1/2-y,1/2+x,1/4+z
-x,-y,1/2+z
1/2+y,1/2-x,3/4+z
1/2+x,1/2-y,3/4-z
1/2-x,1/2+y,1/4-z
y,x,-z
-y,-x,1/2-z
loop_
_atom_site_type_symbol
_atom_site_label
_atom_site_fract_x
_atom_site_fract_y
_atom_site_fract_z
Si Si1 0.392825 0.032955 0.842558
Si Si2 0.966173 0.966173 0.000000
Si Si3 0.973642 0.188111 0.425107
Si Si4 0.685688 0.932632 0.850988
Si Si5 0.669510 0.669510 0.500000
Si Si6 0.272450 0.848870 0.847684
O O1 0.336994 0.071112 0.047306
O O2 0.418093 0.963185 0.013871
O O3 0.363135 0.015900 0.550039
O O4 0.885773 0.980256 0.133065
O O5 0.019718 0.980282 0.250000
O O6 0.898004 0.158233 0.553089
O O7 0.932570 0.243530 0.217622
O O8 0.028976 0.235048 0.609115
O O9 0.672192 0.852205 0.986160
O O10 0.657992 0.753977 0.405694
O O11 0.214695 0.785306 0.750000
#
# Coordination Sequence:
#
# PCOD9549308 Si02
#       6
#     8   4   8   8   4   8
#     4  12  25  46  67 104 145 195 241 304 362 435
#     4  12  26  46  77 108 141 190 246 312 376 440
#     4  11  25  46  73 108 145 191 250 310 365 452
#     4  12  28  42  76 104 148 190 255 298 372 444
#     4  10  22  46  75  96 145 190 248 286 394 432
#     4  10  24  45  70 104 142 200 232 307 373 452
#
# _framework density 24.194714999999999
#
# number of rings (size 3 to 8) (size 9 to 14) (size 15 to 20)
#    0.000    0.800    1.000    6.600   12.600    0.000 
#    0.000    1.000    0.000    0.000    0.000    0.000 
#    0.000    0.000    0.000    0.000    0.000    0.000 
#
# Total GULP energy -222841.614716 kJ/mol
# GULP energy per Si atom -5571.040368 kJ/mol
# Density = 2.413965 g / cm^3
# Si number density = 24.194715 Si / 1000 Ang^3
#
#
#
# Elastic Constant Matrix: (Units=GPa)
#
#
# Indices 1 2 3 4 5 6 
#
# 1 92.5856 9.5886 7.1947 0.0000 0.0000 0.0000
# 2 9.5886 92.5879 7.1942 0.0000 0.0000 0.0000
# 3 7.1947 7.1942 88.5131 0.0000 0.0000 0.0000
# 4 0.0000 0.0000 0.0000 33.6234 0.0000 0.0000
# 5 0.0000 0.0000 0.0000 0.0000 33.6232 0.0000
# 6 0.0000 0.0000 0.0000 0.0000 0.0000 16.2984
#
#
#
# Elastic Compliance Matrix: (Units=1/GPa)
#
#
# Indices 1 2 3 4 5 6 
#
# 1 0.010975 -0.001074 -0.000805 0.000000 0.000000 0.000000
# 2 -0.001074 0.010974 -0.000805 0.000000 0.000000 0.000000
# 3 -0.000805 -0.000805 0.011429 0.000000 0.000000 0.000000
# 4 0.000000 0.000000 0.000000 0.029741 0.000000 0.000000
# 5 0.000000 0.000000 0.000000 0.000000 0.029741 0.000000
# 6 0.000000 0.000000 0.000000 0.000000 0.000000 0.061356
#
#
# Mechanical properties :
#
#
# Convention : Reuss Voigt Hill
#
# Bulk Modulus (GPa) = 35.70082 35.73794 35.71938
# Shear Modulus (GPa) = 29.59993 33.35628 31.47810
#
# Velocity S-wave (km/s) = 3.50151 3.71706 3.61090
# Velocity P-wave (km/s) = 5.57989 5.76412 5.67275
#
# Compressibility (1/GPa) = 0.02801056
#
# Stress axis : x y z
#
# Youngs Moduli (GPa) = 91.11959 91.12197 87.49995
#
# Poissons Ratio (x) = 0.09787 0.07042
# Poissons Ratio (y) = 0.09786 0.07041
# Poissons Ratio (z) = 0.07333 0.07332
#
# Static dielectric constant tensor:
#      x y z
#    x 1.990760 0.000000 0.000000 
#    y 0.000000 1.990760 0.000000 
#    z 0.000000 0.000000 2.248000 
# 
# From -- ./inp_files/454.got.cif
#   From: 2010.05.17/outbox.cif.g08.bks.cpg/sg92_1_cif.got.tgz:454.got - 2010.06.03 19:35:17.
