data_PCOD9549032
_publ_section_title
;
Structure prediction by ZEFSAII (Michael W. Deem and Ramdas Pophale) SiO2 
 PCOD9549032
Probable space group: P 41 21 2
;
_chemical_formula_sum "Si O2"
_cell_formula_units_Z 56
_cell_length_a 14.179050
_cell_length_b 14.179050
_cell_length_c 11.442406
_cell_angle_alpha 90.000000
_cell_angle_beta 90.000000
_cell_angle_gamma 90.000000
_cell_volume 2300.443765
_symmetry_space_group_name_H-M "P 41 21 2"
_symmetry_group_IT_number 92
_symmetry_cell_setting 'tetragonal'
loop_
_space_group_symop_operation_xyz
x,y,z
1/2-y,1/2+x,1/4+z
-x,-y,1/2+z
1/2+y,1/2-x,3/4+z
1/2+x,1/2-y,3/4-z
1/2-x,1/2+y,1/4-z
y,x,-z
-y,-x,1/2-z
loop_
_atom_site_type_symbol
_atom_site_label
_atom_site_fract_x
_atom_site_fract_y
_atom_site_fract_z
Si Si1 0.996542 0.223470 0.405642
Si Si2 0.779063 0.796046 0.163031
Si Si3 0.151703 0.111624 0.867127
Si Si4 0.525651 0.200229 0.105898
Si Si5 0.183890 0.898834 0.898862
Si Si6 0.438241 0.999763 0.689030
Si Si7 0.818220 0.053802 0.671825
O O1 0.913927 0.153488 0.368296
O O2 0.997779 0.328154 0.349120
O O3 0.103447 0.189077 0.387653
O O4 0.982800 0.232891 0.545034
O O5 0.778822 0.818209 0.300396
O O6 0.862183 0.721176 0.146532
O O7 0.677911 0.763621 0.117699
O O8 0.044488 0.122501 0.820609
O O9 0.186090 0.004923 0.852442
O O10 0.141996 0.141996 0.000000
O O11 0.512175 0.097520 0.154302
O O12 0.477669 0.220794 0.982824
O O13 0.190044 0.915106 0.038705
O O14 0.437827 0.992985 0.834581
O O15 0.868537 0.131464 0.750000
#
# Coordination Sequence:
#
# PCOD9549032 Si02
#       7
#     8   8   8   8   8   8   8
#     4  11  23  40  64  97 131 172 231 279 346 414
#     4  11  24  41  64  95 134 173 222 278 345 412
#     4   9  23  41  62  97 135 166 219 284 342 410
#     4  10  21  41  64  96 126 172 222 287 335 418
#     4  11  23  42  65  98 132 176 218 283 356 408
#     4  10  23  44  68  95 137 188 237 286 345 422
#     4  10  20  37  66  97 126 164 218 274 343 403
#
# _framework density 24.343129999999999
#
# number of rings (size 3 to 8) (size 9 to 14) (size 15 to 20)
#    0.000    1.714    2.857    0.429    4.000    5.143 
#    2.571    4.286    0.000    0.000    0.000    0.000 
#    0.000    0.000    0.000    0.000    0.000    0.000 
#
# Total GULP energy -312674.030011 kJ/mol
# GULP energy per Si atom -5583.464822 kJ/mol
# Density = 2.428772 g / cm^3
# Si number density = 24.343130 Si / 1000 Ang^3
#
#
#
# Elastic Constant Matrix: (Units=GPa)
#
#
# Indices 1 2 3 4 5 6 
#
# 1 58.8673 20.8085 9.2270 0.0000 0.0000 0.0000
# 2 20.8085 58.8678 9.2264 0.0000 0.0000 0.0000
# 3 9.2270 9.2264 86.6397 0.0000 0.0000 0.0000
# 4 0.0000 0.0000 0.0000 35.7139 0.0000 0.0000
# 5 0.0000 0.0000 0.0000 0.0000 35.7139 0.0000
# 6 0.0000 0.0000 0.0000 0.0000 0.0000 31.4982
#
#
#
# Elastic Compliance Matrix: (Units=1/GPa)
#
#
# Indices 1 2 3 4 5 6 
#
# 1 0.019572 -0.006703 -0.001370 0.000000 0.000000 0.000000
# 2 -0.006703 0.019571 -0.001370 0.000000 0.000000 0.000000
# 3 -0.001370 -0.001370 0.011834 0.000000 0.000000 0.000000
# 4 0.000000 0.000000 0.000000 0.028000 0.000000 0.000000
# 5 0.000000 0.000000 0.000000 0.000000 0.028000 0.000000
# 6 0.000000 0.000000 0.000000 0.000000 0.000000 0.031748
#
#
# Mechanical properties :
#
#
# Convention : Reuss Voigt Hill
#
# Bulk Modulus (GPa) = 31.16355 31.43317 31.29836
# Shear Modulus (GPa) = 29.70705 31.59271 30.64988
#
# Velocity S-wave (km/s) = 3.49714 3.60642 3.55220
# Velocity P-wave (km/s) = 5.39779 5.50293 5.45062
#
# Compressibility (1/GPa) = 0.03208877
#
# Stress axis : x y z
#
# Youngs Moduli (GPa) = 51.09419 51.09474 84.50275
#
# Poissons Ratio (x) = 0.34251 0.11581
# Poissons Ratio (y) = 0.34250 0.11579
# Poissons Ratio (z) = 0.07002 0.07002
#
# Static dielectric constant tensor:
#      x y z
#    x 1.923470 0.000000 0.000000 
#    y 0.000000 1.923470 0.000000 
#    z 0.000000 0.000000 2.082450 
# 
# From -- ./inp_files/2294.got.cif
#   From: 2010.05.17/outbox.cif.g08.bks.cpg/sg92_2_cif.got.tgz:2294.got - 2010.06.03 19:35:17.
