data_PCOD9549815
_publ_section_title
;
Structure prediction by ZEFSAII (Michael W. Deem and Ramdas Pophale) SiO2 
 PCOD9549815
Probable space group: P 42 2 2
;
_chemical_formula_sum "Si O2"
_cell_formula_units_Z 36
_cell_length_a 14.757669
_cell_length_b 14.757669
_cell_length_c 8.581300
_cell_angle_alpha 90.000000
_cell_angle_beta 90.000000
_cell_angle_gamma 90.000000
_cell_volume 1868.910981
_symmetry_space_group_name_H-M "P 42 2 2"
_symmetry_group_IT_number 93
_symmetry_cell_setting 'tetragonal'
loop_
_space_group_symop_operation_xyz
x,y,z
-y,x,1/2+z
-x,-y,z
y,-x,1/2+z
x,-y,-z
-x,y,-z
y,x,1/2-z
-y,-x,1/2-z
loop_
_atom_site_type_symbol
_atom_site_label
_atom_site_fract_x
_atom_site_fract_y
_atom_site_fract_z
Si Si1 0.500000 0.347236 0.500000
Si Si2 0.690466 0.729590 0.572917
Si Si3 0.161991 0.000000 0.000000
Si Si4 0.845419 0.715780 0.348820
Si Si5 0.606961 0.895812 0.455465
Si Si6 0.000000 0.000000 0.750000
Si Si7 0.500000 0.500000 0.750000
O O1 0.406104 0.295755 0.500367
O O2 0.499188 0.411333 0.647818
O O3 0.700737 0.700737 0.750000
O O4 0.769163 0.684044 0.471381
O O5 0.680623 0.837934 0.555121
O O6 0.090742 0.005752 0.855980
O O7 0.230873 0.920213 0.949185
O O8 0.791851 0.791851 0.250000
O O9 0.878154 0.638970 0.225110
O O10 0.500000 0.876483 0.500000
O O11 0.619377 0.000000 0.500000
#
# Coordination Sequence:
#
# PCOD9549815 Si02
#       7
#     4   8   4   8   8   2   2
#     4  11  22  42  63  94 132 162 221 270 336 397
#     4  11  24  42  67  98 128 176 220 275 336 403
#     4  11  22  42  62  99 138 176 226 273 338 407
#     4  10  24  41  66  97 130 176 223 275 335 406
#     4  10  23  44  68  90 130 176 224 276 338 387
#     4  10  24  38  64  98 136 182 212 274 340 406
#     4  10  24  38  64  94 124 170 204 274 340 406
#
# _framework density 19.262554999999999
#
# number of rings (size 3 to 8) (size 9 to 14) (size 15 to 20)
#    0.000    1.556    3.333    0.000    9.333    1.778 
#    0.000    0.000    0.000    0.000    0.000    0.000 
#    0.000    0.000    0.000    0.000    0.000    0.000 
#
# Total GULP energy -200413.131421 kJ/mol
# GULP energy per Si atom -5567.031428 kJ/mol
# Density = 1.921871 g / cm^3
# Si number density = 19.262555 Si / 1000 Ang^3
#
#
#
# Elastic Constant Matrix: (Units=GPa)
#
#
# Indices 1 2 3 4 5 6 
#
# 1 101.2212 40.2606 57.0071 0.0000 0.0000 0.0000
# 2 40.2606 101.2212 57.0071 0.0000 0.0000 0.0000
# 3 57.0071 57.0071 122.6927 0.0000 0.0000 0.0000
# 4 0.0000 0.0000 0.0000 -6.9247 0.0000 0.0000
# 5 0.0000 0.0000 0.0000 0.0000 -6.9247 0.0000
# 6 0.0000 0.0000 0.0000 0.0000 0.0000 15.6835
#
#
#
# Elastic Compliance Matrix: (Units=1/GPa)
#
#
# Indices 1 2 3 4 5 6 
#
# 1 0.013851 -0.002553 -0.005250 0.000000 0.000000 0.000000
# 2 -0.002553 0.013851 -0.005250 0.000000 0.000000 0.000000
# 3 -0.005250 -0.005250 0.013029 0.000000 0.000000 0.000000
# 4 0.000000 0.000000 0.000000 -0.144410 0.000000 0.000000
# 5 0.000000 0.000000 0.000000 0.000000 -0.144410 0.000000
# 6 0.000000 0.000000 0.000000 0.000000 0.000000 0.063761
#
#
# Mechanical properties :
#
#
# Convention : Reuss Voigt Hill
#
# Bulk Modulus (GPa) = 68.36592 70.40938 69.38765
# Shear Modulus (GPa) = -32.60582 11.75749 -10.42416
#
# Velocity S-wave (km/s) = -4.11871 2.47327 -2.32881
# Velocity P-wave (km/s) = 3.59865 6.69238 5.37300
#
# Compressibility (1/GPa) = 0.01462717
#
# Stress axis : x y z
#
# Youngs Moduli (GPa) = 72.19547 72.19547 76.75313
#
# Poissons Ratio (x) = 0.18430 0.40293
# Poissons Ratio (y) = 0.18430 0.40293
# Poissons Ratio (z) = 0.37900 0.37900
#
# Static dielectric constant tensor:
#      x y z
#    x 1.820930 0.000000 0.000000 
#    y 0.000000 1.820930 0.000000 
#    z 0.000000 0.000000 1.691740 
# 
# From -- ./inp_files/1763.got.cif
#   From: 2010.05.17/outbox.cif.g08.bks.cpg/sg93_1_cif.got.tgz:1763.got - 2010.06.03 19:38:44.
