data_PCOD9549799
_publ_section_title
;
Structure prediction by ZEFSAII (Michael W. Deem and Ramdas Pophale) SiO2 
 PCOD9549799
Probable space group: P 42 2 2
;
_chemical_formula_sum "Si O2"
_cell_formula_units_Z 20
_cell_length_a 7.517462
_cell_length_b 7.517462
_cell_length_c 14.164873
_cell_angle_alpha 90.000000
_cell_angle_beta 90.000000
_cell_angle_gamma 90.000000
_cell_volume 800.488631
_symmetry_space_group_name_H-M "P 42 2 2"
_symmetry_group_IT_number 93
_symmetry_cell_setting 'tetragonal'
loop_
_space_group_symop_operation_xyz
x,y,z
-y,x,1/2+z
-x,-y,z
y,-x,1/2+z
x,-y,-z
-x,y,-z
y,x,1/2-z
-y,-x,1/2-z
loop_
_atom_site_type_symbol
_atom_site_label
_atom_site_fract_x
_atom_site_fract_y
_atom_site_fract_z
Si Si1 0.700578 0.570440 0.404175
Si Si2 0.289031 0.289031 0.750000
Si Si3 0.053814 0.812059 0.852262
O O1 0.500000 0.500000 0.407657
O O2 0.790832 0.500000 0.500000
O O3 0.753453 0.470610 0.307072
O O4 0.715982 0.782966 0.402282
O O5 0.131821 0.280607 0.827582
O O6 0.134328 0.865673 0.750000
O O7 0.000000 0.000000 0.897608
#
# Coordination Sequence:
#
# PCOD9549799 Si02
#       3
#     8   4   8
#     4  11  24  41  67 103 138 183 245 305 374 460
#     4  10  22  44  72  92 140 192 230 304 378 442
#     4   9  21  41  64  96 131 176 232 286 355 437
#
# _framework density 24.984742000000001
#
# number of rings (size 3 to 8) (size 9 to 14) (size 15 to 20)
#    0.000    2.400    0.000    3.000    0.000   16.000 
#    0.000   28.000    0.000    2.400    0.000    0.000 
#    0.000    0.000    0.000    0.000    0.000    0.000 
#
# Total GULP energy -111621.134843 kJ/mol
# GULP energy per Si atom -5581.056742 kJ/mol
# Density = 2.492788 g / cm^3
# Si number density = 24.984742 Si / 1000 Ang^3
#
#
#
# Elastic Constant Matrix: (Units=GPa)
#
#
# Indices 1 2 3 4 5 6 
#
# 1 141.3274 78.8488 26.8669 0.0000 0.0000 0.0000
# 2 78.8488 141.3270 26.8670 0.0000 0.0000 0.0000
# 3 26.8669 26.8670 98.8432 0.0000 0.0000 0.0000
# 4 0.0000 0.0000 0.0000 -51.0519 0.0000 0.0000
# 5 0.0000 0.0000 0.0000 0.0000 -51.0499 0.0000
# 6 0.0000 0.0000 0.0000 0.0000 0.0000 46.7632
#
#
#
# Elastic Compliance Matrix: (Units=1/GPa)
#
#
# Indices 1 2 3 4 5 6 
#
# 1 0.010435 -0.005571 -0.001322 0.000000 0.000000 0.000000
# 2 -0.005571 0.010435 -0.001322 0.000000 0.000000 0.000000
# 3 -0.001322 -0.001322 0.010836 0.000000 0.000000 0.000000
# 4 0.000000 0.000000 0.000000 -0.019588 0.000000 0.000000
# 5 0.000000 0.000000 0.000000 0.000000 -0.019589 0.000000
# 6 0.000000 0.000000 0.000000 0.000000 0.000000 0.021384
#
#
# Mechanical properties :
#
#
# Convention : Reuss Voigt Hill
#
# Bulk Modulus (GPa) = 65.46258 71.85143 68.65701
# Shear Modulus (GPa) = 141.10128 5.52663 73.31395
#
# Velocity S-wave (km/s) = 7.52314 1.48889 5.42284
# Velocity P-wave (km/s) = 10.08570 5.63705 8.16999
#
# Compressibility (1/GPa) = 0.01527590
#
# Stress axis : x y z
#
# Youngs Moduli (GPa) = 95.83133 95.83099 92.28637
#
# Poissons Ratio (x) = 0.53383 0.12202
# Poissons Ratio (y) = 0.53383 0.12203
# Poissons Ratio (z) = 0.12671 0.12671
#
# Static dielectric constant tensor:
#      x y z
#    x 2.014790 0.000000 0.000000 
#    y 0.000000 2.014790 0.000000 
#    z 0.000000 0.000000 2.180630 
# 
# From -- ./inp_files/3694.got.cif
#   From: 2010.05.17/outbox.cif.g08.bks.cpg/sg93_2_cif.got.tgz:3694.got - 2010.06.03 19:38:44.
