data_PCOD9549502
_publ_section_title
;
Structure prediction by ZEFSAII (Michael W. Deem and Ramdas Pophale) SiO2 
 PCOD9549502
Probable space group: P 41 21 2
;
_chemical_formula_sum "Si O2"
_cell_formula_units_Z 48
_cell_length_a 11.673374
_cell_length_b 11.673374
_cell_length_c 16.226022
_cell_angle_alpha 90.000000
_cell_angle_beta 90.000000
_cell_angle_gamma 90.000000
_cell_volume 2211.082058
_symmetry_space_group_name_H-M "P 41 21 2"
_symmetry_group_IT_number 92
_symmetry_cell_setting 'tetragonal'
loop_
_space_group_symop_operation_xyz
x,y,z
1/2-y,1/2+x,1/4+z
-x,-y,1/2+z
1/2+y,1/2-x,3/4+z
1/2+x,1/2-y,3/4-z
1/2-x,1/2+y,1/4-z
y,x,-z
-y,-x,1/2-z
loop_
_atom_site_type_symbol
_atom_site_label
_atom_site_fract_x
_atom_site_fract_y
_atom_site_fract_z
Si Si1 0.184967 0.526133 0.232181
Si Si2 0.635364 0.730743 0.127646
Si Si3 0.059537 0.420341 0.494126
Si Si4 0.709873 0.709873 0.500000
Si Si5 0.560737 0.560737 0.000000
Si Si6 0.990938 0.813110 0.310579
Si Si7 0.333179 0.125944 0.326672
O O1 0.258536 0.449229 0.294956
O O2 0.189045 0.656822 0.260938
O O3 0.242327 0.537142 0.142194
O O4 0.054816 0.476687 0.234425
O O5 0.601492 0.830736 0.063429
O O6 0.764264 0.745397 0.158792
O O7 0.631068 0.610634 0.077753
O O8 0.081588 0.380611 0.586681
O O9 0.951389 0.344166 0.468197
O O10 0.660252 0.626775 0.571214
O O11 0.570635 0.431721 0.963911
O O12 0.962027 0.732422 0.232491
#
# Coordination Sequence:
#
# PCOD9549502 Si02
#       7
#     8   8   8   4   4   8   8
#     4  12  25  47  78 108 148 205 257 308 387 471
#     4  12  27  46  77 110 151 202 254 317 394 466
#     4  12  24  48  74 111 144 198 263 310 387 466
#     4  11  24  46  66 109 140 184 254 307 362 440
#     4  11  26  50  68 105 162 196 250 315 396 472
#     4  11  27  43  74 109 151 195 248 321 382 458
#     4  12  26  45  76 110 148 194 253 329 376 464
#
# _framework density 21.708828
#
# number of rings (size 3 to 8) (size 9 to 14) (size 15 to 20)
#    0.000    0.333    5.000    3.000    7.000    1.333 
#    0.000    0.000    0.000    0.000    0.000    0.000 
#    0.000    0.000    0.000    0.000    0.000    0.000 
#
# Total GULP energy -267617.887191 kJ/mol
# GULP energy per Si atom -5575.372650 kJ/mol
# Density = 2.165942 g / cm^3
# Si number density = 21.708828 Si / 1000 Ang^3
#
#
#
# Elastic Constant Matrix: (Units=GPa)
#
#
# Indices 1 2 3 4 5 6 
#
# 1 94.0252 6.1950 49.9842 0.0000 0.0000 0.0000
# 2 6.1950 94.0252 49.9842 0.0000 0.0000 0.0000
# 3 49.9842 49.9842 108.4711 0.0000 0.0000 0.0000
# 4 0.0000 0.0000 0.0000 27.2881 0.0000 0.0000
# 5 0.0000 0.0000 0.0000 0.0000 27.2881 0.0000
# 6 0.0000 0.0000 0.0000 0.0000 0.0000 32.5216
#
#
#
# Elastic Compliance Matrix: (Units=1/GPa)
#
#
# Indices 1 2 3 4 5 6 
#
# 1 0.014926 0.003540 -0.008509 0.000000 0.000000 0.000000
# 2 0.003540 0.014926 -0.008509 0.000000 0.000000 0.000000
# 3 -0.008509 -0.008509 0.017061 0.000000 0.000000 0.000000
# 4 0.000000 0.000000 0.000000 0.036646 0.000000 0.000000
# 5 0.000000 0.000000 0.000000 0.000000 0.036646 0.000000
# 6 0.000000 0.000000 0.000000 0.000000 0.000000 0.030749
#
#
# Mechanical properties :
#
#
# Convention : Reuss Voigt Hill
#
# Bulk Modulus (GPa) = 50.10986 56.53873 53.32429
# Shear Modulus (GPa) = 27.09115 30.11009 28.60062
#
# Velocity S-wave (km/s) = 3.53644 3.72828 3.63363
# Velocity P-wave (km/s) = 6.30936 6.68088 6.49777
#
# Compressibility (1/GPa) = 0.01995615
#
# Stress axis : x y z
#
# Youngs Moduli (GPa) = 66.99844 66.99844 58.61240
#
# Poissons Ratio (x) = -0.23718 0.49874
# Poissons Ratio (y) = -0.23718 0.49874
# Poissons Ratio (z) = 0.57010 0.57010
#
# Static dielectric constant tensor:
#      x y z
#    x 1.874170 0.000000 0.000000 
#    y 0.000000 1.874170 0.000000 
#    z 0.000000 0.000000 1.882250 
# 
# From -- ./inp_files/3175.got.cif
#   From: 2010.05.17/outbox.cif.g08.bks.cpg/sg92_2_cif.got.tgz:3175.got - 2010.06.03 19:35:17.
