data_PCOD9549992
_publ_section_title
;
Structure prediction by ZEFSAII (Michael W. Deem and Ramdas Pophale) SiO2 
 PCOD9549992
Probable space group: P 42 21 2
;
_chemical_formula_sum "Si O2"
_cell_formula_units_Z 52
_cell_length_a 16.614535
_cell_length_b 16.614535
_cell_length_c 9.627029
_cell_angle_alpha 90.000000
_cell_angle_beta 90.000000
_cell_angle_gamma 90.000000
_cell_volume 2657.471783
_symmetry_space_group_name_H-M "P 42 21 2"
_symmetry_group_IT_number 94
_symmetry_cell_setting 'tetragonal'
loop_
_space_group_symop_operation_xyz
x,y,z
1/2-y,1/2+x,1/2+z
-x,-y,z
1/2+y,1/2-x,1/2+z
1/2+x,1/2-y,1/2-z
1/2-x,1/2+y,1/2-z
y,x,-z
-y,-x,-z
loop_
_atom_site_type_symbol
_atom_site_label
_atom_site_fract_x
_atom_site_fract_y
_atom_site_fract_z
Si Si1 0.597807 0.801541 0.146935
Si Si2 0.913926 0.293122 0.024711
Si Si3 0.214749 0.556964 0.327143
Si Si4 0.066751 0.295136 0.508594
Si Si5 0.398342 0.398342 0.500000
Si Si6 0.634468 0.634468 0.000000
Si Si7 0.395239 0.604762 0.000000
Si Si8 0.999458 0.111501 0.738395
O O1 0.511790 0.820385 0.076877
O O2 0.673785 0.860513 0.124419
O O3 0.580621 0.802280 0.310611
O O4 0.624364 0.715863 0.086411
O O5 0.841765 0.350735 0.974726
O O6 0.906619 0.197751 0.004249
O O7 0.990742 0.316123 0.933990
O O8 0.186634 0.545227 0.168793
O O9 0.311575 0.545877 0.308278
O O10 0.086335 0.199893 0.496380
O O11 0.425679 0.447517 0.363605
O O12 0.634410 0.564516 0.117014
O O13 0.431338 0.566210 0.141338
#
# Coordination Sequence:
#
# PCOD9549992 Si02
#       8
#     8   8   8   8   4   4   4   8
#     4  11  22  39  62  92 127 168 222 267 328 399
#     4  10  21  38  62  91 126 169 211 272 329 381
#     4   9  21  40  58  91 128 161 215 275 318 395
#     4  10  21  39  62  89 126 169 219 264 326 401
#     4  10  19  38  66  96 123 169 213 270 328 392
#     4  12  20  41  66  92 118 181 218 262 322 418
#     4  10  19  39  62  97 127 162 221 275 312 406
#     4  10  21  39  67  94 130 166 220 268 334 388
#
# _framework density 19.56747
#
# number of rings (size 3 to 8) (size 9 to 14) (size 15 to 20)
#    0.000    1.846    4.615    0.462    0.000    2.154 
#    0.000    3.077    0.000   18.462    0.000    0.000 
#    0.000    0.000    0.000    0.000    0.000    0.000 
#
# Total GULP energy -289657.765590 kJ/mol
# GULP energy per Si atom -5570.341646 kJ/mol
# Density = 1.952293 g / cm^3
# Si number density = 19.567470 Si / 1000 Ang^3
#
#
#
# Elastic Constant Matrix: (Units=GPa)
#
#
# Indices 1 2 3 4 5 6 
#
# 1 72.3727 69.5979 52.5144 0.0000 0.0000 0.0000
# 2 69.5979 72.3734 52.5145 0.0000 0.0000 0.0000
# 3 52.5144 52.5145 95.2461 0.0000 0.0000 0.0000
# 4 0.0000 0.0000 0.0000 30.8959 0.0000 0.0000
# 5 0.0000 0.0000 0.0000 0.0000 30.8959 0.0000
# 6 0.0000 0.0000 0.0000 0.0000 0.0000 25.5213
#
#
#
# Elastic Compliance Matrix: (Units=1/GPa)
#
#
# Indices 1 2 3 4 5 6 
#
# 1 0.186119 -0.174222 -0.006559 0.000000 0.000000 0.000000
# 2 -0.174222 0.186117 -0.006558 0.000000 0.000000 0.000000
# 3 -0.006559 -0.006558 0.017732 0.000000 0.000000 0.000000
# 4 0.000000 0.000000 0.000000 0.032367 0.000000 0.000000
# 5 0.000000 0.000000 0.000000 0.000000 0.032367 0.000000
# 6 0.000000 0.000000 0.000000 0.000000 0.000000 0.039183
#
#
# Mechanical properties :
#
#
# Convention : Reuss Voigt Hill
#
# Bulk Modulus (GPa) = 65.41092 65.47177 65.44134
# Shear Modulus (GPa) = 5.72305 21.82032 13.77169
#
# Velocity S-wave (km/s) = 1.71205 3.34298 2.65581
# Velocity P-wave (km/s) = 6.11630 6.95937 6.55141
#
# Compressibility (1/GPa) = 0.01528797
#
# Stress axis : x y z
#
# Youngs Moduli (GPa) = 5.37290 5.37297 56.39638
#
# Poissons Ratio (x) = 0.93609 0.36992
# Poissons Ratio (y) = 0.93608 0.36987
# Poissons Ratio (z) = 0.03524 0.03524
#
# Static dielectric constant tensor:
#      x y z
#    x 1.746070 0.000000 0.000000 
#    y 0.000000 1.746060 0.000000 
#    z 0.000000 0.000000 1.683910 
# 
# From -- ./inp_files/1723.got.cif
#   From: 2010.05.17/outbox.cif.g08.bks.cpg/sg94_1_cif.got.tgz:1723.got - 2010.06.03 19:43:16.
