data_PCOD9549357
_publ_section_title
;
Structure prediction by ZEFSAII (Michael W. Deem and Ramdas Pophale) SiO2 
 PCOD9549357
Probable space group: P 41 21 2
;
_chemical_formula_sum "Si O2"
_cell_formula_units_Z 20
_cell_length_a 9.141334
_cell_length_b 9.141334
_cell_length_c 9.529820
_cell_angle_alpha 90.000000
_cell_angle_beta 90.000000
_cell_angle_gamma 90.000000
_cell_volume 796.349757
_symmetry_space_group_name_H-M "P 41 21 2"
_symmetry_group_IT_number 92
_symmetry_cell_setting 'tetragonal'
loop_
_space_group_symop_operation_xyz
x,y,z
1/2-y,1/2+x,1/4+z
-x,-y,1/2+z
1/2+y,1/2-x,3/4+z
1/2+x,1/2-y,3/4-z
1/2-x,1/2+y,1/4-z
y,x,-z
-y,-x,1/2-z
loop_
_atom_site_type_symbol
_atom_site_label
_atom_site_fract_x
_atom_site_fract_y
_atom_site_fract_z
Si Si1 0.793622 0.820693 0.787703
Si Si2 0.596658 0.090687 0.810489
Si Si3 0.867576 0.132425 0.250000
O O1 0.733995 0.833261 0.628954
O O2 0.958810 0.706169 0.143219
O O3 0.964948 0.843693 0.792658
O O4 0.732358 0.681499 0.869143
O O5 0.445457 0.076396 0.897610
#
# Coordination Sequence:
#
# PCOD9549357 Si02
#       3
#     8   8   4
#     4  10  23  45  77 110 165 214 267 344 403 494
#     4   8  19  46  75 115 167 213 264 332 393 475
#     4  12  24  48  74 116 158 214 272 348 422 484
#
# _framework density 25.114591999999998
#
# number of rings (size 3 to 8) (size 9 to 14) (size 15 to 20)
#    2.400    0.000    0.000    2.400    0.000    0.000 
#    7.200    8.000    0.000    0.000    0.000    0.000 
#    0.000    0.000    0.000    0.000    0.000    0.000 
#
# Total GULP energy -111728.118478 kJ/mol
# GULP energy per Si atom -5586.405924 kJ/mol
# Density = 2.505743 g / cm^3
# Si number density = 25.114592 Si / 1000 Ang^3
#
#
#
# Elastic Constant Matrix: (Units=GPa)
#
#
# Indices 1 2 3 4 5 6 
#
# 1 151.6486 46.5635 12.7256 0.0000 0.0000 0.0000
# 2 46.5635 151.6433 12.7260 0.0000 0.0000 0.0000
# 3 12.7256 12.7260 128.6526 0.0000 0.0000 0.0000
# 4 0.0000 0.0000 0.0000 37.7573 0.0000 0.0000
# 5 0.0000 0.0000 0.0000 0.0000 37.7576 0.0000
# 6 0.0000 0.0000 0.0000 0.0000 0.0000 44.0655
#
#
#
# Elastic Compliance Matrix: (Units=1/GPa)
#
#
# Indices 1 2 3 4 5 6 
#
# 1 0.007313 -0.002203 -0.000505 0.000000 0.000000 0.000000
# 2 -0.002203 0.007313 -0.000505 0.000000 0.000000 0.000000
# 3 -0.000505 -0.000505 0.007873 0.000000 0.000000 0.000000
# 4 0.000000 0.000000 0.000000 0.026485 0.000000 0.000000
# 5 0.000000 0.000000 0.000000 0.000000 0.026485 0.000000
# 6 0.000000 0.000000 0.000000 0.000000 0.000000 0.022694
#
#
# Mechanical properties :
#
#
# Convention : Reuss Voigt Hill
#
# Bulk Modulus (GPa) = 62.22333 63.99720 63.11027
# Shear Modulus (GPa) = 45.47618 47.91136 46.69377
#
# Velocity S-wave (km/s) = 4.25990 4.37247 4.31656
# Velocity P-wave (km/s) = 7.00180 7.14344 7.07298
#
# Compressibility (1/GPa) = 0.01607114
#
# Stress axis : x y z
#
# Youngs Moduli (GPa) = 136.74141 136.73647 127.01848
#
# Poissons Ratio (x) = 0.30125 0.06420
# Poissons Ratio (y) = 0.30126 0.06421
# Poissons Ratio (z) = 0.06911 0.06912
#
# Static dielectric constant tensor:
#      x y z
#    x 1.986610 0.000000 0.000000 
#    y 0.000000 1.986620 0.000000 
#    z 0.000000 0.000000 2.024780 
# 
# From -- ./inp_files/1766.got.cif
#   From: 2010.05.17/outbox.cif.g08.bks.cpg/sg92_1_cif.got.tgz:1766.got - 2010.06.03 19:35:17.
