data_PCOD9549301
_publ_section_title
;
Structure prediction by ZEFSAII (Michael W. Deem and Ramdas Pophale) SiO2 
 PCOD9549301
Probable space group: P 41 21 2
;
_chemical_formula_sum "Si O2"
_cell_formula_units_Z 40
_cell_length_a 13.802445
_cell_length_b 13.802445
_cell_length_c 9.001093
_cell_angle_alpha 90.000000
_cell_angle_beta 90.000000
_cell_angle_gamma 90.000000
_cell_volume 1714.775616
_symmetry_space_group_name_H-M "P 41 21 2"
_symmetry_group_IT_number 92
_symmetry_cell_setting 'tetragonal'
loop_
_space_group_symop_operation_xyz
x,y,z
1/2-y,1/2+x,1/4+z
-x,-y,1/2+z
1/2+y,1/2-x,3/4+z
1/2+x,1/2-y,3/4-z
1/2-x,1/2+y,1/4-z
y,x,-z
-y,-x,1/2-z
loop_
_atom_site_type_symbol
_atom_site_label
_atom_site_fract_x
_atom_site_fract_y
_atom_site_fract_z
Si Si1 0.142982 0.848757 0.574790
Si Si2 0.963103 0.615970 0.650633
Si Si3 0.061899 0.217397 0.961992
Si Si4 0.855428 0.693210 0.189187
Si Si5 0.783342 0.499614 0.195764
O O1 0.133152 0.866848 0.750000
O O2 0.241232 0.785188 0.555251
O O3 0.179636 0.953691 0.516505
O O4 0.049652 0.803859 0.499659
O O5 0.924700 0.535850 0.770661
O O6 0.897517 0.688443 0.551868
O O7 0.001305 0.695574 0.770585
O O8 0.124334 0.124334 0.000000
O O9 0.078885 0.241424 0.791119
O O10 0.859715 0.582062 0.247459
O O11 0.899385 0.698883 0.025203
#
# Coordination Sequence:
#
# PCOD9549301 Si02
#       5
#     8   8   8   8   8
#     4  10  23  50  72 101 162 198 260 314 389 476
#     4  12  27  43  79 113 157 199 266 327 391 457
#     4  12  29  48  75 114 157 208 261 322 396 472
#     4  10  25  43  76 110 150 197 258 319 393 448
#     4  10  22  45  74 109 147 203 249 320 394 460
#
# _framework density 23.326667
#
# number of rings (size 3 to 8) (size 9 to 14) (size 15 to 20)
#    1.200    0.000    4.000    0.000    8.400    0.800 
#    3.600    0.000    0.000    0.000    0.000    0.000 
#    0.000    0.000    0.000    0.000    0.000    0.000 
#
# Total GULP energy -222684.070268 kJ/mol
# GULP energy per Si atom -5567.101757 kJ/mol
# Density = 2.327357 g / cm^3
# Si number density = 23.326667 Si / 1000 Ang^3
#
#
#
# Elastic Constant Matrix: (Units=GPa)
#
#
# Indices 1 2 3 4 5 6 
#
# 1 116.9973 22.5347 47.6231 0.0000 0.0000 0.0000
# 2 22.5347 116.9975 47.6234 0.0000 0.0000 0.0000
# 3 47.6231 47.6234 98.9405 0.0000 0.0000 0.0000
# 4 0.0000 0.0000 0.0000 1.3950 0.0000 0.0000
# 5 0.0000 0.0000 0.0000 0.0000 1.3936 0.0000
# 6 0.0000 0.0000 0.0000 0.0000 0.0000 23.5811
#
#
#
# Elastic Compliance Matrix: (Units=1/GPa)
#
#
# Indices 1 2 3 4 5 6 
#
# 1 0.010630 0.000044 -0.005138 0.000000 0.000000 0.000000
# 2 0.000044 0.010630 -0.005138 0.000000 0.000000 0.000000
# 3 -0.005138 -0.005138 0.015053 0.000000 0.000000 0.000000
# 4 0.000000 0.000000 0.000000 0.716855 0.000000 0.000000
# 5 0.000000 0.000000 0.000000 0.000000 0.717572 0.000000
# 6 0.000000 0.000000 0.000000 0.000000 0.000000 0.042407
#
#
# Mechanical properties :
#
#
# Convention : Reuss Voigt Hill
#
# Bulk Modulus (GPa) = 63.09165 63.16643 63.12904
# Shear Modulus (GPa) = 3.24909 19.61755 11.43332
#
# Velocity S-wave (km/s) = 1.18148 2.90313 2.21631
# Velocity P-wave (km/s) = 5.38209 6.19479 5.80269
#
# Compressibility (1/GPa) = 0.01584996
#
# Stress axis : x y z
#
# Youngs Moduli (GPa) = 94.07325 94.07316 66.43226
#
# Poissons Ratio (x) = -0.00412 0.34131
# Poissons Ratio (y) = -0.00412 0.34131
# Poissons Ratio (z) = 0.48332 0.48332
#
# Static dielectric constant tensor:
#      x y z
#    x 1.997730 0.000000 0.000000 
#    y 0.000000 1.997740 0.000000 
#    z 0.000000 0.000000 1.978100 
# 
# From -- ./inp_files/1287.got.cif
#   From: 2010.05.17/outbox.cif.g08.bks.cpg/sg92_1_cif.got.tgz:1287.got - 2010.06.03 19:35:17.
