data_PCOD9549144
_publ_section_title
;
Structure prediction by ZEFSAII (Michael W. Deem and Ramdas Pophale) SiO2 
 PCOD9549144
Probable space group: P 41 21 2
;
_chemical_formula_sum "Si O2"
_cell_formula_units_Z 48
_cell_length_a 13.385059
_cell_length_b 13.385059
_cell_length_c 11.510910
_cell_angle_alpha 90.000000
_cell_angle_beta 90.000000
_cell_angle_gamma 90.000000
_cell_volume 2062.292384
_symmetry_space_group_name_H-M "P 41 21 2"
_symmetry_group_IT_number 92
_symmetry_cell_setting 'tetragonal'
loop_
_space_group_symop_operation_xyz
x,y,z
1/2-y,1/2+x,1/4+z
-x,-y,1/2+z
1/2+y,1/2-x,3/4+z
1/2+x,1/2-y,3/4-z
1/2-x,1/2+y,1/4-z
y,x,-z
-y,-x,1/2-z
loop_
_atom_site_type_symbol
_atom_site_label
_atom_site_fract_x
_atom_site_fract_y
_atom_site_fract_z
Si Si1 0.692088 0.537538 0.472825
Si Si2 0.860974 0.090793 0.020960
Si Si3 0.988474 0.266077 0.067416
Si Si4 0.935167 0.861712 0.777747
Si Si5 0.032804 0.570416 0.232499
Si Si6 0.767996 0.727166 0.870771
O O1 0.649043 0.649043 0.500000
O O2 0.771142 0.228859 0.250000
O O3 0.667179 0.524579 0.336378
O O4 0.616418 0.457774 0.528766
O O5 0.882536 0.027051 0.135774
O O6 0.684578 0.118935 0.404086
O O7 0.951997 0.167537 0.998403
O O8 0.034210 0.220149 0.183117
O O9 0.982036 0.309316 0.738992
O O10 0.769855 0.168223 0.042833
O O11 0.846673 0.811052 0.849416
O O12 0.021961 0.525681 0.097961
O O13 0.150547 0.553889 0.258597
#
# Coordination Sequence:
#
# PCOD9549144 Si02
#       6
#     8   8   8   8   8   8
#     4  12  28  44  71 109 155 195 261 322 390 467
#     4  10  22  46  69 103 145 191 257 312 378 473
#     4  10  22  46  75  99 142 199 251 304 398 471
#     4  12  23  43  76 111 144 196 261 323 382 463
#     4  12  30  51  74 111 157 208 260 321 401 476
#     4  10  21  40  71 106 138 191 255 321 384 461
#
# _framework density 23.275072000000002
#
# number of rings (size 3 to 8) (size 9 to 14) (size 15 to 20)
#    1.000    0.000    1.667    5.000    4.667    4.000 
#    0.000    3.333    0.000    0.000    0.000    0.000 
#    0.000    0.000    0.000    0.000    0.000    0.000 
#
# Total GULP energy -267656.694735 kJ/mol
# GULP energy per Si atom -5576.181140 kJ/mol
# Density = 2.322210 g / cm^3
# Si number density = 23.275072 Si / 1000 Ang^3
#
#
#
# Elastic Constant Matrix: (Units=GPa)
#
#
# Indices 1 2 3 4 5 6 
#
# 1 95.6571 42.5417 21.8744 0.0000 0.0000 0.0000
# 2 42.5417 95.6574 21.8759 0.0000 0.0000 0.0000
# 3 21.8744 21.8759 93.6210 0.0000 0.0000 0.0000
# 4 0.0000 0.0000 0.0000 34.9505 0.0000 0.0000
# 5 0.0000 0.0000 0.0000 0.0000 34.9520 0.0000
# 6 0.0000 0.0000 0.0000 0.0000 0.0000 38.6448
#
#
#
# Elastic Compliance Matrix: (Units=1/GPa)
#
#
# Indices 1 2 3 4 5 6 
#
# 1 0.013320 -0.005506 -0.001826 0.000000 0.000000 0.000000
# 2 -0.005506 0.013320 -0.001826 0.000000 0.000000 0.000000
# 3 -0.001826 -0.001826 0.011535 0.000000 0.000000 0.000000
# 4 0.000000 0.000000 0.000000 0.028612 0.000000 0.000000
# 5 0.000000 0.000000 0.000000 0.000000 0.028611 0.000000
# 6 0.000000 0.000000 0.000000 0.000000 0.000000 0.025877
#
#
# Mechanical properties :
#
#
# Convention : Reuss Voigt Hill
#
# Bulk Modulus (GPa) = 50.35413 50.83550 50.59482
# Shear Modulus (GPa) = 34.19727 34.95236 34.57482
#
# Velocity S-wave (km/s) = 3.83726 3.87939 3.85838
# Velocity P-wave (km/s) = 6.42760 6.47726 6.45248
#
# Compressibility (1/GPa) = 0.01985934
#
# Stress axis : x y z
#
# Youngs Moduli (GPa) = 75.07291 75.07261 86.69590
#
# Poissons Ratio (x) = 0.41339 0.15827
# Poissons Ratio (y) = 0.41339 0.15830
# Poissons Ratio (z) = 0.13705 0.13708
#
# Static dielectric constant tensor:
#      x y z
#    x 1.591720 0.000000 0.000000 
#    y 0.000000 1.591720 0.000000 
#    z 0.000000 0.000000 1.980430 
# 
# From -- ./inp_files/2186.got.cif
#   From: 2010.05.17/outbox.cif.g08.bks.cpg/sg92_2_cif.got.tgz:2186.got - 2010.06.03 19:35:17.
