data_PCOD9549661
_publ_section_title
;
Structure prediction by ZEFSAII (Michael W. Deem and Ramdas Pophale) SiO2 
 PCOD9549661
Probable space group: P 42 2 2
;
_chemical_formula_sum "Si O2"
_cell_formula_units_Z 32
_cell_length_a 13.827568
_cell_length_b 13.827568
_cell_length_c 8.028814
_cell_angle_alpha 90.000000
_cell_angle_beta 90.000000
_cell_angle_gamma 90.000000
_cell_volume 1535.122378
_symmetry_space_group_name_H-M "P 42 2 2"
_symmetry_group_IT_number 93
_symmetry_cell_setting 'tetragonal'
loop_
_space_group_symop_operation_xyz
x,y,z
-y,x,1/2+z
-x,-y,z
y,-x,1/2+z
x,-y,-z
-x,y,-z
y,x,1/2-z
-y,-x,1/2-z
loop_
_atom_site_type_symbol
_atom_site_label
_atom_site_fract_x
_atom_site_fract_y
_atom_site_fract_z
Si Si1 0.263050 0.899369 0.566858
Si Si2 0.154401 0.699719 0.579932
Si Si3 0.637042 0.196980 0.269088
Si Si4 0.454320 0.315211 0.175513
O O1 0.186170 0.811511 0.560769
O O2 0.300623 0.911886 0.755882
O O3 0.344128 0.862977 0.436137
O O4 0.222877 0.000000 0.500000
O O5 0.132911 0.653123 0.399293
O O6 0.246011 0.636450 0.638308
O O7 0.719604 0.280397 0.250000
O O8 0.535269 0.253013 0.271116
O O9 0.412111 0.412111 0.250000
O O10 0.500000 0.339588 0.000000
#
# Coordination Sequence:
#
# PCOD9549661 Si02
#       4
#     8   8   8   8
#     4  10  19  35  61  86 112 157 197 237 304 353
#     4   9  19  39  56  81 122 150 191 249 293 348
#     4   9  20  36  56  82 115 154 197 240 289 348
#     4  10  19  37  60  79 115 162 194 248 296 341
#
# _framework density 20.845243
#
# number of rings (size 3 to 8) (size 9 to 14) (size 15 to 20)
#    0.000    2.500    2.500    0.000    0.000    2.500 
#    0.000    8.750    0.000    4.500    0.000   94.500 
#    0.000    0.000    0.000    0.000    0.000    0.000 
#
# Total GULP energy -178362.946049 kJ/mol
# GULP energy per Si atom -5573.842064 kJ/mol
# Density = 2.079780 g / cm^3
# Si number density = 20.845243 Si / 1000 Ang^3
#
#
#
# Elastic Constant Matrix: (Units=GPa)
#
#
# Indices 1 2 3 4 5 6 
#
# 1 38.1555 69.3166 34.0413 0.0000 0.0000 0.0000
# 2 69.3166 38.1601 34.0428 0.0000 0.0000 0.0000
# 3 34.0413 34.0428 125.9576 0.0000 0.0000 0.0000
# 4 0.0000 0.0000 0.0000 15.0447 0.0000 0.0000
# 5 0.0000 0.0000 0.0000 0.0000 15.0447 0.0000
# 6 0.0000 0.0000 0.0000 0.0000 0.0000 6.6526
#
#
#
# Elastic Compliance Matrix: (Units=1/GPa)
#
#
# Indices 1 2 3 4 5 6 
#
# 1 -0.010434 0.021660 -0.003034 0.000000 0.000000 0.000000
# 2 0.021660 -0.010433 -0.003034 0.000000 0.000000 0.000000
# 3 -0.003034 -0.003034 0.009579 0.000000 0.000000 0.000000
# 4 0.000000 0.000000 0.000000 0.066469 0.000000 0.000000
# 5 0.000000 0.000000 0.000000 0.000000 0.066469 0.000000
# 6 0.000000 0.000000 0.000000 0.000000 0.000000 0.150318
#
#
# Mechanical properties :
#
#
# Convention : Reuss Voigt Hill
#
# Bulk Modulus (GPa) = 50.26174 53.00830 51.63502
# Shear Modulus (GPa) = 20.20887 11.67321 15.94104
#
# Velocity S-wave (km/s) = 3.11701 2.36899 2.76838
# Velocity P-wave (km/s) = 6.09250 5.74173 5.91971
#
# Compressibility (1/GPa) = 0.01989585
#
# Stress axis : x y z
#
# Youngs Moduli (GPa) = -95.83924 -95.85165 104.39226
#
# Poissons Ratio (x) = 2.07616 0.31675
# Poissons Ratio (y) = 2.07589 0.31674
# Poissons Ratio (z) = -0.29080 -0.29083
#
# Static dielectric constant tensor:
#      x y z
#    x 1.964990 0.000000 0.000000 
#    y 0.000000 1.965010 0.000000 
#    z 0.000000 0.000000 1.868010 
# 
# From -- ./inp_files/1536.got.cif
#   From: 2010.05.17/outbox.cif.g08.bks.cpg/sg93_1_cif.got.tgz:1536.got - 2010.06.03 19:38:44.
