data_PCOD9549513
_publ_section_title
;
Structure prediction by ZEFSAII (Michael W. Deem and Ramdas Pophale) SiO2 
 PCOD9549513
Probable space group: P 41 21 2
;
_chemical_formula_sum "Si O2"
_cell_formula_units_Z 24
_cell_length_a 9.128072
_cell_length_b 9.128072
_cell_length_c 10.267121
_cell_angle_alpha 90.000000
_cell_angle_beta 90.000000
_cell_angle_gamma 90.000000
_cell_volume 855.473960
_symmetry_space_group_name_H-M "P 41 21 2"
_symmetry_group_IT_number 92
_symmetry_cell_setting 'tetragonal'
loop_
_space_group_symop_operation_xyz
x,y,z
1/2-y,1/2+x,1/4+z
-x,-y,1/2+z
1/2+y,1/2-x,3/4+z
1/2+x,1/2-y,3/4-z
1/2-x,1/2+y,1/4-z
y,x,-z
-y,-x,1/2-z
loop_
_atom_site_type_symbol
_atom_site_label
_atom_site_fract_x
_atom_site_fract_y
_atom_site_fract_z
Si Si1 0.713828 0.513959 0.281037
Si Si2 0.606558 0.746525 0.109557
Si Si3 0.120930 0.414003 0.008339
O O1 0.558681 0.441320 0.250000
O O2 0.709626 0.676667 0.219901
O O3 0.823199 0.396431 0.204700
O O4 0.733555 0.537262 0.434842
O O5 0.446198 0.774068 0.166768
O O6 0.624447 0.624447 0.000000
O O7 0.028494 0.409289 0.873208
#
# Coordination Sequence:
#
# PCOD9549513 Si02
#       3
#     8   8   8
#     4  11  25  49  79 121 173 239 306 380 466 554
#     4  11  24  49  80 115 173 232 295 382 470 535
#     4  12  23  46  81 119 164 236 294 366 472 544
#
# _framework density 28.05462
#
# number of rings (size 3 to 8) (size 9 to 14) (size 15 to 20)
#    0.000    0.667    3.333    6.000    0.000    1.333 
#   18.000    0.000    0.000    0.000    0.000    0.000 
#    0.000    0.000    0.000    0.000    0.000    0.000 
#
# Total GULP energy -133616.271047 kJ/mol
# GULP energy per Si atom -5567.344627 kJ/mol
# Density = 2.799077 g / cm^3
# Si number density = 28.054620 Si / 1000 Ang^3
#
#
#
# Elastic Constant Matrix: (Units=GPa)
#
#
# Indices 1 2 3 4 5 6 
#
# 1 41.6460 131.8403 73.8902 0.0000 0.0000 0.0000
# 2 131.8403 41.6464 73.8913 0.0000 0.0000 0.0000
# 3 73.8902 73.8913 165.5814 0.0000 0.0000 0.0000
# 4 0.0000 0.0000 0.0000 76.5358 0.0000 0.0000
# 5 0.0000 0.0000 0.0000 0.0000 76.5365 0.0000
# 6 0.0000 0.0000 0.0000 0.0000 0.0000 52.1852
#
#
#
# Elastic Compliance Matrix: (Units=1/GPa)
#
#
# Indices 1 2 3 4 5 6 
#
# 1 -0.000894 0.010193 -0.004150 0.000000 0.000000 0.000000
# 2 0.010193 -0.000894 -0.004150 0.000000 0.000000 0.000000
# 3 -0.004150 -0.004150 0.009743 0.000000 0.000000 0.000000
# 4 0.000000 0.000000 0.000000 0.013066 0.000000 0.000000
# 5 0.000000 0.000000 0.000000 0.000000 0.013066 0.000000
# 6 0.000000 0.000000 0.000000 0.000000 0.000000 0.019163
#
#
# Mechanical properties :
#
#
# Convention : Reuss Voigt Hill
#
# Bulk Modulus (GPa) = 85.16319 89.79084 87.47701
# Shear Modulus (GPa) = 93.67647 39.00162 66.33905
#
# Velocity S-wave (km/s) = 5.78474 3.73259 4.86803
# Velocity P-wave (km/s) = 8.66255 7.11699 7.92752
#
# Compressibility (1/GPa) = 0.01174216
#
# Stress axis : x y z
#
# Youngs Moduli (GPa) = -1118.45405 -1118.38162 102.63880
#
# Poissons Ratio (x) = 11.39975 0.42592
# Poissons Ratio (y) = 11.40049 0.42591
# Poissons Ratio (z) = -4.64126 -4.64085
#
# Static dielectric constant tensor:
#      x y z
#    x 2.380880 0.000000 0.000000 
#    y 0.000000 2.380890 0.000000 
#    z 0.000000 0.000000 2.457610 
# 
# From -- ./inp_files/979.got.cif
#   From: 2010.05.17/outbox.cif.g08.bks.cpg/sg92_1_cif.got.tgz:979.got - 2010.06.03 19:35:17.
