data_PCOD9549777
_publ_section_title
;
Structure prediction by ZEFSAII (Michael W. Deem and Ramdas Pophale) SiO2 
 PCOD9549777
Probable space group: P 42 2 2
;
_chemical_formula_sum "Si O2"
_cell_formula_units_Z 18
_cell_length_a 5.385515
_cell_length_b 5.385515
_cell_length_c 25.518890
_cell_angle_alpha 90.000000
_cell_angle_beta 90.000000
_cell_angle_gamma 90.000000
_cell_volume 740.144063
_symmetry_space_group_name_H-M "P 42 2 2"
_symmetry_group_IT_number 93
_symmetry_cell_setting 'tetragonal'
loop_
_space_group_symop_operation_xyz
x,y,z
-y,x,1/2+z
-x,-y,z
y,-x,1/2+z
x,-y,-z
-x,y,-z
y,x,1/2-z
-y,-x,1/2-z
loop_
_atom_site_type_symbol
_atom_site_label
_atom_site_fract_x
_atom_site_fract_y
_atom_site_fract_z
Si Si1 0.755048 0.339055 0.192556
Si Si2 0.000000 0.500000 0.000000
Si Si3 0.650383 0.239367 0.080471
O O1 0.500000 0.500000 0.194632
O O2 0.781031 0.218970 0.250000
O O3 0.737384 0.178042 0.139817
O O4 0.000000 0.500000 0.184849
O O5 0.854278 0.316761 0.038723
O O6 0.500000 0.500000 0.084249
O O7 0.500000 0.000000 0.062552
#
# Coordination Sequence:
#
# PCOD9549777 Si02
#       3
#     8   2   8
#     4  10  21  44  73 112 152 202 259 327 397 477
#     4  12  26  50  76 108 156 210 270 330 416 482
#     4  11  26  47  72 109 150 202 262 328 400 482
#
# _framework density 24.319593000000001
#
# number of rings (size 3 to 8) (size 9 to 14) (size 15 to 20)
#    0.000    1.333    2.222    2.000    0.000    7.111 
#    0.000   17.778    0.000    0.000    0.000    0.000 
#    0.000    0.000    0.000    0.000    0.000    0.000 
#
# Total GULP energy -100665.524441 kJ/mol
# GULP energy per Si atom -5592.529136 kJ/mol
# Density = 2.426424 g / cm^3
# Si number density = 24.319593 Si / 1000 Ang^3
#
#
#
# Elastic Constant Matrix: (Units=GPa)
#
#
# Indices 1 2 3 4 5 6 
#
# 1 133.9312 56.7633 57.7491 0.0000 0.0000 0.0000
# 2 56.7633 133.9314 57.7492 0.0000 0.0000 0.0000
# 3 57.7491 57.7492 263.0180 0.0000 0.0000 0.0000
# 4 0.0000 0.0000 0.0000 151.2149 0.0000 0.0000
# 5 0.0000 0.0000 0.0000 0.0000 151.2015 0.0000
# 6 0.0000 0.0000 0.0000 0.0000 0.0000 59.5446
#
#
#
# Elastic Compliance Matrix: (Units=1/GPa)
#
#
# Indices 1 2 3 4 5 6 
#
# 1 0.009504 -0.003455 -0.001328 0.000000 0.000000 0.000000
# 2 -0.003455 0.009504 -0.001328 0.000000 0.000000 0.000000
# 3 -0.001328 -0.001328 0.004385 0.000000 0.000000 0.000000
# 4 0.000000 0.000000 0.000000 0.006613 0.000000 0.000000
# 5 0.000000 0.000000 0.000000 0.000000 0.006614 0.000000
# 6 0.000000 0.000000 0.000000 0.000000 0.000000 0.016794
#
#
# Mechanical properties :
#
#
# Convention : Reuss Voigt Hill
#
# Bulk Modulus (GPa) = 89.52674 97.26709 93.39692
# Shear Modulus (GPa) = 72.08890 96.30014 84.19452
#
# Velocity S-wave (km/s) = 5.45038 6.29950 5.89026
# Velocity P-wave (km/s) = 8.74651 9.64333 9.20585
#
# Compressibility (1/GPa) = 0.01116985
#
# Stress axis : x y z
#
# Youngs Moduli (GPa) = 105.22403 105.22422 228.04097
#
# Poissons Ratio (x) = 0.36357 0.30284
# Poissons Ratio (y) = 0.36357 0.30284
# Poissons Ratio (z) = 0.13974 0.13974
#
# Static dielectric constant tensor:
#      x y z
#    x 0.614240 0.000000 0.000000 
#    y 0.000000 0.614390 0.000000 
#    z 0.000000 0.000000 2.033560 
# 
# From -- ./inp_files/6412.got.cif
#   From: 2010.05.17/outbox.cif.g08.bks.cpg/sg93_4_cif.got.tgz:6412.got - 2010.06.03 19:38:44.
