data_PCOD9549623
_publ_section_title
;
Structure prediction by ZEFSAII (Michael W. Deem and Ramdas Pophale) SiO2 
 PCOD9549623
Probable space group: P 42 2 2
;
_chemical_formula_sum "Si O2"
_cell_formula_units_Z 64
_cell_length_a 12.138358
_cell_length_b 12.138358
_cell_length_c 24.861456
_cell_angle_alpha 90.000000
_cell_angle_beta 90.000000
_cell_angle_gamma 90.000000
_cell_volume 3663.080337
_symmetry_space_group_name_H-M "P 42 2 2"
_symmetry_group_IT_number 93
_symmetry_cell_setting 'tetragonal'
loop_
_space_group_symop_operation_xyz
x,y,z
-y,x,1/2+z
-x,-y,z
y,-x,1/2+z
x,-y,-z
-x,y,-z
y,x,1/2-z
-y,-x,1/2-z
loop_
_atom_site_type_symbol
_atom_site_label
_atom_site_fract_x
_atom_site_fract_y
_atom_site_fract_z
Si Si1 0.162875 0.499933 0.241998
Si Si2 0.499959 0.372314 0.317399
Si Si3 0.255217 0.873416 0.701870
Si Si4 0.714385 0.698519 0.614119
Si Si5 0.632203 0.367560 0.000021
Si Si6 0.500014 0.123942 0.867246
Si Si7 0.126433 0.744765 0.201928
Si Si8 0.285616 0.301550 0.385965
O O1 0.295282 0.499938 0.235052
O O2 0.125518 0.386166 0.215066
O O3 0.125258 0.499679 0.302711
O O4 0.125458 0.613866 0.215252
O O5 0.500000 0.500000 0.308202
O O6 0.608567 0.342230 0.351565
O O7 0.391387 0.342302 0.351612
O O8 0.193579 0.806422 0.750000
O O9 0.245172 0.807280 0.645620
O O10 0.216687 0.999928 0.699607
O O11 0.675078 0.695910 0.552673
O O12 0.809729 0.608034 0.616607
O O13 0.754646 0.807474 0.645657
O O14 0.632215 0.500000 0.000000
O O15 0.500000 0.335382 0.000000
O O16 0.696064 0.325008 0.947397
O O17 0.607833 0.190390 0.883618
O O18 0.500000 0.000000 0.887741
O O19 0.193427 0.806574 0.250000
#
# Coordination Sequence:
#
# PCOD9549623 Si02
#       8
#     8   8   8   8   8   8   8   8
#     4  10  22  36  54  83 123 155 180 236 310 370
#     4  10  18  33  54  86 118 147 193 233 295 361
#     4  11  23  39  60  86 119 160 202 244 294 355
#     4  11  22  37  57  87 117 156 195 243 296 350
#     4  11  20  36  61  89 123 154 195 244 295 359
#     4  12  22  36  54  80 118 153 186 237 308 363
#     4  11  23  39  60  86 119 160 202 244 294 355
#     4  11  22  37  57  87 117 156 195 243 296 350
#
# _framework density 17.471634000000002
#
# number of rings (size 3 to 8) (size 9 to 14) (size 15 to 20)
#    0.000    1.125    6.250    1.125    0.000    0.250 
#    2.250    1.875    0.000    0.750    0.000    0.000 
#    0.000    4.000    0.000    0.000    0.000    0.000 
#
# Total GULP energy -357199.294754 kJ/mol
# GULP energy per Si atom -5581.238981 kJ/mol
# Density = 1.743187 g / cm^3
# Si number density = 17.471634 Si / 1000 Ang^3
#
#
#
# Elastic Constant Matrix: (Units=GPa)
#
#
# Indices 1 2 3 4 5 6 
#
# 1 120.4675 32.0695 37.2677 0.0000 0.0000 0.0000
# 2 32.0695 120.4683 37.2681 0.0000 0.0000 0.0000
# 3 37.2677 37.2681 119.6407 0.0000 0.0000 0.0000
# 4 0.0000 0.0000 0.0000 12.4383 0.0000 0.0000
# 5 0.0000 0.0000 0.0000 0.0000 12.4385 0.0000
# 6 0.0000 0.0000 0.0000 0.0000 0.0000 6.5237
#
#
#
# Elastic Compliance Matrix: (Units=1/GPa)
#
#
# Indices 1 2 3 4 5 6 
#
# 1 0.009523 -0.001790 -0.002409 0.000000 0.000000 0.000000
# 2 -0.001790 0.009523 -0.002409 0.000000 0.000000 0.000000
# 3 -0.002409 -0.002409 0.009859 0.000000 0.000000 0.000000
# 4 0.000000 0.000000 0.000000 0.080397 0.000000 0.000000
# 5 0.000000 0.000000 0.000000 0.000000 0.080395 0.000000
# 6 0.000000 0.000000 0.000000 0.000000 0.000000 0.153287
#
#
# Mechanical properties :
#
#
# Convention : Reuss Voigt Hill
#
# Bulk Modulus (GPa) = 63.73661 63.75411 63.74536
# Shear Modulus (GPa) = 13.83399 23.21151 18.52275
#
# Velocity S-wave (km/s) = 2.81694 3.64885 3.25954
# Velocity P-wave (km/s) = 6.86582 7.37031 7.12253
#
# Compressibility (1/GPa) = 0.01568957
#
# Stress axis : x y z
#
# Youngs Moduli (GPa) = 105.01302 105.01360 101.43015
#
# Poissons Ratio (x) = 0.18796 0.24432
# Poissons Ratio (y) = 0.18795 0.24432
# Poissons Ratio (z) = 0.25295 0.25295
#
# Static dielectric constant tensor:
#      x y z
#    x 1.606160 0.000000 0.000000 
#    y 0.000000 1.606160 0.000000 
#    z 0.000000 0.000000 1.600780 
# 
# From -- ./inp_files/6967.got.cif
#   From: 2010.05.17/outbox.cif.g08.bks.cpg/sg93_4_cif.got.tgz:6967.got - 2010.06.03 19:38:44.
