data_PCOD9549605
_publ_section_title
;
Structure prediction by ZEFSAII (Michael W. Deem and Ramdas Pophale) SiO2 
 PCOD9549605
Probable space group: P 42 2 2
;
_chemical_formula_sum "Si O2"
_cell_formula_units_Z 48
_cell_length_a 18.122209
_cell_length_b 18.122209
_cell_length_c 10.049804
_cell_angle_alpha 90.000000
_cell_angle_beta 90.000000
_cell_angle_gamma 90.000000
_cell_volume 3300.500944
_symmetry_space_group_name_H-M "P 42 2 2"
_symmetry_group_IT_number 93
_symmetry_cell_setting 'tetragonal'
loop_
_space_group_symop_operation_xyz
x,y,z
-y,x,1/2+z
-x,-y,z
y,-x,1/2+z
x,-y,-z
-x,y,-z
y,x,1/2-z
-y,-x,1/2-z
loop_
_atom_site_type_symbol
_atom_site_label
_atom_site_fract_x
_atom_site_fract_y
_atom_site_fract_z
Si Si1 0.085923 0.414164 0.839408
Si Si2 0.914015 0.192951 0.030686
Si Si3 0.726710 0.842908 0.772869
Si Si4 0.729533 0.157683 0.719296
Si Si5 0.085654 0.793675 0.523938
Si Si6 0.914633 0.584884 0.160622
O O1 0.140812 0.356498 0.771430
O O2 0.097749 0.499649 0.801958
O O3 0.000123 0.395333 0.807103
O O4 0.091948 0.410157 0.999933
O O5 0.869971 0.244193 0.925465
O O6 0.876071 0.113764 0.009511
O O7 0.895349 0.223981 0.176170
O O8 0.000000 0.194874 0.000000
O O9 0.761783 0.761783 0.750000
O O10 0.742062 0.868265 0.922817
O O11 0.760701 0.239300 0.750000
O O12 0.771700 0.107390 0.827185
O O13 0.643129 0.140656 0.725688
O O14 0.000000 0.784723 0.500000
#
# Coordination Sequence:
#
# PCOD9549605 Si02
#       6
#     8   8   8   8   8   8
#     4   9  16  27  47  70  87 109 146 189 223 255
#     4  10  18  29  45  57  75 113 152 188 220 244
#     4  10  19  30  44  62  86 115 144 179 220 264
#     4  10  19  30  44  62  86 115 144 179 220 264
#     4  10  20  29  39  59  83 111 146 182 224 262
#     4   9  16  27  47  70  87 109 146 189 223 255
#
# _framework density 14.543246
#
# number of rings (size 3 to 8) (size 9 to 14) (size 15 to 20)
#    0.000    2.333    1.667    4.000    0.000    0.333 
#    0.000    0.833    0.000    9.000    0.000    0.000 
#    0.000    0.667    0.000    3.667    0.000    0.000 
#
# Total GULP energy -267457.209503 kJ/mol
# GULP energy per Si atom -5572.025198 kJ/mol
# Density = 1.451015 g / cm^3
# Si number density = 14.543246 Si / 1000 Ang^3
#
#
#
# Elastic Constant Matrix: (Units=GPa)
#
#
# Indices 1 2 3 4 5 6 
#
# 1 83.2298 39.0491 0.0687 0.0000 0.0000 0.0000
# 2 39.0491 83.2291 0.0690 0.0000 0.0000 0.0000
# 3 0.0687 0.0690 25.7804 0.0000 0.0000 0.0000
# 4 0.0000 0.0000 0.0000 16.7971 0.0000 0.0000
# 5 0.0000 0.0000 0.0000 0.0000 16.7975 0.0000
# 6 0.0000 0.0000 0.0000 0.0000 0.0000 20.5492
#
#
#
# Elastic Compliance Matrix: (Units=1/GPa)
#
#
# Indices 1 2 3 4 5 6 
#
# 1 0.015406 -0.007228 -0.000022 0.000000 0.000000 0.000000
# 2 -0.007228 0.015406 -0.000022 0.000000 0.000000 0.000000
# 3 -0.000022 -0.000022 0.038789 0.000000 0.000000 0.000000
# 4 0.000000 0.000000 0.000000 0.059534 0.000000 0.000000
# 5 0.000000 0.000000 0.000000 0.000000 0.059533 0.000000
# 6 0.000000 0.000000 0.000000 0.000000 0.000000 0.048664
#
#
# Mechanical properties :
#
#
# Convention : Reuss Voigt Hill
#
# Bulk Modulus (GPa) = 18.16266 30.06812 24.11539
# Shear Modulus (GPa) = 18.50284 21.03226 19.76755
#
# Velocity S-wave (km/s) = 3.57075 3.80700 3.69077
# Velocity P-wave (km/s) = 5.43288 6.32805 5.89747
#
# Compressibility (1/GPa) = 0.05505802
#
# Stress axis : x y z
#
# Youngs Moduli (GPa) = 64.90886 64.90833 25.78034
#
# Poissons Ratio (x) = 0.46917 0.00056
# Poissons Ratio (y) = 0.46917 0.00057
# Poissons Ratio (z) = 0.00141 0.00142
#
# Static dielectric constant tensor:
#      x y z
#    x 1.487730 0.000000 0.000000 
#    y 0.000000 1.487730 0.000000 
#    z 0.000000 0.000000 1.485620 
# 
# From -- ./inp_files/2069.got.cif
#   From: 2010.05.17/outbox.cif.g08.bks.cpg/sg93_2_cif.got.tgz:2069.got - 2010.06.03 19:38:44.
