data_PCOD9549145
_publ_section_title
;
Structure prediction by ZEFSAII (Michael W. Deem and Ramdas Pophale) SiO2 
 PCOD9549145
Probable space group: P 41 21 2
;
_chemical_formula_sum "Si O2"
_cell_formula_units_Z 40
_cell_length_a 13.805479
_cell_length_b 13.805479
_cell_length_c 8.582824
_cell_angle_alpha 90.000000
_cell_angle_beta 90.000000
_cell_angle_gamma 90.000000
_cell_volume 1635.811158
_symmetry_space_group_name_H-M "P 41 21 2"
_symmetry_group_IT_number 92
_symmetry_cell_setting 'tetragonal'
loop_
_space_group_symop_operation_xyz
x,y,z
1/2-y,1/2+x,1/4+z
-x,-y,1/2+z
1/2+y,1/2-x,3/4+z
1/2+x,1/2-y,3/4-z
1/2-x,1/2+y,1/4-z
y,x,-z
-y,-x,1/2-z
loop_
_atom_site_type_symbol
_atom_site_label
_atom_site_fract_x
_atom_site_fract_y
_atom_site_fract_z
Si Si1 0.288142 0.422049 0.095724
Si Si2 0.318247 0.755569 0.987020
Si Si3 0.631592 0.822574 0.929343
Si Si4 0.351414 0.494170 0.431735
Si Si5 0.993690 0.601048 0.271284
O O1 0.209908 0.338020 0.140220
O O2 0.333460 0.467949 0.251199
O O3 0.216176 0.491907 0.002631
O O4 0.372592 0.372592 0.000000
O O5 0.356273 0.812307 0.834332
O O6 0.214983 0.713159 0.937055
O O7 0.394180 0.675153 0.040288
O O8 0.573616 0.904677 0.840893
O O9 0.566448 0.731771 0.977622
O O10 0.451982 0.451982 0.500000
O O11 0.079575 0.536893 0.198444
#
# Coordination Sequence:
#
# PCOD9549145 Si02
#       5
#     8   8   8   8   8
#     4  11  24  43  64 100 142 182 226 289 370 426
#     4  10  21  40  71  92 135 184 235 274 358 429
#     4  10  21  42  67  97 136 182 224 293 361 408
#     4  11  22  42  71  98 129 189 234 290 347 433
#     4  12  27  39  66 103 139 175 235 302 356 428
#
# _framework density 24.452701999999999
#
# number of rings (size 3 to 8) (size 9 to 14) (size 15 to 20)
#    0.000    1.200    4.000    3.600   11.200    0.000 
#    0.000    1.000    4.400    0.000    0.000    0.000 
#    0.000    0.000    0.000    0.000    0.000    0.000 
#
# Total GULP energy -223969.647254 kJ/mol
# GULP energy per Si atom -5599.241181 kJ/mol
# Density = 2.439705 g / cm^3
# Si number density = 24.452702 Si / 1000 Ang^3
#
#
#
# Elastic Constant Matrix: (Units=GPa)
#
#
# Indices 1 2 3 4 5 6 
#
# 1 44.7762 -5.8735 -5.8722 0.0000 0.0000 0.0000
# 2 -5.8735 44.7762 -5.8722 0.0000 0.0000 0.0000
# 3 -5.8722 -5.8722 27.6861 0.0000 0.0000 0.0000
# 4 0.0000 0.0000 0.0000 19.2858 0.0000 0.0000
# 5 0.0000 0.0000 0.0000 0.0000 19.2858 0.0000
# 6 0.0000 0.0000 0.0000 0.0000 0.0000 44.8001
#
#
#
# Elastic Compliance Matrix: (Units=1/GPa)
#
#
# Indices 1 2 3 4 5 6 
#
# 1 0.023604 0.003860 0.005825 0.000000 0.000000 0.000000
# 2 0.003860 0.023604 0.005825 0.000000 0.000000 0.000000
# 3 0.005825 0.005825 0.038590 0.000000 0.000000 0.000000
# 4 0.000000 0.000000 0.000000 0.051852 0.000000 0.000000
# 5 0.000000 0.000000 0.000000 0.000000 0.051852 0.000000
# 6 0.000000 0.000000 0.000000 0.000000 0.000000 0.022321
#
#
# Mechanical properties :
#
#
# Convention : Reuss Voigt Hill
#
# Bulk Modulus (GPa) = 8.56036 9.11142 8.83589
# Shear Modulus (GPa) = 22.75407 25.66476 24.20942
#
# Velocity S-wave (km/s) = 3.05378 3.24322 3.14992
# Velocity P-wave (km/s) = 3.99280 4.21412 4.10495
#
# Compressibility (1/GPa) = 0.11681755
#
# Stress axis : x y z
#
# Youngs Moduli (GPa) = 42.36652 42.36652 25.91333
#
# Poissons Ratio (x) = -0.16354 -0.15095
# Poissons Ratio (y) = -0.16354 -0.15095
# Poissons Ratio (z) = -0.24679 -0.24679
#
# Static dielectric constant tensor:
#      x y z
#    x 2.007330 0.000000 0.000000 
#    y 0.000000 2.007330 0.000000 
#    z 0.000000 0.000000 1.930220 
# 
# From -- ./inp_files/1291.got.cif
#   From: 2010.05.17/outbox.cif.g08.bks.cpg/sg92_1_cif.got.tgz:1291.got - 2010.06.03 19:35:17.
