data_PCOD9549602
_publ_section_title
;
Structure prediction by ZEFSAII (Michael W. Deem and Ramdas Pophale) SiO2 
 PCOD9549602
Probable space group: P 42 2 2
;
_chemical_formula_sum "Si O2"
_cell_formula_units_Z 40
_cell_length_a 14.496966
_cell_length_b 14.496966
_cell_length_c 8.896989
_cell_angle_alpha 90.000000
_cell_angle_beta 90.000000
_cell_angle_gamma 90.000000
_cell_volume 1869.809209
_symmetry_space_group_name_H-M "P 42 2 2"
_symmetry_group_IT_number 93
_symmetry_cell_setting 'tetragonal'
loop_
_space_group_symop_operation_xyz
x,y,z
-y,x,1/2+z
-x,-y,z
y,-x,1/2+z
x,-y,-z
-x,y,-z
y,x,1/2-z
-y,-x,1/2-z
loop_
_atom_site_type_symbol
_atom_site_label
_atom_site_fract_x
_atom_site_fract_y
_atom_site_fract_z
Si Si1 0.655304 0.938317 0.630522
Si Si2 0.565529 0.332725 0.131857
Si Si3 0.704268 0.930592 0.136693
Si Si4 0.490880 0.144632 0.179855
Si Si5 0.236472 0.763035 0.428720
O O1 0.573105 0.909720 0.741431
O O2 0.696284 0.848678 0.547259
O O3 0.615563 0.000000 0.500000
O O4 0.730499 0.998368 0.727606
O O5 0.591183 0.408818 0.250000
O O6 0.510883 0.250690 0.214796
O O7 0.662010 0.285661 0.073212
O O8 0.500000 0.364894 0.000000
O O9 0.612793 0.885128 0.206219
O O10 0.759054 0.847660 0.049595
O O11 0.682711 0.000000 0.000000
O O12 0.500000 0.135348 0.000000
O O13 0.216950 0.783051 0.250000
#
# Coordination Sequence:
#
# PCOD9549602 Si02
#       5
#     8   8   8   8   8
#     4  12  26  38  57  99 150 184 234 310 362 436
#     4  10  17  32  62 105 142 185 241 291 351 429
#     4  12  21  35  66  96 134 194 236 295 374 440
#     4  11  18  33  62  98 133 181 229 291 372 432
#     4  11  19  37  63  95 135 188 245 290 355 439
#
# _framework density 21.392557
#
# number of rings (size 3 to 8) (size 9 to 14) (size 15 to 20)
#    0.000    0.800   12.000    0.600    0.000    2.400 
#    0.000    0.000    0.000    0.600    0.000    1.400 
#    0.000    6.400    0.000    0.000    0.400    0.000 
#
# Total GULP energy -222909.845670 kJ/mol
# GULP energy per Si atom -5572.746142 kJ/mol
# Density = 2.134387 g / cm^3
# Si number density = 21.392557 Si / 1000 Ang^3
#
#
#
# Elastic Constant Matrix: (Units=GPa)
#
#
# Indices 1 2 3 4 5 6 
#
# 1 96.8781 49.9990 33.6896 0.0000 0.0000 0.0000
# 2 49.9990 96.8769 33.6902 0.0000 0.0000 0.0000
# 3 33.6896 33.6902 91.7149 0.0000 0.0000 0.0000
# 4 0.0000 0.0000 0.0000 37.0975 0.0000 0.0000
# 5 0.0000 0.0000 0.0000 0.0000 37.0977 0.0000
# 6 0.0000 0.0000 0.0000 0.0000 0.0000 11.8405
#
#
#
# Elastic Compliance Matrix: (Units=1/GPa)
#
#
# Indices 1 2 3 4 5 6 
#
# 1 0.014760 -0.006572 -0.003008 0.000000 0.000000 0.000000
# 2 -0.006572 0.014760 -0.003008 0.000000 0.000000 0.000000
# 3 -0.003008 -0.003008 0.013113 0.000000 0.000000 0.000000
# 4 0.000000 0.000000 0.000000 0.026956 0.000000 0.000000
# 5 0.000000 0.000000 0.000000 0.000000 0.026956 0.000000
# 6 0.000000 0.000000 0.000000 0.000000 0.000000 0.084456
#
#
# Mechanical properties :
#
#
# Convention : Reuss Voigt Hill
#
# Bulk Modulus (GPa) = 57.27914 57.80307 57.54111
# Shear Modulus (GPa) = 23.58549 28.41321 25.99935
#
# Velocity S-wave (km/s) = 3.32401 3.64838 3.48996
# Velocity P-wave (km/s) = 6.44713 6.69525 6.57236
#
# Compressibility (1/GPa) = 0.01745836
#
# Stress axis : x y z
#
# Youngs Moduli (GPa) = 67.75131 67.74998 76.25953
#
# Poissons Ratio (x) = 0.44523 0.22937
# Poissons Ratio (y) = 0.44524 0.22939
# Poissons Ratio (z) = 0.20378 0.20379
#
# Static dielectric constant tensor:
#      x y z
#    x 1.878760 0.000000 0.000000 
#    y 0.000000 1.878750 0.000000 
#    z 0.000000 0.000000 1.834560 
# 
# From -- ./inp_files/1845.got.cif
#   From: 2010.05.17/outbox.cif.g08.bks.cpg/sg93_1_cif.got.tgz:1845.got - 2010.06.03 19:38:44.
