data_PCOD9549627
_publ_section_title
;
Structure prediction by ZEFSAII (Michael W. Deem and Ramdas Pophale) SiO2 
 PCOD9549627
Probable space group: P 42 2 2
;
_chemical_formula_sum "Si O2"
_cell_formula_units_Z 40
_cell_length_a 12.465129
_cell_length_b 12.465129
_cell_length_c 14.107596
_cell_angle_alpha 90.000000
_cell_angle_beta 90.000000
_cell_angle_gamma 90.000000
_cell_volume 2192.030380
_symmetry_space_group_name_H-M "P 42 2 2"
_symmetry_group_IT_number 93
_symmetry_cell_setting 'tetragonal'
loop_
_space_group_symop_operation_xyz
x,y,z
-y,x,1/2+z
-x,-y,z
y,-x,1/2+z
x,-y,-z
-x,y,-z
y,x,1/2-z
-y,-x,1/2-z
loop_
_atom_site_type_symbol
_atom_site_label
_atom_site_fract_x
_atom_site_fract_y
_atom_site_fract_z
Si Si1 0.717892 0.117110 0.296594
Si Si2 0.194788 0.624838 0.003408
Si Si3 0.583427 0.404821 0.397951
Si Si4 0.864061 0.296964 0.796009
Si Si5 0.484037 0.761447 0.231377
O O1 0.815823 0.184178 0.250000
O O2 0.689888 0.150179 0.405712
O O3 0.612032 0.154977 0.241000
O O4 0.725004 0.990061 0.289142
O O5 0.323191 0.613996 0.018294
O O6 0.154309 0.500000 0.000000
O O7 0.164690 0.681402 0.905983
O O8 0.500000 0.500000 0.408688
O O9 0.535009 0.323696 0.317851
O O10 0.690467 0.461922 0.360281
O O11 0.799975 0.200026 0.750000
O O12 0.820802 0.403955 0.743145
#
# Coordination Sequence:
#
# PCOD9549627 Si02
#       5
#     8   8   8   8   8
#     4  11  22  43  68  90 123 169 220 270 319 370
#     4  11  22  39  63  99 126 164 215 255 312 386
#     4  10  18  33  57  92 136 168 200 245 316 380
#     4  12  25  40  61  97 130 164 217 269 321 378
#     4  10  18  36  59  89 129 170 205 253 310 382
#
# _framework density 18.247924000000001
#
# number of rings (size 3 to 8) (size 9 to 14) (size 15 to 20)
#    0.000    1.200    8.000    3.600    0.000    1.600 
#    0.000    1.000    0.000    2.400    5.200    0.000 
#    0.000    0.000    0.000    0.000    0.000    0.000 
#
# Total GULP energy -223304.185922 kJ/mol
# GULP energy per Si atom -5582.604648 kJ/mol
# Density = 1.820639 g / cm^3
# Si number density = 18.247924 Si / 1000 Ang^3
#
#
#
# Elastic Constant Matrix: (Units=GPa)
#
#
# Indices 1 2 3 4 5 6 
#
# 1 177.8397 92.6750 66.6604 0.0000 0.0000 0.0000
# 2 92.6750 177.8409 66.6616 0.0000 0.0000 0.0000
# 3 66.6604 66.6616 84.8517 0.0000 0.0000 0.0000
# 4 0.0000 0.0000 0.0000 12.1851 0.0000 0.0000
# 5 0.0000 0.0000 0.0000 0.0000 12.1830 0.0000
# 6 0.0000 0.0000 0.0000 0.0000 0.0000 -6.0149
#
#
#
# Elastic Compliance Matrix: (Units=1/GPa)
#
#
# Indices 1 2 3 4 5 6 
#
# 1 0.008887 -0.002855 -0.004739 0.000000 0.000000 0.000000
# 2 -0.002855 0.008887 -0.004739 0.000000 0.000000 0.000000
# 3 -0.004739 -0.004739 0.019231 0.000000 0.000000 0.000000
# 4 0.000000 0.000000 0.000000 0.082068 0.000000 0.000000
# 5 0.000000 0.000000 0.000000 0.000000 0.082082 0.000000
# 6 0.000000 0.000000 0.000000 0.000000 0.000000 -0.166253
#
#
# Mechanical properties :
#
#
# Convention : Reuss Voigt Hill
#
# Bulk Modulus (GPa) = 81.03894 99.16960 90.10427
# Shear Modulus (GPa) = 78.51566 17.97297 48.24432
#
# Velocity S-wave (km/s) = 6.56663 3.14177 5.14739
# Velocity P-wave (km/s) = 10.09953 8.22342 9.20937
#
# Compressibility (1/GPa) = 0.01233975
#
# Stress axis : x y z
#
# Youngs Moduli (GPa) = 112.52342 112.52272 51.99826
#
# Poissons Ratio (x) = 0.32123 0.24642
# Poissons Ratio (y) = 0.32123 0.24643
# Poissons Ratio (z) = 0.53324 0.53326
#
# Static dielectric constant tensor:
#      x y z
#    x 1.626210 0.000000 0.000000 
#    y 0.000000 1.626210 0.000000 
#    z 0.000000 0.000000 1.707170 
# 
# From -- ./inp_files/4326.got.cif
#   From: 2010.05.17/outbox.cif.g08.bks.cpg/sg93_3_cif.got.tgz:4326.got - 2010.06.03 19:38:44.
