data_PCOD9549843
_publ_section_title
;
Structure prediction by ZEFSAII (Michael W. Deem and Ramdas Pophale) SiO2 
 PCOD9549843
Probable space group: P 42 2 2
;
_chemical_formula_sum "Si O2"
_cell_formula_units_Z 34
_cell_length_a 8.745930
_cell_length_b 8.745930
_cell_length_c 20.311736
_cell_angle_alpha 90.000000
_cell_angle_beta 90.000000
_cell_angle_gamma 90.000000
_cell_volume 1553.670921
_symmetry_space_group_name_H-M "P 42 2 2"
_symmetry_group_IT_number 93
_symmetry_cell_setting 'tetragonal'
loop_
_space_group_symop_operation_xyz
x,y,z
-y,x,1/2+z
-x,-y,z
y,-x,1/2+z
x,-y,-z
-x,y,-z
y,x,1/2-z
-y,-x,1/2-z
loop_
_atom_site_type_symbol
_atom_site_label
_atom_site_fract_x
_atom_site_fract_y
_atom_site_fract_z
Si Si1 0.000000 0.500000 0.718281
Si Si2 0.498897 0.186404 0.577032
Si Si3 0.000000 0.500000 0.500000
Si Si4 0.714617 0.175039 0.690462
Si Si5 0.000000 0.000000 0.638418
Si Si6 0.829165 0.697362 0.607527
O O1 0.956982 0.373225 0.771899
O O2 0.885568 0.592129 0.669065
O O3 0.500000 0.227010 0.500000
O O4 0.643179 0.230020 0.622337
O O5 0.350267 0.266733 0.607464
O O6 0.500000 0.000000 0.580250
O O7 0.108171 0.395246 0.545096
O O8 0.704270 0.295731 0.750000
O O9 0.881065 0.107396 0.676903
O O10 0.097966 0.131365 0.602733
#
# Coordination Sequence:
#
# PCOD9549843 Si02
#       6
#     4   8   2   8   4   8
#     4  11  24  43  67 104 155 188 240 316 383 446
#     4  11  25  44  70 107 150 193 243 314 391 465
#     4  10  28  46  70 108 146 210 248 312 394 478
#     4  12  24  42  72 112 143 186 252 315 385 446
#     4  12  23  41  78 110 134 187 261 332 358 457
#     4  11  25  45  73 103 150 193 251 317 380 457
#
# _framework density 21.883655000000001
#
# number of rings (size 3 to 8) (size 9 to 14) (size 15 to 20)
#    0.000    0.706    5.882    0.353    3.294    3.294 
#    0.000    5.294    0.000    0.000    0.000    0.000 
#    0.000    0.000    0.000    0.000    0.000    0.000 
#
# Total GULP energy -189368.314289 kJ/mol
# GULP energy per Si atom -5569.656303 kJ/mol
# Density = 2.183385 g / cm^3
# Si number density = 21.883655 Si / 1000 Ang^3
#
#
#
# Elastic Constant Matrix: (Units=GPa)
#
#
# Indices 1 2 3 4 5 6 
#
# 1 79.8368 10.9569 24.0395 0.0000 0.0000 0.0000
# 2 10.9569 79.8366 24.0396 0.0000 0.0000 0.0000
# 3 24.0395 24.0396 140.6029 0.0000 0.0000 0.0000
# 4 0.0000 0.0000 0.0000 18.3986 0.0000 0.0000
# 5 0.0000 0.0000 0.0000 0.0000 18.3988 0.0000
# 6 0.0000 0.0000 0.0000 0.0000 0.0000 26.9438
#
#
#
# Elastic Compliance Matrix: (Units=1/GPa)
#
#
# Indices 1 2 3 4 5 6 
#
# 1 0.013314 -0.001204 -0.002071 0.000000 0.000000 0.000000
# 2 -0.001204 0.013314 -0.002071 0.000000 0.000000 0.000000
# 3 -0.002071 -0.002071 0.007820 0.000000 0.000000 0.000000
# 4 0.000000 0.000000 0.000000 0.054352 0.000000 0.000000
# 5 0.000000 0.000000 0.000000 0.000000 0.054351 0.000000
# 6 0.000000 0.000000 0.000000 0.000000 0.000000 0.037114
#
#
# Mechanical properties :
#
#
# Convention : Reuss Voigt Hill
#
# Bulk Modulus (GPa) = 42.08957 46.48312 44.28634
# Shear Modulus (GPa) = 25.14130 28.83092 26.98611
#
# Velocity S-wave (km/s) = 3.39316 3.63363 3.51545
# Velocity P-wave (km/s) = 5.88443 6.23630 6.06292
#
# Compressibility (1/GPa) = 0.02375885
#
# Stress axis : x y z
#
# Youngs Moduli (GPa) = 75.10762 75.10736 127.87292
#
# Poissons Ratio (x) = 0.09041 0.26477
# Poissons Ratio (y) = 0.09041 0.26477
# Poissons Ratio (z) = 0.15552 0.15552
#
# Static dielectric constant tensor:
#      x y z
#    x 1.932780 0.000000 0.000000 
#    y 0.000000 1.932740 0.000000 
#    z 0.000000 0.000000 1.814620 
# 
# From -- ./inp_files/6107.got.cif
#   From: 2010.05.17/outbox.cif.g08.bks.cpg/sg93_4_cif.got.tgz:6107.got - 2010.06.03 19:38:44.
