data_PCOD9549428
_publ_section_title
;
Structure prediction by ZEFSAII (Michael W. Deem and Ramdas Pophale) SiO2 
 PCOD9549428
Probable space group: P 41 21 2
;
_chemical_formula_sum "Si O2"
_cell_formula_units_Z 24
_cell_length_a 6.957758
_cell_length_b 6.957758
_cell_length_c 18.254018
_cell_angle_alpha 90.000000
_cell_angle_beta 90.000000
_cell_angle_gamma 90.000000
_cell_volume 883.684247
_symmetry_space_group_name_H-M "P 41 21 2"
_symmetry_group_IT_number 92
_symmetry_cell_setting 'tetragonal'
loop_
_space_group_symop_operation_xyz
x,y,z
1/2-y,1/2+x,1/4+z
-x,-y,1/2+z
1/2+y,1/2-x,3/4+z
1/2+x,1/2-y,3/4-z
1/2-x,1/2+y,1/4-z
y,x,-z
-y,-x,1/2-z
loop_
_atom_site_type_symbol
_atom_site_label
_atom_site_fract_x
_atom_site_fract_y
_atom_site_fract_z
Si Si1 0.436207 0.870620 0.957373
Si Si2 0.000614 0.074939 0.424628
Si Si3 0.298055 0.535715 0.053520
O O1 0.420307 0.722449 0.025837
O O2 0.480045 0.741815 0.885643
O O3 0.217783 0.935984 0.949144
O O4 0.553401 0.069700 0.955083
O O5 0.113473 0.113473 0.500000
O O6 0.032625 0.875018 0.382014
O O7 0.367084 0.367084 0.000000
#
# Coordination Sequence:
#
# PCOD9549428 Si02
#       3
#     8   8   8
#     4  11  27  49  84 111 162 211 273 334 412 484
#     4  11  28  47  77 118 159 207 269 341 407 484
#     4  10  26  52  77 117 160 213 268 335 405 484
#
# _framework density 27.159023999999999
#
# number of rings (size 3 to 8) (size 9 to 14) (size 15 to 20)
#    0.000    1.333    0.000    1.000   14.000    4.000 
#    0.000    0.000    0.000    0.000    0.000    0.000 
#    0.000    0.000    0.000    0.000    0.000    0.000 
#
# Total GULP energy -134434.197516 kJ/mol
# GULP energy per Si atom -5601.424896 kJ/mol
# Density = 2.709721 g / cm^3
# Si number density = 27.159024 Si / 1000 Ang^3
#
#
#
# Elastic Constant Matrix: (Units=GPa)
#
#
# Indices 1 2 3 4 5 6 
#
# 1 117.1927 68.3327 58.8609 0.0000 0.0000 0.0000
# 2 68.3327 117.1927 58.8609 0.0000 0.0000 0.0000
# 3 58.8609 58.8609 194.6258 0.0000 0.0000 0.0000
# 4 0.0000 0.0000 0.0000 31.6657 0.0000 0.0000
# 5 0.0000 0.0000 0.0000 0.0000 31.6657 0.0000
# 6 0.0000 0.0000 0.0000 0.0000 0.0000 41.4680
#
#
#
# Elastic Compliance Matrix: (Units=1/GPa)
#
#
# Indices 1 2 3 4 5 6 
#
# 1 0.013568 -0.006898 -0.002017 0.000000 0.000000 0.000000
# 2 -0.006898 0.013568 -0.002017 0.000000 0.000000 0.000000
# 3 -0.002017 -0.002017 0.006358 0.000000 0.000000 0.000000
# 4 0.000000 0.000000 0.000000 0.031580 0.000000 0.000000
# 5 0.000000 0.000000 0.000000 0.000000 0.031580 0.000000
# 6 0.000000 0.000000 0.000000 0.000000 0.000000 0.024115
#
#
# Mechanical properties :
#
#
# Convention : Reuss Voigt Hill
#
# Bulk Modulus (GPa) = 85.98865 89.01337 87.50101
# Shear Modulus (GPa) = 34.12696 37.15700 35.64198
#
# Velocity S-wave (km/s) = 3.54865 3.70283 3.62656
# Velocity P-wave (km/s) = 6.96566 7.15034 7.05860
#
# Compressibility (1/GPa) = 0.01162944
#
# Stress axis : x y z
#
# Youngs Moduli (GPa) = 73.70082 73.70082 157.27672
#
# Poissons Ratio (x) = 0.50841 0.31727
# Poissons Ratio (y) = 0.50841 0.31727
# Poissons Ratio (z) = 0.14867 0.14867
#
# Static dielectric constant tensor:
#      x y z
#    x 2.136850 0.000000 0.000000 
#    y 0.000000 2.136850 0.000000 
#    z 0.000000 0.000000 2.191680 
# 
# From -- ./inp_files/2887.got.cif
#   From: 2010.05.17/outbox.cif.g08.bks.cpg/sg92_2_cif.got.tgz:2887.got - 2010.06.03 19:35:17.
