data_PCOD9549533
_publ_section_title
;
Structure prediction by ZEFSAII (Michael W. Deem and Ramdas Pophale) SiO2 
 PCOD9549533
Probable space group: P 41 21 2
;
_chemical_formula_sum "Si O2"
_cell_formula_units_Z 28
_cell_length_a 7.931427
_cell_length_b 7.931427
_cell_length_c 17.861683
_cell_angle_alpha 90.000000
_cell_angle_beta 90.000000
_cell_angle_gamma 90.000000
_cell_volume 1123.634435
_symmetry_space_group_name_H-M "P 41 21 2"
_symmetry_group_IT_number 92
_symmetry_cell_setting 'tetragonal'
loop_
_space_group_symop_operation_xyz
x,y,z
1/2-y,1/2+x,1/4+z
-x,-y,1/2+z
1/2+y,1/2-x,3/4+z
1/2+x,1/2-y,3/4-z
1/2-x,1/2+y,1/4-z
y,x,-z
-y,-x,1/2-z
loop_
_atom_site_type_symbol
_atom_site_label
_atom_site_fract_x
_atom_site_fract_y
_atom_site_fract_z
Si Si1 0.127071 0.292599 0.602777
Si Si2 0.879887 0.552642 0.939497
Si Si3 0.749846 0.749846 0.500000
Si Si4 0.573731 0.703961 0.355527
O O1 0.134113 0.388616 0.523979
O O2 0.074172 0.427207 0.664060
O O3 0.314039 0.219555 0.612226
O O4 0.982015 0.151094 0.596883
O O5 0.822237 0.361397 0.929597
O O6 0.587674 0.744009 0.444652
O O7 0.902580 0.775873 0.441425
#
# Coordination Sequence:
#
# PCOD9549533 Si02
#       4
#     8   8   4   8
#     4  11  27  47  77 114 160 208 277 343 415 498
#     4  11  26  48  75 114 157 208 270 340 416 495
#     4  12  28  52  84 120 168 216 288 346 430 502
#     4  12  27  51  83 119 164 224 278 351 421 516
#
# _framework density 24.919139000000001
#
# number of rings (size 3 to 8) (size 9 to 14) (size 15 to 20)
#    0.000    0.571    2.857    3.429   12.000    0.000 
#    0.000    0.000    0.000    0.000    0.000    0.000 
#    0.000    0.000    0.000    0.000    0.000    0.000 
#
# Total GULP energy -156590.594989 kJ/mol
# GULP energy per Si atom -5592.521250 kJ/mol
# Density = 2.486242 g / cm^3
# Si number density = 24.919139 Si / 1000 Ang^3
#
#
#
# Elastic Constant Matrix: (Units=GPa)
#
#
# Indices 1 2 3 4 5 6 
#
# 1 68.6173 34.6966 22.0641 0.0000 0.0000 0.0000
# 2 34.6966 68.6173 22.0641 0.0000 0.0000 0.0000
# 3 22.0641 22.0641 126.2637 0.0000 0.0000 0.0000
# 4 0.0000 0.0000 0.0000 48.4534 0.0000 0.0000
# 5 0.0000 0.0000 0.0000 0.0000 48.4534 0.0000
# 6 0.0000 0.0000 0.0000 0.0000 0.0000 31.7784
#
#
#
# Elastic Compliance Matrix: (Units=1/GPa)
#
#
# Indices 1 2 3 4 5 6 
#
# 1 0.019970 -0.009510 -0.001828 0.000000 0.000000 0.000000
# 2 -0.009510 0.019970 -0.001828 0.000000 0.000000 0.000000
# 3 -0.001828 -0.001828 0.008559 0.000000 0.000000 0.000000
# 4 0.000000 0.000000 0.000000 0.020638 0.000000 0.000000
# 5 0.000000 0.000000 0.000000 0.000000 0.020638 0.000000
# 6 0.000000 0.000000 0.000000 0.000000 0.000000 0.031468
#
#
# Mechanical properties :
#
#
# Convention : Reuss Voigt Hill
#
# Bulk Modulus (GPa) = 45.11147 46.79422 45.95285
# Shear Modulus (GPa) = 32.26534 38.04858 35.15696
#
# Velocity S-wave (km/s) = 3.60224 3.91177 3.76019
# Velocity P-wave (km/s) = 5.95348 6.26273 6.11006
#
# Compressibility (1/GPa) = 0.02216731
#
# Stress axis : x y z
#
# Youngs Moduli (GPa) = 50.07450 50.07450 116.83955
#
# Poissons Ratio (x) = 0.47622 0.21356
# Poissons Ratio (y) = 0.47622 0.21356
# Poissons Ratio (z) = 0.09153 0.09153
#
# Static dielectric constant tensor:
#      x y z
#    x 2.090940 0.000000 0.000000 
#    y 0.000000 2.090940 0.000000 
#    z 0.000000 0.000000 1.941080 
# 
# From -- ./inp_files/3284.got.cif
#   From: 2010.05.17/outbox.cif.g08.bks.cpg/sg92_2_cif.got.tgz:3284.got - 2010.06.03 19:35:17.
