data_PCOD9549497
_publ_section_title
;
Structure prediction by ZEFSAII (Michael W. Deem and Ramdas Pophale) SiO2 
 PCOD9549497
Probable space group: P 41 21 2
;
_chemical_formula_sum "Si O2"
_cell_formula_units_Z 36
_cell_length_a 9.381041
_cell_length_b 9.381041
_cell_length_c 17.708970
_cell_angle_alpha 90.000000
_cell_angle_beta 90.000000
_cell_angle_gamma 90.000000
_cell_volume 1558.458961
_symmetry_space_group_name_H-M "P 41 21 2"
_symmetry_group_IT_number 92
_symmetry_cell_setting 'tetragonal'
loop_
_space_group_symop_operation_xyz
x,y,z
1/2-y,1/2+x,1/4+z
-x,-y,1/2+z
1/2+y,1/2-x,3/4+z
1/2+x,1/2-y,3/4-z
1/2-x,1/2+y,1/4-z
y,x,-z
-y,-x,1/2-z
loop_
_atom_site_type_symbol
_atom_site_label
_atom_site_fract_x
_atom_site_fract_y
_atom_site_fract_z
Si Si1 0.910441 0.399740 0.744924
Si Si2 0.558676 0.326884 0.112393
Si Si3 0.455962 0.704127 0.380789
Si Si4 0.254210 0.745791 0.750000
Si Si5 0.059039 0.265241 0.238264
O O1 0.762702 0.399478 0.698194
O O2 0.926436 0.568356 0.753217
O O3 0.009612 0.308707 0.687166
O O4 0.952533 0.323657 0.823400
O O5 0.428961 0.436635 0.123986
O O6 0.620483 0.269872 0.190240
O O7 0.678359 0.412851 0.065451
O O8 0.318088 0.660157 0.430013
O O9 0.102275 0.746637 0.709116
#
# Coordination Sequence:
#
# PCOD9549497 Si02
#       5
#     8   8   8   4   8
#     4  11  24  44  78 108 146 195 244 306 374 451
#     4  11  26  50  71 109 147 196 258 308 378 460
#     4  11  24  51  74 111 153 193 251 315 373 451
#     4  12  26  46  74 100 148 198 250 312 378 446
#     4  11  24  46  74 103 150 196 237 314 379 441
#
# _framework density 23.099739
#
# number of rings (size 3 to 8) (size 9 to 14) (size 15 to 20)
#    0.000    0.889    2.222    4.667    6.222    1.778 
#    8.000    0.000    0.000    0.000    0.000    0.000 
#    0.000    0.000    0.000    0.000    0.000    0.000 
#
# Total GULP energy -201184.783717 kJ/mol
# GULP energy per Si atom -5588.466214 kJ/mol
# Density = 2.304716 g / cm^3
# Si number density = 23.099739 Si / 1000 Ang^3
#
#
#
# Elastic Constant Matrix: (Units=GPa)
#
#
# Indices 1 2 3 4 5 6 
#
# 1 171.1544 61.8790 56.0290 0.0000 0.0000 0.0000
# 2 61.8790 171.1545 56.0292 0.0000 0.0000 0.0000
# 3 56.0290 56.0292 73.1231 0.0000 0.0000 0.0000
# 4 0.0000 0.0000 0.0000 18.0680 0.0000 0.0000
# 5 0.0000 0.0000 0.0000 0.0000 18.0681 0.0000
# 6 0.0000 0.0000 0.0000 0.0000 0.0000 28.9766
#
#
#
# Elastic Compliance Matrix: (Units=1/GPa)
#
#
# Indices 1 2 3 4 5 6 
#
# 1 0.007973 -0.001178 -0.005206 0.000000 0.000000 0.000000
# 2 -0.001178 0.007973 -0.005206 0.000000 0.000000 0.000000
# 3 -0.005206 -0.005206 0.021654 0.000000 0.000000 0.000000
# 4 0.000000 0.000000 0.000000 0.055347 0.000000 0.000000
# 5 0.000000 0.000000 0.000000 0.000000 0.055346 0.000000
# 6 0.000000 0.000000 0.000000 0.000000 0.000000 0.034511
#
#
# Mechanical properties :
#
#
# Convention : Reuss Voigt Hill
#
# Bulk Modulus (GPa) = 69.35669 84.81182 77.08426
# Shear Modulus (GPa) = 23.72013 29.12219 26.42116
#
# Velocity S-wave (km/s) = 3.20794 3.55451 3.38566
# Velocity P-wave (km/s) = 6.61900 7.32402 6.98042
#
# Compressibility (1/GPa) = 0.01441822
#
# Stress axis : x y z
#
# Youngs Moduli (GPa) = 125.42334 125.42329 46.18054
#
# Poissons Ratio (x) = 0.14777 0.24043
# Poissons Ratio (y) = 0.14777 0.24043
# Poissons Ratio (z) = 0.65300 0.65300
#
# Static dielectric constant tensor:
#      x y z
#    x 1.929170 0.000000 0.000000 
#    y 0.000000 1.929170 0.000000 
#    z 0.000000 0.000000 1.844890 
# 
# From -- ./inp_files/3468.got.cif
#   From: 2010.05.17/outbox.cif.g08.bks.cpg/sg92_2_cif.got.tgz:3468.got - 2010.06.03 19:35:17.
