data_PCOD9549923
_publ_section_title
;
Structure prediction by ZEFSAII (Michael W. Deem and Ramdas Pophale) SiO2 
 PCOD9549923
Probable space group: P 42 21 2
;
_chemical_formula_sum "Si O2"
_cell_formula_units_Z 48
_cell_length_a 8.094742
_cell_length_b 8.094742
_cell_length_c 32.569297
_cell_angle_alpha 90.000000
_cell_angle_beta 90.000000
_cell_angle_gamma 90.000000
_cell_volume 2134.098237
_symmetry_space_group_name_H-M "P 42 21 2"
_symmetry_group_IT_number 94
_symmetry_cell_setting 'tetragonal'
loop_
_space_group_symop_operation_xyz
x,y,z
1/2-y,1/2+x,1/2+z
-x,-y,z
1/2+y,1/2-x,1/2+z
1/2+x,1/2-y,1/2-z
1/2-x,1/2+y,1/2-z
y,x,-z
-y,-x,-z
loop_
_atom_site_type_symbol
_atom_site_label
_atom_site_fract_x
_atom_site_fract_y
_atom_site_fract_z
Si Si1 0.803565 0.818123 0.953156
Si Si2 0.987689 0.296501 0.398509
Si Si3 0.592510 0.667579 0.673516
Si Si4 0.621802 0.784631 0.191848
Si Si5 0.979314 0.689351 0.224886
Si Si6 0.173850 0.831612 0.922742
O O1 0.745646 0.676015 0.922578
O O2 0.003824 0.819683 0.948272
O O3 0.743744 0.000119 0.938864
O O4 0.772295 0.772295 0.000000
O O5 0.962942 0.241411 0.351474
O O6 0.000000 0.500000 0.399358
O O7 0.154658 0.236840 0.421087
O O8 0.500000 0.500000 0.687364
O O9 0.478107 0.820300 0.685554
O O10 0.760361 0.636833 0.697125
O O11 0.619539 0.652387 0.625011
O O12 0.804139 0.712328 0.202329
O O13 0.508666 0.733115 0.230171
O O14 0.000000 0.500000 0.233659
#
# Coordination Sequence:
#
# PCOD9549923 Si02
#       6
#     8   8   8   8   8   8
#     4  10  18  32  57  96 127 152 205 279 315 375
#     4  10  19  33  60  92 123 162 213 265 315 392
#     4  10  18  35  59  82 116 156 210 256 303 375
#     4  11  21  38  57  84 117 161 219 259 314 377
#     4  11  24  35  54  85 121 157 211 270 322 367
#     4  10  17  32  59  91 119 165 204 260 322 376
#
# _framework density 22.491938000000001
#
# number of rings (size 3 to 8) (size 9 to 14) (size 15 to 20)
#    0.000    1.667    5.000    3.500    2.333    0.000 
#    0.000    0.000    0.000   16.000    0.000    0.000 
#    0.000    0.000    0.000    0.000    0.000    0.000 
#
# Total GULP energy -267648.040284 kJ/mol
# GULP energy per Si atom -5576.000839 kJ/mol
# Density = 2.244075 g / cm^3
# Si number density = 22.491938 Si / 1000 Ang^3
#
#
#
# Elastic Constant Matrix: (Units=GPa)
#
#
# Indices 1 2 3 4 5 6 
#
# 1 76.6882 -2.3526 5.5488 0.0000 0.0000 0.0000
# 2 -2.3526 76.6882 5.5488 0.0000 0.0000 0.0000
# 3 5.5488 5.5488 97.2531 0.0000 0.0000 0.0000
# 4 0.0000 0.0000 0.0000 35.7915 0.0000 0.0000
# 5 0.0000 0.0000 0.0000 0.0000 35.7915 0.0000
# 6 0.0000 0.0000 0.0000 0.0000 0.0000 9.6532
#
#
#
# Elastic Compliance Matrix: (Units=1/GPa)
#
#
# Indices 1 2 3 4 5 6 
#
# 1 0.013110 0.000458 -0.000774 0.000000 0.000000 0.000000
# 2 0.000458 0.013110 -0.000774 0.000000 0.000000 0.000000
# 3 -0.000774 -0.000774 0.010371 0.000000 0.000000 0.000000
# 4 0.000000 0.000000 0.000000 0.027940 0.000000 0.000000
# 5 0.000000 0.000000 0.000000 0.000000 0.027940 0.000000
# 6 0.000000 0.000000 0.000000 0.000000 0.000000 0.103592
#
#
# Mechanical properties :
#
#
# Convention : Reuss Voigt Hill
#
# Bulk Modulus (GPa) = 29.06095 29.79104 29.42599
# Shear Modulus (GPa) = 23.84218 32.37289 28.10753
#
# Velocity S-wave (km/s) = 3.25935 3.79794 3.53890
# Velocity P-wave (km/s) = 5.20702 5.70144 5.45983
#
# Compressibility (1/GPa) = 0.03441044
#
# Stress axis : x y z
#
# Youngs Moduli (GPa) = 76.27830 76.27830 96.42477
#
# Poissons Ratio (x) = -0.03495 0.07464
# Poissons Ratio (y) = -0.03495 0.07464
# Poissons Ratio (z) = 0.05905 0.05905
#
# Static dielectric constant tensor:
#      x y z
#    x 1.891430 0.000000 0.000000 
#    y 0.000000 1.891430 0.000000 
#    z 0.000000 0.000000 1.808460 
# 
# From -- ./inp_files/5572.got.cif
#   From: 2010.05.17/outbox.cif.g08.bks.cpg/sg94_3_cif.got.tgz:5572.got - 2010.06.03 19:43:16.
