data_PCOD9549558
_publ_section_title
;
Structure prediction by ZEFSAII (Michael W. Deem and Ramdas Pophale) SiO2 
 PCOD9549558
Probable space group: P 41 21 2
;
_chemical_formula_sum "Si O2"
_cell_formula_units_Z 40
_cell_length_a 14.087752
_cell_length_b 14.087752
_cell_length_c 8.954919
_cell_angle_alpha 90.000000
_cell_angle_beta 90.000000
_cell_angle_gamma 90.000000
_cell_volume 1777.235818
_symmetry_space_group_name_H-M "P 41 21 2"
_symmetry_group_IT_number 92
_symmetry_cell_setting 'tetragonal'
loop_
_space_group_symop_operation_xyz
x,y,z
1/2-y,1/2+x,1/4+z
-x,-y,1/2+z
1/2+y,1/2-x,3/4+z
1/2+x,1/2-y,3/4-z
1/2-x,1/2+y,1/4-z
y,x,-z
-y,-x,1/2-z
loop_
_atom_site_type_symbol
_atom_site_label
_atom_site_fract_x
_atom_site_fract_y
_atom_site_fract_z
Si Si1 0.985939 0.599187 0.312673
Si Si2 0.313918 0.185007 0.607629
Si Si3 0.401073 0.284195 0.877265
Si Si4 0.419369 0.445013 0.676317
Si Si5 0.703250 0.039328 0.112297
O O1 0.968119 0.560898 0.478199
O O2 0.027856 0.704610 0.308458
O O3 0.885479 0.583355 0.228091
O O4 0.237886 0.237886 0.500000
O O5 0.325656 0.229640 0.770842
O O6 0.413870 0.200141 0.524422
O O7 0.299514 0.073433 0.616021
O O8 0.458963 0.356841 0.771334
O O9 0.345584 0.345584 0.000000
O O10 0.440028 0.440028 0.500000
O O11 0.460905 0.539096 0.750000
O O12 0.306797 0.436203 0.699413
#
# Coordination Sequence:
#
# PCOD9549558 Si02
#       5
#     8   8   8   8   8
#     4  12  27  45  77 114 157 200 255 321 392 458
#     4  12  26  48  80 108 158 206 255 328 384 466
#     4  12  27  48  72 114 160 200 262 320 382 472
#     4  12  26  53  78 107 157 208 262 319 387 470
#     4  12  24  48  77 115 152 200 259 314 402 458
#
# _framework density 22.506858999999999
#
# number of rings (size 3 to 8) (size 9 to 14) (size 15 to 20)
#    0.000    0.000    6.000    3.600    2.800    0.000 
#    3.600    4.000    0.000    0.000    0.000    0.000 
#    0.000    0.000    0.000    0.000    0.000    0.000 
#
# Total GULP energy -223907.394102 kJ/mol
# GULP energy per Si atom -5597.684853 kJ/mol
# Density = 2.245563 g / cm^3
# Si number density = 22.506859 Si / 1000 Ang^3
#
#
#
# Elastic Constant Matrix: (Units=GPa)
#
#
# Indices 1 2 3 4 5 6 
#
# 1 102.9787 61.8744 51.3664 0.0000 0.0000 0.0000
# 2 61.8744 102.9786 51.3665 0.0000 0.0000 0.0000
# 3 51.3664 51.3665 130.2659 0.0000 0.0000 0.0000
# 4 0.0000 0.0000 0.0000 33.3522 0.0000 0.0000
# 5 0.0000 0.0000 0.0000 0.0000 33.3530 0.0000
# 6 0.0000 0.0000 0.0000 0.0000 0.0000 35.9594
#
#
#
# Elastic Compliance Matrix: (Units=1/GPa)
#
#
# Indices 1 2 3 4 5 6 
#
# 1 0.016185 -0.008143 -0.003171 0.000000 0.000000 0.000000
# 2 -0.008143 0.016185 -0.003171 0.000000 0.000000 0.000000
# 3 -0.003171 -0.003171 0.010178 0.000000 0.000000 0.000000
# 4 0.000000 0.000000 0.000000 0.029983 0.000000 0.000000
# 5 0.000000 0.000000 0.000000 0.000000 0.029982 0.000000
# 6 0.000000 0.000000 0.000000 0.000000 0.000000 0.027809
#
#
# Mechanical properties :
#
#
# Convention : Reuss Voigt Hill
#
# Bulk Modulus (GPa) = 73.65303 73.93752 73.79528
# Shear Modulus (GPa) = 30.52141 31.97398 31.24769
#
# Velocity S-wave (km/s) = 3.68651 3.77322 3.73012
# Velocity P-wave (km/s) = 7.13556 7.20453 7.17013
#
# Compressibility (1/GPa) = 0.01357717
#
# Stress axis : x y z
#
# Youngs Moduli (GPa) = 61.78445 61.78429 98.25549
#
# Poissons Ratio (x) = 0.50311 0.31159
# Poissons Ratio (y) = 0.50312 0.31159
# Poissons Ratio (z) = 0.19593 0.19593
#
# Static dielectric constant tensor:
#      x y z
#    x 1.865660 0.000000 0.000000 
#    y 0.000000 1.865660 0.000000 
#    z 0.000000 0.000000 1.893730 
# 
# From -- ./inp_files/1324.got.cif
#   From: 2010.05.17/outbox.cif.g08.bks.cpg/sg92_1_cif.got.tgz:1324.got - 2010.06.03 19:35:17.
