data_PCOD9549072
_publ_section_title
;
Structure prediction by ZEFSAII (Michael W. Deem and Ramdas Pophale) SiO2 
 PCOD9549072
Probable space group: P 41 21 2
;
_chemical_formula_sum "Si O2"
_cell_formula_units_Z 48
_cell_length_a 9.686936
_cell_length_b 9.686936
_cell_length_c 21.461011
_cell_angle_alpha 90.000000
_cell_angle_beta 90.000000
_cell_angle_gamma 90.000000
_cell_volume 2013.831075
_symmetry_space_group_name_H-M "P 41 21 2"
_symmetry_group_IT_number 92
_symmetry_cell_setting 'tetragonal'
loop_
_space_group_symop_operation_xyz
x,y,z
1/2-y,1/2+x,1/4+z
-x,-y,1/2+z
1/2+y,1/2-x,3/4+z
1/2+x,1/2-y,3/4-z
1/2-x,1/2+y,1/4-z
y,x,-z
-y,-x,1/2-z
loop_
_atom_site_type_symbol
_atom_site_label
_atom_site_fract_x
_atom_site_fract_y
_atom_site_fract_z
Si Si1 0.712850 0.622464 0.677862
Si Si2 0.216252 0.536000 0.860304
Si Si3 0.653796 0.383032 0.881100
Si Si4 0.783889 0.994920 0.754056
Si Si5 0.010187 0.515063 0.456606
Si Si6 0.225064 0.845741 0.813850
O O1 0.575178 0.713212 0.685433
O O2 0.793007 0.707780 0.623047
O O3 0.659898 0.470154 0.662540
O O4 0.844287 0.592563 0.721772
O O5 0.307647 0.549326 0.923953
O O6 0.071815 0.481394 0.889932
O O7 0.208316 0.688432 0.833629
O O8 0.680410 0.545444 0.883664
O O9 0.603121 0.342160 0.950830
O O10 0.859154 0.140847 0.750000
O O11 0.618760 0.999663 0.748015
O O12 0.118540 0.391508 0.452481
O O13 0.139107 0.860894 0.750000
#
# Coordination Sequence:
#
# PCOD9549072 Si02
#       6
#     8   8   8   8   8   8
#     4  11  21  40  67  95 126 174 217 283 329 395
#     4  10  23  40  69  92 138 168 227 278 339 402
#     4  11  22  41  70  96 132 176 231 267 350 400
#     4  10  20  40  68  95 126 176 227 274 330 415
#     4   9  23  41  61  98 131 164 232 275 335 398
#     4  11  26  41  65 100 138 183 218 279 352 415
#
# _framework density 23.835167999999999
#
# number of rings (size 3 to 8) (size 9 to 14) (size 15 to 20)
#    1.000    0.667    3.333    0.500    4.667    0.000 
#    0.000    5.833    0.000    0.000    0.000    0.000 
#    0.000    0.000    0.000    0.000    0.000    0.000 
#
# Total GULP energy -267713.942529 kJ/mol
# GULP energy per Si atom -5577.373803 kJ/mol
# Density = 2.378092 g / cm^3
# Si number density = 23.835168 Si / 1000 Ang^3
#
#
#
# Elastic Constant Matrix: (Units=GPa)
#
#
# Indices 1 2 3 4 5 6 
#
# 1 105.0773 -1.5383 -6.6705 0.0000 0.0000 0.0000
# 2 -1.5383 105.0762 -6.6707 0.0000 0.0000 0.0000
# 3 -6.6705 -6.6707 39.0539 0.0000 0.0000 0.0000
# 4 0.0000 0.0000 0.0000 20.0090 0.0000 0.0000
# 5 0.0000 0.0000 0.0000 0.0000 20.0087 0.0000
# 6 0.0000 0.0000 0.0000 0.0000 0.0000 39.8622
#
#
#
# Elastic Compliance Matrix: (Units=1/GPa)
#
#
# Indices 1 2 3 4 5 6 
#
# 1 0.009628 0.000248 0.001687 0.000000 0.000000 0.000000
# 2 0.000248 0.009628 0.001687 0.000000 0.000000 0.000000
# 3 0.001687 0.001687 0.026182 0.000000 0.000000 0.000000
# 4 0.000000 0.000000 0.000000 0.049978 0.000000 0.000000
# 5 0.000000 0.000000 0.000000 0.000000 0.049978 0.000000
# 6 0.000000 0.000000 0.000000 0.000000 0.000000 0.025086
#
#
# Mechanical properties :
#
#
# Convention : Reuss Voigt Hill
#
# Bulk Modulus (GPa) = 18.98246 24.38316 21.68281
# Shear Modulus (GPa) = 27.65549 33.58178 30.61864
#
# Velocity S-wave (km/s) = 3.40998 3.75763 3.58802
# Velocity P-wave (km/s) = 4.84617 5.39245 5.12659
#
# Compressibility (1/GPa) = 0.05268021
#
# Stress axis : x y z
#
# Youngs Moduli (GPa) = 103.86904 103.86782 38.19443
#
# Poissons Ratio (x) = -0.02576 -0.06442
# Poissons Ratio (y) = -0.02576 -0.06443
# Poissons Ratio (z) = -0.17520 -0.17521
#
# Static dielectric constant tensor:
#      x y z
#    x 1.930710 0.000000 0.000000 
#    y 0.000000 1.930710 0.000000 
#    z 0.000000 0.000000 2.001520 
# 
# From -- ./inp_files/4458.got.cif
#   From: 2010.05.17/outbox.cif.g08.bks.cpg/sg92_3_cif.got.tgz:4458.got - 2010.06.03 19:35:17.
