data_PCOD9549614
_publ_section_title
;
Structure prediction by ZEFSAII (Michael W. Deem and Ramdas Pophale) SiO2 
 PCOD9549614
Probable space group: P 42 2 2
;
_chemical_formula_sum "Si O2"
_cell_formula_units_Z 48
_cell_length_a 10.195622
_cell_length_b 10.195622
_cell_length_c 18.953877
_cell_angle_alpha 90.000000
_cell_angle_beta 90.000000
_cell_angle_gamma 90.000000
_cell_volume 1970.268933
_symmetry_space_group_name_H-M "P 42 2 2"
_symmetry_group_IT_number 93
_symmetry_cell_setting 'tetragonal'
loop_
_space_group_symop_operation_xyz
x,y,z
-y,x,1/2+z
-x,-y,z
y,-x,1/2+z
x,-y,-z
-x,y,-z
y,x,1/2-z
-y,-x,1/2-z
loop_
_atom_site_type_symbol
_atom_site_label
_atom_site_fract_x
_atom_site_fract_y
_atom_site_fract_z
Si Si1 0.472320 0.653255 0.367214
Si Si2 0.192849 0.549646 0.399810
Si Si3 0.276332 0.745601 0.561148
Si Si4 0.897299 0.802511 0.556874
Si Si5 0.177153 0.081371 0.181438
Si Si6 0.133080 0.459925 0.247362
O O1 0.500000 0.500000 0.351721
O O2 0.325342 0.637396 0.395131
O O3 0.572049 0.717571 0.423359
O O4 0.505883 0.740484 0.298927
O O5 0.221508 0.406204 0.431437
O O6 0.089649 0.644126 0.436433
O O7 0.148697 0.539664 0.319321
O O8 0.236154 0.816901 0.488598
O O9 0.201133 0.823814 0.624098
O O10 0.000000 0.853043 0.500000
O O11 0.949317 0.843933 0.634203
O O12 0.089376 0.089376 0.250000
O O13 0.316290 0.108533 0.220999
O O14 0.000000 0.500000 0.207803
#
# Coordination Sequence:
#
# PCOD9549614 Si02
#       6
#     8   8   8   8   8   8
#     4  10  21  36  53  83 128 173 212 268 351 429
#     4  10  20  30  50  80 121 173 214 270 338 413
#     4   9  19  30  51  78 120 174 210 261 333 429
#     4  10  20  33  50  81 123 163 214 269 336 417
#     4  10  18  31  52  78 118 160 212 270 340 402
#     4  11  20  32  53  83 121 170 224 277 339 418
#
# _framework density 24.362158000000001
#
# number of rings (size 3 to 8) (size 9 to 14) (size 15 to 20)
#    0.000    2.000    3.333    1.000    0.000    7.333 
#    0.000    2.500    0.000    0.000    0.000    4.667 
#    5.000    3.000    0.000    0.000    0.000    0.000 
#
# Total GULP energy -267299.760709 kJ/mol
# GULP energy per Si atom -5568.745015 kJ/mol
# Density = 2.430671 g / cm^3
# Si number density = 24.362158 Si / 1000 Ang^3
#
#
#
# Elastic Constant Matrix: (Units=GPa)
#
#
# Indices 1 2 3 4 5 6 
#
# 1 58.4381 75.3917 57.2065 0.0000 0.0000 0.0000
# 2 75.3917 58.4381 57.2065 0.0000 0.0000 0.0000
# 3 57.2065 57.2065 171.9164 0.0000 0.0000 0.0000
# 4 0.0000 0.0000 0.0000 36.7248 0.0000 0.0000
# 5 0.0000 0.0000 0.0000 0.0000 36.7248 0.0000
# 6 0.0000 0.0000 0.0000 0.0000 0.0000 17.4760
#
#
#
# Elastic Compliance Matrix: (Units=1/GPa)
#
#
# Indices 1 2 3 4 5 6 
#
# 1 -0.024271 0.034714 -0.003475 0.000000 0.000000 0.000000
# 2 0.034714 -0.024271 -0.003475 0.000000 0.000000 0.000000
# 3 -0.003475 -0.003475 0.008129 0.000000 0.000000 0.000000
# 4 0.000000 0.000000 0.000000 0.027230 0.000000 0.000000
# 5 0.000000 0.000000 0.000000 0.000000 0.027230 0.000000
# 6 0.000000 0.000000 0.000000 0.000000 0.000000 0.057221
#
#
# Mechanical properties :
#
#
# Convention : Reuss Voigt Hill
#
# Bulk Modulus (GPa) = 66.15736 74.26690 70.21213
# Shear Modulus (GPa) = 240.63085 24.78433 132.70759
#
# Velocity S-wave (km/s) = 9.94921 3.19302 7.38858
# Velocity P-wave (km/s) = 12.61734 6.64414 10.08320
#
# Compressibility (1/GPa) = 0.01511548
#
# Stress axis : x y z
#
# Youngs Moduli (GPa) = -41.20159 -41.20159 123.00973
#
# Poissons Ratio (x) = 1.43027 0.42746
# Poissons Ratio (y) = 1.43027 0.42746
# Poissons Ratio (z) = -0.14317 -0.14317
#
# Static dielectric constant tensor:
#      x y z
#    x 2.068210 0.000000 0.000000 
#    y 0.000000 2.068210 0.000000 
#    z 0.000000 0.000000 2.996840 
# 
# From -- ./inp_files/5395.got.cif
#   From: 2010.05.17/outbox.cif.g08.bks.cpg/sg93_3_cif.got.tgz:5395.got - 2010.06.03 19:38:44.
