data_PCOD9549320
_publ_section_title
;
Structure prediction by ZEFSAII (Michael W. Deem and Ramdas Pophale) SiO2 
 PCOD9549320
Probable space group: P 41 21 2
;
_chemical_formula_sum "Si O2"
_cell_formula_units_Z 48
_cell_length_a 8.581170
_cell_length_b 8.581170
_cell_length_c 30.433926
_cell_angle_alpha 90.000000
_cell_angle_beta 90.000000
_cell_angle_gamma 90.000000
_cell_volume 2241.047140
_symmetry_space_group_name_H-M "P 41 21 2"
_symmetry_group_IT_number 92
_symmetry_cell_setting 'tetragonal'
loop_
_space_group_symop_operation_xyz
x,y,z
1/2-y,1/2+x,1/4+z
-x,-y,1/2+z
1/2+y,1/2-x,3/4+z
1/2+x,1/2-y,3/4-z
1/2-x,1/2+y,1/4-z
y,x,-z
-y,-x,1/2-z
loop_
_atom_site_type_symbol
_atom_site_label
_atom_site_fract_x
_atom_site_fract_y
_atom_site_fract_z
Si Si1 0.720435 0.791105 0.817509
Si Si2 0.787269 0.685154 0.596734
Si Si3 0.082979 0.041679 0.954677
Si Si4 0.997823 0.598103 0.854724
Si Si5 0.105242 0.749015 0.068607
Si Si6 0.814281 0.960665 0.732943
O O1 0.658812 0.626672 0.798782
O O2 0.887454 0.737456 0.837694
O O3 0.603260 0.844307 0.855369
O O4 0.729466 0.919373 0.779045
O O5 0.849144 0.854979 0.583806
O O6 0.650930 0.704847 0.631664
O O7 0.738622 0.594254 0.552028
O O8 0.942359 0.601685 0.616020
O O9 0.898916 0.033710 0.953536
O O10 0.124585 0.124585 0.000000
O O11 0.114132 0.524445 0.818493
O O12 0.265088 0.690766 0.045645
O O13 0.984301 0.015700 0.750000
#
# Coordination Sequence:
#
# PCOD9549320 Si02
#       6
#     8   8   8   8   8   8
#     4  11  23  43  63  96 134 179 221 282 336 410
#     4  10  23  40  67  97 128 176 225 283 332 399
#     4  11  21  39  64  92 130 170 219 271 335 400
#     4  10  23  40  65  93 132 175 220 272 342 402
#     4  11  22  43  65  97 130 173 224 274 341 404
#     4  11  23  40  65  98 132 171 227 281 330 401
#
# _framework density 21.418561
#
# number of rings (size 3 to 8) (size 9 to 14) (size 15 to 20)
#    0.000    1.333    1.667    4.500    0.000    4.000 
#    3.000    0.833    0.000    0.000    0.000    0.000 
#    0.000    0.000    0.000    0.000    0.000    0.000 
#
# Total GULP energy -267519.827845 kJ/mol
# GULP energy per Si atom -5573.329747 kJ/mol
# Density = 2.136981 g / cm^3
# Si number density = 21.418561 Si / 1000 Ang^3
#
#
#
# Elastic Constant Matrix: (Units=GPa)
#
#
# Indices 1 2 3 4 5 6 
#
# 1 58.8670 32.3905 40.2820 0.0000 0.0000 0.0000
# 2 32.3905 58.8674 40.2818 0.0000 0.0000 0.0000
# 3 40.2820 40.2818 106.5171 0.0000 0.0000 0.0000
# 4 0.0000 0.0000 0.0000 26.6960 0.0000 0.0000
# 5 0.0000 0.0000 0.0000 0.0000 26.6958 0.0000
# 6 0.0000 0.0000 0.0000 0.0000 0.0000 27.8783
#
#
#
# Elastic Compliance Matrix: (Units=1/GPa)
#
#
# Indices 1 2 3 4 5 6 
#
# 1 0.027110 -0.010660 -0.006221 0.000000 0.000000 0.000000
# 2 -0.010660 0.027109 -0.006221 0.000000 0.000000 0.000000
# 3 -0.006221 -0.006221 0.014093 0.000000 0.000000 0.000000
# 4 0.000000 0.000000 0.000000 0.037459 0.000000 0.000000
# 5 0.000000 0.000000 0.000000 0.000000 0.037459 0.000000
# 6 0.000000 0.000000 0.000000 0.000000 0.000000 0.035870
#
#
# Mechanical properties :
#
#
# Convention : Reuss Voigt Hill
#
# Bulk Modulus (GPa) = 45.22944 50.01777 47.62361
# Shear Modulus (GPa) = 21.48938 23.67383 22.58161
#
# Velocity S-wave (km/s) = 3.17094 3.32820 3.25052
# Velocity P-wave (km/s) = 5.87956 6.17839 6.03083
#
# Compressibility (1/GPa) = 0.02210949
#
# Stress axis : x y z
#
# Youngs Moduli (GPa) = 36.88725 36.88766 70.95562
#
# Poissons Ratio (x) = 0.39321 0.44141
# Poissons Ratio (y) = 0.39320 0.44140
# Poissons Ratio (z) = 0.22948 0.22947
#
# Static dielectric constant tensor:
#      x y z
#    x 1.781340 0.000000 0.000000 
#    y 0.000000 1.781340 0.000000 
#    z 0.000000 0.000000 1.820080 
# 
# From -- ./inp_files/4466.got.cif
#   From: 2010.05.17/outbox.cif.g08.bks.cpg/sg92_3_cif.got.tgz:4466.got - 2010.06.03 19:35:17.
