data_PCOD9549362
_publ_section_title
;
Structure prediction by ZEFSAII (Michael W. Deem and Ramdas Pophale) SiO2 
 PCOD9549362
Probable space group: P 41 21 2
;
_chemical_formula_sum "Si O2"
_cell_formula_units_Z 52
_cell_length_a 18.090702
_cell_length_b 18.090702
_cell_length_c 6.801168
_cell_angle_alpha 90.000000
_cell_angle_beta 90.000000
_cell_angle_gamma 90.000000
_cell_volume 2225.842048
_symmetry_space_group_name_H-M "P 41 21 2"
_symmetry_group_IT_number 92
_symmetry_cell_setting 'tetragonal'
loop_
_space_group_symop_operation_xyz
x,y,z
1/2-y,1/2+x,1/4+z
-x,-y,1/2+z
1/2+y,1/2-x,3/4+z
1/2+x,1/2-y,3/4-z
1/2-x,1/2+y,1/4-z
y,x,-z
-y,-x,1/2-z
loop_
_atom_site_type_symbol
_atom_site_label
_atom_site_fract_x
_atom_site_fract_y
_atom_site_fract_z
Si Si1 0.230244 0.769757 0.750000
Si Si2 0.037050 0.733420 0.385118
Si Si3 0.145022 0.629892 0.638078
Si Si4 0.725223 0.472039 0.016746
Si Si5 0.594640 0.967120 0.773459
Si Si6 0.107919 0.817090 0.023303
Si Si7 0.554669 0.554669 0.500000
Si Si8 0.913704 0.913704 0.000000
O O1 0.204603 0.685907 0.733742
O O2 0.188342 0.801954 0.941307
O O3 0.092123 0.677908 0.499109
O O4 0.989798 0.783137 0.536080
O O5 0.083900 0.776972 0.222995
O O6 0.979173 0.679847 0.277488
O O7 0.195308 0.566944 0.538083
O O8 0.093692 0.591246 0.799830
O O9 0.717715 0.552742 0.114180
O O10 0.664786 0.426620 0.143723
O O11 0.544716 0.937790 0.597848
O O12 0.092399 0.903547 0.062548
O O13 0.569228 0.471062 0.430282
#
# Coordination Sequence:
#
# PCOD9549362 Si02
#       8
#     4   8   8   8   8   8   4   4
#     4  12  25  45  78 102 150 190 250 306 368 440
#     4  12  24  45  77 102 149 196 247 297 380 450
#     4  12  24  44  72 106 147 194 245 306 371 448
#     4  11  24  47  69 107 149 193 241 319 370 443
#     4  12  24  43  71 110 150 193 249 305 378 458
#     4  11  24  47  71 106 144 192 249 304 361 451
#     4  10  24  39  74  99 135 184 248 297 374 432
#     4  10  25  44  72 105 149 186 250 315 380 438
#
# _framework density 23.361947000000001
#
# number of rings (size 3 to 8) (size 9 to 14) (size 15 to 20)
#    0.000    0.615    3.077    5.077    2.154    1.231 
#    0.000    0.000    0.000    0.000    0.000    0.000 
#    0.000    0.000    0.000    0.000    0.000    0.000 
#
# Total GULP energy -290665.165761 kJ/mol
# GULP energy per Si atom -5589.714726 kJ/mol
# Density = 2.330877 g / cm^3
# Si number density = 23.361947 Si / 1000 Ang^3
#
#
#
# Elastic Constant Matrix: (Units=GPa)
#
#
# Indices 1 2 3 4 5 6 
#
# 1 72.3754 25.8506 23.5443 0.0000 0.0000 0.0000
# 2 25.8506 72.3762 23.5452 0.0000 0.0000 0.0000
# 3 23.5443 23.5452 101.5365 0.0000 0.0000 0.0000
# 4 0.0000 0.0000 0.0000 34.8922 0.0000 0.0000
# 5 0.0000 0.0000 0.0000 0.0000 34.8924 0.0000
# 6 0.0000 0.0000 0.0000 0.0000 0.0000 37.7461
#
#
#
# Elastic Compliance Matrix: (Units=1/GPa)
#
#
# Indices 1 2 3 4 5 6 
#
# 1 0.016474 -0.005020 -0.002656 0.000000 0.000000 0.000000
# 2 -0.005020 0.016474 -0.002656 0.000000 0.000000 0.000000
# 3 -0.002656 -0.002656 0.011080 0.000000 0.000000 0.000000
# 4 0.000000 0.000000 0.000000 0.028660 0.000000 0.000000
# 5 0.000000 0.000000 0.000000 0.000000 0.028660 0.000000
# 6 0.000000 0.000000 0.000000 0.000000 0.000000 0.026493
#
#
# Mechanical properties :
#
#
# Convention : Reuss Voigt Hill
#
# Bulk Modulus (GPa) = 42.80050 43.57427 43.18738
# Shear Modulus (GPa) = 31.99143 33.06267 32.52705
#
# Velocity S-wave (km/s) = 3.70453 3.76604 3.73541
# Velocity P-wave (km/s) = 6.05462 6.13214 6.09350
#
# Compressibility (1/GPa) = 0.02336421
#
# Stress axis : x y z
#
# Youngs Moduli (GPa) = 60.70238 60.70274 90.24921
#
# Poissons Ratio (x) = 0.30472 0.23969
# Poissons Ratio (y) = 0.30472 0.23971
# Poissons Ratio (z) = 0.16122 0.16123
#
# Static dielectric constant tensor:
#      x y z
#    x 1.887250 0.000000 0.000000 
#    y 0.000000 1.887260 0.000000 
#    z 0.000000 0.000000 1.882840 
# 
# From -- ./inp_files/1606.got.cif
#   From: 2010.05.17/outbox.cif.g08.bks.cpg/sg92_1_cif.got.tgz:1606.got - 2010.06.03 19:35:17.
