data_PCOD9549186
_publ_section_title
;
Structure prediction by ZEFSAII (Michael W. Deem and Ramdas Pophale) SiO2 
 PCOD9549186
Probable space group: P 41 21 2
;
_chemical_formula_sum "Si O2"
_cell_formula_units_Z 48
_cell_length_a 9.194314
_cell_length_b 9.194314
_cell_length_c 27.845391
_cell_angle_alpha 90.000000
_cell_angle_beta 90.000000
_cell_angle_gamma 90.000000
_cell_volume 2353.921543
_symmetry_space_group_name_H-M "P 41 21 2"
_symmetry_group_IT_number 92
_symmetry_cell_setting 'tetragonal'
loop_
_space_group_symop_operation_xyz
x,y,z
1/2-y,1/2+x,1/4+z
-x,-y,1/2+z
1/2+y,1/2-x,3/4+z
1/2+x,1/2-y,3/4-z
1/2-x,1/2+y,1/4-z
y,x,-z
-y,-x,1/2-z
loop_
_atom_site_type_symbol
_atom_site_label
_atom_site_fract_x
_atom_site_fract_y
_atom_site_fract_z
Si Si1 0.387751 0.503045 0.302492
Si Si2 0.136133 0.639224 0.773695
Si Si3 0.672480 0.459844 0.359143
Si Si4 0.000038 0.341045 0.751778
Si Si5 0.220899 0.772259 0.326530
Si Si6 0.237121 0.168102 0.703183
O O1 0.439699 0.560302 0.250000
O O2 0.523298 0.435623 0.330400
O O3 0.329237 0.638415 0.333544
O O4 0.259226 0.386190 0.296782
O O5 0.263640 0.736361 0.750000
O O6 0.200380 0.567410 0.821500
O O7 0.064968 0.502730 0.745383
O O8 0.000595 0.739057 0.787186
O O9 0.680232 0.623565 0.379742
O O10 0.686333 0.347995 0.403090
O O11 0.134351 0.233999 0.743975
O O12 0.919059 0.302211 0.801275
O O13 0.879877 0.299992 0.711704
#
# Coordination Sequence:
#
# PCOD9549186 Si02
#       6
#     8   8   8   8   8   8
#     4  12  22  45  69  99 129 182 224 277 331 401
#     4  12  25  42  66  99 133 176 219 270 341 404
#     4  11  26  40  63  98 139 170 219 277 334 400
#     4  10  21  44  66  92 126 170 221 271 329 392
#     4  10  22  42  69  93 127 168 228 275 325 391
#     4  11  24  43  67  93 136 172 219 274 334 396
#
# _framework density 20.391503
#
# number of rings (size 3 to 8) (size 9 to 14) (size 15 to 20)
#    0.000    1.000    3.333    3.500    7.000    1.333 
#    0.000    1.667    0.000    0.000    0.000    0.000 
#    0.000    0.000    0.000    0.000    0.000    0.000 
#
# Total GULP energy -268169.764441 kJ/mol
# GULP energy per Si atom -5586.870093 kJ/mol
# Density = 2.034509 g / cm^3
# Si number density = 20.391503 Si / 1000 Ang^3
#
#
#
# Elastic Constant Matrix: (Units=GPa)
#
#
# Indices 1 2 3 4 5 6 
#
# 1 106.4019 33.1857 13.7978 0.0000 0.0000 0.0000
# 2 33.1857 106.4016 13.7957 0.0000 0.0000 0.0000
# 3 13.7978 13.7957 36.1037 0.0000 0.0000 0.0000
# 4 0.0000 0.0000 0.0000 23.2077 0.0000 0.0000
# 5 0.0000 0.0000 0.0000 0.0000 23.2070 0.0000
# 6 0.0000 0.0000 0.0000 0.0000 0.0000 53.1524
#
#
#
# Elastic Compliance Matrix: (Units=1/GPa)
#
#
# Indices 1 2 3 4 5 6 
#
# 1 0.010704 -0.002954 -0.002962 0.000000 0.000000 0.000000
# 2 -0.002954 0.010704 -0.002961 0.000000 0.000000 0.000000
# 3 -0.002962 -0.002961 0.029961 0.000000 0.000000 0.000000
# 4 0.000000 0.000000 0.000000 0.043089 0.000000 0.000000
# 5 0.000000 0.000000 0.000000 0.000000 0.043090 0.000000
# 6 0.000000 0.000000 0.000000 0.000000 0.000000 0.018814
#
#
# Mechanical properties :
#
#
# Convention : Reuss Voigt Hill
#
# Bulk Modulus (GPa) = 29.74900 41.16286 35.45593
# Shear Modulus (GPa) = 26.98015 32.45528 29.71772
#
# Velocity S-wave (km/s) = 3.64140 3.99382 3.82168
# Velocity P-wave (km/s) = 5.68334 6.44186 6.07445
#
# Compressibility (1/GPa) = 0.03361458
#
# Stress axis : x y z
#
# Youngs Moduli (GPa) = 93.42429 93.42545 33.37640
#
# Poissons Ratio (x) = 0.27602 0.09885
# Poissons Ratio (y) = 0.27601 0.09883
# Poissons Ratio (z) = 0.27670 0.27663
#
# Static dielectric constant tensor:
#      x y z
#    x 1.729860 0.000000 0.000000 
#    y 0.000000 1.729860 0.000000 
#    z 0.000000 0.000000 1.720440 
# 
# From -- ./inp_files/4497.got.cif
#   From: 2010.05.17/outbox.cif.g08.bks.cpg/sg92_3_cif.got.tgz:4497.got - 2010.06.03 19:35:17.
