data_PCOD9549393
_publ_section_title
;
Structure prediction by ZEFSAII (Michael W. Deem and Ramdas Pophale) SiO2 
 PCOD9549393
Probable space group: P 41 21 2
;
_chemical_formula_sum "Si O2"
_cell_formula_units_Z 28
_cell_length_a 7.515493
_cell_length_b 7.515493
_cell_length_c 19.460796
_cell_angle_alpha 90.000000
_cell_angle_beta 90.000000
_cell_angle_gamma 90.000000
_cell_volume 1099.197038
_symmetry_space_group_name_H-M "P 41 21 2"
_symmetry_group_IT_number 92
_symmetry_cell_setting 'tetragonal'
loop_
_space_group_symop_operation_xyz
x,y,z
1/2-y,1/2+x,1/4+z
-x,-y,1/2+z
1/2+y,1/2-x,3/4+z
1/2+x,1/2-y,3/4-z
1/2-x,1/2+y,1/4-z
y,x,-z
-y,-x,1/2-z
loop_
_atom_site_type_symbol
_atom_site_label
_atom_site_fract_x
_atom_site_fract_y
_atom_site_fract_z
Si Si1 0.642118 0.523982 0.357278
Si Si2 0.518122 0.167520 0.369726
Si Si3 0.398914 0.132129 0.768215
Si Si4 0.178627 0.821373 0.250000
O O1 0.510663 0.364144 0.337471
O O2 0.656652 0.688043 0.306044
O O3 0.590189 0.606143 0.430888
O O4 0.832222 0.428602 0.365246
O O5 0.602394 0.191141 0.445147
O O6 0.624948 0.035545 0.319394
O O7 0.610859 0.145666 0.754771
#
# Coordination Sequence:
#
# PCOD9549393 Si02
#       4
#     8   8   8   4
#     4  11  27  47  80 113 157 207 261 334 395 477
#     4  11  28  47  78 117 156 208 270 324 402 472
#     4  11  25  50  76 115 159 212 261 333 391 473
#     4  10  24  46  76 108 154 206 250 324 400 460
#
# _framework density 25.473137999999999
#
# number of rings (size 3 to 8) (size 9 to 14) (size 15 to 20)
#    0.000    1.143    2.857    0.000   12.000    3.429 
#    0.000    0.000    0.000    0.000    0.000    0.000 
#    0.000    0.000    0.000    0.000    0.000    0.000 
#
# Total GULP energy -157163.051509 kJ/mol
# GULP energy per Si atom -5612.966125 kJ/mol
# Density = 2.541516 g / cm^3
# Si number density = 25.473138 Si / 1000 Ang^3
#
#
#
# Elastic Constant Matrix: (Units=GPa)
#
#
# Indices 1 2 3 4 5 6 
#
# 1 89.9809 2.3107 17.5456 0.0000 0.0000 0.0000
# 2 2.3107 89.9800 17.5454 0.0000 0.0000 0.0000
# 3 17.5456 17.5454 142.7467 0.0000 0.0000 0.0000
# 4 0.0000 0.0000 0.0000 32.7942 0.0000 0.0000
# 5 0.0000 0.0000 0.0000 0.0000 32.7943 0.0000
# 6 0.0000 0.0000 0.0000 0.0000 0.0000 34.4889
#
#
#
# Elastic Compliance Matrix: (Units=1/GPa)
#
#
# Indices 1 2 3 4 5 6 
#
# 1 0.011386 -0.000020 -0.001397 0.000000 0.000000 0.000000
# 2 -0.000020 0.011387 -0.001397 0.000000 0.000000 0.000000
# 3 -0.001397 -0.001397 0.007349 0.000000 0.000000 0.000000
# 4 0.000000 0.000000 0.000000 0.030493 0.000000 0.000000
# 5 0.000000 0.000000 0.000000 0.000000 0.030493 0.000000
# 6 0.000000 0.000000 0.000000 0.000000 0.000000 0.028995
#
#
# Mechanical properties :
#
#
# Convention : Reuss Voigt Hill
#
# Bulk Modulus (GPa) = 40.82724 44.16788 42.49756
# Shear Modulus (GPa) = 37.34250 39.03589 38.18919
#
# Velocity S-wave (km/s) = 3.83293 3.91888 3.87614
# Velocity P-wave (km/s) = 5.97084 6.15252 6.06236
#
# Compressibility (1/GPa) = 0.02449345
#
# Stress axis : x y z
#
# Youngs Moduli (GPa) = 87.82401 87.82321 136.07559
#
# Poissons Ratio (x) = 0.00175 0.19011
# Poissons Ratio (y) = 0.00175 0.19011
# Poissons Ratio (z) = 0.12270 0.12270
#
# Static dielectric constant tensor:
#      x y z
#    x 2.043870 0.000000 0.000000 
#    y 0.000000 2.043870 0.000000 
#    z 0.000000 0.000000 1.988180 
# 
# From -- ./inp_files/3315.got.cif
#   From: 2010.05.17/outbox.cif.g08.bks.cpg/sg92_2_cif.got.tgz:3315.got - 2010.06.03 19:35:17.
