data_PCOD9549818
_publ_section_title
;
Structure prediction by ZEFSAII (Michael W. Deem and Ramdas Pophale) SiO2 
 PCOD9549818
Probable space group: P 42 2 2
;
_chemical_formula_sum "Si O2"
_cell_formula_units_Z 18
_cell_length_a 5.399966
_cell_length_b 5.399966
_cell_length_c 25.671019
_cell_angle_alpha 90.000000
_cell_angle_beta 90.000000
_cell_angle_gamma 90.000000
_cell_volume 748.557488
_symmetry_space_group_name_H-M "P 42 2 2"
_symmetry_group_IT_number 93
_symmetry_cell_setting 'tetragonal'
loop_
_space_group_symop_operation_xyz
x,y,z
-y,x,1/2+z
-x,-y,z
y,-x,1/2+z
x,-y,-z
-x,y,-z
y,x,1/2-z
-y,-x,1/2-z
loop_
_atom_site_type_symbol
_atom_site_label
_atom_site_fract_x
_atom_site_fract_y
_atom_site_fract_z
Si Si1 0.153181 0.758751 0.419517
Si Si2 0.500000 0.500000 0.000000
Si Si3 0.752547 0.340657 0.307235
O O1 0.354154 0.683800 0.461751
O O2 0.252564 0.812503 0.360906
O O3 0.000000 0.500000 0.417248
O O4 0.000000 0.000000 0.435124
O O5 0.500000 0.500000 0.307353
O O6 0.777242 0.222759 0.250000
O O7 0.000000 0.500000 0.310897
#
# Coordination Sequence:
#
# PCOD9549818 Si02
#       3
#     8   2   8
#     4  11  27  48  77 112 151 205 266 323 400 477
#     4  12  26  54  78 108 160 218 262 352 386 486
#     4  10  23  47  78 117 157 202 257 326 401 479
#
# _framework density 24.046249
#
# number of rings (size 3 to 8) (size 9 to 14) (size 15 to 20)
#    0.000    1.333    2.222    0.667    0.000   22.222 
#    0.000    0.000    0.000    0.000    0.000    0.000 
#    0.000    0.000    0.000    0.000    0.000    0.000 
#
# Total GULP energy -100612.655169 kJ/mol
# GULP energy per Si atom -5589.591954 kJ/mol
# Density = 2.399152 g / cm^3
# Si number density = 24.046249 Si / 1000 Ang^3
#
#
#
# Elastic Constant Matrix: (Units=GPa)
#
#
# Indices 1 2 3 4 5 6 
#
# 1 141.8489 63.2158 71.8648 0.0000 0.0000 0.0000
# 2 63.2158 141.8490 71.8649 0.0000 0.0000 0.0000
# 3 71.8648 71.8649 275.9512 0.0000 0.0000 0.0000
# 4 0.0000 0.0000 0.0000 39.9453 0.0000 0.0000
# 5 0.0000 0.0000 0.0000 0.0000 39.9441 0.0000
# 6 0.0000 0.0000 0.0000 0.0000 0.0000 50.2085
#
#
#
# Elastic Compliance Matrix: (Units=1/GPa)
#
#
# Indices 1 2 3 4 5 6 
#
# 1 0.009341 -0.003376 -0.001554 0.000000 0.000000 0.000000
# 2 -0.003376 0.009341 -0.001554 0.000000 0.000000 0.000000
# 3 -0.001554 -0.001554 0.004433 0.000000 0.000000 0.000000
# 4 0.000000 0.000000 0.000000 0.025034 0.000000 0.000000
# 5 0.000000 0.000000 0.000000 0.000000 0.025035 0.000000
# 6 0.000000 0.000000 0.000000 0.000000 0.000000 0.019917
#
#
# Mechanical properties :
#
#
# Convention : Reuss Voigt Hill
#
# Bulk Modulus (GPa) = 98.52605 108.17112 103.34859
# Shear Modulus (GPa) = 45.68250 49.53315 47.60782
#
# Velocity S-wave (km/s) = 4.36337 4.54355 4.45437
# Velocity P-wave (km/s) = 8.15156 8.52100 8.33832
#
# Compressibility (1/GPa) = 0.01014960
#
# Stress axis : x y z
#
# Youngs Moduli (GPa) = 107.05106 107.05117 225.58120
#
# Poissons Ratio (x) = 0.36140 0.35045
# Poissons Ratio (y) = 0.36140 0.35045
# Poissons Ratio (z) = 0.16631 0.16631
#
# Static dielectric constant tensor:
#      x y z
#    x 1.979760 0.000000 0.000000 
#    y 0.000000 1.979770 0.000000 
#    z 0.000000 0.000000 2.032190 
# 
# From -- ./inp_files/6399.got.cif
#   From: 2010.05.17/outbox.cif.g08.bks.cpg/sg93_4_cif.got.tgz:6399.got - 2010.06.03 19:38:44.
