data_PCOD9549125
_publ_section_title
;
Structure prediction by ZEFSAII (Michael W. Deem and Ramdas Pophale) SiO2 
 PCOD9549125
Probable space group: P 41 21 2
;
_chemical_formula_sum "Si O2"
_cell_formula_units_Z 32
_cell_length_a 11.362551
_cell_length_b 11.362551
_cell_length_c 10.495881
_cell_angle_alpha 90.000000
_cell_angle_beta 90.000000
_cell_angle_gamma 90.000000
_cell_volume 1355.097641
_symmetry_space_group_name_H-M "P 41 21 2"
_symmetry_group_IT_number 92
_symmetry_cell_setting 'tetragonal'
loop_
_space_group_symop_operation_xyz
x,y,z
1/2-y,1/2+x,1/4+z
-x,-y,1/2+z
1/2+y,1/2-x,3/4+z
1/2+x,1/2-y,3/4-z
1/2-x,1/2+y,1/4-z
y,x,-z
-y,-x,1/2-z
loop_
_atom_site_type_symbol
_atom_site_label
_atom_site_fract_x
_atom_site_fract_y
_atom_site_fract_z
Si Si1 0.436687 0.838643 0.193608
Si Si2 0.333515 0.267325 0.751265
Si Si3 0.915740 0.677686 0.269161
Si Si4 0.504711 0.591368 0.618424
O O1 0.347470 0.802489 0.083954
O O2 0.565088 0.786592 0.161648
O O3 0.398467 0.790551 0.331802
O O4 0.420290 0.980578 0.217170
O O5 0.215691 0.336943 0.712096
O O6 0.396975 0.358867 0.844701
O O7 0.964287 0.783164 0.183698
O O8 0.500077 0.500077 0.500000
O O9 0.442570 0.557431 0.750000
#
# Coordination Sequence:
#
# PCOD9549125 Si02
#       4
#     8   8   8   8
#     4  10  21  38  73 102 139 206 254 307 382 468
#     4  11  23  44  74 110 143 204 264 312 378 484
#     4  11  21  43  67 104 146 190 261 305 380 464
#     4  12  25  44  72 111 150 200 258 327 383 466
#
# _framework density 23.614536000000001
#
# number of rings (size 3 to 8) (size 9 to 14) (size 15 to 20)
#    0.000    1.000    7.500    0.750    3.500    0.000 
#    9.000    1.250    0.000    0.000    0.000    0.000 
#    0.000    0.000    0.000    0.000    0.000    0.000 
#
# Total GULP energy -178197.678533 kJ/mol
# GULP energy per Si atom -5568.677454 kJ/mol
# Density = 2.356079 g / cm^3
# Si number density = 23.614536 Si / 1000 Ang^3
#
#
#
# Elastic Constant Matrix: (Units=GPa)
#
#
# Indices 1 2 3 4 5 6 
#
# 1 47.8926 34.1928 -10.4666 0.0000 0.0000 0.0000
# 2 34.1928 47.8939 -10.4685 0.0000 0.0000 0.0000
# 3 -10.4666 -10.4685 45.5363 0.0000 0.0000 0.0000
# 4 0.0000 0.0000 0.0000 26.5892 0.0000 0.0000
# 5 0.0000 0.0000 0.0000 0.0000 26.5887 0.0000
# 6 0.0000 0.0000 0.0000 0.0000 0.0000 33.7691
#
#
#
# Elastic Compliance Matrix: (Units=1/GPa)
#
#
# Indices 1 2 3 4 5 6 
#
# 1 0.042966 -0.030025 0.002973 0.000000 0.000000 0.000000
# 2 -0.030025 0.042965 0.002976 0.000000 0.000000 0.000000
# 3 0.002973 0.002976 0.023328 0.000000 0.000000 0.000000
# 4 0.000000 0.000000 0.000000 0.037609 0.000000 0.000000
# 5 0.000000 0.000000 0.000000 0.000000 0.037610 0.000000
# 6 0.000000 0.000000 0.000000 0.000000 0.000000 0.029613
#
#
# Mechanical properties :
#
#
# Convention : Reuss Voigt Hill
#
# Bulk Modulus (GPa) = 16.36412 18.64869 17.50641
# Shear Modulus (GPa) = 17.69215 25.92707 21.80961
#
# Velocity S-wave (km/s) = 2.74013 3.31710 3.04232
# Velocity P-wave (km/s) = 4.11775 4.75238 4.44640
#
# Compressibility (1/GPa) = 0.06110930
#
# Stress axis : x y z
#
# Youngs Moduli (GPa) = 23.27430 23.27457 42.86669
#
# Poissons Ratio (x) = 0.69881 -0.12746
# Poissons Ratio (y) = 0.69880 -0.12758
# Poissons Ratio (z) = -0.06920 -0.06927
#
# Static dielectric constant tensor:
#      x y z
#    x 1.995280 0.000000 0.000000 
#    y 0.000000 1.995280 0.000000 
#    z 0.000000 0.000000 1.906840 
# 
# From -- ./inp_files/1933.got.cif
#   From: 2010.05.17/outbox.cif.g08.bks.cpg/sg92_1_cif.got.tgz:1933.got - 2010.06.03 19:35:17.
