data_PCOD9549109
_publ_section_title
;
Structure prediction by ZEFSAII (Michael W. Deem and Ramdas Pophale) SiO2 
 PCOD9549109
Probable space group: P 41 21 2
;
_chemical_formula_sum "Si O2"
_cell_formula_units_Z 56
_cell_length_a 14.900081
_cell_length_b 14.900081
_cell_length_c 12.942808
_cell_angle_alpha 90.000000
_cell_angle_beta 90.000000
_cell_angle_gamma 90.000000
_cell_volume 2873.464046
_symmetry_space_group_name_H-M "P 41 21 2"
_symmetry_group_IT_number 92
_symmetry_cell_setting 'tetragonal'
loop_
_space_group_symop_operation_xyz
x,y,z
1/2-y,1/2+x,1/4+z
-x,-y,1/2+z
1/2+y,1/2-x,3/4+z
1/2+x,1/2-y,3/4-z
1/2-x,1/2+y,1/4-z
y,x,-z
-y,-x,1/2-z
loop_
_atom_site_type_symbol
_atom_site_label
_atom_site_fract_x
_atom_site_fract_y
_atom_site_fract_z
Si Si1 0.770279 0.115984 0.483362
Si Si2 0.259758 0.921562 0.557093
Si Si3 0.822592 0.425694 0.509593
Si Si4 0.744231 0.402562 0.280501
Si Si5 0.159826 0.432678 0.465724
Si Si6 0.110730 0.608230 0.359141
Si Si7 0.718324 0.423210 0.711353
O O1 0.834160 0.198904 0.460011
O O2 0.730740 0.084558 0.374318
O O3 0.689288 0.135879 0.563186
O O4 0.814266 0.025944 0.530003
O O5 0.351490 0.900854 0.494998
O O6 0.289379 0.940365 0.674822
O O7 0.205303 0.005115 0.512302
O O8 0.771860 0.416379 0.399830
O O9 0.864021 0.521553 0.545273
O O10 0.749851 0.402738 0.596198
O O11 0.681260 0.318741 0.250000
O O12 0.840148 0.393873 0.223686
O O13 0.102202 0.519133 0.430792
O O14 0.191448 0.589098 0.280057
O O15 0.644124 0.355877 0.750000
#
# Coordination Sequence:
#
# PCOD9549109 Si02
#       7
#     8   8   8   8   8   8   8
#     4  10  21  37  58  86 118 153 200 251 301 368
#     4  11  22  37  59  84 119 161 199 245 306 369
#     4  10  22  39  59  88 120 152 202 261 317 375
#     4  11  24  39  58  85 122 163 201 246 306 377
#     4  10  21  37  59  85 116 153 196 250 309 367
#     4  10  21  38  61  88 119 152 199 258 318 374
#     4  10  21  37  60  84 114 156 199 251 311 370
#
# _framework density 19.488672000000001
#
# number of rings (size 3 to 8) (size 9 to 14) (size 15 to 20)
#    0.000    1.714    0.000    4.714    0.000    8.571 
#    0.000    2.143    0.000    0.000    0.000    0.000 
#    0.000    0.000    0.000    0.000    0.000    0.000 
#
# Total GULP energy -312488.150174 kJ/mol
# GULP energy per Si atom -5580.145539 kJ/mol
# Density = 1.944432 g / cm^3
# Si number density = 19.488672 Si / 1000 Ang^3
#
#
#
# Elastic Constant Matrix: (Units=GPa)
#
#
# Indices 1 2 3 4 5 6 
#
# 1 81.2201 47.3682 39.6747 0.0000 0.0000 0.0000
# 2 47.3682 81.2171 39.6741 0.0000 0.0000 0.0000
# 3 39.6747 39.6741 87.8764 0.0000 0.0000 0.0000
# 4 0.0000 0.0000 0.0000 25.5519 0.0000 0.0000
# 5 0.0000 0.0000 0.0000 0.0000 25.5518 0.0000
# 6 0.0000 0.0000 0.0000 0.0000 0.0000 11.2091
#
#
#
# Elastic Compliance Matrix: (Units=1/GPa)
#
#
# Indices 1 2 3 4 5 6 
#
# 1 0.020161 -0.009381 -0.004867 0.000000 0.000000 0.000000
# 2 -0.009381 0.020161 -0.004867 0.000000 0.000000 0.000000
# 3 -0.004867 -0.004867 0.015774 0.000000 0.000000 0.000000
# 4 0.000000 0.000000 0.000000 0.039136 0.000000 0.000000
# 5 0.000000 0.000000 0.000000 0.000000 0.039136 0.000000
# 6 0.000000 0.000000 0.000000 0.000000 0.000000 0.089213
#
#
# Mechanical properties :
#
#
# Convention : Reuss Voigt Hill
#
# Bulk Modulus (GPa) = 55.97031 55.97195 55.97113
# Shear Modulus (GPa) = 18.67296 20.70235 19.68765
#
# Velocity S-wave (km/s) = 3.09875 3.26279 3.18183
# Velocity P-wave (km/s) = 6.44862 6.55569 6.50238
#
# Compressibility (1/GPa) = 0.01786661
#
# Stress axis : x y z
#
# Youngs Moduli (GPa) = 49.60175 49.59982 63.39397
#
# Poissons Ratio (x) = 0.46528 0.30854
# Poissons Ratio (y) = 0.46530 0.30855
# Poissons Ratio (z) = 0.24141 0.24141
#
# Static dielectric constant tensor:
#      x y z
#    x 1.716010 0.000000 0.000000 
#    y 0.000000 1.716010 0.000000 
#    z 0.000000 0.000000 1.691790 
# 
# From -- ./inp_files/2272.got.cif
#   From: 2010.05.17/outbox.cif.g08.bks.cpg/sg92_2_cif.got.tgz:2272.got - 2010.06.03 19:35:17.
