data_PCOD9549131
_publ_section_title
;
Structure prediction by ZEFSAII (Michael W. Deem and Ramdas Pophale) SiO2 
 PCOD9549131
Probable space group: P 41 21 2
;
_chemical_formula_sum "Si O2"
_cell_formula_units_Z 24
_cell_length_a 12.651881
_cell_length_b 12.651881
_cell_length_c 5.221524
_cell_angle_alpha 90.000000
_cell_angle_beta 90.000000
_cell_angle_gamma 90.000000
_cell_volume 835.809831
_symmetry_space_group_name_H-M "P 41 21 2"
_symmetry_group_IT_number 92
_symmetry_cell_setting 'tetragonal'
loop_
_space_group_symop_operation_xyz
x,y,z
1/2-y,1/2+x,1/4+z
-x,-y,1/2+z
1/2+y,1/2-x,3/4+z
1/2+x,1/2-y,3/4-z
1/2-x,1/2+y,1/4-z
y,x,-z
-y,-x,1/2-z
loop_
_atom_site_type_symbol
_atom_site_label
_atom_site_fract_x
_atom_site_fract_y
_atom_site_fract_z
Si Si1 0.154062 0.469943 0.519921
Si Si2 0.524911 0.643144 0.696504
Si Si3 0.830587 0.732913 0.253175
O O1 0.097331 0.581984 0.571449
O O2 0.283704 0.471949 0.541620
O O3 0.143646 0.390518 0.763179
O O4 0.620532 0.620532 0.500000
O O5 0.468026 0.531975 0.750000
O O6 0.439785 0.708317 0.535496
O O7 0.776747 0.776747 0.500000
O O8 0.761691 0.761691 0.000000
#
# Coordination Sequence:
#
# PCOD9549131 Si02
#       3
#     8   8   8
#     4  10  23  41  64 100 142 190 243 302 369 440
#     4  10  21  39  65 100 138 185 241 303 371 443
#     4  10  22  42  69 102 139 181 231 289 359 437
#
# _framework density 28.714663999999999
#
# number of rings (size 3 to 8) (size 9 to 14) (size 15 to 20)
#    0.000    2.000    0.000    2.000    0.000    9.333 
#    0.000   16.667    0.000    0.000    0.000    0.000 
#    0.000    0.000    0.000    0.000    0.000    0.000 
#
# Total GULP energy -133991.976521 kJ/mol
# GULP energy per Si atom -5582.999022 kJ/mol
# Density = 2.864931 g / cm^3
# Si number density = 28.714664 Si / 1000 Ang^3
#
#
#
# Elastic Constant Matrix: (Units=GPa)
#
#
# Indices 1 2 3 4 5 6 
#
# 1 160.3001 -4.4650 42.4670 0.0000 0.0000 0.0000
# 2 -4.4650 160.3051 42.4675 0.0000 0.0000 0.0000
# 3 42.4670 42.4675 161.6429 0.0000 0.0000 0.0000
# 4 0.0000 0.0000 0.0000 -2.5309 0.0000 0.0000
# 5 0.0000 0.0000 0.0000 0.0000 -2.5306 0.0000
# 6 0.0000 0.0000 0.0000 0.0000 0.0000 62.6660
#
#
#
# Elastic Compliance Matrix: (Units=1/GPa)
#
#
# Indices 1 2 3 4 5 6 
#
# 1 0.006779 0.000710 -0.001968 0.000000 0.000000 0.000000
# 2 0.000710 0.006779 -0.001968 0.000000 0.000000 0.000000
# 3 -0.001968 -0.001968 0.007220 0.000000 0.000000 0.000000
# 4 0.000000 0.000000 0.000000 -0.395123 0.000000 0.000000
# 5 0.000000 0.000000 0.000000 0.000000 -0.395160 0.000000
# 6 0.000000 0.000000 0.000000 0.000000 0.000000 0.015958
#
#
# Mechanical properties :
#
#
# Convention : Reuss Voigt Hill
#
# Bulk Modulus (GPa) = 69.79077 71.46522 70.62799
# Shear Modulus (GPa) = -6.73564 38.30615 15.78525
#
# Velocity S-wave (km/s) = -1.53323 3.65640 2.34717
# Velocity P-wave (km/s) = 4.60687 6.53970 5.65646
#
# Compressibility (1/GPa) = 0.01432854
#
# Stress axis : x y z
#
# Youngs Moduli (GPa) = 147.50683 147.51152 138.49747
#
# Poissons Ratio (x) = -0.10475 0.27251
# Poissons Ratio (y) = -0.10474 0.27251
# Poissons Ratio (z) = 0.29024 0.29024
#
# Static dielectric constant tensor:
#      x y z
#    x 2.335140 0.000000 0.000000 
#    y 0.000000 2.335130 0.000000 
#    z 0.000000 0.000000 2.330530 
# 
# From -- ./inp_files/207.got.cif
#   From: 2010.05.17/outbox.cif.g08.bks.cpg/sg92_1_cif.got.tgz:207.got - 2010.06.03 19:35:17.
