data_PCOD9549280
_publ_section_title
;
Structure prediction by ZEFSAII (Michael W. Deem and Ramdas Pophale) SiO2 
 PCOD9549280
Probable space group: P 41 21 2
;
_chemical_formula_sum "Si O2"
_cell_formula_units_Z 40
_cell_length_a 17.239649
_cell_length_b 17.239649
_cell_length_c 5.659351
_cell_angle_alpha 90.000000
_cell_angle_beta 90.000000
_cell_angle_gamma 90.000000
_cell_volume 1681.990230
_symmetry_space_group_name_H-M "P 41 21 2"
_symmetry_group_IT_number 92
_symmetry_cell_setting 'tetragonal'
loop_
_space_group_symop_operation_xyz
x,y,z
1/2-y,1/2+x,1/4+z
-x,-y,1/2+z
1/2+y,1/2-x,3/4+z
1/2+x,1/2-y,3/4-z
1/2-x,1/2+y,1/4-z
y,x,-z
-y,-x,1/2-z
loop_
_atom_site_type_symbol
_atom_site_label
_atom_site_fract_x
_atom_site_fract_y
_atom_site_fract_z
Si Si1 0.864271 0.569987 0.724972
Si Si2 0.082414 0.043402 0.749813
Si Si3 0.273810 0.439149 0.595935
Si Si4 0.163306 0.552285 0.857242
Si Si5 0.796770 0.692051 0.357384
O O1 0.877811 0.491994 0.575093
O O2 0.838976 0.636849 0.545202
O O3 0.787859 0.559667 0.884827
O O4 0.931124 0.602606 0.896513
O O5 0.088208 0.088208 0.500000
O O6 0.146665 0.976183 0.737061
O O7 0.087946 0.087946 0.000000
O O8 0.997376 0.002625 0.750000
O O9 0.232710 0.496460 0.782101
O O10 0.271945 0.355598 0.725011
O O11 0.201366 0.635011 0.918501
O O12 0.763894 0.763894 0.500000
#
# Coordination Sequence:
#
# PCOD9549280 Si02
#       5
#     8   8   8   8   8
#     4  10  22  43  70  95 135 179 228 285 346 423
#     4  10  24  43  67 105 144 184 236 287 349 422
#     4  10  23  41  69  95 137 184 228 287 347 419
#     4  10  22  44  68  98 139 174 233 281 353 416
#     4  10  23  41  71 101 133 179 232 287 349 420
#
# _framework density 23.781348999999999
#
# number of rings (size 3 to 8) (size 9 to 14) (size 15 to 20)
#    0.000    2.000    0.000    1.200    8.400    3.200 
#    7.200    0.000  158.400    0.000    0.000    0.000 
#    0.000    0.000    0.000    0.000    0.000    0.000 
#
# Total GULP energy -223569.210827 kJ/mol
# GULP energy per Si atom -5589.230271 kJ/mol
# Density = 2.372722 g / cm^3
# Si number density = 23.781349 Si / 1000 Ang^3
#
#
#
# Elastic Constant Matrix: (Units=GPa)
#
#
# Indices 1 2 3 4 5 6 
#
# 1 51.8618 30.4642 22.3379 0.0000 0.0000 0.0000
# 2 30.4642 51.8602 22.3378 0.0000 0.0000 0.0000
# 3 22.3379 22.3378 126.3171 0.0000 0.0000 0.0000
# 4 0.0000 0.0000 0.0000 33.9793 0.0000 0.0000
# 5 0.0000 0.0000 0.0000 0.0000 33.9796 0.0000
# 6 0.0000 0.0000 0.0000 0.0000 0.0000 35.9312
#
#
#
# Elastic Compliance Matrix: (Units=1/GPa)
#
#
# Indices 1 2 3 4 5 6 
#
# 1 0.030086 -0.016650 -0.002376 0.000000 0.000000 0.000000
# 2 -0.016650 0.030087 -0.002376 0.000000 0.000000 0.000000
# 3 -0.002376 -0.002376 0.008757 0.000000 0.000000 0.000000
# 4 0.000000 0.000000 0.000000 0.029430 0.000000 0.000000
# 5 0.000000 0.000000 0.000000 0.000000 0.029429 0.000000
# 6 0.000000 0.000000 0.000000 0.000000 0.000000 0.027831
#
#
# Mechanical properties :
#
#
# Convention : Reuss Voigt Hill
#
# Bulk Modulus (GPa) = 38.27695 42.25766 40.26730
# Shear Modulus (GPa) = 24.13921 31.10462 27.62191
#
# Velocity S-wave (km/s) = 3.18944 3.62047 3.41177
# Velocity P-wave (km/s) = 5.44919 5.94011 5.69994
#
# Compressibility (1/GPa) = 0.02612538
#
# Stress axis : x y z
#
# Youngs Moduli (GPa) = 33.23839 33.23728 114.19497
#
# Poissons Ratio (x) = 0.55339 0.27133
# Poissons Ratio (y) = 0.55341 0.27134
# Poissons Ratio (z) = 0.07897 0.07898
#
# Static dielectric constant tensor:
#      x y z
#    x 1.886360 0.000000 0.000000 
#    y 0.000000 1.886360 0.000000 
#    z 0.000000 0.000000 1.990320 
# 
# From -- ./inp_files/414.got.cif
#   From: 2010.05.17/outbox.cif.g08.bks.cpg/sg92_1_cif.got.tgz:414.got - 2010.06.03 19:35:17.
