data_PCOD9549458
_publ_section_title
;
Structure prediction by ZEFSAII (Michael W. Deem and Ramdas Pophale) SiO2 
 PCOD9549458
Probable space group: P 41 21 2
;
_chemical_formula_sum "Si O2"
_cell_formula_units_Z 40
_cell_length_a 7.993404
_cell_length_b 7.993404
_cell_length_c 26.288891
_cell_angle_alpha 90.000000
_cell_angle_beta 90.000000
_cell_angle_gamma 90.000000
_cell_volume 1679.715743
_symmetry_space_group_name_H-M "P 41 21 2"
_symmetry_group_IT_number 92
_symmetry_cell_setting 'tetragonal'
loop_
_space_group_symop_operation_xyz
x,y,z
1/2-y,1/2+x,1/4+z
-x,-y,1/2+z
1/2+y,1/2-x,3/4+z
1/2+x,1/2-y,3/4-z
1/2-x,1/2+y,1/4-z
y,x,-z
-y,-x,1/2-z
loop_
_atom_site_type_symbol
_atom_site_label
_atom_site_fract_x
_atom_site_fract_y
_atom_site_fract_z
Si Si1 0.419948 0.070935 0.591994
Si Si2 0.622893 0.360835 0.877689
Si Si3 0.116557 0.689809 0.213755
Si Si4 0.105379 0.058362 0.445782
Si Si5 0.483724 0.956389 0.441108
O O1 0.469774 0.883580 0.572435
O O2 0.255823 0.121589 0.562676
O O3 0.403883 0.050842 0.652705
O O4 0.556795 0.222853 0.591297
O O5 0.681055 0.267965 0.825853
O O6 0.490798 0.490533 0.853889
O O7 0.530348 0.219851 0.910549
O O8 0.146470 0.853531 0.250000
O O9 0.093307 0.552294 0.258373
O O10 0.987265 0.290076 0.548409
O O11 0.019257 0.019257 0.500000
#
# Coordination Sequence:
#
# PCOD9549458 Si02
#       5
#     8   8   8   8   8
#     4  11  24  45  72 105 146 189 243 305 369 445
#     4  11  25  44  71 102 143 195 243 300 376 444
#     4  11  22  43  72 101 139 190 245 299 362 444
#     4  12  25  45  71 107 147 190 238 310 377 442
#     4  11  23  45  71 104 146 187 246 296 367 453
#
# _framework density 23.813552999999999
#
# number of rings (size 3 to 8) (size 9 to 14) (size 15 to 20)
#    0.000    0.800    4.000    4.200    2.800    0.000 
#    0.000    1.000    0.000    0.000    0.000    0.000 
#    0.000    0.000    0.000    0.000    0.000    0.000 
#
# Total GULP energy -222728.921198 kJ/mol
# GULP energy per Si atom -5568.223030 kJ/mol
# Density = 2.375935 g / cm^3
# Si number density = 23.813553 Si / 1000 Ang^3
#
#
#
# Elastic Constant Matrix: (Units=GPa)
#
#
# Indices 1 2 3 4 5 6 
#
# 1 88.2717 40.2513 23.6434 0.0000 0.0000 0.0000
# 2 40.2513 88.2714 23.6435 0.0000 0.0000 0.0000
# 3 23.6434 23.6435 104.8366 0.0000 0.0000 0.0000
# 4 0.0000 0.0000 0.0000 23.7827 0.0000 0.0000
# 5 0.0000 0.0000 0.0000 0.0000 23.7828 0.0000
# 6 0.0000 0.0000 0.0000 0.0000 0.0000 27.9302
#
#
#
# Elastic Compliance Matrix: (Units=1/GPa)
#
#
# Indices 1 2 3 4 5 6 
#
# 1 0.014655 -0.006170 -0.001914 0.000000 0.000000 0.000000
# 2 -0.006170 0.014655 -0.001914 0.000000 0.000000 0.000000
# 3 -0.001914 -0.001914 0.010402 0.000000 0.000000 0.000000
# 4 0.000000 0.000000 0.000000 0.042047 0.000000 0.000000
# 5 0.000000 0.000000 0.000000 0.000000 0.042047 0.000000
# 6 0.000000 0.000000 0.000000 0.000000 0.000000 0.035804
#
#
# Mechanical properties :
#
#
# Convention : Reuss Voigt Hill
#
# Bulk Modulus (GPa) = 50.71734 50.71735 50.71735
# Shear Modulus (GPa) = 26.85637 28.02190 27.43913
#
# Velocity S-wave (km/s) = 3.36188 3.43406 3.39816
# Velocity P-wave (km/s) = 6.03437 6.08832 6.06140
#
# Compressibility (1/GPa) = 0.01971712
#
# Stress axis : x y z
#
# Youngs Moduli (GPa) = 68.23779 68.23748 96.13757
#
# Poissons Ratio (x) = 0.42102 0.18396
# Poissons Ratio (y) = 0.42102 0.18397
# Poissons Ratio (z) = 0.13057 0.13058
#
# Static dielectric constant tensor:
#      x y z
#    x 1.961560 0.000000 0.000000 
#    y 0.000000 1.961560 0.000000 
#    z 0.000000 0.000000 1.955960 
# 
# From -- ./inp_files/4338.got.cif
#   From: 2010.05.17/outbox.cif.g08.bks.cpg/sg92_3_cif.got.tgz:4338.got - 2010.06.03 19:35:17.
