data_PCOD9549712
_publ_section_title
;
Structure prediction by ZEFSAII (Michael W. Deem and Ramdas Pophale) SiO2 
 PCOD9549712
Probable space group: P 42 2 2
;
_chemical_formula_sum "Si O2"
_cell_formula_units_Z 58
_cell_length_a 18.274028
_cell_length_b 18.274028
_cell_length_c 7.801698
_cell_angle_alpha 90.000000
_cell_angle_beta 90.000000
_cell_angle_gamma 90.000000
_cell_volume 2605.299805
_symmetry_space_group_name_H-M "P 42 2 2"
_symmetry_group_IT_number 93
_symmetry_cell_setting 'tetragonal'
loop_
_space_group_symop_operation_xyz
x,y,z
-y,x,1/2+z
-x,-y,z
y,-x,1/2+z
x,-y,-z
-x,y,-z
y,x,1/2-z
-y,-x,1/2-z
loop_
_atom_site_type_symbol
_atom_site_label
_atom_site_fract_x
_atom_site_fract_y
_atom_site_fract_z
Si Si1 0.725766 0.422721 0.908964
Si Si2 0.087808 0.246805 0.689031
Si Si3 0.340582 0.281434 0.041699
Si Si4 0.183106 0.211518 0.019903
Si Si5 0.877795 0.447577 0.776747
Si Si6 0.043580 0.846610 0.822609
Si Si7 0.395402 0.138175 0.895813
Si Si8 0.000000 0.500000 0.000000
O O1 0.714247 0.396740 0.705911
O O2 0.677632 0.363719 0.010093
O O3 0.813988 0.419326 0.901781
O O4 0.709038 0.500000 0.000000
O O5 0.130746 0.210309 0.531768
O O6 0.082683 0.333124 0.663649
O O7 0.015844 0.199747 0.718546
O O8 0.144436 0.241782 0.848639
O O9 0.256840 0.252745 0.073793
O O10 0.370261 0.223228 0.905064
O O11 0.114197 0.205088 0.144518
O O12 0.879379 0.406736 0.596670
O O13 0.864758 0.531350 0.714566
O O14 0.951459 0.448960 0.880766
O O15 0.078628 0.921373 0.750000
O O16 0.000000 0.862150 0.000000
#
# Coordination Sequence:
#
# PCOD9549712 Si02
#       8
#     8   8   8   8   8   8   8   2
#     4  10  20  37  63 101 135 174 232 278 341 422
#     4   9  19  39  61  91 122 172 235 290 348 422
#     4   9  20  38  67  96 133 187 223 290 340 404
#     4   9  19  37  61  89 130 170 236 279 348 427
#     4  10  22  41  64  96 139 178 227 284 353 440
#     4  10  22  41  62  91 131 175 233 307 364 430
#     4   9  20  42  67  95 131 180 236 281 348 427
#     4  12  24  42  60  88 140 186 210 292 354 410
#
# _framework density 22.262312999999999
#
# number of rings (size 3 to 8) (size 9 to 14) (size 15 to 20)
#    0.000    2.483    0.690    0.000    3.862    1.655 
#    6.207   13.103    0.000    3.310    0.000   36.690 
#    0.000    0.000    0.000    0.000    0.000    0.000 
#
# Total GULP energy -323339.866056 kJ/mol
# GULP energy per Si atom -5574.825277 kJ/mol
# Density = 2.221164 g / cm^3
# Si number density = 22.262313 Si / 1000 Ang^3
#
#
#
# Elastic Constant Matrix: (Units=GPa)
#
#
# Indices 1 2 3 4 5 6 
#
# 1 114.3693 41.0928 30.0571 0.0000 0.0000 0.0000
# 2 41.0928 114.3686 30.0572 0.0000 0.0000 0.0000
# 3 30.0571 30.0572 77.5761 0.0000 0.0000 0.0000
# 4 0.0000 0.0000 0.0000 16.6750 0.0000 0.0000
# 5 0.0000 0.0000 0.0000 0.0000 16.6753 0.0000
# 6 0.0000 0.0000 0.0000 0.0000 0.0000 27.3471
#
#
#
# Elastic Compliance Matrix: (Units=1/GPa)
#
#
# Indices 1 2 3 4 5 6 
#
# 1 0.010606 -0.003040 -0.002931 0.000000 0.000000 0.000000
# 2 -0.003040 0.010607 -0.002932 0.000000 0.000000 0.000000
# 3 -0.002931 -0.002932 0.015162 0.000000 0.000000 0.000000
# 4 0.000000 0.000000 0.000000 0.059970 0.000000 0.000000
# 5 0.000000 0.000000 0.000000 0.000000 0.059969 0.000000
# 6 0.000000 0.000000 0.000000 0.000000 0.000000 0.036567
#
#
# Mechanical properties :
#
#
# Convention : Reuss Voigt Hill
#
# Bulk Modulus (GPa) = 53.85525 56.52536 55.19030
# Shear Modulus (GPa) = 23.05450 25.81328 24.43389
#
# Velocity S-wave (km/s) = 3.22154 3.40885 3.31652
# Velocity P-wave (km/s) = 6.17102 6.39839 6.28573
#
# Compressibility (1/GPa) = 0.01856829
#
# Stress axis : x y z
#
# Youngs Moduli (GPa) = 94.28220 94.28146 65.95347
#
# Poissons Ratio (x) = 0.28666 0.19334
# Poissons Ratio (y) = 0.28666 0.19334
# Poissons Ratio (z) = 0.27638 0.27639
#
# Static dielectric constant tensor:
#      x y z
#    x 1.846950 0.000000 0.000000 
#    y 0.000000 1.846950 0.000000 
#    z 0.000000 0.000000 1.997790 
# 
# From -- ./inp_files/2162.got.cif
#   From: 2010.05.17/outbox.cif.g08.bks.cpg/sg93_2_cif.got.tgz:2162.got - 2010.06.03 19:38:44.
