data_PCOD9549570
_publ_section_title
;
Structure prediction by ZEFSAII (Michael W. Deem and Ramdas Pophale) SiO2 
 PCOD9549570
Probable space group: P 41 21 2
;
_chemical_formula_sum "Si O2"
_cell_formula_units_Z 40
_cell_length_a 13.810630
_cell_length_b 13.810630
_cell_length_c 8.980653
_cell_angle_alpha 90.000000
_cell_angle_beta 90.000000
_cell_angle_gamma 90.000000
_cell_volume 1712.911388
_symmetry_space_group_name_H-M "P 41 21 2"
_symmetry_group_IT_number 92
_symmetry_cell_setting 'tetragonal'
loop_
_space_group_symop_operation_xyz
x,y,z
1/2-y,1/2+x,1/4+z
-x,-y,1/2+z
1/2+y,1/2-x,3/4+z
1/2+x,1/2-y,3/4-z
1/2-x,1/2+y,1/4-z
y,x,-z
-y,-x,1/2-z
loop_
_atom_site_type_symbol
_atom_site_label
_atom_site_fract_x
_atom_site_fract_y
_atom_site_fract_z
Si Si1 0.978151 0.234832 0.505379
Si Si2 0.614449 0.271329 0.519326
Si Si3 0.185621 0.612444 0.985765
Si Si4 0.588868 0.411133 0.750000
Si Si5 0.928952 0.071049 0.750000
Si Si6 0.450526 0.095445 0.795300
O O1 0.038228 0.199949 0.360849
O O2 0.053861 0.304497 0.585274
O O3 0.888768 0.301089 0.464533
O O4 0.941538 0.160978 0.634757
O O5 0.711222 0.335612 0.509888
O O6 0.572447 0.305851 0.677786
O O7 0.639308 0.157138 0.523215
O O8 0.151709 0.531912 0.106483
O O9 0.570842 0.482780 0.614246
O O10 0.498670 0.071047 0.639063
#
# Coordination Sequence:
#
# PCOD9549570 Si02
#       6
#     8   8   8   4   4   8
#     4  12  29  52  82 118 165 210 277 337 414 489
#     4  12  29  50  80 123 156 214 271 341 407 499
#     4  12  27  50  80 115 159 213 266 339 404 497
#     4  12  26  51  82 114 163 206 262 332 408 489
#     4  12  28  51  82 116 159 216 264 334 416 491
#     4  12  27  48  79 115 161 210 273 342 415 493
#
# _framework density 23.352056000000001
#
# number of rings (size 3 to 8) (size 9 to 14) (size 15 to 20)
#    0.000    0.000    4.000    4.200    5.600    0.000 
#    3.600    0.000    0.000    0.000    0.000    0.000 
#    0.000    0.000    0.000    0.000    0.000    0.000 
#
# Total GULP energy -223694.088846 kJ/mol
# GULP energy per Si atom -5592.352221 kJ/mol
# Density = 2.329891 g / cm^3
# Si number density = 23.352056 Si / 1000 Ang^3
#
#
#
# Elastic Constant Matrix: (Units=GPa)
#
#
# Indices 1 2 3 4 5 6 
#
# 1 44.4559 139.6900 37.6928 0.0000 0.0000 0.0000
# 2 139.6900 44.4529 37.6979 0.0000 0.0000 0.0000
# 3 37.6928 37.6979 93.6667 0.0000 0.0000 0.0000
# 4 0.0000 0.0000 0.0000 -0.7910 0.0000 0.0000
# 5 0.0000 0.0000 0.0000 0.0000 -0.7923 0.0000
# 6 0.0000 0.0000 0.0000 0.0000 0.0000 26.9142
#
#
#
# Elastic Compliance Matrix: (Units=1/GPa)
#
#
# Indices 1 2 3 4 5 6 
#
# 1 -0.001999 0.008501 -0.002617 0.000000 0.000000 0.000000
# 2 0.008501 -0.001999 -0.002616 0.000000 0.000000 0.000000
# 3 -0.002617 -0.002616 0.012782 0.000000 0.000000 0.000000
# 4 0.000000 0.000000 0.000000 -1.264148 0.000000 0.000000
# 5 0.000000 0.000000 0.000000 0.000000 -1.262189 0.000000
# 6 0.000000 0.000000 0.000000 0.000000 0.000000 0.037155
#
#
# Mechanical properties :
#
#
# Convention : Reuss Voigt Hill
#
# Bulk Modulus (GPa) = 65.27664 68.08186 66.67925
# Shear Modulus (GPa) = -2.01464 2.89917 0.44226
#
# Velocity S-wave (km/s) = -0.92984 1.11544 0.43566
# Velocity P-wave (km/s) = 5.18277 5.55669 5.37298
#
# Compressibility (1/GPa) = 0.01531942
#
# Stress axis : x y z
#
# Youngs Moduli (GPa) = -500.24917 -500.12716 78.23386
#
# Poissons Ratio (x) = 4.25159 0.20474
# Poissons Ratio (y) = 4.25263 0.20468
# Poissons Ratio (z) = -1.30914 -1.30843
#
# Static dielectric constant tensor:
#      x y z
#    x 2.047650 0.000000 0.000000 
#    y 0.000000 2.047670 0.000000 
#    z 0.000000 0.000000 1.912630 
# 
# From -- ./inp_files/1398.got.cif
#   From: 2010.05.17/outbox.cif.g08.bks.cpg/sg92_1_cif.got.tgz:1398.got - 2010.06.03 19:35:17.
