data_PCOD9549699
_publ_section_title
;
Structure prediction by ZEFSAII (Michael W. Deem and Ramdas Pophale) SiO2 
 PCOD9549699
Probable space group: P 42 2 2
;
_chemical_formula_sum "Si O2"
_cell_formula_units_Z 36
_cell_length_a 8.603550
_cell_length_b 8.603550
_cell_length_c 25.715414
_cell_angle_alpha 90.000000
_cell_angle_beta 90.000000
_cell_angle_gamma 90.000000
_cell_volume 1903.482527
_symmetry_space_group_name_H-M "P 42 2 2"
_symmetry_group_IT_number 93
_symmetry_cell_setting 'tetragonal'
loop_
_space_group_symop_operation_xyz
x,y,z
-y,x,1/2+z
-x,-y,z
y,-x,1/2+z
x,-y,-z
-x,y,-z
y,x,1/2-z
-y,-x,1/2-z
loop_
_atom_site_type_symbol
_atom_site_label
_atom_site_fract_x
_atom_site_fract_y
_atom_site_fract_z
Si Si1 0.000000 0.000000 0.250000
Si Si2 0.181480 0.467851 0.559619
Si Si3 0.164869 0.332015 0.909598
Si Si4 0.678601 0.949575 0.310989
Si Si5 0.361572 0.396386 0.143937
Si Si6 0.000000 0.500000 0.000000
O O1 0.832266 0.998948 0.279479
O O2 0.237650 0.500000 0.500000
O O3 0.201931 0.290226 0.577823
O O4 0.276870 0.568655 0.601846
O O5 0.000000 0.500000 0.560857
O O6 0.261026 0.476896 0.887009
O O7 0.032163 0.299497 0.867391
O O8 0.096886 0.389163 0.963259
O O9 0.679034 0.762812 0.317473
O O10 0.500000 0.000000 0.293739
O O11 0.500000 0.500000 0.168489
#
# Coordination Sequence:
#
# PCOD9549699 Si02
#       6
#     2   8   8   8   8   2
#     4  12  28  48  78  92 132 184 220 306 364 388
#     4  10  21  33  51  90 131 171 216 251 310 387
#     4  10  20  35  63  88 128 167 214 266 323 407
#     4  10  23  48  64 101 128 165 233 280 346 420
#     4   9  18  38  62  87 124 165 209 271 321 395
#     4  12  16  32  66  94 124 180 204 264 336 400
#
# _framework density 18.912703
#
# number of rings (size 3 to 8) (size 9 to 14) (size 15 to 20)
#    0.000    2.000    3.333    1.333    3.111    3.111 
#   12.000    0.000    0.000    0.000    0.000    0.000 
#    0.000    0.000    0.000    0.000    0.000    0.000 
#
# Total GULP energy -200486.045913 kJ/mol
# GULP energy per Si atom -5569.056831 kJ/mol
# Density = 1.886966 g / cm^3
# Si number density = 18.912703 Si / 1000 Ang^3
#
#
#
# Elastic Constant Matrix: (Units=GPa)
#
#
# Indices 1 2 3 4 5 6 
#
# 1 118.0840 48.8833 49.1792 0.0000 0.0000 0.0000
# 2 48.8833 118.0840 49.1792 0.0000 0.0000 0.0000
# 3 49.1792 49.1792 64.4044 0.0000 0.0000 0.0000
# 4 0.0000 0.0000 0.0000 112.8010 0.0000 0.0000
# 5 0.0000 0.0000 0.0000 0.0000 112.8010 0.0000
# 6 0.0000 0.0000 0.0000 0.0000 0.0000 66.4506
#
#
#
# Elastic Compliance Matrix: (Units=1/GPa)
#
#
# Indices 1 2 3 4 5 6 
#
# 1 0.012668 -0.001782 -0.008313 0.000000 0.000000 0.000000
# 2 -0.001782 0.012668 -0.008313 0.000000 0.000000 0.000000
# 3 -0.008313 -0.008313 0.028222 0.000000 0.000000 0.000000
# 4 0.000000 0.000000 0.000000 0.008865 0.000000 0.000000
# 5 0.000000 0.000000 0.000000 0.000000 0.008865 0.000000
# 6 0.000000 0.000000 0.000000 0.000000 0.000000 0.015049
#
#
# Mechanical properties :
#
#
# Convention : Reuss Voigt Hill
#
# Bulk Modulus (GPa) = 59.72424 66.11729 62.92077
# Shear Modulus (GPa) = 38.83986 68.63258 53.73622
#
# Velocity S-wave (km/s) = 4.53663 6.03058 5.33615
# Velocity P-wave (km/s) = 7.68692 9.13924 8.44436
#
# Compressibility (1/GPa) = 0.01674362
#
# Stress axis : x y z
#
# Youngs Moduli (GPa) = 78.93675 78.93675 35.43362
#
# Poissons Ratio (x) = 0.14069 0.29454
# Poissons Ratio (y) = 0.14069 0.29454
# Poissons Ratio (z) = 0.65617 0.65617
#
# Static dielectric constant tensor:
#      x y z
#    x 1.667210 0.000000 0.000000 
#    y 0.000000 1.667210 0.000000 
#    z 0.000000 0.000000 1.633300 
# 
# From -- ./inp_files/7232.got.cif
#   From: 2010.05.17/outbox.cif.g08.bks.cpg/sg93_4_cif.got.tgz:7232.got - 2010.06.03 19:38:44.
