data_PCOD9549270
_publ_section_title
;
Structure prediction by ZEFSAII (Michael W. Deem and Ramdas Pophale) SiO2 
 PCOD9549270
Probable space group: P 41 21 2
;
_chemical_formula_sum "Si O2"
_cell_formula_units_Z 40
_cell_length_a 8.996124
_cell_length_b 8.996124
_cell_length_c 18.007756
_cell_angle_alpha 90.000000
_cell_angle_beta 90.000000
_cell_angle_gamma 90.000000
_cell_volume 1457.372141
_symmetry_space_group_name_H-M "P 41 21 2"
_symmetry_group_IT_number 92
_symmetry_cell_setting 'tetragonal'
loop_
_space_group_symop_operation_xyz
x,y,z
1/2-y,1/2+x,1/4+z
-x,-y,1/2+z
1/2+y,1/2-x,3/4+z
1/2+x,1/2-y,3/4-z
1/2-x,1/2+y,1/4-z
y,x,-z
-y,-x,1/2-z
loop_
_atom_site_type_symbol
_atom_site_label
_atom_site_fract_x
_atom_site_fract_y
_atom_site_fract_z
Si Si1 0.545107 0.812480 0.633645
Si Si2 0.548049 0.675354 0.156014
Si Si3 0.890300 0.355994 0.228411
Si Si4 0.025330 0.776075 0.420896
Si Si5 0.574724 0.373991 0.446217
O O1 0.493294 0.856359 0.716898
O O2 0.661946 0.675385 0.634691
O O3 0.615764 0.956902 0.595782
O O4 0.415457 0.737263 0.583199
O O5 0.640433 0.533848 0.125507
O O6 0.383810 0.607608 0.143071
O O7 0.550189 0.697410 0.242742
O O8 0.595133 0.819099 0.109157
O O9 0.754057 0.245944 0.250000
O O10 0.039561 0.272525 0.257280
O O11 0.503845 0.503845 0.500000
#
# Coordination Sequence:
#
# PCOD9549270 Si02
#       5
#     8   8   8   8   8
#     4  11  23  42  78 113 161 211 266 333 410 496
#     4   8  18  42  73 109 155 203 265 332 394 497
#     4   9  20  43  77 110 150 203 270 336 396 473
#     4  10  22  42  78 114 162 214 266 335 414 499
#     4   8  18  39  70 109 150 200 260 332 396 476
#
# _framework density 27.446663000000001
#
# number of rings (size 3 to 8) (size 9 to 14) (size 15 to 20)
#    0.000    3.200    0.000    0.000    8.400    0.000 
#    0.000   24.000    4.400    0.000    0.000    0.000 
#    0.000    0.000    0.000    0.000    0.000    0.000 
#
# Total GULP energy -223581.199888 kJ/mol
# GULP energy per Si atom -5589.529997 kJ/mol
# Density = 2.738419 g / cm^3
# Si number density = 27.446663 Si / 1000 Ang^3
#
#
#
# Elastic Constant Matrix: (Units=GPa)
#
#
# Indices 1 2 3 4 5 6 
#
# 1 76.3877 78.6584 43.1751 0.0000 0.0000 0.0000
# 2 78.6584 76.3873 43.1751 0.0000 0.0000 0.0000
# 3 43.1751 43.1751 162.2875 0.0000 0.0000 0.0000
# 4 0.0000 0.0000 0.0000 30.6635 0.0000 0.0000
# 5 0.0000 0.0000 0.0000 0.0000 30.6635 0.0000
# 6 0.0000 0.0000 0.0000 0.0000 0.0000 29.7483
#
#
#
# Elastic Compliance Matrix: (Units=1/GPa)
#
#
# Indices 1 2 3 4 5 6 
#
# 1 -0.216394 0.223967 -0.002015 0.000000 0.000000 0.000000
# 2 0.223967 -0.216396 -0.002014 0.000000 0.000000 0.000000
# 3 -0.002015 -0.002014 0.007234 0.000000 0.000000 0.000000
# 4 0.000000 0.000000 0.000000 0.032612 0.000000 0.000000
# 5 0.000000 0.000000 0.000000 0.000000 0.032612 0.000000
# 6 0.000000 0.000000 0.000000 0.000000 0.000000 0.033615
#
#
# Mechanical properties :
#
#
# Convention : Reuss Voigt Hill
#
# Bulk Modulus (GPa) = 69.83511 71.67551 70.75531
# Shear Modulus (GPa) = -6.56323 28.21865 10.82771
#
# Velocity S-wave (km/s) = -1.54805 3.20992 1.98836
# Velocity P-wave (km/s) = 4.72270 6.31738 5.57733
#
# Compressibility (1/GPa) = 0.01431944
#
# Stress axis : x y z
#
# Youngs Moduli (GPa) = -4.62119 -4.62116 138.24187
#
# Poissons Ratio (x) = 1.03499 0.27851
# Poissons Ratio (y) = 1.03499 0.27842
# Poissons Ratio (z) = -0.00931 -0.00931
#
# Static dielectric constant tensor:
#      x y z
#    x 2.219090 0.000000 0.000000 
#    y 0.000000 2.219090 0.000000 
#    z 0.000000 0.000000 2.127730 
# 
# From -- ./inp_files/3807.got.cif
#   From: 2010.05.17/outbox.cif.g08.bks.cpg/sg92_2_cif.got.tgz:3807.got - 2010.06.03 19:35:17.
