data_PCOD9549625
_publ_section_title
;
Structure prediction by ZEFSAII (Michael W. Deem and Ramdas Pophale) SiO2 
 PCOD9549625
Probable space group: P 42 2 2
;
_chemical_formula_sum "Si O2"
_cell_formula_units_Z 40
_cell_length_a 12.415474
_cell_length_b 12.415474
_cell_length_c 13.249662
_cell_angle_alpha 90.000000
_cell_angle_beta 90.000000
_cell_angle_gamma 90.000000
_cell_volume 2042.355828
_symmetry_space_group_name_H-M "P 42 2 2"
_symmetry_group_IT_number 93
_symmetry_cell_setting 'tetragonal'
loop_
_space_group_symop_operation_xyz
x,y,z
-y,x,1/2+z
-x,-y,z
y,-x,1/2+z
x,-y,-z
-x,y,-z
y,x,1/2-z
-y,-x,1/2-z
loop_
_atom_site_type_symbol
_atom_site_label
_atom_site_fract_x
_atom_site_fract_y
_atom_site_fract_z
Si Si1 0.683457 0.218045 0.347940
Si Si2 0.711377 0.379739 0.535624
Si Si3 0.772629 0.550987 0.110906
Si Si4 0.368871 0.987367 0.674490
Si Si5 0.953720 0.622171 0.398058
O O1 0.752394 0.247607 0.250000
O O2 0.712923 0.298062 0.439481
O O3 0.555651 0.233051 0.320669
O O4 0.686162 0.090771 0.375945
O O5 0.690352 0.500000 0.500000
O O6 0.615760 0.337323 0.605522
O O7 0.825756 0.379361 0.591048
O O8 0.866330 0.637059 0.133709
O O9 0.794141 0.500000 0.000000
O O10 0.332216 0.988308 0.790752
O O11 0.500000 0.000000 0.668523
O O12 0.000000 0.500000 0.396792
O O13 0.000000 0.674224 0.500000
#
# Coordination Sequence:
#
# PCOD9549625 Si02
#       5
#     8   8   8   8   8
#     4  10  21  36  56  83 118 160 198 242 302 363
#     4  11  22  35  55  85 122 156 196 237 314 367
#     4   9  21  37  55  81 120 160 199 242 294 369
#     4   9  19  35  58  80 107 157 215 249 285 341
#     4  10  18  33  57  80 109 143 200 263 285 341
#
# _framework density 19.585225999999999
#
# number of rings (size 3 to 8) (size 9 to 14) (size 15 to 20)
#    0.000    2.200    2.000    1.200    5.600   13.600 
#    0.000    1.000    0.000    0.000    0.000   14.000 
#    0.000    0.000    0.000    0.000    0.000    0.000 
#
# Total GULP energy -222886.060809 kJ/mol
# GULP energy per Si atom -5572.151520 kJ/mol
# Density = 1.954065 g / cm^3
# Si number density = 19.585226 Si / 1000 Ang^3
#
#
#
# Elastic Constant Matrix: (Units=GPa)
#
#
# Indices 1 2 3 4 5 6 
#
# 1 65.9900 30.7157 6.4507 0.0000 0.0000 0.0000
# 2 30.7157 65.9905 6.4512 0.0000 0.0000 0.0000
# 3 6.4507 6.4512 31.9706 0.0000 0.0000 0.0000
# 4 0.0000 0.0000 0.0000 13.9042 0.0000 0.0000
# 5 0.0000 0.0000 0.0000 0.0000 13.9040 0.0000
# 6 0.0000 0.0000 0.0000 0.0000 0.0000 5.6440
#
#
#
# Elastic Compliance Matrix: (Units=1/GPa)
#
#
# Indices 1 2 3 4 5 6 
#
# 1 0.019488 -0.008861 -0.002144 0.000000 0.000000 0.000000
# 2 -0.008861 0.019488 -0.002144 0.000000 0.000000 0.000000
# 3 -0.002144 -0.002144 0.032144 0.000000 0.000000 0.000000
# 4 0.000000 0.000000 0.000000 0.071921 0.000000 0.000000
# 5 0.000000 0.000000 0.000000 0.000000 0.071922 0.000000
# 6 0.000000 0.000000 0.000000 0.000000 0.000000 0.177181
#
#
# Mechanical properties :
#
#
# Convention : Reuss Voigt Hill
#
# Bulk Modulus (GPa) = 22.31118 27.90958 25.11038
# Shear Modulus (GPa) = 11.53715 14.71266 13.12490
#
# Velocity S-wave (km/s) = 2.42972 2.74380 2.59152
# Velocity P-wave (km/s) = 4.39180 4.93145 4.66943
#
# Compressibility (1/GPa) = 0.04482057
#
# Stress axis : x y z
#
# Youngs Moduli (GPa) = 51.31380 51.31410 31.10995
#
# Poissons Ratio (x) = 0.45470 0.06670
# Poissons Ratio (y) = 0.45470 0.06671
# Poissons Ratio (z) = 0.11002 0.11004
#
# Static dielectric constant tensor:
#      x y z
#    x 1.722380 0.000000 0.000000 
#    y 0.000000 1.722380 0.000000 
#    z 0.000000 0.000000 1.756800 
# 
# From -- ./inp_files/4377.got.cif
#   From: 2010.05.17/outbox.cif.g08.bks.cpg/sg93_3_cif.got.tgz:4377.got - 2010.06.03 19:38:44.
