data_PCOD9549759
_publ_section_title
;
Structure prediction by ZEFSAII (Michael W. Deem and Ramdas Pophale) SiO2 
 PCOD9549759
Probable space group: P 42 2 2
;
_chemical_formula_sum "Si O2"
_cell_formula_units_Z 34
_cell_length_a 11.795818
_cell_length_b 11.795818
_cell_length_c 14.200192
_cell_angle_alpha 90.000000
_cell_angle_beta 90.000000
_cell_angle_gamma 90.000000
_cell_volume 1975.833492
_symmetry_space_group_name_H-M "P 42 2 2"
_symmetry_group_IT_number 93
_symmetry_cell_setting 'tetragonal'
loop_
_space_group_symop_operation_xyz
x,y,z
-y,x,1/2+z
-x,-y,z
y,-x,1/2+z
x,-y,-z
-x,y,-z
y,x,1/2-z
-y,-x,1/2-z
loop_
_atom_site_type_symbol
_atom_site_label
_atom_site_fract_x
_atom_site_fract_y
_atom_site_fract_z
Si Si1 0.231776 0.620023 0.179371
Si Si2 0.500000 0.330411 0.500000
Si Si3 0.105831 0.421767 0.641881
Si Si4 0.000000 0.000000 0.500000
Si Si5 0.870714 0.160040 0.356680
Si Si6 0.500000 0.299859 0.000000
O O1 0.332179 0.667822 0.250000
O O2 0.267446 0.541236 0.093848
O O3 0.143463 0.562299 0.249978
O O4 0.178500 0.735252 0.137237
O O5 0.610834 0.403334 0.529669
O O6 0.080215 0.287670 0.632324
O O7 0.215109 0.453810 0.579406
O O8 0.000000 0.500000 0.616905
O O9 0.076950 0.078238 0.566722
O O10 0.885984 0.114017 0.250000
#
# Coordination Sequence:
#
# PCOD9549759 Si02
#       6
#     8   4   8   2   8   4
#     4   9  19  42  56  81 126 156 186 249 302 348
#     4  11  20  36  61  90 126 155 202 231 304 382
#     4  10  21  39  61  85 120 157 196 252 303 349
#     4  12  22  36  70  84 108 168 206 254 282 362
#     4   9  21  41  58  85 121 154 196 247 305 344
#     4  11  21  32  60  94 115 161 196 236 298 371
#
# _framework density 17.207929
#
# number of rings (size 3 to 8) (size 9 to 14) (size 15 to 20)
#    0.000    2.588    4.706    0.706    3.294    0.941 
#    8.471    0.000   10.353    0.000    0.000    0.000 
#    0.000    0.000    0.000    0.000    0.000    0.000 
#
# Total GULP energy -189311.600579 kJ/mol
# GULP energy per Si atom -5567.988252 kJ/mol
# Density = 1.716876 g / cm^3
# Si number density = 17.207929 Si / 1000 Ang^3
#
#
#
# Elastic Constant Matrix: (Units=GPa)
#
#
# Indices 1 2 3 4 5 6 
#
# 1 97.2203 59.7080 80.2929 0.0000 0.0000 0.0000
# 2 59.7080 97.2212 80.2929 0.0000 0.0000 0.0000
# 3 80.2929 80.2929 142.2598 0.0000 0.0000 0.0000
# 4 0.0000 0.0000 0.0000 22.4851 0.0000 0.0000
# 5 0.0000 0.0000 0.0000 0.0000 22.4844 0.0000
# 6 0.0000 0.0000 0.0000 0.0000 0.0000 13.7804
#
#
#
# Elastic Compliance Matrix: (Units=1/GPa)
#
#
# Indices 1 2 3 4 5 6 
#
# 1 0.020871 -0.005786 -0.008514 0.000000 0.000000 0.000000
# 2 -0.005786 0.020871 -0.008514 0.000000 0.000000 0.000000
# 3 -0.008514 -0.008514 0.016640 0.000000 0.000000 0.000000
# 4 0.000000 0.000000 0.000000 0.044474 0.000000 0.000000
# 5 0.000000 0.000000 0.000000 0.000000 0.044475 0.000000
# 6 0.000000 0.000000 0.000000 0.000000 0.000000 0.072567
#
#
# Mechanical properties :
#
#
# Convention : Reuss Voigt Hill
#
# Bulk Modulus (GPa) = 78.40876 86.36543 82.38710
# Shear Modulus (GPa) = 18.53374 19.51049 19.02211
#
# Velocity S-wave (km/s) = 3.28540 3.37086 3.32840
# Velocity P-wave (km/s) = 7.74959 8.09003 7.92164
#
# Compressibility (1/GPa) = 0.01275368
#
# Stress axis : x y z
#
# Youngs Moduli (GPa) = 47.91268 47.91351 60.09569
#
# Poissons Ratio (x) = 0.27725 0.51166
# Poissons Ratio (y) = 0.27724 0.51165
# Poissons Ratio (z) = 0.40793 0.40793
#
# Static dielectric constant tensor:
#      x y z
#    x 1.591350 0.000000 0.000000 
#    y 0.000000 1.591350 0.000000 
#    z 0.000000 0.000000 1.595980 
# 
# From -- ./inp_files/4291.got.cif
#   From: 2010.05.17/outbox.cif.g08.bks.cpg/sg93_3_cif.got.tgz:4291.got - 2010.06.03 19:38:44.
