data_PCOD9549629
_publ_section_title
;
Structure prediction by ZEFSAII (Michael W. Deem and Ramdas Pophale) SiO2 
 PCOD9549629
Probable space group: P 42 2 2
;
_chemical_formula_sum "Si O2"
_cell_formula_units_Z 48
_cell_length_a 10.914112
_cell_length_b 10.914112
_cell_length_c 21.307340
_cell_angle_alpha 90.000000
_cell_angle_beta 90.000000
_cell_angle_gamma 90.000000
_cell_volume 2538.084333
_symmetry_space_group_name_H-M "P 42 2 2"
_symmetry_group_IT_number 93
_symmetry_cell_setting 'tetragonal'
loop_
_space_group_symop_operation_xyz
x,y,z
-y,x,1/2+z
-x,-y,z
y,-x,1/2+z
x,-y,-z
-x,y,-z
y,x,1/2-z
-y,-x,1/2-z
loop_
_atom_site_type_symbol
_atom_site_label
_atom_site_fract_x
_atom_site_fract_y
_atom_site_fract_z
Si Si1 0.325984 0.195343 0.190465
Si Si2 0.641511 0.555079 0.687674
Si Si3 0.357062 0.009002 0.621411
Si Si4 0.201879 0.005845 0.747428
Si Si5 0.721753 0.632686 0.927458
Si Si6 0.340425 0.246392 0.433711
O O1 0.258152 0.258152 0.250000
O O2 0.460760 0.248906 0.198865
O O3 0.292656 0.051908 0.199420
O O4 0.287737 0.254747 0.123730
O O5 0.500000 0.500000 0.682311
O O6 0.636088 0.636088 0.750000
O O7 0.671378 0.625785 0.624436
O O8 0.333905 0.141332 0.592846
O O9 0.500000 0.000000 0.640718
O O10 0.272803 0.991850 0.681936
O O11 0.337365 0.901093 0.571072
O O12 0.087134 0.912867 0.750000
O O13 0.140602 0.140602 0.750000
O O14 0.717792 0.483485 0.925106
O O15 0.703025 0.685508 0.997043
#
# Coordination Sequence:
#
# PCOD9549629 Si02
#       6
#     8   8   8   8   8   8
#     4  11  18  34  59  79 115 159 200 246 307 366
#     4  11  20  32  53  82 123 167 199 239 303 390
#     4  10  20  35  57  84 119 154 194 255 317 368
#     4  10  21  38  61  85 111 150 206 259 311 368
#     4  10  21  32  51  85 122 157 199 240 302 375
#     4  10  18  34  53  81 120 161 193 247 301 359
#
# _framework density 18.911901
#
# number of rings (size 3 to 8) (size 9 to 14) (size 15 to 20)
#    0.000    1.667    6.667    0.500    2.333    3.333 
#    0.000    0.000    0.000    1.000    0.000    0.000 
#    0.000    0.000    0.000    0.000    0.000    0.000 
#
# Total GULP energy -267253.047471 kJ/mol
# GULP energy per Si atom -5567.771822 kJ/mol
# Density = 1.886886 g / cm^3
# Si number density = 18.911901 Si / 1000 Ang^3
#
#
#
# Elastic Constant Matrix: (Units=GPa)
#
#
# Indices 1 2 3 4 5 6 
#
# 1 32.0528 58.1502 39.6292 0.0000 0.0000 0.0000
# 2 58.1502 32.0533 39.6292 0.0000 0.0000 0.0000
# 3 39.6292 39.6292 155.0587 0.0000 0.0000 0.0000
# 4 0.0000 0.0000 0.0000 18.4919 0.0000 0.0000
# 5 0.0000 0.0000 0.0000 0.0000 18.4925 0.0000
# 6 0.0000 0.0000 0.0000 0.0000 0.0000 28.9794
#
#
#
# Elastic Compliance Matrix: (Units=1/GPa)
#
#
# Indices 1 2 3 4 5 6 
#
# 1 -0.012011 0.026307 -0.003654 0.000000 0.000000 0.000000
# 2 0.026307 -0.012011 -0.003654 0.000000 0.000000 0.000000
# 3 -0.003654 -0.003654 0.008317 0.000000 0.000000 0.000000
# 4 0.000000 0.000000 0.000000 0.054078 0.000000 0.000000
# 5 0.000000 0.000000 0.000000 0.000000 0.054076 0.000000
# 6 0.000000 0.000000 0.000000 0.000000 0.000000 0.034507
#
#
# Mechanical properties :
#
#
# Convention : Reuss Voigt Hill
#
# Bulk Modulus (GPa) = 44.85396 54.88691 49.87043
# Shear Modulus (GPa) = 51.87364 18.64317 35.25841
#
# Velocity S-wave (km/s) = 5.24296 3.14314 4.32250
# Velocity P-wave (km/s) = 7.77305 6.50060 7.16513
#
# Compressibility (1/GPa) = 0.02229458
#
# Stress axis : x y z
#
# Youngs Moduli (GPa) = -83.25688 -83.25896 120.23789
#
# Poissons Ratio (x) = 2.19033 0.43933
# Poissons Ratio (y) = 2.19028 0.43934
# Poissons Ratio (z) = -0.30421 -0.30422
#
# Static dielectric constant tensor:
#      x y z
#    x 1.709520 0.000000 0.000000 
#    y 0.000000 1.709520 0.000000 
#    z 0.000000 0.000000 1.658760 
# 
# From -- ./inp_files/6210.got.cif
#   From: 2010.05.17/outbox.cif.g08.bks.cpg/sg93_4_cif.got.tgz:6210.got - 2010.06.03 19:38:44.
