data_PCOD9549866
_publ_section_title
;
Structure prediction by ZEFSAII (Michael W. Deem and Ramdas Pophale) SiO2 
 PCOD9549866
Probable space group: P 42 2 2
;
_chemical_formula_sum "Si O2"
_cell_formula_units_Z 56
_cell_length_a 14.551849
_cell_length_b 14.551849
_cell_length_c 11.667774
_cell_angle_alpha 90.000000
_cell_angle_beta 90.000000
_cell_angle_gamma 90.000000
_cell_volume 2470.724760
_symmetry_space_group_name_H-M "P 42 2 2"
_symmetry_group_IT_number 93
_symmetry_cell_setting 'tetragonal'
loop_
_space_group_symop_operation_xyz
x,y,z
-y,x,1/2+z
-x,-y,z
y,-x,1/2+z
x,-y,-z
-x,y,-z
y,x,1/2-z
-y,-x,1/2-z
loop_
_atom_site_type_symbol
_atom_site_label
_atom_site_fract_x
_atom_site_fract_y
_atom_site_fract_z
Si Si1 0.632674 0.686123 0.876742
Si Si2 0.755625 0.439008 0.683930
Si Si3 0.393039 0.898520 0.468125
Si Si4 0.938343 0.264842 0.204270
Si Si5 0.132104 0.730085 0.690065
Si Si6 0.707287 0.385899 0.922027
Si Si7 0.836758 0.787665 0.566575
O O1 0.654020 0.654020 0.750000
O O2 0.534231 0.735526 0.878219
O O3 0.708826 0.759980 0.914591
O O4 0.650827 0.599513 0.960826
O O5 0.849327 0.379891 0.677768
O O6 0.730926 0.452524 0.817506
O O7 0.687098 0.362510 0.632852
O O8 0.500000 0.897697 0.500000
O O9 0.364762 0.897835 0.334238
O O10 0.356844 0.810032 0.536292
O O11 0.357111 0.000000 0.500000
O O12 0.887406 0.203040 0.106619
O O13 0.905132 0.236013 0.329963
O O14 0.046839 0.259053 0.223340
O O15 0.217153 0.782848 0.750000
O O16 0.124873 0.774347 0.562122
#
# Coordination Sequence:
#
# PCOD9549866 Si02
#       7
#     8   8   8   8   8   8   8
#     4  12  23  42  72  96 141 200 245 305 369 440
#     4  11  24  41  69 101 138 193 246 299 369 440
#     4  11  24  40  68 106 142 182 234 306 375 440
#     4  11  24  44  71 108 144 189 242 302 377 460
#     4  12  24  45  75 106 146 192 236 310 382 458
#     4  11  22  43  65 101 142 184 243 300 366 442
#     4  11  23  45  70 106 147 190 246 300 375 451
#
# _framework density 22.665416
#
# number of rings (size 3 to 8) (size 9 to 14) (size 15 to 20)
#    0.000    0.714    5.714    1.714    6.000    0.000 
#    0.000    2.857    3.143    5.143    0.000    0.000 
#    0.000    0.000    0.000    0.000    0.000    0.000 
#
# Total GULP energy -311922.815446 kJ/mol
# GULP energy per Si atom -5570.050276 kJ/mol
# Density = 2.261383 g / cm^3
# Si number density = 22.665416 Si / 1000 Ang^3
#
#
#
# Elastic Constant Matrix: (Units=GPa)
#
#
# Indices 1 2 3 4 5 6 
#
# 1 110.7648 60.0644 37.4704 0.0000 0.0000 0.0000
# 2 60.0644 110.7676 37.4704 0.0000 0.0000 0.0000
# 3 37.4704 37.4704 165.2190 0.0000 0.0000 0.0000
# 4 0.0000 0.0000 0.0000 31.6664 0.0000 0.0000
# 5 0.0000 0.0000 0.0000 0.0000 31.6664 0.0000
# 6 0.0000 0.0000 0.0000 0.0000 0.0000 8.6927
#
#
#
# Elastic Compliance Matrix: (Units=1/GPa)
#
#
# Indices 1 2 3 4 5 6 
#
# 1 0.013112 -0.006611 -0.001474 0.000000 0.000000 0.000000
# 2 -0.006611 0.013112 -0.001474 0.000000 0.000000 0.000000
# 3 -0.001474 -0.001474 0.006721 0.000000 0.000000 0.000000
# 4 0.000000 0.000000 0.000000 0.031579 0.000000 0.000000
# 5 0.000000 0.000000 0.000000 0.000000 0.031579 0.000000
# 6 0.000000 0.000000 0.000000 0.000000 0.000000 0.115039
#
#
# Mechanical properties :
#
#
# Convention : Reuss Voigt Hill
#
# Bulk Modulus (GPa) = 72.33163 72.97352 72.65258
# Shear Modulus (GPa) = 21.28834 31.18818 26.23826
#
# Velocity S-wave (km/s) = 3.06803 3.71351 3.40609
# Velocity P-wave (km/s) = 6.67327 7.11707 6.89874
#
# Compressibility (1/GPa) = 0.01382521
#
# Stress axis : x y z
#
# Youngs Moduli (GPa) = 76.26595 76.26804 148.78130
#
# Poissons Ratio (x) = 0.50423 0.21935
# Poissons Ratio (y) = 0.50422 0.21934
# Poissons Ratio (z) = 0.11244 0.11244
#
# Static dielectric constant tensor:
#      x y z
#    x 1.925600 0.000000 0.000000 
#    y 0.000000 1.925600 0.000000 
#    z 0.000000 0.000000 1.949500 
# 
# From -- ./inp_files/3508.got.cif
#   From: 2010.05.17/outbox.cif.g08.bks.cpg/sg93_2_cif.got.tgz:3508.got - 2010.06.03 19:38:44.
