data_PCOD9549211
_publ_section_title
;
Structure prediction by ZEFSAII (Michael W. Deem and Ramdas Pophale) SiO2 
 PCOD9549211
Probable space group: P 41 21 2
;
_chemical_formula_sum "Si O2"
_cell_formula_units_Z 28
_cell_length_a 15.679070
_cell_length_b 15.679070
_cell_length_c 5.307644
_cell_angle_alpha 90.000000
_cell_angle_beta 90.000000
_cell_angle_gamma 90.000000
_cell_volume 1304.795300
_symmetry_space_group_name_H-M "P 41 21 2"
_symmetry_group_IT_number 92
_symmetry_cell_setting 'tetragonal'
loop_
_space_group_symop_operation_xyz
x,y,z
1/2-y,1/2+x,1/4+z
-x,-y,1/2+z
1/2+y,1/2-x,3/4+z
1/2+x,1/2-y,3/4-z
1/2-x,1/2+y,1/4-z
y,x,-z
-y,-x,1/2-z
loop_
_atom_site_type_symbol
_atom_site_label
_atom_site_fract_x
_atom_site_fract_y
_atom_site_fract_z
Si Si1 0.328573 0.182011 0.504849
Si Si2 0.102784 0.751568 0.254763
Si Si3 0.309635 0.546463 0.718350
Si Si4 0.541278 0.541278 0.000000
O O1 0.255764 0.255764 0.500000
O O2 0.374105 0.190672 0.234101
O O3 0.278497 0.095335 0.574498
O O4 0.390193 0.202817 0.734576
O O5 0.172877 0.827123 0.250000
O O6 0.011031 0.792966 0.211330
O O7 0.378867 0.621134 0.750000
O O8 0.359022 0.480660 0.534411
O O9 0.493736 0.506264 0.250000
#
# Coordination Sequence:
#
# PCOD9549211 Si02
#       4
#     8   8   8   4
#     4   9  21  40  57  85 125 172 204 244 305 387
#     4  10  22  38  60  88 126 166 208 249 311 377
#     4  10  23  39  65  94 132 161 208 263 325 366
#     4  10  24  36  56  94 128 156 194 254 328 372
#
# _framework density 21.459306000000002
#
# number of rings (size 3 to 8) (size 9 to 14) (size 15 to 20)
#    0.000    2.286    0.000    0.000   14.000   10.286 
#    0.000    0.000    0.000    3.429    0.000    0.000 
#    0.000    0.000    0.000    0.000    0.000    0.000 
#
# Total GULP energy -156239.805825 kJ/mol
# GULP energy per Si atom -5579.993065 kJ/mol
# Density = 2.141046 g / cm^3
# Si number density = 21.459306 Si / 1000 Ang^3
#
#
#
# Elastic Constant Matrix: (Units=GPa)
#
#
# Indices 1 2 3 4 5 6 
#
# 1 42.2464 91.6153 50.6009 0.0000 0.0000 0.0000
# 2 91.6153 42.2478 50.6032 0.0000 0.0000 0.0000
# 3 50.6009 50.6032 148.6047 0.0000 0.0000 0.0000
# 4 0.0000 0.0000 0.0000 19.5430 0.0000 0.0000
# 5 0.0000 0.0000 0.0000 0.0000 19.5385 0.0000
# 6 0.0000 0.0000 0.0000 0.0000 0.0000 57.2416
#
#
#
# Elastic Compliance Matrix: (Units=1/GPa)
#
#
# Indices 1 2 3 4 5 6 
#
# 1 -0.005098 0.015158 -0.003426 0.000000 0.000000 0.000000
# 2 0.015158 -0.005098 -0.003426 0.000000 0.000000 0.000000
# 3 -0.003426 -0.003426 0.009062 0.000000 0.000000 0.000000
# 4 0.000000 0.000000 0.000000 0.051169 0.000000 0.000000
# 5 0.000000 0.000000 0.000000 0.000000 0.051181 0.000000
# 6 0.000000 0.000000 0.000000 0.000000 0.000000 0.017470
#
#
# Mechanical properties :
#
#
# Convention : Reuss Voigt Hill
#
# Bulk Modulus (GPa) = 64.59905 68.74866 66.67385
# Shear Modulus (GPa) = 46.62731 21.94990 34.28860
#
# Velocity S-wave (km/s) = 4.66641 3.20169 4.00164
# Velocity P-wave (km/s) = 7.69430 6.76565 7.24487
#
# Compressibility (1/GPa) = 0.01548010
#
# Stress axis : x y z
#
# Youngs Moduli (GPa) = -196.16256 -196.16111 110.34793
#
# Poissons Ratio (x) = 2.97343 0.37803
# Poissons Ratio (y) = 2.97345 0.37800
# Poissons Ratio (z) = -0.67202 -0.67195
#
# Static dielectric constant tensor:
#      x y z
#    x 1.894920 0.000000 0.000000 
#    y 0.000000 1.894860 0.000000 
#    z 0.000000 0.000000 1.830360 
# 
# From -- ./inp_files/297.got.cif
#   From: 2010.05.17/outbox.cif.g08.bks.cpg/sg92_1_cif.got.tgz:297.got - 2010.06.03 19:35:17.
