data_PCOD9549130
_publ_section_title
;
Structure prediction by ZEFSAII (Michael W. Deem and Ramdas Pophale) SiO2 
 PCOD9549130
Probable space group: P 41 21 2
;
_chemical_formula_sum "Si O2"
_cell_formula_units_Z 40
_cell_length_a 8.414732
_cell_length_b 8.414732
_cell_length_c 23.923186
_cell_angle_alpha 90.000000
_cell_angle_beta 90.000000
_cell_angle_gamma 90.000000
_cell_volume 1693.946127
_symmetry_space_group_name_H-M "P 41 21 2"
_symmetry_group_IT_number 92
_symmetry_cell_setting 'tetragonal'
loop_
_space_group_symop_operation_xyz
x,y,z
1/2-y,1/2+x,1/4+z
-x,-y,1/2+z
1/2+y,1/2-x,3/4+z
1/2+x,1/2-y,3/4-z
1/2-x,1/2+y,1/4-z
y,x,-z
-y,-x,1/2-z
loop_
_atom_site_type_symbol
_atom_site_label
_atom_site_fract_x
_atom_site_fract_y
_atom_site_fract_z
Si Si1 0.620346 0.620346 0.500000
Si Si2 0.138429 0.170582 0.319782
Si Si3 0.416407 0.530478 0.350623
Si Si4 0.087661 0.374794 0.583255
Si Si5 0.421154 0.578847 0.750000
Si Si6 0.187437 0.405098 0.111218
O O1 0.437235 0.660614 0.515330
O O2 0.724274 0.653354 0.554676
O O3 0.037866 0.330040 0.311802
O O4 0.288528 0.167407 0.362226
O O5 0.005539 0.069593 0.352918
O O6 0.431076 0.436964 0.292585
O O7 0.533887 0.682962 0.344794
O O8 0.245569 0.578316 0.374092
O O9 0.915985 0.437872 0.600685
O O10 0.080781 0.239950 0.536124
#
# Coordination Sequence:
#
# PCOD9549130 Si02
#       6
#     4   8   8   8   4   8
#     4  10  22  38  58  84 118 152 198 246 304 368
#     4  10  22  41  60  88 121 159 203 254 309 373
#     4  10  21  39  62  89 124 159 207 254 308 375
#     4  11  23  39  62  87 121 161 205 256 316 373
#     4  10  22  40  60  92 124 160 208 258 310 378
#     4  11  22  40  63  89 121 164 204 257 312 373
#
# _framework density 23.613499000000001
#
# number of rings (size 3 to 8) (size 9 to 14) (size 15 to 20)
#    0.000    1.600    0.000    6.000    0.000    4.800 
#    0.000   12.000    0.000    0.000    0.000    0.000 
#    0.000    0.000    0.000    0.000    0.000    0.000 
#
# Total GULP energy -223332.053126 kJ/mol
# GULP energy per Si atom -5583.301328 kJ/mol
# Density = 2.355975 g / cm^3
# Si number density = 23.613499 Si / 1000 Ang^3
#
#
#
# Elastic Constant Matrix: (Units=GPa)
#
#
# Indices 1 2 3 4 5 6 
#
# 1 78.1828 8.6268 2.0232 0.0000 0.0000 0.0000
# 2 8.6268 78.1828 2.0232 0.0000 0.0000 0.0000
# 3 2.0232 2.0232 51.8716 0.0000 0.0000 0.0000
# 4 0.0000 0.0000 0.0000 23.1428 0.0000 0.0000
# 5 0.0000 0.0000 0.0000 0.0000 23.1428 0.0000
# 6 0.0000 0.0000 0.0000 0.0000 0.0000 56.7543
#
#
#
# Elastic Compliance Matrix: (Units=1/GPa)
#
#
# Indices 1 2 3 4 5 6 
#
# 1 0.012959 -0.001418 -0.000450 0.000000 0.000000 0.000000
# 2 -0.001418 0.012959 -0.000450 0.000000 0.000000 0.000000
# 3 -0.000450 -0.000450 0.019313 0.000000 0.000000 0.000000
# 4 0.000000 0.000000 0.000000 0.043210 0.000000 0.000000
# 5 0.000000 0.000000 0.000000 0.000000 0.043210 0.000000
# 6 0.000000 0.000000 0.000000 0.000000 0.000000 0.017620
#
#
# Mechanical properties :
#
#
# Convention : Reuss Voigt Hill
#
# Bulk Modulus (GPa) = 24.63424 25.95371 25.29398
# Shear Modulus (GPa) = 29.86164 33.64558 31.75361
#
# Velocity S-wave (km/s) = 3.55998 3.77881 3.67102
# Velocity P-wave (km/s) = 5.23000 5.48216 5.35756
#
# Compressibility (1/GPa) = 0.04059391
#
# Stress axis : x y z
#
# Youngs Moduli (GPa) = 77.16836 77.16839 51.77728
#
# Poissons Ratio (x) = 0.10944 0.02331
# Poissons Ratio (y) = 0.10944 0.02331
# Poissons Ratio (z) = 0.03473 0.03474
#
# Static dielectric constant tensor:
#      x y z
#    x 1.974730 0.000000 0.000000 
#    y 0.000000 1.974730 0.000000 
#    z 0.000000 0.000000 1.887650 
# 
# From -- ./inp_files/3832.got.cif
#   From: 2010.05.17/outbox.cif.g08.bks.cpg/sg92_2_cif.got.tgz:3832.got - 2010.06.03 19:35:17.
