data_PCOD9549666
_publ_section_title
;
Structure prediction by ZEFSAII (Michael W. Deem and Ramdas Pophale) SiO2 
 PCOD9549666
Probable space group: P 42 2 2
;
_chemical_formula_sum "Si O2"
_cell_formula_units_Z 40
_cell_length_a 11.703482
_cell_length_b 11.703482
_cell_length_c 15.234127
_cell_angle_alpha 90.000000
_cell_angle_beta 90.000000
_cell_angle_gamma 90.000000
_cell_volume 2086.641088
_symmetry_space_group_name_H-M "P 42 2 2"
_symmetry_group_IT_number 93
_symmetry_cell_setting 'tetragonal'
loop_
_space_group_symop_operation_xyz
x,y,z
-y,x,1/2+z
-x,-y,z
y,-x,1/2+z
x,-y,-z
-x,y,-z
y,x,1/2-z
-y,-x,1/2-z
loop_
_atom_site_type_symbol
_atom_site_label
_atom_site_fract_x
_atom_site_fract_y
_atom_site_fract_z
Si Si1 0.630434 0.194457 0.506299
Si Si2 0.826494 0.363739 0.487422
Si Si3 0.008543 0.294280 0.126203
Si Si4 0.265495 0.896575 0.199799
Si Si5 0.933101 0.851920 0.413342
O O1 0.500000 0.222330 0.500000
O O2 0.700765 0.310551 0.498579
O O3 0.635829 0.118147 0.594405
O O4 0.681742 0.102031 0.435710
O O5 0.839065 0.500000 0.500000
O O6 0.864384 0.334729 0.387503
O O7 0.888996 0.276632 0.557060
O O8 0.060459 0.166876 0.111829
O O9 0.970527 0.323327 0.224064
O O10 0.211692 0.788309 0.250000
O O11 0.164234 0.976945 0.163752
O O12 0.000000 0.886791 0.500000
#
# Coordination Sequence:
#
# PCOD9549666 Si02
#       5
#     8   8   8   8   8
#     4  10  21  40  61  88 119 158 208 262 324 361
#     4  10  22  44  61  85 124 167 212 256 312 380
#     4  10  19  36  58  91 127 158 198 253 310 374
#     4  11  21  38  58  93 126 162 205 253 298 374
#     4   9  21  36  56  89 130 170 200 242 311 382
#
# _framework density 19.169564999999999
#
# number of rings (size 3 to 8) (size 9 to 14) (size 15 to 20)
#    0.000    2.000    2.000    1.800    2.800    5.600 
#   10.800    0.000    0.000    0.000    0.000    0.000 
#    0.000    0.000    0.000    0.000    0.000    0.000 
#
# Total GULP energy -222766.505553 kJ/mol
# GULP energy per Si atom -5569.162639 kJ/mol
# Density = 1.912593 g / cm^3
# Si number density = 19.169565 Si / 1000 Ang^3
#
#
#
# Elastic Constant Matrix: (Units=GPa)
#
#
# Indices 1 2 3 4 5 6 
#
# 1 117.6919 39.3463 25.4217 0.0000 0.0000 0.0000
# 2 39.3463 117.6931 25.4222 0.0000 0.0000 0.0000
# 3 25.4217 25.4222 102.7977 0.0000 0.0000 0.0000
# 4 0.0000 0.0000 0.0000 12.4646 0.0000 0.0000
# 5 0.0000 0.0000 0.0000 0.0000 12.4636 0.0000
# 6 0.0000 0.0000 0.0000 0.0000 0.0000 -2.8201
#
#
#
# Elastic Compliance Matrix: (Units=1/GPa)
#
#
# Indices 1 2 3 4 5 6 
#
# 1 0.009843 -0.002921 -0.001712 0.000000 0.000000 0.000000
# 2 -0.002921 0.009843 -0.001712 0.000000 0.000000 0.000000
# 3 -0.001712 -0.001712 0.010575 0.000000 0.000000 0.000000
# 4 0.000000 0.000000 0.000000 0.080227 0.000000 0.000000
# 5 0.000000 0.000000 0.000000 0.000000 0.080233 0.000000
# 6 0.000000 0.000000 0.000000 0.000000 0.000000 -0.354592
#
#
# Mechanical properties :
#
#
# Convention : Reuss Voigt Hill
#
# Bulk Modulus (GPa) = 56.91081 57.61810 57.26446
# Shear Modulus (GPa) = -34.40575 20.95446 -6.72565
#
# Velocity S-wave (km/s) = -4.24112 3.30981 -1.87513
# Velocity P-wave (km/s) = 2.40204 6.68796 5.02487
#
# Compressibility (1/GPa) = 0.01757135
#
# Stress axis : x y z
#
# Youngs Moduli (GPa) = 101.59486 101.59579 94.56692
#
# Poissons Ratio (x) = 0.29675 0.16188
# Poissons Ratio (y) = 0.29675 0.16188
# Poissons Ratio (z) = 0.17391 0.17392
#
# Static dielectric constant tensor:
#      x y z
#    x 1.712140 0.000000 0.000000 
#    y 0.000000 1.712140 0.000000 
#    z 0.000000 0.000000 2.400120 
# 
# From -- ./inp_files/4343.got.cif
#   From: 2010.05.17/outbox.cif.g08.bks.cpg/sg93_3_cif.got.tgz:4343.got - 2010.06.03 19:38:44.
