data_PCOD9549983
_publ_section_title
;
Structure prediction by ZEFSAII (Michael W. Deem and Ramdas Pophale) SiO2 
 PCOD9549983
Probable space group: P 42 21 2
;
_chemical_formula_sum "Si O2"
_cell_formula_units_Z 48
_cell_length_a 10.814971
_cell_length_b 10.814971
_cell_length_c 17.955526
_cell_angle_alpha 90.000000
_cell_angle_beta 90.000000
_cell_angle_gamma 90.000000
_cell_volume 2100.142920
_symmetry_space_group_name_H-M "P 42 21 2"
_symmetry_group_IT_number 94
_symmetry_cell_setting 'tetragonal'
loop_
_space_group_symop_operation_xyz
x,y,z
1/2-y,1/2+x,1/2+z
-x,-y,z
1/2+y,1/2-x,1/2+z
1/2+x,1/2-y,1/2-z
1/2-x,1/2+y,1/2-z
y,x,-z
-y,-x,-z
loop_
_atom_site_type_symbol
_atom_site_label
_atom_site_fract_x
_atom_site_fract_y
_atom_site_fract_z
Si Si1 0.014602 0.255078 0.785402
Si Si2 0.921612 0.247867 0.038378
Si Si3 0.378993 0.088835 0.060694
Si Si4 0.751913 0.648857 0.709294
Si Si5 0.776482 0.926152 0.545489
Si Si6 0.874062 0.949124 0.695173
O O1 0.054827 0.301697 0.866099
O O2 0.102221 0.325900 0.725591
O O3 0.071269 0.121483 0.766584
O O4 0.865451 0.245419 0.778278
O O5 0.902516 0.239875 0.125944
O O6 0.879677 0.120324 0.000000
O O7 0.826893 0.348175 0.000318
O O8 0.052510 0.298140 0.010848
O O9 0.436377 0.224867 0.054653
O O10 0.500000 0.000000 0.066442
O O11 0.717281 0.549335 0.772170
O O12 0.899228 0.899228 0.500000
O O13 0.802893 0.877983 0.629266
O O14 0.000000 0.000000 0.658609
#
# Coordination Sequence:
#
# PCOD9549983 Si02
#       6
#     8   8   8   8   8   8
#     4  11  22  40  69 101 141 186 237 297 372 446
#     4  10  19  37  68  98 135 182 236 303 372 443
#     4  10  21  38  66 100 133 183 242 297 362 447
#     4  11  23  42  69 106 140 188 244 306 376 452
#     4  10  20  39  65  92 138 183 238 301 373 436
#     4  10  23  41  63  98 141 184 233 295 379 449
#
# _framework density 22.855587
#
# number of rings (size 3 to 8) (size 9 to 14) (size 15 to 20)
#    0.000    1.667    3.333    2.000    2.333    0.333 
#    0.000   13.333    3.667    0.000    0.000    0.000 
#    0.000    0.000    0.000    0.000    0.000    0.000 
#
# Total GULP energy -267264.185861 kJ/mol
# GULP energy per Si atom -5568.003872 kJ/mol
# Density = 2.280357 g / cm^3
# Si number density = 22.855587 Si / 1000 Ang^3
#
#
#
# Elastic Constant Matrix: (Units=GPa)
#
#
# Indices 1 2 3 4 5 6 
#
# 1 59.0741 30.8265 45.8183 0.0000 0.0000 0.0000
# 2 30.8265 59.0743 45.8186 0.0000 0.0000 0.0000
# 3 45.8183 45.8186 143.8192 0.0000 0.0000 0.0000
# 4 0.0000 0.0000 0.0000 21.9793 0.0000 0.0000
# 5 0.0000 0.0000 0.0000 0.0000 21.9788 0.0000
# 6 0.0000 0.0000 0.0000 0.0000 0.0000 37.5625
#
#
#
# Elastic Compliance Matrix: (Units=1/GPa)
#
#
# Indices 1 2 3 4 5 6 
#
# 1 0.025937 -0.009464 -0.005248 0.000000 0.000000 0.000000
# 2 -0.009464 0.025937 -0.005248 0.000000 0.000000 0.000000
# 3 -0.005248 -0.005248 0.010297 0.000000 0.000000 0.000000
# 4 0.000000 0.000000 0.000000 0.045497 0.000000 0.000000
# 5 0.000000 0.000000 0.000000 0.000000 0.045498 0.000000
# 6 0.000000 0.000000 0.000000 0.000000 0.000000 0.026622
#
#
# Mechanical properties :
#
#
# Convention : Reuss Voigt Hill
#
# Bulk Modulus (GPa) = 44.94259 56.32160 50.63209
# Shear Modulus (GPa) = 22.01424 25.60441 23.80933
#
# Velocity S-wave (km/s) = 3.10690 3.35067 3.23108
# Velocity P-wave (km/s) = 5.70761 6.29803 6.01008
#
# Compressibility (1/GPa) = 0.02225061
#
# Stress axis : x y z
#
# Youngs Moduli (GPa) = 38.55519 38.55512 97.11587
#
# Poissons Ratio (x) = 0.36489 0.50965
# Poissons Ratio (y) = 0.36489 0.50966
# Poissons Ratio (z) = 0.20233 0.20234
#
# Static dielectric constant tensor:
#      x y z
#    x 2.049660 0.000000 0.000000 
#    y 0.000000 2.049660 0.000000 
#    z 0.000000 0.000000 1.801830 
# 
# From -- ./inp_files/4143.got.cif
#   From: 2010.05.17/outbox.cif.g08.bks.cpg/sg94_3_cif.got.tgz:4143.got - 2010.06.03 19:43:16.
