data_PCOD9549140
_publ_section_title
;
Structure prediction by ZEFSAII (Michael W. Deem and Ramdas Pophale) SiO2 
 PCOD9549140
Probable space group: P 41 21 2
;
_chemical_formula_sum "Si O2"
_cell_formula_units_Z 48
_cell_length_a 8.794785
_cell_length_b 8.794785
_cell_length_c 25.773167
_cell_angle_alpha 90.000000
_cell_angle_beta 90.000000
_cell_angle_gamma 90.000000
_cell_volume 1993.509189
_symmetry_space_group_name_H-M "P 41 21 2"
_symmetry_group_IT_number 92
_symmetry_cell_setting 'tetragonal'
loop_
_space_group_symop_operation_xyz
x,y,z
1/2-y,1/2+x,1/4+z
-x,-y,1/2+z
1/2+y,1/2-x,3/4+z
1/2+x,1/2-y,3/4-z
1/2-x,1/2+y,1/4-z
y,x,-z
-y,-x,1/2-z
loop_
_atom_site_type_symbol
_atom_site_label
_atom_site_fract_x
_atom_site_fract_y
_atom_site_fract_z
Si Si1 0.222040 0.331458 0.761585
Si Si2 0.561183 0.995479 0.587818
Si Si3 0.218691 0.948253 0.178595
Si Si4 0.797229 0.980372 0.887243
Si Si5 0.651902 0.188144 0.295430
Si Si6 0.466161 0.756595 0.235289
O O1 0.079302 0.228343 0.778022
O O2 0.288758 0.392959 0.816756
O O3 0.180065 0.488901 0.733574
O O4 0.352858 0.249767 0.727889
O O5 0.701765 0.993657 0.626641
O O6 0.452556 0.871598 0.614707
O O7 0.632989 0.946019 0.533922
O O8 0.470077 0.151666 0.577043
O O9 0.055490 0.888926 0.160355
O O10 0.342212 0.819609 0.195347
O O11 0.852003 0.827516 0.914466
O O12 0.773281 0.226720 0.250000
O O13 0.412494 0.587507 0.250000
#
# Coordination Sequence:
#
# PCOD9549140 Si02
#       6
#     8   8   8   8   8   8
#     4  10  22  38  64  96 130 174 221 264 338 397
#     4  11  23  41  65 100 127 175 224 278 332 398
#     4  11  23  41  66 100 132 167 229 281 319 402
#     4  10  21  40  64  95 134 172 226 277 322 404
#     4  10  22  43  65  90 137 180 213 273 354 404
#     4  12  22  40  69  97 130 175 223 275 327 393
#
# _framework density 24.078143000000001
#
# number of rings (size 3 to 8) (size 9 to 14) (size 15 to 20)
#    0.000    1.333    5.000    1.500    0.000    1.333 
#    3.000    0.000    0.000    1.000    0.000    0.000 
#    0.000    0.000    0.000    0.000    0.000    0.000 
#
# Total GULP energy -267857.251546 kJ/mol
# GULP energy per Si atom -5580.359407 kJ/mol
# Density = 2.402334 g / cm^3
# Si number density = 24.078143 Si / 1000 Ang^3
#
#
#
# Elastic Constant Matrix: (Units=GPa)
#
#
# Indices 1 2 3 4 5 6 
#
# 1 47.7679 7.2355 5.7547 0.0000 0.0000 0.0000
# 2 7.2355 47.7683 5.7544 0.0000 0.0000 0.0000
# 3 5.7547 5.7544 44.8811 0.0000 0.0000 0.0000
# 4 0.0000 0.0000 0.0000 35.5796 0.0000 0.0000
# 5 0.0000 0.0000 0.0000 0.0000 35.5794 0.0000
# 6 0.0000 0.0000 0.0000 0.0000 0.0000 31.8451
#
#
#
# Elastic Compliance Matrix: (Units=1/GPa)
#
#
# Indices 1 2 3 4 5 6 
#
# 1 0.021677 -0.002995 -0.002395 0.000000 0.000000 0.000000
# 2 -0.002995 0.021677 -0.002395 0.000000 0.000000 0.000000
# 3 -0.002395 -0.002395 0.022895 0.000000 0.000000 0.000000
# 4 0.000000 0.000000 0.000000 0.028106 0.000000 0.000000
# 5 0.000000 0.000000 0.000000 0.000000 0.028106 0.000000
# 6 0.000000 0.000000 0.000000 0.000000 0.000000 0.031402
#
#
# Mechanical properties :
#
#
# Convention : Reuss Voigt Hill
#
# Bulk Modulus (GPa) = 19.73257 19.76739 19.74998
# Shear Modulus (GPa) = 26.83463 28.71233 27.77348
#
# Velocity S-wave (km/s) = 3.34201 3.45695 3.39997
# Velocity P-wave (km/s) = 4.80677 4.91544 4.86141
#
# Compressibility (1/GPa) = 0.05067764
#
# Stress axis : x y z
#
# Youngs Moduli (GPa) = 46.13235 46.13280 43.67699
#
# Poissons Ratio (x) = 0.13816 0.10463
# Poissons Ratio (y) = 0.13816 0.10462
# Poissons Ratio (z) = 0.11051 0.11050
#
# Static dielectric constant tensor:
#      x y z
#    x 1.985570 0.000000 0.000000 
#    y 0.000000 1.985570 0.000000 
#    z 0.000000 0.000000 2.001430 
# 
# From -- ./inp_files/4476.got.cif
#   From: 2010.05.17/outbox.cif.g08.bks.cpg/sg92_3_cif.got.tgz:4476.got - 2010.06.03 19:35:17.
