data_PCOD9549684
_publ_section_title
;
Structure prediction by ZEFSAII (Michael W. Deem and Ramdas Pophale) SiO2 
 PCOD9549684
Probable space group: P 42 2 2
;
_chemical_formula_sum "Si O2"
_cell_formula_units_Z 56
_cell_length_a 20.553020
_cell_length_b 20.553020
_cell_length_c 9.180673
_cell_angle_alpha 90.000000
_cell_angle_beta 90.000000
_cell_angle_gamma 90.000000
_cell_volume 3878.160767
_symmetry_space_group_name_H-M "P 42 2 2"
_symmetry_group_IT_number 93
_symmetry_cell_setting 'tetragonal'
loop_
_space_group_symop_operation_xyz
x,y,z
-y,x,1/2+z
-x,-y,z
y,-x,1/2+z
x,-y,-z
-x,y,-z
y,x,1/2-z
-y,-x,1/2-z
loop_
_atom_site_type_symbol
_atom_site_label
_atom_site_fract_x
_atom_site_fract_y
_atom_site_fract_z
Si Si1 0.422698 0.793513 0.530201
Si Si2 0.935308 0.571935 0.928779
Si Si3 0.387832 0.517770 0.672774
Si Si4 0.425153 0.205696 0.942088
Si Si5 0.430013 0.060212 0.918257
Si Si6 0.695403 0.403193 0.198028
Si Si7 0.725326 0.625490 0.300571
O O1 0.500000 0.791714 0.500000
O O2 0.399334 0.863607 0.467573
O O3 0.397928 0.725045 0.461674
O O4 0.402401 0.782633 0.697023
O O5 0.947373 0.564884 0.755826
O O6 0.932092 0.500000 0.000000
O O7 0.000000 0.603665 0.000000
O O8 0.396396 0.500000 0.500000
O O9 0.450290 0.549711 0.750000
O O10 0.358460 0.458001 0.766252
O O11 0.331799 0.572058 0.686165
O O12 0.375086 0.245194 0.039843
O O13 0.500000 0.210468 0.000000
O O14 0.402565 0.131815 0.939096
O O15 0.424280 0.240935 0.787860
O O16 0.500000 0.064059 0.000000
O O17 0.396200 0.000000 0.000000
O O18 0.663270 0.336731 0.250000
O O19 0.692122 0.692122 0.250000
#
# Coordination Sequence:
#
# PCOD9549684 Si02
#       7
#     8   8   8   8   8   8   8
#     4  11  21  32  49  72  89 117 143 182 235 282
#     4  10  20  31  46  70  96 113 138 171 218 278
#     4  11  23  40  54  67  85 108 149 197 243 294
#     4  11  19  35  50  66  90 114 145 184 231 284
#     4  10  20  30  49  71  91 115 139 170 219 278
#     4  12  22  35  51  66  88 113 150 189 240 285
#     4  11  21  34  53  68  87 113 154 187 233 280
#
# _framework density 14.439833999999999
#
# number of rings (size 3 to 8) (size 9 to 14) (size 15 to 20)
#    0.000    1.143    5.714    2.571   10.000    0.286 
#    0.000    1.429    0.000    0.000    0.000    0.000 
#    0.000    0.000    0.000    0.000    0.000    0.000 
#
# Total GULP energy -311971.539750 kJ/mol
# GULP energy per Si atom -5570.920353 kJ/mol
# Density = 1.440697 g / cm^3
# Si number density = 14.439834 Si / 1000 Ang^3
#
#
#
# Elastic Constant Matrix: (Units=GPa)
#
#
# Indices 1 2 3 4 5 6 
#
# 1 53.3249 27.3783 9.9873 0.0000 0.0000 0.0000
# 2 27.3783 53.3282 9.9873 0.0000 0.0000 0.0000
# 3 9.9873 9.9873 65.7844 0.0000 0.0000 0.0000
# 4 0.0000 0.0000 0.0000 23.2230 0.0000 0.0000
# 5 0.0000 0.0000 0.0000 0.0000 23.2248 0.0000
# 6 0.0000 0.0000 0.0000 0.0000 0.0000 4.7938
#
#
#
# Elastic Compliance Matrix: (Units=1/GPa)
#
#
# Indices 1 2 3 4 5 6 
#
# 1 0.025707 -0.012832 -0.001955 0.000000 0.000000 0.000000
# 2 -0.012832 0.025706 -0.001954 0.000000 0.000000 0.000000
# 3 -0.001955 -0.001954 0.015795 0.000000 0.000000 0.000000
# 4 0.000000 0.000000 0.000000 0.043061 0.000000 0.000000
# 5 0.000000 0.000000 0.000000 0.000000 0.043057 0.000000
# 6 0.000000 0.000000 0.000000 0.000000 0.000000 0.208603
#
#
# Mechanical properties :
#
#
# Convention : Reuss Voigt Hill
#
# Bulk Modulus (GPa) = 29.65121 29.68259 29.66690
# Shear Modulus (GPa) = 12.29551 18.58730 15.44141
#
# Velocity S-wave (km/s) = 2.92121 3.59168 3.27366
# Velocity P-wave (km/s) = 5.65304 6.14825 5.90584
#
# Compressibility (1/GPa) = 0.03372544
#
# Stress axis : x y z
#
# Youngs Moduli (GPa) = 38.89952 38.90195 63.31248
#
# Poissons Ratio (x) = 0.49918 0.12376
# Poissons Ratio (y) = 0.49915 0.12374
# Poissons Ratio (z) = 0.07604 0.07603
#
# Static dielectric constant tensor:
#      x y z
#    x 1.490080 0.000000 0.000000 
#    y 0.000000 1.490090 0.000000 
#    z 0.000000 0.000000 1.655250 
# 
# From -- ./inp_files/2248.got.cif
#   From: 2010.05.17/outbox.cif.g08.bks.cpg/sg93_2_cif.got.tgz:2248.got - 2010.06.03 19:38:44.
