data_PCOD9549266
_publ_section_title
;
Structure prediction by ZEFSAII (Michael W. Deem and Ramdas Pophale) SiO2 
 PCOD9549266
Probable space group: P 41 21 2
;
_chemical_formula_sum "Si O2"
_cell_formula_units_Z 56
_cell_length_a 16.065373
_cell_length_b 16.065373
_cell_length_c 9.683212
_cell_angle_alpha 90.000000
_cell_angle_beta 90.000000
_cell_angle_gamma 90.000000
_cell_volume 2499.200314
_symmetry_space_group_name_H-M "P 41 21 2"
_symmetry_group_IT_number 92
_symmetry_cell_setting 'tetragonal'
loop_
_space_group_symop_operation_xyz
x,y,z
1/2-y,1/2+x,1/4+z
-x,-y,1/2+z
1/2+y,1/2-x,3/4+z
1/2+x,1/2-y,3/4-z
1/2-x,1/2+y,1/4-z
y,x,-z
-y,-x,1/2-z
loop_
_atom_site_type_symbol
_atom_site_label
_atom_site_fract_x
_atom_site_fract_y
_atom_site_fract_z
Si Si1 0.672369 0.126238 0.786841
Si Si2 0.315890 0.214796 0.343667
Si Si3 0.058613 0.050958 0.333758
Si Si4 0.917413 0.512868 0.786599
Si Si5 0.339556 0.815666 0.993370
Si Si6 0.754163 0.960779 0.861873
Si Si7 0.723546 0.510490 0.072379
O O1 0.705679 0.160269 0.931160
O O2 0.572179 0.116805 0.780696
O O3 0.691438 0.180129 0.651796
O O4 0.710988 0.033527 0.775491
O O5 0.228619 0.265101 0.344170
O O6 0.301811 0.119463 0.384065
O O7 0.393014 0.250954 0.430809
O O8 0.044625 0.044625 0.500000
O O9 0.156003 0.066178 0.305422
O O10 0.006723 0.129343 0.277927
O O11 0.029263 0.970738 0.250000
O O12 0.851759 0.587612 0.797309
O O13 0.989020 0.545570 0.684267
O O14 0.433191 0.777099 0.988125
O O15 0.772628 0.994371 0.013708
#
# Coordination Sequence:
#
# PCOD9549266 Si02
#       7
#     8   8   8   8   8   8   8
#     4  10  23  41  64  97 131 170 230 279 339 406
#     4  11  22  42  68  92 133 190 218 273 355 409
#     4  10  22  47  68  98 134 179 237 282 339 416
#     4  10  23  40  63  97 138 173 225 279 345 410
#     4  11  23  41  63 102 138 167 231 288 327 418
#     4  10  22  42  70  89 128 184 231 269 339 423
#     4  10  24  43  64  98 137 177 224 284 339 413
#
# _framework density 22.407167000000001
#
# number of rings (size 3 to 8) (size 9 to 14) (size 15 to 20)
#    0.000    1.714    1.429    2.143    6.000    4.571 
#   10.286    0.000    0.000    0.000    0.000    0.000 
#    0.000    0.000    0.000    0.000    0.000    0.000 
#
# Total GULP energy -312841.842204 kJ/mol
# GULP energy per Si atom -5586.461468 kJ/mol
# Density = 2.235617 g / cm^3
# Si number density = 22.407167 Si / 1000 Ang^3
#
#
#
# Elastic Constant Matrix: (Units=GPa)
#
#
# Indices 1 2 3 4 5 6 
#
# 1 93.6778 54.3595 6.9989 0.0000 0.0000 0.0000
# 2 54.3595 93.6815 7.0000 0.0000 0.0000 0.0000
# 3 6.9989 7.0000 41.5509 0.0000 0.0000 0.0000
# 4 0.0000 0.0000 0.0000 33.3657 0.0000 0.0000
# 5 0.0000 0.0000 0.0000 0.0000 33.3652 0.0000
# 6 0.0000 0.0000 0.0000 0.0000 0.0000 36.3814
#
#
#
# Elastic Compliance Matrix: (Units=1/GPa)
#
#
# Indices 1 2 3 4 5 6 
#
# 1 0.016149 -0.009284 -0.001156 0.000000 0.000000 0.000000
# 2 -0.009284 0.016148 -0.001157 0.000000 0.000000 0.000000
# 3 -0.001156 -0.001157 0.024456 0.000000 0.000000 0.000000
# 4 0.000000 0.000000 0.000000 0.029971 0.000000 0.000000
# 5 0.000000 0.000000 0.000000 0.000000 0.029971 0.000000
# 6 0.000000 0.000000 0.000000 0.000000 0.000000 0.027487
#
#
# Mechanical properties :
#
#
# Convention : Reuss Voigt Hill
#
# Bulk Modulus (GPa) = 29.79761 40.62524 35.21142
# Shear Modulus (GPa) = 28.00154 31.32592 29.66373
#
# Velocity S-wave (km/s) = 3.53890 3.74308 3.64242
# Velocity P-wave (km/s) = 5.47956 6.07048 5.78257
#
# Compressibility (1/GPa) = 0.03355974
#
# Stress axis : x y z
#
# Youngs Moduli (GPa) = 61.92494 61.92720 40.88907
#
# Poissons Ratio (x) = 0.57493 0.04727
# Poissons Ratio (y) = 0.57491 0.04729
# Poissons Ratio (z) = 0.07159 0.07163
#
# Static dielectric constant tensor:
#      x y z
#    x 1.839600 0.000000 0.000000 
#    y 0.000000 1.839600 0.000000 
#    z 0.000000 0.000000 1.862470 
# 
# From -- ./inp_files/2256.got.cif
#   From: 2010.05.17/outbox.cif.g08.bks.cpg/sg92_2_cif.got.tgz:2256.got - 2010.06.03 19:35:17.
