data_PCOD9549238
_publ_section_title
;
Structure prediction by ZEFSAII (Michael W. Deem and Ramdas Pophale) SiO2 
 PCOD9549238
Probable space group: P 41 21 2
;
_chemical_formula_sum "Si O2"
_cell_formula_units_Z 36
_cell_length_a 8.093758
_cell_length_b 8.093758
_cell_length_c 25.106859
_cell_angle_alpha 90.000000
_cell_angle_beta 90.000000
_cell_angle_gamma 90.000000
_cell_volume 1644.723182
_symmetry_space_group_name_H-M "P 41 21 2"
_symmetry_group_IT_number 92
_symmetry_cell_setting 'tetragonal'
loop_
_space_group_symop_operation_xyz
x,y,z
1/2-y,1/2+x,1/4+z
-x,-y,1/2+z
1/2+y,1/2-x,3/4+z
1/2+x,1/2-y,3/4-z
1/2-x,1/2+y,1/4-z
y,x,-z
-y,-x,1/2-z
loop_
_atom_site_type_symbol
_atom_site_label
_atom_site_fract_x
_atom_site_fract_y
_atom_site_fract_z
Si Si1 0.285551 0.714449 0.750000
Si Si2 0.365513 0.115419 0.395614
Si Si3 0.370433 0.755364 0.428031
Si Si4 0.219408 0.834156 0.534329
Si Si5 0.308533 0.064902 0.911021
O O1 0.273755 0.830014 0.697776
O O2 0.472824 0.736585 0.770653
O O3 0.307753 0.189581 0.340399
O O4 0.293550 0.932584 0.408302
O O5 0.558198 0.069224 0.390289
O O6 0.298525 0.729844 0.486553
O O7 0.566760 0.789767 0.429246
O O8 0.313092 0.623826 0.384943
O O9 0.028313 0.787137 0.542445
#
# Coordination Sequence:
#
# PCOD9549238 Si02
#       5
#     4   8   8   8   8
#     4  10  22  40  66  92 128 174 220 264 332 388
#     4   9  22  41  65  93 127 170 223 268 322 388
#     4   9  24  41  64 100 127 170 221 263 333 390
#     4  11  22  41  69  90 131 174 214 273 323 387
#     4  10  23  40  64  93 135 166 213 274 319 393
#
# _framework density 21.888180999999999
#
# number of rings (size 3 to 8) (size 9 to 14) (size 15 to 20)
#    1.333    0.889    0.000    1.333    9.333    1.778 
#    0.000    0.000    0.000    0.000    0.000    0.000 
#    0.000    0.000    0.000    0.000    0.000    0.000 
#
# Total GULP energy -200617.593053 kJ/mol
# GULP energy per Si atom -5572.710918 kJ/mol
# Density = 2.183836 g / cm^3
# Si number density = 21.888181 Si / 1000 Ang^3
#
#
#
# Elastic Constant Matrix: (Units=GPa)
#
#
# Indices 1 2 3 4 5 6 
#
# 1 12.7872 33.7522 26.7485 0.0000 0.0000 0.0000
# 2 33.7522 12.7872 26.7487 0.0000 0.0000 0.0000
# 3 26.7485 26.7487 126.0924 0.0000 0.0000 0.0000
# 4 0.0000 0.0000 0.0000 28.7993 0.0000 0.0000
# 5 0.0000 0.0000 0.0000 0.0000 28.7996 0.0000
# 6 0.0000 0.0000 0.0000 0.0000 0.0000 28.5678
#
#
#
# Elastic Compliance Matrix: (Units=1/GPa)
#
#
# Indices 1 2 3 4 5 6 
#
# 1 -0.009641 0.038058 -0.006028 0.000000 0.000000 0.000000
# 2 0.038058 -0.009641 -0.006028 0.000000 0.000000 0.000000
# 3 -0.006028 -0.006028 0.010488 0.000000 0.000000 0.000000
# 4 0.000000 0.000000 0.000000 0.034723 0.000000 0.000000
# 5 0.000000 0.000000 0.000000 0.000000 0.034723 0.000000
# 6 0.000000 0.000000 0.000000 0.000000 0.000000 0.035004
#
#
# Mechanical properties :
#
#
# Convention : Reuss Voigt Hill
#
# Bulk Modulus (GPa) = 23.14346 36.24064 29.69205
# Shear Modulus (GPa) = 86.12249 21.52783 53.82516
#
# Velocity S-wave (km/s) = 6.27949 3.13954 4.96431
# Velocity P-wave (km/s) = 7.94811 5.45302 6.81571
#
# Compressibility (1/GPa) = 0.04320875
#
# Stress axis : x y z
#
# Youngs Moduli (GPa) = -103.72452 -103.72248 95.34474
#
# Poissons Ratio (x) = 3.94742 0.57476
# Poissons Ratio (y) = 3.94750 0.57475
# Poissons Ratio (z) = -0.62527 -0.62525
#
# Static dielectric constant tensor:
#      x y z
#    x 1.850290 0.000000 0.000000 
#    y 0.000000 1.850290 0.000000 
#    z 0.000000 0.000000 1.784210 
# 
# From -- ./inp_files/4107.got.cif
#   From: 2010.05.17/outbox.cif.g08.bks.cpg/sg92_3_cif.got.tgz:4107.got - 2010.06.03 19:35:17.
