data_PCOD9549681
_publ_section_title
;
Structure prediction by ZEFSAII (Michael W. Deem and Ramdas Pophale) SiO2 
 PCOD9549681
Probable space group: P 42 2 2
;
_chemical_formula_sum "Si O2"
_cell_formula_units_Z 60
_cell_length_a 11.271173
_cell_length_b 11.271173
_cell_length_c 23.302488
_cell_angle_alpha 90.000000
_cell_angle_beta 90.000000
_cell_angle_gamma 90.000000
_cell_volume 2960.332714
_symmetry_space_group_name_H-M "P 42 2 2"
_symmetry_group_IT_number 93
_symmetry_cell_setting 'tetragonal'
loop_
_space_group_symop_operation_xyz
x,y,z
-y,x,1/2+z
-x,-y,z
y,-x,1/2+z
x,-y,-z
-x,y,-z
y,x,1/2-z
-y,-x,1/2-z
loop_
_atom_site_type_symbol
_atom_site_label
_atom_site_fract_x
_atom_site_fract_y
_atom_site_fract_z
Si Si1 0.712572 0.643340 0.691739
Si Si2 0.000000 0.186100 0.500000
Si Si3 0.750884 0.622488 0.302685
Si Si4 0.920097 0.164052 0.689261
Si Si5 0.456924 0.124839 0.435257
Si Si6 0.372148 0.522300 0.875656
Si Si7 0.807299 0.943052 0.420343
Si Si8 0.205882 0.861182 0.106701
O O1 0.718698 0.718698 0.750000
O O2 0.772927 0.516752 0.703415
O O3 0.573518 0.623014 0.676419
O O4 0.770910 0.706262 0.637194
O O5 0.090439 0.106694 0.462086
O O6 0.069876 0.255275 0.550476
O O7 0.677335 0.677335 0.250000
O O8 0.867631 0.702717 0.306815
O O9 0.658761 0.632692 0.355370
O O10 0.901145 0.098856 0.750000
O O11 0.837355 0.097619 0.643699
O O12 0.046535 0.169131 0.657463
O O13 0.500000 0.126005 0.500000
O O14 0.498135 0.247034 0.406649
O O15 0.315752 0.114295 0.437203
O O16 0.500000 0.000000 0.407269
O O17 0.500000 0.500000 0.906172
O O18 0.803344 0.085127 0.417601
#
# Coordination Sequence:
#
# PCOD9549681 Si02
#       8
#     8   4   8   8   8   8   8   8
#     4  11  23  36  63  95 129 167 211 264 317 389
#     4  10  23  42  68  89 118 177 220 252 319 406
#     4  10  19  40  63  87 126 172 213 249 311 391
#     4  10  22  39  63  90 123 167 204 258 313 385
#     4  11  25  40  63  96 132 159 211 286 332 375
#     4  10  21  40  65  92 126 171 216 254 320 398
#     4  11  22  41  64  89 126 166 214 258 326 386
#     4  11  24  39  64  93 126 164 213 268 318 394
#
# _framework density 20.267990000000001
#
# number of rings (size 3 to 8) (size 9 to 14) (size 15 to 20)
#    0.000    1.467    2.667    3.200    7.467    1.333 
#    0.000    0.000    0.000    6.400    0.000    0.000 
#    0.000    0.000    0.000    0.000    0.000    0.000 
#
# Total GULP energy -334767.231260 kJ/mol
# GULP energy per Si atom -5579.453854 kJ/mol
# Density = 2.022186 g / cm^3
# Si number density = 20.267990 Si / 1000 Ang^3
#
#
#
# Elastic Constant Matrix: (Units=GPa)
#
#
# Indices 1 2 3 4 5 6 
#
# 1 79.9802 25.0339 25.5841 0.0000 0.0000 0.0000
# 2 25.0339 79.9805 25.5840 0.0000 0.0000 0.0000
# 3 25.5841 25.5840 110.0804 0.0000 0.0000 0.0000
# 4 0.0000 0.0000 0.0000 20.5893 0.0000 0.0000
# 5 0.0000 0.0000 0.0000 0.0000 20.5892 0.0000
# 6 0.0000 0.0000 0.0000 0.0000 0.0000 25.1320
#
#
#
# Elastic Compliance Matrix: (Units=1/GPa)
#
#
# Indices 1 2 3 4 5 6 
#
# 1 0.014469 -0.003730 -0.002496 0.000000 0.000000 0.000000
# 2 -0.003730 0.014469 -0.002496 0.000000 0.000000 0.000000
# 3 -0.002496 -0.002496 0.010244 0.000000 0.000000 0.000000
# 4 0.000000 0.000000 0.000000 0.048569 0.000000 0.000000
# 5 0.000000 0.000000 0.000000 0.000000 0.048569 0.000000
# 6 0.000000 0.000000 0.000000 0.000000 0.000000 0.039790
#
#
# Mechanical properties :
#
#
# Convention : Reuss Voigt Hill
#
# Bulk Modulus (GPa) = 46.00150 46.93834 46.46992
# Shear Modulus (GPa) = 24.90030 26.18470 25.54250
#
# Velocity S-wave (km/s) = 3.50887 3.59823 3.55383
# Velocity P-wave (km/s) = 6.25797 6.36177 6.31008
#
# Compressibility (1/GPa) = 0.02173842
#
# Stress axis : x y z
#
# Youngs Moduli (GPa) = 69.11280 69.11311 97.61463
#
# Poissons Ratio (x) = 0.25783 0.24363
# Poissons Ratio (y) = 0.25782 0.24362
# Poissons Ratio (z) = 0.17249 0.17249
#
# Static dielectric constant tensor:
#      x y z
#    x 1.763920 0.000000 0.000000 
#    y 0.000000 1.763920 0.000000 
#    z 0.000000 0.000000 1.727500 
# 
# From -- ./inp_files/6329.got.cif
#   From: 2010.05.17/outbox.cif.g08.bks.cpg/sg93_4_cif.got.tgz:6329.got - 2010.06.03 19:38:44.
