data_PCOD9549050
_publ_section_title
;
Structure prediction by ZEFSAII (Michael W. Deem and Ramdas Pophale) SiO2 
 PCOD9549050
Probable space group: P 41 21 2
;
_chemical_formula_sum "Si O2"
_cell_formula_units_Z 44
_cell_length_a 8.554435
_cell_length_b 8.554435
_cell_length_c 27.393841
_cell_angle_alpha 90.000000
_cell_angle_beta 90.000000
_cell_angle_gamma 90.000000
_cell_volume 2004.636308
_symmetry_space_group_name_H-M "P 41 21 2"
_symmetry_group_IT_number 92
_symmetry_cell_setting 'tetragonal'
loop_
_space_group_symop_operation_xyz
x,y,z
1/2-y,1/2+x,1/4+z
-x,-y,1/2+z
1/2+y,1/2-x,3/4+z
1/2+x,1/2-y,3/4-z
1/2-x,1/2+y,1/4-z
y,x,-z
-y,-x,1/2-z
loop_
_atom_site_type_symbol
_atom_site_label
_atom_site_fract_x
_atom_site_fract_y
_atom_site_fract_z
Si Si1 0.035629 0.505298 0.735731
Si Si2 0.600832 0.399169 0.250000
Si Si3 0.608345 0.972547 0.665638
Si Si4 0.720806 0.848887 0.339206
Si Si5 0.063729 0.959734 0.602730
Si Si6 0.113900 0.283885 0.655670
O O1 0.212539 0.568763 0.744839
O O2 0.042282 0.340046 0.706955
O O3 0.953828 0.472687 0.787249
O O4 0.946243 0.629595 0.701796
O O5 0.531916 0.475743 0.299504
O O6 0.698211 0.093293 0.630375
O O7 0.713851 0.827488 0.682926
O O8 0.476821 0.891515 0.633090
O O9 0.846125 0.945922 0.370202
O O10 0.102431 0.106483 0.638072
O O11 0.212105 0.848735 0.594419
#
# Coordination Sequence:
#
# PCOD9549050 Si02
#       6
#     8   4   8   8   8   8
#     4  10  23  42  67 103 132 186 234 290 349 438
#     4  10  20  38  72 100 130 186 232 284 354 428
#     4  11  23  45  65  99 143 179 232 297 351 432
#     4  11  26  44  70  99 139 186 233 296 364 419
#     4  11  21  42  66 100 134 184 232 295 354 429
#     4  10  21  39  66  95 137 176 233 286 350 419
#
# _framework density 21.949117999999999
#
# number of rings (size 3 to 8) (size 9 to 14) (size 15 to 20)
#    0.000    1.455    1.818    4.364    0.000    4.364 
#    3.273    3.636    0.000    0.000    0.000    0.000 
#    0.000    0.000    0.000    0.000    0.000    0.000 
#
# Total GULP energy -245809.816758 kJ/mol
# GULP energy per Si atom -5586.586744 kJ/mol
# Density = 2.189916 g / cm^3
# Si number density = 21.949118 Si / 1000 Ang^3
#
#
#
# Elastic Constant Matrix: (Units=GPa)
#
#
# Indices 1 2 3 4 5 6 
#
# 1 77.0694 19.4511 30.5288 0.0000 0.0000 0.0000
# 2 19.4511 77.0691 30.5290 0.0000 0.0000 0.0000
# 3 30.5288 30.5290 97.8863 0.0000 0.0000 0.0000
# 4 0.0000 0.0000 0.0000 32.2260 0.0000 0.0000
# 5 0.0000 0.0000 0.0000 0.0000 32.2260 0.0000
# 6 0.0000 0.0000 0.0000 0.0000 0.0000 35.5625
#
#
#
# Elastic Compliance Matrix: (Units=1/GPa)
#
#
# Indices 1 2 3 4 5 6 
#
# 1 0.015131 -0.002224 -0.004025 0.000000 0.000000 0.000000
# 2 -0.002224 0.015131 -0.004025 0.000000 0.000000 0.000000
# 3 -0.004025 -0.004025 0.012727 0.000000 0.000000 0.000000
# 4 0.000000 0.000000 0.000000 0.031031 0.000000 0.000000
# 5 0.000000 0.000000 0.000000 0.000000 0.031031 0.000000
# 6 0.000000 0.000000 0.000000 0.000000 0.000000 0.028119
#
#
# Mechanical properties :
#
#
# Convention : Reuss Voigt Hill
#
# Bulk Modulus (GPa) = 44.56521 45.89360 45.22941
# Shear Modulus (GPa) = 31.01724 31.43731 31.22727
#
# Velocity S-wave (km/s) = 3.76326 3.78865 3.77598
# Velocity P-wave (km/s) = 6.26345 6.33190 6.29777
#
# Compressibility (1/GPa) = 0.02243903
#
# Stress axis : x y z
#
# Youngs Moduli (GPa) = 66.08835 66.08802 78.57406
#
# Poissons Ratio (x) = 0.14700 0.31629
# Poissons Ratio (y) = 0.14700 0.31630
# Poissons Ratio (z) = 0.26603 0.26603
#
# Static dielectric constant tensor:
#      x y z
#    x 1.805490 0.000000 0.000000 
#    y 0.000000 1.805490 0.000000 
#    z 0.000000 0.000000 1.827860 
# 
# From -- ./inp_files/4430.got.cif
#   From: 2010.05.17/outbox.cif.g08.bks.cpg/sg92_3_cif.got.tgz:4430.got - 2010.06.03 19:35:17.
