data_PCOD9549534
_publ_section_title
;
Structure prediction by ZEFSAII (Michael W. Deem and Ramdas Pophale) SiO2 
 PCOD9549534
Probable space group: P 41 21 2
;
_chemical_formula_sum "Si O2"
_cell_formula_units_Z 40
_cell_length_a 8.981537
_cell_length_b 8.981537
_cell_length_c 21.389985
_cell_angle_alpha 90.000000
_cell_angle_beta 90.000000
_cell_angle_gamma 90.000000
_cell_volume 1725.487457
_symmetry_space_group_name_H-M "P 41 21 2"
_symmetry_group_IT_number 92
_symmetry_cell_setting 'tetragonal'
loop_
_space_group_symop_operation_xyz
x,y,z
1/2-y,1/2+x,1/4+z
-x,-y,1/2+z
1/2+y,1/2-x,3/4+z
1/2+x,1/2-y,3/4-z
1/2-x,1/2+y,1/4-z
y,x,-z
-y,-x,1/2-z
loop_
_atom_site_type_symbol
_atom_site_label
_atom_site_fract_x
_atom_site_fract_y
_atom_site_fract_z
Si Si1 0.110713 0.046990 0.902409
Si Si2 0.132623 0.583256 0.827387
Si Si3 0.314578 0.770869 0.924901
Si Si4 0.757615 0.415322 0.542081
Si Si5 0.104065 0.104065 0.500000
Si Si6 0.741531 0.741531 0.500000
O O1 0.068017 0.113153 0.835894
O O2 0.236186 0.921621 0.902195
O O3 0.178631 0.183804 0.941155
O O4 0.978346 0.972769 0.941866
O O5 0.245186 0.646511 0.879383
O O6 0.096049 0.408608 0.832701
O O7 0.220522 0.585803 0.761070
O O8 0.989357 0.690896 0.827458
O O9 0.267585 0.722685 0.995033
O O10 0.771542 0.566810 0.503290
#
# Coordination Sequence:
#
# PCOD9549534 Si02
#       6
#     8   8   8   8   4   4
#     4  11  26  49  78 114 151 199 268 309 384 475
#     4  12  28  51  73 111 157 200 249 327 385 459
#     4  12  28  49  78 115 151 207 260 313 395 460
#     4  12  28  48  78 112 156 205 254 325 385 467
#     4  11  26  49  74 106 152 201 248 327 382 450
#     4  11  26  49  74 112 150 207 254 311 390 464
#
# _framework density 23.181857000000001
#
# number of rings (size 3 to 8) (size 9 to 14) (size 15 to 20)
#    0.000    0.400    4.000    2.400   11.200    0.000 
#    0.000    0.000    0.000    0.000    0.000    0.000 
#    0.000    0.000    0.000    0.000    0.000    0.000 
#
# Total GULP energy -223775.994089 kJ/mol
# GULP energy per Si atom -5594.399852 kJ/mol
# Density = 2.312909 g / cm^3
# Si number density = 23.181857 Si / 1000 Ang^3
#
#
#
# Elastic Constant Matrix: (Units=GPa)
#
#
# Indices 1 2 3 4 5 6 
#
# 1 111.4175 86.9743 49.3284 0.0000 0.0000 0.0000
# 2 86.9743 111.4175 49.3284 0.0000 0.0000 0.0000
# 3 49.3284 49.3284 80.2520 0.0000 0.0000 0.0000
# 4 0.0000 0.0000 0.0000 19.4022 0.0000 0.0000
# 5 0.0000 0.0000 0.0000 0.0000 19.4022 0.0000
# 6 0.0000 0.0000 0.0000 0.0000 0.0000 27.7542
#
#
#
# Elastic Compliance Matrix: (Units=1/GPa)
#
#
# Indices 1 2 3 4 5 6 
#
# 1 0.024085 -0.016826 -0.004462 0.000000 0.000000 0.000000
# 2 -0.016826 0.024085 -0.004462 0.000000 0.000000 0.000000
# 3 -0.004462 -0.004462 0.017946 0.000000 0.000000 0.000000
# 4 0.000000 0.000000 0.000000 0.051541 0.000000 0.000000
# 5 0.000000 0.000000 0.000000 0.000000 0.051541 0.000000
# 6 0.000000 0.000000 0.000000 0.000000 0.000000 0.036031
#
#
# Mechanical properties :
#
#
# Convention : Reuss Voigt Hill
#
# Bulk Modulus (GPa) = 68.41569 74.92770 71.67170
# Shear Modulus (GPa) = 19.11305 21.14210 20.12758
#
# Velocity S-wave (km/s) = 2.87450 3.02323 2.94980
# Velocity P-wave (km/s) = 6.37131 6.67671 6.52580
#
# Compressibility (1/GPa) = 0.01461653
#
# Stress axis : x y z
#
# Youngs Moduli (GPa) = 41.51904 41.51904 55.72178
#
# Poissons Ratio (x) = 0.69859 0.24864
# Poissons Ratio (y) = 0.69859 0.24864
# Poissons Ratio (z) = 0.18527 0.18527
#
# Static dielectric constant tensor:
#      x y z
#    x 1.876210 0.000000 0.000000 
#    y 0.000000 1.876210 0.000000 
#    z 0.000000 0.000000 1.906070 
# 
# From -- ./inp_files/3853.got.cif
#   From: 2010.05.17/outbox.cif.g08.bks.cpg/sg92_2_cif.got.tgz:3853.got - 2010.06.03 19:35:17.
