data_PCOD9549372
_publ_section_title
;
Structure prediction by ZEFSAII (Michael W. Deem and Ramdas Pophale) SiO2 
 PCOD9549372
Probable space group: P 41 21 2
;
_chemical_formula_sum "Si O2"
_cell_formula_units_Z 48
_cell_length_a 8.840652
_cell_length_b 8.840652
_cell_length_c 26.795729
_cell_angle_alpha 90.000000
_cell_angle_beta 90.000000
_cell_angle_gamma 90.000000
_cell_volume 2094.277216
_symmetry_space_group_name_H-M "P 41 21 2"
_symmetry_group_IT_number 92
_symmetry_cell_setting 'tetragonal'
loop_
_space_group_symop_operation_xyz
x,y,z
1/2-y,1/2+x,1/4+z
-x,-y,1/2+z
1/2+y,1/2-x,3/4+z
1/2+x,1/2-y,3/4-z
1/2-x,1/2+y,1/4-z
y,x,-z
-y,-x,1/2-z
loop_
_atom_site_type_symbol
_atom_site_label
_atom_site_fract_x
_atom_site_fract_y
_atom_site_fract_z
Si Si1 0.721801 0.278200 0.250000
Si Si2 0.175128 0.932684 0.447050
Si Si3 0.650297 0.650297 0.500000
Si Si4 0.000687 0.658771 0.496599
Si Si5 0.496227 0.068191 0.901128
Si Si6 0.996143 0.904122 0.355845
Si Si7 0.690334 0.042438 0.323820
O O1 0.546431 0.264578 0.238798
O O2 0.763606 0.190361 0.299967
O O3 0.068603 0.817517 0.477913
O O4 0.336147 0.896218 0.421044
O O5 0.077447 0.996690 0.400198
O O6 0.599606 0.554610 0.548417
O O7 0.824757 0.637695 0.480983
O O8 0.124808 0.546745 0.473570
O O9 0.980060 0.614824 0.554298
O O10 0.461000 0.232579 0.877442
O O11 0.456926 0.946178 0.858985
O O12 0.822006 0.951772 0.352147
#
# Coordination Sequence:
#
# PCOD9549372 Si02
#       7
#     4   8   4   8   8   8   8
#     4  12  30  48  66 108 152 190 228 300 364 434
#     4  12  25  46  71 104 141 187 241 289 358 426
#     4  10  24  42  70 106 138 186 240 286 356 412
#     4  11  23  43  72 102 144 185 238 296 348 429
#     4  11  23  44  74 103 137 191 238 297 354 422
#     4  11  23  42  74 106 137 186 241 291 345 429
#     4  12  25  47  70 104 151 185 238 298 360 426
#
# _framework density 22.919601
#
# number of rings (size 3 to 8) (size 9 to 14) (size 15 to 20)
#    0.000    0.667    5.000    2.000    7.000    1.333 
#    3.000    0.000    0.000    0.000    0.000    0.000 
#    0.000    0.000    0.000    0.000    0.000    0.000 
#
# Total GULP energy -267245.379968 kJ/mol
# GULP energy per Si atom -5567.612083 kJ/mol
# Density = 2.286743 g / cm^3
# Si number density = 22.919601 Si / 1000 Ang^3
#
#
#
# Elastic Constant Matrix: (Units=GPa)
#
#
# Indices 1 2 3 4 5 6 
#
# 1 51.2674 28.2434 28.5783 0.0000 0.0000 0.0000
# 2 28.2434 51.2680 28.5788 0.0000 0.0000 0.0000
# 3 28.5783 28.5788 73.0476 0.0000 0.0000 0.0000
# 4 0.0000 0.0000 0.0000 35.4085 0.0000 0.0000
# 5 0.0000 0.0000 0.0000 0.0000 35.4086 0.0000
# 6 0.0000 0.0000 0.0000 0.0000 0.0000 13.7194
#
#
#
# Elastic Compliance Matrix: (Units=1/GPa)
#
#
# Indices 1 2 3 4 5 6 
#
# 1 0.030465 -0.012967 -0.006846 0.000000 0.000000 0.000000
# 2 -0.012967 0.030465 -0.006846 0.000000 0.000000 0.000000
# 3 -0.006846 -0.006846 0.019046 0.000000 0.000000 0.000000
# 4 0.000000 0.000000 0.000000 0.028242 0.000000 0.000000
# 5 0.000000 0.000000 0.000000 0.000000 0.028242 0.000000
# 6 0.000000 0.000000 0.000000 0.000000 0.000000 0.072890
#
#
# Mechanical properties :
#
#
# Convention : Reuss Voigt Hill
#
# Bulk Modulus (GPa) = 37.51055 38.48711 37.99883
# Shear Modulus (GPa) = 18.41254 22.91944 20.66599
#
# Velocity S-wave (km/s) = 2.83742 3.16570 3.00604
# Velocity P-wave (km/s) = 5.20925 5.49462 5.35384
#
# Compressibility (1/GPa) = 0.02665916
#
# Stress axis : x y z
#
# Youngs Moduli (GPa) = 32.82422 32.82438 52.50363
#
# Poissons Ratio (x) = 0.42564 0.35942
# Poissons Ratio (y) = 0.42564 0.35944
# Poissons Ratio (z) = 0.22470 0.22471
#
# Static dielectric constant tensor:
#      x y z
#    x 1.955670 0.000000 0.000000 
#    y 0.000000 1.955660 0.000000 
#    z 0.000000 0.000000 1.891260 
# 
# From -- ./inp_files/4570.got.cif
#   From: 2010.05.17/outbox.cif.g08.bks.cpg/sg92_3_cif.got.tgz:4570.got - 2010.06.03 19:35:17.
