data_PCOD9549940
_publ_section_title
;
Structure prediction by ZEFSAII (Michael W. Deem and Ramdas Pophale) SiO2 
 PCOD9549940
Probable space group: P 42 21 2
;
_chemical_formula_sum "Si O2"
_cell_formula_units_Z 40
_cell_length_a 13.583977
_cell_length_b 13.583977
_cell_length_c 8.438415
_cell_angle_alpha 90.000000
_cell_angle_beta 90.000000
_cell_angle_gamma 90.000000
_cell_volume 1557.093728
_symmetry_space_group_name_H-M "P 42 21 2"
_symmetry_group_IT_number 94
_symmetry_cell_setting 'tetragonal'
loop_
_space_group_symop_operation_xyz
x,y,z
1/2-y,1/2+x,1/2+z
-x,-y,z
1/2+y,1/2-x,1/2+z
1/2+x,1/2-y,1/2-z
1/2-x,1/2+y,1/2-z
y,x,-z
-y,-x,-z
loop_
_atom_site_type_symbol
_atom_site_label
_atom_site_fract_x
_atom_site_fract_y
_atom_site_fract_z
Si Si1 0.496935 0.116011 0.728016
Si Si2 0.326821 0.957379 0.550623
Si Si3 0.500000 0.500000 0.500000
Si Si4 0.163393 0.961711 0.758741
Si Si5 0.500000 0.500000 0.000000
Si Si6 0.747159 0.747159 0.000000
Si Si7 0.794171 0.267939 0.831434
O O1 0.576242 0.107897 0.589136
O O2 0.394656 0.165450 0.670406
O O3 0.500000 0.000000 0.768818
O O4 0.524791 0.163073 0.896965
O O5 0.272957 0.995944 0.707790
O O6 0.258435 0.869557 0.496119
O O7 0.497334 0.601587 0.403885
O O8 0.173038 0.845775 0.800747
O O9 0.094710 0.993326 0.612090
O O10 0.788841 0.774153 0.174553
O O11 0.737320 0.262681 0.000000
#
# Coordination Sequence:
#
# PCOD9549940 Si02
#       7
#     8   8   2   8   2   4   8
#     4  11  24  42  70 107 146 201 262 317 390 481
#     4  10  22  43  70 101 143 200 250 316 399 471
#     4  10  20  38  70 114 132 194 262 328 410 470
#     4  10  20  39  70 104 143 193 248 329 405 470
#     4  10  18  34  72  94 140 184 242 318 406 460
#     4   8  19  38  65  95 129 183 241 304 378 449
#     4  10  20  40  71 101 140 193 245 319 393 457
#
# _framework density 25.688884000000002
#
# number of rings (size 3 to 8) (size 9 to 14) (size 15 to 20)
#    0.000    2.000    1.000    4.200    0.000    6.400 
#    0.000    1.000   41.800    1.200    0.000    0.000 
#    0.000    0.000    0.000    0.000    0.000    0.000 
#
# Total GULP energy -222815.709643 kJ/mol
# GULP energy per Si atom -5570.392741 kJ/mol
# Density = 2.563041 g / cm^3
# Si number density = 25.688884 Si / 1000 Ang^3
#
#
#
# Elastic Constant Matrix: (Units=GPa)
#
#
# Indices 1 2 3 4 5 6 
#
# 1 63.5639 31.2929 41.6658 0.0000 0.0000 0.0000
# 2 31.2929 63.5640 41.6653 0.0000 0.0000 0.0000
# 3 41.6658 41.6653 186.9199 0.0000 0.0000 0.0000
# 4 0.0000 0.0000 0.0000 15.5434 0.0000 0.0000
# 5 0.0000 0.0000 0.0000 0.0000 15.5435 0.0000
# 6 0.0000 0.0000 0.0000 0.0000 0.0000 51.7701
#
#
#
# Elastic Compliance Matrix: (Units=1/GPa)
#
#
# Indices 1 2 3 4 5 6 
#
# 1 0.022048 -0.008939 -0.002922 0.000000 0.000000 0.000000
# 2 -0.008939 0.022048 -0.002922 0.000000 0.000000 0.000000
# 3 -0.002922 -0.002922 0.006653 0.000000 0.000000 0.000000
# 4 0.000000 0.000000 0.000000 0.064336 0.000000 0.000000
# 5 0.000000 0.000000 0.000000 0.000000 0.064336 0.000000
# 6 0.000000 0.000000 0.000000 0.000000 0.000000 0.019316
#
#
# Mechanical properties :
#
#
# Convention : Reuss Voigt Hill
#
# Bulk Modulus (GPa) = 47.20852 60.36619 53.78735
# Shear Modulus (GPa) = 21.24360 29.86632 25.55496
#
# Velocity S-wave (km/s) = 2.87881 3.41342 3.15745
# Velocity P-wave (km/s) = 5.42835 6.25181 5.85458
#
# Compressibility (1/GPa) = 0.02118262
#
# Stress axis : x y z
#
# Youngs Moduli (GPa) = 45.35461 45.35485 150.31701
#
# Poissons Ratio (x) = 0.40543 0.43925
# Poissons Ratio (y) = 0.40543 0.43924
# Poissons Ratio (z) = 0.13253 0.13253
#
# Static dielectric constant tensor:
#      x y z
#    x 2.153350 0.000000 0.000000 
#    y 0.000000 2.153350 0.000000 
#    z 0.000000 0.000000 1.194410 
# 
# From -- ./inp_files/1518.got.cif
#   From: 2010.05.17/outbox.cif.g08.bks.cpg/sg94_1_cif.got.tgz:1518.got - 2010.06.03 19:43:16.
