data_PCOD9549849
_publ_section_title
;
Structure prediction by ZEFSAII (Michael W. Deem and Ramdas Pophale) SiO2 
 PCOD9549849
Probable space group: P 42 2 2
;
_chemical_formula_sum "Si O2"
_cell_formula_units_Z 38
_cell_length_a 11.604776
_cell_length_b 11.604776
_cell_length_c 13.814289
_cell_angle_alpha 90.000000
_cell_angle_beta 90.000000
_cell_angle_gamma 90.000000
_cell_volume 1860.381710
_symmetry_space_group_name_H-M "P 42 2 2"
_symmetry_group_IT_number 93
_symmetry_cell_setting 'tetragonal'
loop_
_space_group_symop_operation_xyz
x,y,z
-y,x,1/2+z
-x,-y,z
y,-x,1/2+z
x,-y,-z
-x,y,-z
y,x,1/2-z
-y,-x,1/2-z
loop_
_atom_site_type_symbol
_atom_site_label
_atom_site_fract_x
_atom_site_fract_y
_atom_site_fract_z
Si Si1 0.853035 0.146966 0.250000
Si Si2 0.556652 0.672189 0.337143
Si Si3 0.684377 0.885139 0.390711
Si Si4 0.869037 0.958324 0.102073
Si Si5 0.500000 0.500000 0.500000
Si Si6 0.357218 0.852748 0.384254
O O1 0.829375 0.022307 0.200431
O O2 0.766983 0.170406 0.337972
O O3 0.586754 0.586754 0.250000
O O4 0.644326 0.778038 0.328734
O O5 0.567574 0.588525 0.430240
O O6 0.439420 0.749518 0.346518
O O7 0.641401 0.855848 0.499648
O O8 0.821775 0.879996 0.395100
O O9 0.631190 0.009065 0.361263
O O10 0.000000 0.000000 0.098156
O O11 0.813096 0.000000 0.000000
#
# Coordination Sequence:
#
# PCOD9549849 Si02
#       6
#     4   8   8   8   2   8
#     4  12  23  34  67 100 142 180 219 272 348 415
#     4  12  28  45  72  96 126 178 233 288 340 408
#     4  11  22  44  68  98 140 176 225 281 343 406
#     4  11  20  37  58 101 142 174 208 267 336 411
#     4  12  26  52  66  86 130 172 230 298 336 396
#     4  11  23  42  67 100 134 176 226 282 337 408
#
# _framework density 20.425916999999998
#
# number of rings (size 3 to 8) (size 9 to 14) (size 15 to 20)
#    0.000    0.632    6.316    2.526    5.895    1.684 
#    0.000    0.000    0.000    0.000    0.000    0.000 
#    0.000    0.000    0.000    0.000    0.000    0.000 
#
# Total GULP energy -211582.499177 kJ/mol
# GULP energy per Si atom -5567.960505 kJ/mol
# Density = 2.037943 g / cm^3
# Si number density = 20.425917 Si / 1000 Ang^3
#
#
#
# Elastic Constant Matrix: (Units=GPa)
#
#
# Indices 1 2 3 4 5 6 
#
# 1 123.4832 40.0026 19.5689 0.0000 0.0000 0.0000
# 2 40.0026 123.4824 19.5689 0.0000 0.0000 0.0000
# 3 19.5689 19.5689 90.8308 0.0000 0.0000 0.0000
# 4 0.0000 0.0000 0.0000 23.7715 0.0000 0.0000
# 5 0.0000 0.0000 0.0000 0.0000 23.7715 0.0000
# 6 0.0000 0.0000 0.0000 0.0000 0.0000 23.3339
#
#
#
# Elastic Compliance Matrix: (Units=1/GPa)
#
#
# Indices 1 2 3 4 5 6 
#
# 1 0.009214 -0.002765 -0.001389 0.000000 0.000000 0.000000
# 2 -0.002765 0.009214 -0.001389 0.000000 0.000000 0.000000
# 3 -0.001389 -0.001389 0.011608 0.000000 0.000000 0.000000
# 4 0.000000 0.000000 0.000000 0.042067 0.000000 0.000000
# 5 0.000000 0.000000 0.000000 0.000000 0.042067 0.000000
# 6 0.000000 0.000000 0.000000 0.000000 0.000000 0.042856
#
#
# Mechanical properties :
#
#
# Convention : Reuss Voigt Hill
#
# Bulk Modulus (GPa) = 52.77306 55.11968 53.94637
# Shear Modulus (GPa) = 28.66469 31.41912 30.04190
#
# Velocity S-wave (km/s) = 3.75019 3.92624 3.83923
# Velocity P-wave (km/s) = 6.68164 6.89910 6.79124
#
# Compressibility (1/GPa) = 0.01894906
#
# Stress axis : x y z
#
# Youngs Moduli (GPa) = 108.52920 108.52847 86.14605
#
# Poissons Ratio (x) = 0.30005 0.11970
# Poissons Ratio (y) = 0.30006 0.11970
# Poissons Ratio (z) = 0.15080 0.15080
#
# Static dielectric constant tensor:
#      x y z
#    x 1.862310 0.000000 0.000000 
#    y 0.000000 1.862320 0.000000 
#    z 0.000000 0.000000 1.898690 
# 
# From -- ./inp_files/4385.got.cif
#   From: 2010.05.17/outbox.cif.g08.bks.cpg/sg93_3_cif.got.tgz:4385.got - 2010.06.03 19:38:44.
