data_PCOD9549279
_publ_section_title
;
Structure prediction by ZEFSAII (Michael W. Deem and Ramdas Pophale) SiO2 
 PCOD9549279
Probable space group: P 41 21 2
;
_chemical_formula_sum "Si O2"
_cell_formula_units_Z 32
_cell_length_a 8.959507
_cell_length_b 8.959507
_cell_length_c 18.525696
_cell_angle_alpha 90.000000
_cell_angle_beta 90.000000
_cell_angle_gamma 90.000000
_cell_volume 1487.108854
_symmetry_space_group_name_H-M "P 41 21 2"
_symmetry_group_IT_number 92
_symmetry_cell_setting 'tetragonal'
loop_
_space_group_symop_operation_xyz
x,y,z
1/2-y,1/2+x,1/4+z
-x,-y,1/2+z
1/2+y,1/2-x,3/4+z
1/2+x,1/2-y,3/4-z
1/2-x,1/2+y,1/4-z
y,x,-z
-y,-x,1/2-z
loop_
_atom_site_type_symbol
_atom_site_label
_atom_site_fract_x
_atom_site_fract_y
_atom_site_fract_z
Si Si1 0.348149 0.127144 0.513847
Si Si2 0.850586 0.617279 0.823212
Si Si3 0.188795 0.858584 0.452294
Si Si4 0.819461 0.835877 0.578415
O O1 0.297857 0.297857 0.500000
O O2 0.510574 0.092312 0.480876
O O3 0.330828 0.094230 0.598744
O O4 0.234771 0.025476 0.468949
O O5 0.737866 0.715263 0.775124
O O6 0.752519 0.471931 0.843483
O O7 0.292894 0.795538 0.389574
O O8 0.013843 0.841972 0.431266
O O9 0.773803 0.773803 0.500000
#
# Coordination Sequence:
#
# PCOD9549279 Si02
#       4
#     8   8   8   8
#     4  12  25  42  67  99 134 183 225 287 347 408
#     4  11  23  45  68  96 140 175 231 284 346 411
#     4  11  23  44  72  98 139 177 233 284 349 416
#     4  10  22  43  70 101 133 178 226 285 342 419
#
# _framework density 21.518263999999999
#
# number of rings (size 3 to 8) (size 9 to 14) (size 15 to 20)
#    0.000    1.000    2.500    5.250    3.500    0.000 
#    4.500    1.250    0.000    0.000    0.000    0.000 
#    0.000    0.000    0.000    0.000    0.000    0.000 
#
# Total GULP energy -178705.678798 kJ/mol
# GULP energy per Si atom -5584.552462 kJ/mol
# Density = 2.146929 g / cm^3
# Si number density = 21.518264 Si / 1000 Ang^3
#
#
#
# Elastic Constant Matrix: (Units=GPa)
#
#
# Indices 1 2 3 4 5 6 
#
# 1 89.6388 -16.3162 11.9503 0.0000 0.0000 0.0000
# 2 -16.3162 89.6388 11.9503 0.0000 0.0000 0.0000
# 3 11.9503 11.9503 103.8895 0.0000 0.0000 0.0000
# 4 0.0000 0.0000 0.0000 37.9914 0.0000 0.0000
# 5 0.0000 0.0000 0.0000 0.0000 37.9914 0.0000
# 6 0.0000 0.0000 0.0000 0.0000 0.0000 26.2403
#
#
#
# Elastic Compliance Matrix: (Units=1/GPa)
#
#
# Indices 1 2 3 4 5 6 
#
# 1 0.011804 0.002366 -0.001630 0.000000 0.000000 0.000000
# 2 0.002366 0.011804 -0.001630 0.000000 0.000000 0.000000
# 3 -0.001630 -0.001630 0.010001 0.000000 0.000000 0.000000
# 4 0.000000 0.000000 0.000000 0.026322 0.000000 0.000000
# 5 0.000000 0.000000 0.000000 0.000000 0.026322 0.000000
# 6 0.000000 0.000000 0.000000 0.000000 0.000000 0.038109
#
#
# Mechanical properties :
#
#
# Convention : Reuss Voigt Hill
#
# Bulk Modulus (GPa) = 31.42654 33.14842 32.28748
# Shear Modulus (GPa) = 36.56153 38.81681 37.68917
#
# Velocity S-wave (km/s) = 4.12648 4.25184 4.18963
# Velocity P-wave (km/s) = 6.11065 6.28828 6.20010
#
# Compressibility (1/GPa) = 0.03182024
#
# Stress axis : x y z
#
# Youngs Moduli (GPa) = 84.71837 84.71837 99.99417
#
# Poissons Ratio (x) = -0.20043 0.16298
# Poissons Ratio (y) = -0.20043 0.16298
# Poissons Ratio (z) = 0.13808 0.13808
#
# Static dielectric constant tensor:
#      x y z
#    x 1.789120 0.000000 0.000000 
#    y 0.000000 1.789120 0.000000 
#    z 0.000000 0.000000 1.804530 
# 
# From -- ./inp_files/3341.got.cif
#   From: 2010.05.17/outbox.cif.g08.bks.cpg/sg92_2_cif.got.tgz:3341.got - 2010.06.03 19:35:17.
