data_PCOD9549526
_publ_section_title
;
Structure prediction by ZEFSAII (Michael W. Deem and Ramdas Pophale) SiO2 
 PCOD9549526
Probable space group: P 41 21 2
;
_chemical_formula_sum "Si O2"
_cell_formula_units_Z 44
_cell_length_a 9.964001
_cell_length_b 9.964001
_cell_length_c 16.330392
_cell_angle_alpha 90.000000
_cell_angle_beta 90.000000
_cell_angle_gamma 90.000000
_cell_volume 1621.302807
_symmetry_space_group_name_H-M "P 41 21 2"
_symmetry_group_IT_number 92
_symmetry_cell_setting 'tetragonal'
loop_
_space_group_symop_operation_xyz
x,y,z
1/2-y,1/2+x,1/4+z
-x,-y,1/2+z
1/2+y,1/2-x,3/4+z
1/2+x,1/2-y,3/4-z
1/2-x,1/2+y,1/4-z
y,x,-z
-y,-x,1/2-z
loop_
_atom_site_type_symbol
_atom_site_label
_atom_site_fract_x
_atom_site_fract_y
_atom_site_fract_z
Si Si1 0.736376 0.075369 0.608051
Si Si2 0.680199 0.464373 0.926427
Si Si3 0.078531 0.504781 0.830404
Si Si4 0.888309 0.692480 0.917944
Si Si5 0.838681 0.967606 0.833798
Si Si6 0.906070 0.906070 0.500000
O O1 0.639760 0.989277 0.665452
O O2 0.876289 0.127099 0.645842
O O3 0.768497 0.973842 0.533140
O O4 0.647305 0.203877 0.585327
O O5 0.751710 0.608533 0.932951
O O6 0.598110 0.474006 0.840829
O O7 0.594487 0.407158 0.002395
O O8 0.164149 0.527688 0.749474
O O9 0.178500 0.524908 0.906406
O O10 0.964426 0.617575 0.843302
O O11 0.871654 0.847492 0.898353
#
# Coordination Sequence:
#
# PCOD9549526 Si02
#       6
#     8   8   8   8   8   4
#     4  11  29  51  80 125 172 228 284 363 437 529
#     4  11  27  54  82 125 170 234 288 366 446 524
#     4  11  27  50  85 121 174 231 287 365 444 529
#     4  11  25  54  86 128 171 225 299 370 439 514
#     4  12  27  52  88 126 171 229 301 359 442 528
#     4  12  28  46  74 114 168 214 278 346 422 518
#
# _framework density 27.138670999999999
#
# number of rings (size 3 to 8) (size 9 to 14) (size 15 to 20)
#    0.000    0.727    1.818    2.727   15.273    3.636 
#    3.273    0.000    0.000    0.000    0.000    0.000 
#    0.000    0.000    0.000    0.000    0.000    0.000 
#
# Total GULP energy -245815.276291 kJ/mol
# GULP energy per Si atom -5586.710825 kJ/mol
# Density = 2.707690 g / cm^3
# Si number density = 27.138671 Si / 1000 Ang^3
#
#
#
# Elastic Constant Matrix: (Units=GPa)
#
#
# Indices 1 2 3 4 5 6 
#
# 1 189.3056 97.2038 73.0723 0.0000 0.0000 0.0000
# 2 97.2038 189.3056 73.0723 0.0000 0.0000 0.0000
# 3 73.0723 73.0723 180.5202 0.0000 0.0000 0.0000
# 4 0.0000 0.0000 0.0000 24.2479 0.0000 0.0000
# 5 0.0000 0.0000 0.0000 0.0000 24.2479 0.0000
# 6 0.0000 0.0000 0.0000 0.0000 0.0000 47.7451
#
#
#
# Elastic Compliance Matrix: (Units=1/GPa)
#
#
# Indices 1 2 3 4 5 6 
#
# 1 0.007628 -0.003230 -0.001780 0.000000 0.000000 0.000000
# 2 -0.003230 0.007628 -0.001780 0.000000 0.000000 0.000000
# 3 -0.001780 -0.001780 0.006981 0.000000 0.000000 0.000000
# 4 0.000000 0.000000 0.000000 0.041241 0.000000 0.000000
# 5 0.000000 0.000000 0.000000 0.000000 0.041241 0.000000
# 6 0.000000 0.000000 0.000000 0.000000 0.000000 0.020945
#
#
# Mechanical properties :
#
#
# Convention : Reuss Voigt Hill
#
# Bulk Modulus (GPa) = 115.52538 116.20314 115.86426
# Shear Modulus (GPa) = 35.17930 40.30039 37.73984
#
# Velocity S-wave (km/s) = 3.60429 3.85772 3.73316
# Velocity P-wave (km/s) = 7.74482 7.92174 7.83378
#
# Compressibility (1/GPa) = 0.00865611
#
# Stress axis : x y z
#
# Youngs Moduli (GPa) = 131.09579 131.09579 143.24699
#
# Poissons Ratio (x) = 0.42338 0.25504
# Poissons Ratio (y) = 0.42338 0.25504
# Poissons Ratio (z) = 0.23341 0.23341
#
# Static dielectric constant tensor:
#      x y z
#    x 2.118850 0.000000 0.000000 
#    y 0.000000 2.118850 0.000000 
#    z 0.000000 0.000000 2.139350 
# 
# From -- ./inp_files/3037.got.cif
#   From: 2010.05.17/outbox.cif.g08.bks.cpg/sg92_2_cif.got.tgz:3037.got - 2010.06.03 19:35:17.
