data_PCOD9549524
_publ_section_title
;
Structure prediction by ZEFSAII (Michael W. Deem and Ramdas Pophale) SiO2 
 PCOD9549524
Probable space group: P 41 21 2
;
_chemical_formula_sum "Si O2"
_cell_formula_units_Z 40
_cell_length_a 7.686706
_cell_length_b 7.686706
_cell_length_c 26.459923
_cell_angle_alpha 90.000000
_cell_angle_beta 90.000000
_cell_angle_gamma 90.000000
_cell_volume 1563.396434
_symmetry_space_group_name_H-M "P 41 21 2"
_symmetry_group_IT_number 92
_symmetry_cell_setting 'tetragonal'
loop_
_space_group_symop_operation_xyz
x,y,z
1/2-y,1/2+x,1/4+z
-x,-y,1/2+z
1/2+y,1/2-x,3/4+z
1/2+x,1/2-y,3/4-z
1/2-x,1/2+y,1/4-z
y,x,-z
-y,-x,1/2-z
loop_
_atom_site_type_symbol
_atom_site_label
_atom_site_fract_x
_atom_site_fract_y
_atom_site_fract_z
Si Si1 0.290609 0.839271 0.322045
Si Si2 0.219458 0.187834 0.659160
Si Si3 0.193839 0.594866 0.065541
Si Si4 0.285111 0.826873 0.695123
Si Si5 0.309709 0.420664 0.251884
O O1 0.343793 0.766978 0.377268
O O2 0.430749 0.784147 0.280597
O O3 0.295707 0.047009 0.328098
O O4 0.227389 0.903477 0.190908
O O5 0.243989 0.187722 0.599106
O O6 0.382816 0.262871 0.690172
O O7 0.179360 0.994840 0.677523
O O8 0.248722 0.743200 0.025923
O O9 0.984955 0.608139 0.057766
O O10 0.228767 0.771234 0.750000
O O11 0.509927 0.490074 0.250000
#
# Coordination Sequence:
#
# PCOD9549524 Si02
#       5
#     8   8   8   8   8
#     4  11  26  51  80 121 167 213 277 346 413 497
#     4  11  30  49  81 119 159 217 279 334 420 501
#     4  11  25  49  83 119 159 218 275 337 419 494
#     4  11  28  51  79 115 167 215 273 347 413 499
#     4  12  28  48  81 116 163 216 271 343 414 492
#
# _framework density 25.585318999999998
#
# number of rings (size 3 to 8) (size 9 to 14) (size 15 to 20)
#    0.000    0.800    2.000    1.800   16.800    3.200 
#    0.000    0.000    0.000    0.000    0.000    0.000 
#    0.000    0.000    0.000    0.000    0.000    0.000 
#
# Total GULP energy -224193.269868 kJ/mol
# GULP energy per Si atom -5604.831747 kJ/mol
# Density = 2.552709 g / cm^3
# Si number density = 25.585319 Si / 1000 Ang^3
#
#
#
# Elastic Constant Matrix: (Units=GPa)
#
#
# Indices 1 2 3 4 5 6 
#
# 1 105.1885 45.7308 73.5686 0.0000 0.0000 0.0000
# 2 45.7308 105.1895 73.5677 0.0000 0.0000 0.0000
# 3 73.5686 73.5677 232.9586 0.0000 0.0000 0.0000
# 4 0.0000 0.0000 0.0000 45.6716 0.0000 0.0000
# 5 0.0000 0.0000 0.0000 0.0000 45.6713 0.0000
# 6 0.0000 0.0000 0.0000 0.0000 0.0000 40.7574
#
#
#
# Elastic Compliance Matrix: (Units=1/GPa)
#
#
# Indices 1 2 3 4 5 6 
#
# 1 0.013196 -0.003622 -0.003023 0.000000 0.000000 0.000000
# 2 -0.003622 0.013196 -0.003023 0.000000 0.000000 0.000000
# 3 -0.003023 -0.003023 0.006202 0.000000 0.000000 0.000000
# 4 0.000000 0.000000 0.000000 0.021895 0.000000 0.000000
# 5 0.000000 0.000000 0.000000 0.000000 0.021896 0.000000
# 6 0.000000 0.000000 0.000000 0.000000 0.000000 0.024535
#
#
# Mechanical properties :
#
#
# Convention : Reuss Voigt Hill
#
# Bulk Modulus (GPa) = 75.43773 92.11898 83.77836
# Shear Modulus (GPa) = 40.10344 43.11804 41.61074
#
# Velocity S-wave (km/s) = 3.96339 4.10965 4.03718
# Velocity P-wave (km/s) = 7.10587 7.65518 7.38563
#
# Compressibility (1/GPa) = 0.01325597
#
# Stress axis : x y z
#
# Youngs Moduli (GPa) = 75.77956 75.78101 161.23484
#
# Poissons Ratio (x) = 0.27452 0.48748
# Poissons Ratio (y) = 0.27451 0.48745
# Poissons Ratio (z) = 0.22911 0.22910
#
# Static dielectric constant tensor:
#      x y z
#    x 2.069360 0.000000 0.000000 
#    y 0.000000 2.069360 0.000000 
#    z 0.000000 0.000000 1.998010 
# 
# From -- ./inp_files/4122.got.cif
#   From: 2010.05.17/outbox.cif.g08.bks.cpg/sg92_3_cif.got.tgz:4122.got - 2010.06.03 19:35:17.
