data_PCOD9549011
_publ_section_title
;
Structure prediction by ZEFSAII (Michael W. Deem and Ramdas Pophale) SiO2 
 PCOD9549011
Probable space group: P 41 21 2
;
_chemical_formula_sum "Si O2"
_cell_formula_units_Z 64
_cell_length_a 20.568685
_cell_length_b 20.568685
_cell_length_c 7.787274
_cell_angle_alpha 90.000000
_cell_angle_beta 90.000000
_cell_angle_gamma 90.000000
_cell_volume 3294.568261
_symmetry_space_group_name_H-M "P 41 21 2"
_symmetry_group_IT_number 92
_symmetry_cell_setting 'tetragonal'
loop_
_space_group_symop_operation_xyz
x,y,z
1/2-y,1/2+x,1/4+z
-x,-y,1/2+z
1/2+y,1/2-x,3/4+z
1/2+x,1/2-y,3/4-z
1/2-x,1/2+y,1/4-z
y,x,-z
-y,-x,1/2-z
loop_
_atom_site_type_symbol
_atom_site_label
_atom_site_fract_x
_atom_site_fract_y
_atom_site_fract_z
Si Si1 0.658376 0.972136 0.978776
Si Si2 0.885114 0.288299 0.473786
Si Si3 0.788330 0.579735 0.855148
Si Si4 0.103705 0.296751 0.838627
Si Si5 0.687212 0.314439 0.956851
Si Si6 0.041499 0.566871 0.536896
Si Si7 0.941076 0.746994 0.711771
Si Si8 0.281694 0.301817 0.201046
O O1 0.587347 0.967159 0.065851
O O2 0.700192 0.935443 0.125263
O O3 0.692293 0.042839 0.970218
O O4 0.664592 0.942589 0.790125
O O5 0.882158 0.310254 0.276374
O O6 0.837271 0.330149 0.590855
O O7 0.852229 0.217255 0.471774
O O8 0.856411 0.556053 0.776083
O O9 0.746450 0.518100 0.924475
O O10 0.745544 0.627244 0.741495
O O11 0.123181 0.227406 0.750979
O O12 0.081699 0.285321 0.032309
O O13 0.688497 0.311504 0.750000
O O14 0.694868 0.390393 0.998335
O O15 0.750291 0.273216 0.016797
O O16 0.056302 0.530750 0.359605
O O17 0.291886 0.291886 0.000000
#
# Coordination Sequence:
#
# PCOD9549011 Si02
#       8
#     8   8   8   8   8   8   8   8
#     4  11  21  39  55  81 120 149 208 244 290 362
#     4  10  21  38  55  80 117 151 195 254 291 361
#     4  11  22  38  57  80 118 160 194 247 310 350
#     4  10  20  36  58  82 109 161 190 242 307 339
#     4   8  17  34  54  81 114 139 193 241 290 350
#     4  12  24  41  53  80 119 169 214 250 287 357
#     4  10  21  37  56  83 115 148 191 244 291 354
#     4  10  21  35  58  84 110 147 195 250 307 360
#
# _framework density 19.425912
#
# number of rings (size 3 to 8) (size 9 to 14) (size 15 to 20)
#    0.000    1.750    3.750    1.875    1.750    2.500 
#    0.000    0.000    0.000    0.000    0.000    0.000 
#   45.000    0.000    0.000    0.000    0.000    0.000 
#
# Total GULP energy -356774.053827 kJ/mol
# GULP energy per Si atom -5574.594591 kJ/mol
# Density = 1.938170 g / cm^3
# Si number density = 19.425912 Si / 1000 Ang^3
#
#
#
# Elastic Constant Matrix: (Units=GPa)
#
#
# Indices 1 2 3 4 5 6 
#
# 1 55.3257 26.3593 -7.0605 0.0000 0.0000 0.0000
# 2 26.3593 55.3256 -7.0606 0.0000 0.0000 0.0000
# 3 -7.0605 -7.0606 44.6532 0.0000 0.0000 0.0000
# 4 0.0000 0.0000 0.0000 26.1898 0.0000 0.0000
# 5 0.0000 0.0000 0.0000 0.0000 26.1898 0.0000
# 6 0.0000 0.0000 0.0000 0.0000 0.0000 24.3941
#
#
#
# Elastic Compliance Matrix: (Units=1/GPa)
#
#
# Indices 1 2 3 4 5 6 
#
# 1 0.023554 -0.010968 0.001990 0.000000 0.000000 0.000000
# 2 -0.010968 0.023555 0.001990 0.000000 0.000000 0.000000
# 3 0.001990 0.001990 0.023024 0.000000 0.000000 0.000000
# 4 0.000000 0.000000 0.000000 0.038183 0.000000 0.000000
# 5 0.000000 0.000000 0.000000 0.000000 0.038183 0.000000
# 6 0.000000 0.000000 0.000000 0.000000 0.000000 0.040993
#
#
# Mechanical properties :
#
#
# Convention : Reuss Voigt Hill
#
# Bulk Modulus (GPa) = 17.80721 19.97566 18.89143
# Shear Modulus (GPa) = 22.70794 24.89250 23.80022
#
# Velocity S-wave (km/s) = 3.42270 3.58356 3.50405
# Velocity P-wave (km/s) = 4.98061 5.23716 5.11050
#
# Compressibility (1/GPa) = 0.05615704
#
# Stress axis : x y z
#
# Youngs Moduli (GPa) = 42.45479 42.45473 43.43264
#
# Poissons Ratio (x) = 0.46566 -0.08643
# Poissons Ratio (y) = 0.46566 -0.08644
# Poissons Ratio (z) = -0.08449 -0.08449
#
# Static dielectric constant tensor:
#      x y z
#    x 1.769750 0.000000 0.000000 
#    y 0.000000 1.769760 0.000000 
#    z 0.000000 0.000000 1.700550 
# 
# From -- ./inp_files/1729.got.cif
#   From: 2010.05.17/outbox.cif.g08.bks.cpg/sg92_1_cif.got.tgz:1729.got - 2010.06.03 19:35:17.
