data_PCOD9549351
_publ_section_title
;
Structure prediction by ZEFSAII (Michael W. Deem and Ramdas Pophale) SiO2 
 PCOD9549351
Probable space group: P 41 21 2
;
_chemical_formula_sum "Si O2"
_cell_formula_units_Z 40
_cell_length_a 9.692776
_cell_length_b 9.692776
_cell_length_c 17.057501
_cell_angle_alpha 90.000000
_cell_angle_beta 90.000000
_cell_angle_gamma 90.000000
_cell_volume 1602.550626
_symmetry_space_group_name_H-M "P 41 21 2"
_symmetry_group_IT_number 92
_symmetry_cell_setting 'tetragonal'
loop_
_space_group_symop_operation_xyz
x,y,z
1/2-y,1/2+x,1/4+z
-x,-y,1/2+z
1/2+y,1/2-x,3/4+z
1/2+x,1/2-y,3/4-z
1/2-x,1/2+y,1/4-z
y,x,-z
-y,-x,1/2-z
loop_
_atom_site_type_symbol
_atom_site_label
_atom_site_fract_x
_atom_site_fract_y
_atom_site_fract_z
Si Si1 0.526087 0.526087 0.500000
Si Si2 0.685741 0.636919 0.358792
Si Si3 0.267406 0.693771 0.515439
Si Si4 0.683296 0.981903 0.397011
Si Si5 0.044653 0.044653 0.000000
Si Si6 0.502164 0.080933 0.043987
O O1 0.579024 0.619487 0.428935
O O2 0.369118 0.563543 0.518034
O O3 0.605034 0.561653 0.288914
O O4 0.860300 0.670233 0.220815
O O5 0.827038 0.575135 0.390142
O O6 0.211579 0.709321 0.424808
O O7 0.145539 0.691807 0.575603
O O8 0.559341 0.339347 0.681812
O O9 0.575862 0.010873 0.323138
O O10 0.587643 0.916190 0.465531
#
# Coordination Sequence:
#
# PCOD9549351 Si02
#       6
#     4   8   8   8   4   8
#     4  10  24  43  69 102 140 186 242 309 361 442
#     4  10  23  45  68 103 143 186 239 307 362 434
#     4  10  24  44  69 104 144 184 248 293 377 437
#     4  11  26  45  76 105 145 193 244 303 370 447
#     4  10  26  43  75 108 140 190 248 299 373 444
#     4  11  24  47  71 103 147 191 242 306 365 443
#
# _framework density 24.960208000000002
#
# number of rings (size 3 to 8) (size 9 to 14) (size 15 to 20)
#    0.000    1.600    2.000    0.000    8.400   11.200 
#    0.000    0.000    0.000    0.000    0.000    0.000 
#    0.000    0.000    0.000    0.000    0.000    0.000 
#
# Total GULP energy -223202.145256 kJ/mol
# GULP energy per Si atom -5580.053631 kJ/mol
# Density = 2.490340 g / cm^3
# Si number density = 24.960208 Si / 1000 Ang^3
#
#
#
# Elastic Constant Matrix: (Units=GPa)
#
#
# Indices 1 2 3 4 5 6 
#
# 1 -82.2639 -208.8161 -168.2951 0.0000 0.0000 0.0000
# 2 -208.8161 -82.2639 -168.2951 0.0000 0.0000 0.0000
# 3 -168.2951 -168.2951 -58.8757 0.0000 0.0000 0.0000
# 4 0.0000 0.0000 0.0000 -452.5265 0.0000 0.0000
# 5 0.0000 0.0000 0.0000 0.0000 -452.5265 0.0000
# 6 0.0000 0.0000 0.0000 0.0000 0.0000 47.9960
#
#
#
# Elastic Compliance Matrix: (Units=1/GPa)
#
#
# Indices 1 2 3 4 5 6 
#
# 1 0.004696 -0.003206 -0.004260 0.000000 0.000000 0.000000
# 2 -0.003206 0.004696 -0.004260 0.000000 0.000000 0.000000
# 3 -0.004260 -0.004260 0.007367 0.000000 0.000000 0.000000
# 4 0.000000 0.000000 0.000000 -0.002210 0.000000 0.000000
# 5 0.000000 0.000000 0.000000 0.000000 -0.002210 0.000000
# 6 0.000000 0.000000 0.000000 0.000000 0.000000 0.020835
#
#
# Mechanical properties :
#
#
# Convention : Reuss Voigt Hill
#
# Bulk Modulus (GPa) = -149.45753 -146.02404 -147.74079
# Shear Modulus (GPa) = 91.92014 -149.94454 -29.01220
#
# Velocity S-wave (km/s) = 6.07508 -7.75911 -3.41301
# Velocity P-wave (km/s) = 3.28626 11.78565 8.65162
#
# Compressibility (1/GPa) = -0.00669086
#
# Stress axis : x y z
#
# Youngs Moduli (GPa) = 212.94574 212.94574 135.73231
#
# Poissons Ratio (x) = 0.68267 0.57817
# Poissons Ratio (y) = 0.68267 0.57817
# Poissons Ratio (z) = 0.90708 0.90708
#
# Static dielectric constant tensor:
#      x y z
#    x 2.359430 0.000000 0.000000 
#    y 0.000000 2.359430 0.000000 
#    z 0.000000 0.000000 2.275600 
# 
# From -- ./inp_files/2681.got.cif
#   From: 2010.05.17/outbox.cif.g08.bks.cpg/sg92_2_cif.got.tgz:2681.got - 2010.06.03 19:35:17.
