data_PCOD9549598
_publ_section_title
;
Structure prediction by ZEFSAII (Michael W. Deem and Ramdas Pophale) SiO2 
 PCOD9549598
Probable space group: P 42 2 2
;
_chemical_formula_sum "Si O2"
_cell_formula_units_Z 48
_cell_length_a 14.490517
_cell_length_b 14.490517
_cell_length_c 12.308160
_cell_angle_alpha 90.000000
_cell_angle_beta 90.000000
_cell_angle_gamma 90.000000
_cell_volume 2584.406917
_symmetry_space_group_name_H-M "P 42 2 2"
_symmetry_group_IT_number 93
_symmetry_cell_setting 'tetragonal'
loop_
_space_group_symop_operation_xyz
x,y,z
-y,x,1/2+z
-x,-y,z
y,-x,1/2+z
x,-y,-z
-x,y,-z
y,x,1/2-z
-y,-x,1/2-z
loop_
_atom_site_type_symbol
_atom_site_label
_atom_site_fract_x
_atom_site_fract_y
_atom_site_fract_z
Si Si1 0.998698 0.727116 0.799292
Si Si2 0.611463 0.182664 0.674601
Si Si3 0.255644 0.683684 0.591368
Si Si4 0.808276 0.922625 0.080997
Si Si5 0.199577 0.500000 0.500000
Si Si6 0.000000 0.849367 0.000000
Si Si7 0.901624 0.550837 0.723244
O O1 0.923137 0.656678 0.750904
O O2 0.086106 0.665890 0.840328
O O3 0.040391 0.790210 0.702625
O O4 0.964133 0.786688 0.900283
O O5 0.650841 0.257713 0.592159
O O6 0.646494 0.223614 0.790044
O O7 0.503753 0.161267 0.689205
O O8 0.171875 0.752590 0.562792
O O9 0.258062 0.591434 0.522090
O O10 0.914671 0.904946 0.051224
O O11 0.770201 0.000000 0.000000
O O12 0.138304 0.472375 0.604510
O O13 0.000000 0.500000 0.727065
#
# Coordination Sequence:
#
# PCOD9549598 Si02
#       7
#     8   8   8   8   4   4   8
#     4  10  20  36  54  77 109 148 198 257 300 355
#     4   8  15  30  50  73 106 152 178 229 302 357
#     4   9  16  29  50  74 111 146 188 237 289 353
#     4  11  22  36  54  74 106 156 207 254 293 347
#     4  10  17  26  50  86 110 145 192 244 304 351
#     4  12  23  36  55  74 108 160 206 239 299 364
#     4   9  17  29  51  80 112 144 191 251 306 351
#
# _framework density 18.572928000000001
#
# number of rings (size 3 to 8) (size 9 to 14) (size 15 to 20)
#    0.000    2.333    1.667    3.000    0.000    0.667 
#    0.000    5.417    0.000    0.000    0.000    0.000 
#    0.000    2.667   18.000   12.167    0.000    3.167 
#
# Total GULP energy -267459.297023 kJ/mol
# GULP energy per Si atom -5572.068688 kJ/mol
# Density = 1.853066 g / cm^3
# Si number density = 18.572928 Si / 1000 Ang^3
#
#
#
# Elastic Constant Matrix: (Units=GPa)
#
#
# Indices 1 2 3 4 5 6 
#
# 1 102.9641 46.6545 38.2397 0.0000 0.0000 0.0000
# 2 46.6545 102.9641 38.2397 0.0000 0.0000 0.0000
# 3 38.2397 38.2397 64.4666 0.0000 0.0000 0.0000
# 4 0.0000 0.0000 0.0000 15.7582 0.0000 0.0000
# 5 0.0000 0.0000 0.0000 0.0000 15.7582 0.0000
# 6 0.0000 0.0000 0.0000 0.0000 0.0000 12.5595
#
#
#
# Elastic Compliance Matrix: (Units=1/GPa)
#
#
# Indices 1 2 3 4 5 6 
#
# 1 0.013675 -0.004083 -0.005690 0.000000 0.000000 0.000000
# 2 -0.004083 0.013675 -0.005690 0.000000 0.000000 0.000000
# 3 -0.005690 -0.005690 0.022262 0.000000 0.000000 0.000000
# 4 0.000000 0.000000 0.000000 0.063459 0.000000 0.000000
# 5 0.000000 0.000000 0.000000 0.000000 0.063459 0.000000
# 6 0.000000 0.000000 0.000000 0.000000 0.000000 0.079621
#
#
# Mechanical properties :
#
#
# Convention : Reuss Voigt Hill
#
# Bulk Modulus (GPa) = 53.51300 57.40699 55.46000
# Shear Modulus (GPa) = 17.04698 18.63255 17.83977
#
# Velocity S-wave (km/s) = 3.03287 3.17079 3.10260
# Velocity P-wave (km/s) = 6.41400 6.66192 6.53914
#
# Compressibility (1/GPa) = 0.01868705
#
# Stress axis : x y z
#
# Youngs Moduli (GPa) = 73.12347 73.12347 44.91991
#
# Poissons Ratio (x) = 0.29860 0.25558
# Poissons Ratio (y) = 0.29860 0.25558
# Poissons Ratio (z) = 0.41605 0.41605
#
# Static dielectric constant tensor:
#      x y z
#    x 1.663130 0.000000 0.000000 
#    y 0.000000 1.663130 0.000000 
#    z 0.000000 0.000000 1.678130 
# 
# From -- ./inp_files/3435.got.cif
#   From: 2010.05.17/outbox.cif.g08.bks.cpg/sg93_2_cif.got.tgz:3435.got - 2010.06.03 19:38:44.
