data_PCOD9549883
_publ_section_title
;
Structure prediction by ZEFSAII (Michael W. Deem and Ramdas Pophale) SiO2 
 PCOD9549883
Probable space group: P 42 2 2
;
_chemical_formula_sum "Si O2"
_cell_formula_units_Z 34
_cell_length_a 11.335026
_cell_length_b 11.335026
_cell_length_c 12.781495
_cell_angle_alpha 90.000000
_cell_angle_beta 90.000000
_cell_angle_gamma 90.000000
_cell_volume 1642.202450
_symmetry_space_group_name_H-M "P 42 2 2"
_symmetry_group_IT_number 93
_symmetry_cell_setting 'tetragonal'
loop_
_space_group_symop_operation_xyz
x,y,z
-y,x,1/2+z
-x,-y,z
y,-x,1/2+z
x,-y,-z
-x,y,-z
y,x,1/2-z
-y,-x,1/2-z
loop_
_atom_site_type_symbol
_atom_site_label
_atom_site_fract_x
_atom_site_fract_y
_atom_site_fract_z
Si Si1 0.383085 0.919679 0.791466
Si Si2 0.247036 0.632550 0.513540
Si Si3 0.105396 0.792984 0.355900
Si Si4 0.000000 0.000000 0.500000
Si Si5 0.628590 0.878963 0.452696
O O1 0.384949 0.818036 0.876471
O O2 0.378200 0.884724 0.671328
O O3 0.500000 0.000000 0.804773
O O4 0.260462 0.984429 0.814548
O O5 0.299095 0.500000 0.500000
O O6 0.157384 0.682872 0.424097
O O7 0.324438 0.750182 0.518764
O O8 0.178809 0.821192 0.250000
O O9 0.075333 0.908617 0.426313
O O10 0.500000 0.881494 0.500000
O O11 0.686172 0.000000 0.500000
#
# Coordination Sequence:
#
# PCOD9549883 Si02
#       5
#     8   8   8   2   8
#     4  12  23  46  71 101 143 197 249 306 380 468
#     4  12  26  43  72 105 146 197 249 306 387 470
#     4  12  27  42  70 104 151 193 249 312 388 465
#     4  12  26  44  66 110 154 192 248 328 390 470
#     4  11  25  46  73 107 144 193 254 321 387 457
#
# _framework density 20.703901999999999
#
# number of rings (size 3 to 8) (size 9 to 14) (size 15 to 20)
#    0.000    0.235    7.059    2.471    4.941    2.353 
#    0.000    0.000    0.000    2.824    0.000    0.000 
#    0.000    0.000    0.000    0.000    0.000    0.000 
#
# Total GULP energy -189457.546103 kJ/mol
# GULP energy per Si atom -5572.280768 kJ/mol
# Density = 2.065678 g / cm^3
# Si number density = 20.703902 Si / 1000 Ang^3
#
#
#
# Elastic Constant Matrix: (Units=GPa)
#
#
# Indices 1 2 3 4 5 6 
#
# 1 101.4514 31.3026 37.2259 0.0000 0.0000 0.0000
# 2 31.3026 101.4529 37.2261 0.0000 0.0000 0.0000
# 3 37.2259 37.2261 142.8124 0.0000 0.0000 0.0000
# 4 0.0000 0.0000 0.0000 29.8988 0.0000 0.0000
# 5 0.0000 0.0000 0.0000 0.0000 29.8991 0.0000
# 6 0.0000 0.0000 0.0000 0.0000 0.0000 -31.4035
#
#
#
# Elastic Compliance Matrix: (Units=1/GPa)
#
#
# Indices 1 2 3 4 5 6 
#
# 1 0.011539 -0.002716 -0.002300 0.000000 0.000000 0.000000
# 2 -0.002716 0.011539 -0.002300 0.000000 0.000000 0.000000
# 3 -0.002300 -0.002300 0.008201 0.000000 0.000000 0.000000
# 4 0.000000 0.000000 0.000000 0.033446 0.000000 0.000000
# 5 0.000000 0.000000 0.000000 0.000000 0.033446 0.000000
# 6 0.000000 0.000000 0.000000 0.000000 0.000000 -0.031844
#
#
# Mechanical properties :
#
#
# Convention : Reuss Voigt Hill
#
# Bulk Modulus (GPa) = 60.07030 61.91399 60.99214
# Shear Modulus (GPa) = 57.79832 21.67637 39.73734
#
# Velocity S-wave (km/s) = 5.28935 3.23920 4.38575
# Velocity P-wave (km/s) = 8.14739 6.63018 7.42763
#
# Compressibility (1/GPa) = 0.01664716
#
# Stress axis : x y z
#
# Youngs Moduli (GPa) = 86.66324 86.66454 121.93524
#
# Poissons Ratio (x) = 0.23542 0.28041
# Poissons Ratio (y) = 0.23542 0.28041
# Poissons Ratio (z) = 0.19930 0.19930
#
# Static dielectric constant tensor:
#      x y z
#    x 1.843270 0.000000 0.000000 
#    y 0.000000 1.843270 0.000000 
#    z 0.000000 0.000000 2.216230 
# 
# From -- ./inp_files/3155.got.cif
#   From: 2010.05.17/outbox.cif.g08.bks.cpg/sg93_2_cif.got.tgz:3155.got - 2010.06.03 19:38:44.
