data_PCOD9549340
_publ_section_title
;
Structure prediction by ZEFSAII (Michael W. Deem and Ramdas Pophale) SiO2 
 PCOD9549340
Probable space group: P 41 21 2
;
_chemical_formula_sum "Si O2"
_cell_formula_units_Z 32
_cell_length_a 8.922654
_cell_length_b 8.922654
_cell_length_c 15.742986
_cell_angle_alpha 90.000000
_cell_angle_beta 90.000000
_cell_angle_gamma 90.000000
_cell_volume 1253.358221
_symmetry_space_group_name_H-M "P 41 21 2"
_symmetry_group_IT_number 92
_symmetry_cell_setting 'tetragonal'
loop_
_space_group_symop_operation_xyz
x,y,z
1/2-y,1/2+x,1/4+z
-x,-y,1/2+z
1/2+y,1/2-x,3/4+z
1/2+x,1/2-y,3/4-z
1/2-x,1/2+y,1/4-z
y,x,-z
-y,-x,1/2-z
loop_
_atom_site_type_symbol
_atom_site_label
_atom_site_fract_x
_atom_site_fract_y
_atom_site_fract_z
Si Si1 0.818466 0.060960 0.117394
Si Si2 0.237571 0.507629 0.249533
Si Si3 0.151333 0.900830 0.348576
Si Si4 0.972097 0.604963 0.036219
O O1 0.347634 0.652367 0.250000
O O2 0.702772 0.096343 0.191184
O O3 0.945271 0.941783 0.140326
O O4 0.713860 0.997403 0.042646
O O5 0.278625 0.420804 0.162195
O O6 0.298147 0.403520 0.326616
O O7 0.437174 0.185620 0.137416
O O8 0.137426 0.862575 0.250000
O O9 0.062715 0.524986 0.267070
#
# Coordination Sequence:
#
# PCOD9549340 Si02
#       4
#     8   8   8   8
#     4  10  23  43  72 113 154 200 258 311 375 457
#     4   9  21  43  69 104 152 205 261 320 383 454
#     4  10  23  44  73 110 154 201 257 324 387 456
#     4  11  22  42  73 109 149 204 263 311 379 461
#
# _framework density 25.531404999999999
#
# number of rings (size 3 to 8) (size 9 to 14) (size 15 to 20)
#    0.000    2.000    0.000    3.750    0.000    8.000 
#    0.000    6.250    0.000   12.000    0.000    1.750 
#    0.000    0.000    0.000    0.000    0.000    0.000 
#
# Total GULP energy -179620.992595 kJ/mol
# GULP energy per Si atom -5613.156019 kJ/mol
# Density = 2.547329 g / cm^3
# Si number density = 25.531405 Si / 1000 Ang^3
#
#
#
# Elastic Constant Matrix: (Units=GPa)
#
#
# Indices 1 2 3 4 5 6 
#
# 1 182.8620 72.7908 82.5330 0.0000 0.0000 0.0000
# 2 72.7908 182.8633 82.5324 0.0000 0.0000 0.0000
# 3 82.5330 82.5324 132.9090 0.0000 0.0000 0.0000
# 4 0.0000 0.0000 0.0000 34.4467 0.0000 0.0000
# 5 0.0000 0.0000 0.0000 0.0000 34.4477 0.0000
# 6 0.0000 0.0000 0.0000 0.0000 0.0000 33.0664
#
#
#
# Elastic Compliance Matrix: (Units=1/GPa)
#
#
# Indices 1 2 3 4 5 6 
#
# 1 0.007807 -0.001278 -0.004055 0.000000 0.000000 0.000000
# 2 -0.001278 0.007807 -0.004055 0.000000 0.000000 0.000000
# 3 -0.004055 -0.004055 0.012560 0.000000 0.000000 0.000000
# 4 0.000000 0.000000 0.000000 0.029030 0.000000 0.000000
# 5 0.000000 0.000000 0.000000 0.000000 0.029030 0.000000
# 6 0.000000 0.000000 0.000000 0.000000 0.000000 0.030242
#
#
# Mechanical properties :
#
#
# Convention : Reuss Voigt Hill
#
# Bulk Modulus (GPa) = 106.38278 108.26073 107.32176
# Shear Modulus (GPa) = 36.13157 37.77739 36.95448
#
# Velocity S-wave (km/s) = 3.76597 3.85079 3.80862
# Velocity P-wave (km/s) = 7.78896 7.89091 7.84010
#
# Compressibility (1/GPa) = 0.00940002
#
# Stress axis : x y z
#
# Youngs Moduli (GPa) = 128.08590 128.08787 79.62093
#
# Poissons Ratio (x) = 0.16367 0.32283
# Poissons Ratio (y) = 0.16366 0.32283
# Poissons Ratio (z) = 0.51934 0.51934
#
# Static dielectric constant tensor:
#      x y z
#    x 2.001840 0.000000 0.000000 
#    y 0.000000 2.001840 0.000000 
#    z 0.000000 0.000000 2.036640 
# 
# From -- ./inp_files/2506.got.cif
#   From: 2010.05.17/outbox.cif.g08.bks.cpg/sg92_2_cif.got.tgz:2506.got - 2010.06.03 19:35:17.
