data_PCOD9549254
_publ_section_title
;
Structure prediction by ZEFSAII (Michael W. Deem and Ramdas Pophale) SiO2 
 PCOD9549254
Probable space group: P 41 21 2
;
_chemical_formula_sum "Si O2"
_cell_formula_units_Z 24
_cell_length_a 12.173612
_cell_length_b 12.173612
_cell_length_c 6.133711
_cell_angle_alpha 90.000000
_cell_angle_beta 90.000000
_cell_angle_gamma 90.000000
_cell_volume 908.996521
_symmetry_space_group_name_H-M "P 41 21 2"
_symmetry_group_IT_number 92
_symmetry_cell_setting 'tetragonal'
loop_
_space_group_symop_operation_xyz
x,y,z
1/2-y,1/2+x,1/4+z
-x,-y,1/2+z
1/2+y,1/2-x,3/4+z
1/2+x,1/2-y,3/4-z
1/2-x,1/2+y,1/4-z
y,x,-z
-y,-x,1/2-z
loop_
_atom_site_type_symbol
_atom_site_label
_atom_site_fract_x
_atom_site_fract_y
_atom_site_fract_z
Si Si1 0.039057 0.039057 0.000000
Si Si2 0.901196 0.238719 0.919161
Si Si3 0.976350 0.646443 0.078462
Si Si4 0.707496 0.292504 0.250000
O O1 0.000921 0.166372 0.014333
O O2 0.000145 0.999855 0.750000
O O3 0.840758 0.159243 0.750000
O O4 0.947086 0.342825 0.790013
O O5 0.801474 0.271068 0.073381
O O6 0.916085 0.763856 0.065059
O O7 0.053226 0.613344 0.879297
#
# Coordination Sequence:
#
# PCOD9549254 Si02
#       4
#     4   8   8   4
#     4  10  22  41  76 112 153 206 268 336 397 474
#     4  11  24  47  73 109 151 201 261 326 401 479
#     4  12  27  48  77 114 154 204 260 326 404 483
#     4  12  26  49  78 106 157 206 254 332 399 480
#
# _framework density 26.402740999999999
#
# number of rings (size 3 to 8) (size 9 to 14) (size 15 to 20)
#    0.000    0.667    5.000    2.000    0.000   10.667 
#    0.000    0.000    0.000    0.000    0.000    0.000 
#    0.000    0.000    0.000    0.000    0.000    0.000 
#
# Total GULP energy -134143.396974 kJ/mol
# GULP energy per Si atom -5589.308207 kJ/mol
# Density = 2.634265 g / cm^3
# Si number density = 26.402741 Si / 1000 Ang^3
#
#
#
# Elastic Constant Matrix: (Units=GPa)
#
#
# Indices 1 2 3 4 5 6 
#
# 1 45.7226 49.1492 22.3430 0.0000 0.0000 0.0000
# 2 49.1492 45.7208 22.3522 0.0000 0.0000 0.0000
# 3 22.3430 22.3522 82.7368 0.0000 0.0000 0.0000
# 4 0.0000 0.0000 0.0000 50.2485 0.0000 0.0000
# 5 0.0000 0.0000 0.0000 0.0000 50.2475 0.0000
# 6 0.0000 0.0000 0.0000 0.0000 0.0000 51.3385
#
#
#
# Elastic Compliance Matrix: (Units=1/GPa)
#
#
# Indices 1 2 3 4 5 6 
#
# 1 -0.139828 0.151918 -0.003282 0.000000 0.000000 0.000000
# 2 0.151918 -0.139852 -0.003243 0.000000 0.000000 0.000000
# 3 -0.003282 -0.003243 0.013849 0.000000 0.000000 0.000000
# 4 0.000000 0.000000 0.000000 0.019901 0.000000 0.000000
# 5 0.000000 0.000000 0.000000 0.000000 0.019901 0.000000
# 6 0.000000 0.000000 0.000000 0.000000 0.000000 0.019479
#
#
# Mechanical properties :
#
#
# Convention : Reuss Voigt Hill
#
# Bulk Modulus (GPa) = 40.07207 40.20767 40.13987
# Shear Modulus (GPa) = -10.22456 35.72261 12.74903
#
# Velocity S-wave (km/s) = -1.97001 3.68229 2.19981
# Velocity P-wave (km/s) = 3.16790 5.77414 4.65705
#
# Compressibility (1/GPa) = 0.02495504
#
# Stress axis : x y z
#
# Youngs Moduli (GPa) = -7.15163 -7.15041 72.20844
#
# Poissons Ratio (x) = 1.08627 0.23696
# Poissons Ratio (y) = 1.08646 0.23415
# Poissons Ratio (z) = -0.02347 -0.02319
#
# Static dielectric constant tensor:
#      x y z
#    x 2.062890 0.000000 0.000000 
#    y 0.000000 2.062880 0.000000 
#    z 0.000000 0.000000 2.149410 
# 
# From -- ./inp_files/185.got.cif
#   From: 2010.05.17/outbox.cif.g08.bks.cpg/sg92_1_cif.got.tgz:185.got - 2010.06.03 19:35:17.
