data_PCOD9549169
_publ_section_title
;
Structure prediction by ZEFSAII (Michael W. Deem and Ramdas Pophale) SiO2 
 PCOD9549169
Probable space group: P 41 21 2
;
_chemical_formula_sum "Si O2"
_cell_formula_units_Z 60
_cell_length_a 11.680287
_cell_length_b 11.680287
_cell_length_c 22.057258
_cell_angle_alpha 90.000000
_cell_angle_beta 90.000000
_cell_angle_gamma 90.000000
_cell_volume 3009.251955
_symmetry_space_group_name_H-M "P 41 21 2"
_symmetry_group_IT_number 92
_symmetry_cell_setting 'tetragonal'
loop_
_space_group_symop_operation_xyz
x,y,z
1/2-y,1/2+x,1/4+z
-x,-y,1/2+z
1/2+y,1/2-x,3/4+z
1/2+x,1/2-y,3/4-z
1/2-x,1/2+y,1/4-z
y,x,-z
-y,-x,1/2-z
loop_
_atom_site_type_symbol
_atom_site_label
_atom_site_fract_x
_atom_site_fract_y
_atom_site_fract_z
Si Si1 0.408157 0.123611 0.482427
Si Si2 0.640351 0.591054 0.070590
Si Si3 0.597125 0.302863 0.870676
Si Si4 0.476837 0.097718 0.941877
Si Si5 0.477103 0.782363 0.097772
Si Si6 0.508269 0.592072 0.636312
Si Si7 0.351237 0.648764 0.750000
Si Si8 0.372929 0.236682 0.046801
O O1 0.413614 0.223198 0.431794
O O2 0.499325 0.149736 0.535679
O O3 0.283259 0.131057 0.513002
O O4 0.434945 0.004415 0.451534
O O5 0.587702 0.699435 0.106642
O O6 0.579364 0.477322 0.093527
O O7 0.608458 0.608458 0.000000
O O8 0.534410 0.203094 0.907176
O O9 0.689606 0.375466 0.908951
O O10 0.498413 0.390096 0.849295
O O11 0.672575 0.240343 0.820017
O O12 0.368856 0.052505 0.902225
O O13 0.441686 0.144722 0.007706
O O14 0.436274 0.623477 0.695130
O O15 0.560911 0.700964 0.601323
O O16 0.335579 0.335579 0.000000
#
# Coordination Sequence:
#
# PCOD9549169 Si02
#       8
#     8   8   8   8   8   8   4   8
#     4  11  24  43  65  97 139 179 233 288 352 414
#     4   9  20  41  70  95 133 184 237 287 343 424
#     4  11  23  42  64 100 139 178 233 289 354 421
#     4  12  25  40  70  99 142 184 233 290 355 427
#     4  10  21  42  65  94 133 180 224 287 343 413
#     4  11  25  42  72  99 137 185 237 289 368 419
#     4  12  26  46  66 102 142 174 230 308 340 428
#     4  12  23  44  69  99 140 185 232 296 351 428
#
# _framework density 19.938509
#
# number of rings (size 3 to 8) (size 9 to 14) (size 15 to 20)
#    0.000    1.067    4.667    2.000    6.533    0.000 
#    0.000    2.667    0.000    0.000    0.000    0.000 
#    0.000    0.000    0.000    0.000    0.000    0.000 
#
# Total GULP energy -335080.473866 kJ/mol
# GULP energy per Si atom -5584.674564 kJ/mol
# Density = 1.989313 g / cm^3
# Si number density = 19.938509 Si / 1000 Ang^3
#
#
#
# Elastic Constant Matrix: (Units=GPa)
#
#
# Indices 1 2 3 4 5 6 
#
# 1 109.1830 65.6711 49.3660 0.0000 0.0000 0.0000
# 2 65.6711 109.1836 49.3660 0.0000 0.0000 0.0000
# 3 49.3660 49.3660 71.8874 0.0000 0.0000 0.0000
# 4 0.0000 0.0000 0.0000 34.6264 0.0000 0.0000
# 5 0.0000 0.0000 0.0000 0.0000 34.6264 0.0000
# 6 0.0000 0.0000 0.0000 0.0000 0.0000 34.5902
#
#
#
# Elastic Compliance Matrix: (Units=1/GPa)
#
#
# Indices 1 2 3 4 5 6 
#
# 1 0.016162 -0.006820 -0.006415 0.000000 0.000000 0.000000
# 2 -0.006820 0.016162 -0.006415 0.000000 0.000000 0.000000
# 3 -0.006415 -0.006415 0.022721 0.000000 0.000000 0.000000
# 4 0.000000 0.000000 0.000000 0.028880 0.000000 0.000000
# 5 0.000000 0.000000 0.000000 0.000000 0.028880 0.000000
# 6 0.000000 0.000000 0.000000 0.000000 0.000000 0.028910
#
#
# Mechanical properties :
#
#
# Convention : Reuss Voigt Hill
#
# Bulk Modulus (GPa) = 63.51514 68.78446 66.14980
# Shear Modulus (GPa) = 26.84406 29.15864 28.00135
#
# Velocity S-wave (km/s) = 3.67323 3.82832 3.75158
# Velocity P-wave (km/s) = 7.06505 7.35626 7.21212
#
# Compressibility (1/GPa) = 0.01574428
#
# Stress axis : x y z
#
# Youngs Moduli (GPa) = 61.87480 61.87541 44.01277
#
# Poissons Ratio (x) = 0.42202 0.28233
# Poissons Ratio (y) = 0.42202 0.28232
# Poissons Ratio (z) = 0.39691 0.39690
#
# Static dielectric constant tensor:
#      x y z
#    x 1.727200 0.000000 0.000000 
#    y 0.000000 1.727200 0.000000 
#    z 0.000000 0.000000 1.690190 
# 
# From -- ./inp_files/3613.got.cif
#   From: 2010.05.17/outbox.cif.g08.bks.cpg/sg92_2_cif.got.tgz:3613.got - 2010.06.03 19:35:17.
