data_PCOD9549577
_publ_section_title
;
Structure prediction by ZEFSAII (Michael W. Deem and Ramdas Pophale) SiO2 
 PCOD9549577
Probable space group: P 41 21 2
;
_chemical_formula_sum "Si O2"
_cell_formula_units_Z 32
_cell_length_a 8.490784
_cell_length_b 8.490784
_cell_length_c 15.901573
_cell_angle_alpha 90.000000
_cell_angle_beta 90.000000
_cell_angle_gamma 90.000000
_cell_volume 1146.398669
_symmetry_space_group_name_H-M "P 41 21 2"
_symmetry_group_IT_number 92
_symmetry_cell_setting 'tetragonal'
loop_
_space_group_symop_operation_xyz
x,y,z
1/2-y,1/2+x,1/4+z
-x,-y,1/2+z
1/2+y,1/2-x,3/4+z
1/2+x,1/2-y,3/4-z
1/2-x,1/2+y,1/4-z
y,x,-z
-y,-x,1/2-z
loop_
_atom_site_type_symbol
_atom_site_label
_atom_site_fract_x
_atom_site_fract_y
_atom_site_fract_z
Si Si1 0.393811 0.692546 0.841146
Si Si2 0.050780 0.659671 0.371028
Si Si3 0.601470 0.467657 0.914263
Si Si4 0.614803 0.943124 0.800042
O O1 0.318359 0.681642 0.750000
O O2 0.553338 0.589702 0.841967
O O3 0.466904 0.865639 0.849367
O O4 0.272560 0.631030 0.911565
O O5 0.227994 0.609627 0.397808
O O6 0.038522 0.839721 0.342681
O O7 0.932693 0.627624 0.448998
O O8 0.924136 0.595898 0.299065
O O9 0.568648 0.568648 0.000000
#
# Coordination Sequence:
#
# PCOD9549577 Si02
#       4
#     8   8   8   8
#     4  12  27  49  77 119 166 221 286 358 438 527
#     4  12  29  49  82 121 170 225 289 364 442 540
#     4  12  29  50  83 122 174 224 293 366 449 534
#     4  12  27  51  79 122 168 224 289 354 446 528
#
# _framework density 27.913499999999999
#
# number of rings (size 3 to 8) (size 9 to 14) (size 15 to 20)
#    0.000    0.000    5.000    3.000    7.000    2.000 
#    0.000    0.000    0.000    0.000    0.000    0.000 
#    0.000    0.000    0.000    0.000    0.000    0.000 
#
# Total GULP energy -178162.688621 kJ/mol
# GULP energy per Si atom -5567.584019 kJ/mol
# Density = 2.784997 g / cm^3
# Si number density = 27.913500 Si / 1000 Ang^3
#
#
#
# Elastic Constant Matrix: (Units=GPa)
#
#
# Indices 1 2 3 4 5 6 
#
# 1 470.9786 -240.4905 30.4756 0.0000 0.0000 0.0000
# 2 -240.4905 470.9789 30.4668 0.0000 0.0000 0.0000
# 3 30.4756 30.4668 60.0395 0.0000 0.0000 0.0000
# 4 0.0000 0.0000 0.0000 33.3399 0.0000 0.0000
# 5 0.0000 0.0000 0.0000 0.0000 33.3394 0.0000
# 6 0.0000 0.0000 0.0000 0.0000 0.0000 78.9683
#
#
#
# Elastic Compliance Matrix: (Units=1/GPa)
#
#
# Indices 1 2 3 4 5 6 
#
# 1 0.003208 0.001803 -0.002543 0.000000 0.000000 0.000000
# 2 0.001803 0.003208 -0.002543 0.000000 0.000000 0.000000
# 3 -0.002543 -0.002543 0.019237 0.000000 0.000000 0.000000
# 4 0.000000 0.000000 0.000000 0.029994 0.000000 0.000000
# 5 0.000000 0.000000 0.000000 0.000000 0.029995 0.000000
# 6 0.000000 0.000000 0.000000 0.000000 0.000000 0.012663
#
#
# Mechanical properties :
#
#
# Convention : Reuss Voigt Hill
#
# Bulk Modulus (GPa) = 52.39324 71.43340 61.91332
# Shear Modulus (GPa) = 44.94983 107.89921 76.42452
#
# Velocity S-wave (km/s) = 4.01724 6.22405 5.23818
# Velocity P-wave (km/s) = 6.35045 8.79194 7.66898
#
# Compressibility (1/GPa) = 0.01908643
#
# Stress axis : x y z
#
# Youngs Moduli (GPa) = 311.68855 311.69485 51.98278
#
# Poissons Ratio (x) = -0.56191 0.13221
# Poissons Ratio (y) = -0.56190 0.13220
# Poissons Ratio (z) = 0.79272 0.79267
#
# Static dielectric constant tensor:
#      x y z
#    x 2.459740 0.000000 0.000000 
#    y 0.000000 2.459740 0.000000 
#    z 0.000000 0.000000 2.105650 
# 
# From -- ./inp_files/3377.got.cif
#   From: 2010.05.17/outbox.cif.g08.bks.cpg/sg92_2_cif.got.tgz:3377.got - 2010.06.03 19:35:17.
