data_PCOD9549703
_publ_section_title
;
Structure prediction by ZEFSAII (Michael W. Deem and Ramdas Pophale) SiO2 
 PCOD9549703
Probable space group: P 42 2 2
;
_chemical_formula_sum "Si O2"
_cell_formula_units_Z 40
_cell_length_a 14.912443
_cell_length_b 14.912443
_cell_length_c 9.978845
_cell_angle_alpha 90.000000
_cell_angle_beta 90.000000
_cell_angle_gamma 90.000000
_cell_volume 2219.105093
_symmetry_space_group_name_H-M "P 42 2 2"
_symmetry_group_IT_number 93
_symmetry_cell_setting 'tetragonal'
loop_
_space_group_symop_operation_xyz
x,y,z
-y,x,1/2+z
-x,-y,z
y,-x,1/2+z
x,-y,-z
-x,y,-z
y,x,1/2-z
-y,-x,1/2-z
loop_
_atom_site_type_symbol
_atom_site_label
_atom_site_fract_x
_atom_site_fract_y
_atom_site_fract_z
Si Si1 0.921606 0.678956 0.098075
Si Si2 0.301171 0.920979 0.907719
Si Si3 0.732830 0.584886 0.093715
Si Si4 0.913275 0.892457 0.095891
Si Si5 0.260875 0.411341 0.410130
O O1 0.943527 0.671878 0.255158
O O2 0.828201 0.631836 0.066167
O O3 0.909805 0.785432 0.084543
O O4 0.000000 0.647594 0.000000
O O5 0.192313 0.917015 0.928849
O O6 0.348374 0.825976 0.935244
O O7 0.336267 0.000000 0.000000
O O8 0.735602 0.563482 0.252450
O O9 0.652201 0.653684 0.066687
O O10 0.722589 0.500000 0.000000
O O11 0.925519 0.925519 0.250000
O O12 0.000000 0.914137 0.000000
O O13 0.259387 0.500000 0.500000
#
# Coordination Sequence:
#
# PCOD9549703 Si02
#       5
#     8   8   8   8   8
#     4   9  18  36  59  84 114 153 194 234 277 336
#     4  10  20  36  58  84 116 155 192 233 285 335
#     4  10  21  39  64  86 113 153 188 232 292 345
#     4   9  17  34  59  82 116 157 197 235 279 331
#     4  10  22  41  61  84 117 150 187 238 290 345
#
# _framework density 18.025283999999999
#
# number of rings (size 3 to 8) (size 9 to 14) (size 15 to 20)
#    0.000    2.400    2.000    0.000    0.000    4.000 
#    0.000   18.000    0.000    0.000    0.000    0.000 
#    0.000    0.000    0.000    0.000    0.000    0.000 
#
# Total GULP energy -222740.392675 kJ/mol
# GULP energy per Si atom -5568.509817 kJ/mol
# Density = 1.798426 g / cm^3
# Si number density = 18.025284 Si / 1000 Ang^3
#
#
#
# Elastic Constant Matrix: (Units=GPa)
#
#
# Indices 1 2 3 4 5 6 
#
# 1 125.2168 85.8833 99.3779 0.0000 0.0000 0.0000
# 2 85.8833 125.2168 99.3779 0.0000 0.0000 0.0000
# 3 99.3779 99.3779 102.8849 0.0000 0.0000 0.0000
# 4 0.0000 0.0000 0.0000 35.3485 0.0000 0.0000
# 5 0.0000 0.0000 0.0000 0.0000 35.3485 0.0000
# 6 0.0000 0.0000 0.0000 0.0000 0.0000 13.9840
#
#
#
# Elastic Compliance Matrix: (Units=1/GPa)
#
#
# Indices 1 2 3 4 5 6 
#
# 1 0.038863 0.013440 -0.050520 0.000000 0.000000 0.000000
# 2 0.013440 0.038863 -0.050520 0.000000 0.000000 0.000000
# 3 -0.050520 -0.050520 0.107316 0.000000 0.000000 0.000000
# 4 0.000000 0.000000 0.000000 0.028290 0.000000 0.000000
# 5 0.000000 0.000000 0.000000 0.000000 0.028290 0.000000
# 6 0.000000 0.000000 0.000000 0.000000 0.000000 0.071510
#
#
# Mechanical properties :
#
#
# Convention : Reuss Voigt Hill
#
# Bulk Modulus (GPa) = 101.61419 102.51072 102.06245
# Shear Modulus (GPa) = 10.17058 21.51484 15.84271
#
# Velocity S-wave (km/s) = 2.37795 3.45859 2.96787
# Velocity P-wave (km/s) = 8.00219 8.54067 8.27581
#
# Compressibility (1/GPa) = 0.00984115
#
# Stress axis : x y z
#
# Youngs Moduli (GPa) = 25.73119 25.73119 9.31829
#
# Poissons Ratio (x) = -0.34582 0.47076
# Poissons Ratio (y) = -0.34582 0.47076
# Poissons Ratio (z) = 1.29994 1.29994
#
# Static dielectric constant tensor:
#      x y z
#    x 1.606740 0.000000 0.000000 
#    y 0.000000 1.606740 0.000000 
#    z 0.000000 0.000000 1.610340 
# 
# From -- ./inp_files/1846.got.cif
#   From: 2010.05.17/outbox.cif.g08.bks.cpg/sg93_1_cif.got.tgz:1846.got - 2010.06.03 19:38:44.
