data_PCOD9549679
_publ_section_title
;
Structure prediction by ZEFSAII (Michael W. Deem and Ramdas Pophale) SiO2 
 PCOD9549679
Probable space group: P 42 2 2
;
_chemical_formula_sum "Si O2"
_cell_formula_units_Z 48
_cell_length_a 14.131290
_cell_length_b 14.131290
_cell_length_c 12.332559
_cell_angle_alpha 90.000000
_cell_angle_beta 90.000000
_cell_angle_gamma 90.000000
_cell_volume 2462.730108
_symmetry_space_group_name_H-M "P 42 2 2"
_symmetry_group_IT_number 93
_symmetry_cell_setting 'tetragonal'
loop_
_space_group_symop_operation_xyz
x,y,z
-y,x,1/2+z
-x,-y,z
y,-x,1/2+z
x,-y,-z
-x,y,-z
y,x,1/2-z
-y,-x,1/2-z
loop_
_atom_site_type_symbol
_atom_site_label
_atom_site_fract_x
_atom_site_fract_y
_atom_site_fract_z
Si Si1 0.399110 0.106084 0.951365
Si Si2 0.472489 0.892383 0.285287
Si Si3 0.889502 0.333212 0.029667
Si Si4 0.858171 0.189987 0.445554
Si Si5 0.165738 0.950997 0.825284
Si Si6 0.676159 0.823012 0.286319
O O1 0.410617 0.102114 0.822495
O O2 0.301305 0.160636 0.970560
O O3 0.500000 0.139720 0.000000
O O4 0.385284 0.000000 0.000000
O O5 0.416322 0.857316 0.390271
O O6 0.567570 0.836823 0.254539
O O7 0.500000 0.000000 0.312009
O O8 0.867682 0.233875 0.087120
O O9 0.835442 0.326442 0.915726
O O10 0.000000 0.343004 0.000000
O O11 0.897793 0.151347 0.559836
O O12 0.941039 0.181250 0.357503
O O13 0.078470 0.921531 0.750000
O O14 0.258024 0.905100 0.766837
O O15 0.726856 0.726856 0.250000
#
# Coordination Sequence:
#
# PCOD9549679 Si02
#       6
#     8   8   8   8   8   8
#     4  11  21  36  66  94 119 166 216 274 333 383
#     4  12  23  39  64  97 132 165 220 286 338 393
#     4  12  26  40  62  97 135 174 219 277 336 392
#     4  11  22  39  62  92 129 163 224 269 316 391
#     4  10  19  38  66  85 122 177 221 260 312 388
#     4  11  22  42  68  92 130 179 218 270 342 411
#
# _framework density 19.490565
#
# number of rings (size 3 to 8) (size 9 to 14) (size 15 to 20)
#    0.000    0.833    8.333    2.500    0.000    0.667 
#    0.000    2.500    0.000    0.000    0.000    2.333 
#    0.000    0.000    0.000    0.000    0.000    0.000 
#
# Total GULP energy -268280.924771 kJ/mol
# GULP energy per Si atom -5589.185933 kJ/mol
# Density = 1.944620 g / cm^3
# Si number density = 19.490565 Si / 1000 Ang^3
#
#
#
# Elastic Constant Matrix: (Units=GPa)
#
#
# Indices 1 2 3 4 5 6 
#
# 1 58.4218 33.4529 31.9968 0.0000 0.0000 0.0000
# 2 33.4529 58.4206 31.9963 0.0000 0.0000 0.0000
# 3 31.9968 31.9963 122.2288 0.0000 0.0000 0.0000
# 4 0.0000 0.0000 0.0000 30.6493 0.0000 0.0000
# 5 0.0000 0.0000 0.0000 0.0000 30.6499 0.0000
# 6 0.0000 0.0000 0.0000 0.0000 0.0000 12.1167
#
#
#
# Elastic Compliance Matrix: (Units=1/GPa)
#
#
# Indices 1 2 3 4 5 6 
#
# 1 0.026681 -0.013370 -0.003485 0.000000 0.000000 0.000000
# 2 -0.013370 0.026681 -0.003485 0.000000 0.000000 0.000000
# 3 -0.003485 -0.003485 0.010006 0.000000 0.000000 0.000000
# 4 0.000000 0.000000 0.000000 0.032627 0.000000 0.000000
# 5 0.000000 0.000000 0.000000 0.000000 0.032627 0.000000
# 6 0.000000 0.000000 0.000000 0.000000 0.000000 0.082531
#
#
# Mechanical properties :
#
#
# Convention : Reuss Voigt Hill
#
# Bulk Modulus (GPa) = 44.07153 48.21815 46.14484
# Shear Modulus (GPa) = 19.27571 24.12485 21.70028
#
# Velocity S-wave (km/s) = 3.14821 3.52201 3.34035
# Velocity P-wave (km/s) = 5.98964 6.42903 6.21322
#
# Compressibility (1/GPa) = 0.02269038
#
# Stress axis : x y z
#
# Youngs Moduli (GPa) = 37.47995 37.47921 99.94218
#
# Poissons Ratio (x) = 0.50108 0.34827
# Poissons Ratio (y) = 0.50109 0.34826
# Poissons Ratio (z) = 0.13061 0.13060
#
# Static dielectric constant tensor:
#      x y z
#    x 1.718700 0.000000 0.000000 
#    y 0.000000 1.718700 0.000000 
#    z 0.000000 0.000000 1.706470 
# 
# From -- ./inp_files/3406.got.cif
#   From: 2010.05.17/outbox.cif.g08.bks.cpg/sg93_2_cif.got.tgz:3406.got - 2010.06.03 19:38:44.
