data_PCOD9549366
_publ_section_title
;
Structure prediction by ZEFSAII (Michael W. Deem and Ramdas Pophale) SiO2 
 PCOD9549366
Probable space group: P 41 21 2
;
_chemical_formula_sum "Si O2"
_cell_formula_units_Z 36
_cell_length_a 9.359393
_cell_length_b 9.359393
_cell_length_c 16.100504
_cell_angle_alpha 90.000000
_cell_angle_beta 90.000000
_cell_angle_gamma 90.000000
_cell_volume 1410.375770
_symmetry_space_group_name_H-M "P 41 21 2"
_symmetry_group_IT_number 92
_symmetry_cell_setting 'tetragonal'
loop_
_space_group_symop_operation_xyz
x,y,z
1/2-y,1/2+x,1/4+z
-x,-y,1/2+z
1/2+y,1/2-x,3/4+z
1/2+x,1/2-y,3/4-z
1/2-x,1/2+y,1/4-z
y,x,-z
-y,-x,1/2-z
loop_
_atom_site_type_symbol
_atom_site_label
_atom_site_fract_x
_atom_site_fract_y
_atom_site_fract_z
Si Si1 0.204830 0.475600 0.313773
Si Si2 0.874057 0.545302 0.288647
Si Si3 0.836433 0.777782 0.144215
Si Si4 0.456644 0.456644 0.000000
Si Si5 0.931589 0.794335 0.390997
O O1 0.202367 0.331201 0.365445
O O2 0.284970 0.478650 0.224754
O O3 0.302485 0.592010 0.360320
O O4 0.040173 0.502646 0.291478
O O5 0.845883 0.642401 0.208330
O O6 0.767227 0.418041 0.310920
O O7 0.859337 0.645469 0.370019
O O8 0.907356 0.916108 0.190884
O O9 0.330023 0.463215 0.065774
#
# Coordination Sequence:
#
# PCOD9549366 Si02
#       5
#     8   8   8   4   8
#     4  11  25  44  69 106 142 186 246 304 365 439
#     4  11  24  43  71 101 140 187 245 290 368 442
#     4  11  25  42  70 102 141 184 238 307 363 444
#     4  10  24  40  74 100 138 186 248 288 386 440
#     4  10  24  44  72  98 141 190 241 298 360 449
#
# _framework density 25.525113000000001
#
# number of rings (size 3 to 8) (size 9 to 14) (size 15 to 20)
#    0.000    1.333    2.222    1.333   15.556    0.000 
#    0.000    0.000    0.000    0.000    0.000    0.000 
#    0.000    0.000    0.000    0.000    0.000    0.000 
#
# Total GULP energy -201275.205648 kJ/mol
# GULP energy per Si atom -5590.977935 kJ/mol
# Density = 2.546702 g / cm^3
# Si number density = 25.525113 Si / 1000 Ang^3
#
#
#
# Elastic Constant Matrix: (Units=GPa)
#
#
# Indices 1 2 3 4 5 6 
#
# 1 75.0640 48.3606 4.1982 0.0000 0.0000 0.0000
# 2 48.3606 75.0640 4.1982 0.0000 0.0000 0.0000
# 3 4.1982 4.1982 52.8907 0.0000 0.0000 0.0000
# 4 0.0000 0.0000 0.0000 24.6078 0.0000 0.0000
# 5 0.0000 0.0000 0.0000 0.0000 24.6078 0.0000
# 6 0.0000 0.0000 0.0000 0.0000 0.0000 42.9348
#
#
#
# Elastic Compliance Matrix: (Units=1/GPa)
#
#
# Indices 1 2 3 4 5 6 
#
# 1 0.022797 -0.014651 -0.000647 0.000000 0.000000 0.000000
# 2 -0.014651 0.022797 -0.000647 0.000000 0.000000 0.000000
# 3 -0.000647 -0.000647 0.019010 0.000000 0.000000 0.000000
# 4 0.000000 0.000000 0.000000 0.040638 0.000000 0.000000
# 5 0.000000 0.000000 0.000000 0.000000 0.040638 0.000000
# 6 0.000000 0.000000 0.000000 0.000000 0.000000 0.023291
#
#
# Mechanical properties :
#
#
# Convention : Reuss Voigt Hill
#
# Bulk Modulus (GPa) = 30.56670 35.17033 32.86852
# Shear Modulus (GPa) = 23.58890 28.18085 25.88487
#
# Velocity S-wave (km/s) = 3.04327 3.32632 3.18794
# Velocity P-wave (km/s) = 4.93455 5.34427 5.14349
#
# Compressibility (1/GPa) = 0.03271534
#
# Stress axis : x y z
#
# Youngs Moduli (GPa) = 43.86495 43.86495 52.60515
#
# Poissons Ratio (x) = 0.64267 0.03401
# Poissons Ratio (y) = 0.64267 0.03401
# Poissons Ratio (z) = 0.02836 0.02836
#
# Static dielectric constant tensor:
#      x y z
#    x 2.038480 0.000000 0.000000 
#    y 0.000000 2.038480 0.000000 
#    z 0.000000 0.000000 2.008150 
# 
# From -- ./inp_files/3460.got.cif
#   From: 2010.05.17/outbox.cif.g08.bks.cpg/sg92_2_cif.got.tgz:3460.got - 2010.06.03 19:35:17.
