data_PCOD9549291
_publ_section_title
;
Structure prediction by ZEFSAII (Michael W. Deem and Ramdas Pophale) SiO2 
 PCOD9549291
Probable space group: P 41 21 2
;
_chemical_formula_sum "Si O2"
_cell_formula_units_Z 60
_cell_length_a 17.637309
_cell_length_b 17.637309
_cell_length_c 7.689402
_cell_angle_alpha 90.000000
_cell_angle_beta 90.000000
_cell_angle_gamma 90.000000
_cell_volume 2391.978180
_symmetry_space_group_name_H-M "P 41 21 2"
_symmetry_group_IT_number 92
_symmetry_cell_setting 'tetragonal'
loop_
_space_group_symop_operation_xyz
x,y,z
1/2-y,1/2+x,1/4+z
-x,-y,1/2+z
1/2+y,1/2-x,3/4+z
1/2+x,1/2-y,3/4-z
1/2-x,1/2+y,1/4-z
y,x,-z
-y,-x,1/2-z
loop_
_atom_site_type_symbol
_atom_site_label
_atom_site_fract_x
_atom_site_fract_y
_atom_site_fract_z
Si Si1 0.084238 0.516224 0.634419
Si Si2 0.214522 0.055769 0.297731
Si Si3 0.590289 0.409712 0.750000
Si Si4 0.644349 0.758230 0.988988
Si Si5 0.384526 0.768714 0.897239
Si Si6 0.796262 0.004308 0.376432
Si Si7 0.129157 0.363439 0.822572
Si Si8 0.732452 0.605508 0.531912
O O1 0.014784 0.567734 0.695076
O O2 0.156377 0.567826 0.647530
O O3 0.093130 0.442787 0.759102
O O4 0.152901 0.084389 0.156825
O O5 0.215209 0.099078 0.480921
O O6 0.295461 0.069871 0.199589
O O7 0.208555 0.966339 0.338480
O O8 0.513367 0.385612 0.649262
O O9 0.697143 0.800061 0.134457
O O10 0.554341 0.749034 0.987737
O O11 0.673360 0.673360 0.000000
O O12 0.659729 0.806199 0.817140
O O13 0.419893 0.734450 0.073177
O O14 0.777026 0.061520 0.535505
O O15 0.179759 0.373832 0.994213
O O16 0.675772 0.675772 0.500000
#
# Coordination Sequence:
#
# PCOD9549291 Si02
#       8
#     8   8   4   8   8   8   8   8
#     4  12  22  45  65  99 145 190 240 289 375 471
#     4  10  22  44  69  99 143 186 245 312 378 462
#     4  10  26  42  64 100 144 186 244 312 384 438
#     4  11  23  42  74 105 134 187 252 314 378 448
#     4  11  22  44  71  99 147 187 245 308 379 453
#     4  11  24  43  66 105 143 188 249 311 369 471
#     4  11  21  43  67  98 138 188 235 306 382 443
#     4  11  23  41  67 100 146 188 239 309 383 444
#
# _framework density 25.083839000000001
#
# number of rings (size 3 to 8) (size 9 to 14) (size 15 to 20)
#    0.000    1.067    5.333    0.800    4.667    2.133 
#   14.400    2.667    0.000    0.000    0.000    0.000 
#    0.000    0.000    0.000    0.000    0.000    0.000 
#
# Total GULP energy -334419.017354 kJ/mol
# GULP energy per Si atom -5573.650289 kJ/mol
# Density = 2.502675 g / cm^3
# Si number density = 25.083839 Si / 1000 Ang^3
#
#
#
# Elastic Constant Matrix: (Units=GPa)
#
#
# Indices 1 2 3 4 5 6 
#
# 1 43.6385 42.4619 -8.7652 0.0000 0.0000 0.0000
# 2 42.4619 43.6382 -8.7650 0.0000 0.0000 0.0000
# 3 -8.7652 -8.7650 83.9632 0.0000 0.0000 0.0000
# 4 0.0000 0.0000 0.0000 31.5567 0.0000 0.0000
# 5 0.0000 0.0000 0.0000 0.0000 31.5568 0.0000
# 6 0.0000 0.0000 0.0000 0.0000 0.0000 48.2928
#
#
#
# Elastic Compliance Matrix: (Units=1/GPa)
#
#
# Indices 1 2 3 4 5 6 
#
# 1 0.430938 -0.419073 0.001240 0.000000 0.000000 0.000000
# 2 -0.419073 0.430941 0.001238 0.000000 0.000000 0.000000
# 3 0.001240 0.001238 0.012169 0.000000 0.000000 0.000000
# 4 0.000000 0.000000 0.000000 0.031689 0.000000 0.000000
# 5 0.000000 0.000000 0.000000 0.000000 0.031689 0.000000
# 6 0.000000 0.000000 0.000000 0.000000 0.000000 0.020707
#
#
# Mechanical properties :
#
#
# Convention : Reuss Voigt Hill
#
# Bulk Modulus (GPa) = 24.47564 24.56701 24.52132
# Shear Modulus (GPa) = 2.77017 32.03513 17.40265
#
# Velocity S-wave (km/s) = 1.05203 3.57756 2.63683
# Velocity P-wave (km/s) = 3.35476 5.18464 4.36663
#
# Compressibility (1/GPa) = 0.04085695
#
# Stress axis : x y z
#
# Youngs Moduli (GPa) = 2.32052 2.32050 82.17857
#
# Poissons Ratio (x) = 0.97246 -0.10186
# Poissons Ratio (y) = 0.97247 -0.10174
# Poissons Ratio (z) = -0.00288 -0.00287
#
# Static dielectric constant tensor:
#      x y z
#    x 1.995730 0.000000 0.000000 
#    y 0.000000 1.995730 0.000000 
#    z 0.000000 0.000000 2.254410 
# 
# From -- ./inp_files/1625.got.cif
#   From: 2010.05.17/outbox.cif.g08.bks.cpg/sg92_1_cif.got.tgz:1625.got - 2010.06.03 19:35:17.
