data_PCOD9549706
_publ_section_title
;
Structure prediction by ZEFSAII (Michael W. Deem and Ramdas Pophale) SiO2 
 PCOD9549706
Probable space group: P 42 2 2
;
_chemical_formula_sum "Si O2"
_cell_formula_units_Z 38
_cell_length_a 12.081359
_cell_length_b 12.081359
_cell_length_c 13.301358
_cell_angle_alpha 90.000000
_cell_angle_beta 90.000000
_cell_angle_gamma 90.000000
_cell_volume 1941.456042
_symmetry_space_group_name_H-M "P 42 2 2"
_symmetry_group_IT_number 93
_symmetry_cell_setting 'tetragonal'
loop_
_space_group_symop_operation_xyz
x,y,z
-y,x,1/2+z
-x,-y,z
y,-x,1/2+z
x,-y,-z
-x,y,-z
y,x,1/2-z
-y,-x,1/2-z
loop_
_atom_site_type_symbol
_atom_site_label
_atom_site_fract_x
_atom_site_fract_y
_atom_site_fract_z
Si Si1 0.875574 0.706474 0.709619
Si Si2 0.515141 0.161174 0.666927
Si Si3 0.134816 0.715168 0.683617
Si Si4 0.623527 0.242715 0.011123
Si Si5 0.500000 0.000000 0.500000
Si Si6 0.661492 0.500000 0.000000
O O1 0.817422 0.817422 0.750000
O O2 0.874119 0.604587 0.789815
O O3 0.798627 0.668319 0.617409
O O4 0.002356 0.723310 0.676453
O O5 0.602266 0.163139 0.755970
O O6 0.501323 0.272999 0.605663
O O7 0.560572 0.080223 0.578211
O O8 0.186773 0.813228 0.750000
O O9 0.194493 0.701677 0.576529
O O10 0.614233 0.375512 0.002485
O O11 0.500000 0.194918 0.000000
#
# Coordination Sequence:
#
# PCOD9549706 Si02
#       6
#     8   8   8   8   2   4
#     4  12  25  44  67  97 136 180 229 283 338 402
#     4  11  21  40  69  92 123 173 233 282 323 391
#     4  12  25  44  67  97 136 180 229 283 338 402
#     4  12  25  41  68 102 140 176 222 274 352 422
#     4  10  20  36  66  98 108 156 242 280 314 368
#     4  11  23  41  65 102 132 172 216 281 343 406
#
# _framework density 19.572937
#
# number of rings (size 3 to 8) (size 9 to 14) (size 15 to 20)
#    0.000    0.421    8.421    0.947    0.000    1.263 
#    0.000    0.000    0.000    2.526    0.000    0.000 
#    0.000    0.000    0.000    0.000    0.000    0.000 
#
# Total GULP energy -211859.818973 kJ/mol
# GULP energy per Si atom -5575.258394 kJ/mol
# Density = 1.952839 g / cm^3
# Si number density = 19.572937 Si / 1000 Ang^3
#
#
#
# Elastic Constant Matrix: (Units=GPa)
#
#
# Indices 1 2 3 4 5 6 
#
# 1 111.7900 32.8836 27.9847 0.0000 0.0000 0.0000
# 2 32.8836 111.7889 27.9850 0.0000 0.0000 0.0000
# 3 27.9847 27.9850 93.9300 0.0000 0.0000 0.0000
# 4 0.0000 0.0000 0.0000 18.0173 0.0000 0.0000
# 5 0.0000 0.0000 0.0000 0.0000 18.0182 0.0000
# 6 0.0000 0.0000 0.0000 0.0000 0.0000 8.7399
#
#
#
# Elastic Compliance Matrix: (Units=1/GPa)
#
#
# Indices 1 2 3 4 5 6 
#
# 1 0.010243 -0.002430 -0.002328 0.000000 0.000000 0.000000
# 2 -0.002430 0.010243 -0.002328 0.000000 0.000000 0.000000
# 3 -0.002328 -0.002328 0.012033 0.000000 0.000000 0.000000
# 4 0.000000 0.000000 0.000000 0.055502 0.000000 0.000000
# 5 0.000000 0.000000 0.000000 0.000000 0.055499 0.000000
# 6 0.000000 0.000000 0.000000 0.000000 0.000000 0.114418
#
#
# Mechanical properties :
#
#
# Convention : Reuss Voigt Hill
#
# Bulk Modulus (GPa) = 54.50217 55.02393 54.76305
# Shear Modulus (GPa) = 17.97101 24.19879 21.08490
#
# Velocity S-wave (km/s) = 3.03340 3.51998 3.28571
# Velocity P-wave (km/s) = 6.33836 6.68533 6.51415
#
# Compressibility (1/GPa) = 0.01834789
#
# Stress axis : x y z
#
# Youngs Moduli (GPa) = 97.62840 97.62717 83.10352
#
# Poissons Ratio (x) = 0.23727 0.19343
# Poissons Ratio (y) = 0.23727 0.19344
# Poissons Ratio (z) = 0.22724 0.22724
#
# Static dielectric constant tensor:
#      x y z
#    x 1.702020 0.000000 0.000000 
#    y 0.000000 1.702020 0.000000 
#    z 0.000000 0.000000 1.672040 
# 
# From -- ./inp_files/4381.got.cif
#   From: 2010.05.17/outbox.cif.g08.bks.cpg/sg93_3_cif.got.tgz:4381.got - 2010.06.03 19:38:44.
