data_PCOD9549129
_publ_section_title
;
Structure prediction by ZEFSAII (Michael W. Deem and Ramdas Pophale) SiO2 
 PCOD9549129
Probable space group: P 41 21 2
;
_chemical_formula_sum "Si O2"
_cell_formula_units_Z 48
_cell_length_a 9.107818
_cell_length_b 9.107818
_cell_length_c 31.392894
_cell_angle_alpha 90.000000
_cell_angle_beta 90.000000
_cell_angle_gamma 90.000000
_cell_volume 2604.114290
_symmetry_space_group_name_H-M "P 41 21 2"
_symmetry_group_IT_number 92
_symmetry_cell_setting 'tetragonal'
loop_
_space_group_symop_operation_xyz
x,y,z
1/2-y,1/2+x,1/4+z
-x,-y,1/2+z
1/2+y,1/2-x,3/4+z
1/2+x,1/2-y,3/4-z
1/2-x,1/2+y,1/4-z
y,x,-z
-y,-x,1/2-z
loop_
_atom_site_type_symbol
_atom_site_label
_atom_site_fract_x
_atom_site_fract_y
_atom_site_fract_z
Si Si1 0.673903 0.325901 0.001902
Si Si2 0.675265 0.675265 0.500000
Si Si3 0.673261 0.665578 0.169408
Si Si4 0.175269 0.351338 0.165998
Si Si5 0.326733 0.326733 0.500000
Si Si6 0.332391 0.676623 0.330326
Si Si7 0.324891 0.146150 0.584622
O O1 0.499854 0.298433 0.998684
O O2 0.755653 0.288942 0.957821
O O3 0.694391 0.500401 0.009091
O O4 0.744949 0.238736 0.040755
O O5 0.743788 0.751171 0.541450
O O6 0.498446 0.665499 0.176738
O O7 0.703109 0.756746 0.126400
O O8 0.734086 0.502524 0.163497
O O9 0.205758 0.256215 0.123892
O O10 0.263056 0.502823 0.165906
O O11 0.000239 0.383803 0.166833
O O12 0.286841 0.234353 0.541653
#
# Coordination Sequence:
#
# PCOD9549129 Si02
#       7
#     8   4   8   8   4   8   8
#     4  10  21  39  61  84 115 155 195 237 288 345
#     4  11  22  39  62  86 118 159 196 239 294 348
#     4  11  23  38  59  87 117 150 192 240 288 344
#     4  10  22  40  60  85 118 154 195 240 291 348
#     4   9  20  39  60  82 112 151 194 235 282 342
#     4  11  23  39  60  89 120 153 197 244 291 348
#     4  10  22  39  59  84 115 152 190 235 288 343
#
# _framework density 18.432372000000001
#
# number of rings (size 3 to 8) (size 9 to 14) (size 15 to 20)
#    0.000    1.667    0.000    4.000    0.000    8.667 
#    0.000    0.000    0.000    0.000    0.000    0.000 
#    0.000    0.000    0.000    0.000    0.000    0.000 
#
# Total GULP energy -268352.668173 kJ/mol
# GULP energy per Si atom -5590.680587 kJ/mol
# Density = 1.839042 g / cm^3
# Si number density = 18.432372 Si / 1000 Ang^3
#
#
#
# Elastic Constant Matrix: (Units=GPa)
#
#
# Indices 1 2 3 4 5 6 
#
# 1 129.4703 108.6731 106.3663 0.0000 0.0000 0.0000
# 2 108.6731 129.4703 106.3663 0.0000 0.0000 0.0000
# 3 106.3663 106.3663 170.4070 0.0000 0.0000 0.0000
# 4 0.0000 0.0000 0.0000 32.6332 0.0000 0.0000
# 5 0.0000 0.0000 0.0000 0.0000 32.6332 0.0000
# 6 0.0000 0.0000 0.0000 0.0000 0.0000 38.6699
#
#
#
# Elastic Compliance Matrix: (Units=1/GPa)
#
#
# Indices 1 2 3 4 5 6 
#
# 1 0.028787 -0.019296 -0.005924 0.000000 0.000000 0.000000
# 2 -0.019296 0.028787 -0.005924 0.000000 0.000000 0.000000
# 3 -0.005924 -0.005924 0.013264 0.000000 0.000000 0.000000
# 4 0.000000 0.000000 0.000000 0.030644 0.000000 0.000000
# 5 0.000000 0.000000 0.000000 0.000000 0.030644 0.000000
# 6 0.000000 0.000000 0.000000 0.000000 0.000000 0.025860
#
#
# Mechanical properties :
#
#
# Convention : Reuss Voigt Hill
#
# Bulk Modulus (GPa) = 116.96830 119.12877 118.04854
# Shear Modulus (GPa) = 22.40887 27.98339 25.19613
#
# Velocity S-wave (km/s) = 3.49052 3.90059 3.70124
# Velocity P-wave (km/s) = 8.93537 9.22262 9.08013
#
# Compressibility (1/GPa) = 0.00854933
#
# Stress axis : x y z
#
# Youngs Moduli (GPa) = 34.73740 34.73740 75.39028
#
# Poissons Ratio (x) = 0.67029 0.44665
# Poissons Ratio (y) = 0.67029 0.44665
# Poissons Ratio (z) = 0.20580 0.20580
#
# Static dielectric constant tensor:
#      x y z
#    x 1.608560 0.000000 0.000000 
#    y 0.000000 1.608560 0.000000 
#    z 0.000000 0.000000 1.603880 
# 
# From -- ./inp_files/4544.got.cif
#   From: 2010.05.17/outbox.cif.g08.bks.cpg/sg92_3_cif.got.tgz:4544.got - 2010.06.03 19:35:17.
