data_PCOD9549938
_publ_section_title
;
Structure prediction by ZEFSAII (Michael W. Deem and Ramdas Pophale) SiO2 
 PCOD9549938
Probable space group: P 42 21 2
;
_chemical_formula_sum "Si O2"
_cell_formula_units_Z 56
_cell_length_a 14.565149
_cell_length_b 14.565149
_cell_length_c 13.567917
_cell_angle_alpha 90.000000
_cell_angle_beta 90.000000
_cell_angle_gamma 90.000000
_cell_volume 2878.346287
_symmetry_space_group_name_H-M "P 42 21 2"
_symmetry_group_IT_number 94
_symmetry_cell_setting 'tetragonal'
loop_
_space_group_symop_operation_xyz
x,y,z
1/2-y,1/2+x,1/2+z
-x,-y,z
1/2+y,1/2-x,1/2+z
1/2+x,1/2-y,1/2-z
1/2-x,1/2+y,1/2-z
y,x,-z
-y,-x,-z
loop_
_atom_site_type_symbol
_atom_site_label
_atom_site_fract_x
_atom_site_fract_y
_atom_site_fract_z
Si Si1 0.564481 0.648953 0.199892
Si Si2 0.544726 0.763907 0.399264
Si Si3 0.858247 0.334274 0.385130
Si Si4 0.411501 0.826966 0.825596
Si Si5 0.052260 0.125782 0.708315
Si Si6 0.072714 0.582919 0.583870
Si Si7 0.322479 0.560820 0.431273
O O1 0.562741 0.689528 0.312986
O O2 0.609577 0.730883 0.136667
O O3 0.459656 0.616861 0.181804
O O4 0.615852 0.553513 0.176458
O O5 0.626625 0.837858 0.398051
O O6 0.455658 0.829789 0.377467
O O7 0.521806 0.723172 0.506705
O O8 0.869140 0.387648 0.281466
O O9 0.914166 0.375746 0.475770
O O10 0.753091 0.358496 0.413729
O O11 0.400649 0.718707 0.825882
O O12 0.517738 0.846630 0.848482
O O13 0.040085 0.135192 0.826135
O O14 0.000000 0.500000 0.578716
O O15 0.401012 0.598989 0.500000
#
# Coordination Sequence:
#
# PCOD9549938 Si02
#       7
#     8   8   8   8   8   8   8
#     4  10  20  36  54  82 117 156 194 229 296 361
#     4   9  18  34  56  83 111 142 189 249 291 347
#     4   9  20  34  57  83 114 147 197 240 290 366
#     4   9  19  37  56  81 120 146 193 244 295 350
#     4  10  21  36  56  81 119 159 190 238 296 364
#     4   9  18  34  60  83 111 151 190 242 301 349
#     4  10  18  34  59  86 112 142 197 250 302 351
#
# _framework density 19.455615999999999
#
# number of rings (size 3 to 8) (size 9 to 14) (size 15 to 20)
#    0.000    2.571    1.429    0.000    0.000    5.714 
#    2.571    0.714    9.429    1.714    0.000    0.000 
#    0.000    0.000    0.000    0.000    0.000    0.000 
#
# Total GULP energy -311757.822663 kJ/mol
# GULP energy per Si atom -5567.103976 kJ/mol
# Density = 1.941133 g / cm^3
# Si number density = 19.455616 Si / 1000 Ang^3
#
#
#
# Elastic Constant Matrix: (Units=GPa)
#
#
# Indices 1 2 3 4 5 6 
#
# 1 43.3612 3.9153 7.1628 0.0000 0.0000 0.0000
# 2 3.9153 43.3592 7.1645 0.0000 0.0000 0.0000
# 3 7.1628 7.1645 20.9703 0.0000 0.0000 0.0000
# 4 0.0000 0.0000 0.0000 17.6145 0.0000 0.0000
# 5 0.0000 0.0000 0.0000 0.0000 17.6161 0.0000
# 6 0.0000 0.0000 0.0000 0.0000 0.0000 13.3719
#
#
#
# Elastic Compliance Matrix: (Units=1/GPa)
#
#
# Indices 1 2 3 4 5 6 
#
# 1 0.024473 -0.000878 -0.008059 0.000000 0.000000 0.000000
# 2 -0.000878 0.024475 -0.008062 0.000000 0.000000 0.000000
# 3 -0.008059 -0.008062 0.053194 0.000000 0.000000 0.000000
# 4 0.000000 0.000000 0.000000 0.056771 0.000000 0.000000
# 5 0.000000 0.000000 0.000000 0.000000 0.056766 0.000000
# 6 0.000000 0.000000 0.000000 0.000000 0.000000 0.074784
#
#
# Mechanical properties :
#
#
# Convention : Reuss Voigt Hill
#
# Bulk Modulus (GPa) = 14.67508 16.01954 15.34731
# Shear Modulus (GPa) = 14.40198 15.68371 15.04284
#
# Velocity S-wave (km/s) = 2.72370 2.84232 2.78364
# Velocity P-wave (km/s) = 4.17739 4.36159 4.27049
#
# Compressibility (1/GPa) = 0.06814272
#
# Stress axis : x y z
#
# Youngs Moduli (GPa) = 40.86196 40.85873 18.79926
#
# Poissons Ratio (x) = 0.03588 0.15150
# Poissons Ratio (y) = 0.03589 0.15156
# Poissons Ratio (z) = 0.32931 0.32939
#
# Static dielectric constant tensor:
#      x y z
#    x 1.723130 0.000000 0.000000 
#    y 0.000000 1.723130 0.000000 
#    z 0.000000 0.000000 1.700640 
# 
# From -- ./inp_files/3556.got.cif
#   From: 2010.05.17/outbox.cif.g08.bks.cpg/sg94_2_cif.got.tgz:3556.got - 2010.06.03 19:43:16.
