data_PCOD9549396
_publ_section_title
;
Structure prediction by ZEFSAII (Michael W. Deem and Ramdas Pophale) SiO2 
 PCOD9549396
Probable space group: P 41 21 2
;
_chemical_formula_sum "Si O2"
_cell_formula_units_Z 32
_cell_length_a 11.546420
_cell_length_b 11.546420
_cell_length_c 11.688827
_cell_angle_alpha 90.000000
_cell_angle_beta 90.000000
_cell_angle_gamma 90.000000
_cell_volume 1558.352251
_symmetry_space_group_name_H-M "P 41 21 2"
_symmetry_group_IT_number 92
_symmetry_cell_setting 'tetragonal'
loop_
_space_group_symop_operation_xyz
x,y,z
1/2-y,1/2+x,1/4+z
-x,-y,1/2+z
1/2+y,1/2-x,3/4+z
1/2+x,1/2-y,3/4-z
1/2-x,1/2+y,1/4-z
y,x,-z
-y,-x,1/2-z
loop_
_atom_site_type_symbol
_atom_site_label
_atom_site_fract_x
_atom_site_fract_y
_atom_site_fract_z
Si Si1 0.729427 0.270574 0.750000
Si Si2 0.475318 0.814519 0.897398
Si Si3 0.206924 0.882222 0.466142
Si Si4 0.277733 0.975639 0.902521
Si Si5 0.626986 0.373015 0.250000
O O1 0.752063 0.183161 0.854418
O O2 0.600616 0.249958 0.703410
O O3 0.377842 0.730335 0.840984
O O4 0.410715 0.934405 0.920050
O O5 0.076416 0.690809 0.947216
O O6 0.519134 0.762333 0.015837
O O7 0.117413 0.803229 0.535658
O O8 0.141280 0.003095 0.438881
#
# Coordination Sequence:
#
# PCOD9549396 Si02
#       5
#     4   8   8   8   4
#     4  12  27  46  74 115 160 188 252 329 396 445
#     4  10  25  44  73 105 143 199 247 301 370 461
#     4  10  24  47  73 106 144 198 249 313 376 456
#     4  12  24  48  71 108 150 194 251 311 379 456
#     4   8  23  42  74 105 136 196 246 309 354 457
#
# _framework density 20.534510000000001
#
# number of rings (size 3 to 8) (size 9 to 14) (size 15 to 20)
#    1.500    0.000    2.500    1.500    3.500    6.000 
#    4.500    0.000    0.000    0.000    0.000    0.000 
#    0.000    0.000    0.000    0.000    0.000    0.000 
#
# Total GULP energy -178479.031549 kJ/mol
# GULP energy per Si atom -5577.469736 kJ/mol
# Density = 2.048777 g / cm^3
# Si number density = 20.534510 Si / 1000 Ang^3
#
#
#
# Elastic Constant Matrix: (Units=GPa)
#
#
# Indices 1 2 3 4 5 6 
#
# 1 13.1204 115.2608 39.9413 0.0000 0.0000 0.0000
# 2 115.2608 13.1111 39.9390 0.0000 0.0000 0.0000
# 3 39.9413 39.9390 123.2537 0.0000 0.0000 0.0000
# 4 0.0000 0.0000 0.0000 23.7965 0.0000 0.0000
# 5 0.0000 0.0000 0.0000 0.0000 23.7955 0.0000
# 6 0.0000 0.0000 0.0000 0.0000 0.0000 22.5298
#
#
#
# Elastic Compliance Matrix: (Units=1/GPa)
#
#
# Indices 1 2 3 4 5 6 
#
# 1 -0.000016 0.009773 -0.003162 0.000000 0.000000 0.000000
# 2 0.009773 -0.000017 -0.003162 0.000000 0.000000 0.000000
# 3 -0.003162 -0.003162 0.010162 0.000000 0.000000 0.000000
# 4 0.000000 0.000000 0.000000 0.042023 0.000000 0.000000
# 5 0.000000 0.000000 0.000000 0.000000 0.042025 0.000000
# 6 0.000000 0.000000 0.000000 0.000000 0.000000 0.044386
#
#
# Mechanical properties :
#
#
# Convention : Reuss Voigt Hill
#
# Bulk Modulus (GPa) = 58.72191 59.97416 59.34803
# Shear Modulus (GPa) = 36.40623 10.98063 23.69343
#
# Velocity S-wave (km/s) = 4.21518 2.31495 3.40050
# Velocity P-wave (km/s) = 7.23527 6.03451 6.66200
#
# Compressibility (1/GPa) = 0.01702942
#
# Stress axis : x y z
#
# Youngs Moduli (GPa) = -61836.00128 -59113.64969 98.40154
#
# Poissons Ratio (x) = 577.74442 0.31112
# Poissons Ratio (y) = 604.35119 0.31111
# Poissons Ratio (z) = -195.50923 -186.89854
#
# Static dielectric constant tensor:
#      x y z
#    x 1.747810 0.000000 0.000000 
#    y 0.000000 1.747810 0.000000 
#    z 0.000000 0.000000 1.710890 
# 
# From -- ./inp_files/1966.got.cif
#   From: 2010.05.17/outbox.cif.g08.bks.cpg/sg92_1_cif.got.tgz:1966.got - 2010.06.03 19:35:17.
