data_PCOD9549408
_publ_section_title
;
Structure prediction by ZEFSAII (Michael W. Deem and Ramdas Pophale) SiO2 
 PCOD9549408
Probable space group: P 41 21 2
;
_chemical_formula_sum "Si O2"
_cell_formula_units_Z 40
_cell_length_a 7.169335
_cell_length_b 7.169335
_cell_length_c 26.585560
_cell_angle_alpha 90.000000
_cell_angle_beta 90.000000
_cell_angle_gamma 90.000000
_cell_volume 1366.480885
_symmetry_space_group_name_H-M "P 41 21 2"
_symmetry_group_IT_number 92
_symmetry_cell_setting 'tetragonal'
loop_
_space_group_symop_operation_xyz
x,y,z
1/2-y,1/2+x,1/4+z
-x,-y,1/2+z
1/2+y,1/2-x,3/4+z
1/2+x,1/2-y,3/4-z
1/2-x,1/2+y,1/4-z
y,x,-z
-y,-x,1/2-z
loop_
_atom_site_type_symbol
_atom_site_label
_atom_site_fract_x
_atom_site_fract_y
_atom_site_fract_z
Si Si1 0.061510 0.061423 0.939640
Si Si2 0.302007 0.362732 0.896864
Si Si3 0.886017 0.374229 0.217705
Si Si4 0.733498 0.095905 0.136388
Si Si5 0.178280 0.155256 0.279646
O O1 0.238319 0.171952 0.920174
O O2 0.907088 0.165569 0.905454
O O3 0.054337 0.860893 0.912609
O O4 0.058347 0.058347 0.000000
O O5 0.112553 0.400586 0.729650
O O6 0.395708 0.459387 0.946173
O O7 0.717378 0.282623 0.250000
O O8 0.842781 0.259949 0.166247
O O9 0.078483 0.276904 0.236804
O O10 0.525736 0.154035 0.119153
O O11 0.727765 0.920038 0.173798
#
# Coordination Sequence:
#
# PCOD9549408 Si02
#       5
#     8   8   8   8   8
#     4  11  29  57  91 132 179 241 308 382 479 573
#     4  11  28  55  86 128 180 233 303 390 461 567
#     4  10  24  51  84 127 175 241 299 382 467 546
#     4  10  26  54  82 118 188 234 291 382 469 549
#     4  10  25  49  83 128 175 231 307 369 457 551
#
# _framework density 29.272276000000002
#
# number of rings (size 3 to 8) (size 9 to 14) (size 15 to 20)
#    0.000    1.600    0.000    0.000    8.400   11.200 
#    3.600    5.000    0.000    0.000    0.000    0.000 
#    0.000    0.000    0.000    0.000    0.000    0.000 
#
# Total GULP energy -222870.769707 kJ/mol
# GULP energy per Si atom -5571.769243 kJ/mol
# Density = 2.920565 g / cm^3
# Si number density = 29.272276 Si / 1000 Ang^3
#
#
#
# Elastic Constant Matrix: (Units=GPa)
#
#
# Indices 1 2 3 4 5 6 
#
# 1 183.8474 56.7058 54.5175 0.0000 0.0000 0.0000
# 2 56.7058 183.8473 54.5177 0.0000 0.0000 0.0000
# 3 54.5175 54.5177 231.7523 0.0000 0.0000 0.0000
# 4 0.0000 0.0000 0.0000 40.7284 0.0000 0.0000
# 5 0.0000 0.0000 0.0000 0.0000 40.7284 0.0000
# 6 0.0000 0.0000 0.0000 0.0000 0.0000 57.3061
#
#
#
# Elastic Compliance Matrix: (Units=1/GPa)
#
#
# Indices 1 2 3 4 5 6 
#
# 1 0.006259 -0.001606 -0.001095 0.000000 0.000000 0.000000
# 2 -0.001606 0.006259 -0.001095 0.000000 0.000000 0.000000
# 3 -0.001095 -0.001095 0.004830 0.000000 0.000000 0.000000
# 4 0.000000 0.000000 0.000000 0.024553 0.000000 0.000000
# 5 0.000000 0.000000 0.000000 0.000000 0.024553 0.000000
# 6 0.000000 0.000000 0.000000 0.000000 0.000000 0.017450
#
#
# Mechanical properties :
#
#
# Convention : Reuss Voigt Hill
#
# Bulk Modulus (GPa) = 102.48085 103.43654 102.95870
# Shear Modulus (GPa) = 52.77182 56.66633 54.71907
#
# Velocity S-wave (km/s) = 4.25054 4.40459 4.32825
# Velocity P-wave (km/s) = 7.69252 7.82815 7.76063
#
# Compressibility (1/GPa) = 0.00975792
#
# Stress axis : x y z
#
# Youngs Moduli (GPa) = 159.76362 159.76346 207.04117
#
# Poissons Ratio (x) = 0.25658 0.22663
# Poissons Ratio (y) = 0.25658 0.22664
# Poissons Ratio (z) = 0.17488 0.17488
#
# Static dielectric constant tensor:
#      x y z
#    x 2.630630 0.000000 0.000000 
#    y 0.000000 2.630640 0.000000 
#    z 0.000000 0.000000 2.531620 
# 
# From -- ./inp_files/3763.got.cif
#   From: 2010.05.17/outbox.cif.g08.bks.cpg/sg92_2_cif.got.tgz:3763.got - 2010.06.03 19:35:17.
