data_PCOD9549704
_publ_section_title
;
Structure prediction by ZEFSAII (Michael W. Deem and Ramdas Pophale) SiO2 
 PCOD9549704
Probable space group: P 42 2 2
;
_chemical_formula_sum "Si O2"
_cell_formula_units_Z 36
_cell_length_a 16.290997
_cell_length_b 16.290997
_cell_length_c 7.569471
_cell_angle_alpha 90.000000
_cell_angle_beta 90.000000
_cell_angle_gamma 90.000000
_cell_volume 2008.911740
_symmetry_space_group_name_H-M "P 42 2 2"
_symmetry_group_IT_number 93
_symmetry_cell_setting 'tetragonal'
loop_
_space_group_symop_operation_xyz
x,y,z
-y,x,1/2+z
-x,-y,z
y,-x,1/2+z
x,-y,-z
-x,y,-z
y,x,1/2-z
-y,-x,1/2-z
loop_
_atom_site_type_symbol
_atom_site_label
_atom_site_fract_x
_atom_site_fract_y
_atom_site_fract_z
Si Si1 0.263875 0.605101 0.681368
Si Si2 0.135830 0.001195 0.792705
Si Si3 0.582741 0.283697 0.220916
Si Si4 0.857455 0.594271 0.012684
Si Si5 0.000000 0.275044 0.000000
O O1 0.325420 0.674581 0.750000
O O2 0.300155 0.514487 0.719998
O O3 0.250309 0.608251 0.471883
O O4 0.180936 0.608298 0.793928
O O5 0.083630 0.083630 0.750000
O O6 0.214693 0.994091 0.668188
O O7 0.073664 0.926337 0.750000
O O8 0.155645 0.000000 0.000000
O O9 0.634828 0.365173 0.250000
O O10 0.599887 0.217373 0.372982
O O11 0.888763 0.500000 0.000000
O O12 0.923252 0.664170 0.978174
#
# Coordination Sequence:
#
# PCOD9549704 Si02
#       5
#     8   8   8   8   4
#     4  10  20  36  58  85 119 157 195 242 293 338
#     4  11  21  42  65  90 127 152 177 235 299 351
#     4  10  20  36  58  85 119 157 195 242 293 338
#     4  10  23  42  58  81 121 157 195 244 289 336
#     4  12  25  39  66  92 110 158 200 229 285 360
#
# _framework density 17.920148999999999
#
# number of rings (size 3 to 8) (size 9 to 14) (size 15 to 20)
#    0.000    1.556    4.444    1.000    0.000    4.000 
#    0.000    2.222    0.000    6.667    0.000    0.000 
#    0.000    0.000    0.000    0.000    0.000    0.000 
#
# Total GULP energy -200961.950371 kJ/mol
# GULP energy per Si atom -5582.276399 kJ/mol
# Density = 1.787936 g / cm^3
# Si number density = 17.920149 Si / 1000 Ang^3
#
#
#
# Elastic Constant Matrix: (Units=GPa)
#
#
# Indices 1 2 3 4 5 6 
#
# 1 62.3336 32.6660 6.0738 0.0000 0.0000 0.0000
# 2 32.6660 62.3246 6.0682 0.0000 0.0000 0.0000
# 3 6.0738 6.0682 100.5852 0.0000 0.0000 0.0000
# 4 0.0000 0.0000 0.0000 16.4925 0.0000 0.0000
# 5 0.0000 0.0000 0.0000 0.0000 16.4936 0.0000
# 6 0.0000 0.0000 0.0000 0.0000 0.0000 38.0337
#
#
#
# Elastic Compliance Matrix: (Units=1/GPa)
#
#
# Indices 1 2 3 4 5 6 
#
# 1 0.022159 -0.011552 -0.000641 0.000000 0.000000 0.000000
# 2 -0.011552 0.022162 -0.000639 0.000000 0.000000 0.000000
# 3 -0.000641 -0.000639 0.010019 0.000000 0.000000 0.000000
# 4 0.000000 0.000000 0.000000 0.060634 0.000000 0.000000
# 5 0.000000 0.000000 0.000000 0.000000 0.060630 0.000000
# 6 0.000000 0.000000 0.000000 0.000000 0.000000 0.026292
#
#
# Mechanical properties :
#
#
# Convention : Reuss Voigt Hill
#
# Bulk Modulus (GPa) = 34.87324 34.98439 34.92881
# Shear Modulus (GPa) = 21.08651 26.23298 23.65975
#
# Velocity S-wave (km/s) = 3.43402 3.83022 3.63752
# Velocity P-wave (km/s) = 5.93514 6.25504 6.09719
#
# Compressibility (1/GPa) = 0.02867528
#
# Stress axis : x y z
#
# Youngs Moduli (GPa) = 45.12878 45.12264 99.80926
#
# Poissons Ratio (x) = 0.52124 0.06399
# Poissons Ratio (y) = 0.52131 0.06383
# Poissons Ratio (z) = 0.02893 0.02885
#
# Static dielectric constant tensor:
#      x y z
#    x 1.590830 0.000000 0.000000 
#    y 0.000000 1.590830 0.000000 
#    z 0.000000 0.000000 1.622070 
# 
# From -- ./inp_files/1698.got.cif
#   From: 2010.05.17/outbox.cif.g08.bks.cpg/sg93_1_cif.got.tgz:1698.got - 2010.06.03 19:38:44.
