data_PCOD9549437
_publ_section_title
;
Structure prediction by ZEFSAII (Michael W. Deem and Ramdas Pophale) SiO2 
 PCOD9549437
Probable space group: P 41 21 2
;
_chemical_formula_sum "Si O2"
_cell_formula_units_Z 40
_cell_length_a 17.728133
_cell_length_b 17.728133
_cell_length_c 6.355264
_cell_angle_alpha 90.000000
_cell_angle_beta 90.000000
_cell_angle_gamma 90.000000
_cell_volume 1997.374948
_symmetry_space_group_name_H-M "P 41 21 2"
_symmetry_group_IT_number 92
_symmetry_cell_setting 'tetragonal'
loop_
_space_group_symop_operation_xyz
x,y,z
1/2-y,1/2+x,1/4+z
-x,-y,1/2+z
1/2+y,1/2-x,3/4+z
1/2+x,1/2-y,3/4-z
1/2-x,1/2+y,1/4-z
y,x,-z
-y,-x,1/2-z
loop_
_atom_site_type_symbol
_atom_site_label
_atom_site_fract_x
_atom_site_fract_y
_atom_site_fract_z
Si Si1 0.722682 0.170734 0.115766
Si Si2 0.772449 0.887953 0.575100
Si Si3 0.085853 0.460363 0.036139
Si Si4 0.972587 0.257174 0.647229
Si Si5 0.585820 0.163682 0.423617
O O1 0.783550 0.216451 0.250000
O O2 0.659548 0.144982 0.285238
O O3 0.674119 0.227791 0.967303
O O4 0.762714 0.103889 0.980313
O O5 0.849682 0.849682 0.500000
O O6 0.719323 0.899944 0.371488
O O7 0.785914 0.966222 0.705296
O O8 0.070134 0.547225 0.077509
O O9 0.052486 0.411767 0.225314
O O10 0.173661 0.445109 0.040612
O O11 0.026344 0.295386 0.474303
#
# Coordination Sequence:
#
# PCOD9549437 Si02
#       5
#     8   8   8   8   8
#     4  11  22  37  61  89 125 167 218 273 322 379
#     4  11  22  41  62  84 125 178 219 265 316 387
#     4  12  20  32  49  79 123 172 205 241 298 379
#     4  11  23  36  54  91 123 167 218 262 318 379
#     4  11  21  37  57  81 126 169 210 258 309 382
#
# _framework density 20.026284
#
# number of rings (size 3 to 8) (size 9 to 14) (size 15 to 20)
#    0.000    0.800    6.000    3.600    0.000    0.000 
#    0.000    0.000    0.000    0.000    0.000    0.000 
#    6.000    1.600    0.000    0.000    0.000    0.000 
#
# Total GULP energy -223011.545181 kJ/mol
# GULP energy per Si atom -5575.288630 kJ/mol
# Density = 1.998070 g / cm^3
# Si number density = 20.026284 Si / 1000 Ang^3
#
#
#
# Elastic Constant Matrix: (Units=GPa)
#
#
# Indices 1 2 3 4 5 6 
#
# 1 36.6578 4.0045 9.1982 0.0000 0.0000 0.0000
# 2 4.0045 36.6563 9.1980 0.0000 0.0000 0.0000
# 3 9.1982 9.1980 78.5109 0.0000 0.0000 0.0000
# 4 0.0000 0.0000 0.0000 46.6266 0.0000 0.0000
# 5 0.0000 0.0000 0.0000 0.0000 46.6267 0.0000
# 6 0.0000 0.0000 0.0000 0.0000 0.0000 25.9402
#
#
#
# Elastic Compliance Matrix: (Units=1/GPa)
#
#
# Indices 1 2 3 4 5 6 
#
# 1 0.028297 -0.002328 -0.003043 0.000000 0.000000 0.000000
# 2 -0.002328 0.028298 -0.003043 0.000000 0.000000 0.000000
# 3 -0.003043 -0.003043 0.013450 0.000000 0.000000 0.000000
# 4 0.000000 0.000000 0.000000 0.021447 0.000000 0.000000
# 5 0.000000 0.000000 0.000000 0.000000 0.021447 0.000000
# 6 0.000000 0.000000 0.000000 0.000000 0.000000 0.038550
#
#
# Mechanical properties :
#
#
# Convention : Reuss Voigt Hill
#
# Bulk Modulus (GPa) = 18.79014 21.84737 20.31876
# Shear Modulus (GPa) = 26.87376 32.46696 29.67036
#
# Velocity S-wave (km/s) = 3.66720 4.03080 3.85329
# Velocity P-wave (km/s) = 5.22822 5.70931 5.47405
#
# Compressibility (1/GPa) = 0.05321940
#
# Stress axis : x y z
#
# Youngs Moduli (GPa) = 35.33943 35.33789 74.34947
#
# Poissons Ratio (x) = 0.08226 0.22621
# Poissons Ratio (y) = 0.08226 0.22621
# Poissons Ratio (z) = 0.10752 0.10752
#
# Static dielectric constant tensor:
#      x y z
#    x 1.743130 0.000000 0.000000 
#    y 0.000000 1.743130 0.000000 
#    z 0.000000 0.000000 1.792390 
# 
# From -- ./inp_files/409.got.cif
#   From: 2010.05.17/outbox.cif.g08.bks.cpg/sg92_1_cif.got.tgz:409.got - 2010.06.03 19:35:17.
