data_PCOD9549324
_publ_section_title
;
Structure prediction by ZEFSAII (Michael W. Deem and Ramdas Pophale) SiO2 
 PCOD9549324
Probable space group: P 41 21 2
;
_chemical_formula_sum "Si O2"
_cell_formula_units_Z 56
_cell_length_a 14.551376
_cell_length_b 14.551376
_cell_length_c 11.977207
_cell_angle_alpha 90.000000
_cell_angle_beta 90.000000
_cell_angle_gamma 90.000000
_cell_volume 2536.084274
_symmetry_space_group_name_H-M "P 41 21 2"
_symmetry_group_IT_number 92
_symmetry_cell_setting 'tetragonal'
loop_
_space_group_symop_operation_xyz
x,y,z
1/2-y,1/2+x,1/4+z
-x,-y,1/2+z
1/2+y,1/2-x,3/4+z
1/2+x,1/2-y,3/4-z
1/2-x,1/2+y,1/4-z
y,x,-z
-y,-x,1/2-z
loop_
_atom_site_type_symbol
_atom_site_label
_atom_site_fract_x
_atom_site_fract_y
_atom_site_fract_z
Si Si1 0.014928 0.279693 0.161980
Si Si2 0.854834 0.598829 0.513001
Si Si3 0.887254 0.424992 0.380972
Si Si4 0.079051 0.365314 0.387565
Si Si5 0.366761 0.643096 0.374153
Si Si6 0.775777 0.679481 0.282862
Si Si7 0.835710 0.086447 0.633217
O O1 0.066255 0.340753 0.067631
O O2 0.060701 0.300929 0.282665
O O3 0.040927 0.174144 0.142962
O O4 0.912926 0.321539 0.150904
O O5 0.869117 0.493179 0.482000
O O6 0.820670 0.638737 0.395661
O O7 0.772666 0.598698 0.599879
O O8 0.834817 0.442693 0.264927
O O9 0.862789 0.323988 0.424501
O O10 0.996060 0.436587 0.360879
O O11 0.332293 0.667708 0.250000
O O12 0.314660 0.715223 0.455866
O O13 0.477531 0.645698 0.370967
O O14 0.668356 0.650293 0.292867
O O15 0.883306 0.116695 0.750000
#
# Coordination Sequence:
#
# PCOD9549324 Si02
#       7
#     8   8   8   8   8   8   8
#     4  11  23  37  61  99 141 172 221 282 347 403
#     4  11  19  34  66  93 128 166 216 277 330 393
#     4  11  20  37  64  96 139 183 215 275 354 410
#     4  10  24  38  56 101 143 173 218 273 350 423
#     4  12  23  39  65  96 125 173 222 284 342 393
#     4  11  21  38  64  99 127 162 229 284 330 403
#     4  10  23  41  61  93 126 163 225 284 323 402
#
# _framework density 22.081284
#
# number of rings (size 3 to 8) (size 9 to 14) (size 15 to 20)
#    0.000    1.143    5.714    2.143    4.000    0.000 
#    0.000    3.571    0.000    0.000    0.000    0.000 
#    0.000    0.000    0.000    0.000    0.000    0.000 
#
# Total GULP energy -311824.297430 kJ/mol
# GULP energy per Si atom -5568.291026 kJ/mol
# Density = 2.203103 g / cm^3
# Si number density = 22.081284 Si / 1000 Ang^3
#
#
#
# Elastic Constant Matrix: (Units=GPa)
#
#
# Indices 1 2 3 4 5 6 
#
# 1 66.5547 -11.2182 2.5919 0.0000 0.0000 0.0000
# 2 -11.2182 66.5553 2.5921 0.0000 0.0000 0.0000
# 3 2.5919 2.5921 84.2603 0.0000 0.0000 0.0000
# 4 0.0000 0.0000 0.0000 18.7986 0.0000 0.0000
# 5 0.0000 0.0000 0.0000 0.0000 18.7988 0.0000
# 6 0.0000 0.0000 0.0000 0.0000 0.0000 28.1813
#
#
#
# Elastic Compliance Matrix: (Units=1/GPa)
#
#
# Indices 1 2 3 4 5 6 
#
# 1 0.015491 0.002633 -0.000557 0.000000 0.000000 0.000000
# 2 0.002633 0.015491 -0.000558 0.000000 0.000000 0.000000
# 3 -0.000557 -0.000558 0.011902 0.000000 0.000000 0.000000
# 4 0.000000 0.000000 0.000000 0.053196 0.000000 0.000000
# 5 0.000000 0.000000 0.000000 0.000000 0.053195 0.000000
# 6 0.000000 0.000000 0.000000 0.000000 0.000000 0.035485
#
#
# Mechanical properties :
#
#
# Convention : Reuss Voigt Hill
#
# Bulk Modulus (GPa) = 21.77746 22.81131 22.29439
# Shear Modulus (GPa) = 25.37691 28.04936 26.71314
#
# Velocity S-wave (km/s) = 3.39374 3.56796 3.48194
# Velocity P-wave (km/s) = 5.02398 5.22751 5.12676
#
# Compressibility (1/GPa) = 0.04591904
#
# Stress axis : x y z
#
# Youngs Moduli (GPa) = 64.55482 64.55540 84.01746
#
# Poissons Ratio (x) = -0.16996 0.04684
# Poissons Ratio (y) = -0.16996 0.04684
# Poissons Ratio (z) = 0.03599 0.03599
#
# Static dielectric constant tensor:
#      x y z
#    x 1.890830 0.000000 0.000000 
#    y 0.000000 1.890820 0.000000 
#    z 0.000000 0.000000 1.831730 
# 
# From -- ./inp_files/2279.got.cif
#   From: 2010.05.17/outbox.cif.g08.bks.cpg/sg92_2_cif.got.tgz:2279.got - 2010.06.03 19:35:17.
