data_PCOD9549229
_publ_section_title
;
Structure prediction by ZEFSAII (Michael W. Deem and Ramdas Pophale) SiO2 
 PCOD9549229
Probable space group: P 41 21 2
;
_chemical_formula_sum "Si O2"
_cell_formula_units_Z 48
_cell_length_a 11.169016
_cell_length_b 11.169016
_cell_length_c 20.987021
_cell_angle_alpha 90.000000
_cell_angle_beta 90.000000
_cell_angle_gamma 90.000000
_cell_volume 2618.066196
_symmetry_space_group_name_H-M "P 41 21 2"
_symmetry_group_IT_number 92
_symmetry_cell_setting 'tetragonal'
loop_
_space_group_symop_operation_xyz
x,y,z
1/2-y,1/2+x,1/4+z
-x,-y,1/2+z
1/2+y,1/2-x,3/4+z
1/2+x,1/2-y,3/4-z
1/2-x,1/2+y,1/4-z
y,x,-z
-y,-x,1/2-z
loop_
_atom_site_type_symbol
_atom_site_label
_atom_site_fract_x
_atom_site_fract_y
_atom_site_fract_z
Si Si1 0.572972 0.056991 0.567249
Si Si2 0.057133 0.442515 0.563677
Si Si3 0.155516 0.027044 0.058846
Si Si4 0.658489 0.448828 0.928731
Si Si5 0.485464 0.664759 0.927320
Si Si6 0.839563 0.943246 0.936726
O O1 0.493145 0.024323 0.505823
O O2 0.562667 0.199659 0.577540
O O3 0.522051 0.998411 0.630817
O O4 0.708216 0.014976 0.553504
O O5 0.196563 0.478515 0.573789
O O6 0.041644 0.300978 0.567097
O O7 0.132980 0.094459 0.126049
O O8 0.110123 0.110123 0.000000
O O9 0.068084 0.911715 0.059100
O O10 0.603378 0.581853 0.917810
O O11 0.633853 0.428233 0.003755
O O12 0.393315 0.629052 0.872703
O O13 0.870324 0.870324 0.000000
#
# Coordination Sequence:
#
# PCOD9549229 Si02
#       6
#     8   8   8   8   8   8
#     4  11  24  40  62  94 122 161 206 255 306 359
#     4  11  24  38  62  95 121 155 207 257 307 355
#     4  10  22  42  63  86 123 168 202 243 311 367
#     4   9  20  39  63  85 124 159 200 247 308 363
#     4   9  20  38  62  91 118 161 196 249 312 359
#     4  10  22  40  62  90 121 159 204 248 305 367
#
# _framework density 18.334142
#
# number of rings (size 3 to 8) (size 9 to 14) (size 15 to 20)
#    0.000    2.000    0.000    2.000    9.333    1.333 
#    9.000    0.000    0.000    0.000    0.000    0.000 
#    0.000    0.000    0.000    0.000    0.000    0.000 
#
# Total GULP energy -267977.002487 kJ/mol
# GULP energy per Si atom -5582.854218 kJ/mol
# Density = 1.829241 g / cm^3
# Si number density = 18.334142 Si / 1000 Ang^3
#
#
#
# Elastic Constant Matrix: (Units=GPa)
#
#
# Indices 1 2 3 4 5 6 
#
# 1 232.6674 -116.6337 47.1703 0.0000 0.0000 0.0000
# 2 -116.6337 232.6674 47.1703 0.0000 0.0000 0.0000
# 3 47.1703 47.1703 107.2313 0.0000 0.0000 0.0000
# 4 0.0000 0.0000 0.0000 13.7528 0.0000 0.0000
# 5 0.0000 0.0000 0.0000 0.0000 13.7528 0.0000
# 6 0.0000 0.0000 0.0000 0.0000 0.0000 6.9454
#
#
#
# Elastic Compliance Matrix: (Units=1/GPa)
#
#
# Indices 1 2 3 4 5 6 
#
# 1 0.008140 0.005277 -0.005902 0.000000 0.000000 0.000000
# 2 0.005277 0.008140 -0.005902 0.000000 0.000000 0.000000
# 3 -0.005902 -0.005902 0.014518 0.000000 0.000000 0.000000
# 4 0.000000 0.000000 0.000000 0.072712 0.000000 0.000000
# 5 0.000000 0.000000 0.000000 0.000000 0.072712 0.000000
# 6 0.000000 0.000000 0.000000 0.000000 0.000000 0.143981
#
#
# Mechanical properties :
#
#
# Convention : Reuss Voigt Hill
#
# Bulk Modulus (GPa) = 56.35767 58.66442 57.51105
# Shear Modulus (GPa) = 14.74181 46.54750 30.64465
#
# Velocity S-wave (km/s) = 2.83868 5.04416 4.09278
# Velocity P-wave (km/s) = 6.44593 8.12352 7.33286
#
# Compressibility (1/GPa) = 0.01774381
#
# Stress axis : x y z
#
# Youngs Moduli (GPa) = 122.85347 122.85347 68.87980
#
# Poissons Ratio (x) = -0.64829 0.40652
# Poissons Ratio (y) = -0.64829 0.40652
# Poissons Ratio (z) = 0.72507 0.72507
#
# Static dielectric constant tensor:
#      x y z
#    x 1.617650 0.000000 0.000000 
#    y 0.000000 1.617650 0.000000 
#    z 0.000000 0.000000 1.624700 
# 
# From -- ./inp_files/3106.got.cif
#   From: 2010.05.17/outbox.cif.g08.bks.cpg/sg92_2_cif.got.tgz:3106.got - 2010.06.03 19:35:17.
