data_PCOD9549548
_publ_section_title
;
Structure prediction by ZEFSAII (Michael W. Deem and Ramdas Pophale) SiO2 
 PCOD9549548
Probable space group: P 41 21 2
;
_chemical_formula_sum "Si O2"
_cell_formula_units_Z 40
_cell_length_a 17.173116
_cell_length_b 17.173116
_cell_length_c 5.581810
_cell_angle_alpha 90.000000
_cell_angle_beta 90.000000
_cell_angle_gamma 90.000000
_cell_volume 1646.164593
_symmetry_space_group_name_H-M "P 41 21 2"
_symmetry_group_IT_number 92
_symmetry_cell_setting 'tetragonal'
loop_
_space_group_symop_operation_xyz
x,y,z
1/2-y,1/2+x,1/4+z
-x,-y,1/2+z
1/2+y,1/2-x,3/4+z
1/2+x,1/2-y,3/4-z
1/2-x,1/2+y,1/4-z
y,x,-z
-y,-x,1/2-z
loop_
_atom_site_type_symbol
_atom_site_label
_atom_site_fract_x
_atom_site_fract_y
_atom_site_fract_z
Si Si1 0.784269 0.215732 0.750000
Si Si2 0.093748 0.906253 0.750000
Si Si3 0.879087 0.879087 0.000000
Si Si4 0.979274 0.616287 0.450729
Si Si5 0.446408 0.553593 0.250000
Si Si6 0.410645 0.242273 0.644345
Si Si7 0.793773 0.359486 0.382062
O O1 0.777518 0.130329 0.629930
O O2 0.777302 0.289819 0.572087
O O3 0.185543 0.918602 0.715092
O O4 0.037895 0.930559 0.532473
O O5 0.912517 0.910929 0.747114
O O6 0.786423 0.891007 0.972367
O O7 0.929420 0.554452 0.600378
O O8 0.925085 0.651606 0.245089
O O9 0.011527 0.692884 0.582796
O O10 0.344485 0.182727 0.565906
#
# Coordination Sequence:
#
# PCOD9549548 Si02
#       7
#     4   4   4   8   4   8   8
#     4  12  21  49  74 111 149 212 289 337 410 506
#     4  12  27  55  74 118 156 218 284 356 438 528
#     4  12  26  50  80 125 161 222 278 354 430 520
#     4  12  27  48  75 120 169 216 277 356 449 528
#     4  12  30  48  80 116 172 210 275 365 442 494
#     4  12  26  47  82 107 153 216 277 342 422 527
#     4  12  25  46  79 111 158 213 275 347 411 526
#
# _framework density 24.298907
#
# number of rings (size 3 to 8) (size 9 to 14) (size 15 to 20)
#    0.000    0.000    6.000    3.600    0.000    7.200 
#    0.000    0.000    0.000    0.000    0.000    0.000 
#    0.000    0.000    0.000    0.000    0.000    0.000 
#
# Total GULP energy -223997.006340 kJ/mol
# GULP energy per Si atom -5599.925159 kJ/mol
# Density = 2.424360 g / cm^3
# Si number density = 24.298907 Si / 1000 Ang^3
#
#
#
# Elastic Constant Matrix: (Units=GPa)
#
#
# Indices 1 2 3 4 5 6 
#
# 1 99.3078 97.2286 39.8604 0.0000 0.0000 0.0000
# 2 97.2286 99.3057 39.8613 0.0000 0.0000 0.0000
# 3 39.8604 39.8613 93.0678 0.0000 0.0000 0.0000
# 4 0.0000 0.0000 0.0000 12.1957 0.0000 0.0000
# 5 0.0000 0.0000 0.0000 0.0000 12.1947 0.0000
# 6 0.0000 0.0000 0.0000 0.0000 0.0000 66.4559
#
#
#
# Elastic Compliance Matrix: (Units=1/GPa)
#
#
# Indices 1 2 3 4 5 6 
#
# 1 0.243666 -0.237512 -0.002633 0.000000 0.000000 0.000000
# 2 -0.237512 0.243674 -0.002641 0.000000 0.000000 0.000000
# 3 -0.002633 -0.002641 0.013004 0.000000 0.000000 0.000000
# 4 0.000000 0.000000 0.000000 0.081996 0.000000 0.000000
# 5 0.000000 0.000000 0.000000 0.000000 0.082003 0.000000
# 6 0.000000 0.000000 0.000000 0.000000 0.000000 0.015048
#
#
# Mechanical properties :
#
#
# Convention : Reuss Voigt Hill
#
# Bulk Modulus (GPa) = 67.70374 71.73132 69.71753
# Shear Modulus (GPa) = 4.27392 25.81803 15.04597
#
# Velocity S-wave (km/s) = 1.32767 3.26317 2.49108
# Velocity P-wave (km/s) = 5.50215 6.61681 6.08505
#
# Compressibility (1/GPa) = 0.01477023
#
# Stress axis : x y z
#
# Youngs Moduli (GPa) = 4.10398 4.10384 76.89886
#
# Poissons Ratio (x) = 0.97471 0.20251
# Poissons Ratio (y) = 0.97475 0.20313
# Poissons Ratio (z) = 0.01081 0.01084
#
# Static dielectric constant tensor:
#      x y z
#    x 2.019330 0.000000 0.000000 
#    y 0.000000 2.019340 0.000000 
#    z 0.000000 0.000000 1.966550 
# 
# From -- ./inp_files/497.got.cif
#   From: 2010.05.17/outbox.cif.g08.bks.cpg/sg92_1_cif.got.tgz:497.got - 2010.06.03 19:35:17.
