data_PCOD9549987
_publ_section_title
;
Structure prediction by ZEFSAII (Michael W. Deem and Ramdas Pophale) SiO2 
 PCOD9549987
Probable space group: P 42 21 2
;
_chemical_formula_sum "Si O2"
_cell_formula_units_Z 64
_cell_length_a 11.813091
_cell_length_b 11.813091
_cell_length_c 23.478011
_cell_angle_alpha 90.000000
_cell_angle_beta 90.000000
_cell_angle_gamma 90.000000
_cell_volume 3276.335750
_symmetry_space_group_name_H-M "P 42 21 2"
_symmetry_group_IT_number 94
_symmetry_cell_setting 'tetragonal'
loop_
_space_group_symop_operation_xyz
x,y,z
1/2-y,1/2+x,1/2+z
-x,-y,z
1/2+y,1/2-x,1/2+z
1/2+x,1/2-y,1/2-z
1/2-x,1/2+y,1/2-z
y,x,-z
-y,-x,-z
loop_
_atom_site_type_symbol
_atom_site_label
_atom_site_fract_x
_atom_site_fract_y
_atom_site_fract_z
Si Si1 0.874995 0.063650 0.062384
Si Si2 0.396930 0.090597 0.931144
Si Si3 0.057579 0.372840 0.940351
Si Si4 0.090945 0.760081 0.667393
Si Si5 0.942695 0.245586 0.148488
Si Si6 0.188975 0.580696 0.749493
Si Si7 0.757652 0.866357 0.290036
Si Si8 0.331632 0.866998 0.680429
O O1 0.879614 0.143791 0.117782
O O2 0.750257 0.005717 0.062524
O O3 0.878342 0.121659 0.000000
O O4 0.000000 0.000000 0.065178
O O5 0.414173 0.204345 0.894873
O O6 0.500000 0.000000 0.927188
O O7 0.294695 0.025287 0.899992
O O8 0.373400 0.113542 0.997113
O O9 0.132295 0.366563 0.884166
O O10 0.000000 0.500000 0.937505
O O11 0.103964 0.651206 0.709871
O O12 0.198369 0.837476 0.679814
O O13 0.974205 0.817418 0.683757
O O14 0.853062 0.337438 0.172297
O O15 0.019727 0.225921 0.204302
O O16 0.256019 0.666200 0.789046
O O17 0.139971 0.484754 0.789447
O O18 0.724166 0.884677 0.223880
#
# Coordination Sequence:
#
# PCOD9549987 Si02
#       8
#     8   8   8   8   8   8   8   8
#     4  11  25  41  65  98 133 171 209 276 346 395
#     4  10  19  38  63  90 115 162 215 254 312 387
#     4  11  26  41  64  94 130 167 211 266 331 398
#     4  10  21  37  63  85 115 160 212 254 315 385
#     4  10  20  39  60  88 124 161 212 262 318 394
#     4   9  22  38  56  89 122 159 210 263 317 390
#     4  10  21  38  64  84 119 169 209 263 318 382
#     4  10  24  38  56  93 122 161 205 260 326 382
#
# _framework density 19.534019000000001
#
# number of rings (size 3 to 8) (size 9 to 14) (size 15 to 20)
#    0.000    1.875    2.500    0.000    8.750    3.000 
#    0.000    0.000    0.000    0.000    0.000    1.750 
#    0.000    0.000    0.000    0.000    0.000    0.000 
#
# Total GULP energy -356345.715194 kJ/mol
# GULP energy per Si atom -5567.901800 kJ/mol
# Density = 1.948956 g / cm^3
# Si number density = 19.534019 Si / 1000 Ang^3
#
#
#
# Elastic Constant Matrix: (Units=GPa)
#
#
# Indices 1 2 3 4 5 6 
#
# 1 38.0461 15.4800 19.8593 0.0000 0.0000 0.0000
# 2 15.4800 38.0458 19.8594 0.0000 0.0000 0.0000
# 3 19.8593 19.8594 95.7718 0.0000 0.0000 0.0000
# 4 0.0000 0.0000 0.0000 22.0994 0.0000 0.0000
# 5 0.0000 0.0000 0.0000 0.0000 22.0994 0.0000
# 6 0.0000 0.0000 0.0000 0.0000 0.0000 13.3267
#
#
#
# Elastic Compliance Matrix: (Units=1/GPa)
#
#
# Indices 1 2 3 4 5 6 
#
# 1 0.033197 -0.011117 -0.004579 0.000000 0.000000 0.000000
# 2 -0.011117 0.033197 -0.004579 0.000000 0.000000 0.000000
# 3 -0.004579 -0.004579 0.012340 0.000000 0.000000 0.000000
# 4 0.000000 0.000000 0.000000 0.045250 0.000000 0.000000
# 5 0.000000 0.000000 0.000000 0.000000 0.045250 0.000000
# 6 0.000000 0.000000 0.000000 0.000000 0.000000 0.075037
#
#
# Mechanical properties :
#
#
# Convention : Reuss Voigt Hill
#
# Bulk Modulus (GPa) = 26.18749 31.36236 28.77493
# Shear Modulus (GPa) = 16.80390 19.28275 18.04332
#
# Velocity S-wave (km/s) = 2.93616 3.14528 3.04252
# Velocity P-wave (km/s) = 4.99299 5.41115 5.20627
#
# Compressibility (1/GPa) = 0.03818617
#
# Stress axis : x y z
#
# Youngs Moduli (GPa) = 30.12302 30.12279 81.03519
#
# Poissons Ratio (x) = 0.33488 0.37102
# Poissons Ratio (y) = 0.33489 0.37103
# Poissons Ratio (z) = 0.13792 0.13792
#
# Static dielectric constant tensor:
#      x y z
#    x 1.753020 0.000000 0.000000 
#    y 0.000000 1.753020 0.000000 
#    z 0.000000 0.000000 1.663660 
# 
# From -- ./inp_files/5177.got.cif
#   From: 2010.05.17/outbox.cif.g08.bks.cpg/sg94_3_cif.got.tgz:5177.got - 2010.06.03 19:43:16.
