data_PCOD9549802
_publ_section_title
;
Structure prediction by ZEFSAII (Michael W. Deem and Ramdas Pophale) SiO2 
 PCOD9549802
Probable space group: P 42 2 2
;
_chemical_formula_sum "Si O2"
_cell_formula_units_Z 48
_cell_length_a 8.539952
_cell_length_b 8.539952
_cell_length_c 28.406595
_cell_angle_alpha 90.000000
_cell_angle_beta 90.000000
_cell_angle_gamma 90.000000
_cell_volume 2071.715135
_symmetry_space_group_name_H-M "P 42 2 2"
_symmetry_group_IT_number 93
_symmetry_cell_setting 'tetragonal'
loop_
_space_group_symop_operation_xyz
x,y,z
-y,x,1/2+z
-x,-y,z
y,-x,1/2+z
x,-y,-z
-x,y,-z
y,x,1/2-z
-y,-x,1/2-z
loop_
_atom_site_type_symbol
_atom_site_label
_atom_site_fract_x
_atom_site_fract_y
_atom_site_fract_z
Si Si1 0.160282 0.825901 0.175229
Si Si2 0.942657 0.685528 0.255348
Si Si3 0.545071 0.823452 0.875715
Si Si4 0.692940 0.640888 0.070432
Si Si5 0.012646 0.821571 0.071771
Si Si6 0.711453 0.314810 0.465713
O O1 0.330035 0.754566 0.160989
O O2 0.080879 0.839215 0.124641
O O3 0.046439 0.734626 0.210013
O O4 0.211763 0.985117 0.201562
O O5 0.764479 0.764479 0.250000
O O6 0.000000 0.500000 0.261367
O O7 0.402358 0.707895 0.885575
O O8 0.620439 0.834958 0.928138
O O9 0.500000 0.000000 0.863034
O O10 0.669257 0.457712 0.059965
O O11 0.864585 0.709168 0.076233
O O12 0.637750 0.711930 0.020017
O O13 0.130881 0.739700 0.036279
O O14 0.000000 0.000000 0.055377
#
# Coordination Sequence:
#
# PCOD9549802 Si02
#       6
#     8   8   8   8   8   8
#     4  10  23  44  66  95 131 170 211 260 340 418
#     4  11  24  46  76 102 132 172 214 267 335 419
#     4  11  23  38  61  91 123 164 219 275 323 387
#     4  11  22  39  60  85 129 178 221 279 337 392
#     4  11  22  37  61  91 123 167 223 276 328 401
#     4  10  23  39  56  86 127 177 226 271 340 402
#
# _framework density 23.16921
#
# number of rings (size 3 to 8) (size 9 to 14) (size 15 to 20)
#    0.000    1.333    0.000    6.500    0.000   10.667 
#    0.000    6.667    0.000    0.000    0.000    0.000 
#    0.000    0.000    0.000    0.000    0.000    0.000 
#
# Total GULP energy -267470.017601 kJ/mol
# GULP energy per Si atom -5572.292033 kJ/mol
# Density = 2.311648 g / cm^3
# Si number density = 23.169210 Si / 1000 Ang^3
#
#
#
# Elastic Constant Matrix: (Units=GPa)
#
#
# Indices 1 2 3 4 5 6 
#
# 1 88.3453 38.7718 20.4869 0.0000 0.0000 0.0000
# 2 38.7718 88.3453 20.4869 0.0000 0.0000 0.0000
# 3 20.4869 20.4869 98.5694 0.0000 0.0000 0.0000
# 4 0.0000 0.0000 0.0000 12.9557 0.0000 0.0000
# 5 0.0000 0.0000 0.0000 0.0000 12.9557 0.0000
# 6 0.0000 0.0000 0.0000 0.0000 0.0000 26.4620
#
#
#
# Elastic Compliance Matrix: (Units=1/GPa)
#
#
# Indices 1 2 3 4 5 6 
#
# 1 0.014302 -0.005870 -0.001752 0.000000 0.000000 0.000000
# 2 -0.005870 0.014302 -0.001752 0.000000 0.000000 0.000000
# 3 -0.001752 -0.001752 0.010874 0.000000 0.000000 0.000000
# 4 0.000000 0.000000 0.000000 0.077186 0.000000 0.000000
# 5 0.000000 0.000000 0.000000 0.000000 0.077186 0.000000
# 6 0.000000 0.000000 0.000000 0.000000 0.000000 0.037790
#
#
# Mechanical properties :
#
#
# Convention : Reuss Voigt Hill
#
# Bulk Modulus (GPa) = 48.24609 48.30568 48.27589
# Shear Modulus (GPa) = 19.43262 23.50896 21.47079
#
# Velocity S-wave (km/s) = 2.89922 3.18883 3.04747
# Velocity P-wave (km/s) = 5.66356 5.86963 5.76751
#
# Compressibility (1/GPa) = 0.02072707
#
# Stress axis : x y z
#
# Youngs Moduli (GPa) = 69.92104 69.92104 91.96585
#
# Poissons Ratio (x) = 0.41045 0.16117
# Poissons Ratio (y) = 0.41045 0.16117
# Poissons Ratio (z) = 0.12253 0.12253
#
# Static dielectric constant tensor:
#      x y z
#    x 1.933110 0.000000 0.000000 
#    y 0.000000 1.933110 0.000000 
#    z 0.000000 0.000000 1.862360 
# 
# From -- ./inp_files/7813.got.cif
#   From: 2010.05.17/outbox.cif.g08.bks.cpg/sg93_4_cif.got.tgz:7813.got - 2010.06.03 19:38:44.
