data_PCOD9549339
_publ_section_title
;
Structure prediction by ZEFSAII (Michael W. Deem and Ramdas Pophale) SiO2 
 PCOD9549339
Probable space group: P 41 21 2
;
_chemical_formula_sum "Si O2"
_cell_formula_units_Z 48
_cell_length_a 8.926905
_cell_length_b 8.926905
_cell_length_c 29.018618
_cell_angle_alpha 90.000000
_cell_angle_beta 90.000000
_cell_angle_gamma 90.000000
_cell_volume 2312.483015
_symmetry_space_group_name_H-M "P 41 21 2"
_symmetry_group_IT_number 92
_symmetry_cell_setting 'tetragonal'
loop_
_space_group_symop_operation_xyz
x,y,z
1/2-y,1/2+x,1/4+z
-x,-y,1/2+z
1/2+y,1/2-x,3/4+z
1/2+x,1/2-y,3/4-z
1/2-x,1/2+y,1/4-z
y,x,-z
-y,-x,1/2-z
loop_
_atom_site_type_symbol
_atom_site_label
_atom_site_fract_x
_atom_site_fract_y
_atom_site_fract_z
Si Si1 0.251436 0.337242 0.448214
Si Si2 0.171747 0.174571 0.948533
Si Si3 0.771749 0.442053 0.361045
Si Si4 0.543331 0.457073 0.607196
Si Si5 0.019883 0.434399 0.698444
Si Si6 0.664883 0.967202 0.699972
O O1 0.299811 0.299811 0.500000
O O2 0.206199 0.187498 0.421011
O O3 0.389902 0.401364 0.418879
O O4 0.111668 0.450946 0.449150
O O5 0.117061 0.075298 0.906357
O O6 0.107760 0.343853 0.942068
O O7 0.352112 0.166766 0.948013
O O8 0.124368 0.124368 0.000000
O O9 0.632667 0.533306 0.382034
O O10 0.864141 0.391044 0.405735
O O11 0.885908 0.538894 0.330286
O O12 0.678973 0.420665 0.572532
O O13 0.070980 0.362300 0.746691
#
# Coordination Sequence:
#
# PCOD9549339 Si02
#       6
#     8   8   8   8   8   8
#     4  12  28  47  67 106 146 197 233 296 377 435
#     4  10  23  43  72 105 129 183 235 289 356 413
#     4  12  25  46  70 103 144 190 236 299 361 434
#     4  12  25  43  72 105 139 183 250 290 366 431
#     4  11  23  45  72  97 145 181 237 301 352 433
#     4  11  22  44  75 100 138 179 242 297 356 426
#
# _framework density 20.756909
#
# number of rings (size 3 to 8) (size 9 to 14) (size 15 to 20)
#    0.000    0.667    5.000    2.000    4.667    0.667 
#    3.000    0.000    0.000    0.000    0.000    0.000 
#    0.000    0.000    0.000    0.000    0.000    0.000 
#
# Total GULP energy -268247.172689 kJ/mol
# GULP energy per Si atom -5588.482764 kJ/mol
# Density = 2.070966 g / cm^3
# Si number density = 20.756909 Si / 1000 Ang^3
#
#
#
# Elastic Constant Matrix: (Units=GPa)
#
#
# Indices 1 2 3 4 5 6 
#
# 1 59.0262 22.4248 37.3660 0.0000 0.0000 0.0000
# 2 22.4248 59.0262 37.3660 0.0000 0.0000 0.0000
# 3 37.3660 37.3660 169.4448 0.0000 0.0000 0.0000
# 4 0.0000 0.0000 0.0000 24.4825 0.0000 0.0000
# 5 0.0000 0.0000 0.0000 0.0000 24.4825 0.0000
# 6 0.0000 0.0000 0.0000 0.0000 0.0000 26.6815
#
#
#
# Elastic Compliance Matrix: (Units=1/GPa)
#
#
# Indices 1 2 3 4 5 6 
#
# 1 0.021356 -0.005965 -0.003394 0.000000 0.000000 0.000000
# 2 -0.005965 0.021356 -0.003394 0.000000 0.000000 0.000000
# 3 -0.003394 -0.003394 0.007399 0.000000 0.000000 0.000000
# 4 0.000000 0.000000 0.000000 0.040845 0.000000 0.000000
# 5 0.000000 0.000000 0.000000 0.000000 0.040845 0.000000
# 6 0.000000 0.000000 0.000000 0.000000 0.000000 0.037479
#
#
# Mechanical properties :
#
#
# Convention : Reuss Voigt Hill
#
# Bulk Modulus (GPa) = 40.64219 53.53454 47.08837
# Shear Modulus (GPa) = 24.63181 27.81867 26.22524
#
# Velocity S-wave (km/s) = 3.44856 3.66486 3.55836
# Velocity P-wave (km/s) = 5.95645 6.61479 6.29424
#
# Compressibility (1/GPa) = 0.02460497
#
# Stress axis : x y z
#
# Youngs Moduli (GPa) = 46.82436 46.82436 135.16122
#
# Poissons Ratio (x) = 0.27931 0.45875
# Poissons Ratio (y) = 0.27931 0.45875
# Poissons Ratio (z) = 0.15893 0.15893
#
# Static dielectric constant tensor:
#      x y z
#    x 1.745990 0.000000 0.000000 
#    y 0.000000 1.745990 0.000000 
#    z 0.000000 0.000000 1.727780 
# 
# From -- ./inp_files/4480.got.cif
#   From: 2010.05.17/outbox.cif.g08.bks.cpg/sg92_3_cif.got.tgz:4480.got - 2010.06.03 19:35:17.
