data_PCOD9549490
_publ_section_title
;
Structure prediction by ZEFSAII (Michael W. Deem and Ramdas Pophale) SiO2 
 PCOD9549490
Probable space group: P 41 21 2
;
_chemical_formula_sum "Si O2"
_cell_formula_units_Z 32
_cell_length_a 8.457046
_cell_length_b 8.457046
_cell_length_c 18.164081
_cell_angle_alpha 90.000000
_cell_angle_beta 90.000000
_cell_angle_gamma 90.000000
_cell_volume 1299.124627
_symmetry_space_group_name_H-M "P 41 21 2"
_symmetry_group_IT_number 92
_symmetry_cell_setting 'tetragonal'
loop_
_space_group_symop_operation_xyz
x,y,z
1/2-y,1/2+x,1/4+z
-x,-y,1/2+z
1/2+y,1/2-x,3/4+z
1/2+x,1/2-y,3/4-z
1/2-x,1/2+y,1/4-z
y,x,-z
-y,-x,1/2-z
loop_
_atom_site_type_symbol
_atom_site_label
_atom_site_fract_x
_atom_site_fract_y
_atom_site_fract_z
Si Si1 0.101214 0.734808 0.184288
Si Si2 0.023166 0.733236 0.767135
Si Si3 0.214531 0.463042 0.689096
Si Si4 0.787931 0.088066 0.543263
O O1 0.153657 0.846344 0.250000
O O2 0.119478 0.830909 0.109497
O O3 0.222649 0.585311 0.188168
O O4 0.926067 0.666266 0.193560
O O5 0.099314 0.900686 0.750000
O O6 0.152578 0.603198 0.741151
O O7 0.988387 0.721322 0.853907
O O8 0.871394 0.689389 0.719846
O O9 0.377219 0.388582 0.719310
#
# Coordination Sequence:
#
# PCOD9549490 Si02
#       4
#     8   8   8   8
#     4  11  25  43  71  99 136 175 225 274 338 398
#     4  11  25  42  69  95 136 174 228 277 341 401
#     4  11  23  47  65  98 134 179 220 282 337 398
#     4  11  25  44  71  98 135 175 224 280 336 402
#
# _framework density 24.631974
#
# number of rings (size 3 to 8) (size 9 to 14) (size 15 to 20)
#    0.000    1.000    2.500    3.000   14.000    4.000 
#    0.000    0.000    0.000    0.000    0.000    0.000 
#    0.000    0.000    0.000    0.000    0.000    0.000 
#
# Total GULP energy -179430.207608 kJ/mol
# GULP energy per Si atom -5607.193988 kJ/mol
# Density = 2.457591 g / cm^3
# Si number density = 24.631974 Si / 1000 Ang^3
#
#
#
# Elastic Constant Matrix: (Units=GPa)
#
#
# Indices 1 2 3 4 5 6 
#
# 1 25.4201 80.5023 16.3633 0.0000 0.0000 0.0000
# 2 80.5023 25.4173 16.3639 0.0000 0.0000 0.0000
# 3 16.3633 16.3639 127.4908 0.0000 0.0000 0.0000
# 4 0.0000 0.0000 0.0000 19.4388 0.0000 0.0000
# 5 0.0000 0.0000 0.0000 0.0000 19.4395 0.0000
# 6 0.0000 0.0000 0.0000 0.0000 0.0000 61.5911
#
#
#
# Elastic Compliance Matrix: (Units=1/GPa)
#
#
# Indices 1 2 3 4 5 6 
#
# 1 -0.004161 0.013993 -0.001262 0.000000 0.000000 0.000000
# 2 0.013993 -0.004162 -0.001262 0.000000 0.000000 0.000000
# 3 -0.001262 -0.001262 0.008168 0.000000 0.000000 0.000000
# 4 0.000000 0.000000 0.000000 0.051444 0.000000 0.000000
# 5 0.000000 0.000000 0.000000 0.000000 0.051442 0.000000
# 6 0.000000 0.000000 0.000000 0.000000 0.000000 0.016236
#
#
# Mechanical properties :
#
#
# Convention : Reuss Voigt Hill
#
# Bulk Modulus (GPa) = 43.89406 44.97637 44.43521
# Shear Modulus (GPa) = 48.25234 24.43378 36.34306
#
# Velocity S-wave (km/s) = 4.43078 3.15295 3.84532
# Velocity P-wave (km/s) = 6.63584 5.61727 6.14769
#
# Compressibility (1/GPa) = 0.02278213
#
# Stress axis : x y z
#
# Youngs Moduli (GPa) = -240.30372 -240.27284 122.43487
#
# Poissons Ratio (x) = 3.36203 0.15450
# Poissons Ratio (y) = 3.36246 0.15448
# Poissons Ratio (z) = -0.30324 -0.30316
#
# Static dielectric constant tensor:
#      x y z
#    x 1.968940 0.000000 0.000000 
#    y 0.000000 1.968940 0.000000 
#    z 0.000000 0.000000 1.873710 
# 
# From -- ./inp_files/3332.got.cif
#   From: 2010.05.17/outbox.cif.g08.bks.cpg/sg92_2_cif.got.tgz:3332.got - 2010.06.03 19:35:17.
