data_PCOD9549895
_publ_section_title
;
Structure prediction by ZEFSAII (Michael W. Deem and Ramdas Pophale) SiO2 
 PCOD9549895
Probable space group: P 42 2 2
;
_chemical_formula_sum "Si O2"
_cell_formula_units_Z 30
_cell_length_a 11.047857
_cell_length_b 11.047857
_cell_length_c 10.662732
_cell_angle_alpha 90.000000
_cell_angle_beta 90.000000
_cell_angle_gamma 90.000000
_cell_volume 1301.441293
_symmetry_space_group_name_H-M "P 42 2 2"
_symmetry_group_IT_number 93
_symmetry_cell_setting 'tetragonal'
loop_
_space_group_symop_operation_xyz
x,y,z
-y,x,1/2+z
-x,-y,z
y,-x,1/2+z
x,-y,-z
-x,y,-z
y,x,1/2-z
-y,-x,1/2-z
loop_
_atom_site_type_symbol
_atom_site_label
_atom_site_fract_x
_atom_site_fract_y
_atom_site_fract_z
Si Si1 0.235008 0.863317 0.530937
Si Si2 0.299627 0.000000 0.000000
Si Si3 0.275577 0.401228 0.847689
Si Si4 0.097682 0.409454 0.244126
Si Si5 0.500000 0.500000 0.000000
O O1 0.120708 0.782032 0.493281
O O2 0.350594 0.811005 0.455578
O O3 0.285911 0.873822 0.671885
O O4 0.204203 0.000000 0.500000
O O5 0.376748 0.964873 0.876551
O O6 0.293748 0.293748 0.750000
O O7 0.220337 0.512678 0.769121
O O8 0.405374 0.429440 0.910752
O O9 0.000000 0.500000 0.180983
#
# Coordination Sequence:
#
# PCOD9549895 Si02
#       5
#     8   4   8   8   2
#     4  12  26  50  79 112 157 213 272 334 420 488
#     4  12  30  46  78 124 158 206 280 350 414 502
#     4  12  27  46  77 117 164 219 278 337 417 508
#     4  12  25  51  80 113 157 215 268 340 419 500
#     4  12  26  44  78 120 164 220 274 342 412 504
#
# _framework density 23.051368
#
# number of rings (size 3 to 8) (size 9 to 14) (size 15 to 20)
#    0.000    0.000    5.333    3.600    3.733    2.133 
#    0.000    2.667    0.000    0.000    0.000    0.000 
#    0.000    0.000    0.000    0.000    0.000    0.000 
#
# Total GULP energy -167447.579813 kJ/mol
# GULP energy per Si atom -5581.585994 kJ/mol
# Density = 2.299890 g / cm^3
# Si number density = 23.051368 Si / 1000 Ang^3
#
#
#
# Elastic Constant Matrix: (Units=GPa)
#
#
# Indices 1 2 3 4 5 6 
#
# 1 145.9809 67.1527 63.7931 0.0000 0.0000 0.0000
# 2 67.1527 145.9809 63.7931 0.0000 0.0000 0.0000
# 3 63.7931 63.7931 148.2079 0.0000 0.0000 0.0000
# 4 0.0000 0.0000 0.0000 45.3005 0.0000 0.0000
# 5 0.0000 0.0000 0.0000 0.0000 45.3005 0.0000
# 6 0.0000 0.0000 0.0000 0.0000 0.0000 23.1889
#
#
#
# Elastic Compliance Matrix: (Units=1/GPa)
#
#
# Indices 1 2 3 4 5 6 
#
# 1 0.009503 -0.003183 -0.002721 0.000000 0.000000 0.000000
# 2 -0.003183 0.009503 -0.002721 0.000000 0.000000 0.000000
# 3 -0.002721 -0.002721 0.009089 0.000000 0.000000 0.000000
# 4 0.000000 0.000000 0.000000 0.022075 0.000000 0.000000
# 5 0.000000 0.000000 0.000000 0.000000 0.022075 0.000000
# 6 0.000000 0.000000 0.000000 0.000000 0.000000 0.043124
#
#
# Mechanical properties :
#
#
# Convention : Reuss Voigt Hill
#
# Bulk Modulus (GPa) = 92.18195 92.18307 92.18251
# Shear Modulus (GPa) = 36.70193 39.12004 37.91098
#
# Velocity S-wave (km/s) = 3.99454 4.12403 4.05980
# Velocity P-wave (km/s) = 7.83274 7.92174 7.87736
#
# Compressibility (1/GPa) = 0.01084811
#
# Stress axis : x y z
#
# Youngs Moduli (GPa) = 105.22848 105.22848 110.02003
#
# Poissons Ratio (x) = 0.33491 0.29931
# Poissons Ratio (y) = 0.33491 0.29931
# Poissons Ratio (z) = 0.28627 0.28627
#
# Static dielectric constant tensor:
#      x y z
#    x 1.875650 0.000000 0.000000 
#    y 0.000000 1.875650 0.000000 
#    z 0.000000 0.000000 1.968190 
# 
# From -- ./inp_files/2880.got.cif
#   From: 2010.05.17/outbox.cif.g08.bks.cpg/sg93_2_cif.got.tgz:2880.got - 2010.06.03 19:38:44.
