data_PCOD9549001
_publ_section_title
;
Structure prediction by ZEFSAII (Michael W. Deem and Ramdas Pophale) SiO2 
 PCOD9549001
Probable space group: P 41 21 2
;
_chemical_formula_sum "Si O2"
_cell_formula_units_Z 40
_cell_length_a 14.821916
_cell_length_b 14.821916
_cell_length_c 7.454145
_cell_angle_alpha 90.000000
_cell_angle_beta 90.000000
_cell_angle_gamma 90.000000
_cell_volume 1637.595106
_symmetry_space_group_name_H-M "P 41 21 2"
_symmetry_group_IT_number 92
_symmetry_cell_setting 'tetragonal'
loop_
_space_group_symop_operation_xyz
x,y,z
1/2-y,1/2+x,1/4+z
-x,-y,1/2+z
1/2+y,1/2-x,3/4+z
1/2+x,1/2-y,3/4-z
1/2-x,1/2+y,1/4-z
y,x,-z
-y,-x,1/2-z
loop_
_atom_site_type_symbol
_atom_site_label
_atom_site_fract_x
_atom_site_fract_y
_atom_site_fract_z
Si Si1 0.564510 0.804170 0.528880
Si Si2 0.462195 0.893227 0.989151
Si Si3 0.106492 0.893509 0.250000
Si Si4 0.133062 0.271530 0.776234
Si Si5 0.702495 0.412248 0.931901
Si Si6 0.525144 0.474857 0.750000
O O1 0.577103 0.885768 0.387849
O O2 0.593490 0.709021 0.443171
O O3 0.460422 0.788532 0.571354
O O4 0.633543 0.818480 0.692218
O O5 0.555129 0.933148 0.061773
O O6 0.464757 0.785392 0.982059
O O7 0.071364 0.955519 0.413174
O O8 0.189652 0.184190 0.719447
O O9 0.105733 0.239478 0.979269
O O10 0.605031 0.457316 0.897702
#
# Coordination Sequence:
#
# PCOD9549001 Si02
#       6
#     8   8   4   8   8   4
#     4  11  17  30  54  80 112 136 190 234 278 321
#     4  11  20  34  56  84 111 143 187 234 288 340
#     4  12  20  35  58  84 109 152 184 238 284 334
#     4   9  17  28  51  81 105 138 181 240 271 318
#     4   9  16  34  49  76 109 139 181 233 270 330
#     4  10  20  35  56  82 111 140 198 232 276 338
#
# _framework density 24.426062999999999
#
# number of rings (size 3 to 8) (size 9 to 14) (size 15 to 20)
#    0.000    2.000    8.000    2.400    0.000    0.000 
#    0.000    2.000    0.000    0.000    0.000    0.000 
#    0.000    0.000    0.000    0.000    0.000    0.000 
#
# Total GULP energy -223489.586539 kJ/mol
# GULP energy per Si atom -5587.239663 kJ/mol
# Density = 2.437047 g / cm^3
# Si number density = 24.426063 Si / 1000 Ang^3
#
#
#
# Elastic Constant Matrix: (Units=GPa)
#
#
# Indices 1 2 3 4 5 6 
#
# 1 1170.3474-1080.1095 8.0472 0.0000 0.0000 0.0000
# 2 -1080.1095 1170.4976 8.1326 0.0000 0.0000 0.0000
# 3 8.0472 8.1326 52.8253 0.0000 0.0000 0.0000
# 4 0.0000 0.0000 0.0000 8.2555 0.0000 0.0000
# 5 0.0000 0.0000 0.0000 0.0000 8.2552 0.0000
# 6 0.0000 0.0000 0.0000 0.0000 0.0000 29.5695
#
#
#
# Elastic Compliance Matrix: (Units=1/GPa)
#
#
# Indices 1 2 3 4 5 6 
#
# 1 0.005915 0.005470 -0.001743 0.000000 0.000000 0.000000
# 2 0.005470 0.005914 -0.001744 0.000000 0.000000 0.000000
# 3 -0.001743 -0.001744 0.019464 0.000000 0.000000 0.000000
# 4 0.000000 0.000000 0.000000 0.121131 0.000000 0.000000
# 5 0.000000 0.000000 0.000000 0.000000 0.121135 0.000000
# 6 0.000000 0.000000 0.000000 0.000000 0.000000 0.033819
#
#
# Mechanical properties :
#
#
# Convention : Reuss Voigt Hill
#
# Bulk Modulus (GPa) = 28.36064 29.53452 28.94758
# Shear Modulus (GPa) = 15.86466 239.72272 127.79369
#
# Velocity S-wave (km/s) = 2.55129 9.91742 7.24101
# Velocity P-wave (km/s) = 4.50719 11.96904 9.04358
#
# Compressibility (1/GPa) = 0.03526013
#
# Stress axis : x y z
#
# Youngs Moduli (GPa) = 169.06265 169.08058 51.37597
#
# Poissons Ratio (x) = -0.92492 0.08956
# Poissons Ratio (y) = -0.92483 0.08959
# Poissons Ratio (z) = 0.29471 0.29485
#
# Static dielectric constant tensor:
#      x y z
#    x 1.960190 0.000000 0.000000 
#    y 0.000000 1.960190 0.000000 
#    z 0.000000 0.000000 2.009790 
# 
# From -- ./inp_files/1379.got.cif
#   From: 2010.05.17/outbox.cif.g08.bks.cpg/sg92_1_cif.got.tgz:1379.got - 2010.06.03 19:35:17.
