data_PCOD9549585
_publ_section_title
;
Structure prediction by ZEFSAII (Michael W. Deem and Ramdas Pophale) SiO2 
 PCOD9549585
Probable space group: P 41 21 2
;
_chemical_formula_sum "Si O2"
_cell_formula_units_Z 32
_cell_length_a 9.156177
_cell_length_b 9.156177
_cell_length_c 17.717235
_cell_angle_alpha 90.000000
_cell_angle_beta 90.000000
_cell_angle_gamma 90.000000
_cell_volume 1485.334624
_symmetry_space_group_name_H-M "P 41 21 2"
_symmetry_group_IT_number 92
_symmetry_cell_setting 'tetragonal'
loop_
_space_group_symop_operation_xyz
x,y,z
1/2-y,1/2+x,1/4+z
-x,-y,1/2+z
1/2+y,1/2-x,3/4+z
1/2+x,1/2-y,3/4-z
1/2-x,1/2+y,1/4-z
y,x,-z
-y,-x,1/2-z
loop_
_atom_site_type_symbol
_atom_site_label
_atom_site_fract_x
_atom_site_fract_y
_atom_site_fract_z
Si Si1 0.731124 0.498600 0.727317
Si Si2 0.221535 0.638533 0.580737
Si Si3 0.175073 0.008633 0.429254
Si Si4 0.551597 0.945812 0.019561
O O1 0.644701 0.355300 0.750000
O O2 0.734403 0.621847 0.794158
O O3 0.637371 0.582805 0.664181
O O4 0.901003 0.470737 0.713905
O O5 0.119137 0.178728 0.640827
O O6 0.134929 0.586886 0.654378
O O7 0.203588 0.508497 0.519873
O O8 0.090785 0.090785 0.500000
O O9 0.337151 0.981846 0.460895
#
# Coordination Sequence:
#
# PCOD9549585 Si02
#       4
#     8   8   8   8
#     4   9  20  36  59  84 119 152 200 252 307 356
#     4   9  20  36  60  88 117 159 209 250 306 366
#     4   9  18  34  61  82 108 154 202 245 292 371
#     4   9  20  36  58  88 119 156 204 254 304 364
#
# _framework density 21.543966999999999
#
# number of rings (size 3 to 8) (size 9 to 14) (size 15 to 20)
#    1.500    1.500    0.000    0.000   10.500    0.000 
#    4.500    0.000    0.000    4.500    0.000    0.000 
#    0.000    0.000    0.000    0.000    0.000    0.000 
#
# Total GULP energy -178157.431841 kJ/mol
# GULP energy per Si atom -5567.419745 kJ/mol
# Density = 2.149493 g / cm^3
# Si number density = 21.543967 Si / 1000 Ang^3
#
#
#
# Elastic Constant Matrix: (Units=GPa)
#
#
# Indices 1 2 3 4 5 6 
#
# 1 95.2444 26.6194 -8.2475 0.0000 0.0000 0.0000
# 2 26.6194 95.2436 -8.2478 0.0000 0.0000 0.0000
# 3 -8.2475 -8.2478 29.2646 0.0000 0.0000 0.0000
# 4 0.0000 0.0000 0.0000 8.9284 0.0000 0.0000
# 5 0.0000 0.0000 0.0000 0.0000 8.9277 0.0000
# 6 0.0000 0.0000 0.0000 0.0000 0.0000 11.9408
#
#
#
# Elastic Compliance Matrix: (Units=1/GPa)
#
#
# Indices 1 2 3 4 5 6 
#
# 1 0.011552 -0.003020 0.002404 0.000000 0.000000 0.000000
# 2 -0.003020 0.011552 0.002404 0.000000 0.000000 0.000000
# 3 0.002404 0.002404 0.035526 0.000000 0.000000 0.000000
# 4 0.000000 0.000000 0.000000 0.112002 0.000000 0.000000
# 5 0.000000 0.000000 0.000000 0.000000 0.112011 0.000000
# 6 0.000000 0.000000 0.000000 0.000000 0.000000 0.083747
#
#
# Mechanical properties :
#
#
# Convention : Reuss Voigt Hill
#
# Bulk Modulus (GPa) = 16.07548 26.66677 21.37113
# Shear Modulus (GPa) = 13.03617 19.93460 16.48539
#
# Velocity S-wave (km/s) = 2.46254 3.04517 2.76922
# Velocity P-wave (km/s) = 3.94504 4.97683 4.49067
#
# Compressibility (1/GPa) = 0.06220652
#
# Stress axis : x y z
#
# Youngs Moduli (GPa) = 86.56781 86.56689 28.14822
#
# Poissons Ratio (x) = 0.26146 -0.06768
# Poissons Ratio (y) = 0.26146 -0.06768
# Poissons Ratio (z) = -0.20813 -0.20815
#
# Static dielectric constant tensor:
#      x y z
#    x 1.837280 0.000000 0.000000 
#    y 0.000000 1.837280 0.000000 
#    z 0.000000 0.000000 1.797780 
# 
# From -- ./inp_files/3727.got.cif
#   From: 2010.05.17/outbox.cif.g08.bks.cpg/sg92_2_cif.got.tgz:3727.got - 2010.06.03 19:35:17.
