data_PCOD9549450
_publ_section_title
;
Structure prediction by ZEFSAII (Michael W. Deem and Ramdas Pophale) SiO2 
 PCOD9549450
Probable space group: P 41 21 2
;
_chemical_formula_sum "Si O2"
_cell_formula_units_Z 40
_cell_length_a 15.527344
_cell_length_b 15.527344
_cell_length_c 7.770864
_cell_angle_alpha 90.000000
_cell_angle_beta 90.000000
_cell_angle_gamma 90.000000
_cell_volume 1873.542968
_symmetry_space_group_name_H-M "P 41 21 2"
_symmetry_group_IT_number 92
_symmetry_cell_setting 'tetragonal'
loop_
_space_group_symop_operation_xyz
x,y,z
1/2-y,1/2+x,1/4+z
-x,-y,1/2+z
1/2+y,1/2-x,3/4+z
1/2+x,1/2-y,3/4-z
1/2-x,1/2+y,1/4-z
y,x,-z
-y,-x,1/2-z
loop_
_atom_site_type_symbol
_atom_site_label
_atom_site_fract_x
_atom_site_fract_y
_atom_site_fract_z
Si Si1 0.552083 0.308614 0.289607
Si Si2 0.172498 0.854217 0.444939
Si Si3 0.043145 0.397070 0.902026
Si Si4 0.150858 0.663334 0.850885
Si Si5 0.980606 0.244416 0.105939
O O1 0.607515 0.392486 0.250000
O O2 0.456891 0.315775 0.208788
O O3 0.603139 0.226610 0.216215
O O4 0.538177 0.295153 0.493410
O O5 0.177542 0.822459 0.250000
O O6 0.248241 0.815429 0.563295
O O7 0.080862 0.826332 0.521132
O O8 0.114436 0.399662 0.753008
O O9 0.956093 0.430089 0.812115
O O10 0.031873 0.299675 0.966964
O O11 0.084340 0.688922 0.701777
#
# Coordination Sequence:
#
# PCOD9549450 Si02
#       5
#     8   8   8   8   8
#     4  11  23  40  65  94 122 163 218 269 318 380
#     4  11  24  43  65  90 127 171 211 257 322 392
#     4  12  23  38  62  95 128 163 212 270 326 385
#     4  11  22  40  62  89 124 165 209 255 317 386
#     4  11  23  43  63  88 127 170 204 255 322 383
#
# _framework density 21.349926
#
# number of rings (size 3 to 8) (size 9 to 14) (size 15 to 20)
#    0.000    0.800    0.000   10.800    0.000    3.200 
#    0.000    2.000    0.000    0.000    0.000    0.000 
#    0.000    0.000    0.000    0.000    0.000    0.000 
#
# Total GULP energy -224002.998411 kJ/mol
# GULP energy per Si atom -5600.074960 kJ/mol
# Density = 2.130133 g / cm^3
# Si number density = 21.349926 Si / 1000 Ang^3
#
#
#
# Elastic Constant Matrix: (Units=GPa)
#
#
# Indices 1 2 3 4 5 6 
#
# 1 59.7806 44.9894 21.1728 0.0000 0.0000 0.0000
# 2 44.9894 59.7798 21.1737 0.0000 0.0000 0.0000
# 3 21.1728 21.1737 82.9067 0.0000 0.0000 0.0000
# 4 0.0000 0.0000 0.0000 36.3313 0.0000 0.0000
# 5 0.0000 0.0000 0.0000 0.0000 36.3326 0.0000
# 6 0.0000 0.0000 0.0000 0.0000 0.0000 48.3809
#
#
#
# Elastic Compliance Matrix: (Units=1/GPa)
#
#
# Indices 1 2 3 4 5 6 
#
# 1 0.039126 -0.028483 -0.002718 0.000000 0.000000 0.000000
# 2 -0.028483 0.039127 -0.002719 0.000000 0.000000 0.000000
# 3 -0.002718 -0.002719 0.013450 0.000000 0.000000 0.000000
# 4 0.000000 0.000000 0.000000 0.027524 0.000000 0.000000
# 5 0.000000 0.000000 0.000000 0.000000 0.027524 0.000000
# 6 0.000000 0.000000 0.000000 0.000000 0.000000 0.020669
#
#
# Mechanical properties :
#
#
# Convention : Reuss Voigt Hill
#
# Bulk Modulus (GPa) = 41.90377 41.90434 41.90405
# Shear Modulus (GPa) = 20.55802 31.88436 26.22119
#
# Velocity S-wave (km/s) = 3.10644 3.86867 3.50832
# Velocity P-wave (km/s) = 5.70407 6.29488 6.00674
#
# Compressibility (1/GPa) = 0.02386420
#
# Stress axis : x y z
#
# Youngs Moduli (GPa) = 25.55843 25.55784 74.34869
#
# Poissons Ratio (x) = 0.72797 0.20206
# Poissons Ratio (y) = 0.72798 0.20213
# Poissons Ratio (z) = 0.06946 0.06948
#
# Static dielectric constant tensor:
#      x y z
#    x 1.768640 0.000000 0.000000 
#    y 0.000000 1.768640 0.000000 
#    z 0.000000 0.000000 1.752370 
# 
# From -- ./inp_files/1337.got.cif
#   From: 2010.05.17/outbox.cif.g08.bks.cpg/sg92_1_cif.got.tgz:1337.got - 2010.06.03 19:35:17.
