data_PCOD9549434
_publ_section_title
;
Structure prediction by ZEFSAII (Michael W. Deem and Ramdas Pophale) SiO2 
 PCOD9549434
Probable space group: P 41 21 2
;
_chemical_formula_sum "Si O2"
_cell_formula_units_Z 32
_cell_length_a 8.132648
_cell_length_b 8.132648
_cell_length_c 17.891879
_cell_angle_alpha 90.000000
_cell_angle_beta 90.000000
_cell_angle_gamma 90.000000
_cell_volume 1183.368224
_symmetry_space_group_name_H-M "P 41 21 2"
_symmetry_group_IT_number 92
_symmetry_cell_setting 'tetragonal'
loop_
_space_group_symop_operation_xyz
x,y,z
1/2-y,1/2+x,1/4+z
-x,-y,1/2+z
1/2+y,1/2-x,3/4+z
1/2+x,1/2-y,3/4-z
1/2-x,1/2+y,1/4-z
y,x,-z
-y,-x,1/2-z
loop_
_atom_site_type_symbol
_atom_site_label
_atom_site_fract_x
_atom_site_fract_y
_atom_site_fract_z
Si Si1 0.813651 0.077271 0.015474
Si Si2 0.649037 0.910175 0.888871
Si Si3 0.353379 0.150782 0.858750
Si Si4 0.964656 0.001966 0.668307
O O1 0.829005 0.244357 0.967938
O O2 0.676860 0.959371 0.975054
O O3 0.762701 0.103900 0.101185
O O4 0.980532 0.980532 0.000000
O O5 0.504363 0.025913 0.858681
O O6 0.832876 0.942394 0.858816
O O7 0.413917 0.281731 0.920465
O O8 0.173248 0.075415 0.871331
O O9 0.034805 0.965196 0.750000
#
# Coordination Sequence:
#
# PCOD9549434 Si02
#       4
#     8   8   8   8
#     4  11  26  48  69 111 155 201 261 328 403 469
#     4  11  24  48  71 111 151 201 261 318 397 474
#     4  11  22  42  74 103 139 201 250 312 399 461
#     4  11  20  41  71 102 145 188 250 318 380 467
#
# _framework density 27.041453000000001
#
# number of rings (size 3 to 8) (size 9 to 14) (size 15 to 20)
#    0.000    1.000    7.500    0.000    0.000    4.000 
#   18.000    0.000    0.000    0.000    0.000    0.000 
#    0.000    0.000    0.000    0.000    0.000    0.000 
#
# Total GULP energy -178682.591311 kJ/mol
# GULP energy per Si atom -5583.830978 kJ/mol
# Density = 2.697991 g / cm^3
# Si number density = 27.041453 Si / 1000 Ang^3
#
#
#
# Elastic Constant Matrix: (Units=GPa)
#
#
# Indices 1 2 3 4 5 6 
#
# 1 163.2894 84.7921 -3.0780 0.0000 0.0000 0.0000
# 2 84.7921 163.2898 -3.0779 0.0000 0.0000 0.0000
# 3 -3.0780 -3.0779 61.3361 0.0000 0.0000 0.0000
# 4 0.0000 0.0000 0.0000 15.8732 0.0000 0.0000
# 5 0.0000 0.0000 0.0000 0.0000 15.8733 0.0000
# 6 0.0000 0.0000 0.0000 0.0000 0.0000 47.2669
#
#
#
# Elastic Compliance Matrix: (Units=1/GPa)
#
#
# Indices 1 2 3 4 5 6 
#
# 1 0.008388 -0.004352 0.000203 0.000000 0.000000 0.000000
# 2 -0.004352 0.008388 0.000203 0.000000 0.000000 0.000000
# 3 0.000203 0.000203 0.016324 0.000000 0.000000 0.000000
# 4 0.000000 0.000000 0.000000 0.062999 0.000000 0.000000
# 5 0.000000 0.000000 0.000000 0.000000 0.062999 0.000000
# 6 0.000000 0.000000 0.000000 0.000000 0.000000 0.021156
#
#
# Mechanical properties :
#
#
# Convention : Reuss Voigt Hill
#
# Bulk Modulus (GPa) = 39.67312 60.57640 50.12476
# Shear Modulus (GPa) = 25.43892 36.42127 30.93009
#
# Velocity S-wave (km/s) = 3.07047 3.67395 3.38568
# Velocity P-wave (km/s) = 5.22240 6.35981 5.81896
#
# Compressibility (1/GPa) = 0.02520598
#
# Stress axis : x y z
#
# Youngs Moduli (GPa) = 119.22337 119.22364 61.25970
#
# Poissons Ratio (x) = 0.51882 -0.01241
# Poissons Ratio (y) = 0.51882 -0.01241
# Poissons Ratio (z) = -0.02415 -0.02415
#
# Static dielectric constant tensor:
#      x y z
#    x 2.070270 0.000000 0.000000 
#    y 0.000000 2.070270 0.000000 
#    z 0.000000 0.000000 2.365050 
# 
# From -- ./inp_files/3719.got.cif
#   From: 2010.05.17/outbox.cif.g08.bks.cpg/sg92_2_cif.got.tgz:3719.got - 2010.06.03 19:35:17.
