data_PCOD9549332
_publ_section_title
;
Structure prediction by ZEFSAII (Michael W. Deem and Ramdas Pophale) SiO2 
 PCOD9549332
Probable space group: P 41 21 2
;
_chemical_formula_sum "Si O2"
_cell_formula_units_Z 36
_cell_length_a 8.982888
_cell_length_b 8.982888
_cell_length_c 17.343540
_cell_angle_alpha 90.000000
_cell_angle_beta 90.000000
_cell_angle_gamma 90.000000
_cell_volume 1399.489731
_symmetry_space_group_name_H-M "P 41 21 2"
_symmetry_group_IT_number 92
_symmetry_cell_setting 'tetragonal'
loop_
_space_group_symop_operation_xyz
x,y,z
1/2-y,1/2+x,1/4+z
-x,-y,1/2+z
1/2+y,1/2-x,3/4+z
1/2+x,1/2-y,3/4-z
1/2-x,1/2+y,1/4-z
y,x,-z
-y,-x,1/2-z
loop_
_atom_site_type_symbol
_atom_site_label
_atom_site_fract_x
_atom_site_fract_y
_atom_site_fract_z
Si Si1 0.194625 0.114713 0.178759
Si Si2 0.637303 0.729054 0.206535
Si Si3 0.500968 0.200704 0.368693
Si Si4 0.391250 0.903482 0.282151
Si Si5 0.881410 0.118591 0.250000
O O1 0.238705 0.271086 0.216688
O O2 0.017131 0.104127 0.188385
O O3 0.260874 0.984393 0.233921
O O4 0.275818 0.120877 0.097019
O O5 0.714643 0.826562 0.138941
O O6 0.670796 0.559462 0.187522
O O7 0.484842 0.814708 0.217814
O O8 0.420459 0.232652 0.451805
O O9 0.462697 0.044012 0.328665
#
# Coordination Sequence:
#
# PCOD9549332 Si02
#       5
#     8   8   8   8   4
#     4  10  24  40  67  95 138 175 231 291 349 418
#     4  10  23  42  68  99 131 183 234 278 353 410
#     4  10  23  43  70  98 134 182 228 289 340 421
#     4  11  22  44  69  98 137 186 227 289 355 419
#     4  10  24  44  64 104 136 172 244 288 348 420
#
# _framework density 25.723662999999998
#
# number of rings (size 3 to 8) (size 9 to 14) (size 15 to 20)
#    0.000    1.778    2.222    0.000    9.333    0.000 
#    0.000    2.222    0.000    0.000    0.000    0.000 
#    0.000    0.000    0.000    0.000    0.000    0.000 
#
# Total GULP energy -200984.716869 kJ/mol
# GULP energy per Si atom -5582.908802 kJ/mol
# Density = 2.566511 g / cm^3
# Si number density = 25.723663 Si / 1000 Ang^3
#
#
#
# Elastic Constant Matrix: (Units=GPa)
#
#
# Indices 1 2 3 4 5 6 
#
# 1 89.1268 24.2405 42.1791 0.0000 0.0000 0.0000
# 2 24.2405 89.1266 42.1791 0.0000 0.0000 0.0000
# 3 42.1791 42.1791 65.0372 0.0000 0.0000 0.0000
# 4 0.0000 0.0000 0.0000 43.2442 0.0000 0.0000
# 5 0.0000 0.0000 0.0000 0.0000 43.2440 0.0000
# 6 0.0000 0.0000 0.0000 0.0000 0.0000 29.8770
#
#
#
# Elastic Compliance Matrix: (Units=1/GPa)
#
#
# Indices 1 2 3 4 5 6 
#
# 1 0.016230 0.000818 -0.011056 0.000000 0.000000 0.000000
# 2 0.000818 0.016230 -0.011056 0.000000 0.000000 0.000000
# 3 -0.011056 -0.011056 0.029717 0.000000 0.000000 0.000000
# 4 0.000000 0.000000 0.000000 0.023125 0.000000 0.000000
# 5 0.000000 0.000000 0.000000 0.000000 0.023125 0.000000
# 6 0.000000 0.000000 0.000000 0.000000 0.000000 0.033471
#
#
# Mechanical properties :
#
#
# Convention : Reuss Voigt Hill
#
# Bulk Modulus (GPa) = 51.05282 51.16533 51.10908
# Shear Modulus (GPa) = 26.17608 32.25249 29.21428
#
# Velocity S-wave (km/s) = 3.19343 3.54475 3.37367
# Velocity P-wave (km/s) = 5.78680 6.05700 5.92344
#
# Compressibility (1/GPa) = 0.01958756
#
# Stress axis : x y z
#
# Youngs Moduli (GPa) = 61.61503 61.61480 33.65107
#
# Poissons Ratio (x) = -0.05042 0.37206
# Poissons Ratio (y) = -0.05042 0.37206
# Poissons Ratio (z) = 0.68124 0.68123
#
# Static dielectric constant tensor:
#      x y z
#    x 2.042600 0.000000 0.000000 
#    y 0.000000 2.042600 0.000000 
#    z 0.000000 0.000000 2.096440 
# 
# From -- ./inp_files/3478.got.cif
#   From: 2010.05.17/outbox.cif.g08.bks.cpg/sg92_2_cif.got.tgz:3478.got - 2010.06.03 19:35:17.
