data_PCOD9549624
_publ_section_title
;
Structure prediction by ZEFSAII (Michael W. Deem and Ramdas Pophale) SiO2 
 PCOD9549624
Probable space group: P 42 2 2
;
_chemical_formula_sum "Si O2"
_cell_formula_units_Z 56
_cell_length_a 15.666080
_cell_length_b 15.666080
_cell_length_c 10.977986
_cell_angle_alpha 90.000000
_cell_angle_beta 90.000000
_cell_angle_gamma 90.000000
_cell_volume 2694.283879
_symmetry_space_group_name_H-M "P 42 2 2"
_symmetry_group_IT_number 93
_symmetry_cell_setting 'tetragonal'
loop_
_space_group_symop_operation_xyz
x,y,z
-y,x,1/2+z
-x,-y,z
y,-x,1/2+z
x,-y,-z
-x,y,-z
y,x,1/2-z
-y,-x,1/2-z
loop_
_atom_site_type_symbol
_atom_site_label
_atom_site_fract_x
_atom_site_fract_y
_atom_site_fract_z
Si Si1 0.274332 0.079299 0.930102
Si Si2 0.416709 0.961424 0.637384
Si Si3 0.230185 0.017573 0.684345
Si Si4 0.785734 0.424642 0.402901
Si Si5 0.145146 0.198927 0.041930
Si Si6 0.313908 0.693360 0.923788
Si Si7 0.231286 0.433396 0.215352
O O1 0.214546 0.056431 0.815513
O O2 0.350347 0.143420 0.893951
O O3 0.207394 0.119802 0.024663
O O4 0.314268 0.000000 0.000000
O O5 0.425590 0.860537 0.651484
O O6 0.500000 0.000000 0.699525
O O7 0.413686 0.000000 0.500000
O O8 0.329813 0.993017 0.694238
O O9 0.217314 0.088105 0.578774
O O10 0.189323 0.927512 0.644334
O O11 0.809676 0.500000 0.500000
O O12 0.706339 0.371994 0.458376
O O13 0.765649 0.474948 0.279384
O O14 0.216930 0.272156 0.060858
O O15 0.362405 0.752558 0.822678
O O16 0.303531 0.596774 0.878634
#
# Coordination Sequence:
#
# PCOD9549624 Si02
#       7
#     8   8   8   8   8   8   8
#     4  11  25  37  57  87 113 163 210 265 339 393
#     4  11  21  33  54  87 122 161 197 248 321 393
#     4  11  21  39  59  79 114 155 211 269 313 379
#     4   9  20  35  52  86 129 161 211 266 310 385
#     4  10  21  40  57  80 110 155 216 265 319 382
#     4   9  18  33  59  81 118 173 213 249 312 397
#     4  10  18  33  54  86 123 169 214 252 319 386
#
# _framework density 20.784745000000001
#
# number of rings (size 3 to 8) (size 9 to 14) (size 15 to 20)
#    0.000    1.857    2.857    1.286    6.000    0.857 
#    0.000    1.429    0.000    3.429    0.000    0.000 
#    0.000    0.000    0.000 2178.000    0.000    0.000 
#
# Total GULP energy -312015.050695 kJ/mol
# GULP energy per Si atom -5571.697334 kJ/mol
# Density = 2.073744 g / cm^3
# Si number density = 20.784745 Si / 1000 Ang^3
#
#
#
# Elastic Constant Matrix: (Units=GPa)
#
#
# Indices 1 2 3 4 5 6 
#
# 1 102.4351 51.5412 34.1102 0.0000 0.0000 0.0000
# 2 51.5412 102.4351 34.1102 0.0000 0.0000 0.0000
# 3 34.1102 34.1102 55.6744 0.0000 0.0000 0.0000
# 4 0.0000 0.0000 0.0000 16.6044 0.0000 0.0000
# 5 0.0000 0.0000 0.0000 0.0000 16.6044 0.0000
# 6 0.0000 0.0000 0.0000 0.0000 0.0000 -1.5549
#
#
#
# Elastic Compliance Matrix: (Units=1/GPa)
#
#
# Indices 1 2 3 4 5 6 
#
# 1 0.014281 -0.005367 -0.005462 0.000000 0.000000 0.000000
# 2 -0.005367 0.014281 -0.005462 0.000000 0.000000 0.000000
# 3 -0.005462 -0.005462 0.024654 0.000000 0.000000 0.000000
# 4 0.000000 0.000000 0.000000 0.060225 0.000000 0.000000
# 5 0.000000 0.000000 0.000000 0.000000 0.060225 0.000000
# 6 0.000000 0.000000 0.000000 0.000000 0.000000 -0.643140
#
#
# Mechanical properties :
#
#
# Convention : Reuss Voigt Hill
#
# Bulk Modulus (GPa) = 48.45841 55.56310 52.01076
# Shear Modulus (GPa) = -11.62753 15.71631 2.04439
#
# Velocity S-wave (km/s) = -2.36778 2.75279 0.99284
# Velocity P-wave (km/s) = 3.98620 6.07409 5.13733
#
# Compressibility (1/GPa) = 0.02063625
#
# Stress axis : x y z
#
# Youngs Moduli (GPa) = 70.02069 70.02069 40.56164
#
# Poissons Ratio (x) = 0.37582 0.22153
# Poissons Ratio (y) = 0.37582 0.22153
# Poissons Ratio (z) = 0.38242 0.38242
#
# Static dielectric constant tensor:
#      x y z
#    x 1.768910 0.000000 0.000000 
#    y 0.000000 1.768910 0.000000 
#    z 0.000000 0.000000 1.953650 
# 
# From -- ./inp_files/3471.got.cif
#   From: 2010.05.17/outbox.cif.g08.bks.cpg/sg93_2_cif.got.tgz:3471.got - 2010.06.03 19:38:44.
