data_PCOD9549084
_publ_section_title
;
Structure prediction by ZEFSAII (Michael W. Deem and Ramdas Pophale) SiO2 
 PCOD9549084
Probable space group: P 41 21 2
;
_chemical_formula_sum "Si O2"
_cell_formula_units_Z 32
_cell_length_a 8.479656
_cell_length_b 8.479656
_cell_length_c 19.415350
_cell_angle_alpha 90.000000
_cell_angle_beta 90.000000
_cell_angle_gamma 90.000000
_cell_volume 1396.052313
_symmetry_space_group_name_H-M "P 41 21 2"
_symmetry_group_IT_number 92
_symmetry_cell_setting 'tetragonal'
loop_
_space_group_symop_operation_xyz
x,y,z
1/2-y,1/2+x,1/4+z
-x,-y,1/2+z
1/2+y,1/2-x,3/4+z
1/2+x,1/2-y,3/4-z
1/2-x,1/2+y,1/4-z
y,x,-z
-y,-x,1/2-z
loop_
_atom_site_type_symbol
_atom_site_label
_atom_site_fract_x
_atom_site_fract_y
_atom_site_fract_z
Si Si1 0.519835 0.749896 0.819688
Si Si2 0.092025 0.830378 0.327664
Si Si3 0.698448 0.953707 0.919370
Si Si4 0.566899 0.311060 0.675978
O O1 0.558903 0.860841 0.883048
O O2 0.516263 0.834304 0.745788
O O3 0.352558 0.661541 0.825512
O O4 0.658729 0.619057 0.819358
O O5 0.104082 0.895919 0.250000
O O6 0.140744 0.646757 0.332144
O O7 0.931068 0.876000 0.365873
O O8 0.234093 0.912696 0.369539
O O9 0.629463 0.370538 0.750000
#
# Coordination Sequence:
#
# PCOD9549084 Si02
#       4
#     8   8   8   8
#     4  10  21  45  65  92 127 172 206 269 318 379
#     4  10  22  36  63  93 120 164 211 258 314 377
#     4  10  22  43  65  92 130 163 217 259 320 380
#     4  10  20  42  63  88 131 162 205 267 313 368
#
# _framework density 22.921779000000001
#
# number of rings (size 3 to 8) (size 9 to 14) (size 15 to 20)
#    0.000    2.000    5.000    0.000    3.500    2.000 
#   22.500    0.000    0.000    0.000    0.000    0.000 
#    0.000    0.000    0.000    0.000    0.000    0.000 
#
# Total GULP energy -178816.744410 kJ/mol
# GULP energy per Si atom -5588.023263 kJ/mol
# Density = 2.286961 g / cm^3
# Si number density = 22.921779 Si / 1000 Ang^3
#
#
#
# Elastic Constant Matrix: (Units=GPa)
#
#
# Indices 1 2 3 4 5 6 
#
# 1 35.2791 35.0992 42.0032 0.0000 0.0000 0.0000
# 2 35.0992 35.2782 42.0026 0.0000 0.0000 0.0000
# 3 42.0032 42.0026 159.3453 0.0000 0.0000 0.0000
# 4 0.0000 0.0000 0.0000 20.2295 0.0000 0.0000
# 5 0.0000 0.0000 0.0000 0.0000 20.2301 0.0000
# 6 0.0000 0.0000 0.0000 0.0000 0.0000 39.8464
#
#
#
# Elastic Compliance Matrix: (Units=1/GPa)
#
#
# Indices 1 2 3 4 5 6 
#
# 1 2.796566 -2.775872 -0.005464 0.000000 0.000000 0.000000
# 2 -2.775872 2.796643 -0.005465 0.000000 0.000000 0.000000
# 3 -0.005464 -0.005465 0.009157 0.000000 0.000000 0.000000
# 4 0.000000 0.000000 0.000000 0.049433 0.000000 0.000000
# 5 0.000000 0.000000 0.000000 0.000000 0.049431 0.000000
# 6 0.000000 0.000000 0.000000 0.000000 0.000000 0.025096
#
#
# Mechanical properties :
#
#
# Convention : Reuss Voigt Hill
#
# Bulk Modulus (GPa) = 34.76885 52.01252 43.39069
# Shear Modulus (GPa) = 0.44211 23.44773 11.94492
#
# Velocity S-wave (km/s) = 0.43965 3.20182 2.28527
# Velocity P-wave (km/s) = 3.93181 6.03402 5.09257
#
# Compressibility (1/GPa) = 0.02876137
#
# Stress axis : x y z
#
# Youngs Moduli (GPa) = 0.35758 0.35757 109.20900
#
# Poissons Ratio (x) = 0.99257 0.59676
# Poissons Ratio (y) = 0.99260 0.59688
# Poissons Ratio (z) = 0.00195 0.00195
#
# Static dielectric constant tensor:
#      x y z
#    x 1.904770 0.000000 0.000000 
#    y 0.000000 1.904770 0.000000 
#    z 0.000000 0.000000 1.763260 
# 
# From -- ./inp_files/3336.got.cif
#   From: 2010.05.17/outbox.cif.g08.bks.cpg/sg92_2_cif.got.tgz:3336.got - 2010.06.03 19:35:17.
