data_PCOD9549705
_publ_section_title
;
Structure prediction by ZEFSAII (Michael W. Deem and Ramdas Pophale) SiO2 
 PCOD9549705
Probable space group: P 42 2 2
;
_chemical_formula_sum "Si O2"
_cell_formula_units_Z 32
_cell_length_a 9.273432
_cell_length_b 9.273432
_cell_length_c 17.629980
_cell_angle_alpha 90.000000
_cell_angle_beta 90.000000
_cell_angle_gamma 90.000000
_cell_volume 1516.117299
_symmetry_space_group_name_H-M "P 42 2 2"
_symmetry_group_IT_number 93
_symmetry_cell_setting 'tetragonal'
loop_
_space_group_symop_operation_xyz
x,y,z
-y,x,1/2+z
-x,-y,z
y,-x,1/2+z
x,-y,-z
-x,y,-z
y,x,1/2-z
-y,-x,1/2-z
loop_
_atom_site_type_symbol
_atom_site_label
_atom_site_fract_x
_atom_site_fract_y
_atom_site_fract_z
Si Si1 0.693583 0.348322 0.840384
Si Si2 0.321997 0.230207 0.666553
Si Si3 0.539663 0.840433 0.912172
Si Si4 0.056458 0.150438 0.165291
O O1 0.672754 0.327247 0.750000
O O2 0.742604 0.511869 0.855312
O O3 0.546664 0.293934 0.876727
O O4 0.808737 0.231525 0.870968
O O5 0.297786 0.297786 0.750000
O O6 0.206007 0.299553 0.608897
O O7 0.272053 0.065565 0.672756
O O8 0.500000 0.000000 0.879981
O O9 0.500000 0.844682 0.000000
O O10 0.106053 0.106053 0.250000
O O11 0.000000 0.000000 0.130415
#
# Coordination Sequence:
#
# PCOD9549705 Si02
#       4
#     8   8   8   8
#     4  11  23  36  64  97 129 169 219 281 334 396
#     4  12  22  37  63  98 132 169 223 280 335 404
#     4  11  26  45  65  93 136 183 223 272 348 427
#     4  10  20  36  58  94 130 170 215 276 336 392
#
# _framework density 21.106548
#
# number of rings (size 3 to 8) (size 9 to 14) (size 15 to 20)
#    0.000    1.000    5.000    3.000    3.500    2.000 
#    0.000    1.250    0.000    7.500    0.000    0.000 
#    0.000    0.000    0.000    0.000    0.000    0.000 
#
# Total GULP energy -178570.843919 kJ/mol
# GULP energy per Si atom -5580.338872 kJ/mol
# Density = 2.105851 g / cm^3
# Si number density = 21.106548 Si / 1000 Ang^3
#
#
#
# Elastic Constant Matrix: (Units=GPa)
#
#
# Indices 1 2 3 4 5 6 
#
# 1 106.4511 -0.4521 -7.2212 0.0000 0.0000 0.0000
# 2 -0.4521 106.4509 -7.2211 0.0000 0.0000 0.0000
# 3 -7.2212 -7.2211 38.6484 0.0000 0.0000 0.0000
# 4 0.0000 0.0000 0.0000 11.5143 0.0000 0.0000
# 5 0.0000 0.0000 0.0000 0.0000 11.5144 0.0000
# 6 0.0000 0.0000 0.0000 0.0000 0.0000 44.5668
#
#
#
# Elastic Compliance Matrix: (Units=1/GPa)
#
#
# Indices 1 2 3 4 5 6 
#
# 1 0.009517 0.000163 0.001809 0.000000 0.000000 0.000000
# 2 0.000163 0.009517 0.001809 0.000000 0.000000 0.000000
# 3 0.001809 0.001809 0.026550 0.000000 0.000000 0.000000
# 4 0.000000 0.000000 0.000000 0.086848 0.000000 0.000000
# 5 0.000000 0.000000 0.000000 0.000000 0.086848 0.000000
# 6 0.000000 0.000000 0.000000 0.000000 0.000000 0.022438
#
#
# Mechanical properties :
#
#
# Convention : Reuss Voigt Hill
#
# Bulk Modulus (GPa) = 18.81608 24.64019 21.72813
# Shear Modulus (GPa) = 19.85122 31.28207 25.56664
#
# Velocity S-wave (km/s) = 3.07012 3.85399 3.48417
# Velocity P-wave (km/s) = 4.63699 5.61283 5.14808
#
# Compressibility (1/GPa) = 0.05314604
#
# Stress axis : x y z
#
# Youngs Moduli (GPa) = 105.07099 105.07079 37.66455
#
# Poissons Ratio (x) = -0.01714 -0.06812
# Poissons Ratio (y) = -0.01714 -0.06812
# Poissons Ratio (z) = -0.19004 -0.19004
#
# Static dielectric constant tensor:
#      x y z
#    x 1.834230 0.000000 0.000000 
#    y 0.000000 1.834230 0.000000 
#    z 0.000000 0.000000 1.826200 
# 
# From -- ./inp_files/5894.got.cif
#   From: 2010.05.17/outbox.cif.g08.bks.cpg/sg93_3_cif.got.tgz:5894.got - 2010.06.03 19:38:44.
