data_PCOD9549560
_publ_section_title
;
Structure prediction by ZEFSAII (Michael W. Deem and Ramdas Pophale) SiO2 
 PCOD9549560
Probable space group: P 41 21 2
;
_chemical_formula_sum "Si O2"
_cell_formula_units_Z 40
_cell_length_a 16.927908
_cell_length_b 16.927908
_cell_length_c 6.902983
_cell_angle_alpha 90.000000
_cell_angle_beta 90.000000
_cell_angle_gamma 90.000000
_cell_volume 1978.077869
_symmetry_space_group_name_H-M "P 41 21 2"
_symmetry_group_IT_number 92
_symmetry_cell_setting 'tetragonal'
loop_
_space_group_symop_operation_xyz
x,y,z
1/2-y,1/2+x,1/4+z
-x,-y,1/2+z
1/2+y,1/2-x,3/4+z
1/2+x,1/2-y,3/4-z
1/2-x,1/2+y,1/4-z
y,x,-z
-y,-x,1/2-z
loop_
_atom_site_type_symbol
_atom_site_label
_atom_site_fract_x
_atom_site_fract_y
_atom_site_fract_z
Si Si1 0.415344 0.749286 0.076894
Si Si2 0.523378 0.601835 0.180983
Si Si3 0.159915 0.679903 0.082401
Si Si4 0.285065 0.714936 0.750000
Si Si5 0.609677 0.015597 0.143924
Si Si6 0.648397 0.648397 0.500000
O O1 0.463209 0.672319 0.138410
O O2 0.368933 0.787813 0.260633
O O3 0.356107 0.722209 0.905154
O O4 0.476167 0.814043 0.992938
O O5 0.472952 0.527049 0.250000
O O6 0.585377 0.631439 0.336211
O O7 0.574037 0.574037 0.000000
O O8 0.137985 0.762194 0.181000
O O9 0.209384 0.703491 0.889713
O O10 0.081351 0.634504 0.014614
O O11 0.554715 0.060242 0.297234
#
# Coordination Sequence:
#
# PCOD9549560 Si02
#       6
#     8   8   8   4   8   4
#     4  12  28  47  79 109 152 199 252 306 373 458
#     4  12  28  48  73 111 149 195 246 311 376 440
#     4  12  27  47  75 111 142 201 251 306 371 450
#     4  12  24  52  73 109 146 196 252 302 368 446
#     4  12  27  47  73 110 153 192 245 309 378 445
#     4  12  28  46  79 105 148 192 252 308 364 448
#
# _framework density 20.22165
#
# number of rings (size 3 to 8) (size 9 to 14) (size 15 to 20)
#    0.000    0.000    5.000    3.600   11.200    3.200 
#    0.000    0.000    0.000    0.000    0.000    0.000 
#    0.000    0.000    0.000    0.000    0.000    0.000 
#
# Total GULP energy -223872.764598 kJ/mol
# GULP energy per Si atom -5596.819115 kJ/mol
# Density = 2.017562 g / cm^3
# Si number density = 20.221650 Si / 1000 Ang^3
#
#
#
# Elastic Constant Matrix: (Units=GPa)
#
#
# Indices 1 2 3 4 5 6 
#
# 1 -122.7841 246.4384 51.9536 0.0000 0.0000 0.0000
# 2 246.4384 -122.8649 51.9263 0.0000 0.0000 0.0000
# 3 51.9536 51.9263 128.1586 0.0000 0.0000 0.0000
# 4 0.0000 0.0000 0.0000 137.0190 0.0000 0.0000
# 5 0.0000 0.0000 0.0000 0.0000 137.1308 0.0000
# 6 0.0000 0.0000 0.0000 0.0000 0.0000 54.5214
#
#
#
# Elastic Compliance Matrix: (Units=1/GPa)
#
#
# Indices 1 2 3 4 5 6 
#
# 1 0.004781 0.007488 -0.004972 0.000000 0.000000 0.000000
# 2 0.007488 0.004779 -0.004972 0.000000 0.000000 0.000000
# 3 -0.004972 -0.004972 0.011833 0.000000 0.000000 0.000000
# 4 0.000000 0.000000 0.000000 0.007298 0.000000 0.000000
# 5 0.000000 0.000000 0.000000 0.000000 0.007292 0.000000
# 6 0.000000 0.000000 0.000000 0.000000 0.000000 0.018341
#
#
# Mechanical properties :
#
#
# Convention : Reuss Voigt Hill
#
# Bulk Modulus (GPa) = 60.67602 64.79401 62.73502
# Shear Modulus (GPa) = 77.24402 34.54700 55.89551
#
# Velocity S-wave (km/s) = 6.18721 4.13778 5.26321
# Velocity P-wave (km/s) = 9.00626 7.41214 8.24780
#
# Compressibility (1/GPa) = 0.01648098
#
# Stress axis : x y z
#
# Youngs Moduli (GPa) = 209.16710 209.25237 84.51051
#
# Poissons Ratio (x) = -1.56688 0.42019
# Poissons Ratio (y) = -1.56624 0.42017
# Poissons Ratio (z) = 1.03998 1.04036
#
# Static dielectric constant tensor:
#      x y z
#    x 1.671130 0.000000 0.000000 
#    y 0.000000 1.671130 0.000000 
#    z 0.000000 0.000000 1.726280 
# 
# From -- ./inp_files/484.got.cif
#   From: 2010.05.17/outbox.cif.g08.bks.cpg/sg92_1_cif.got.tgz:484.got - 2010.06.03 19:35:17.
