data_PCOD9549990
_publ_section_title
;
Structure prediction by ZEFSAII (Michael W. Deem and Ramdas Pophale) SiO2 
 PCOD9549990
Probable space group: P 42 21 2
;
_chemical_formula_sum "Si O2"
_cell_formula_units_Z 64
_cell_length_a 12.043067
_cell_length_b 12.043067
_cell_length_c 22.778864
_cell_angle_alpha 90.000000
_cell_angle_beta 90.000000
_cell_angle_gamma 90.000000
_cell_volume 3303.743082
_symmetry_space_group_name_H-M "P 42 21 2"
_symmetry_group_IT_number 94
_symmetry_cell_setting 'tetragonal'
loop_
_space_group_symop_operation_xyz
x,y,z
1/2-y,1/2+x,1/2+z
-x,-y,z
1/2+y,1/2-x,1/2+z
1/2+x,1/2-y,1/2-z
1/2-x,1/2+y,1/2-z
y,x,-z
-y,-x,-z
loop_
_atom_site_type_symbol
_atom_site_label
_atom_site_fract_x
_atom_site_fract_y
_atom_site_fract_z
Si Si1 0.670744 0.159625 0.028326
Si Si2 0.267347 0.116686 0.659663
Si Si3 0.373870 0.969893 0.445083
Si Si4 0.487383 0.733960 0.338542
Si Si5 0.059183 0.225341 0.030593
Si Si6 0.609783 0.816842 0.773495
Si Si7 0.810148 0.401931 0.162703
Si Si8 0.051257 0.879342 0.282291
O O1 0.649948 0.183610 0.096678
O O2 0.738336 0.261665 0.000000
O O3 0.549275 0.149302 0.999751
O O4 0.738380 0.049253 0.007533
O O5 0.356207 0.144094 0.709319
O O6 0.164485 0.198682 0.672682
O O7 0.213687 0.996580 0.672846
O O8 0.373368 0.840912 0.460040
O O9 0.500000 0.000000 0.425629
O O10 0.298646 0.015514 0.392585
O O11 0.469772 0.685263 0.403342
O O12 0.384726 0.811630 0.318340
O O13 0.594349 0.812408 0.346859
O O14 0.510684 0.653705 0.283628
O O15 0.133082 0.133082 0.000000
O O16 0.481712 0.844180 0.784810
O O17 0.621372 0.684579 0.781391
O O18 0.000000 0.000000 0.296539
#
# Coordination Sequence:
#
# PCOD9549990 Si02
#       8
#     8   8   8   8   8   8   8   8
#     4  11  22  41  66  92 127 169 215 265 322 390
#     4  11  24  40  62  98 130 164 213 269 326 388
#     4  10  19  38  66  90 120 169 214 259 303 384
#     4  11  22  41  65  95 122 167 223 257 318 397
#     4  11  24  42  64  97 130 170 219 272 323 378
#     4  11  23  38  67  92 123 166 210 266 317 385
#     4  12  18  41  69  86 122 168 220 255 315 392
#     4  11  24  41  60  95 135 166 205 270 332 379
#
# _framework density 19.371966
#
# number of rings (size 3 to 8) (size 9 to 14) (size 15 to 20)
#    0.000    1.000    7.500    0.375    0.000    2.250 
#    0.000    7.500    0.000    0.000    0.000    0.000 
#    0.000    0.000    0.000    0.000    0.000    0.000 
#
# Total GULP energy -357269.021712 kJ/mol
# GULP energy per Si atom -5582.328464 kJ/mol
# Density = 1.932787 g / cm^3
# Si number density = 19.371966 Si / 1000 Ang^3
#
#
#
# Elastic Constant Matrix: (Units=GPa)
#
#
# Indices 1 2 3 4 5 6 
#
# 1 33.4411 -5.4706 4.9873 0.0000 0.0000 0.0000
# 2 -5.4706 33.4407 4.9874 0.0000 0.0000 0.0000
# 3 4.9873 4.9874 107.6755 0.0000 0.0000 0.0000
# 4 0.0000 0.0000 0.0000 25.7150 0.0000 0.0000
# 5 0.0000 0.0000 0.0000 0.0000 25.7145 0.0000
# 6 0.0000 0.0000 0.0000 0.0000 0.0000 20.9690
#
#
#
# Elastic Compliance Matrix: (Units=1/GPa)
#
#
# Indices 1 2 3 4 5 6 
#
# 1 0.031026 0.005327 -0.001684 0.000000 0.000000 0.000000
# 2 0.005327 0.031026 -0.001684 0.000000 0.000000 0.000000
# 3 -0.001684 -0.001684 0.009443 0.000000 0.000000 0.000000
# 4 0.000000 0.000000 0.000000 0.038888 0.000000 0.000000
# 5 0.000000 0.000000 0.000000 0.000000 0.038889 0.000000
# 6 0.000000 0.000000 0.000000 0.000000 0.000000 0.047689
#
#
# Mechanical properties :
#
#
# Convention : Reuss Voigt Hill
#
# Bulk Modulus (GPa) = 13.26024 20.39616 16.82820
# Shear Modulus (GPa) = 22.91680 25.81659 24.36670
#
# Velocity S-wave (km/s) = 3.44319 3.65455 3.55044
# Velocity P-wave (km/s) = 4.76102 5.32533 5.05106
#
# Compressibility (1/GPa) = 0.07541339
#
# Stress axis : x y z
#
# Youngs Moduli (GPa) = 32.23126 32.23077 105.89694
#
# Poissons Ratio (x) = -0.17168 0.17831
# Poissons Ratio (y) = -0.17169 0.17831
# Poissons Ratio (z) = 0.05427 0.05427
#
# Static dielectric constant tensor:
#      x y z
#    x 1.682530 0.000000 0.000000 
#    y 0.000000 1.682530 0.000000 
#    z 0.000000 0.000000 1.707210 
# 
# From -- ./inp_files/5163.got.cif
#   From: 2010.05.17/outbox.cif.g08.bks.cpg/sg94_3_cif.got.tgz:5163.got - 2010.06.03 19:43:16.
