data_PCOD9549671
_publ_section_title
;
Structure prediction by ZEFSAII (Michael W. Deem and Ramdas Pophale) SiO2 
 PCOD9549671
Probable space group: P 42 2 2
;
_chemical_formula_sum "Si O2"
_cell_formula_units_Z 36
_cell_length_a 9.245458
_cell_length_b 9.245458
_cell_length_c 20.568696
_cell_angle_alpha 90.000000
_cell_angle_beta 90.000000
_cell_angle_gamma 90.000000
_cell_volume 1758.181150
_symmetry_space_group_name_H-M "P 42 2 2"
_symmetry_group_IT_number 93
_symmetry_cell_setting 'tetragonal'
loop_
_space_group_symop_operation_xyz
x,y,z
-y,x,1/2+z
-x,-y,z
y,-x,1/2+z
x,-y,-z
-x,y,-z
y,x,1/2-z
-y,-x,1/2-z
loop_
_atom_site_type_symbol
_atom_site_label
_atom_site_fract_x
_atom_site_fract_y
_atom_site_fract_z
Si Si1 0.170135 0.994305 0.661976
Si Si2 0.750182 0.750182 0.750000
Si Si3 0.817236 0.226643 0.442966
Si Si4 0.284503 0.858451 0.907300
Si Si5 0.664184 0.447173 0.368427
O O1 0.196112 0.827055 0.647868
O O2 0.253537 0.093478 0.713837
O O3 0.190201 0.073408 0.592521
O O4 0.000000 0.000000 0.677788
O O5 0.626184 0.726491 0.803140
O O6 0.827364 0.227289 0.519978
O O7 0.680308 0.320365 0.421430
O O8 0.965853 0.294196 0.411085
O O9 0.428913 0.771171 0.893733
O O10 0.500000 0.500000 0.360484
#
# Coordination Sequence:
#
# PCOD9549671 Si02
#       5
#     8   4   8   8   8
#     4   9  18  36  62  89 114 147 188 238 293 343
#     4  10  22  42  56  76 120 158 198 246 280 328
#     4   9  19  36  61  92 121 142 180 240 296 354
#     4  10  19  36  63  92 115 146 189 236 295 350
#     4  11  23  39  56  80 117 162 199 236 285 338
#
# _framework density 20.475707
#
# number of rings (size 3 to 8) (size 9 to 14) (size 15 to 20)
#    0.000    2.222    0.000    2.667    0.000    6.222 
#    0.000   26.667    0.000    5.333    0.000    0.000 
#    0.000    0.000    0.000    0.000    0.000    0.000 
#
# Total GULP energy -200706.635684 kJ/mol
# GULP energy per Si atom -5575.184325 kJ/mol
# Density = 2.042910 g / cm^3
# Si number density = 20.475707 Si / 1000 Ang^3
#
#
#
# Elastic Constant Matrix: (Units=GPa)
#
#
# Indices 1 2 3 4 5 6 
#
# 1 64.8362 35.7517 21.7772 0.0000 0.0000 0.0000
# 2 35.7517 64.8362 21.7772 0.0000 0.0000 0.0000
# 3 21.7772 21.7772 81.7783 0.0000 0.0000 0.0000
# 4 0.0000 0.0000 0.0000 3.1605 0.0000 0.0000
# 5 0.0000 0.0000 0.0000 0.0000 3.1605 0.0000
# 6 0.0000 0.0000 0.0000 0.0000 0.0000 24.0711
#
#
#
# Elastic Compliance Matrix: (Units=1/GPa)
#
#
# Indices 1 2 3 4 5 6 
#
# 1 0.022810 -0.011573 -0.002992 0.000000 0.000000 0.000000
# 2 -0.011573 0.022810 -0.002992 0.000000 0.000000 0.000000
# 3 -0.002992 -0.002992 0.013822 0.000000 0.000000 0.000000
# 4 0.000000 0.000000 0.000000 0.316401 0.000000 0.000000
# 5 0.000000 0.000000 0.000000 0.000000 0.316401 0.000000
# 6 0.000000 0.000000 0.000000 0.000000 0.000000 0.041544
#
#
# Mechanical properties :
#
#
# Convention : Reuss Voigt Hill
#
# Bulk Modulus (GPa) = 41.10705 41.11810 41.11257
# Shear Modulus (GPa) = 6.43491 14.88808 10.66150
#
# Velocity S-wave (km/s) = 1.77469 2.69942 2.28434
# Velocity P-wave (km/s) = 4.93143 5.46268 5.20384
#
# Compressibility (1/GPa) = 0.02432673
#
# Stress axis : x y z
#
# Youngs Moduli (GPa) = 43.84063 43.84063 72.34880
#
# Poissons Ratio (x) = 0.50735 0.21650
# Poissons Ratio (y) = 0.50735 0.21650
# Poissons Ratio (z) = 0.13119 0.13119
#
# Static dielectric constant tensor:
#      x y z
#    x 1.719260 0.000000 0.000000 
#    y 0.000000 1.719260 0.000000 
#    z 0.000000 0.000000 1.764670 
# 
# From -- ./inp_files/6038.got.cif
#   From: 2010.05.17/outbox.cif.g08.bks.cpg/sg93_4_cif.got.tgz:6038.got - 2010.06.03 19:38:44.
