data_PCOD9549048
_publ_section_title
;
Structure prediction by ZEFSAII (Michael W. Deem and Ramdas Pophale) SiO2 
 PCOD9549048
Probable space group: P 41 21 2
;
_chemical_formula_sum "Si O2"
_cell_formula_units_Z 56
_cell_length_a 15.120155
_cell_length_b 15.120155
_cell_length_c 10.942174
_cell_angle_alpha 90.000000
_cell_angle_beta 90.000000
_cell_angle_gamma 90.000000
_cell_volume 2501.589832
_symmetry_space_group_name_H-M "P 41 21 2"
_symmetry_group_IT_number 92
_symmetry_cell_setting 'tetragonal'
loop_
_space_group_symop_operation_xyz
x,y,z
1/2-y,1/2+x,1/4+z
-x,-y,1/2+z
1/2+y,1/2-x,3/4+z
1/2+x,1/2-y,3/4-z
1/2-x,1/2+y,1/4-z
y,x,-z
-y,-x,1/2-z
loop_
_atom_site_type_symbol
_atom_site_label
_atom_site_fract_x
_atom_site_fract_y
_atom_site_fract_z
Si Si1 0.911363 0.221842 0.314194
Si Si2 0.757865 0.844716 0.711869
Si Si3 0.363238 0.300261 0.155937
Si Si4 0.059822 0.498811 0.125747
Si Si5 0.234040 0.970903 0.172542
Si Si6 0.584378 0.141731 0.184198
Si Si7 0.092316 0.191722 0.393520
O O1 0.832696 0.167305 0.250000
O O2 0.891407 0.216495 0.457521
O O3 0.912937 0.326428 0.280111
O O4 0.006671 0.174816 0.309796
O O5 0.706794 0.777168 0.626568
O O6 0.688313 0.888460 0.807377
O O7 0.826533 0.797832 0.800933
O O8 0.798296 0.929886 0.646250
O O9 0.315327 0.394199 0.150149
O O10 0.443139 0.291308 0.061343
O O11 0.057038 0.503296 0.274600
O O12 0.161007 0.472652 0.100598
O O13 0.007876 0.590680 0.088270
O O14 0.575609 0.216902 0.285561
O O15 0.121646 0.121646 0.500000
#
# Coordination Sequence:
#
# PCOD9549048 Si02
#       7
#     8   8   8   8   8   8   8
#     4  11  23  42  67  94 133 180 234 288 355 416
#     4  10  20  39  66  93 136 181 236 285 358 429
#     4  10  23  43  67  98 138 186 233 292 355 435
#     4  12  25  39  66 109 142 178 226 300 361 438
#     4  11  23  41  68  97 135 192 235 272 358 447
#     4  10  20  38  67  99 133 172 225 292 362 427
#     4  10  21  38  62  98 129 178 233 290 350 424
#
# _framework density 22.385764999999999
#
# number of rings (size 3 to 8) (size 9 to 14) (size 15 to 20)
#    0.000    1.429    1.429    5.571    4.000    3.429 
#    5.143    2.857    0.000    0.000    0.000    0.000 
#    0.000    0.000    0.000    0.000    0.000    0.000 
#
# Total GULP energy -312115.498524 kJ/mol
# GULP energy per Si atom -5573.491045 kJ/mol
# Density = 2.233481 g / cm^3
# Si number density = 22.385765 Si / 1000 Ang^3
#
#
#
# Elastic Constant Matrix: (Units=GPa)
#
#
# Indices 1 2 3 4 5 6 
#
# 1 59.3710 26.1220 -7.8087 0.0000 0.0000 0.0000
# 2 26.1220 59.3703 -7.8083 0.0000 0.0000 0.0000
# 3 -7.8087 -7.8083 34.6865 0.0000 0.0000 0.0000
# 4 0.0000 0.0000 0.0000 20.7173 0.0000 0.0000
# 5 0.0000 0.0000 0.0000 0.0000 20.7176 0.0000
# 6 0.0000 0.0000 0.0000 0.0000 0.0000 39.3070
#
#
#
# Elastic Compliance Matrix: (Units=1/GPa)
#
#
# Indices 1 2 3 4 5 6 
#
# 1 0.021137 -0.008939 0.002746 0.000000 0.000000 0.000000
# 2 -0.008939 0.021138 0.002746 0.000000 0.000000 0.000000
# 3 0.002746 0.002746 0.030066 0.000000 0.000000 0.000000
# 4 0.000000 0.000000 0.000000 0.048269 0.000000 0.000000
# 5 0.000000 0.000000 0.000000 0.000000 0.048268 0.000000
# 6 0.000000 0.000000 0.000000 0.000000 0.000000 0.025441
#
#
# Mechanical properties :
#
#
# Convention : Reuss Voigt Hill
#
# Bulk Modulus (GPa) = 15.27941 19.38197 17.33069
# Shear Modulus (GPa) = 22.41869 25.67656 24.04762
#
# Velocity S-wave (km/s) = 3.16804 3.39042 3.28111
# Velocity P-wave (km/s) = 4.49692 4.89934 4.70244
#
# Compressibility (1/GPa) = 0.06544756
#
# Stress axis : x y z
#
# Youngs Moduli (GPa) = 47.30955 47.30909 33.26008
#
# Poissons Ratio (x) = 0.42289 -0.09134
# Poissons Ratio (y) = 0.42290 -0.09133
# Poissons Ratio (z) = -0.12992 -0.12991
#
# Static dielectric constant tensor:
#      x y z
#    x 1.928510 0.000000 0.000000 
#    y 0.000000 1.928510 0.000000 
#    z 0.000000 0.000000 1.875780 
# 
# From -- ./inp_files/2278.got.cif
#   From: 2010.05.17/outbox.cif.g08.bks.cpg/sg92_2_cif.got.tgz:2278.got - 2010.06.03 19:35:17.
