data_PCOD9550979
_publ_section_title
;
Structure prediction by ZEFSAII (Michael W. Deem and Ramdas Pophale) SiO2 
 PCOD9550979
Probable space group: P 43 21 2
;
_chemical_formula_sum "Si O2"
_cell_formula_units_Z 40
_cell_length_a 11.126257
_cell_length_b 11.126257
_cell_length_c 15.807902
_cell_angle_alpha 90.000000
_cell_angle_beta 90.000000
_cell_angle_gamma 90.000000
_cell_volume 1956.917015
_symmetry_space_group_name_H-M "P 43 21 2"
_symmetry_group_IT_number 96
_symmetry_cell_setting 'tetragonal'
loop_
_space_group_symop_operation_xyz
x,y,z
1/2-y,1/2+x,3/4+z
-x,-y,1/2+z
1/2+y,1/2-x,1/4+z
1/2+x,1/2-y,1/4-z
1/2-x,1/2+y,3/4-z
y,x,-z
-y,-x,1/2-z
loop_
_atom_site_type_symbol
_atom_site_label
_atom_site_fract_x
_atom_site_fract_y
_atom_site_fract_z
Si Si1 0.679669 0.565758 0.579701
Si Si2 0.948495 0.582441 0.782938
Si Si3 0.149366 0.823266 0.015529
Si Si4 0.594047 0.908525 0.823445
Si Si5 0.494797 0.351648 0.566035
O O1 0.652862 0.652862 0.500000
O O2 0.818253 0.524213 0.584327
O O3 0.638800 0.620073 0.669586
O O4 0.603406 0.445591 0.561550
O O5 0.822955 0.648352 0.761531
O O6 0.910779 0.460625 0.831850
O O7 0.038025 0.529394 0.713271
O O8 0.270342 0.884430 0.050955
O O9 0.051680 0.853657 0.087433
O O10 0.717818 0.968015 0.790936
O O11 0.395361 0.395361 0.500000
#
# Coordination Sequence:
#
# PCOD9550979 Si02
#       5
#     8   8   8   8   8
#     4  11  24  43  65  94 146 179 224 289 354 419
#     4  11  23  42  64 101 135 178 232 285 340 422
#     4  11  23  42  68 101 132 179 233 281 354 413
#     4  11  23  40  68  93 133 173 229 285 341 409
#     4  10  22  43  67  96 130 176 231 291 343 412
#
# _framework density 20.440314999999998
#
# number of rings (size 3 to 8) (size 9 to 14) (size 15 to 20)
#    0.000    1.200    4.000    1.800    2.800    0.000 
#    0.000    0.000    0.000    0.000    0.000    0.000 
#    0.000    0.000    0.000    0.000    0.000    0.000 
#
# Total GULP energy -222822.968389 kJ/mol
# GULP energy per Si atom -5570.574210 kJ/mol
# Density = 2.039379 g / cm^3
# Si number density = 20.440315 Si / 1000 Ang^3
#
#
#
# Elastic Constant Matrix: (Units=GPa)
#
#
# Indices 1 2 3 4 5 6 
#
# 1 91.0605 -8.4804 7.6190 0.0000 0.0000 0.0000
# 2 -8.4804 91.0605 7.6190 0.0000 0.0000 0.0000
# 3 7.6190 7.6190 68.6654 0.0000 0.0000 0.0000
# 4 0.0000 0.0000 0.0000 27.5840 0.0000 0.0000
# 5 0.0000 0.0000 0.0000 0.0000 27.5840 0.0000
# 6 0.0000 0.0000 0.0000 0.0000 0.0000 28.1504
#
#
#
# Elastic Compliance Matrix: (Units=1/GPa)
#
#
# Indices 1 2 3 4 5 6 
#
# 1 0.011204 0.001158 -0.001372 0.000000 0.000000 0.000000
# 2 0.001158 0.011204 -0.001372 0.000000 0.000000 0.000000
# 3 -0.001372 -0.001372 0.014868 0.000000 0.000000 0.000000
# 4 0.000000 0.000000 0.000000 0.036253 0.000000 0.000000
# 5 0.000000 0.000000 0.000000 0.000000 0.036253 0.000000
# 6 0.000000 0.000000 0.000000 0.000000 0.000000 0.035524
#
#
# Mechanical properties :
#
#
# Convention : Reuss Voigt Hill
#
# Bulk Modulus (GPa) = 29.32032 29.36682 29.34357
# Shear Modulus (GPa) = 31.28033 32.93228 32.10630
#
# Velocity S-wave (km/s) = 3.91618 4.01826 3.96755
# Velocity P-wave (km/s) = 5.90120 5.99390 5.94773
#
# Compressibility (1/GPa) = 0.03410604
#
# Stress axis : x y z
#
# Youngs Moduli (GPa) = 89.25107 89.25107 67.25953
#
# Poissons Ratio (x) = -0.10337 0.09226
# Poissons Ratio (y) = -0.10337 0.09226
# Poissons Ratio (z) = 0.12243 0.12243
#
# Static dielectric constant tensor:
#      x y z
#    x 1.723520 0.000000 0.000000 
#    y 0.000000 1.723520 0.000000 
#    z 0.000000 0.000000 1.757360 
# 
# From -- ./inp_files/2624.got.cif
#   From: 2010.05.17/outbox.cif.g08.bks.cpg/sg96_2_cif.got.tgz:2624.got - 2010.06.03 19:52:08.
