data_PCOD9550794
_publ_section_title
;
Structure prediction by ZEFSAII (Michael W. Deem and Ramdas Pophale) SiO2 
 PCOD9550794
Probable space group: P 43 21 2
;
_chemical_formula_sum "Si O2"
_cell_formula_units_Z 32
_cell_length_a 7.126813
_cell_length_b 7.126813
_cell_length_c 22.682404
_cell_angle_alpha 90.000000
_cell_angle_beta 90.000000
_cell_angle_gamma 90.000000
_cell_volume 1152.072496
_symmetry_space_group_name_H-M "P 43 21 2"
_symmetry_group_IT_number 96
_symmetry_cell_setting 'tetragonal'
loop_
_space_group_symop_operation_xyz
x,y,z
1/2-y,1/2+x,3/4+z
-x,-y,1/2+z
1/2+y,1/2-x,1/4+z
1/2+x,1/2-y,1/4-z
1/2-x,1/2+y,3/4-z
y,x,-z
-y,-x,1/2-z
loop_
_atom_site_type_symbol
_atom_site_label
_atom_site_fract_x
_atom_site_fract_y
_atom_site_fract_z
Si Si1 0.611588 0.053130 0.978106
Si Si2 0.505837 0.593053 0.623415
Si Si3 0.468923 0.468923 0.000000
Si Si4 0.955056 0.955056 0.500000
Si Si5 0.982132 0.567824 0.899369
O O1 0.503680 0.250483 0.983840
O O2 0.617535 0.993712 0.909692
O O3 0.824798 0.087541 0.996007
O O4 0.535402 0.923526 0.032219
O O5 0.430233 0.496779 0.563261
O O6 0.394078 0.604830 0.684947
O O7 0.707526 0.502902 0.638739
O O8 0.516133 0.810073 0.606469
#
# Coordination Sequence:
#
# PCOD9550794 Si02
#       5
#     8   8   4   4   8
#     4   9  18  35  57  81 112 149 191 238 287 341
#     4   9  18  33  55  79 106 145 194 236 274 335
#     4   8  16  35  60  77 104 156 206 232 264 344
#     4  10  20  33  54  87 120 142 176 244 310 338
#     4   9  18  35  55  77 106 147 194 232 274 339
#
# _framework density 27.776033000000002
#
# number of rings (size 3 to 8) (size 9 to 14) (size 15 to 20)
#    0.000    3.000    0.000    0.000    0.000    6.000 
#    0.000   25.000    0.000   12.000    0.000    0.000 
#    0.000    0.000    0.000    0.000    0.000    0.000 
#
# Total GULP energy -178476.072290 kJ/mol
# GULP energy per Si atom -5577.377259 kJ/mol
# Density = 2.771281 g / cm^3
# Si number density = 27.776033 Si / 1000 Ang^3
#
#
#
# Elastic Constant Matrix: (Units=GPa)
#
#
# Indices 1 2 3 4 5 6 
#
# 1 288.0006 -173.7234 18.5259 0.0000 0.0000 0.0000
# 2 -173.7234 288.0006 18.5259 0.0000 0.0000 0.0000
# 3 18.5259 18.5259 340.2136 0.0000 0.0000 0.0000
# 4 0.0000 0.0000 0.0000 24.8570 0.0000 0.0000
# 5 0.0000 0.0000 0.0000 0.0000 24.8570 0.0000
# 6 0.0000 0.0000 0.0000 0.0000 0.0000 2.1747
#
#
#
# Elastic Compliance Matrix: (Units=1/GPa)
#
#
# Indices 1 2 3 4 5 6 
#
# 1 0.005537 0.003371 -0.000485 0.000000 0.000000 0.000000
# 2 0.003371 0.005537 -0.000485 0.000000 0.000000 0.000000
# 3 -0.000485 -0.000485 0.002992 0.000000 0.000000 0.000000
# 4 0.000000 0.000000 0.000000 0.040230 0.000000 0.000000
# 5 0.000000 0.000000 0.000000 0.000000 0.040230 0.000000
# 6 0.000000 0.000000 0.000000 0.000000 0.000000 0.459841
#
#
# Mechanical properties :
#
#
# Convention : Reuss Voigt Hill
#
# Bulk Modulus (GPa) = 53.00055 71.43018 62.21537
# Shear Modulus (GPa) = 8.99517 80.57015 44.78266
#
# Velocity S-wave (km/s) = 1.80153 5.39166 4.01967
# Velocity P-wave (km/s) = 4.84253 8.03320 6.63259
#
# Compressibility (1/GPa) = 0.01886773
#
# Stress axis : x y z
#
# Youngs Moduli (GPa) = 180.60773 180.60773 334.20695
#
# Poissons Ratio (x) = -0.60884 0.16211
# Poissons Ratio (y) = -0.60884 0.16211
# Poissons Ratio (z) = 0.08761 0.08761
#
# Static dielectric constant tensor:
#      x y z
#    x 2.203400 0.000000 0.000000 
#    y 0.000000 2.203400 0.000000 
#    z 0.000000 0.000000 3.140660 
# 
# From -- ./inp_files/3303.got.cif
#   From: 2010.05.17/outbox.cif.g08.bks.cpg/sg96_2_cif.got.tgz:3303.got - 2010.06.03 19:52:08.
