data_PCOD9550713
_publ_section_title
;
Structure prediction by ZEFSAII (Michael W. Deem and Ramdas Pophale) SiO2 
 PCOD9550713
Probable space group: P 43 21 2
;
_chemical_formula_sum "Si O2"
_cell_formula_units_Z 32
_cell_length_a 8.991085
_cell_length_b 8.991085
_cell_length_c 14.093343
_cell_angle_alpha 90.000000
_cell_angle_beta 90.000000
_cell_angle_gamma 90.000000
_cell_volume 1139.300344
_symmetry_space_group_name_H-M "P 43 21 2"
_symmetry_group_IT_number 96
_symmetry_cell_setting 'tetragonal'
loop_
_space_group_symop_operation_xyz
x,y,z
1/2-y,1/2+x,3/4+z
-x,-y,1/2+z
1/2+y,1/2-x,1/4+z
1/2+x,1/2-y,1/4-z
1/2-x,1/2+y,3/4-z
y,x,-z
-y,-x,1/2-z
loop_
_atom_site_type_symbol
_atom_site_label
_atom_site_fract_x
_atom_site_fract_y
_atom_site_fract_z
Si Si1 0.146860 0.763770 0.593032
Si Si2 0.951810 0.048191 0.750000
Si Si3 0.077280 0.077280 0.500000
Si Si4 0.483908 0.201734 0.973448
Si Si5 0.226074 0.748363 0.392828
O O1 0.162357 0.685910 0.491877
O O2 0.072516 0.659689 0.672257
O O3 0.080699 0.920849 0.554221
O O4 0.280626 0.841150 0.654655
O O5 0.892667 0.151609 0.835901
O O6 0.131283 0.049558 0.745277
O O7 0.123372 0.203933 0.575740
O O8 0.631196 0.145513 0.921903
#
# Coordination Sequence:
#
# PCOD9550713 Si02
#       5
#     8   4   4   8   8
#     4   9  16  32  51  72 102 130 170 217 246 297
#     4   9  18  32  52  77 100 132 180 213 242 312
#     4   9  18  30  52  79  98 136 182 209 246 308
#     4   9  19  32  51  77  99 131 176 211 255 305
#     4  10  17  29  54  77 100 132 175 217 253 294
#
# _framework density 28.087413000000002
#
# number of rings (size 3 to 8) (size 9 to 14) (size 15 to 20)
#    0.000    3.000    0.000    4.500    0.000    0.000 
#    0.000    7.500    0.000   42.000    0.000    0.000 
#    0.000    0.000    0.000    0.000    0.000    0.000 
#
# Total GULP energy -178170.170491 kJ/mol
# GULP energy per Si atom -5567.817828 kJ/mol
# Density = 2.802348 g / cm^3
# Si number density = 28.087413 Si / 1000 Ang^3
#
#
#
# Elastic Constant Matrix: (Units=GPa)
#
#
# Indices 1 2 3 4 5 6 
#
# 1 63.0023 34.3191 20.9524 0.0000 0.0000 0.0000
# 2 34.3191 63.0017 20.9527 0.0000 0.0000 0.0000
# 3 20.9524 20.9527 203.6308 0.0000 0.0000 0.0000
# 4 0.0000 0.0000 0.0000 27.5035 0.0000 0.0000
# 5 0.0000 0.0000 0.0000 0.0000 27.5036 0.0000
# 6 0.0000 0.0000 0.0000 0.0000 0.0000 36.3163
#
#
#
# Elastic Compliance Matrix: (Units=1/GPa)
#
#
# Indices 1 2 3 4 5 6 
#
# 1 0.022808 -0.012056 -0.001106 0.000000 0.000000 0.000000
# 2 -0.012056 0.022808 -0.001106 0.000000 0.000000 0.000000
# 3 -0.001106 -0.001106 0.005139 0.000000 0.000000 0.000000
# 4 0.000000 0.000000 0.000000 0.036359 0.000000 0.000000
# 5 0.000000 0.000000 0.000000 0.000000 0.036359 0.000000
# 6 0.000000 0.000000 0.000000 0.000000 0.000000 0.027536
#
#
# Mechanical properties :
#
#
# Convention : Reuss Voigt Hill
#
# Bulk Modulus (GPa) = 45.01139 53.56480 49.28809
# Shear Modulus (GPa) = 26.74502 35.15874 30.95188
#
# Velocity S-wave (km/s) = 3.08913 3.54186 3.32322
# Velocity P-wave (km/s) = 5.36506 5.98653 5.68430
#
# Compressibility (1/GPa) = 0.02221660
#
# Stress axis : x y z
#
# Youngs Moduli (GPa) = 43.84496 43.84444 194.60895
#
# Poissons Ratio (x) = 0.52860 0.21528
# Poissons Ratio (y) = 0.52860 0.21530
# Poissons Ratio (z) = 0.04850 0.04851
#
# Static dielectric constant tensor:
#      x y z
#    x 2.364170 0.000000 0.000000 
#    y 0.000000 2.364170 0.000000 
#    z 0.000000 0.000000 2.441050 
# 
# From -- ./inp_files/2547.got.cif
#   From: 2010.05.17/outbox.cif.g08.bks.cpg/sg96_2_cif.got.tgz:2547.got - 2010.06.03 19:52:08.
