data_PCOD9550875
_publ_section_title
;
Structure prediction by ZEFSAII (Michael W. Deem and Ramdas Pophale) SiO2 
 PCOD9550875
Probable space group: P 43 21 2
;
_chemical_formula_sum "Si O2"
_cell_formula_units_Z 40
_cell_length_a 7.744924
_cell_length_b 7.744924
_cell_length_c 26.346928
_cell_angle_alpha 90.000000
_cell_angle_beta 90.000000
_cell_angle_gamma 90.000000
_cell_volume 1580.390118
_symmetry_space_group_name_H-M "P 43 21 2"
_symmetry_group_IT_number 96
_symmetry_cell_setting 'tetragonal'
loop_
_space_group_symop_operation_xyz
x,y,z
1/2-y,1/2+x,3/4+z
-x,-y,1/2+z
1/2+y,1/2-x,1/4+z
1/2+x,1/2-y,1/4-z
1/2-x,1/2+y,3/4-z
y,x,-z
-y,-x,1/2-z
loop_
_atom_site_type_symbol
_atom_site_label
_atom_site_fract_x
_atom_site_fract_y
_atom_site_fract_z
Si Si1 0.194500 0.602468 0.784102
Si Si2 0.355440 0.512549 0.201301
Si Si3 0.117313 0.932469 0.368210
Si Si4 0.586054 0.209154 0.102380
Si Si5 0.087530 0.608824 0.436466
O O1 0.228258 0.771743 0.750000
O O2 0.380433 0.517009 0.795328
O O3 0.136709 0.636847 0.841316
O O4 0.108391 0.463879 0.745957
O O5 0.367374 0.632627 0.250000
O O6 0.393753 0.620762 0.151689
O O7 0.203899 0.378311 0.190700
O O8 0.151674 0.787542 0.411597
O O9 0.917244 0.918883 0.348117
O O10 0.268456 0.965187 0.327183
O O11 0.414401 0.097150 0.092485
#
# Coordination Sequence:
#
# PCOD9550875 Si02
#       5
#     8   8   8   8   8
#     4  10  21  43  71 101 150 203 257 321 398 467
#     4  10  20  44  75  99 147 203 245 322 401 467
#     4  11  23  42  70 105 153 198 263 324 390 478
#     4  11  24  44  76 110 151 203 262 326 398 484
#     4  12  24  45  72 110 152 203 257 329 400 475
#
# _framework density 25.310203999999999
#
# number of rings (size 3 to 8) (size 9 to 14) (size 15 to 20)
#    0.000    1.200    6.000    3.600    0.000    1.600 
#    3.600    6.000    0.000    0.000    0.000    0.000 
#    0.000    0.000    0.000    0.000    0.000    0.000 
#
# Total GULP energy -222743.368976 kJ/mol
# GULP energy per Si atom -5568.584224 kJ/mol
# Density = 2.525260 g / cm^3
# Si number density = 25.310204 Si / 1000 Ang^3
#
#
#
# Elastic Constant Matrix: (Units=GPa)
#
#
# Indices 1 2 3 4 5 6 
#
# 1 84.8206 31.7203 49.2851 0.0000 0.0000 0.0000
# 2 31.7203 84.8204 49.2849 0.0000 0.0000 0.0000
# 3 49.2851 49.2849 128.6850 0.0000 0.0000 0.0000
# 4 0.0000 0.0000 0.0000 35.5587 0.0000 0.0000
# 5 0.0000 0.0000 0.0000 0.0000 35.5591 0.0000
# 6 0.0000 0.0000 0.0000 0.0000 0.0000 38.9097
#
#
#
# Elastic Compliance Matrix: (Units=1/GPa)
#
#
# Indices 1 2 3 4 5 6 
#
# 1 0.015762 -0.003070 -0.004861 0.000000 0.000000 0.000000
# 2 -0.003070 0.015762 -0.004861 0.000000 0.000000 0.000000
# 3 -0.004861 -0.004861 0.011494 0.000000 0.000000 0.000000
# 4 0.000000 0.000000 0.000000 0.028123 0.000000 0.000000
# 5 0.000000 0.000000 0.000000 0.000000 0.028122 0.000000
# 6 0.000000 0.000000 0.000000 0.000000 0.000000 0.025701
#
#
# Mechanical properties :
#
#
# Convention : Reuss Voigt Hill
#
# Bulk Modulus (GPa) = 57.35695 62.10075 59.72885
# Shear Modulus (GPa) = 31.97762 33.20790 32.59276
#
# Velocity S-wave (km/s) = 3.55833 3.62613 3.59239
# Velocity P-wave (km/s) = 6.29230 6.49006 6.39195
#
# Compressibility (1/GPa) = 0.01743468
#
# Stress axis : x y z
#
# Youngs Moduli (GPa) = 63.44298 63.44299 86.99989
#
# Poissons Ratio (x) = 0.19478 0.42290
# Poissons Ratio (y) = 0.19478 0.42290
# Poissons Ratio (z) = 0.30839 0.30839
#
# Static dielectric constant tensor:
#      x y z
#    x 2.191180 0.000000 0.000000 
#    y 0.000000 2.191180 0.000000 
#    z 0.000000 0.000000 2.158600 
# 
# From -- ./inp_files/3761.got.cif
#   From: 2010.05.17/outbox.cif.g08.bks.cpg/sg96_2_cif.got.tgz:3761.got - 2010.06.03 19:52:08.
