data_PCOD9550213
_publ_section_title
;
Structure prediction by ZEFSAII (Michael W. Deem and Ramdas Pophale) SiO2 
 PCOD9550213
Probable space group: P 42 21 2
;
_chemical_formula_sum "Si O2"
_cell_formula_units_Z 40
_cell_length_a 8.100050
_cell_length_b 8.100050
_cell_length_c 25.759824
_cell_angle_alpha 90.000000
_cell_angle_beta 90.000000
_cell_angle_gamma 90.000000
_cell_volume 1690.122918
_symmetry_space_group_name_H-M "P 42 21 2"
_symmetry_group_IT_number 94
_symmetry_cell_setting 'tetragonal'
loop_
_space_group_symop_operation_xyz
x,y,z
1/2-y,1/2+x,1/2+z
-x,-y,z
1/2+y,1/2-x,1/2+z
1/2+x,1/2-y,1/2-z
1/2-x,1/2+y,1/2-z
y,x,-z
-y,-x,-z
loop_
_atom_site_type_symbol
_atom_site_label
_atom_site_fract_x
_atom_site_fract_y
_atom_site_fract_z
Si Si1 0.799553 0.336346 0.083863
Si Si2 0.188056 0.313845 0.053903
Si Si3 0.119857 0.154684 0.308531
Si Si4 0.006425 0.199188 0.883913
Si Si5 0.593328 0.143194 0.718613
O O1 0.739024 0.500945 0.054681
O O2 0.744394 0.370212 0.143408
O O3 0.993692 0.327909 0.068971
O O4 0.739657 0.145676 0.079888
O O5 0.256016 0.183522 0.095535
O O6 0.224653 0.224653 0.000000
O O7 0.230047 0.178228 0.257112
O O8 0.980118 0.293038 0.314303
O O9 0.000000 0.000000 0.300581
O O10 0.992545 0.252982 0.824098
O O11 0.000000 0.000000 0.885401
O O12 0.500000 0.000000 0.751361
#
# Coordination Sequence:
#
# PCOD9550213 Si02
#       5
#     8   8   8   8   8
#     4  10  23  45  72 105 148 190 254 320 391 480
#     4  10  23  46  76 106 138 196 250 324 414 476
#     4  12  26  42  69 108 153 210 261 324 391 471
#     4  10  22  44  74 100 142 192 249 313 380 465
#     4  12  25  42  67 106 149 203 261 311 385 471
#
# _framework density 23.666916000000001
#
# number of rings (size 3 to 8) (size 9 to 14) (size 15 to 20)
#    0.000    1.200    2.000    3.000    8.400    3.600 
#    3.600    4.000    0.000    1.200    0.000    1.400 
#    0.000    0.000    0.000    0.000    0.000    0.000 
#
# Total GULP energy -222739.594728 kJ/mol
# GULP energy per Si atom -5568.489868 kJ/mol
# Density = 2.361305 g / cm^3
# Si number density = 23.666916 Si / 1000 Ang^3
#
#
#
# Elastic Constant Matrix: (Units=GPa)
#
#
# Indices 1 2 3 4 5 6 
#
# 1 95.3712 39.7071 37.4913 0.0000 0.0000 0.0000
# 2 39.7071 95.3712 37.4913 0.0000 0.0000 0.0000
# 3 37.4913 37.4913 94.0131 0.0000 0.0000 0.0000
# 4 0.0000 0.0000 0.0000 1.7761 0.0000 0.0000
# 5 0.0000 0.0000 0.0000 0.0000 1.7761 0.0000
# 6 0.0000 0.0000 0.0000 0.0000 0.0000 18.5481
#
#
#
# Elastic Compliance Matrix: (Units=1/GPa)
#
#
# Indices 1 2 3 4 5 6 
#
# 1 0.013736 -0.004229 -0.003792 0.000000 0.000000 0.000000
# 2 -0.004229 0.013736 -0.003792 0.000000 0.000000 0.000000
# 3 -0.003792 -0.003792 0.013661 0.000000 0.000000 0.000000
# 4 0.000000 0.000000 0.000000 0.563018 0.000000 0.000000
# 5 0.000000 0.000000 0.000000 0.000000 0.563018 0.000000
# 6 0.000000 0.000000 0.000000 0.000000 0.000000 0.053914
#
#
# Mechanical properties :
#
#
# Convention : Reuss Voigt Hill
#
# Bulk Modulus (GPa) = 57.10970 57.12609 57.11789
# Shear Modulus (GPa) = 3.99826 15.75780 9.87803
#
# Velocity S-wave (km/s) = 1.30118 2.58314 2.04520
# Velocity P-wave (km/s) = 5.14202 5.75211 5.45560
#
# Compressibility (1/GPa) = 0.01751016
#
# Stress axis : x y z
#
# Youngs Moduli (GPa) = 72.79943 72.79943 73.20158
#
# Poissons Ratio (x) = 0.30783 0.27755
# Poissons Ratio (y) = 0.30783 0.27755
# Poissons Ratio (z) = 0.27603 0.27603
#
# Static dielectric constant tensor:
#      x y z
#    x 2.057540 0.000000 0.000000 
#    y 0.000000 2.057540 0.000000 
#    z 0.000000 0.000000 1.868670 
# 
# From -- ./inp_files/4987.got.cif
#   From: 2010.05.17/outbox.cif.g08.bks.cpg/sg94_3_cif.got.tgz:4987.got - 2010.06.03 19:43:16.
