data_PCOD9550394
_publ_section_title
;
Structure prediction by ZEFSAII (Michael W. Deem and Ramdas Pophale) SiO2 
 PCOD9550394
Probable space group: P 42 21 2
;
_chemical_formula_sum "Si O2"
_cell_formula_units_Z 26
_cell_length_a 11.229115
_cell_length_b 11.229115
_cell_length_c 6.885518
_cell_angle_alpha 90.000000
_cell_angle_beta 90.000000
_cell_angle_gamma 90.000000
_cell_volume 868.215784
_symmetry_space_group_name_H-M "P 42 21 2"
_symmetry_group_IT_number 94
_symmetry_cell_setting 'tetragonal'
loop_
_space_group_symop_operation_xyz
x,y,z
1/2-y,1/2+x,1/2+z
-x,-y,z
1/2+y,1/2-x,1/2+z
1/2+x,1/2-y,1/2-z
1/2-x,1/2+y,1/2-z
y,x,-z
-y,-x,-z
loop_
_atom_site_type_symbol
_atom_site_label
_atom_site_fract_x
_atom_site_fract_y
_atom_site_fract_z
Si Si1 0.034596 0.734919 0.319796
Si Si2 0.500000 0.500000 0.000000
Si Si3 0.229518 0.137152 0.172017
Si Si4 0.891151 0.307694 0.871323
O O1 0.150096 0.683516 0.428845
O O2 0.070555 0.730190 0.089865
O O3 0.947140 0.624332 0.355798
O O4 0.003453 0.873290 0.379265
O O5 0.251589 0.003397 0.247181
O O6 0.134386 0.134386 0.000000
O O7 0.210193 0.251452 0.309132
#
# Coordination Sequence:
#
# PCOD9550394 Si02
#       4
#     8   2   8   8
#     4  12  30  55  93 135 203 257 340 427 527 621
#     4  12  32  60  94 148 200 274 348 432 530 648
#     4  12  28  54  89 137 191 256 334 416 507 618
#     4  12  30  56  91 142 194 263 334 422 510 616
#
# _framework density 29.946469
#
# number of rings (size 3 to 8) (size 9 to 14) (size 15 to 20)
#    0.000    0.000    4.615    1.846   12.923    2.462 
#    5.538    3.077    0.000    0.000    0.000    0.000 
#    0.000    0.000    0.000    0.000    0.000    0.000 
#
# Total GULP energy -144842.705083 kJ/mol
# GULP energy per Si atom -5570.873272 kJ/mol
# Density = 2.987831 g / cm^3
# Si number density = 29.946469 Si / 1000 Ang^3
#
#
#
# Elastic Constant Matrix: (Units=GPa)
#
#
# Indices 1 2 3 4 5 6 
#
# 1 208.8394 71.9157 68.5528 0.0000 0.0000 0.0000
# 2 71.9157 208.8394 68.5528 0.0000 0.0000 0.0000
# 3 68.5528 68.5528 174.1509 0.0000 0.0000 0.0000
# 4 0.0000 0.0000 0.0000 51.3336 0.0000 0.0000
# 5 0.0000 0.0000 0.0000 0.0000 51.3336 0.0000
# 6 0.0000 0.0000 0.0000 0.0000 0.0000 85.7371
#
#
#
# Elastic Compliance Matrix: (Units=1/GPa)
#
#
# Indices 1 2 3 4 5 6 
#
# 1 0.005856 -0.001447 -0.001736 0.000000 0.000000 0.000000
# 2 -0.001447 0.005856 -0.001736 0.000000 0.000000 0.000000
# 3 -0.001736 -0.001736 0.007109 0.000000 0.000000 0.000000
# 4 0.000000 0.000000 0.000000 0.019480 0.000000 0.000000
# 5 0.000000 0.000000 0.000000 0.000000 0.019480 0.000000
# 6 0.000000 0.000000 0.000000 0.000000 0.000000 0.011664
#
#
# Mechanical properties :
#
#
# Convention : Reuss Voigt Hill
#
# Bulk Modulus (GPa) = 111.30128 112.20803 111.75465
# Shear Modulus (GPa) = 60.76988 63.20141 61.98565
#
# Velocity S-wave (km/s) = 4.50964 4.59898 4.55453
# Velocity P-wave (km/s) = 8.02267 8.10874 8.06582
#
# Compressibility (1/GPa) = 0.00898462
#
# Stress axis : x y z
#
# Youngs Moduli (GPa) = 170.75331 170.75331 140.67337
#
# Poissons Ratio (x) = 0.24707 0.24417
# Poissons Ratio (y) = 0.24707 0.24417
# Poissons Ratio (z) = 0.29638 0.29638
#
# Static dielectric constant tensor:
#      x y z
#    x 2.743410 0.000000 0.000000 
#    y 0.000000 2.743410 0.000000 
#    z 0.000000 0.000000 2.708590 
# 
# From -- ./inp_files/1053.got.cif
#   From: 2010.05.17/outbox.cif.g08.bks.cpg/sg94_1_cif.got.tgz:1053.got - 2010.06.03 19:43:16.
