data_PCOD9550032
_publ_section_title
;
Structure prediction by ZEFSAII (Michael W. Deem and Ramdas Pophale) SiO2 
 PCOD9550032
Probable space group: P 42 21 2
;
_chemical_formula_sum "Si O2"
_cell_formula_units_Z 56
_cell_length_a 14.929431
_cell_length_b 14.929431
_cell_length_c 9.635253
_cell_angle_alpha 90.000000
_cell_angle_beta 90.000000
_cell_angle_gamma 90.000000
_cell_volume 2147.581403
_symmetry_space_group_name_H-M "P 42 21 2"
_symmetry_group_IT_number 94
_symmetry_cell_setting 'tetragonal'
loop_
_space_group_symop_operation_xyz
x,y,z
1/2-y,1/2+x,1/2+z
-x,-y,z
1/2+y,1/2-x,1/2+z
1/2+x,1/2-y,1/2-z
1/2-x,1/2+y,1/2-z
y,x,-z
-y,-x,-z
loop_
_atom_site_type_symbol
_atom_site_label
_atom_site_fract_x
_atom_site_fract_y
_atom_site_fract_z
Si Si1 0.191366 0.173504 0.228204
Si Si2 0.501589 0.604896 0.179484
Si Si3 0.256684 0.075091 0.006714
Si Si4 0.665920 0.172471 0.079356
Si Si5 0.437146 0.333261 0.651003
Si Si6 0.491792 0.244991 0.945758
Si Si7 0.584542 0.934816 0.841226
O O1 0.273797 0.121891 0.155996
O O2 0.212206 0.243016 0.346020
O O3 0.101378 0.124665 0.282725
O O4 0.149786 0.234129 0.105282
O O5 0.500000 0.500000 0.139658
O O6 0.574191 0.607943 0.304410
O O7 0.526438 0.680725 0.065268
O O8 0.165867 0.024520 0.053628
O O9 0.335790 0.021083 0.931766
O O10 0.755000 0.113724 0.068414
O O11 0.594077 0.211725 0.969900
O O12 0.601498 0.121113 0.193498
O O13 0.465374 0.291045 0.800287
O O14 0.439080 0.151567 0.936336
O O15 0.500000 0.000000 0.824937
#
# Coordination Sequence:
#
# PCOD9550032 Si02
#       7
#     8   8   8   8   8   8   8
#     4   9  20  40  61  85 120 169 216 265 315 382
#     4  11  22  41  62  89 128 173 222 269 330 388
#     4  10  20  37  62  90 122 163 216 266 320 383
#     4   9  21  40  60  85 128 161 211 264 321 388
#     4  11  22  37  64  94 123 169 212 267 326 394
#     4  10  23  39  60  94 126 168 214 267 324 398
#     4  10  21  38  66  94 123 170 211 270 328 388
#
# _framework density 26.075845999999999
#
# number of rings (size 3 to 8) (size 9 to 14) (size 15 to 20)
#    0.000    2.000    1.429    1.286    2.000    4.571 
#    0.000    1.429    3.143    0.000    0.000    0.000 
#    0.000    0.000    0.000    0.000    0.000    0.000 
#
# Total GULP energy -312269.735114 kJ/mol
# GULP energy per Si atom -5576.245270 kJ/mol
# Density = 2.601650 g / cm^3
# Si number density = 26.075846 Si / 1000 Ang^3
#
#
#
# Elastic Constant Matrix: (Units=GPa)
#
#
# Indices 1 2 3 4 5 6 
#
# 1 77.2598 37.0376 16.6218 0.0000 0.0000 0.0000
# 2 37.0376 77.2598 16.6218 0.0000 0.0000 0.0000
# 3 16.6218 16.6218 67.0101 0.0000 0.0000 0.0000
# 4 0.0000 0.0000 0.0000 26.3620 0.0000 0.0000
# 5 0.0000 0.0000 0.0000 0.0000 26.3620 0.0000
# 6 0.0000 0.0000 0.0000 0.0000 0.0000 59.3646
#
#
#
# Elastic Compliance Matrix: (Units=1/GPa)
#
#
# Indices 1 2 3 4 5 6 
#
# 1 0.017146 -0.007716 -0.002339 0.000000 0.000000 0.000000
# 2 -0.007716 0.017146 -0.002339 0.000000 0.000000 0.000000
# 3 -0.002339 -0.002339 0.016083 0.000000 0.000000 0.000000
# 4 0.000000 0.000000 0.000000 0.037933 0.000000 0.000000
# 5 0.000000 0.000000 0.000000 0.000000 0.037933 0.000000
# 6 0.000000 0.000000 0.000000 0.000000 0.000000 0.016845
#
#
# Mechanical properties :
#
#
# Convention : Reuss Voigt Hill
#
# Bulk Modulus (GPa) = 39.08317 40.23244 39.65780
# Shear Modulus (GPa) = 28.34406 32.50094 30.42250
#
# Velocity S-wave (km/s) = 3.30052 3.53427 3.41939
# Velocity P-wave (km/s) = 5.43557 5.66721 5.55260
#
# Compressibility (1/GPa) = 0.02558646
#
# Stress axis : x y z
#
# Youngs Moduli (GPa) = 58.32386 58.32386 62.17564
#
# Poissons Ratio (x) = 0.45004 0.14543
# Poissons Ratio (y) = 0.45004 0.14543
# Poissons Ratio (z) = 0.13642 0.13642
#
# Static dielectric constant tensor:
#      x y z
#    x 2.182920 0.000000 0.000000 
#    y 0.000000 2.182920 0.000000 
#    z 0.000000 0.000000 2.152610 
# 
# From -- ./inp_files/2709.got.cif
#   From: 2010.05.17/outbox.cif.g08.bks.cpg/sg94_2_cif.got.tgz:2709.got - 2010.06.03 19:43:16.
