data_PCOD9550948
_publ_section_title
;
Structure prediction by ZEFSAII (Michael W. Deem and Ramdas Pophale) SiO2 
 PCOD9550948
Probable space group: P 43 21 2
;
_chemical_formula_sum "Si O2"
_cell_formula_units_Z 48
_cell_length_a 13.253748
_cell_length_b 13.253748
_cell_length_c 12.318481
_cell_angle_alpha 90.000000
_cell_angle_beta 90.000000
_cell_angle_gamma 90.000000
_cell_volume 2163.886990
_symmetry_space_group_name_H-M "P 43 21 2"
_symmetry_group_IT_number 96
_symmetry_cell_setting 'tetragonal'
loop_
_space_group_symop_operation_xyz
x,y,z
1/2-y,1/2+x,3/4+z
-x,-y,1/2+z
1/2+y,1/2-x,1/4+z
1/2+x,1/2-y,1/4-z
1/2-x,1/2+y,3/4-z
y,x,-z
-y,-x,1/2-z
loop_
_atom_site_type_symbol
_atom_site_label
_atom_site_fract_x
_atom_site_fract_y
_atom_site_fract_z
Si Si1 0.518085 0.703793 0.923089
Si Si2 0.217265 0.620830 0.766668
Si Si3 0.682163 0.016729 0.126594
Si Si4 0.209887 0.287000 0.615184
Si Si5 0.597710 0.331418 0.015681
Si Si6 0.337401 0.979782 0.384881
O O1 0.447285 0.763238 0.837988
O O2 0.629073 0.703199 0.871134
O O3 0.449409 0.608161 0.955462
O O4 0.536661 0.763402 0.034566
O O5 0.272224 0.727777 0.750000
O O6 0.273366 0.576659 0.872448
O O7 0.103050 0.637373 0.797818
O O8 0.786157 0.978428 0.178436
O O9 0.592802 0.933329 0.120219
O O10 0.702154 0.049606 0.003690
O O11 0.229561 0.229561 0.500000
O O12 0.200135 0.205694 0.711416
O O13 0.102086 0.345758 0.613411
#
# Coordination Sequence:
#
# PCOD9550948 Si02
#       6
#     8   8   8   8   8   8
#     4  10  23  39  61  90 126 171 223 256 331 401
#     4  10  24  43  62  93 131 173 211 270 344 405
#     4  12  22  38  64  94 136 162 221 282 332 398
#     4  11  21  38  62  92 131 169 216 275 328 397
#     4  10  22  39  61  91 125 172 214 270 331 395
#     4  11  22  35  61  98 126 163 215 270 339 386
#
# _framework density 22.182303999999998
#
# number of rings (size 3 to 8) (size 9 to 14) (size 15 to 20)
#    0.000    1.333    5.000    0.000    2.333    4.000 
#    0.000    0.833    0.000    0.000    0.000    0.000 
#    0.000    0.000    0.000    0.000    0.000    0.000 
#
# Total GULP energy -267921.369349 kJ/mol
# GULP energy per Si atom -5581.695195 kJ/mol
# Density = 2.213182 g / cm^3
# Si number density = 22.182304 Si / 1000 Ang^3
#
#
#
# Elastic Constant Matrix: (Units=GPa)
#
#
# Indices 1 2 3 4 5 6 
#
# 1 31.0892 23.9092 22.4652 0.0000 0.0000 0.0000
# 2 23.9092 31.0907 22.4649 0.0000 0.0000 0.0000
# 3 22.4652 22.4649 131.7763 0.0000 0.0000 0.0000
# 4 0.0000 0.0000 0.0000 24.9944 0.0000 0.0000
# 5 0.0000 0.0000 0.0000 0.0000 24.9946 0.0000
# 6 0.0000 0.0000 0.0000 0.0000 0.0000 26.7539
#
#
#
# Elastic Compliance Matrix: (Units=1/GPa)
#
#
# Indices 1 2 3 4 5 6 
#
# 1 0.080195 -0.059069 -0.003602 0.000000 0.000000 0.000000
# 2 -0.059069 0.080191 -0.003601 0.000000 0.000000 0.000000
# 3 -0.003602 -0.003601 0.008816 0.000000 0.000000 0.000000
# 4 0.000000 0.000000 0.000000 0.040009 0.000000 0.000000
# 5 0.000000 0.000000 0.000000 0.000000 0.040009 0.000000
# 6 0.000000 0.000000 0.000000 0.000000 0.000000 0.037378
#
#
# Mechanical properties :
#
#
# Convention : Reuss Voigt Hill
#
# Bulk Modulus (GPa) = 27.27790 36.84832 32.06311
# Shear Modulus (GPa) = 11.59125 23.68969 17.64047
#
# Velocity S-wave (km/s) = 2.28840 3.27150 2.82308
# Velocity P-wave (km/s) = 4.39389 5.56039 5.01120
#
# Compressibility (1/GPa) = 0.03665971
#
# Stress axis : x y z
#
# Youngs Moduli (GPa) = 12.46957 12.47029 113.42395
#
# Poissons Ratio (x) = 0.73661 0.40853
# Poissons Ratio (y) = 0.73656 0.40840
# Poissons Ratio (z) = 0.04491 0.04490
#
# Static dielectric constant tensor:
#      x y z
#    x 1.852370 0.000000 0.000000 
#    y 0.000000 1.852370 0.000000 
#    z 0.000000 0.000000 1.802530 
# 
# From -- ./inp_files/2189.got.cif
#   From: 2010.05.17/outbox.cif.g08.bks.cpg/sg96_2_cif.got.tgz:2189.got - 2010.06.03 19:52:08.
