data_PCOD9550965
_publ_section_title
;
Structure prediction by ZEFSAII (Michael W. Deem and Ramdas Pophale) SiO2 
 PCOD9550965
Probable space group: P 43 21 2
;
_chemical_formula_sum "Si O2"
_cell_formula_units_Z 52
_cell_length_a 19.694334
_cell_length_b 19.694334
_cell_length_c 6.222427
_cell_angle_alpha 90.000000
_cell_angle_beta 90.000000
_cell_angle_gamma 90.000000
_cell_volume 2413.472797
_symmetry_space_group_name_H-M "P 43 21 2"
_symmetry_group_IT_number 96
_symmetry_cell_setting 'tetragonal'
loop_
_space_group_symop_operation_xyz
x,y,z
1/2-y,1/2+x,3/4+z
-x,-y,1/2+z
1/2+y,1/2-x,1/4+z
1/2+x,1/2-y,1/4-z
1/2-x,1/2+y,3/4-z
y,x,-z
-y,-x,1/2-z
loop_
_atom_site_type_symbol
_atom_site_label
_atom_site_fract_x
_atom_site_fract_y
_atom_site_fract_z
Si Si1 0.020767 0.020767 0.000000
Si Si2 0.905434 0.211127 0.545123
Si Si3 0.083340 0.916661 0.750000
Si Si4 0.225992 0.510440 0.587632
Si Si5 0.000576 0.595088 0.072754
Si Si6 0.169313 0.423283 0.974163
Si Si7 0.763242 0.338331 0.122512
Si Si8 0.261388 0.261388 0.500000
O O1 0.086370 0.987063 0.889164
O O2 0.982176 0.017824 0.750000
O O3 0.909447 0.139984 0.428748
O O4 0.956077 0.220854 0.743813
O O5 0.929921 0.264980 0.372081
O O6 0.828668 0.231333 0.605106
O O7 0.167062 0.525318 0.411045
O O8 0.186279 0.470632 0.773792
O O9 0.257760 0.583126 0.644863
O O10 0.046650 0.559776 0.251668
O O11 0.047370 0.607640 0.863496
O O12 0.162613 0.342955 0.935101
O O13 0.713330 0.286670 0.250000
O O14 0.762973 0.307597 0.883502
#
# Coordination Sequence:
#
# PCOD9550965 Si02
#       8
#     4   8   4   8   8   8   8   4
#     4   8  20  38  63 102 137 182 221 308 379 448
#     4  11  24  41  74 107 133 190 250 310 367 461
#     4  10  22  41  70 104 139 182 251 307 388 446
#     4  11  26  44  69 102 149 184 246 318 382 445
#     4  11  26  40  67 104 140 188 236 296 378 461
#     4  11  23  45  67 104 140 189 242 305 372 455
#     4  12  25  44  74 103 146 202 249 311 381 472
#     4  12  24  43  75 104 140 188 260 299 381 466
#
# _framework density 21.545718000000001
#
# number of rings (size 3 to 8) (size 9 to 14) (size 15 to 20)
#    0.462    0.615    3.077    2.769    7.538    2.462 
#    0.000    2.308    0.000    0.000    0.000    0.000 
#    0.000    0.000    0.000    0.000    0.000    0.000 
#
# Total GULP energy -289504.620006 kJ/mol
# GULP energy per Si atom -5567.396539 kJ/mol
# Density = 2.149668 g / cm^3
# Si number density = 21.545718 Si / 1000 Ang^3
#
#
#
# Elastic Constant Matrix: (Units=GPa)
#
#
# Indices 1 2 3 4 5 6 
#
# 1 86.9586 11.6881 20.2345 0.0000 0.0000 0.0000
# 2 11.6881 86.9596 20.2319 0.0000 0.0000 0.0000
# 3 20.2345 20.2319 81.5931 0.0000 0.0000 0.0000
# 4 0.0000 0.0000 0.0000 44.1366 0.0000 0.0000
# 5 0.0000 0.0000 0.0000 0.0000 44.1379 0.0000
# 6 0.0000 0.0000 0.0000 0.0000 0.0000 25.1329
#
#
#
# Elastic Compliance Matrix: (Units=1/GPa)
#
#
# Indices 1 2 3 4 5 6 
#
# 1 0.012285 -0.001000 -0.002799 0.000000 0.000000 0.000000
# 2 -0.001000 0.012285 -0.002798 0.000000 0.000000 0.000000
# 3 -0.002799 -0.002798 0.013644 0.000000 0.000000 0.000000
# 4 0.000000 0.000000 0.000000 0.022657 0.000000 0.000000
# 5 0.000000 0.000000 0.000000 0.000000 0.022656 0.000000
# 6 0.000000 0.000000 0.000000 0.000000 0.000000 0.039789
#
#
# Mechanical properties :
#
#
# Convention : Reuss Voigt Hill
#
# Bulk Modulus (GPa) = 39.96763 39.98004 39.97383
# Shear Modulus (GPa) = 34.51844 36.23858 35.37851
#
# Velocity S-wave (km/s) = 4.00697 4.10559 4.05658
# Velocity P-wave (km/s) = 6.32441 6.40865 6.36667
#
# Compressibility (1/GPa) = 0.02502025
#
# Stress axis : x y z
#
# Youngs Moduli (GPa) = 81.39753 81.39983 73.29320
#
# Poissons Ratio (x) = 0.08141 0.20513
# Poissons Ratio (y) = 0.08141 0.20509
# Poissons Ratio (z) = 0.22781 0.22777
#
# Static dielectric constant tensor:
#      x y z
#    x 1.793680 0.000000 0.000000 
#    y 0.000000 1.793670 0.000000 
#    z 0.000000 0.000000 1.757230 
# 
# From -- ./inp_files/727.got.cif
#   From: 2010.05.17/outbox.cif.g08.bks.cpg/sg96_1_cif.got.tgz:727.got - 2010.06.03 19:52:08.
