data_PCOD9550902
_publ_section_title
;
Structure prediction by ZEFSAII (Michael W. Deem and Ramdas Pophale) SiO2 
 PCOD9550902
Probable space group: P 43 21 2
;
_chemical_formula_sum "Si O2"
_cell_formula_units_Z 56
_cell_length_a 14.997686
_cell_length_b 14.997686
_cell_length_c 12.353651
_cell_angle_alpha 90.000000
_cell_angle_beta 90.000000
_cell_angle_gamma 90.000000
_cell_volume 2778.713951
_symmetry_space_group_name_H-M "P 43 21 2"
_symmetry_group_IT_number 96
_symmetry_cell_setting 'tetragonal'
loop_
_space_group_symop_operation_xyz
x,y,z
1/2-y,1/2+x,3/4+z
-x,-y,1/2+z
1/2+y,1/2-x,1/4+z
1/2+x,1/2-y,1/4-z
1/2-x,1/2+y,3/4-z
y,x,-z
-y,-x,1/2-z
loop_
_atom_site_type_symbol
_atom_site_label
_atom_site_fract_x
_atom_site_fract_y
_atom_site_fract_z
Si Si1 0.032325 0.174513 0.511501
Si Si2 0.288154 0.785340 0.465755
Si Si3 0.479012 0.814364 0.403835
Si Si4 0.804944 0.507261 0.150703
Si Si5 0.354927 0.081563 0.874504
Si Si6 0.398681 0.805627 0.066736
Si Si7 0.392388 0.372396 0.371195
O O1 0.127625 0.127625 0.500000
O O2 0.998322 0.220032 0.400990
O O3 0.040985 0.257813 0.593565
O O4 0.967335 0.101633 0.563529
O O5 0.371523 0.817884 0.391511
O O6 0.263371 0.682089 0.456138
O O7 0.200327 0.835359 0.427761
O O8 0.326646 0.807077 0.585237
O O9 0.540724 0.893333 0.359616
O O10 0.833480 0.453574 0.257482
O O11 0.857070 0.601117 0.145499
O O12 0.822196 0.451877 0.042955
O O13 0.700208 0.532655 0.154284
O O14 0.321278 0.011832 0.783870
O O15 0.383496 0.383496 0.500000
#
# Coordination Sequence:
#
# PCOD9550902 Si02
#       7
#     8   8   8   8   8   8   8
#     4  12  22  43  69 100 132 173 232 287 339 406
#     4   9  22  39  67  91 129 183 214 269 341 404
#     4  10  21  39  65  93 133 173 224 273 339 401
#     4  11  25  44  67  99 139 176 229 275 351 405
#     4  10  21  43  61  95 135 175 222 279 335 414
#     4  11  24  43  67  99 134 179 224 285 336 415
#     4  11  23  44  67  98 131 177 226 282 338 407
#
# _framework density 20.153206000000001
#
# number of rings (size 3 to 8) (size 9 to 14) (size 15 to 20)
#    0.857    0.571    4.286    0.857    4.000    1.714 
#   15.429    0.714    0.000    0.000    0.000    0.000 
#    0.000    0.000    0.000    0.000    0.000    0.000 
#
# Total GULP energy -312168.893643 kJ/mol
# GULP energy per Si atom -5574.444529 kJ/mol
# Density = 2.010734 g / cm^3
# Si number density = 20.153206 Si / 1000 Ang^3
#
#
#
# Elastic Constant Matrix: (Units=GPa)
#
#
# Indices 1 2 3 4 5 6 
#
# 1 68.0169 29.1984 40.1414 0.0000 0.0000 0.0000
# 2 29.1984 68.0169 40.1414 0.0000 0.0000 0.0000
# 3 40.1414 40.1414 94.0201 0.0000 0.0000 0.0000
# 4 0.0000 0.0000 0.0000 27.7266 0.0000 0.0000
# 5 0.0000 0.0000 0.0000 0.0000 27.7266 0.0000
# 6 0.0000 0.0000 0.0000 0.0000 0.0000 29.8274
#
#
#
# Elastic Compliance Matrix: (Units=1/GPa)
#
#
# Indices 1 2 3 4 5 6 
#
# 1 0.020825 -0.004936 -0.006783 0.000000 0.000000 0.000000
# 2 -0.004936 0.020825 -0.006783 0.000000 0.000000 0.000000
# 3 -0.006783 -0.006783 0.016428 0.000000 0.000000 0.000000
# 4 0.000000 0.000000 0.000000 0.036066 0.000000 0.000000
# 5 0.000000 0.000000 0.000000 0.000000 0.036066 0.000000
# 6 0.000000 0.000000 0.000000 0.000000 0.000000 0.033526
#
#
# Mechanical properties :
#
#
# Convention : Reuss Voigt Hill
#
# Bulk Modulus (GPa) = 47.45797 49.89072 48.67435
# Shear Modulus (GPa) = 24.06544 25.09432 24.57988
#
# Velocity S-wave (km/s) = 3.45936 3.53254 3.49614
# Velocity P-wave (km/s) = 6.28935 6.43800 6.36411
#
# Compressibility (1/GPa) = 0.02107127
#
# Stress axis : x y z
#
# Youngs Moduli (GPa) = 48.01998 48.01998 60.87028
#
# Poissons Ratio (x) = 0.23704 0.41291
# Poissons Ratio (y) = 0.23704 0.41291
# Poissons Ratio (z) = 0.32574 0.32574
#
# Static dielectric constant tensor:
#      x y z
#    x 1.753250 0.000000 0.000000 
#    y 0.000000 1.753250 0.000000 
#    z 0.000000 0.000000 1.718360 
# 
# From -- ./inp_files/2296.got.cif
#   From: 2010.05.17/outbox.cif.g08.bks.cpg/sg96_2_cif.got.tgz:2296.got - 2010.06.03 19:52:08.
