data_PCOD9550025
_publ_section_title
;
Structure prediction by ZEFSAII (Michael W. Deem and Ramdas Pophale) SiO2 
 PCOD9550025
Probable space group: P 42 21 2
;
_chemical_formula_sum "Si O2"
_cell_formula_units_Z 40
_cell_length_a 9.199413
_cell_length_b 9.199413
_cell_length_c 24.419080
_cell_angle_alpha 90.000000
_cell_angle_beta 90.000000
_cell_angle_gamma 90.000000
_cell_volume 2066.567194
_symmetry_space_group_name_H-M "P 42 21 2"
_symmetry_group_IT_number 94
_symmetry_cell_setting 'tetragonal'
loop_
_space_group_symop_operation_xyz
x,y,z
1/2-y,1/2+x,1/2+z
-x,-y,z
1/2+y,1/2-x,1/2+z
1/2+x,1/2-y,1/2-z
1/2-x,1/2+y,1/2-z
y,x,-z
-y,-x,-z
loop_
_atom_site_type_symbol
_atom_site_label
_atom_site_fract_x
_atom_site_fract_y
_atom_site_fract_z
Si Si1 0.190147 0.679900 0.118776
Si Si2 0.173446 0.465874 0.343935
Si Si3 0.538839 0.831359 0.781539
Si Si4 0.238521 0.150761 0.870055
Si Si5 0.154674 0.951063 0.440879
O O1 0.295151 0.814162 0.127569
O O2 0.218144 0.574839 0.171691
O O3 0.238976 0.589925 0.065332
O O4 0.020104 0.728830 0.118568
O O5 0.224147 0.460817 0.280118
O O6 0.284833 0.578646 0.371355
O O7 0.000000 0.500000 0.347131
O O8 0.695749 0.818154 0.809584
O O9 0.500000 0.000000 0.775866
O O10 0.328866 0.253982 0.910267
O O11 0.109189 0.890812 0.500000
O O12 0.000000 0.000000 0.414696
#
# Coordination Sequence:
#
# PCOD9550025 Si02
#       5
#     8   8   8   8   8
#     4  10  20  37  57  83 119 153 190 242 295 346
#     4  11  20  32  54  87 123 159 197 233 276 344
#     4   8  17  32  53  82 118 159 196 231 282 344
#     4  10  20  37  58  83 117 153 191 240 294 346
#     4  10  21  40  62  83 104 139 190 242 298 358
#
# _framework density 19.355771000000001
#
# number of rings (size 3 to 8) (size 9 to 14) (size 15 to 20)
#    0.000    2.200    0.000    4.800    0.000    0.000 
#    0.000   20.000    0.000    1.200    0.000    0.000 
#    0.000    0.000    0.000    0.000    0.000    0.000 
#
# Total GULP energy -222689.383098 kJ/mol
# GULP energy per Si atom -5567.234577 kJ/mol
# Density = 1.931172 g / cm^3
# Si number density = 19.355771 Si / 1000 Ang^3
#
#
#
# Elastic Constant Matrix: (Units=GPa)
#
#
# Indices 1 2 3 4 5 6 
#
# 1 90.0025 17.2044 36.9445 0.0000 0.0000 0.0000
# 2 17.2044 90.0029 36.9445 0.0000 0.0000 0.0000
# 3 36.9445 36.9445 78.0824 0.0000 0.0000 0.0000
# 4 0.0000 0.0000 0.0000 12.1213 0.0000 0.0000
# 5 0.0000 0.0000 0.0000 0.0000 12.1219 0.0000
# 6 0.0000 0.0000 0.0000 0.0000 0.0000 31.6297
#
#
#
# Elastic Compliance Matrix: (Units=1/GPa)
#
#
# Indices 1 2 3 4 5 6 
#
# 1 0.013789 0.000052 -0.006549 0.000000 0.000000 0.000000
# 2 0.000052 0.013789 -0.006549 0.000000 0.000000 0.000000
# 3 -0.006549 -0.006549 0.019004 0.000000 0.000000 0.000000
# 4 0.000000 0.000000 0.000000 0.082500 0.000000 0.000000
# 5 0.000000 0.000000 0.000000 0.000000 0.082495 0.000000
# 6 0.000000 0.000000 0.000000 0.000000 0.000000 0.031616
#
#
# Mechanical properties :
#
#
# Convention : Reuss Voigt Hill
#
# Bulk Modulus (GPa) = 48.80184 48.91940 48.86062
# Shear Modulus (GPa) = 18.10842 22.30753 20.20798
#
# Velocity S-wave (km/s) = 3.06201 3.39853 3.23465
# Velocity P-wave (km/s) = 6.14565 6.38190 6.26489
#
# Compressibility (1/GPa) = 0.02049103
#
# Stress axis : x y z
#
# Youngs Moduli (GPa) = 72.52123 72.52168 52.61961
#
# Poissons Ratio (x) = -0.00380 0.34461
# Poissons Ratio (y) = -0.00380 0.34461
# Poissons Ratio (z) = 0.47495 0.47495
#
# Static dielectric constant tensor:
#      x y z
#    x 1.707340 0.000000 0.000000 
#    y 0.000000 1.707340 0.000000 
#    z 0.000000 0.000000 1.718170 
# 
# From -- ./inp_files/4908.got.cif
#   From: 2010.05.17/outbox.cif.g08.bks.cpg/sg94_3_cif.got.tgz:4908.got - 2010.06.03 19:43:16.
