data_PCOD9550172
_publ_section_title
;
Structure prediction by ZEFSAII (Michael W. Deem and Ramdas Pophale) SiO2 
 PCOD9550172
Probable space group: P 42 21 2
;
_chemical_formula_sum "Si O2"
_cell_formula_units_Z 40
_cell_length_a 8.415112
_cell_length_b 8.415112
_cell_length_c 25.977098
_cell_angle_alpha 90.000000
_cell_angle_beta 90.000000
_cell_angle_gamma 90.000000
_cell_volume 1839.545075
_symmetry_space_group_name_H-M "P 42 21 2"
_symmetry_group_IT_number 94
_symmetry_cell_setting 'tetragonal'
loop_
_space_group_symop_operation_xyz
x,y,z
1/2-y,1/2+x,1/2+z
-x,-y,z
1/2+y,1/2-x,1/2+z
1/2+x,1/2-y,1/2-z
1/2-x,1/2+y,1/2-z
y,x,-z
-y,-x,-z
loop_
_atom_site_type_symbol
_atom_site_label
_atom_site_fract_x
_atom_site_fract_y
_atom_site_fract_z
Si Si1 0.820132 0.820132 0.500000
Si Si2 0.760240 0.940349 0.290677
Si Si3 0.559995 0.761464 0.210878
Si Si4 0.180660 0.548935 0.095342
Si Si5 0.161605 0.735397 0.449677
Si Si6 0.500000 0.000000 0.119401
O O1 0.826960 0.705722 0.549000
O O2 0.990118 0.788493 0.472587
O O3 0.624380 0.887879 0.251682
O O4 0.725690 0.887092 0.348890
O O5 0.912582 0.843579 0.271034
O O6 0.803559 0.126383 0.295241
O O7 0.501481 0.851941 0.159373
O O8 0.280204 0.387422 0.083230
O O9 0.000000 0.500000 0.096558
O O10 0.273386 0.726615 0.500000
O O11 0.135155 0.570314 0.419355
#
# Coordination Sequence:
#
# PCOD9550172 Si02
#       6
#     4   8   8   8   8   4
#     4  10  23  42  68 101 138 191 244 296 369 464
#     4  11  25  45  65 108 141 193 241 309 377 455
#     4  11  25  42  72 100 148 188 250 303 377 456
#     4  11  23  41  69 103 144 183 240 310 373 444
#     4  10  22  39  67 102 136 181 245 300 366 451
#     4  12  22  40  72 100 132 194 240 302 364 456
#
# _framework density 21.744505
#
# number of rings (size 3 to 8) (size 9 to 14) (size 15 to 20)
#    0.000    1.200    2.000    5.100   12.600    0.000 
#    0.000    0.000    0.000    4.800    0.000    0.000 
#    0.000    0.000    0.000    0.000    0.000    0.000 
#
# Total GULP energy -222896.495592 kJ/mol
# GULP energy per Si atom -5572.412390 kJ/mol
# Density = 2.169501 g / cm^3
# Si number density = 21.744505 Si / 1000 Ang^3
#
#
#
# Elastic Constant Matrix: (Units=GPa)
#
#
# Indices 1 2 3 4 5 6 
#
# 1 68.2714 59.5271 52.2187 0.0000 0.0000 0.0000
# 2 59.5271 68.2713 52.2184 0.0000 0.0000 0.0000
# 3 52.2187 52.2184 142.6193 0.0000 0.0000 0.0000
# 4 0.0000 0.0000 0.0000 33.6622 0.0000 0.0000
# 5 0.0000 0.0000 0.0000 0.0000 33.6621 0.0000
# 6 0.0000 0.0000 0.0000 0.0000 0.0000 34.3466
#
#
#
# Elastic Compliance Matrix: (Units=1/GPa)
#
#
# Indices 1 2 3 4 5 6 
#
# 1 0.062764 -0.051598 -0.004088 0.000000 0.000000 0.000000
# 2 -0.051598 0.062763 -0.004088 0.000000 0.000000 0.000000
# 3 -0.004088 -0.004088 0.010005 0.000000 0.000000 0.000000
# 4 0.000000 0.000000 0.000000 0.029707 0.000000 0.000000
# 5 0.000000 0.000000 0.000000 0.000000 0.029707 0.000000
# 6 0.000000 0.000000 0.000000 0.000000 0.000000 0.029115
#
#
# Mechanical properties :
#
#
# Convention : Reuss Voigt Hill
#
# Bulk Modulus (GPa) = 62.56266 67.45449 65.00858
# Shear Modulus (GPa) = 14.32921 28.01404 21.17162
#
# Velocity S-wave (km/s) = 2.56985 3.59322 3.12373
# Velocity P-wave (km/s) = 6.13512 6.95009 6.55528
#
# Compressibility (1/GPa) = 0.01598397
#
# Stress axis : x y z
#
# Youngs Moduli (GPa) = 15.93282 15.93283 99.94625
#
# Poissons Ratio (x) = 0.82210 0.40861
# Poissons Ratio (y) = 0.82210 0.40859
# Poissons Ratio (z) = 0.06514 0.06514
#
# Static dielectric constant tensor:
#      x y z
#    x 1.787520 0.000000 0.000000 
#    y 0.000000 1.787520 0.000000 
#    z 0.000000 0.000000 1.836320 
# 
# From -- ./inp_files/5330.got.cif
#   From: 2010.05.17/outbox.cif.g08.bks.cpg/sg94_3_cif.got.tgz:5330.got - 2010.06.03 19:43:16.
