data_PCOD9550094
_publ_section_title
;
Structure prediction by ZEFSAII (Michael W. Deem and Ramdas Pophale) SiO2 
 PCOD9550094
Probable space group: P 42 21 2
;
_chemical_formula_sum "Si O2"
_cell_formula_units_Z 40
_cell_length_a 13.533261
_cell_length_b 13.533261
_cell_length_c 10.855414
_cell_angle_alpha 90.000000
_cell_angle_beta 90.000000
_cell_angle_gamma 90.000000
_cell_volume 1988.159883
_symmetry_space_group_name_H-M "P 42 21 2"
_symmetry_group_IT_number 94
_symmetry_cell_setting 'tetragonal'
loop_
_space_group_symop_operation_xyz
x,y,z
1/2-y,1/2+x,1/2+z
-x,-y,z
1/2+y,1/2-x,1/2+z
1/2+x,1/2-y,1/2-z
1/2-x,1/2+y,1/2-z
y,x,-z
-y,-x,-z
loop_
_atom_site_type_symbol
_atom_site_label
_atom_site_fract_x
_atom_site_fract_y
_atom_site_fract_z
Si Si1 0.449117 0.290390 0.030124
Si Si2 0.291632 0.167483 0.173928
Si Si3 0.133379 0.797002 0.129204
Si Si4 0.572079 0.334012 0.272595
Si Si5 0.795940 0.011152 0.259243
O O1 0.362440 0.216695 0.074621
O O2 0.527934 0.297893 0.141365
O O3 0.395063 0.395063 0.000000
O O4 0.493815 0.260588 0.899522
O O5 0.340331 0.195261 0.305278
O O6 0.178104 0.207896 0.181547
O O7 0.277669 0.049476 0.170594
O O8 0.015944 0.816172 0.131241
O O9 0.180224 0.878914 0.220370
O O10 0.183346 0.816655 0.000000
O O11 0.603490 0.447679 0.253550
#
# Coordination Sequence:
#
# PCOD9550094 Si02
#       5
#     8   8   8   8   8
#     4  11  19  36  63  93 123 153 206 257 299 378
#     4   9  23  37  56  94 119 159 200 250 318 359
#     4  11  22  38  55  90 129 155 204 256 305 380
#     4   9  21  36  58  93 121 155 198 252 324 356
#     4  10  21  37  61  91 119 161 198 250 323 357
#
# _framework density 20.119107
#
# number of rings (size 3 to 8) (size 9 to 14) (size 15 to 20)
#    1.200    0.800    4.000    1.200    2.800    4.000 
#    0.000    0.000    0.000    4.800   10.400    0.000 
#    0.000    0.000    0.000    0.000    0.000    0.000 
#
# Total GULP energy -222680.881628 kJ/mol
# GULP energy per Si atom -5567.022041 kJ/mol
# Density = 2.007331 g / cm^3
# Si number density = 20.119107 Si / 1000 Ang^3
#
#
#
# Elastic Constant Matrix: (Units=GPa)
#
#
# Indices 1 2 3 4 5 6 
#
# 1 28.4813 43.5131 -10.6053 0.0000 0.0000 0.0000
# 2 43.5131 28.4813 -10.6051 0.0000 0.0000 0.0000
# 3 -10.6053 -10.6051 25.0655 0.0000 0.0000 0.0000
# 4 0.0000 0.0000 0.0000 11.8123 0.0000 0.0000
# 5 0.0000 0.0000 0.0000 0.0000 11.8119 0.0000
# 6 0.0000 0.0000 0.0000 0.0000 0.0000 27.9384
#
#
#
# Elastic Compliance Matrix: (Units=1/GPa)
#
#
# Indices 1 2 3 4 5 6 
#
# 1 -0.025329 0.041197 0.006713 0.000000 0.000000 0.000000
# 2 0.041197 -0.025329 0.006714 0.000000 0.000000 0.000000
# 3 0.006713 0.006714 0.045577 0.000000 0.000000 0.000000
# 4 0.000000 0.000000 0.000000 0.084658 0.000000 0.000000
# 5 0.000000 0.000000 0.000000 0.000000 0.084661 0.000000
# 6 0.000000 0.000000 0.000000 0.000000 0.000000 0.035793
#
#
# Mechanical properties :
#
#
# Convention : Reuss Voigt Hill
#
# Bulk Modulus (GPa) = 9.59993 14.07037 11.83515
# Shear Modulus (GPa) = 39.83922 14.29420 27.06671
#
# Velocity S-wave (km/s) = 4.45474 2.66837 3.67184
# Velocity P-wave (km/s) = 5.58941 4.06231 4.88589
#
# Compressibility (1/GPa) = 0.10416740
#
# Stress axis : x y z
#
# Youngs Moduli (GPa) = -39.48064 -39.48091 21.94105
#
# Poissons Ratio (x) = 1.62648 -0.14730
# Poissons Ratio (y) = 1.62647 -0.14731
# Poissons Ratio (z) = 0.26505 0.26508
#
# Static dielectric constant tensor:
#      x y z
#    x 1.718890 0.000000 0.000000 
#    y 0.000000 1.718890 0.000000 
#    z 0.000000 0.000000 1.757300 
# 
# From -- ./inp_files/2490.got.cif
#   From: 2010.05.17/outbox.cif.g08.bks.cpg/sg94_2_cif.got.tgz:2490.got - 2010.06.03 19:43:16.
