data_PCOD9550311
_publ_section_title
;
Structure prediction by ZEFSAII (Michael W. Deem and Ramdas Pophale) SiO2 
 PCOD9550311
Probable space group: P 42 21 2
;
_chemical_formula_sum "Si O2"
_cell_formula_units_Z 44
_cell_length_a 9.341277
_cell_length_b 9.341277
_cell_length_c 23.846787
_cell_angle_alpha 90.000000
_cell_angle_beta 90.000000
_cell_angle_gamma 90.000000
_cell_volume 2080.857661
_symmetry_space_group_name_H-M "P 42 21 2"
_symmetry_group_IT_number 94
_symmetry_cell_setting 'tetragonal'
loop_
_space_group_symop_operation_xyz
x,y,z
1/2-y,1/2+x,1/2+z
-x,-y,z
1/2+y,1/2-x,1/2+z
1/2+x,1/2-y,1/2-z
1/2-x,1/2+y,1/2-z
y,x,-z
-y,-x,-z
loop_
_atom_site_type_symbol
_atom_site_label
_atom_site_fract_x
_atom_site_fract_y
_atom_site_fract_z
Si Si1 0.189532 0.069240 0.712899
Si Si2 0.094771 0.216120 0.413252
Si Si3 0.500000 0.500000 0.000000
Si Si4 0.500000 0.500000 0.500000
Si Si5 0.787093 0.570967 0.554784
Si Si6 0.500000 0.000000 0.848216
Si Si7 0.000000 0.500000 0.954008
Si Si8 0.758488 0.074962 0.263993
O O1 0.148379 0.090313 0.647922
O O2 0.338709 0.152801 0.722415
O O3 0.072294 0.156573 0.749823
O O4 0.177458 0.898267 0.723989
O O5 0.257832 0.219174 0.435477
O O6 0.017590 0.367542 0.412829
O O7 0.003696 0.132561 0.459155
O O8 0.633315 0.508591 0.541719
O O9 0.865391 0.514689 0.610045
O O10 0.873082 0.524762 0.498902
O O11 0.528992 0.856734 0.812034
#
# Coordination Sequence:
#
# PCOD9550311 Si02
#       8
#     8   8   2   2   8   4   4   8
#     4  11  26  45  75 106 144 189 250 305 370 437
#     4  12  24  45  67 109 140 187 240 296 356 444
#     4  12  22  42  76  92 154 180 230 294 352 436
#     4  12  22  46  64  96 154 176 226 310 352 444
#     4  11  24  44  65 102 145 186 236 293 364 429
#     4  11  24  45  76  96 140 197 242 299 374 436
#     4  11  22  41  66  96 142 181 228 297 350 420
#     4  11  24  48  71 105 142 185 241 310 365 435
#
# _framework density 21.145128
#
# number of rings (size 3 to 8) (size 9 to 14) (size 15 to 20)
#    0.000    0.727    5.455    2.182    0.000    4.364 
#    3.273    0.000    0.000    0.000    0.000    0.000 
#    0.000    0.000    0.000    0.000    0.000    0.000 
#
# Total GULP energy -245182.982082 kJ/mol
# GULP energy per Si atom -5572.340502 kJ/mol
# Density = 2.109700 g / cm^3
# Si number density = 21.145128 Si / 1000 Ang^3
#
#
#
# Elastic Constant Matrix: (Units=GPa)
#
#
# Indices 1 2 3 4 5 6 
#
# 1 116.1541 49.5694 25.4427 0.0000 0.0000 0.0000
# 2 49.5694 116.1541 25.4427 0.0000 0.0000 0.0000
# 3 25.4427 25.4427 60.0058 0.0000 0.0000 0.0000
# 4 0.0000 0.0000 0.0000 54.3720 0.0000 0.0000
# 5 0.0000 0.0000 0.0000 0.0000 54.3720 0.0000
# 6 0.0000 0.0000 0.0000 0.0000 0.0000 42.5375
#
#
#
# Elastic Compliance Matrix: (Units=1/GPa)
#
#
# Indices 1 2 3 4 5 6 
#
# 1 0.010978 -0.004041 -0.002941 0.000000 0.000000 0.000000
# 2 -0.004041 0.010978 -0.002941 0.000000 0.000000 0.000000
# 3 -0.002941 -0.002941 0.019159 0.000000 0.000000 0.000000
# 4 0.000000 0.000000 0.000000 0.018392 0.000000 0.000000
# 5 0.000000 0.000000 0.000000 0.000000 0.018392 0.000000
# 6 0.000000 0.000000 0.000000 0.000000 0.000000 0.023509
#
#
# Mechanical properties :
#
#
# Convention : Reuss Voigt Hill
#
# Bulk Modulus (GPa) = 47.01841 54.80260 50.91050
# Shear Modulus (GPa) = 38.95784 43.04692 41.00238
#
# Velocity S-wave (km/s) = 4.29698 4.51686 4.40829
# Velocity P-wave (km/s) = 6.84858 7.29221 7.07387
#
# Compressibility (1/GPa) = 0.02126827
#
# Stress axis : x y z
#
# Youngs Moduli (GPa) = 91.09218 91.09218 52.19366
#
# Poissons Ratio (x) = 0.36806 0.15352
# Poissons Ratio (y) = 0.36806 0.15352
# Poissons Ratio (z) = 0.26794 0.26794
#
# Static dielectric constant tensor:
#      x y z
#    x 1.679350 0.000000 0.000000 
#    y 0.000000 1.679350 0.000000 
#    z 0.000000 0.000000 1.727120 
# 
# From -- ./inp_files/5535.got.cif
#   From: 2010.05.17/outbox.cif.g08.bks.cpg/sg94_3_cif.got.tgz:5535.got - 2010.06.03 19:43:16.
