data_PCOD9550316
_publ_section_title
;
Structure prediction by ZEFSAII (Michael W. Deem and Ramdas Pophale) SiO2 
 PCOD9550316
Probable space group: P 42 21 2
;
_chemical_formula_sum "Si O2"
_cell_formula_units_Z 24
_cell_length_a 7.964165
_cell_length_b 7.964165
_cell_length_c 14.653622
_cell_angle_alpha 90.000000
_cell_angle_beta 90.000000
_cell_angle_gamma 90.000000
_cell_volume 929.448825
_symmetry_space_group_name_H-M "P 42 21 2"
_symmetry_group_IT_number 94
_symmetry_cell_setting 'tetragonal'
loop_
_space_group_symop_operation_xyz
x,y,z
1/2-y,1/2+x,1/2+z
-x,-y,z
1/2+y,1/2-x,1/2+z
1/2+x,1/2-y,1/2-z
1/2-x,1/2+y,1/2-z
y,x,-z
-y,-x,-z
loop_
_atom_site_type_symbol
_atom_site_label
_atom_site_fract_x
_atom_site_fract_y
_atom_site_fract_z
Si Si1 0.599643 0.679228 0.592498
Si Si2 0.302683 0.017931 0.770511
Si Si3 0.158630 0.747527 0.399494
O O1 0.500000 0.500000 0.589470
O O2 0.701311 0.701311 0.500000
O O3 0.720726 0.640922 0.676345
O O4 0.453086 0.815011 0.589587
O O5 0.287424 0.175420 0.838796
O O6 0.500000 0.000000 0.759364
O O7 0.222597 0.998508 0.668611
O O8 0.169922 0.830079 0.500000
#
# Coordination Sequence:
#
# PCOD9550316 Si02
#       3
#     8   8   8
#     4   9  16  38  65  81 118 176 207 242 325 398
#     4  11  23  39  64 102 126 162 231 277 310 392
#     4  11  22  43  66  94 132 181 213 265 343 400
#
# _framework density 25.821757999999999
#
# number of rings (size 3 to 8) (size 9 to 14) (size 15 to 20)
#    0.000    1.667    6.667    2.000    0.000    1.333 
#    6.000    0.000    0.000   13.000    0.000    0.000 
#    0.000    0.000    0.000    0.000    0.000    0.000 
#
# Total GULP energy -133825.313573 kJ/mol
# GULP energy per Si atom -5576.054732 kJ/mol
# Density = 2.576299 g / cm^3
# Si number density = 25.821758 Si / 1000 Ang^3
#
#
#
# Elastic Constant Matrix: (Units=GPa)
#
#
# Indices 1 2 3 4 5 6 
#
# 1 70.4579 1.0971 40.0893 0.0000 0.0000 0.0000
# 2 1.0971 70.4575 40.0891 0.0000 0.0000 0.0000
# 3 40.0893 40.0891 257.6795 0.0000 0.0000 0.0000
# 4 0.0000 0.0000 0.0000 55.6429 0.0000 0.0000
# 5 0.0000 0.0000 0.0000 0.0000 55.6435 0.0000
# 6 0.0000 0.0000 0.0000 0.0000 0.0000 3.4324
#
#
#
# Elastic Compliance Matrix: (Units=1/GPa)
#
#
# Indices 1 2 3 4 5 6 
#
# 1 0.015672 0.001254 -0.002633 0.000000 0.000000 0.000000
# 2 0.001254 0.015672 -0.002633 0.000000 0.000000 0.000000
# 3 -0.002633 -0.002633 0.004700 0.000000 0.000000 0.000000
# 4 0.000000 0.000000 0.000000 0.017972 0.000000 0.000000
# 5 0.000000 0.000000 0.000000 0.000000 0.017972 0.000000
# 6 0.000000 0.000000 0.000000 0.000000 0.000000 0.291338
#
#
# Mechanical properties :
#
#
# Convention : Reuss Voigt Hill
#
# Bulk Modulus (GPa) = 35.69023 62.34955 49.01989
# Shear Modulus (GPa) = 13.13407 44.09838 28.61623
#
# Velocity S-wave (km/s) = 2.25776 4.13704 3.33261
# Velocity P-wave (km/s) = 4.54405 6.85701 5.81666
#
# Compressibility (1/GPa) = 0.02801888
#
# Stress axis : x y z
#
# Youngs Moduli (GPa) = 63.80947 63.80915 212.75875
#
# Poissons Ratio (x) = -0.08003 0.56026
# Poissons Ratio (y) = -0.08003 0.56026
# Poissons Ratio (z) = 0.16803 0.16803
#
# Static dielectric constant tensor:
#      x y z
#    x 2.173640 0.000000 0.000000 
#    y 0.000000 2.173650 0.000000 
#    z 0.000000 0.000000 2.207080 
# 
# From -- ./inp_files/3054.got.cif
#   From: 2010.05.17/outbox.cif.g08.bks.cpg/sg94_2_cif.got.tgz:3054.got - 2010.06.03 19:43:16.
