data_PCOD9550705
_publ_section_title
;
Structure prediction by ZEFSAII (Michael W. Deem and Ramdas Pophale) SiO2 
 PCOD9550705
Probable space group: P 43 21 2
;
_chemical_formula_sum "Si O2"
_cell_formula_units_Z 40
_cell_length_a 18.544468
_cell_length_b 18.544468
_cell_length_c 5.401941
_cell_angle_alpha 90.000000
_cell_angle_beta 90.000000
_cell_angle_gamma 90.000000
_cell_volume 1857.712889
_symmetry_space_group_name_H-M "P 43 21 2"
_symmetry_group_IT_number 96
_symmetry_cell_setting 'tetragonal'
loop_
_space_group_symop_operation_xyz
x,y,z
1/2-y,1/2+x,3/4+z
-x,-y,1/2+z
1/2+y,1/2-x,1/4+z
1/2+x,1/2-y,1/4-z
1/2-x,1/2+y,3/4-z
y,x,-z
-y,-x,1/2-z
loop_
_atom_site_type_symbol
_atom_site_label
_atom_site_fract_x
_atom_site_fract_y
_atom_site_fract_z
Si Si1 0.701602 0.673477 0.748963
Si Si2 0.191263 0.438445 0.423532
Si Si3 0.101860 0.953839 0.999242
Si Si4 0.695138 0.913127 0.022314
Si Si5 0.552729 0.266235 0.278297
O O1 0.716176 0.716176 0.500000
O O2 0.743035 0.598297 0.773977
O O3 0.616673 0.654624 0.746774
O O4 0.716406 0.716406 0.000000
O O5 0.164550 0.505184 0.259827
O O6 0.219716 0.479405 0.667565
O O7 0.138676 0.373167 0.478756
O O8 0.056885 0.943116 0.250000
O O9 0.152257 0.024026 0.006215
O O10 0.055995 0.944006 0.750000
O O11 0.747193 0.904718 0.782186
O O12 0.738192 0.909994 0.279953
#
# Coordination Sequence:
#
# PCOD9550705 Si02
#       5
#     8   8   8   8   8
#     4  10  17  28  50  69  85 107 148 208 238 292
#     4  10  22  35  48  66  94 125 172 200 247 276
#     4  10  15  27  47  69  84 106 140 201 244 286
#     4  10  22  32  48  60  93 129 164 211 234 271
#     4  10  20  34  45  68  90 118 162 204 240 285
#
# _framework density 21.531851
#
# number of rings (size 3 to 8) (size 9 to 14) (size 15 to 20)
#    1.200    0.800    4.000    3.600    2.800    0.000 
#    3.600    0.000    0.000    0.000    0.000    0.000 
#    0.000    0.000    0.000    0.000    0.000  182.000 
#
# Total GULP energy -222837.320366 kJ/mol
# GULP energy per Si atom -5570.933009 kJ/mol
# Density = 2.148284 g / cm^3
# Si number density = 21.531851 Si / 1000 Ang^3
#
#
#
# Elastic Constant Matrix: (Units=GPa)
#
#
# Indices 1 2 3 4 5 6 
#
# 1 399.6489 -346.9838 13.4279 0.0000 0.0000 0.0000
# 2 -346.9838 399.6172 13.4328 0.0000 0.0000 0.0000
# 3 13.4279 13.4328 199.5274 0.0000 0.0000 0.0000
# 4 0.0000 0.0000 0.0000 38.1948 0.0000 0.0000
# 5 0.0000 0.0000 0.0000 0.0000 38.1972 0.0000
# 6 0.0000 0.0000 0.0000 0.0000 0.0000 19.8472
#
#
#
# Elastic Compliance Matrix: (Units=1/GPa)
#
#
# Indices 1 2 3 4 5 6 
#
# 1 0.010504 0.009165 -0.001324 0.000000 0.000000 0.000000
# 2 0.009165 0.010505 -0.001324 0.000000 0.000000 0.000000
# 3 -0.001324 -0.001324 0.005190 0.000000 0.000000 0.000000
# 4 0.000000 0.000000 0.000000 0.026182 0.000000 0.000000
# 5 0.000000 0.000000 0.000000 0.000000 0.026180 0.000000
# 6 0.000000 0.000000 0.000000 0.000000 0.000000 0.050385
#
#
# Mechanical properties :
#
#
# Convention : Reuss Voigt Hill
#
# Bulk Modulus (GPa) = 25.48910 39.83860 32.66385
# Shear Modulus (GPa) = 38.76315 107.17561 72.96938
#
# Velocity S-wave (km/s) = 4.24756 7.06282 5.82774
# Velocity P-wave (km/s) = 5.99327 9.22245 7.77730
#
# Compressibility (1/GPa) = 0.03923245
#
# Stress axis : x y z
#
# Youngs Moduli (GPa) = 95.20364 95.19592 192.67545
#
# Poissons Ratio (x) = -0.87246 0.25508
# Poissons Ratio (y) = -0.87253 0.25510
# Poissons Ratio (z) = 0.12604 0.12604
#
# Static dielectric constant tensor:
#      x y z
#    x 1.785980 0.000000 0.000000 
#    y 0.000000 1.785980 0.000000 
#    z 0.000000 0.000000 1.882110 
# 
# From -- ./inp_files/521.got.cif
#   From: 2010.05.17/outbox.cif.g08.bks.cpg/sg96_1_cif.got.tgz:521.got - 2010.06.03 19:52:08.
