data_PCOD9550203
_publ_section_title
;
Structure prediction by ZEFSAII (Michael W. Deem and Ramdas Pophale) SiO2 
 PCOD9550203
Probable space group: P 42 21 2
;
_chemical_formula_sum "Si O2"
_cell_formula_units_Z 44
_cell_length_a 9.641675
_cell_length_b 9.641675
_cell_length_c 26.605956
_cell_angle_alpha 90.000000
_cell_angle_beta 90.000000
_cell_angle_gamma 90.000000
_cell_volume 2473.340136
_symmetry_space_group_name_H-M "P 42 21 2"
_symmetry_group_IT_number 94
_symmetry_cell_setting 'tetragonal'
loop_
_space_group_symop_operation_xyz
x,y,z
1/2-y,1/2+x,1/2+z
-x,-y,z
1/2+y,1/2-x,1/2+z
1/2+x,1/2-y,1/2-z
1/2-x,1/2+y,1/2-z
y,x,-z
-y,-x,-z
loop_
_atom_site_type_symbol
_atom_site_label
_atom_site_fract_x
_atom_site_fract_y
_atom_site_fract_z
Si Si1 0.221334 0.778665 0.679269
Si Si2 0.845926 0.521332 0.365283
Si Si3 0.978667 0.345926 0.134717
Si Si4 0.882711 0.117289 0.942805
Si Si5 0.500000 0.500000 0.811755
Si Si6 0.724523 0.275477 0.207230
O O1 0.376714 0.809123 0.661243
O O2 0.190877 0.623286 0.661243
O O3 0.220563 0.779437 0.739753
O O4 0.107368 0.892632 0.661134
O O5 0.743912 0.557502 0.410530
O O6 0.836219 0.647230 0.325097
O O7 0.000000 0.500000 0.384701
O O8 0.942496 0.243912 0.089470
O O9 0.852770 0.336219 0.174903
O O10 0.000000 0.500000 0.115299
O O11 0.845631 0.154370 0.000000
O O12 0.000000 0.000000 0.944208
O O13 0.393369 0.606631 0.784612
#
# Coordination Sequence:
#
# PCOD9550203 Si02
#       6
#     8   8   8   8   4   8
#     4  12  23  38  58  85 129 168 205 245 298 362
#     4  11  23  39  60  91 121 162 207 252 308 368
#     4  11  23  39  60  91 121 162 207 252 308 368
#     4  10  22  43  66  89 115 155 211 267 313 367
#     4  12  22  38  56  84 115 168 201 250 286 352
#     4  11  24  36  59  86 126 168 208 240 294 367
#
# _framework density 17.789708999999998
#
# number of rings (size 3 to 8) (size 9 to 14) (size 15 to 20)
#    0.000    0.909    5.455    2.182    0.000    2.182 
#    0.000    0.000    0.000    0.000    0.000    5.091 
#    0.000    0.000    0.000    0.000    0.000    0.000 
#
# Total GULP energy -245539.177973 kJ/mol
# GULP energy per Si atom -5580.435863 kJ/mol
# Density = 1.774922 g / cm^3
# Si number density = 17.789709 Si / 1000 Ang^3
#
#
#
# Elastic Constant Matrix: (Units=GPa)
#
#
# Indices 1 2 3 4 5 6 
#
# 1 122.1549 61.4611 42.7705 0.0000 0.0000 0.0000
# 2 61.4611 122.1548 42.7704 0.0000 0.0000 0.0000
# 3 42.7705 42.7704 121.1742 0.0000 0.0000 0.0000
# 4 0.0000 0.0000 0.0000 9.0381 0.0000 0.0000
# 5 0.0000 0.0000 0.0000 0.0000 9.0384 0.0000
# 6 0.0000 0.0000 0.0000 0.0000 0.0000 43.6327
#
#
#
# Elastic Compliance Matrix: (Units=1/GPa)
#
#
# Indices 1 2 3 4 5 6 
#
# 1 0.011497 -0.004979 -0.002301 0.000000 0.000000 0.000000
# 2 -0.004979 0.011497 -0.002301 0.000000 0.000000 0.000000
# 3 -0.002301 -0.002301 0.009877 0.000000 0.000000 0.000000
# 4 0.000000 0.000000 0.000000 0.110642 0.000000 0.000000
# 5 0.000000 0.000000 0.000000 0.000000 0.110639 0.000000
# 6 0.000000 0.000000 0.000000 0.000000 0.000000 0.022919
#
#
# Mechanical properties :
#
#
# Convention : Reuss Voigt Hill
#
# Bulk Modulus (GPa) = 72.93905 73.27643 73.10774
# Shear Modulus (GPa) = 16.62224 26.90731 21.76477
#
# Velocity S-wave (km/s) = 3.06007 3.89333 3.50158
# Velocity P-wave (km/s) = 7.31950 7.84159 7.58504
#
# Compressibility (1/GPa) = 0.01371008
#
# Stress axis : x y z
#
# Youngs Moduli (GPa) = 86.97894 86.97891 101.24884
#
# Poissons Ratio (x) = 0.43308 0.23294
# Poissons Ratio (y) = 0.43308 0.23293
# Poissons Ratio (z) = 0.20011 0.20010
#
# Static dielectric constant tensor:
#      x y z
#    x 1.629320 0.000000 0.000000 
#    y 0.000000 1.629320 0.000000 
#    z 0.000000 0.000000 1.552040 
# 
# From -- ./inp_files/5483.got.cif
#   From: 2010.05.17/outbox.cif.g08.bks.cpg/sg94_3_cif.got.tgz:5483.got - 2010.06.03 19:43:16.
