data_PCOD9550324
_publ_section_title
;
Structure prediction by ZEFSAII (Michael W. Deem and Ramdas Pophale) SiO2 
 PCOD9550324
Probable space group: P 42 21 2
;
_chemical_formula_sum "Si O2"
_cell_formula_units_Z 48
_cell_length_a 9.008746
_cell_length_b 9.008746
_cell_length_c 28.446238
_cell_angle_alpha 90.000000
_cell_angle_beta 90.000000
_cell_angle_gamma 90.000000
_cell_volume 2308.625688
_symmetry_space_group_name_H-M "P 42 21 2"
_symmetry_group_IT_number 94
_symmetry_cell_setting 'tetragonal'
loop_
_space_group_symop_operation_xyz
x,y,z
1/2-y,1/2+x,1/2+z
-x,-y,z
1/2+y,1/2-x,1/2+z
1/2+x,1/2-y,1/2-z
1/2-x,1/2+y,1/2-z
y,x,-z
-y,-x,-z
loop_
_atom_site_type_symbol
_atom_site_label
_atom_site_fract_x
_atom_site_fract_y
_atom_site_fract_z
Si Si1 0.165202 0.542104 0.037688
Si Si2 0.572607 0.159140 0.719158
Si Si3 0.364976 0.802999 0.069801
Si Si4 0.327586 0.537496 0.374565
Si Si5 0.832181 0.171162 0.600686
Si Si6 0.343722 0.425742 0.203143
O O1 0.232596 0.686245 0.062425
O O2 0.281448 0.416449 0.053629
O O3 0.000000 0.500000 0.053432
O O4 0.161227 0.573672 0.982198
O O5 0.523321 0.277536 0.679590
O O6 0.751266 0.152121 0.716729
O O7 0.510453 0.216047 0.768649
O O8 0.500000 0.000000 0.708002
O O9 0.506176 0.735539 0.097010
O O10 0.288104 0.939041 0.095731
O O11 0.500000 0.500000 0.381447
O O12 0.290459 0.703921 0.390280
O O13 0.934101 0.177153 0.646951
O O14 0.500000 0.500000 0.215488
#
# Coordination Sequence:
#
# PCOD9550324 Si02
#       6
#     8   8   8   8   8   8
#     4  11  23  39  61  94 129 168 220 273 325 386
#     4  11  24  41  65  94 128 170 215 269 328 393
#     4  11  23  41  65  93 129 173 218 269 329 391
#     4  11  23  42  66  93 128 170 215 267 328 392
#     4  11  23  41  65  93 127 171 217 269 327 388
#     4  11  23  41  63  93 127 165 215 266 325 392
#
# _framework density 20.791588999999998
#
# number of rings (size 3 to 8) (size 9 to 14) (size 15 to 20)
#    0.000    1.000    0.000    8.000    0.000    4.667 
#    0.000    5.000    0.000    0.000    0.000    1.167 
#    0.000    0.000    0.000    0.000    0.000    0.000 
#
# Total GULP energy -268427.135514 kJ/mol
# GULP energy per Si atom -5592.231990 kJ/mol
# Density = 2.074427 g / cm^3
# Si number density = 20.791589 Si / 1000 Ang^3
#
#
#
# Elastic Constant Matrix: (Units=GPa)
#
#
# Indices 1 2 3 4 5 6 
#
# 1 75.5786 45.9555 35.0062 0.0000 0.0000 0.0000
# 2 45.9555 75.5786 35.0062 0.0000 0.0000 0.0000
# 3 35.0062 35.0062 91.2871 0.0000 0.0000 0.0000
# 4 0.0000 0.0000 0.0000 17.3899 0.0000 0.0000
# 5 0.0000 0.0000 0.0000 0.0000 17.3899 0.0000
# 6 0.0000 0.0000 0.0000 0.0000 0.0000 41.9372
#
#
#
# Elastic Compliance Matrix: (Units=1/GPa)
#
#
# Indices 1 2 3 4 5 6 
#
# 1 0.022159 -0.011598 -0.004050 0.000000 0.000000 0.000000
# 2 -0.011598 0.022159 -0.004050 0.000000 0.000000 0.000000
# 3 -0.004050 -0.004050 0.014061 0.000000 0.000000 0.000000
# 4 0.000000 0.000000 0.000000 0.057505 0.000000 0.000000
# 5 0.000000 0.000000 0.000000 0.000000 0.057505 0.000000
# 6 0.000000 0.000000 0.000000 0.000000 0.000000 0.023845
#
#
# Mechanical properties :
#
#
# Convention : Reuss Voigt Hill
#
# Bulk Modulus (GPa) = 52.67820 52.70888 52.69354
# Shear Modulus (GPa) = 20.57977 23.77519 22.17748
#
# Velocity S-wave (km/s) = 3.14954 3.38524 3.26951
# Velocity P-wave (km/s) = 6.21429 6.37855 6.29696
#
# Compressibility (1/GPa) = 0.01898318
#
# Stress axis : x y z
#
# Youngs Moduli (GPa) = 45.12781 45.12781 71.12108
#
# Poissons Ratio (x) = 0.52340 0.28804
# Poissons Ratio (y) = 0.52340 0.28804
# Poissons Ratio (z) = 0.18276 0.18276
#
# Static dielectric constant tensor:
#      x y z
#    x 1.739100 0.000000 0.000000 
#    y 0.000000 1.739100 0.000000 
#    z 0.000000 0.000000 1.734420 
# 
# From -- ./inp_files/5609.got.cif
#   From: 2010.05.17/outbox.cif.g08.bks.cpg/sg94_3_cif.got.tgz:5609.got - 2010.06.03 19:43:16.
