data_PCOD9550276
_publ_section_title
;
Structure prediction by ZEFSAII (Michael W. Deem and Ramdas Pophale) SiO2 
 PCOD9550276
Probable space group: P 42 21 2
;
_chemical_formula_sum "Si O2"
_cell_formula_units_Z 52
_cell_length_a 20.183059
_cell_length_b 20.183059
_cell_length_c 6.035485
_cell_angle_alpha 90.000000
_cell_angle_beta 90.000000
_cell_angle_gamma 90.000000
_cell_volume 2458.590247
_symmetry_space_group_name_H-M "P 42 21 2"
_symmetry_group_IT_number 94
_symmetry_cell_setting 'tetragonal'
loop_
_space_group_symop_operation_xyz
x,y,z
1/2-y,1/2+x,1/2+z
-x,-y,z
1/2+y,1/2-x,1/2+z
1/2+x,1/2-y,1/2-z
1/2-x,1/2+y,1/2-z
y,x,-z
-y,-x,-z
loop_
_atom_site_type_symbol
_atom_site_label
_atom_site_fract_x
_atom_site_fract_y
_atom_site_fract_z
Si Si1 0.127373 0.398250 0.135454
Si Si2 0.396857 0.786088 0.047218
Si Si3 0.734116 0.265885 0.000000
Si Si4 0.214506 0.989502 0.809825
Si Si5 0.753273 0.153607 0.640471
Si Si6 0.321738 0.027712 0.153543
Si Si7 0.962712 0.070974 0.246584
O O1 0.119599 0.359113 0.365556
O O2 0.142835 0.474226 0.188760
O O3 0.190092 0.367473 0.006002
O O4 0.061017 0.376947 0.004359
O O5 0.336043 0.740369 0.119159
O O6 0.462816 0.756653 0.152556
O O7 0.411749 0.790758 0.790007
O O8 0.796032 0.264205 0.163279
O O9 0.217682 0.913677 0.737260
O O10 0.137112 0.007463 0.780678
O O11 0.258081 0.995084 0.033714
O O12 0.807813 0.192188 0.500000
O O13 0.929457 0.070544 0.500000
O O14 0.926339 0.073662 0.000000
O O15 0.000000 0.000000 0.244450
#
# Coordination Sequence:
#
# PCOD9550276 Si02
#       7
#     8   8   4   8   8   8   8
#     4  11  24  46  71 104 140 187 239 304 373 448
#     4  11  24  45  68 102 142 185 238 301 373 442
#     4  12  24  40  68 104 140 180 232 300 360 434
#     4  11  26  42  71 103 136 198 241 305 373 446
#     4  12  24  41  72 103 137 177 243 300 356 434
#     4  11  25  45  74 100 148 187 248 304 381 449
#     4  10  24  46  70 103 150 197 249 312 374 456
#
# _framework density 21.150333
#
# number of rings (size 3 to 8) (size 9 to 14) (size 15 to 20)
#    0.000    0.923    4.615    1.385    3.231    1.231 
#    2.769    2.308    0.000    0.000    0.000    0.000 
#    0.000    0.000    0.000    0.000    0.000    0.000 
#
# Total GULP energy -289774.455992 kJ/mol
# GULP energy per Si atom -5572.585692 kJ/mol
# Density = 2.110219 g / cm^3
# Si number density = 21.150333 Si / 1000 Ang^3
#
#
#
# Elastic Constant Matrix: (Units=GPa)
#
#
# Indices 1 2 3 4 5 6 
#
# 1 34.5255 114.7598 22.7781 0.0000 0.0000 0.0000
# 2 114.7598 34.4987 22.8243 0.0000 0.0000 0.0000
# 3 22.7781 22.8243 73.3249 0.0000 0.0000 0.0000
# 4 0.0000 0.0000 0.0000 24.7030 0.0000 0.0000
# 5 0.0000 0.0000 0.0000 0.0000 24.7041 0.0000
# 6 0.0000 0.0000 0.0000 0.0000 0.0000 20.0429
#
#
#
# Elastic Compliance Matrix: (Units=1/GPa)
#
#
# Indices 1 2 3 4 5 6 
#
# 1 -0.002527 0.009932 -0.002307 0.000000 0.000000 0.000000
# 2 0.009932 -0.002532 -0.002297 0.000000 0.000000 0.000000
# 3 -0.002307 -0.002297 0.015069 0.000000 0.000000 0.000000
# 4 0.000000 0.000000 0.000000 0.040481 0.000000 0.000000
# 5 0.000000 0.000000 0.000000 0.000000 0.040479 0.000000
# 6 0.000000 0.000000 0.000000 0.000000 0.000000 0.049893
#
#
# Mechanical properties :
#
#
# Convention : Reuss Voigt Hill
#
# Bulk Modulus (GPa) = 48.38664 51.45262 49.91963
# Shear Modulus (GPa) = 36.47077 12.68913 24.57995
#
# Velocity S-wave (km/s) = 4.15705 2.45204 3.41274
# Velocity P-wave (km/s) = 6.78001 5.69180 6.25960
#
# Compressibility (1/GPa) = 0.02066686
#
# Stress axis : x y z
#
# Youngs Moduli (GPa) = -395.73524 -394.93436 66.35921
#
# Poissons Ratio (x) = 3.92245 0.15306
# Poissons Ratio (y) = 3.93041 0.15244
# Poissons Ratio (z) = -0.91280 -0.90722
#
# Static dielectric constant tensor:
#      x y z
#    x 1.783940 0.000000 0.000000 
#    y 0.000000 1.783940 0.000000 
#    z 0.000000 0.000000 1.853550 
# 
# From -- ./inp_files/554.got.cif
#   From: 2010.05.17/outbox.cif.g08.bks.cpg/sg94_1_cif.got.tgz:554.got - 2010.06.03 19:43:16.
