data_PCOD9550227
_publ_section_title
;
Structure prediction by ZEFSAII (Michael W. Deem and Ramdas Pophale) SiO2 
 PCOD9550227
Probable space group: P 42 21 2
;
_chemical_formula_sum "Si O2"
_cell_formula_units_Z 40
_cell_length_a 9.057024
_cell_length_b 9.057024
_cell_length_c 24.237812
_cell_angle_alpha 90.000000
_cell_angle_beta 90.000000
_cell_angle_gamma 90.000000
_cell_volume 1988.220053
_symmetry_space_group_name_H-M "P 42 21 2"
_symmetry_group_IT_number 94
_symmetry_cell_setting 'tetragonal'
loop_
_space_group_symop_operation_xyz
x,y,z
1/2-y,1/2+x,1/2+z
-x,-y,z
1/2+y,1/2-x,1/2+z
1/2+x,1/2-y,1/2-z
1/2-x,1/2+y,1/2-z
y,x,-z
-y,-x,-z
loop_
_atom_site_type_symbol
_atom_site_label
_atom_site_fract_x
_atom_site_fract_y
_atom_site_fract_z
Si Si1 0.361207 0.598636 0.656240
Si Si2 0.969213 0.329492 0.767283
Si Si3 0.304824 0.149405 0.950022
Si Si4 0.306610 0.190338 0.321712
Si Si5 0.855861 0.701487 0.551755
O O1 0.500000 0.500000 0.635228
O O2 0.430267 0.717866 0.696926
O O3 0.279609 0.678631 0.606657
O O4 0.249676 0.476066 0.681027
O O5 0.804071 0.286591 0.784661
O O6 0.000000 0.500000 0.780548
O O7 0.027619 0.302418 0.704926
O O8 0.467945 0.216218 0.949850
O O9 0.319884 0.972370 0.954125
O O10 0.212444 0.212444 0.000000
O O11 0.258665 0.194782 0.385798
O O12 0.784820 0.784820 0.500000
#
# Coordination Sequence:
#
# PCOD9550227 Si02
#       5
#     8   8   8   8   8
#     4   9  21  40  61  95 127 162 214 263 321 381
#     4  11  23  38  65  94 127 164 214 262 316 378
#     4  10  23  39  68  90 121 170 209 264 321 388
#     4  10  23  41  66  91 130 169 210 267 316 388
#     4  10  24  43  63  93 129 167 214 267 325 382
#
# _framework density 20.118500000000001
#
# number of rings (size 3 to 8) (size 9 to 14) (size 15 to 20)
#    0.000    2.000    0.000    1.200   16.800    2.000 
#    0.000    0.000    4.400    0.000    0.000    0.000 
#    0.000    0.000    0.000    0.000    0.000    0.000 
#
# Total GULP energy -223365.034623 kJ/mol
# GULP energy per Si atom -5584.125866 kJ/mol
# Density = 2.007271 g / cm^3
# Si number density = 20.118500 Si / 1000 Ang^3
#
#
#
# Elastic Constant Matrix: (Units=GPa)
#
#
# Indices 1 2 3 4 5 6 
#
# 1 50.4722 29.9745 46.7915 0.0000 0.0000 0.0000
# 2 29.9745 50.4722 46.7915 0.0000 0.0000 0.0000
# 3 46.7915 46.7915 98.6836 0.0000 0.0000 0.0000
# 4 0.0000 0.0000 0.0000 26.7740 0.0000 0.0000
# 5 0.0000 0.0000 0.0000 0.0000 26.7740 0.0000
# 6 0.0000 0.0000 0.0000 0.0000 0.0000 23.0128
#
#
#
# Elastic Compliance Matrix: (Units=1/GPa)
#
#
# Indices 1 2 3 4 5 6 
#
# 1 0.038254 -0.010532 -0.013144 0.000000 0.000000 0.000000
# 2 -0.010532 0.038254 -0.013144 0.000000 0.000000 0.000000
# 3 -0.013144 -0.013144 0.022598 0.000000 0.000000 0.000000
# 4 0.000000 0.000000 0.000000 0.037350 0.000000 0.000000
# 5 0.000000 0.000000 0.000000 0.000000 0.037350 0.000000
# 6 0.000000 0.000000 0.000000 0.000000 0.000000 0.043454
#
#
# Mechanical properties :
#
#
# Convention : Reuss Voigt Hill
#
# Bulk Modulus (GPa) = 39.27153 49.63811 44.45482
# Shear Modulus (GPa) = 16.70073 20.38351 18.54212
#
# Velocity S-wave (km/s) = 2.88430 3.18649 3.03915
# Velocity P-wave (km/s) = 5.53667 6.18585 5.87024
#
# Compressibility (1/GPa) = 0.02546374
#
# Stress axis : x y z
#
# Youngs Moduli (GPa) = 26.14139 26.14139 44.25141
#
# Poissons Ratio (x) = 0.27533 0.58165
# Poissons Ratio (y) = 0.27533 0.58165
# Poissons Ratio (z) = 0.34361 0.34361
#
# Static dielectric constant tensor:
#      x y z
#    x 1.714780 0.000000 0.000000 
#    y 0.000000 1.714780 0.000000 
#    z 0.000000 0.000000 1.706280 
# 
# From -- ./inp_files/4913.got.cif
#   From: 2010.05.17/outbox.cif.g08.bks.cpg/sg94_3_cif.got.tgz:4913.got - 2010.06.03 19:43:16.
