data_PCOD9550715
_publ_section_title
;
Structure prediction by ZEFSAII (Michael W. Deem and Ramdas Pophale) SiO2 
 PCOD9550715
Probable space group: P 43 21 2
;
_chemical_formula_sum "Si O2"
_cell_formula_units_Z 40
_cell_length_a 6.994424
_cell_length_b 6.994424
_cell_length_c 34.397585
_cell_angle_alpha 90.000000
_cell_angle_beta 90.000000
_cell_angle_gamma 90.000000
_cell_volume 1682.797521
_symmetry_space_group_name_H-M "P 43 21 2"
_symmetry_group_IT_number 96
_symmetry_cell_setting 'tetragonal'
loop_
_space_group_symop_operation_xyz
x,y,z
1/2-y,1/2+x,3/4+z
-x,-y,1/2+z
1/2+y,1/2-x,1/4+z
1/2+x,1/2-y,1/4-z
1/2-x,1/2+y,3/4-z
y,x,-z
-y,-x,1/2-z
loop_
_atom_site_type_symbol
_atom_site_label
_atom_site_fract_x
_atom_site_fract_y
_atom_site_fract_z
Si Si1 0.626903 0.121084 0.543984
Si Si2 0.738560 0.738560 0.000000
Si Si3 0.112958 0.734603 0.329322
Si Si4 0.145220 0.966045 0.679006
Si Si5 0.289953 0.710048 0.750000
Si Si6 0.594834 0.986636 0.115625
O O1 0.472208 0.209554 0.514658
O O2 0.701869 0.309351 0.565309
O O3 0.515005 0.980733 0.574520
O O4 0.767546 0.997723 0.518401
O O5 0.840651 0.733743 0.041927
O O6 0.273183 0.828255 0.356766
O O7 0.010740 0.567155 0.351660
O O8 0.973342 0.913304 0.319487
O O9 0.228415 0.906701 0.636647
O O10 0.239051 0.853646 0.714732
#
# Coordination Sequence:
#
# PCOD9550715 Si02
#       6
#     8   4   8   8   4   8
#     4  10  22  41  65  99 131 174 222 280 327 408
#     4   8  17  34  63  86 120 172 209 252 337 386
#     4  10  17  33  61  90 115 164 211 260 315 388
#     4  10  21  40  65  86 130 175 207 276 326 396
#     4  12  25  44  63 100 140 164 221 278 343 402
#     4  10  18  36  63  88 126 164 218 262 323 387
#
# _framework density 23.769940999999999
#
# number of rings (size 3 to 8) (size 9 to 14) (size 15 to 20)
#    0.000    2.400    4.000    3.600    0.000    0.000 
#    3.600   10.000    0.000    0.000    0.000    0.000 
#    0.000    0.000    0.000    0.000    0.000    0.000 
#
# Total GULP energy -222725.575704 kJ/mol
# GULP energy per Si atom -5568.139393 kJ/mol
# Density = 2.371584 g / cm^3
# Si number density = 23.769941 Si / 1000 Ang^3
#
#
#
# Elastic Constant Matrix: (Units=GPa)
#
#
# Indices 1 2 3 4 5 6 
#
# 1 56.7682 10.2611 37.1306 0.0000 0.0000 0.0000
# 2 10.2611 56.7678 37.1308 0.0000 0.0000 0.0000
# 3 37.1306 37.1308 111.3432 0.0000 0.0000 0.0000
# 4 0.0000 0.0000 0.0000 28.7016 0.0000 0.0000
# 5 0.0000 0.0000 0.0000 0.0000 28.7018 0.0000
# 6 0.0000 0.0000 0.0000 0.0000 0.0000 21.2548
#
#
#
# Elastic Compliance Matrix: (Units=1/GPa)
#
#
# Indices 1 2 3 4 5 6 
#
# 1 0.022581 0.001079 -0.007890 0.000000 0.000000 0.000000
# 2 0.001079 0.022581 -0.007890 0.000000 0.000000 0.000000
# 3 -0.007890 -0.007890 0.014244 0.000000 0.000000 0.000000
# 4 0.000000 0.000000 0.000000 0.034841 0.000000 0.000000
# 5 0.000000 0.000000 0.000000 0.000000 0.034841 0.000000
# 6 0.000000 0.000000 0.000000 0.000000 0.000000 0.047048
#
#
# Mechanical properties :
#
#
# Convention : Reuss Voigt Hill
#
# Bulk Modulus (GPa) = 33.32931 43.76934 38.54933
# Shear Modulus (GPa) = 23.19741 25.08873 24.14307
#
# Velocity S-wave (km/s) = 3.12735 3.25234 3.19046
# Velocity P-wave (km/s) = 5.20505 5.70590 5.46122
#
# Compressibility (1/GPa) = 0.03000362
#
# Stress axis : x y z
#
# Youngs Moduli (GPa) = 44.28451 44.28407 70.20619
#
# Poissons Ratio (x) = -0.04779 0.55395
# Poissons Ratio (y) = -0.04779 0.55395
# Poissons Ratio (z) = 0.34942 0.34942
#
# Static dielectric constant tensor:
#      x y z
#    x 1.936140 0.000000 0.000000 
#    y 0.000000 1.936140 0.000000 
#    z 0.000000 0.000000 1.995940 
# 
# From -- ./inp_files/4356.got.cif
#   From: 2010.05.17/outbox.cif.g08.bks.cpg/sg96_3_cif.got.tgz:4356.got - 2010.06.03 19:52:08.
