data_PCOD9550733
_publ_section_title
;
Structure prediction by ZEFSAII (Michael W. Deem and Ramdas Pophale) SiO2 
 PCOD9550733
Probable space group: P 43 21 2
;
_chemical_formula_sum "Si O2"
_cell_formula_units_Z 48
_cell_length_a 14.169549
_cell_length_b 14.169549
_cell_length_c 11.188396
_cell_angle_alpha 90.000000
_cell_angle_beta 90.000000
_cell_angle_gamma 90.000000
_cell_volume 2246.362725
_symmetry_space_group_name_H-M "P 43 21 2"
_symmetry_group_IT_number 96
_symmetry_cell_setting 'tetragonal'
loop_
_space_group_symop_operation_xyz
x,y,z
1/2-y,1/2+x,3/4+z
-x,-y,1/2+z
1/2+y,1/2-x,1/4+z
1/2+x,1/2-y,1/4-z
1/2-x,1/2+y,3/4-z
y,x,-z
-y,-x,1/2-z
loop_
_atom_site_type_symbol
_atom_site_label
_atom_site_fract_x
_atom_site_fract_y
_atom_site_fract_z
Si Si1 0.492347 0.363519 0.289229
Si Si2 0.170450 0.945267 0.614400
Si Si3 0.270891 0.270891 0.000000
Si Si4 0.999414 0.000587 0.250000
Si Si5 0.607429 0.246098 0.698697
Si Si6 0.448109 0.965482 0.236011
Si Si7 0.094547 0.283417 0.824824
O O1 0.593208 0.406793 0.250000
O O2 0.410129 0.378018 0.194690
O O3 0.468363 0.437144 0.392200
O O4 0.512316 0.263384 0.344872
O O5 0.236154 0.872765 0.684344
O O6 0.108997 0.007725 0.707031
O O7 0.216747 0.013956 0.518074
O O8 0.190072 0.270517 0.899284
O O9 0.696606 0.303395 0.750000
O O10 0.607977 0.133474 0.720641
O O11 0.600695 0.263089 0.556424
O O12 0.466944 0.973996 0.379178
O O13 0.387604 0.058031 0.202714
#
# Coordination Sequence:
#
# PCOD9550733 Si02
#       7
#     8   8   4   4   8   8   8
#     4  10  18  34  61  93 128 169 211 272 347 386
#     4  10  22  38  67 100 136 177 228 283 353 420
#     4  11  26  44  66 106 138 187 244 284 348 427
#     4   9  18  36  60  98 134 163 210 278 346 411
#     4  11  24  46  70 103 137 178 234 293 356 436
#     4  10  26  48  68  97 137 189 240 290 352 425
#     4  11  24  43  65  97 142 178 235 289 341 419
#
# _framework density 21.367875999999999
#
# number of rings (size 3 to 8) (size 9 to 14) (size 15 to 20)
#    0.000    1.667    0.833    3.500    7.000    2.667 
#    1.500    0.000    0.000    0.000    0.000    0.000 
#    0.000    0.000    0.000    0.000    0.000    0.000 
#
# Total GULP energy -267569.744240 kJ/mol
# GULP energy per Si atom -5574.369672 kJ/mol
# Density = 2.131924 g / cm^3
# Si number density = 21.367876 Si / 1000 Ang^3
#
#
#
# Elastic Constant Matrix: (Units=GPa)
#
#
# Indices 1 2 3 4 5 6 
#
# 1 176.5947 -87.2014 37.6729 0.0000 0.0000 0.0000
# 2 -87.2014 176.6219 37.7179 0.0000 0.0000 0.0000
# 3 37.6729 37.7179 130.1770 0.0000 0.0000 0.0000
# 4 0.0000 0.0000 0.0000 36.3984 0.0000 0.0000
# 5 0.0000 0.0000 0.0000 0.0000 36.4033 0.0000
# 6 0.0000 0.0000 0.0000 0.0000 0.0000 -0.8729
#
#
#
# Elastic Compliance Matrix: (Units=1/GPa)
#
#
# Indices 1 2 3 4 5 6 
#
# 1 0.009294 0.005504 -0.004284 0.000000 0.000000 0.000000
# 2 0.005504 0.009294 -0.004286 0.000000 0.000000 0.000000
# 3 -0.004284 -0.004286 0.010164 0.000000 0.000000 0.000000
# 4 0.000000 0.000000 0.000000 0.027474 0.000000 0.000000
# 5 0.000000 0.000000 0.000000 0.000000 0.027470 0.000000
# 6 0.000000 0.000000 0.000000 0.000000 0.000000 -1.145635
#
#
# Mechanical properties :
#
#
# Convention : Reuss Voigt Hill
#
# Bulk Modulus (GPa) = 44.20979 51.08582 47.64781
# Shear Modulus (GPa) = -4.76978 47.39937 21.31480
#
# Velocity S-wave (km/s) = -1.49568 4.71494 3.16177
# Velocity P-wave (km/s) = 4.21331 7.32124 5.97296
#
# Compressibility (1/GPa) = 0.02261942
#
# Stress axis : x y z
#
# Youngs Moduli (GPa) = 107.59135 107.59209 98.39091
#
# Poissons Ratio (x) = -0.59216 0.42155
# Poissons Ratio (y) = -0.59216 0.42168
# Poissons Ratio (z) = 0.46097 0.46111
#
# Static dielectric constant tensor:
#      x y z
#    x 1.787610 0.000000 0.000000 
#    y 0.000000 1.787590 0.000000 
#    z 0.000000 0.000000 2.247870 
# 
# From -- ./inp_files/2256.got.cif
#   From: 2010.05.17/outbox.cif.g08.bks.cpg/sg96_2_cif.got.tgz:2256.got - 2010.06.03 19:52:08.
