data_PCOD9550915
_publ_section_title
;
Structure prediction by ZEFSAII (Michael W. Deem and Ramdas Pophale) SiO2 
 PCOD9550915
Probable space group: P 43 21 2
;
_chemical_formula_sum "Si O2"
_cell_formula_units_Z 32
_cell_length_a 11.517022
_cell_length_b 11.517022
_cell_length_c 11.326903
_cell_angle_alpha 90.000000
_cell_angle_beta 90.000000
_cell_angle_gamma 90.000000
_cell_volume 1502.420754
_symmetry_space_group_name_H-M "P 43 21 2"
_symmetry_group_IT_number 96
_symmetry_cell_setting 'tetragonal'
loop_
_space_group_symop_operation_xyz
x,y,z
1/2-y,1/2+x,3/4+z
-x,-y,1/2+z
1/2+y,1/2-x,1/4+z
1/2+x,1/2-y,1/4-z
1/2-x,1/2+y,3/4-z
y,x,-z
-y,-x,1/2-z
loop_
_atom_site_type_symbol
_atom_site_label
_atom_site_fract_x
_atom_site_fract_y
_atom_site_fract_z
Si Si1 0.872122 0.965258 0.814602
Si Si2 0.182048 0.231430 0.135013
Si Si3 0.054023 0.537073 0.868009
Si Si4 0.537719 0.712838 0.309855
O O1 0.817899 0.877680 0.720409
O O2 0.792427 0.002364 0.923380
O O3 0.923237 0.076764 0.750000
O O4 0.979036 0.893792 0.873357
O O5 0.064885 0.309563 0.138693
O O6 0.280648 0.324127 0.172507
O O7 0.197778 0.197778 0.000000
O O8 0.036250 0.507852 0.729922
O O9 0.995742 0.664155 0.887814
#
# Coordination Sequence:
#
# PCOD9550915 Si02
#       4
#     8   8   8   8
#     4  11  22  40  67  95 128 168 219 270 327 395
#     4  10  21  41  63  92 127 167 211 268 332 390
#     4  10  21  42  63  92 128 170 213 264 327 388
#     4   9  21  42  59  92 131 165 206 279 319 385
#
# _framework density 21.298959
#
# number of rings (size 3 to 8) (size 9 to 14) (size 15 to 20)
#    1.500    0.500    2.500    0.750    3.500    2.000 
#    9.000    0.000    0.000    0.000    0.000    0.000 
#    0.000    0.000    0.000    0.000    0.000    0.000 
#
# Total GULP energy -178311.184212 kJ/mol
# GULP energy per Si atom -5572.224507 kJ/mol
# Density = 2.125048 g / cm^3
# Si number density = 21.298959 Si / 1000 Ang^3
#
#
#
# Elastic Constant Matrix: (Units=GPa)
#
#
# Indices 1 2 3 4 5 6 
#
# 1 23.9433 7.0250 39.0795 0.0000 0.0000 0.0000
# 2 7.0250 23.9391 39.0800 0.0000 0.0000 0.0000
# 3 39.0795 39.0800 204.0734 0.0000 0.0000 0.0000
# 4 0.0000 0.0000 0.0000 27.4668 0.0000 0.0000
# 5 0.0000 0.0000 0.0000 0.0000 27.4705 0.0000
# 6 0.0000 0.0000 0.0000 0.0000 0.0000 15.2337
#
#
#
# Elastic Compliance Matrix: (Units=1/GPa)
#
#
# Indices 1 2 3 4 5 6 
#
# 1 0.060802 0.001695 -0.011968 0.000000 0.000000 0.000000
# 2 0.001695 0.060818 -0.011971 0.000000 0.000000 0.000000
# 3 -0.011968 -0.011971 0.009484 0.000000 0.000000 0.000000
# 4 0.000000 0.000000 0.000000 0.036408 0.000000 0.000000
# 5 0.000000 0.000000 0.000000 0.000000 0.036403 0.000000
# 6 0.000000 0.000000 0.000000 0.000000 0.000000 0.065644
#
#
# Mechanical properties :
#
#
# Convention : Reuss Voigt Hill
#
# Bulk Modulus (GPa) = 11.54525 46.92497 29.23511
# Shear Modulus (GPa) = 14.58072 25.15229 19.86651
#
# Velocity S-wave (km/s) = 2.61928 3.44017 3.05740
# Velocity P-wave (km/s) = 3.81835 6.15298 5.12050
#
# Compressibility (1/GPa) = 0.08661568
#
# Stress axis : x y z
#
# Youngs Moduli (GPa) = 16.44695 16.44249 105.43526
#
# Poissons Ratio (x) = -0.02787 1.26184
# Poissons Ratio (y) = -0.02788 1.26219
# Poissons Ratio (z) = 0.19684 0.19684
#
# Static dielectric constant tensor:
#      x y z
#    x 1.799520 0.000000 0.000000 
#    y 0.000000 1.799520 0.000000 
#    z 0.000000 0.000000 1.769150 
# 
# From -- ./inp_files/1106.got.cif
#   From: 2010.05.17/outbox.cif.g08.bks.cpg/sg96_1_cif.got.tgz:1106.got - 2010.06.03 19:52:08.
