data_PCOD9550077
_publ_section_title
;
Structure prediction by ZEFSAII (Michael W. Deem and Ramdas Pophale) SiO2 
 PCOD9550077
Probable space group: P 42 21 2
;
_chemical_formula_sum "Si O2"
_cell_formula_units_Z 40
_cell_length_a 11.851444
_cell_length_b 11.851444
_cell_length_c 14.503996
_cell_angle_alpha 90.000000
_cell_angle_beta 90.000000
_cell_angle_gamma 90.000000
_cell_volume 2037.183776
_symmetry_space_group_name_H-M "P 42 21 2"
_symmetry_group_IT_number 94
_symmetry_cell_setting 'tetragonal'
loop_
_space_group_symop_operation_xyz
x,y,z
1/2-y,1/2+x,1/2+z
-x,-y,z
1/2+y,1/2-x,1/2+z
1/2+x,1/2-y,1/2-z
1/2-x,1/2+y,1/2-z
y,x,-z
-y,-x,-z
loop_
_atom_site_type_symbol
_atom_site_label
_atom_site_fract_x
_atom_site_fract_y
_atom_site_fract_z
Si Si1 0.244389 0.724869 0.648731
Si Si2 0.713387 0.862466 0.652959
Si Si3 0.050242 0.884073 0.396238
Si Si4 0.784392 0.435944 0.495921
Si Si5 0.000000 0.500000 0.879502
Si Si6 0.829527 0.170474 0.000000
O O1 0.263023 0.681725 0.751087
O O2 0.175675 0.842384 0.650975
O O3 0.180470 0.633144 0.586598
O O4 0.355952 0.734343 0.585074
O O5 0.693870 0.755602 0.585677
O O6 0.797472 0.947512 0.602586
O O7 0.603509 0.941379 0.674554
O O8 0.089247 0.910754 0.500000
O O9 0.000000 0.000000 0.354797
O O10 0.701634 0.539835 0.520640
O O11 0.898970 0.470968 0.447591
#
# Coordination Sequence:
#
# PCOD9550077 Si02
#       6
#     8   8   8   8   4   4
#     4  11  23  41  64  98 133 175 220 282 345 413
#     4  11  24  41  68  98 134 174 235 275 341 411
#     4  11  22  42  67  93 133 174 229 285 341 404
#     4  10  22  42  65  92 137 173 220 271 351 397
#     4  10  20  42  66  88 130 178 218 280 322 410
#     4  10  24  41  65  98 132 182 224 282 334 419
#
# _framework density 19.634948999999999
#
# number of rings (size 3 to 8) (size 9 to 14) (size 15 to 20)
#    0.000    1.400    4.000    1.200    2.800    7.200 
#    0.000    0.000    0.000    0.000    0.000    0.000 
#    0.000    0.000    0.000    0.000    0.000    0.000 
#
# Total GULP energy -222778.349888 kJ/mol
# GULP energy per Si atom -5569.458747 kJ/mol
# Density = 1.959026 g / cm^3
# Si number density = 19.634949 Si / 1000 Ang^3
#
#
#
# Elastic Constant Matrix: (Units=GPa)
#
#
# Indices 1 2 3 4 5 6 
#
# 1 99.6923 29.1514 20.9990 0.0000 0.0000 0.0000
# 2 29.1514 99.6920 20.9996 0.0000 0.0000 0.0000
# 3 20.9990 20.9996 86.1359 0.0000 0.0000 0.0000
# 4 0.0000 0.0000 0.0000 18.8127 0.0000 0.0000
# 5 0.0000 0.0000 0.0000 0.0000 18.8129 0.0000
# 6 0.0000 0.0000 0.0000 0.0000 0.0000 33.6592
#
#
#
# Elastic Compliance Matrix: (Units=1/GPa)
#
#
# Indices 1 2 3 4 5 6 
#
# 1 0.011304 -0.002872 -0.002055 0.000000 0.000000 0.000000
# 2 -0.002872 0.011304 -0.002056 0.000000 0.000000 0.000000
# 3 -0.002055 -0.002056 0.012612 0.000000 0.000000 0.000000
# 4 0.000000 0.000000 0.000000 0.053156 0.000000 0.000000
# 5 0.000000 0.000000 0.000000 0.000000 0.053155 0.000000
# 6 0.000000 0.000000 0.000000 0.000000 0.000000 0.029710
#
#
# Mechanical properties :
#
#
# Convention : Reuss Voigt Hill
#
# Bulk Modulus (GPa) = 47.05324 47.53558 47.29441
# Shear Modulus (GPa) = 26.00234 28.54833 27.27534
#
# Velocity S-wave (km/s) = 3.64303 3.81721 3.73114
# Velocity P-wave (km/s) = 6.45845 6.60987 6.53460
#
# Compressibility (1/GPa) = 0.02125252
#
# Stress axis : x y z
#
# Youngs Moduli (GPa) = 88.46623 88.46566 79.29089
#
# Poissons Ratio (x) = 0.25411 0.16298
# Poissons Ratio (y) = 0.25411 0.16299
# Poissons Ratio (z) = 0.18184 0.18185
#
# Static dielectric constant tensor:
#      x y z
#    x 1.676270 0.000000 0.000000 
#    y 0.000000 1.676270 0.000000 
#    z 0.000000 0.000000 1.653990 
# 
# From -- ./inp_files/3464.got.cif
#   From: 2010.05.17/outbox.cif.g08.bks.cpg/sg94_2_cif.got.tgz:3464.got - 2010.06.03 19:43:16.
