data_PCOD9550436
_publ_section_title
;
Structure prediction by ZEFSAII (Michael W. Deem and Ramdas Pophale) SiO2 
 PCOD9550436
Probable space group: P 43 2 2
;
_chemical_formula_sum "Si O2"
_cell_formula_units_Z 36
_cell_length_a 11.140541
_cell_length_b 11.140541
_cell_length_c 12.580011
_cell_angle_alpha 90.000000
_cell_angle_beta 90.000000
_cell_angle_gamma 90.000000
_cell_volume 1561.325970
_symmetry_space_group_name_H-M "P 43 2 2"
_symmetry_group_IT_number 95
_symmetry_cell_setting 'tetragonal'
loop_
_space_group_symop_operation_xyz
x,y,z
-y,x,3/4+z
-x,-y,1/2+z
y,-x,1/4+z
x,-y,1/2-z
-x,y,-z
y,x,1/4-z
-y,-x,3/4-z
loop_
_atom_site_type_symbol
_atom_site_label
_atom_site_fract_x
_atom_site_fract_y
_atom_site_fract_z
Si Si1 0.282823 0.282823 0.625000
Si Si2 0.135974 0.770143 0.490408
Si Si3 0.536371 0.928918 0.389092
Si Si4 0.800629 0.893886 0.314384
Si Si5 0.463006 0.813111 0.173781
O O1 0.229342 0.212992 0.729135
O O2 0.426956 0.261650 0.625144
O O3 0.186729 0.813272 0.375000
O O4 0.127033 0.871010 0.579220
O O5 0.222885 0.675008 0.554730
O O6 0.000000 0.718919 0.500000
O O7 0.500000 0.873111 0.500000
O O8 0.675344 0.945643 0.362800
O O9 0.495635 0.843483 0.295291
O O10 0.473213 0.058632 0.385053
O O11 0.859669 0.000000 0.250000
#
# Coordination Sequence:
#
# PCOD9550436 Si02
#       5
#     4   8   8   8   8
#     4  10  22  40  72 110 134 182 244 304 360 434
#     4  12  28  45  68 107 149 200 249 307 384 457
#     4  10  18  37  69  95 130 174 236 293 340 433
#     4  11  24  41  66 105 141 183 235 304 371 435
#     4  10  21  40  66 105 131 182 244 291 360 436
#
# _framework density 23.057324999999999
#
# number of rings (size 3 to 8) (size 9 to 14) (size 15 to 20)
#    0.000    1.333    6.667    1.333    6.222    0.889 
#    0.000    0.000    0.000    0.000   54.889    0.000 
#    0.000    0.000    0.000    0.000    0.000    0.000 
#
# Total GULP energy -200411.857161 kJ/mol
# GULP energy per Si atom -5566.996032 kJ/mol
# Density = 2.300485 g / cm^3
# Si number density = 23.057325 Si / 1000 Ang^3
#
#
#
# Elastic Constant Matrix: (Units=GPa)
#
#
# Indices 1 2 3 4 5 6 
#
# 1 63.4478 32.5863 41.4914 0.0000 0.0000 0.0000
# 2 32.5863 63.4483 41.4913 0.0000 0.0000 0.0000
# 3 41.4914 41.4913 169.0736 0.0000 0.0000 0.0000
# 4 0.0000 0.0000 0.0000 238.8010 0.0000 0.0000
# 5 0.0000 0.0000 0.0000 0.0000 238.9742 0.0000
# 6 0.0000 0.0000 0.0000 0.0000 0.0000 23.0978
#
#
#
# Elastic Compliance Matrix: (Units=1/GPa)
#
#
# Indices 1 2 3 4 5 6 
#
# 1 0.022809 -0.009594 -0.003243 0.000000 0.000000 0.000000
# 2 -0.009594 0.022809 -0.003243 0.000000 0.000000 0.000000
# 3 -0.003243 -0.003243 0.007506 0.000000 0.000000 0.000000
# 4 0.000000 0.000000 0.000000 0.004188 0.000000 0.000000
# 5 0.000000 0.000000 0.000000 0.000000 0.004185 0.000000
# 6 0.000000 0.000000 0.000000 0.000000 0.000000 0.043294
#
#
# Mechanical properties :
#
#
# Convention : Reuss Voigt Hill
#
# Bulk Modulus (GPa) = 47.69965 58.56754 53.13360
# Shear Modulus (GPa) = 34.73711 112.20131 73.46921
#
# Velocity S-wave (km/s) = 3.88565 6.98338 5.65092
# Velocity P-wave (km/s) = 6.39244 9.51206 8.10379
#
# Compressibility (1/GPa) = 0.02096451
#
# Stress axis : x y z
#
# Youngs Moduli (GPa) = 43.84226 43.84272 133.22121
#
# Poissons Ratio (x) = 0.42061 0.43205
# Poissons Ratio (y) = 0.42061 0.43204
# Poissons Ratio (z) = 0.14219 0.14218
#
# Static dielectric constant tensor:
#      x y z
#    x 1.715660 0.000000 0.000000 
#    y 0.000000 1.715400 0.000000 
#    z 0.000000 0.000000 1.986610 
# 
# From -- ./inp_files/3575.got.cif
#   From: 2010.05.17/outbox.cif.g08.bks.cpg/sg95_2_cif.got.tgz:3575.got - 2010.06.03 19:46:49.
