data_PCOD9550035
_publ_section_title
;
Structure prediction by ZEFSAII (Michael W. Deem and Ramdas Pophale) SiO2 
 PCOD9550035
Probable space group: P 42 21 2
;
_chemical_formula_sum "Si O2"
_cell_formula_units_Z 38
_cell_length_a 19.508293
_cell_length_b 19.508293
_cell_length_c 5.348009
_cell_angle_alpha 90.000000
_cell_angle_beta 90.000000
_cell_angle_gamma 90.000000
_cell_volume 2035.310481
_symmetry_space_group_name_H-M "P 42 21 2"
_symmetry_group_IT_number 94
_symmetry_cell_setting 'tetragonal'
loop_
_space_group_symop_operation_xyz
x,y,z
1/2-y,1/2+x,1/2+z
-x,-y,z
1/2+y,1/2-x,1/2+z
1/2+x,1/2-y,1/2-z
1/2-x,1/2+y,1/2-z
y,x,-z
-y,-x,-z
loop_
_atom_site_type_symbol
_atom_site_label
_atom_site_fract_x
_atom_site_fract_y
_atom_site_fract_z
Si Si1 0.059022 0.218536 0.325473
Si Si2 0.480549 0.649383 0.667153
Si Si3 0.418641 0.264468 0.375684
Si Si4 0.500000 0.500000 0.500000
Si Si5 0.313873 0.313873 0.000000
Si Si6 0.300620 0.195816 0.629767
O O1 0.054060 0.175294 0.579997
O O2 0.120864 0.271489 0.330730
O O3 0.985517 0.255133 0.282948
O O4 0.062907 0.169020 0.082727
O O5 0.548941 0.694496 0.610529
O O6 0.498363 0.569514 0.661352
O O7 0.372187 0.315360 0.209632
O O8 0.368543 0.204404 0.462685
O O9 0.238488 0.317701 0.121808
O O10 0.240608 0.240608 0.500000
#
# Coordination Sequence:
#
# PCOD9550035 Si02
#       6
#     8   8   8   2   4   8
#     4  10  24  40  61  90 129 157 213 264 312 366
#     4  10  26  40  60  90 128 171 209 259 300 380
#     4   9  22  37  63  87 127 158 212 257 317 376
#     4  12  28  40  64  82 128 186 214 242 316 366
#     4  10  20  37  62  95 116 167 219 254 320 374
#     4  10  22  36  64  90 122 170 209 268 315 375
#
# _framework density 18.670369000000001
#
# number of rings (size 3 to 8) (size 9 to 14) (size 15 to 20)
#    1.263    0.842    0.000    1.263   16.211    1.684 
#    0.000    0.000    0.000    0.000    0.000   20.632 
#    0.000    0.000    0.000    0.000    0.000    0.000 
#
# Total GULP energy -211868.734160 kJ/mol
# GULP energy per Si atom -5575.493004 kJ/mol
# Density = 1.862787 g / cm^3
# Si number density = 18.670369 Si / 1000 Ang^3
#
#
#
# Elastic Constant Matrix: (Units=GPa)
#
#
# Indices 1 2 3 4 5 6 
#
# 1 100.6947 59.5821 31.6836 0.0000 0.0000 0.0000
# 2 59.5821 100.6947 31.6836 0.0000 0.0000 0.0000
# 3 31.6836 31.6836 108.8354 0.0000 0.0000 0.0000
# 4 0.0000 0.0000 0.0000 13.3252 0.0000 0.0000
# 5 0.0000 0.0000 0.0000 0.0000 13.3252 0.0000
# 6 0.0000 0.0000 0.0000 0.0000 0.0000 24.7528
#
#
#
# Elastic Compliance Matrix: (Units=1/GPa)
#
#
# Indices 1 2 3 4 5 6 
#
# 1 0.015687 -0.008636 -0.002053 0.000000 0.000000 0.000000
# 2 -0.008636 0.015687 -0.002053 0.000000 0.000000 0.000000
# 3 -0.002053 -0.002053 0.010383 0.000000 0.000000 0.000000
# 4 0.000000 0.000000 0.000000 0.075046 0.000000 0.000000
# 5 0.000000 0.000000 0.000000 0.000000 0.075046 0.000000
# 6 0.000000 0.000000 0.000000 0.000000 0.000000 0.040399
#
#
# Mechanical properties :
#
#
# Convention : Reuss Voigt Hill
#
# Bulk Modulus (GPa) = 61.44617 61.79149 61.61883
# Shear Modulus (GPa) = 19.00009 22.76565 20.88287
#
# Velocity S-wave (km/s) = 3.19354 3.49570 3.34803
# Velocity P-wave (km/s) = 6.82501 7.03286 6.92971
#
# Compressibility (1/GPa) = 0.01627441
#
# Stress axis : x y z
#
# Youngs Moduli (GPa) = 63.74672 63.74672 96.30897
#
# Poissons Ratio (x) = 0.55054 0.19768
# Poissons Ratio (y) = 0.55054 0.19768
# Poissons Ratio (z) = 0.13084 0.13084
#
# Static dielectric constant tensor:
#      x y z
#    x 1.640260 0.000000 0.000000 
#    y 0.000000 1.640260 0.000000 
#    z 0.000000 0.000000 1.721390 
# 
# From -- ./inp_files/360.got.cif
#   From: 2010.05.17/outbox.cif.g08.bks.cpg/sg94_1_cif.got.tgz:360.got - 2010.06.03 19:43:16.
