data_PCOD9550332
_publ_section_title
;
Structure prediction by ZEFSAII (Michael W. Deem and Ramdas Pophale) SiO2 
 PCOD9550332
Probable space group: P 42 21 2
;
_chemical_formula_sum "Si O2"
_cell_formula_units_Z 16
_cell_length_a 9.520723
_cell_length_b 9.520723
_cell_length_c 6.972964
_cell_angle_alpha 90.000000
_cell_angle_beta 90.000000
_cell_angle_gamma 90.000000
_cell_volume 632.058509
_symmetry_space_group_name_H-M "P 42 21 2"
_symmetry_group_IT_number 94
_symmetry_cell_setting 'tetragonal'
loop_
_space_group_symop_operation_xyz
x,y,z
1/2-y,1/2+x,1/2+z
-x,-y,z
1/2+y,1/2-x,1/2+z
1/2+x,1/2-y,1/2-z
1/2-x,1/2+y,1/2-z
y,x,-z
-y,-x,-z
loop_
_atom_site_type_symbol
_atom_site_label
_atom_site_fract_x
_atom_site_fract_y
_atom_site_fract_z
Si Si1 0.002941 0.668713 0.963463
Si Si2 0.798622 0.159396 0.701522
O O1 0.121260 0.717057 0.812043
O O2 0.000000 0.500000 0.003437
O O3 0.856761 0.702082 0.864194
O O4 0.037281 0.765487 0.146794
O O5 0.874516 0.125485 0.500000
#
# Coordination Sequence:
#
# PCOD9550332 Si02
#       2
#     8   8
#     4  11  24  44  72 109 152 199 252 314 383 454
#     4  11  23  42  74 110 152 201 251 311 379 449
#
# _framework density 25.314108999999998
#
# number of rings (size 3 to 8) (size 9 to 14) (size 15 to 20)
#    0.000    1.000    0.000    7.500    0.000    6.000 
#    0.000   17.500    0.000   30.000    0.000    0.000 
#    0.000    0.000    0.000    0.000    0.000    0.000 
#
# Total GULP energy -89517.707038 kJ/mol
# GULP energy per Si atom -5594.856690 kJ/mol
# Density = 2.525649 g / cm^3
# Si number density = 25.314109 Si / 1000 Ang^3
#
#
#
# Elastic Constant Matrix: (Units=GPa)
#
#
# Indices 1 2 3 4 5 6 
#
# 1 64.0528 51.3576 12.6843 0.0000 0.0000 0.0000
# 2 51.3576 64.0543 12.6847 0.0000 0.0000 0.0000
# 3 12.6843 12.6847 158.1268 0.0000 0.0000 0.0000
# 4 0.0000 0.0000 0.0000 56.0362 0.0000 0.0000
# 5 0.0000 0.0000 0.0000 0.0000 56.0361 0.0000
# 6 0.0000 0.0000 0.0000 0.0000 0.0000 51.7522
#
#
#
# Elastic Compliance Matrix: (Units=1/GPa)
#
#
# Indices 1 2 3 4 5 6 
#
# 1 0.043793 -0.034972 -0.000707 0.000000 0.000000 0.000000
# 2 -0.034972 0.043792 -0.000708 0.000000 0.000000 0.000000
# 3 -0.000707 -0.000708 0.006438 0.000000 0.000000 0.000000
# 4 0.000000 0.000000 0.000000 0.017846 0.000000 0.000000
# 5 0.000000 0.000000 0.000000 0.000000 0.017846 0.000000
# 6 0.000000 0.000000 0.000000 0.000000 0.000000 0.019323
#
#
# Mechanical properties :
#
#
# Convention : Reuss Voigt Hill
#
# Bulk Modulus (GPa) = 47.06365 48.85412 47.95888
# Shear Modulus (GPa) = 21.84414 46.73205 34.28810
#
# Velocity S-wave (km/s) = 2.94074 4.30127 3.68435
# Velocity P-wave (km/s) = 5.49207 6.63393 6.08982
#
# Compressibility (1/GPa) = 0.02124782
#
# Stress axis : x y z
#
# Youngs Moduli (GPa) = 22.83466 22.83518 155.33859
#
# Poissons Ratio (x) = 0.79860 0.10989
# Poissons Ratio (y) = 0.79858 0.10992
# Poissons Ratio (z) = 0.01615 0.01616
#
# Static dielectric constant tensor:
#      x y z
#    x 1.988620 0.000000 0.000000 
#    y 0.000000 1.988620 0.000000 
#    z 0.000000 0.000000 2.171340 
# 
# From -- ./inp_files/30.got.cif
#   From: 2010.05.17/outbox.cif.g08.bks.cpg/sg94_1_cif.got.tgz:30.got - 2010.06.03 19:43:16.
