data_PCOD9550926
_publ_section_title
;
Structure prediction by ZEFSAII (Michael W. Deem and Ramdas Pophale) SiO2 
 PCOD9550926
Probable space group: P 43 21 2
;
_chemical_formula_sum "Si O2"
_cell_formula_units_Z 60
_cell_length_a 12.359979
_cell_length_b 12.359979
_cell_length_c 18.553016
_cell_angle_alpha 90.000000
_cell_angle_beta 90.000000
_cell_angle_gamma 90.000000
_cell_volume 2834.327202
_symmetry_space_group_name_H-M "P 43 21 2"
_symmetry_group_IT_number 96
_symmetry_cell_setting 'tetragonal'
loop_
_space_group_symop_operation_xyz
x,y,z
1/2-y,1/2+x,3/4+z
-x,-y,1/2+z
1/2+y,1/2-x,1/4+z
1/2+x,1/2-y,1/4-z
1/2-x,1/2+y,3/4-z
y,x,-z
-y,-x,1/2-z
loop_
_atom_site_type_symbol
_atom_site_label
_atom_site_fract_x
_atom_site_fract_y
_atom_site_fract_z
Si Si1 0.520813 0.302453 0.772302
Si Si2 0.641720 0.095015 0.787593
Si Si3 0.131460 0.412040 0.636313
Si Si4 0.833755 0.135988 0.890769
Si Si5 0.846158 0.846158 0.500000
Si Si6 0.358055 0.785066 0.889309
Si Si7 0.951536 0.922413 0.311516
Si Si8 0.164251 0.939930 0.916160
O O1 0.624539 0.375462 0.750000
O O2 0.560145 0.191897 0.808691
O O3 0.442885 0.287572 0.702421
O O4 0.444160 0.370498 0.824539
O O5 0.631552 0.100919 0.700960
O O6 0.758560 0.124885 0.820336
O O7 0.615656 0.978086 0.821613
O O8 0.237550 0.344800 0.660752
O O9 0.152197 0.539579 0.642854
O O10 0.954766 0.096910 0.871211
O O11 0.781881 0.813355 0.571167
O O12 0.971440 0.830781 0.520764
O O13 0.403183 0.698197 0.947844
O O14 0.268162 0.865380 0.917148
O O15 0.854443 0.993859 0.342880
O O16 0.013501 0.986500 0.250000
#
# Coordination Sequence:
#
# PCOD9550926 Si02
#       8
#     8   8   8   8   4   8   8   8
#     4  12  23  45  71 104 139 188 241 293 357 434
#     4  12  26  44  69 108 144 178 234 302 364 422
#     4  11  25  45  69 103 143 185 233 298 362 436
#     4  11  22  45  73  98 139 189 234 294 365 434
#     4  10  22  46  68  98 134 186 234 282 360 430
#     4  10  24  41  70  96 132 184 232 295 352 421
#     4  10  21  42  67 101 134 181 244 291 351 438
#     4  11  22  42  71  96 137 188 238 282 359 432
#
# _framework density 21.169042999999999
#
# number of rings (size 3 to 8) (size 9 to 14) (size 15 to 20)
#    0.000    1.067    3.333    4.400    4.667    2.133 
#    2.400    0.000    0.000    0.000    0.000    0.000 
#    0.000    0.000    0.000    0.000    0.000    0.000 
#
# Total GULP energy -335172.527212 kJ/mol
# GULP energy per Si atom -5586.208787 kJ/mol
# Density = 2.112086 g / cm^3
# Si number density = 21.169043 Si / 1000 Ang^3
#
#
#
# Elastic Constant Matrix: (Units=GPa)
#
#
# Indices 1 2 3 4 5 6 
#
# 1 124.9320 61.8144 45.7541 0.0000 0.0000 0.0000
# 2 61.8144 124.9324 45.7540 0.0000 0.0000 0.0000
# 3 45.7541 45.7540 74.0461 0.0000 0.0000 0.0000
# 4 0.0000 0.0000 0.0000 30.5019 0.0000 0.0000
# 5 0.0000 0.0000 0.0000 0.0000 30.5014 0.0000
# 6 0.0000 0.0000 0.0000 0.0000 0.0000 47.0333
#
#
#
# Elastic Compliance Matrix: (Units=1/GPa)
#
#
# Indices 1 2 3 4 5 6 
#
# 1 0.011762 -0.004082 -0.004746 0.000000 0.000000 0.000000
# 2 -0.004082 0.011762 -0.004746 0.000000 0.000000 0.000000
# 3 -0.004746 -0.004746 0.019370 0.000000 0.000000 0.000000
# 4 0.000000 0.000000 0.000000 0.032785 0.000000 0.000000
# 5 0.000000 0.000000 0.000000 0.000000 0.032785 0.000000
# 6 0.000000 0.000000 0.000000 0.000000 0.000000 0.021262
#
#
# Mechanical properties :
#
#
# Convention : Reuss Voigt Hill
#
# Bulk Modulus (GPa) = 63.50168 70.06170 66.78169
# Shear Modulus (GPa) = 30.84118 32.97986 31.91052
#
# Velocity S-wave (km/s) = 3.82108 3.95134 3.88676
# Velocity P-wave (km/s) = 7.03776 7.34749 7.19429
#
# Compressibility (1/GPa) = 0.01574761
#
# Stress axis : x y z
#
# Youngs Moduli (GPa) = 85.02036 85.02076 51.62612
#
# Poissons Ratio (x) = 0.34701 0.24501
# Poissons Ratio (y) = 0.34701 0.24500
# Poissons Ratio (z) = 0.40349 0.40349
#
# Static dielectric constant tensor:
#      x y z
#    x 1.769110 0.000000 0.000000 
#    y 0.000000 1.769110 0.000000 
#    z 0.000000 0.000000 1.831560 
# 
# From -- ./inp_files/3631.got.cif
#   From: 2010.05.17/outbox.cif.g08.bks.cpg/sg96_2_cif.got.tgz:3631.got - 2010.06.03 19:52:08.
