data_PCOD9550525
_publ_section_title
;
Structure prediction by ZEFSAII (Michael W. Deem and Ramdas Pophale) SiO2 
 PCOD9550525
Probable space group: P 43 2 2
;
_chemical_formula_sum "Si O2"
_cell_formula_units_Z 40
_cell_length_a 11.084627
_cell_length_b 11.084627
_cell_length_c 16.348200
_cell_angle_alpha 90.000000
_cell_angle_beta 90.000000
_cell_angle_gamma 90.000000
_cell_volume 2008.686262
_symmetry_space_group_name_H-M "P 43 2 2"
_symmetry_group_IT_number 95
_symmetry_cell_setting 'tetragonal'
loop_
_space_group_symop_operation_xyz
x,y,z
-y,x,3/4+z
-x,-y,1/2+z
y,-x,1/4+z
x,-y,1/2-z
-x,y,-z
y,x,1/4-z
-y,-x,3/4-z
loop_
_atom_site_type_symbol
_atom_site_label
_atom_site_fract_x
_atom_site_fract_y
_atom_site_fract_z
Si Si1 0.359847 0.831364 0.516932
Si Si2 0.371671 0.922649 0.044355
Si Si3 0.125444 0.327435 0.982254
Si Si4 0.416370 0.120342 0.798953
Si Si5 0.639520 0.678094 0.030603
O O1 0.500000 0.792364 0.500000
O O2 0.254867 0.733896 0.507170
O O3 0.363800 0.877634 0.610524
O O4 0.317939 0.945101 0.462651
O O5 0.373836 0.877949 0.137660
O O6 0.500000 0.941270 0.000000
O O7 0.320183 0.815289 0.989296
O O8 0.113227 0.439232 0.044096
O O9 0.000000 0.255303 0.000000
O O10 0.393854 0.252944 0.762154
O O11 0.373494 0.000000 0.750000
O O12 0.645093 0.645093 0.125000
O O13 0.500000 0.663695 0.000000
#
# Coordination Sequence:
#
# PCOD9550525 Si02
#       5
#     8   8   8   8   8
#     4  11  23  40  65  95 123 164 215 263 310 383
#     4  10  20  40  64  89 123 167 213 253 320 384
#     4  11  23  41  64  92 129 170 205 260 327 382
#     4  11  22  40  63  91 122 166 217 252 311 386
#     4  11  22  39  64  92 128 165 205 264 324 376
#
# _framework density 19.913511
#
# number of rings (size 3 to 8) (size 9 to 14) (size 15 to 20)
#    0.000    1.200    2.000    8.400    0.000    4.000 
#    0.000    1.000    4.400    0.000    0.000    0.000 
#    0.000    0.000    0.000    0.000    0.000    0.000 
#
# Total GULP energy -222759.882311 kJ/mol
# GULP energy per Si atom -5568.997058 kJ/mol
# Density = 1.986819 g / cm^3
# Si number density = 19.913511 Si / 1000 Ang^3
#
#
#
# Elastic Constant Matrix: (Units=GPa)
#
#
# Indices 1 2 3 4 5 6 
#
# 1 94.8110 41.3656 10.2724 0.0000 0.0000 0.0000
# 2 41.3656 94.8110 10.2724 0.0000 0.0000 0.0000
# 3 10.2724 10.2724 72.9747 0.0000 0.0000 0.0000
# 4 0.0000 0.0000 0.0000 25.1334 0.0000 0.0000
# 5 0.0000 0.0000 0.0000 0.0000 25.1334 0.0000
# 6 0.0000 0.0000 0.0000 0.0000 0.0000 -90.3567
#
#
#
# Elastic Compliance Matrix: (Units=1/GPa)
#
#
# Indices 1 2 3 4 5 6 
#
# 1 0.013107 -0.005604 -0.001056 0.000000 0.000000 0.000000
# 2 -0.005604 0.013107 -0.001056 0.000000 0.000000 0.000000
# 3 -0.001056 -0.001056 0.014001 0.000000 0.000000 0.000000
# 4 0.000000 0.000000 0.000000 0.039788 0.000000 0.000000
# 5 0.000000 0.000000 0.000000 0.000000 0.039788 0.000000
# 6 0.000000 0.000000 0.000000 0.000000 0.000000 -0.011067
#
#
# Mechanical properties :
#
#
# Convention : Reuss Voigt Hill
#
# Bulk Modulus (GPa) = 40.35239 42.93525 41.64382
# Shear Modulus (GPa) = 37.76003 5.36112 21.56058
#
# Velocity S-wave (km/s) = 4.35926 1.64257 3.29403
# Velocity P-wave (km/s) = 6.75614 5.02047 5.95191
#
# Compressibility (1/GPa) = 0.02478168
#
# Stress axis : x y z
#
# Youngs Moduli (GPa) = 76.29682 76.29682 71.42488
#
# Poissons Ratio (x) = 0.42756 0.07543
# Poissons Ratio (y) = 0.42756 0.07543
# Poissons Ratio (z) = 0.08058 0.08058
#
# Static dielectric constant tensor:
#      x y z
#    x 1.815180 0.000000 0.000000 
#    y 0.000000 1.815180 0.000000 
#    z 0.000000 0.000000 1.723350 
# 
# From -- ./inp_files/4768.got.cif
#   From: 2010.05.17/outbox.cif.g08.bks.cpg/sg95_3_cif.got.tgz:4768.got - 2010.06.03 19:46:49.
