data_PCOD9550231
_publ_section_title
;
Structure prediction by ZEFSAII (Michael W. Deem and Ramdas Pophale) SiO2 
 PCOD9550231
Probable space group: P 42 21 2
;
_chemical_formula_sum "Si O2"
_cell_formula_units_Z 40
_cell_length_a 8.858411
_cell_length_b 8.858411
_cell_length_c 24.077089
_cell_angle_alpha 90.000000
_cell_angle_beta 90.000000
_cell_angle_gamma 90.000000
_cell_volume 1889.363976
_symmetry_space_group_name_H-M "P 42 21 2"
_symmetry_group_IT_number 94
_symmetry_cell_setting 'tetragonal'
loop_
_space_group_symop_operation_xyz
x,y,z
1/2-y,1/2+x,1/2+z
-x,-y,z
1/2+y,1/2-x,1/2+z
1/2+x,1/2-y,1/2-z
1/2-x,1/2+y,1/2-z
y,x,-z
-y,-x,-z
loop_
_atom_site_type_symbol
_atom_site_label
_atom_site_fract_x
_atom_site_fract_y
_atom_site_fract_z
Si Si1 0.892878 0.138989 0.649651
Si Si2 0.182576 0.303895 0.678435
Si Si3 0.969080 0.674595 0.265040
Si Si4 0.175184 0.831428 0.062882
Si Si5 0.690329 0.318325 0.437124
O O1 0.778172 0.065266 0.693061
O O2 0.794780 0.227016 0.604194
O O3 0.009016 0.253384 0.679313
O O4 0.000000 0.000000 0.628882
O O5 0.204432 0.471264 0.702595
O O6 0.236709 0.274892 0.615878
O O7 0.275770 0.198361 0.720055
O O8 0.000000 0.500000 0.277240
O O9 0.992468 0.820072 0.065360
O O10 0.228759 0.004393 0.071118
O O11 0.217484 0.782517 0.000000
O O12 0.727724 0.272277 0.500000
#
# Coordination Sequence:
#
# PCOD9550231 Si02
#       5
#     8   8   8   8   8
#     4  10  23  41  60  94 132 167 217 269 334 390
#     4  11  24  41  65  97 132 167 218 271 328 395
#     4  11  24  42  63  91 130 172 217 264 324 391
#     4   9  20  40  67  93 123 169 222 272 322 394
#     4   9  19  39  65  92 122 168 220 263 322 394
#
# _framework density 21.171146
#
# number of rings (size 3 to 8) (size 9 to 14) (size 15 to 20)
#    0.000    2.000    0.000    3.600    5.600    0.400 
#   14.400    0.000    0.000    0.000    0.000    0.000 
#    0.000    0.000    0.000    0.000    0.000    0.000 
#
# Total GULP energy -223330.475444 kJ/mol
# GULP energy per Si atom -5583.261886 kJ/mol
# Density = 2.112296 g / cm^3
# Si number density = 21.171146 Si / 1000 Ang^3
#
#
#
# Elastic Constant Matrix: (Units=GPa)
#
#
# Indices 1 2 3 4 5 6 
#
# 1 86.2175 31.2903 55.5355 0.0000 0.0000 0.0000
# 2 31.2903 86.2179 55.5356 0.0000 0.0000 0.0000
# 3 55.5355 55.5356 108.1565 0.0000 0.0000 0.0000
# 4 0.0000 0.0000 0.0000 32.1568 0.0000 0.0000
# 5 0.0000 0.0000 0.0000 0.0000 32.1565 0.0000
# 6 0.0000 0.0000 0.0000 0.0000 0.0000 40.4867
#
#
#
# Elastic Compliance Matrix: (Units=1/GPa)
#
#
# Indices 1 2 3 4 5 6 
#
# 1 0.017371 -0.000835 -0.008491 0.000000 0.000000 0.000000
# 2 -0.000835 0.017371 -0.008491 0.000000 0.000000 0.000000
# 3 -0.008491 -0.008491 0.017965 0.000000 0.000000 0.000000
# 4 0.000000 0.000000 0.000000 0.031098 0.000000 0.000000
# 5 0.000000 0.000000 0.000000 0.000000 0.031098 0.000000
# 6 0.000000 0.000000 0.000000 0.000000 0.000000 0.024699
#
#
# Mechanical properties :
#
#
# Convention : Reuss Voigt Hill
#
# Bulk Modulus (GPa) = 58.56848 62.81272 60.69060
# Shear Modulus (GPa) = 27.63568 30.17536 28.90552
#
# Velocity S-wave (km/s) = 3.61688 3.77942 3.69904
# Velocity P-wave (km/s) = 6.72062 6.98418 6.85367
#
# Compressibility (1/GPa) = 0.01707403
#
# Stress axis : x y z
#
# Youngs Moduli (GPa) = 57.56814 57.56839 55.66307
#
# Poissons Ratio (x) = 0.04808 0.47261
# Poissons Ratio (y) = 0.04808 0.47261
# Poissons Ratio (z) = 0.48879 0.48879
#
# Static dielectric constant tensor:
#      x y z
#    x 1.782170 0.000000 0.000000 
#    y 0.000000 1.782170 0.000000 
#    z 0.000000 0.000000 1.752960 
# 
# From -- ./inp_files/4932.got.cif
#   From: 2010.05.17/outbox.cif.g08.bks.cpg/sg94_3_cif.got.tgz:4932.got - 2010.06.03 19:43:16.
