data_PCOD9550460
_publ_section_title
;
Structure prediction by ZEFSAII (Michael W. Deem and Ramdas Pophale) SiO2 
 PCOD9550460
Probable space group: P 43 2 2
;
_chemical_formula_sum "Si O2"
_cell_formula_units_Z 48
_cell_length_a 7.914787
_cell_length_b 7.914787
_cell_length_c 30.901879
_cell_angle_alpha 90.000000
_cell_angle_beta 90.000000
_cell_angle_gamma 90.000000
_cell_volume 1935.812773
_symmetry_space_group_name_H-M "P 43 2 2"
_symmetry_group_IT_number 95
_symmetry_cell_setting 'tetragonal'
loop_
_space_group_symop_operation_xyz
x,y,z
-y,x,3/4+z
-x,-y,1/2+z
y,-x,1/4+z
x,-y,1/2-z
-x,y,-z
y,x,1/4-z
-y,-x,3/4-z
loop_
_atom_site_type_symbol
_atom_site_label
_atom_site_fract_x
_atom_site_fract_y
_atom_site_fract_z
Si Si1 0.476809 0.975270 0.146197
Si Si2 0.664961 0.381480 0.445023
Si Si3 0.519336 0.308958 0.792518
Si Si4 0.895340 0.041557 0.660752
Si Si5 0.102070 0.348906 0.187831
Si Si6 0.079521 0.814553 0.763660
O O1 0.574401 0.809174 0.160534
O O2 0.285570 0.902403 0.145296
O O3 0.498454 0.132377 0.180511
O O4 0.485411 0.056711 0.098519
O O5 0.709036 0.466734 0.492243
O O6 0.467981 0.418429 0.436742
O O7 0.702213 0.189561 0.455217
O O8 0.711934 0.374178 0.793704
O O9 0.925009 0.124647 0.706970
O O10 0.882315 0.840204 0.668126
O O11 0.045067 0.045067 0.625000
O O12 0.967015 0.307160 0.224502
O O13 0.155867 0.000000 0.750000
#
# Coordination Sequence:
#
# PCOD9550460 Si02
#       6
#     8   8   8   8   8   8
#     4  10  19  40  66  95 126 179 232 282 345 414
#     4  11  23  38  62  98 133 173 228 280 350 417
#     4  10  21  41  63  92 130 179 230 285 333 411
#     4   8  16  33  61  90 124 169 230 282 332 414
#     4   9  19  38  64  93 125 177 232 277 344 417
#     4  10  19  36  62  98 136 177 224 285 357 421
#
# _framework density 24.795786
#
# number of rings (size 3 to 8) (size 9 to 14) (size 15 to 20)
#    0.000    2.333    0.000    4.000    0.000    2.667 
#   15.000    8.333    0.000    0.000    0.000    0.000 
#    0.000    0.000    0.000    0.000    0.000    0.000 
#
# Total GULP energy -267853.777738 kJ/mol
# GULP energy per Si atom -5580.287036 kJ/mol
# Density = 2.473935 g / cm^3
# Si number density = 24.795786 Si / 1000 Ang^3
#
#
#
# Elastic Constant Matrix: (Units=GPa)
#
#
# Indices 1 2 3 4 5 6 
#
# 1 68.0821 30.8036 12.1497 0.0000 0.0000 0.0000
# 2 30.8036 68.0821 12.1497 0.0000 0.0000 0.0000
# 3 12.1497 12.1497 62.3269 0.0000 0.0000 0.0000
# 4 0.0000 0.0000 0.0000 21.6067 0.0000 0.0000
# 5 0.0000 0.0000 0.0000 0.0000 21.6067 0.0000
# 6 0.0000 0.0000 0.0000 0.0000 0.0000 26.6806
#
#
#
# Elastic Compliance Matrix: (Units=1/GPa)
#
#
# Indices 1 2 3 4 5 6 
#
# 1 0.018723 -0.008102 -0.002071 0.000000 0.000000 0.000000
# 2 -0.008102 0.018723 -0.002071 0.000000 0.000000 0.000000
# 3 -0.002071 -0.002071 0.016852 0.000000 0.000000 0.000000
# 4 0.000000 0.000000 0.000000 0.046282 0.000000 0.000000
# 5 0.000000 0.000000 0.000000 0.000000 0.046282 0.000000
# 6 0.000000 0.000000 0.000000 0.000000 0.000000 0.037480
#
#
# Mechanical properties :
#
#
# Convention : Reuss Voigt Hill
#
# Bulk Modulus (GPa) = 33.54287 34.29970 33.92128
# Shear Modulus (GPa) = 22.85553 23.53803 23.19678
#
# Velocity S-wave (km/s) = 3.03933 3.08437 3.06193
# Velocity P-wave (km/s) = 5.08662 5.15242 5.11962
#
# Compressibility (1/GPa) = 0.02981260
#
# Stress axis : x y z
#
# Youngs Moduli (GPa) = 53.40950 53.40950 59.34134
#
# Poissons Ratio (x) = 0.43271 0.12287
# Poissons Ratio (y) = 0.43271 0.12287
# Poissons Ratio (z) = 0.11058 0.11058
#
# Static dielectric constant tensor:
#      x y z
#    x 1.952070 0.000000 0.000000 
#    y 0.000000 1.952070 0.000000 
#    z 0.000000 0.000000 2.347520 
# 
# From -- ./inp_files/7956.got.cif
#   From: 2010.05.17/outbox.cif.g08.bks.cpg/sg95_4_cif.got.tgz:7956.got - 2010.06.03 19:46:49.
