data_PCOD9550659
_publ_section_title
;
Structure prediction by ZEFSAII (Michael W. Deem and Ramdas Pophale) SiO2 
 PCOD9550659
Probable space group: P 43 2 2
;
_chemical_formula_sum "Si O2"
_cell_formula_units_Z 44
_cell_length_a 8.304568
_cell_length_b 8.304568
_cell_length_c 28.063134
_cell_angle_alpha 90.000000
_cell_angle_beta 90.000000
_cell_angle_gamma 90.000000
_cell_volume 1935.397881
_symmetry_space_group_name_H-M "P 43 2 2"
_symmetry_group_IT_number 95
_symmetry_cell_setting 'tetragonal'
loop_
_space_group_symop_operation_xyz
x,y,z
-y,x,3/4+z
-x,-y,1/2+z
y,-x,1/4+z
x,-y,1/2-z
-x,y,-z
y,x,1/4-z
-y,-x,3/4-z
loop_
_atom_site_type_symbol
_atom_site_label
_atom_site_fract_x
_atom_site_fract_y
_atom_site_fract_z
Si Si1 0.991524 0.991524 0.625000
Si Si2 0.152873 0.144169 0.218558
Si Si3 0.997738 0.355532 0.372640
Si Si4 0.319899 0.861296 0.980982
Si Si5 0.701656 0.558729 0.073559
Si Si6 0.290863 0.549301 0.329171
O O1 0.176970 0.958522 0.640710
O O2 0.881833 0.940678 0.668628
O O3 0.247912 0.309731 0.208093
O O4 0.981089 0.200762 0.241615
O O5 0.225976 0.000000 0.250000
O O6 0.904482 0.308106 0.324497
O O7 0.886379 0.451058 0.409532
O O8 0.134963 0.466266 0.351697
O O9 0.297638 0.670326 0.974018
O O10 0.500000 0.890536 0.000000
O O11 0.622890 0.622890 0.125000
O O12 0.596161 0.403429 0.061669
O O13 0.372475 0.627526 0.375000
#
# Coordination Sequence:
#
# PCOD9550659 Si02
#       6
#     4   8   8   8   8   8
#     4  12  24  42  76 102 136 186 236 306 346 426
#     4  12  24  41  70 107 142 180 240 294 367 427
#     4  11  21  43  72  95 132 184 233 283 363 423
#     4  11  21  42  68  98 130 181 234 283 343 435
#     4   9  21  43  67  97 131 180 239 280 347 435
#     4  11  25  41  68 105 142 184 228 301 363 427
#
# _framework density 22.734345000000001
#
# number of rings (size 3 to 8) (size 9 to 14) (size 15 to 20)
#    0.000    1.091    7.273    0.000    2.545    1.455 
#    3.273    0.000    0.000    0.000    0.000    0.000 
#    0.000    0.000    0.000    0.000    0.000    0.000 
#
# Total GULP energy -245393.843557 kJ/mol
# GULP energy per Si atom -5577.132808 kJ/mol
# Density = 2.268260 g / cm^3
# Si number density = 22.734345 Si / 1000 Ang^3
#
#
#
# Elastic Constant Matrix: (Units=GPa)
#
#
# Indices 1 2 3 4 5 6 
#
# 1 86.0284 44.7633 11.1396 0.0000 0.0000 0.0000
# 2 44.7633 86.0275 11.1399 0.0000 0.0000 0.0000
# 3 11.1396 11.1399 63.0745 0.0000 0.0000 0.0000
# 4 0.0000 0.0000 0.0000 33.1007 0.0000 0.0000
# 5 0.0000 0.0000 0.0000 0.0000 33.1012 0.0000
# 6 0.0000 0.0000 0.0000 0.0000 0.0000 23.2454
#
#
#
# Elastic Compliance Matrix: (Units=1/GPa)
#
#
# Indices 1 2 3 4 5 6 
#
# 1 0.016058 -0.008175 -0.001392 0.000000 0.000000 0.000000
# 2 -0.008175 0.016058 -0.001392 0.000000 0.000000 0.000000
# 3 -0.001392 -0.001392 0.016346 0.000000 0.000000 0.000000
# 4 0.000000 0.000000 0.000000 0.030211 0.000000 0.000000
# 5 0.000000 0.000000 0.000000 0.000000 0.030210 0.000000
# 6 0.000000 0.000000 0.000000 0.000000 0.000000 0.043019
#
#
# Mechanical properties :
#
#
# Convention : Reuss Voigt Hill
#
# Bulk Modulus (GPa) = 37.67473 41.02400 39.34936
# Shear Modulus (GPa) = 27.37165 29.09529 28.23347
#
# Velocity S-wave (km/s) = 3.47360 3.58130 3.52786
# Velocity P-wave (km/s) = 5.71801 5.93170 5.82583
#
# Compressibility (1/GPa) = 0.02654299
#
# Stress axis : x y z
#
# Youngs Moduli (GPa) = 62.27322 62.27249 61.17692
#
# Poissons Ratio (x) = 0.50910 0.08517
# Poissons Ratio (y) = 0.50911 0.08518
# Poissons Ratio (z) = 0.08669 0.08670
#
# Static dielectric constant tensor:
#      x y z
#    x 1.817520 0.000000 0.000000 
#    y 0.000000 1.817520 0.000000 
#    z 0.000000 0.000000 1.826730 
# 
# From -- ./inp_files/7836.got.cif
#   From: 2010.05.17/outbox.cif.g08.bks.cpg/sg95_4_cif.got.tgz:7836.got - 2010.06.03 19:46:49.
