data_PCOD9550289
_publ_section_title
;
Structure prediction by ZEFSAII (Michael W. Deem and Ramdas Pophale) SiO2 
 PCOD9550289
Probable space group: P 42 21 2
;
_chemical_formula_sum "Si O2"
_cell_formula_units_Z 24
_cell_length_a 8.562723
_cell_length_b 8.562723
_cell_length_c 12.898279
_cell_angle_alpha 90.000000
_cell_angle_beta 90.000000
_cell_angle_gamma 90.000000
_cell_volume 945.704721
_symmetry_space_group_name_H-M "P 42 21 2"
_symmetry_group_IT_number 94
_symmetry_cell_setting 'tetragonal'
loop_
_space_group_symop_operation_xyz
x,y,z
1/2-y,1/2+x,1/2+z
-x,-y,z
1/2+y,1/2-x,1/2+z
1/2+x,1/2-y,1/2-z
1/2-x,1/2+y,1/2-z
y,x,-z
-y,-x,-z
loop_
_atom_site_type_symbol
_atom_site_label
_atom_site_fract_x
_atom_site_fract_y
_atom_site_fract_z
Si Si1 0.618275 0.858367 0.556304
Si Si2 0.181394 0.966393 0.731263
Si Si3 0.300699 0.691183 0.386398
O O1 0.753213 0.753213 0.500000
O O2 0.711251 0.948678 0.645948
O O3 0.491088 0.739347 0.604555
O O4 0.500000 0.000000 0.510350
O O5 0.215967 0.023309 0.848134
O O6 0.226173 0.791674 0.704795
O O7 0.000000 0.000000 0.710666
O O8 0.252043 0.747958 0.500000
#
# Coordination Sequence:
#
# PCOD9550289 Si02
#       3
#     8   8   8
#     4  10  25  48  75 113 154 209 261 334 402 487
#     4  11  26  47  73 111 153 200 263 329 394 484
#     4  11  27  47  77 113 152 210 258 329 409 483
#
# _framework density 25.377901999999999
#
# number of rings (size 3 to 8) (size 9 to 14) (size 15 to 20)
#    0.000    1.333    0.000    2.000   18.667    0.000 
#    0.000    0.000    0.000    0.000    0.000    0.000 
#    0.000    0.000    0.000    0.000    0.000    0.000 
#
# Total GULP energy -133833.302852 kJ/mol
# GULP energy per Si atom -5576.387619 kJ/mol
# Density = 2.532014 g / cm^3
# Si number density = 25.377902 Si / 1000 Ang^3
#
#
#
# Elastic Constant Matrix: (Units=GPa)
#
#
# Indices 1 2 3 4 5 6 
#
# 1 111.0291 -0.0680 38.7826 0.0000 0.0000 0.0000
# 2 -0.0680 111.0287 38.7827 0.0000 0.0000 0.0000
# 3 38.7826 38.7827 75.0938 0.0000 0.0000 0.0000
# 4 0.0000 0.0000 0.0000 12.0746 0.0000 0.0000
# 5 0.0000 0.0000 0.0000 0.0000 12.0759 0.0000
# 6 0.0000 0.0000 0.0000 0.0000 0.0000 52.7604
#
#
#
# Elastic Compliance Matrix: (Units=1/GPa)
#
#
# Indices 1 2 3 4 5 6 
#
# 1 0.011553 0.002551 -0.007284 0.000000 0.000000 0.000000
# 2 0.002551 0.011553 -0.007284 0.000000 0.000000 0.000000
# 3 -0.007284 -0.007284 0.020840 0.000000 0.000000 0.000000
# 4 0.000000 0.000000 0.000000 0.082819 0.000000 0.000000
# 5 0.000000 0.000000 0.000000 0.000000 0.082810 0.000000
# 6 0.000000 0.000000 0.000000 0.000000 0.000000 0.018954
#
#
# Mechanical properties :
#
#
# Convention : Reuss Voigt Hill
#
# Bulk Modulus (GPa) = 50.22063 50.23845 50.22954
# Shear Modulus (GPa) = 19.29023 30.02579 24.65801
#
# Velocity S-wave (km/s) = 2.76002 3.44342 3.12048
# Velocity P-wave (km/s) = 5.47622 5.97065 5.72877
#
# Compressibility (1/GPa) = 0.01991214
#
# Stress axis : x y z
#
# Youngs Moduli (GPa) = 86.56099 86.56050 47.98350
#
# Poissons Ratio (x) = -0.22085 0.34952
# Poissons Ratio (y) = -0.22085 0.34952
# Poissons Ratio (z) = 0.63052 0.63052
#
# Static dielectric constant tensor:
#      x y z
#    x 2.156300 0.000000 0.000000 
#    y 0.000000 2.156310 0.000000 
#    z 0.000000 0.000000 1.979200 
# 
# From -- ./inp_files/3053.got.cif
#   From: 2010.05.17/outbox.cif.g08.bks.cpg/sg94_2_cif.got.tgz:3053.got - 2010.06.03 19:43:16.
