data_PCOD9550570
_publ_section_title
;
Structure prediction by ZEFSAII (Michael W. Deem and Ramdas Pophale) SiO2 
 PCOD9550570
Probable space group: P 43 2 2
;
_chemical_formula_sum "Si O2"
_cell_formula_units_Z 36
_cell_length_a 9.122651
_cell_length_b 9.122651
_cell_length_c 22.138736
_cell_angle_alpha 90.000000
_cell_angle_beta 90.000000
_cell_angle_gamma 90.000000
_cell_volume 1842.446741
_symmetry_space_group_name_H-M "P 43 2 2"
_symmetry_group_IT_number 95
_symmetry_cell_setting 'tetragonal'
loop_
_space_group_symop_operation_xyz
x,y,z
-y,x,3/4+z
-x,-y,1/2+z
y,-x,1/4+z
x,-y,1/2-z
-x,y,-z
y,x,1/4-z
-y,-x,3/4-z
loop_
_atom_site_type_symbol
_atom_site_label
_atom_site_fract_x
_atom_site_fract_y
_atom_site_fract_z
Si Si1 0.451093 0.832264 0.273580
Si Si2 0.082866 0.527823 0.150627
Si Si3 0.000000 0.882608 0.000000
Si Si4 0.115258 0.742711 0.259164
Si Si5 0.645150 0.174064 0.328860
O O1 0.507457 0.814655 0.341908
O O2 0.280205 0.798420 0.268852
O O3 0.555887 0.751915 0.225780
O O4 0.469209 0.000000 0.250000
O O5 0.106157 0.670196 0.192422
O O6 0.091629 0.387475 0.193272
O O7 0.924838 0.540035 0.119962
O O8 0.069408 0.773374 0.949647
O O9 0.868008 0.992685 0.981909
O O10 0.715051 0.284950 0.375000
#
# Coordination Sequence:
#
# PCOD9550570 Si02
#       5
#     8   8   4   8   8
#     4  10  21  42  60  91 134 169 206 274 329 388
#     4  10  22  40  61  91 136 164 207 273 325 395
#     4  12  22  38  70 102 120 160 228 282 322 384
#     4  11  23  39  68  99 121 169 223 268 333 383
#     4  11  22  41  64  97 134 171 212 271 341 390
#
# _framework density 19.539235000000001
#
# number of rings (size 3 to 8) (size 9 to 14) (size 15 to 20)
#    0.000    1.333    6.667    0.667    0.000    5.333 
#    0.000    4.444    0.000    0.000    0.000    0.000 
#    0.000    0.000    0.000    0.000    0.000    0.000 
#
# Total GULP energy -200707.393351 kJ/mol
# GULP energy per Si atom -5575.205371 kJ/mol
# Density = 1.949476 g / cm^3
# Si number density = 19.539235 Si / 1000 Ang^3
#
#
#
# Elastic Constant Matrix: (Units=GPa)
#
#
# Indices 1 2 3 4 5 6 
#
# 1 59.6987 25.8636 24.1560 0.0000 0.0000 0.0000
# 2 25.8636 59.6982 24.1560 0.0000 0.0000 0.0000
# 3 24.1560 24.1560 126.2081 0.0000 0.0000 0.0000
# 4 0.0000 0.0000 0.0000 20.0148 0.0000 0.0000
# 5 0.0000 0.0000 0.0000 0.0000 20.0149 0.0000
# 6 0.0000 0.0000 0.0000 0.0000 0.0000 23.1630
#
#
#
# Elastic Compliance Matrix: (Units=1/GPa)
#
#
# Indices 1 2 3 4 5 6 
#
# 1 0.021329 -0.008226 -0.002508 0.000000 0.000000 0.000000
# 2 -0.008226 0.021330 -0.002508 0.000000 0.000000 0.000000
# 3 -0.002508 -0.002508 0.008883 0.000000 0.000000 0.000000
# 4 0.000000 0.000000 0.000000 0.049963 0.000000 0.000000
# 5 0.000000 0.000000 0.000000 0.000000 0.049963 0.000000
# 6 0.000000 0.000000 0.000000 0.000000 0.000000 0.043172
#
#
# Mechanical properties :
#
#
# Convention : Reuss Voigt Hill
#
# Bulk Modulus (GPa) = 39.90646 43.77290 41.83968
# Shear Modulus (GPa) = 21.78868 24.06717 22.92793
#
# Velocity S-wave (km/s) = 3.34297 3.51342 3.42925
# Velocity P-wave (km/s) = 5.94716 6.23779 6.09421
#
# Compressibility (1/GPa) = 0.02505860
#
# Stress axis : x y z
#
# Youngs Moduli (GPa) = 46.88377 46.88336 112.56858
#
# Poissons Ratio (x) = 0.38566 0.28232
# Poissons Ratio (y) = 0.38566 0.28232
# Poissons Ratio (z) = 0.11758 0.11758
#
# Static dielectric constant tensor:
#      x y z
#    x 1.707140 0.000000 0.000000 
#    y 0.000000 1.707140 0.000000 
#    z 0.000000 0.000000 1.750840 
# 
# From -- ./inp_files/6193.got.cif
#   From: 2010.05.17/outbox.cif.g08.bks.cpg/sg95_4_cif.got.tgz:6193.got - 2010.06.03 19:46:49.
