data_PCOD9550134
_publ_section_title
;
Structure prediction by ZEFSAII (Michael W. Deem and Ramdas Pophale) SiO2 
 PCOD9550134
Probable space group: P 42 21 2
;
_chemical_formula_sum "Si O2"
_cell_formula_units_Z 32
_cell_length_a 9.447721
_cell_length_b 9.447721
_cell_length_c 13.564043
_cell_angle_alpha 90.000000
_cell_angle_beta 90.000000
_cell_angle_gamma 90.000000
_cell_volume 1210.718775
_symmetry_space_group_name_H-M "P 42 21 2"
_symmetry_group_IT_number 94
_symmetry_cell_setting 'tetragonal'
loop_
_space_group_symop_operation_xyz
x,y,z
1/2-y,1/2+x,1/2+z
-x,-y,z
1/2+y,1/2-x,1/2+z
1/2+x,1/2-y,1/2-z
1/2-x,1/2+y,1/2-z
y,x,-z
-y,-x,-z
loop_
_atom_site_type_symbol
_atom_site_label
_atom_site_fract_x
_atom_site_fract_y
_atom_site_fract_z
Si Si1 0.500000 0.500000 0.752087
Si Si2 0.810125 0.980934 0.561498
Si Si3 0.494862 0.723358 0.387465
Si Si4 0.299882 0.067776 0.100590
Si Si5 0.000000 0.500000 0.737177
O O1 0.380451 0.546716 0.831413
O O2 0.600553 0.577635 0.671370
O O3 0.902910 0.097091 0.500000
O O4 0.662140 0.060752 0.570547
O O5 0.837785 0.837785 0.500000
O O6 0.512574 0.748538 0.503016
O O7 0.329121 0.675316 0.375275
O O8 0.520752 0.866382 0.331210
O O9 0.360800 0.988119 0.195188
#
# Coordination Sequence:
#
# PCOD9550134 Si02
#       5
#     4   8   8   8   4
#     4  10  21  41  68 100 126 196 234 286 370 440
#     4   9  18  37  69  91 126 175 237 291 356 434
#     4  11  25  43  71  97 146 186 241 306 365 438
#     4  11  24  43  64 105 140 183 240 314 354 439
#     4  12  26  44  70 102 146 196 242 302 386 446
#
# _framework density 26.430581
#
# number of rings (size 3 to 8) (size 9 to 14) (size 15 to 20)
#    0.000    1.750    5.000    0.750    3.500    2.000 
#    0.000    0.000    5.500    0.000    0.000    0.000 
#    0.000    0.000    0.000    0.000    0.000    0.000 
#
# Total GULP energy -178708.845282 kJ/mol
# GULP energy per Si atom -5584.651415 kJ/mol
# Density = 2.637042 g / cm^3
# Si number density = 26.430581 Si / 1000 Ang^3
#
#
#
# Elastic Constant Matrix: (Units=GPa)
#
#
# Indices 1 2 3 4 5 6 
#
# 1 108.6179 16.3888 40.3578 0.0000 0.0000 0.0000
# 2 16.3888 108.6179 40.3577 0.0000 0.0000 0.0000
# 3 40.3578 40.3577 234.9780 0.0000 0.0000 0.0000
# 4 0.0000 0.0000 0.0000 34.1966 0.0000 0.0000
# 5 0.0000 0.0000 0.0000 0.0000 34.1966 0.0000
# 6 0.0000 0.0000 0.0000 0.0000 0.0000 24.2585
#
#
#
# Elastic Compliance Matrix: (Units=1/GPa)
#
#
# Indices 1 2 3 4 5 6 
#
# 1 0.009920 -0.000923 -0.001545 0.000000 0.000000 0.000000
# 2 -0.000923 0.009920 -0.001545 0.000000 0.000000 0.000000
# 3 -0.001545 -0.001545 0.004787 0.000000 0.000000 0.000000
# 4 0.000000 0.000000 0.000000 0.029243 0.000000 0.000000
# 5 0.000000 0.000000 0.000000 0.000000 0.029243 0.000000
# 6 0.000000 0.000000 0.000000 0.000000 0.000000 0.041223
#
#
# Mechanical properties :
#
#
# Convention : Reuss Voigt Hill
#
# Bulk Modulus (GPa) = 60.24088 71.82472 66.03280
# Shear Modulus (GPa) = 36.25971 42.20432 39.23201
#
# Velocity S-wave (km/s) = 3.70791 4.00033 3.85690
# Velocity P-wave (km/s) = 6.41663 6.96927 6.69865
#
# Compressibility (1/GPa) = 0.01660002
#
# Stress axis : x y z
#
# Youngs Moduli (GPa) = 100.80684 100.80680 208.91933
#
# Poissons Ratio (x) = 0.09300 0.32285
# Poissons Ratio (y) = 0.09300 0.32284
# Poissons Ratio (z) = 0.15578 0.15578
#
# Static dielectric constant tensor:
#      x y z
#    x 2.210530 0.000000 0.000000 
#    y 0.000000 2.210530 0.000000 
#    z 0.000000 0.000000 2.027030 
# 
# From -- ./inp_files/2348.got.cif
#   From: 2010.05.17/outbox.cif.g08.bks.cpg/sg94_2_cif.got.tgz:2348.got - 2010.06.03 19:43:16.
