data_PCOD9550108
_publ_section_title
;
Structure prediction by ZEFSAII (Michael W. Deem and Ramdas Pophale) SiO2 
 PCOD9550108
Probable space group: P 42 21 2
;
_chemical_formula_sum "Si O2"
_cell_formula_units_Z 40
_cell_length_a 11.371007
_cell_length_b 11.371007
_cell_length_c 14.178702
_cell_angle_alpha 90.000000
_cell_angle_beta 90.000000
_cell_angle_gamma 90.000000
_cell_volume 1833.303336
_symmetry_space_group_name_H-M "P 42 21 2"
_symmetry_group_IT_number 94
_symmetry_cell_setting 'tetragonal'
loop_
_space_group_symop_operation_xyz
x,y,z
1/2-y,1/2+x,1/2+z
-x,-y,z
1/2+y,1/2-x,1/2+z
1/2+x,1/2-y,1/2-z
1/2-x,1/2+y,1/2-z
y,x,-z
-y,-x,-z
loop_
_atom_site_type_symbol
_atom_site_label
_atom_site_fract_x
_atom_site_fract_y
_atom_site_fract_z
Si Si1 0.095528 0.762163 0.429590
Si Si2 0.125603 0.801763 0.103079
Si Si3 0.087621 0.794387 0.714391
Si Si4 0.647537 0.357902 0.890104
Si Si5 0.885179 0.423185 0.596253
O O1 0.128877 0.871124 0.500000
O O2 0.176676 0.790291 0.340702
O O3 0.122010 0.655550 0.500243
O O4 0.968201 0.765266 0.379529
O O5 0.154255 0.897906 0.182197
O O6 0.232058 0.708716 0.118084
O O7 0.004065 0.729579 0.109996
O O8 0.143004 0.856997 0.000000
O O9 0.082607 0.657200 0.687288
O O10 0.972096 0.854751 0.668899
O O11 0.623628 0.376373 0.000000
O O12 0.000000 0.500000 0.579620
#
# Coordination Sequence:
#
# PCOD9550108 Si02
#       5
#     8   8   8   8   8
#     4  10  21  38  73 104 131 176 238 300 354 425
#     4  11  26  44  65 101 148 193 236 302 380 437
#     4  11  24  40  71 105 138 190 241 302 363 455
#     4  11  19  41  71 103 135 178 251 298 350 435
#     4  11  21  45  67 102 144 176 238 306 369 444
#
# _framework density 21.818539999999999
#
# number of rings (size 3 to 8) (size 9 to 14) (size 15 to 20)
#    0.000    1.200    6.000    1.800    2.800    1.600 
#    0.000    0.000    0.000    0.000    0.000    0.000 
#    0.000    0.000    0.000    0.000    0.000    0.000 
#
# Total GULP energy -222764.289179 kJ/mol
# GULP energy per Si atom -5569.107229 kJ/mol
# Density = 2.176888 g / cm^3
# Si number density = 21.818540 Si / 1000 Ang^3
#
#
#
# Elastic Constant Matrix: (Units=GPa)
#
#
# Indices 1 2 3 4 5 6 
#
# 1 106.8761 -9.4356 27.8186 0.0000 0.0000 0.0000
# 2 -9.4356 106.8871 27.8158 0.0000 0.0000 0.0000
# 3 27.8186 27.8158 131.7976 0.0000 0.0000 0.0000
# 4 0.0000 0.0000 0.0000 17.3098 0.0000 0.0000
# 5 0.0000 0.0000 0.0000 0.0000 17.3102 0.0000
# 6 0.0000 0.0000 0.0000 0.0000 0.0000 19.4964
#
#
#
# Elastic Compliance Matrix: (Units=1/GPa)
#
#
# Indices 1 2 3 4 5 6 
#
# 1 0.010133 0.001535 -0.002463 0.000000 0.000000 0.000000
# 2 0.001535 0.010132 -0.002462 0.000000 0.000000 0.000000
# 3 -0.002463 -0.002462 0.008627 0.000000 0.000000 0.000000
# 4 0.000000 0.000000 0.000000 0.057771 0.000000 0.000000
# 5 0.000000 0.000000 0.000000 0.000000 0.057769 0.000000
# 6 0.000000 0.000000 0.000000 0.000000 0.000000 0.051292
#
#
# Mechanical properties :
#
#
# Convention : Reuss Voigt Hill
#
# Bulk Modulus (GPa) = 45.22338 48.66203 46.94271
# Shear Modulus (GPa) = 23.82377 30.78075 27.30226
#
# Velocity S-wave (km/s) = 3.30798 3.76008 3.54126
# Velocity P-wave (km/s) = 5.94663 6.41891 6.18728
#
# Compressibility (1/GPa) = 0.02211245
#
# Stress axis : x y z
#
# Youngs Moduli (GPa) = 98.68506 98.69692 115.91604
#
# Poissons Ratio (x) = -0.15154 0.28549
# Poissons Ratio (y) = -0.15153 0.28544
# Poissons Ratio (z) = 0.24305 0.24304
#
# Static dielectric constant tensor:
#      x y z
#    x 2.163150 0.000000 0.000000 
#    y 0.000000 2.163120 0.000000 
#    z 0.000000 0.000000 1.876940 
# 
# From -- ./inp_files/3393.got.cif
#   From: 2010.05.17/outbox.cif.g08.bks.cpg/sg94_2_cif.got.tgz:3393.got - 2010.06.03 19:43:16.
