data_PCOD9550990
_publ_section_title
;
Structure prediction by ZEFSAII (Michael W. Deem and Ramdas Pophale) SiO2 
 PCOD9550990
Probable space group: P 43 21 2
;
_chemical_formula_sum "Si O2"
_cell_formula_units_Z 48
_cell_length_a 7.969318
_cell_length_b 7.969318
_cell_length_c 31.383299
_cell_angle_alpha 90.000000
_cell_angle_beta 90.000000
_cell_angle_gamma 90.000000
_cell_volume 1993.154242
_symmetry_space_group_name_H-M "P 43 21 2"
_symmetry_group_IT_number 96
_symmetry_cell_setting 'tetragonal'
loop_
_space_group_symop_operation_xyz
x,y,z
1/2-y,1/2+x,3/4+z
-x,-y,1/2+z
1/2+y,1/2-x,1/4+z
1/2+x,1/2-y,1/4-z
1/2-x,1/2+y,3/4-z
y,x,-z
-y,-x,1/2-z
loop_
_atom_site_type_symbol
_atom_site_label
_atom_site_fract_x
_atom_site_fract_y
_atom_site_fract_z
Si Si1 0.691120 0.056989 0.065684
Si Si2 0.531931 0.168623 0.619742
Si Si3 0.985036 0.014965 0.250000
Si Si4 0.297079 0.078615 0.186697
Si Si5 0.011524 0.011524 0.500000
Si Si6 0.337992 0.337779 0.683976
Si Si7 0.498940 0.885055 0.483509
O O1 0.745316 0.240649 0.081637
O O2 0.628035 0.935921 0.102798
O O3 0.536231 0.090933 0.033415
O O4 0.835466 0.984183 0.034400
O O5 0.459758 0.332114 0.643081
O O6 0.651280 0.201456 0.580117
O O7 0.646105 0.052711 0.650717
O O8 0.981711 0.851236 0.280931
O O9 0.809706 0.030062 0.224456
O O10 0.466801 0.108009 0.214036
O O11 0.012059 0.858166 0.466856
O O12 0.408503 0.181790 0.710846
#
# Coordination Sequence:
#
# PCOD9550990 Si02
#       7
#     8   8   4   8   4   8   8
#     4  10  23  42  64 100 139 180 243 289 362 440
#     4  11  24  42  67 102 145 183 234 305 375 448
#     4  10  22  44  76 102 136 200 242 294 372 432
#     4  10  24  44  67 103 144 189 233 303 366 438
#     4  10  22  44  68  98 132 184 238 296 348 436
#     4  10  23  41  65 100 133 180 236 296 360 435
#     4   9  22  42  65  98 133 175 245 289 342 437
#
# _framework density 24.082431
#
# number of rings (size 3 to 8) (size 9 to 14) (size 15 to 20)
#    0.000    2.000    0.000    1.000    9.333    8.000 
#   15.000    0.000    0.000    0.000    0.000    0.000 
#    0.000    0.000    0.000    0.000    0.000    0.000 
#
# Total GULP energy -267827.661671 kJ/mol
# GULP energy per Si atom -5579.742951 kJ/mol
# Density = 2.402762 g / cm^3
# Si number density = 24.082431 Si / 1000 Ang^3
#
#
#
# Elastic Constant Matrix: (Units=GPa)
#
#
# Indices 1 2 3 4 5 6 
#
# 1 78.6516 8.5190 23.7889 0.0000 0.0000 0.0000
# 2 8.5190 78.6520 23.7890 0.0000 0.0000 0.0000
# 3 23.7889 23.7890 51.7089 0.0000 0.0000 0.0000
# 4 0.0000 0.0000 0.0000 42.4867 0.0000 0.0000
# 5 0.0000 0.0000 0.0000 0.0000 42.4867 0.0000
# 6 0.0000 0.0000 0.0000 0.0000 0.0000 30.9659
#
#
#
# Elastic Compliance Matrix: (Units=1/GPa)
#
#
# Indices 1 2 3 4 5 6 
#
# 1 0.014788 0.000530 -0.007047 0.000000 0.000000 0.000000
# 2 0.000530 0.014788 -0.007047 0.000000 0.000000 0.000000
# 3 -0.007047 -0.007047 0.025823 0.000000 0.000000 0.000000
# 4 0.000000 0.000000 0.000000 0.023537 0.000000 0.000000
# 5 0.000000 0.000000 0.000000 0.000000 0.023537 0.000000
# 6 0.000000 0.000000 0.000000 0.000000 0.000000 0.032294
#
#
# Mechanical properties :
#
#
# Convention : Reuss Voigt Hill
#
# Bulk Modulus (GPa) = 35.37231 35.68960 35.53095
# Shear Modulus (GPa) = 29.18519 33.38224 31.28371
#
# Velocity S-wave (km/s) = 3.48499 3.72716 3.60811
# Velocity P-wave (km/s) = 5.55999 5.77705 5.66956
#
# Compressibility (1/GPa) = 0.02827070
#
# Stress axis : x y z
#
# Youngs Moduli (GPa) = 67.62063 67.62086 38.72494
#
# Poissons Ratio (x) = -0.03582 0.27290
# Poissons Ratio (y) = -0.03582 0.27290
# Poissons Ratio (z) = 0.47653 0.47653
#
# Static dielectric constant tensor:
#      x y z
#    x 1.983570 0.000000 0.000000 
#    y 0.000000 1.983570 0.000000 
#    z 0.000000 0.000000 2.006110 
# 
# From -- ./inp_files/4505.got.cif
#   From: 2010.05.17/outbox.cif.g08.bks.cpg/sg96_3_cif.got.tgz:4505.got - 2010.06.03 19:52:08.
