data_PCOD9550204
_publ_section_title
;
Structure prediction by ZEFSAII (Michael W. Deem and Ramdas Pophale) SiO2 
 PCOD9550204
Probable space group: P 42 21 2
;
_chemical_formula_sum "Si O2"
_cell_formula_units_Z 34
_cell_length_a 11.888304
_cell_length_b 11.888304
_cell_length_c 12.151489
_cell_angle_alpha 90.000000
_cell_angle_beta 90.000000
_cell_angle_gamma 90.000000
_cell_volume 1717.391473
_symmetry_space_group_name_H-M "P 42 21 2"
_symmetry_group_IT_number 94
_symmetry_cell_setting 'tetragonal'
loop_
_space_group_symop_operation_xyz
x,y,z
1/2-y,1/2+x,1/2+z
-x,-y,z
1/2+y,1/2-x,1/2+z
1/2+x,1/2-y,1/2-z
1/2-x,1/2+y,1/2-z
y,x,-z
-y,-x,-z
loop_
_atom_site_type_symbol
_atom_site_label
_atom_site_fract_x
_atom_site_fract_y
_atom_site_fract_z
Si Si1 0.525600 0.174684 0.252596
Si Si2 0.769742 0.934986 0.977739
Si Si3 0.500000 0.500000 0.500000
Si Si4 0.402785 0.594215 0.131756
Si Si5 0.809306 0.467699 0.281595
O O1 0.537714 0.183196 0.384676
O O2 0.559313 0.289868 0.191374
O O3 0.400381 0.133718 0.222435
O O4 0.616198 0.078955 0.227247
O O5 0.885137 0.992386 0.933831
O O6 0.805279 0.805279 0.000000
O O7 0.745010 0.977358 0.098305
O O8 0.500000 0.500000 0.145262
O O9 0.287988 0.552221 0.191479
O O10 0.387324 0.612677 0.000000
#
# Coordination Sequence:
#
# PCOD9550204 Si02
#       5
#     8   8   2   8   8
#     4  11  27  45  71 103 139 180 228 284 344 405
#     4  10  22  43  67  99 134 179 231 282 318 407
#     4   8  20  40  64 100 122 174 230 268 316 390
#     4  11  27  47  70 101 142 183 228 280 345 412
#     4  11  27  45  71 103 139 180 228 284 344 405
#
# _framework density 19.797467999999999
#
# number of rings (size 3 to 8) (size 9 to 14) (size 15 to 20)
#    0.706    0.706    2.353    0.000   16.471    1.882 
#    0.000    0.000    0.000    0.000    0.000    0.000 
#    0.000    0.000    0.000    0.000    0.000    0.000 
#
# Total GULP energy -189419.473394 kJ/mol
# GULP energy per Si atom -5571.160982 kJ/mol
# Density = 1.975241 g / cm^3
# Si number density = 19.797468 Si / 1000 Ang^3
#
#
#
# Elastic Constant Matrix: (Units=GPa)
#
#
# Indices 1 2 3 4 5 6 
#
# 1 99.1165 48.8849 43.1094 0.0000 0.0000 0.0000
# 2 48.8849 99.1164 43.1094 0.0000 0.0000 0.0000
# 3 43.1094 43.1094 144.4075 0.0000 0.0000 0.0000
# 4 0.0000 0.0000 0.0000 29.6110 0.0000 0.0000
# 5 0.0000 0.0000 0.0000 0.0000 29.6109 0.0000
# 6 0.0000 0.0000 0.0000 0.0000 0.0000 23.2268
#
#
#
# Elastic Compliance Matrix: (Units=1/GPa)
#
#
# Indices 1 2 3 4 5 6 
#
# 1 0.014043 -0.005864 -0.002442 0.000000 0.000000 0.000000
# 2 -0.005864 0.014043 -0.002442 0.000000 0.000000 0.000000
# 3 -0.002442 -0.002442 0.008383 0.000000 0.000000 0.000000
# 4 0.000000 0.000000 0.000000 0.033771 0.000000 0.000000
# 5 0.000000 0.000000 0.000000 0.000000 0.033771 0.000000
# 6 0.000000 0.000000 0.000000 0.000000 0.000000 0.043054
#
#
# Mechanical properties :
#
#
# Convention : Reuss Voigt Hill
#
# Bulk Modulus (GPa) = 66.78171 68.09420 67.43796
# Shear Modulus (GPa) = 28.80970 30.32553 29.56761
#
# Velocity S-wave (km/s) = 3.81887 3.91805 3.86878
# Velocity P-wave (km/s) = 7.29731 7.41203 7.35490
#
# Compressibility (1/GPa) = 0.01497416
#
# Stress axis : x y z
#
# Youngs Moduli (GPa) = 71.20763 71.20754 119.29402
#
# Poissons Ratio (x) = 0.41759 0.29128
# Poissons Ratio (y) = 0.41759 0.29128
# Poissons Ratio (z) = 0.17387 0.17387
#
# Static dielectric constant tensor:
#      x y z
#    x 1.665880 0.000000 0.000000 
#    y 0.000000 1.665880 0.000000 
#    z 0.000000 0.000000 1.662300 
# 
# From -- ./inp_files/2420.got.cif
#   From: 2010.05.17/outbox.cif.g08.bks.cpg/sg94_2_cif.got.tgz:2420.got - 2010.06.03 19:43:16.
