data_PCOD9550598
_publ_section_title
;
Structure prediction by ZEFSAII (Michael W. Deem and Ramdas Pophale) SiO2 
 PCOD9550598
Probable space group: P 43 2 2
;
_chemical_formula_sum "Si O2"
_cell_formula_units_Z 36
_cell_length_a 8.889479
_cell_length_b 8.889479
_cell_length_c 18.548192
_cell_angle_alpha 90.000000
_cell_angle_beta 90.000000
_cell_angle_gamma 90.000000
_cell_volume 1465.730751
_symmetry_space_group_name_H-M "P 43 2 2"
_symmetry_group_IT_number 95
_symmetry_cell_setting 'tetragonal'
loop_
_space_group_symop_operation_xyz
x,y,z
-y,x,3/4+z
-x,-y,1/2+z
y,-x,1/4+z
x,-y,1/2-z
-x,y,-z
y,x,1/4-z
-y,-x,3/4-z
loop_
_atom_site_type_symbol
_atom_site_label
_atom_site_fract_x
_atom_site_fract_y
_atom_site_fract_z
Si Si1 0.873519 0.823816 0.246558
Si Si2 0.583326 0.133892 0.805983
Si Si3 0.347829 0.853038 0.468867
Si Si4 0.323631 0.622699 0.683391
Si Si5 0.320238 0.679763 0.875000
O O1 0.801792 0.752715 0.318532
O O2 0.746766 0.779353 0.189486
O O3 0.012728 0.714467 0.231853
O O4 0.905082 0.000000 0.250000
O O5 0.606239 0.086765 0.889505
O O6 0.740811 0.209241 0.784989
O O7 0.473081 0.279006 0.811251
O O8 0.542115 0.000000 0.750000
O O9 0.500000 0.783483 0.500000
O O10 0.311134 0.500000 0.750000
O O11 0.304663 0.501253 0.620768
#
# Coordination Sequence:
#
# PCOD9550598 Si02
#       5
#     8   8   8   8   4
#     4  11  25  42  66  99 134 179 233 292 362 438
#     4  11  25  44  72 105 140 190 248 310 381 453
#     4  11  25  45  68 103 148 192 239 304 379 456
#     4  10  22  41  65  96 131 177 239 295 353 433
#     4  10  22  44  66  92 136 186 234 296 368 448
#
# _framework density 24.561126999999999
#
# number of rings (size 3 to 8) (size 9 to 14) (size 15 to 20)
#    0.000    1.333    0.000    5.333    0.000   17.778 
#    0.000    0.000    0.000    0.000    0.000    0.000 
#    0.000    0.000    0.000    0.000    0.000    0.000 
#
# Total GULP energy -200859.093890 kJ/mol
# GULP energy per Si atom -5579.419275 kJ/mol
# Density = 2.450522 g / cm^3
# Si number density = 24.561127 Si / 1000 Ang^3
#
#
#
# Elastic Constant Matrix: (Units=GPa)
#
#
# Indices 1 2 3 4 5 6 
#
# 1 106.8502 11.2411 28.8939 0.0000 0.0000 0.0000
# 2 11.2411 106.8495 28.8938 0.0000 0.0000 0.0000
# 3 28.8939 28.8938 65.1113 0.0000 0.0000 0.0000
# 4 0.0000 0.0000 0.0000 34.2116 0.0000 0.0000
# 5 0.0000 0.0000 0.0000 0.0000 34.2118 0.0000
# 6 0.0000 0.0000 0.0000 0.0000 0.0000 34.3636
#
#
#
# Elastic Compliance Matrix: (Units=1/GPa)
#
#
# Indices 1 2 3 4 5 6 
#
# 1 0.010638 0.000179 -0.004800 0.000000 0.000000 0.000000
# 2 0.000179 0.010638 -0.004800 0.000000 0.000000 0.000000
# 3 -0.004800 -0.004800 0.019619 0.000000 0.000000 0.000000
# 4 0.000000 0.000000 0.000000 0.029230 0.000000 0.000000
# 5 0.000000 0.000000 0.000000 0.000000 0.029230 0.000000
# 6 0.000000 0.000000 0.000000 0.000000 0.000000 0.029101
#
#
# Mechanical properties :
#
#
# Convention : Reuss Voigt Hill
#
# Bulk Modulus (GPa) = 45.34751 46.31872 45.83311
# Shear Modulus (GPa) = 32.33138 34.54289 33.43713
#
# Velocity S-wave (km/s) = 3.63211 3.75427 3.69370
# Velocity P-wave (km/s) = 6.00773 6.13940 6.07392
#
# Compressibility (1/GPa) = 0.02205193
#
# Stress axis : x y z
#
# Youngs Moduli (GPa) = 94.00157 94.00099 50.97208
#
# Poissons Ratio (x) = -0.01681 0.24467
# Poissons Ratio (y) = -0.01681 0.24467
# Poissons Ratio (z) = 0.45122 0.45122
#
# Static dielectric constant tensor:
#      x y z
#    x 1.972470 0.000000 0.000000 
#    y 0.000000 1.972470 0.000000 
#    z 0.000000 0.000000 2.534190 
# 
# From -- ./inp_files/6256.got.cif
#   From: 2010.05.17/outbox.cif.g08.bks.cpg/sg95_4_cif.got.tgz:6256.got - 2010.06.03 19:46:49.
