data_PCOD9550305
_publ_section_title
;
Structure prediction by ZEFSAII (Michael W. Deem and Ramdas Pophale) SiO2 
 PCOD9550305
Probable space group: P 42 21 2
;
_chemical_formula_sum "Si O2"
_cell_formula_units_Z 36
_cell_length_a 8.690824
_cell_length_b 8.690824
_cell_length_c 21.356204
_cell_angle_alpha 90.000000
_cell_angle_beta 90.000000
_cell_angle_gamma 90.000000
_cell_volume 1613.043096
_symmetry_space_group_name_H-M "P 42 21 2"
_symmetry_group_IT_number 94
_symmetry_cell_setting 'tetragonal'
loop_
_space_group_symop_operation_xyz
x,y,z
1/2-y,1/2+x,1/2+z
-x,-y,z
1/2+y,1/2-x,1/2+z
1/2+x,1/2-y,1/2-z
1/2-x,1/2+y,1/2-z
y,x,-z
-y,-x,-z
loop_
_atom_site_type_symbol
_atom_site_label
_atom_site_fract_x
_atom_site_fract_y
_atom_site_fract_z
Si Si1 0.780234 0.285675 0.180910
Si Si2 0.312609 0.047083 0.187879
Si Si3 0.725682 0.266982 0.435159
Si Si4 0.829913 0.933319 0.562044
Si Si5 0.500000 0.000000 0.393818
O O1 0.775539 0.361569 0.248881
O O2 0.645517 0.297971 0.128289
O O3 0.918684 0.370860 0.147284
O O4 0.786258 0.106677 0.192133
O O5 0.240202 0.139023 0.129166
O O6 0.500000 0.000000 0.183942
O O7 0.660702 0.339299 0.500000
O O8 0.635473 0.104391 0.425195
O O9 0.909484 0.259961 0.449161
O O10 0.825537 0.825537 0.500000
O O11 0.000000 0.000000 0.566980
#
# Coordination Sequence:
#
# PCOD9550305 Si02
#       5
#     8   8   8   8   4
#     4  12  26  47  73 111 152 194 263 311 391 452
#     4  12  28  48  79 111 152 208 256 318 388 464
#     4  12  26  47  75 112 150 201 263 318 389 467
#     4  11  21  42  78 108 140 201 253 303 364 462
#     4  12  26  46  70 110 152 198 250 334 384 448
#
# _framework density 22.318066999999999
#
# number of rings (size 3 to 8) (size 9 to 14) (size 15 to 20)
#    0.000    0.222    7.778    1.333    1.556    2.667 
#    0.000    1.111    0.000    0.000    0.000    0.000 
#    0.000    0.000    0.000    0.000    0.000    0.000 
#
# Total GULP energy -200429.165687 kJ/mol
# GULP energy per Si atom -5567.476825 kJ/mol
# Density = 2.226727 g / cm^3
# Si number density = 22.318067 Si / 1000 Ang^3
#
#
#
# Elastic Constant Matrix: (Units=GPa)
#
#
# Indices 1 2 3 4 5 6 
#
# 1 -10.2682 160.6868 76.1654 0.0000 0.0000 0.0000
# 2 160.6868 -10.2671 76.1663 0.0000 0.0000 0.0000
# 3 76.1654 76.1663 237.3051 0.0000 0.0000 0.0000
# 4 0.0000 0.0000 0.0000 27.9506 0.0000 0.0000
# 5 0.0000 0.0000 0.0000 0.0000 27.9522 0.0000
# 6 0.0000 0.0000 0.0000 0.0000 0.0000 27.0958
#
#
#
# Elastic Compliance Matrix: (Units=1/GPa)
#
#
# Indices 1 2 3 4 5 6 
#
# 1 0.002000 0.007850 -0.003161 0.000000 0.000000 0.000000
# 2 0.007850 0.002000 -0.003161 0.000000 0.000000 0.000000
# 3 -0.003161 -0.003161 0.006243 0.000000 0.000000 0.000000
# 4 0.000000 0.000000 0.000000 0.035777 0.000000 0.000000
# 5 0.000000 0.000000 0.000000 0.000000 0.035775 0.000000
# 6 0.000000 0.000000 0.000000 0.000000 0.000000 0.036906
#
#
# Mechanical properties :
#
#
# Convention : Reuss Voigt Hill
#
# Bulk Modulus (GPa) = 75.20389 93.64521 84.42455
# Shear Modulus (GPa) = 41.63855 10.18314 25.91084
#
# Velocity S-wave (km/s) = 4.32405 2.13837 3.41101
# Velocity P-wave (km/s) = 7.66155 6.93883 7.30913
#
# Compressibility (1/GPa) = 0.01329718
#
# Stress axis : x y z
#
# Youngs Moduli (GPa) = 499.98829 499.97967 160.17086
#
# Poissons Ratio (x) = -3.92463 0.50636
# Poissons Ratio (y) = -3.92470 0.50636
# Poissons Ratio (z) = 1.58064 1.58061
#
# Static dielectric constant tensor:
#      x y z
#    x 1.854630 0.000000 0.000000 
#    y 0.000000 1.854630 0.000000 
#    z 0.000000 0.000000 1.969630 
# 
# From -- ./inp_files/4517.got.cif
#   From: 2010.05.17/outbox.cif.g08.bks.cpg/sg94_3_cif.got.tgz:4517.got - 2010.06.03 19:43:16.
