data_PCOD9550982
_publ_section_title
;
Structure prediction by ZEFSAII (Michael W. Deem and Ramdas Pophale) SiO2 
 PCOD9550982
Probable space group: P 43 21 2
;
_chemical_formula_sum "Si O2"
_cell_formula_units_Z 56
_cell_length_a 11.729993
_cell_length_b 11.729993
_cell_length_c 18.001239
_cell_angle_alpha 90.000000
_cell_angle_beta 90.000000
_cell_angle_gamma 90.000000
_cell_volume 2476.839721
_symmetry_space_group_name_H-M "P 43 21 2"
_symmetry_group_IT_number 96
_symmetry_cell_setting 'tetragonal'
loop_
_space_group_symop_operation_xyz
x,y,z
1/2-y,1/2+x,3/4+z
-x,-y,1/2+z
1/2+y,1/2-x,1/4+z
1/2+x,1/2-y,1/4-z
1/2-x,1/2+y,3/4-z
y,x,-z
-y,-x,1/2-z
loop_
_atom_site_type_symbol
_atom_site_label
_atom_site_fract_x
_atom_site_fract_y
_atom_site_fract_z
Si Si1 0.385307 0.346757 0.644132
Si Si2 0.288000 0.457131 0.860794
Si Si3 0.840547 0.611608 0.215438
Si Si4 0.632447 0.409185 0.945477
Si Si5 0.100949 0.899052 0.750000
Si Si6 0.579437 0.967772 0.291019
Si Si7 0.979775 0.979775 0.500000
Si Si8 0.914617 0.677977 0.869920
O O1 0.257545 0.391958 0.652691
O O2 0.463224 0.391453 0.578878
O O3 0.453474 0.396506 0.715393
O O4 0.376418 0.211752 0.632396
O O5 0.224818 0.394386 0.793306
O O6 0.184369 0.521977 0.901957
O O7 0.386767 0.529325 0.817387
O O8 0.342398 0.368536 0.921422
O O9 0.897079 0.735819 0.214054
O O10 0.925127 0.506680 0.204994
O O11 0.606035 0.313444 0.882727
O O12 0.534571 0.378582 0.003122
O O13 0.497805 0.863362 0.315176
O O14 0.631333 0.963846 0.208508
#
# Coordination Sequence:
#
# PCOD9550982 Si02
#       8
#     8   8   8   8   4   8   4   8
#     4  10  22  43  68  96 133 178 233 295 350 414
#     4  11  24  46  70 104 147 194 237 301 366 444
#     4  10  24  45  69 103 142 189 237 299 368 437
#     4  11  23  44  68 101 137 178 239 299 352 427
#     4  12  24  44  69 109 142 190 246 300 368 435
#     4  12  23  46  68 104 144 188 240 293 366 445
#     4  10  22  44  69  99 138 186 240 290 364 427
#     4  11  25  41  71  98 139 184 236 296 359 432
#
# _framework density 22.609456000000002
#
# number of rings (size 3 to 8) (size 9 to 14) (size 15 to 20)
#    0.000    1.143    5.714    0.000    2.000    2.286 
#    2.571    1.429    0.000    0.000    0.000    0.000 
#    0.000    0.000    0.000    0.000    0.000    0.000 
#
# Total GULP energy -312225.998637 kJ/mol
# GULP energy per Si atom -5575.464261 kJ/mol
# Density = 2.255800 g / cm^3
# Si number density = 22.609456 Si / 1000 Ang^3
#
#
#
# Elastic Constant Matrix: (Units=GPa)
#
#
# Indices 1 2 3 4 5 6 
#
# 1 81.0531 38.4119 23.0058 0.0000 0.0000 0.0000
# 2 38.4119 81.0538 23.0058 0.0000 0.0000 0.0000
# 3 23.0058 23.0058 60.3343 0.0000 0.0000 0.0000
# 4 0.0000 0.0000 0.0000 31.0507 0.0000 0.0000
# 5 0.0000 0.0000 0.0000 0.0000 31.0506 0.0000
# 6 0.0000 0.0000 0.0000 0.0000 0.0000 24.9158
#
#
#
# Elastic Compliance Matrix: (Units=1/GPa)
#
#
# Indices 1 2 3 4 5 6 
#
# 1 0.016632 -0.006820 -0.003741 0.000000 0.000000 0.000000
# 2 -0.006820 0.016631 -0.003741 0.000000 0.000000 0.000000
# 3 -0.003741 -0.003741 0.019427 0.000000 0.000000 0.000000
# 4 0.000000 0.000000 0.000000 0.032205 0.000000 0.000000
# 5 0.000000 0.000000 0.000000 0.000000 0.032206 0.000000
# 6 0.000000 0.000000 0.000000 0.000000 0.000000 0.040135
#
#
# Mechanical properties :
#
#
# Convention : Reuss Voigt Hill
#
# Bulk Modulus (GPa) = 41.51844 43.47648 42.49746
# Shear Modulus (GPa) = 25.79055 26.60459 26.19757
#
# Velocity S-wave (km/s) = 3.38109 3.43403 3.40766
# Velocity P-wave (km/s) = 5.80047 5.91561 5.85833
#
# Compressibility (1/GPa) = 0.02408569
#
# Stress axis : x y z
#
# Youngs Moduli (GPa) = 60.12681 60.12743 51.47370
#
# Poissons Ratio (x) = 0.41006 0.19257
# Poissons Ratio (y) = 0.41006 0.19257
# Poissons Ratio (z) = 0.22495 0.22495
#
# Static dielectric constant tensor:
#      x y z
#    x 1.846600 0.000000 0.000000 
#    y 0.000000 1.846590 0.000000 
#    z 0.000000 0.000000 1.916800 
# 
# From -- ./inp_files/3589.got.cif
#   From: 2010.05.17/outbox.cif.g08.bks.cpg/sg96_2_cif.got.tgz:3589.got - 2010.06.03 19:52:08.
