data_PCOD9550758
_publ_section_title
;
Structure prediction by ZEFSAII (Michael W. Deem and Ramdas Pophale) SiO2 
 PCOD9550758
Probable space group: P 43 21 2
;
_chemical_formula_sum "Si O2"
_cell_formula_units_Z 64
_cell_length_a 19.062675
_cell_length_b 19.062675
_cell_length_c 9.812327
_cell_angle_alpha 90.000000
_cell_angle_beta 90.000000
_cell_angle_gamma 90.000000
_cell_volume 3565.658120
_symmetry_space_group_name_H-M "P 43 21 2"
_symmetry_group_IT_number 96
_symmetry_cell_setting 'tetragonal'
loop_
_space_group_symop_operation_xyz
x,y,z
1/2-y,1/2+x,3/4+z
-x,-y,1/2+z
1/2+y,1/2-x,1/4+z
1/2+x,1/2-y,1/4-z
1/2-x,1/2+y,3/4-z
y,x,-z
-y,-x,1/2-z
loop_
_atom_site_type_symbol
_atom_site_label
_atom_site_fract_x
_atom_site_fract_y
_atom_site_fract_z
Si Si1 0.803216 0.773186 0.855875
Si Si2 0.789843 0.311768 0.329113
Si Si3 0.473878 0.565871 0.400404
Si Si4 0.689803 0.054968 0.270132
Si Si5 0.778301 0.468924 0.227740
Si Si6 0.937916 0.470809 0.144503
Si Si7 0.067360 0.189225 0.725202
Si Si8 0.967951 0.777656 0.930469
O O1 0.792160 0.717090 0.737730
O O2 0.788849 0.850619 0.792514
O O3 0.885335 0.773994 0.895772
O O4 0.764181 0.764181 0.000000
O O5 0.729738 0.270263 0.250000
O O6 0.864742 0.294985 0.264607
O O7 0.779152 0.395060 0.308980
O O8 0.525800 0.525800 0.500000
O O9 0.468439 0.531562 0.250000
O O10 0.394794 0.564418 0.461031
O O11 0.493176 0.647196 0.377050
O O12 0.606663 0.045743 0.295088
O O13 0.726953 0.028772 0.408442
O O14 0.716513 0.008385 0.145322
O O15 0.853602 0.477300 0.152554
O O16 0.718494 0.463418 0.114719
O O17 0.970902 0.528907 0.244523
O O18 0.027666 0.220472 0.593605
#
# Coordination Sequence:
#
# PCOD9550758 Si02
#       8
#     8   8   8   8   8   8   8   8
#     4   9  17  33  57  83 105 139 188 237 269 316
#     4  11  20  34  56  82 112 142 185 233 275 333
#     4   9  19  34  51  81 115 144 180 225 264 315
#     4  10  21  34  52  79 113 142 177 225 283 333
#     4  10  19  35  56  81 106 143 184 226 273 328
#     4   9  20  36  53  75 106 136 177 228 273 325
#     4   9  18  33  57  81 107 142 190 228 258 314
#     4   9  18  34  54  77 109 144 183 223 272 322
#
# _framework density 17.949000999999999
#
# number of rings (size 3 to 8) (size 9 to 14) (size 15 to 20)
#    0.000    2.500    2.500    1.500    0.000    2.500 
#    0.000    2.500    2.750    0.750    0.000    0.000 
#    0.000    0.000    0.000    0.000    0.000    0.000 
#
# Total GULP energy -356866.575361 kJ/mol
# GULP energy per Si atom -5576.040240 kJ/mol
# Density = 1.790815 g / cm^3
# Si number density = 17.949001 Si / 1000 Ang^3
#
#
#
# Elastic Constant Matrix: (Units=GPa)
#
#
# Indices 1 2 3 4 5 6 
#
# 1 27.6726 24.8681 35.6162 0.0000 0.0000 0.0000
# 2 24.8681 27.6710 35.6164 0.0000 0.0000 0.0000
# 3 35.6162 35.6164 105.4802 0.0000 0.0000 0.0000
# 4 0.0000 0.0000 0.0000 29.6651 0.0000 0.0000
# 5 0.0000 0.0000 0.0000 0.0000 29.6654 0.0000
# 6 0.0000 0.0000 0.0000 0.0000 0.0000 16.7920
#
#
#
# Elastic Compliance Matrix: (Units=1/GPa)
#
#
# Indices 1 2 3 4 5 6 
#
# 1 0.195876 -0.160784 -0.011849 0.000000 0.000000 0.000000
# 2 -0.160784 0.195898 -0.011857 0.000000 0.000000 0.000000
# 3 -0.011849 -0.011857 0.017485 0.000000 0.000000 0.000000
# 4 0.000000 0.000000 0.000000 0.033710 0.000000 0.000000
# 5 0.000000 0.000000 0.000000 0.000000 0.033709 0.000000
# 6 0.000000 0.000000 0.000000 0.000000 0.000000 0.059552
#
#
# Mechanical properties :
#
#
# Convention : Reuss Voigt Hill
#
# Bulk Modulus (GPa) = 24.82652 39.22504 32.02578
# Shear Modulus (GPa) = 5.44286 19.53938 12.49112
#
# Velocity S-wave (km/s) = 1.74327 3.30298 2.64090
# Velocity P-wave (km/s) = 4.23246 6.03716 5.21349
#
# Compressibility (1/GPa) = 0.04027951
#
# Stress axis : x y z
#
# Youngs Moduli (GPa) = 5.10528 5.10471 57.19225
#
# Poissons Ratio (x) = 0.82075 0.67766
# Poissons Ratio (y) = 0.82085 0.67812
# Poissons Ratio (z) = 0.06049 0.06053
#
# Static dielectric constant tensor:
#      x y z
#    x 1.606530 0.000000 0.000000 
#    y 0.000000 1.606530 0.000000 
#    z 0.000000 0.000000 1.621980 
# 
# From -- ./inp_files/1721.got.cif
#   From: 2010.05.17/outbox.cif.g08.bks.cpg/sg96_1_cif.got.tgz:1721.got - 2010.06.03 19:52:08.
