data_PCOD9550440
_publ_section_title
;
Structure prediction by ZEFSAII (Michael W. Deem and Ramdas Pophale) SiO2 
 PCOD9550440
Probable space group: P 43 2 2
;
_chemical_formula_sum "Si O2"
_cell_formula_units_Z 32
_cell_length_a 8.040873
_cell_length_b 8.040873
_cell_length_c 20.879095
_cell_angle_alpha 90.000000
_cell_angle_beta 90.000000
_cell_angle_gamma 90.000000
_cell_volume 1349.951221
_symmetry_space_group_name_H-M "P 43 2 2"
_symmetry_group_IT_number 95
_symmetry_cell_setting 'tetragonal'
loop_
_space_group_symop_operation_xyz
x,y,z
-y,x,3/4+z
-x,-y,1/2+z
y,-x,1/4+z
x,-y,1/2-z
-x,y,-z
y,x,1/4-z
-y,-x,3/4-z
loop_
_atom_site_type_symbol
_atom_site_label
_atom_site_fract_x
_atom_site_fract_y
_atom_site_fract_z
Si Si1 0.353752 0.000000 0.250000
Si Si2 0.268183 0.863677 0.442001
Si Si3 0.903014 0.423244 0.616534
Si Si4 0.202960 0.770397 0.011238
Si Si5 0.776890 0.776890 0.125000
O O1 0.246874 0.832475 0.257421
O O2 0.459849 0.003524 0.315531
O O3 0.168031 0.831970 0.375000
O O4 0.459875 0.836289 0.422309
O O5 0.259541 0.050166 0.466828
O O6 0.763264 0.350306 0.570235
O O7 0.028772 0.273891 0.633885
O O8 0.277164 0.710080 0.944025
O O9 0.000000 0.781025 0.000000
#
# Coordination Sequence:
#
# PCOD9550440 Si02
#       5
#     4   8   8   8   4
#     4  10  18  38  62 102 132 168 222 286 338 398
#     4  10  22  36  66  99 131 171 227 288 346 393
#     4  10  21  38  63  98 137 171 217 294 342 405
#     4  10  20  36  62  95 126 173 226 281 335 401
#     4  10  20  36  64  82 138 180 212 276 336 426
#
# _framework density 23.704560000000001
#
# number of rings (size 3 to 8) (size 9 to 14) (size 15 to 20)
#    0.000    2.000    5.000    0.000    7.000    1.000 
#    0.000    0.000    8.250    3.000    0.000    0.000 
#    0.000    0.000    0.000    0.000    0.000    0.000 
#
# Total GULP energy -178298.843037 kJ/mol
# GULP energy per Si atom -5571.838845 kJ/mol
# Density = 2.365061 g / cm^3
# Si number density = 23.704560 Si / 1000 Ang^3
#
#
#
# Elastic Constant Matrix: (Units=GPa)
#
#
# Indices 1 2 3 4 5 6 
#
# 1 60.1780 29.6720 28.3695 0.0000 0.0000 0.0000
# 2 29.6720 60.1777 28.3699 0.0000 0.0000 0.0000
# 3 28.3695 28.3699 91.7611 0.0000 0.0000 0.0000
# 4 0.0000 0.0000 0.0000 38.8547 0.0000 0.0000
# 5 0.0000 0.0000 0.0000 0.0000 38.8547 0.0000
# 6 0.0000 0.0000 0.0000 0.0000 0.0000 -6.9781
#
#
#
# Elastic Compliance Matrix: (Units=1/GPa)
#
#
# Indices 1 2 3 4 5 6 
#
# 1 0.023305 -0.009475 -0.004276 0.000000 0.000000 0.000000
# 2 -0.009475 0.023305 -0.004276 0.000000 0.000000 0.000000
# 3 -0.004276 -0.004276 0.013542 0.000000 0.000000 0.000000
# 4 0.000000 0.000000 0.000000 0.025737 0.000000 0.000000
# 5 0.000000 0.000000 0.000000 0.000000 0.025737 0.000000
# 6 0.000000 0.000000 0.000000 0.000000 0.000000 -0.143305
#
#
# Mechanical properties :
#
#
# Convention : Reuss Voigt Hill
#
# Bulk Modulus (GPa) = 41.49669 42.77107 42.13388
# Shear Modulus (GPa) = 402.98692 22.52660 212.75676
#
# Velocity S-wave (km/s) = 13.05270 3.08605 9.48411
# Velocity P-wave (km/s) = 15.64314 5.54805 11.73645
#
# Compressibility (1/GPa) = 0.02409830
#
# Stress axis : x y z
#
# Youngs Moduli (GPa) = 42.90910 42.90865 73.84582
#
# Poissons Ratio (x) = 0.40658 0.31574
# Poissons Ratio (y) = 0.40658 0.31575
# Poissons Ratio (z) = 0.18346 0.18347
#
# Static dielectric constant tensor:
#      x y z
#    x 1.944590 0.000000 0.000000 
#    y 0.000000 1.944590 0.000000 
#    z 0.000000 0.000000 2.026740 
# 
# From -- ./inp_files/6762.got.cif
#   From: 2010.05.17/outbox.cif.g08.bks.cpg/sg95_4_cif.got.tgz:6762.got - 2010.06.03 19:46:49.
