data_PCOD9550400
_publ_section_title
;
Structure prediction by ZEFSAII (Michael W. Deem and Ramdas Pophale) SiO2 
 PCOD9550400
Probable space group: P 42 21 2
;
_chemical_formula_sum "Si O2"
_cell_formula_units_Z 40
_cell_length_a 9.000000
_cell_length_b 9.000000
_cell_length_c 24.000000
_cell_angle_alpha 90.000000
_cell_angle_beta 90.000000
_cell_angle_gamma 90.000000
_cell_volume 1944.000000
_symmetry_space_group_name_H-M "P 42 21 2"
_symmetry_group_IT_number 94
_symmetry_cell_setting 'tetragonal'
loop_
_space_group_symop_operation_xyz
x,y,z
1/2-y,1/2+x,1/2+z
-x,-y,z
1/2+y,1/2-x,1/2+z
1/2+x,1/2-y,1/2-z
1/2-x,1/2+y,1/2-z
y,x,-z
-y,-x,-z
loop_
_atom_site_type_symbol
_atom_site_label
_atom_site_fract_x
_atom_site_fract_y
_atom_site_fract_z
Si Si1 0.106802 0.862795 0.721067
Si Si2 0.131888 0.609255 0.210129
Si Si3 0.324196 0.675805 0.500000
Si Si4 0.660926 0.675051 0.101131
Si Si5 0.832406 0.820971 0.600758
Si Si6 0.829098 0.170903 0.000000
O O1 0.243782 0.915801 0.757445
O O2 0.170977 0.786400 0.665098
O O3 0.995279 0.741673 0.746930
O O4 0.000000 0.000000 0.704801
O O5 0.227488 0.664090 0.157476
O O6 0.000000 0.500000 0.193172
O O7 0.270143 0.756603 0.555662
O O8 0.298808 0.502104 0.506238
O O9 0.672655 0.504091 0.081304
O O10 0.489527 0.719215 0.107290
O O11 0.733562 0.747371 0.554484
#
# Coordination Sequence:
#
# PCOD9550400 Si02
#       6
#     8   8   4   8   8   4
#     4  11  22  45  63  99 134 172 224 273 324 407
#     4  11  24  39  69  99 135 179 220 277 338 389
#     4  11  26  43  62  94 132 171 206 279 336 384
#     4  10  21  43  68  89 125 172 220 259 319 394
#     4  10  22  42  65  94 123 169 220 264 317 401
#     4  11  26  43  60  98 134 157 218 275 338 388
#
# _framework density 20.576132000000001
#
# number of rings (size 3 to 8) (size 9 to 14) (size 15 to 20)
#    0.000    1.400    4.000    2.400    5.600    5.600 
#    3.600    0.000    0.000    0.000    0.000    0.000 
#    0.000    0.000    0.000    0.000    0.000    0.000 
#
# Total GULP energy -223113.189248 kJ/mol
# GULP energy per Si atom -5577.829731 kJ/mol
# Density = 2.052930 g / cm^3
# Si number density = 20.576132 Si / 1000 Ang^3
#
#
#
# Elastic Constant Matrix: (Units=GPa)
#
#
# Indices 1 2 3 4 5 6 
#
# 1 119.4543 13.0561 59.6955 0.0000 0.0000 0.0000
# 2 13.0561 119.4562 59.6974 0.0000 0.0000 0.0000
# 3 59.6955 59.6974 82.2621 0.0000 0.0000 0.0000
# 4 0.0000 0.0000 0.0000 21.5676 0.0000 0.0000
# 5 0.0000 0.0000 0.0000 0.0000 21.5662 0.0000
# 6 0.0000 0.0000 0.0000 0.0000 0.0000 32.2101
#
#
#
# Elastic Compliance Matrix: (Units=1/GPa)
#
#
# Indices 1 2 3 4 5 6 
#
# 1 0.015600 0.006201 -0.015820 0.000000 0.000000 0.000000
# 2 0.006201 0.015600 -0.015821 0.000000 0.000000 0.000000
# 3 -0.015820 -0.015821 0.035118 0.000000 0.000000 0.000000
# 4 0.000000 0.000000 0.000000 0.046366 0.000000 0.000000
# 5 0.000000 0.000000 0.000000 0.000000 0.046369 0.000000
# 6 0.000000 0.000000 0.000000 0.000000 0.000000 0.031046
#
#
# Mechanical properties :
#
#
# Convention : Reuss Voigt Hill
#
# Bulk Modulus (GPa) = 64.77847 65.11896 64.94872
# Shear Modulus (GPa) = 20.31493 27.65035 23.98264
#
# Velocity S-wave (km/s) = 3.14555 3.66977 3.41773
# Velocity P-wave (km/s) = 6.68905 7.04790 6.87081
#
# Compressibility (1/GPa) = 0.01543723
#
# Stress axis : x y z
#
# Youngs Moduli (GPa) = 64.10385 64.10313 28.47546
#
# Poissons Ratio (x) = -0.39752 0.45050
# Poissons Ratio (y) = -0.39752 0.45051
# Poissons Ratio (z) = 1.01415 1.01417
#
# Static dielectric constant tensor:
#      x y z
#    x 1.756950 0.000000 0.000000 
#    y 0.000000 1.756960 0.000000 
#    z 0.000000 0.000000 1.638870 
# 
# From -- ./inp_files/5024.got.cif
#   From: 2010.05.17/outbox.ucp.g08.bks.cvg/sg94_3_cif.got.tgz:5024.got - 2010.06.11 10:37:05.
