data_PCOD9550895
_publ_section_title
;
Structure prediction by ZEFSAII (Michael W. Deem and Ramdas Pophale) SiO2 
 PCOD9550895
Probable space group: P 43 21 2
;
_chemical_formula_sum "Si O2"
_cell_formula_units_Z 56
_cell_length_a 13.666787
_cell_length_b 13.666787
_cell_length_c 12.516640
_cell_angle_alpha 90.000000
_cell_angle_beta 90.000000
_cell_angle_gamma 90.000000
_cell_volume 2337.871373
_symmetry_space_group_name_H-M "P 43 21 2"
_symmetry_group_IT_number 96
_symmetry_cell_setting 'tetragonal'
loop_
_space_group_symop_operation_xyz
x,y,z
1/2-y,1/2+x,3/4+z
-x,-y,1/2+z
1/2+y,1/2-x,1/4+z
1/2+x,1/2-y,1/4-z
1/2-x,1/2+y,3/4-z
y,x,-z
-y,-x,1/2-z
loop_
_atom_site_type_symbol
_atom_site_label
_atom_site_fract_x
_atom_site_fract_y
_atom_site_fract_z
Si Si1 0.011341 0.330206 0.598797
Si Si2 0.999167 0.354221 0.838706
Si Si3 0.821658 0.833842 0.842867
Si Si4 0.488633 0.448845 0.619977
Si Si5 0.144851 0.780589 0.024579
Si Si6 0.599350 0.342232 0.139235
Si Si7 0.783298 0.574576 0.314062
O O1 0.976332 0.310615 0.721329
O O2 0.938253 0.300045 0.505811
O O3 0.044247 0.440661 0.593880
O O4 0.107780 0.263527 0.596420
O O5 0.959785 0.291922 0.938739
O O6 0.112456 0.382593 0.846408
O O7 0.782067 0.722934 0.845416
O O8 0.832922 0.850490 0.714512
O O9 0.917536 0.896731 0.879493
O O10 0.450738 0.450738 0.500000
O O11 0.420211 0.367525 0.674144
O O12 0.468722 0.561289 0.647941
O O13 0.205839 0.836830 0.934734
O O14 0.658954 0.341047 0.250000
O O15 0.522528 0.253758 0.127115
#
# Coordination Sequence:
#
# PCOD9550895 Si02
#       7
#     8   8   8   8   8   8   8
#     4  10  22  38  63  91 127 163 207 265 316 373
#     4  10  21  42  63  93 126 170 213 261 314 392
#     4  10  21  38  60  92 124 156 215 260 308 382
#     4   9  21  38  63  90 124 161 207 267 316 369
#     4  11  21  36  62  96 119 161 212 259 311 387
#     4  11  21  38  64  89 122 169 205 259 320 381
#     4  11  23  38  69  89 124 172 216 254 323 395
#
# _framework density 23.953413000000001
#
# number of rings (size 3 to 8) (size 9 to 14) (size 15 to 20)
#    0.000    1.714    4.286    0.857    4.000    2.286 
#    2.571    0.714    9.429    0.000    0.000    0.000 
#    0.000    0.000    0.000    0.000    0.000    0.000 
#
# Total GULP energy -312120.079142 kJ/mol
# GULP energy per Si atom -5573.572842 kJ/mol
# Density = 2.389889 g / cm^3
# Si number density = 23.953413 Si / 1000 Ang^3
#
#
#
# Elastic Constant Matrix: (Units=GPa)
#
#
# Indices 1 2 3 4 5 6 
#
# 1 86.2668 42.2286 -3.8581 0.0000 0.0000 0.0000
# 2 42.2286 86.2669 -3.8582 0.0000 0.0000 0.0000
# 3 -3.8581 -3.8582 28.1927 0.0000 0.0000 0.0000
# 4 0.0000 0.0000 0.0000 17.6405 0.0000 0.0000
# 5 0.0000 0.0000 0.0000 0.0000 17.6405 0.0000
# 6 0.0000 0.0000 0.0000 0.0000 0.0000 35.2911
#
#
#
# Elastic Compliance Matrix: (Units=1/GPa)
#
#
# Indices 1 2 3 4 5 6 
#
# 1 0.015277 -0.007430 0.001074 0.000000 0.000000 0.000000
# 2 -0.007430 0.015277 0.001074 0.000000 0.000000 0.000000
# 3 0.001074 0.001074 0.035764 0.000000 0.000000 0.000000
# 4 0.000000 0.000000 0.000000 0.056688 0.000000 0.000000
# 5 0.000000 0.000000 0.000000 0.000000 0.056688 0.000000
# 6 0.000000 0.000000 0.000000 0.000000 0.000000 0.028336
#
#
# Mechanical properties :
#
#
# Convention : Reuss Voigt Hill
#
# Bulk Modulus (GPa) = 17.93621 29.97234 23.95428
# Shear Modulus (GPa) = 21.08107 25.19535 23.13821
#
# Velocity S-wave (km/s) = 2.96984 3.24674 3.11137
# Velocity P-wave (km/s) = 4.38910 5.15704 4.78849
#
# Compressibility (1/GPa) = 0.05575314
#
# Stress axis : x y z
#
# Youngs Moduli (GPa) = 65.45709 65.45714 27.96099
#
# Poissons Ratio (x) = 0.48637 -0.03002
# Poissons Ratio (y) = 0.48637 -0.03003
# Poissons Ratio (z) = -0.07029 -0.07029
#
# Static dielectric constant tensor:
#      x y z
#    x 1.943990 0.000000 0.000000 
#    y 0.000000 1.943990 0.000000 
#    z 0.000000 0.000000 2.021610 
# 
# From -- ./inp_files/2775.got.cif
#   From: 2010.05.17/outbox.cif.g08.bks.cpg/sg96_2_cif.got.tgz:2775.got - 2010.06.03 19:52:08.
