data_PCOD9550217
_publ_section_title
;
Structure prediction by ZEFSAII (Michael W. Deem and Ramdas Pophale) SiO2 
 PCOD9550217
Probable space group: P 42 21 2
;
_chemical_formula_sum "Si O2"
_cell_formula_units_Z 32
_cell_length_a 11.534101
_cell_length_b 11.534101
_cell_length_c 10.397393
_cell_angle_alpha 90.000000
_cell_angle_beta 90.000000
_cell_angle_gamma 90.000000
_cell_volume 1383.222230
_symmetry_space_group_name_H-M "P 42 21 2"
_symmetry_group_IT_number 94
_symmetry_cell_setting 'tetragonal'
loop_
_space_group_symop_operation_xyz
x,y,z
1/2-y,1/2+x,1/2+z
-x,-y,z
1/2+y,1/2-x,1/2+z
1/2+x,1/2-y,1/2-z
1/2-x,1/2+y,1/2-z
y,x,-z
-y,-x,-z
loop_
_atom_site_type_symbol
_atom_site_label
_atom_site_fract_x
_atom_site_fract_y
_atom_site_fract_z
Si Si1 0.536037 0.723103 0.997458
Si Si2 0.962610 0.633187 0.000243
Si Si3 0.516069 0.310203 0.722823
Si Si4 0.807349 0.011404 0.784914
O O1 0.488452 0.739301 0.140746
O O2 0.628047 0.825048 0.974402
O O3 0.599574 0.599574 0.000000
O O4 0.457337 0.720697 0.871302
O O5 0.985028 0.699469 0.867605
O O6 0.022420 0.704958 0.113775
O O7 0.000000 0.500000 0.996516
O O8 0.392075 0.376752 0.718002
O O9 0.611057 0.403268 0.677129
#
# Coordination Sequence:
#
# PCOD9550217 Si02
#       4
#     8   8   8   8
#     4  10  23  41  67 102 136 174 223 284 344 399
#     4  12  27  41  63 101 144 180 221 278 343 410
#     4  10  22  45  74 100 131 180 236 281 331 405
#     4  10  22  45  74 100 131 180 236 281 331 405
#
# _framework density 23.134387
#
# number of rings (size 3 to 8) (size 9 to 14) (size 15 to 20)
#    0.000    1.500    0.000    3.750    7.000    5.000 
#    0.000    2.500    0.000    0.000    0.000    0.000 
#    0.000    0.000    0.000    0.000    0.000    0.000 
#
# Total GULP energy -179033.124956 kJ/mol
# GULP energy per Si atom -5594.785155 kJ/mol
# Density = 2.308173 g / cm^3
# Si number density = 23.134387 Si / 1000 Ang^3
#
#
#
# Elastic Constant Matrix: (Units=GPa)
#
#
# Indices 1 2 3 4 5 6 
#
# 1 88.0564 8.5084 20.1137 0.0000 0.0000 0.0000
# 2 8.5084 88.0564 20.1137 0.0000 0.0000 0.0000
# 3 20.1137 20.1137 111.1301 0.0000 0.0000 0.0000
# 4 0.0000 0.0000 0.0000 167.6743 0.0000 0.0000
# 5 0.0000 0.0000 0.0000 0.0000 167.6743 0.0000
# 6 0.0000 0.0000 0.0000 0.0000 0.0000 28.5524
#
#
#
# Elastic Compliance Matrix: (Units=1/GPa)
#
#
# Indices 1 2 3 4 5 6 
#
# 1 0.011886 -0.000685 -0.002027 0.000000 0.000000 0.000000
# 2 -0.000685 0.011886 -0.002027 0.000000 0.000000 0.000000
# 3 -0.002027 -0.002027 0.009732 0.000000 0.000000 0.000000
# 4 0.000000 0.000000 0.000000 0.005964 0.000000 0.000000
# 5 0.000000 0.000000 0.000000 0.000000 0.005964 0.000000
# 6 0.000000 0.000000 0.000000 0.000000 0.000000 0.035023
#
#
# Mechanical properties :
#
#
# Convention : Reuss Voigt Hill
#
# Bulk Modulus (GPa) = 41.62490 42.74606 42.18548
# Shear Modulus (GPa) = 51.05055 88.68069 69.86562
#
# Velocity S-wave (km/s) = 4.70264 6.19807 5.50141
# Velocity P-wave (km/s) = 6.89334 8.35098 7.65693
#
# Compressibility (1/GPa) = 0.02402408
#
# Stress axis : x y z
#
# Youngs Moduli (GPa) = 84.13530 84.13530 102.75110
#
# Poissons Ratio (x) = 0.05767 0.20829
# Poissons Ratio (y) = 0.05767 0.20829
# Poissons Ratio (z) = 0.17055 0.17055
#
# Static dielectric constant tensor:
#      x y z
#    x 1.834130 0.000000 0.000000 
#    y 0.000000 1.834130 0.000000 
#    z 0.000000 0.000000 1.872830 
# 
# From -- ./inp_files/2297.got.cif
#   From: 2010.05.17/outbox.cif.g08.bks.cpg/sg94_2_cif.got.tgz:2297.got - 2010.06.03 19:43:16.
