data_PCOD9550879
_publ_section_title
;
Structure prediction by ZEFSAII (Michael W. Deem and Ramdas Pophale) SiO2 
 PCOD9550879
Probable space group: P 43 21 2
;
_chemical_formula_sum "Si O2"
_cell_formula_units_Z 28
_cell_length_a 9.249453
_cell_length_b 9.249453
_cell_length_c 10.144084
_cell_angle_alpha 90.000000
_cell_angle_beta 90.000000
_cell_angle_gamma 90.000000
_cell_volume 867.850537
_symmetry_space_group_name_H-M "P 43 21 2"
_symmetry_group_IT_number 96
_symmetry_cell_setting 'tetragonal'
loop_
_space_group_symop_operation_xyz
x,y,z
1/2-y,1/2+x,3/4+z
-x,-y,1/2+z
1/2+y,1/2-x,1/4+z
1/2+x,1/2-y,1/4-z
1/2-x,1/2+y,3/4-z
y,x,-z
-y,-x,1/2-z
loop_
_atom_site_type_symbol
_atom_site_label
_atom_site_fract_x
_atom_site_fract_y
_atom_site_fract_z
Si Si1 0.060622 0.797151 0.608201
Si Si2 0.679796 0.180781 0.985980
Si Si3 0.624070 0.896523 0.876423
Si Si4 0.098921 0.098921 0.500000
O O1 0.979953 0.703968 0.716353
O O2 0.233778 0.454648 0.709837
O O3 0.046366 0.970410 0.608079
O O4 0.232003 0.768536 0.611460
O O5 0.711402 0.299319 0.871067
O O6 0.743849 0.020136 0.960104
O O7 0.522791 0.893809 0.010722
#
# Coordination Sequence:
#
# PCOD9550879 Si02
#       4
#     8   8   8   4
#     4   9  21  44  85 115 156 217 270 333 408 491
#     4   9  20  46  84 116 161 214 270 337 406 489
#     4   9  21  44  83 114 160 213 276 330 413 493
#     4  10  20  46  78 114 156 228 256 336 408 496
#
# _framework density 32.263618000000001
#
# number of rings (size 3 to 8) (size 9 to 14) (size 15 to 20)
#    1.714    1.143    0.000    0.000    0.000    1.143 
#    5.143   11.429   44.000    0.000    0.000    0.000 
#    0.000    0.000    0.000    0.000    0.000    0.000 
#
# Total GULP energy -155911.397016 kJ/mol
# GULP energy per Si atom -5568.264179 kJ/mol
# Density = 3.219018 g / cm^3
# Si number density = 32.263618 Si / 1000 Ang^3
#
#
#
# Elastic Constant Matrix: (Units=GPa)
#
#
# Indices 1 2 3 4 5 6 
#
# 1 278.6612 111.6022 111.7721 0.0000 0.0000 0.0000
# 2 111.6022 278.6612 111.7721 0.0000 0.0000 0.0000
# 3 111.7721 111.7721 276.2963 0.0000 0.0000 0.0000
# 4 0.0000 0.0000 0.0000 68.3503 0.0000 0.0000
# 5 0.0000 0.0000 0.0000 0.0000 68.3503 0.0000
# 6 0.0000 0.0000 0.0000 0.0000 0.0000 43.9819
#
#
#
# Elastic Compliance Matrix: (Units=1/GPa)
#
#
# Indices 1 2 3 4 5 6 
#
# 1 0.004661 -0.001325 -0.001349 0.000000 0.000000 0.000000
# 2 -0.001325 0.004661 -0.001349 0.000000 0.000000 0.000000
# 3 -0.001349 -0.001349 0.004711 0.000000 0.000000 0.000000
# 4 0.000000 0.000000 0.000000 0.014631 0.000000 0.000000
# 5 0.000000 0.000000 0.000000 0.000000 0.014631 0.000000
# 6 0.000000 0.000000 0.000000 0.000000 0.000000 0.022737
#
#
# Mechanical properties :
#
#
# Convention : Reuss Voigt Hill
#
# Bulk Modulus (GPa) = 167.09913 167.10129 167.10021
# Shear Modulus (GPa) = 65.72717 69.36800 67.54758
#
# Velocity S-wave (km/s) = 4.51842 4.64188 4.58057
# Velocity P-wave (km/s) = 8.89527 8.97966 8.93756
#
# Compressibility (1/GPa) = 0.00598447
#
# Stress axis : x y z
#
# Youngs Moduli (GPa) = 214.56657 214.56657 212.27283
#
# Poissons Ratio (x) = 0.28438 0.28640
# Poissons Ratio (y) = 0.28438 0.28640
# Poissons Ratio (z) = 0.28950 0.28950
#
# Static dielectric constant tensor:
#      x y z
#    x 2.734940 0.000000 0.000000 
#    y 0.000000 2.734940 0.000000 
#    z 0.000000 0.000000 2.580980 
# 
# From -- ./inp_files/2495.got.cif
#   From: 2010.05.17/outbox.cif.g08.bks.cpg/sg96_2_cif.got.tgz:2495.got - 2010.06.03 19:52:08.
