data_PCOD9550284
_publ_section_title
;
Structure prediction by ZEFSAII (Michael W. Deem and Ramdas Pophale) SiO2 
 PCOD9550284
Probable space group: P 42 21 2
;
_chemical_formula_sum "Si O2"
_cell_formula_units_Z 28
_cell_length_a 9.154233
_cell_length_b 9.154233
_cell_length_c 15.869551
_cell_angle_alpha 90.000000
_cell_angle_beta 90.000000
_cell_angle_gamma 90.000000
_cell_volume 1329.868085
_symmetry_space_group_name_H-M "P 42 21 2"
_symmetry_group_IT_number 94
_symmetry_cell_setting 'tetragonal'
loop_
_space_group_symop_operation_xyz
x,y,z
1/2-y,1/2+x,1/2+z
-x,-y,z
1/2+y,1/2-x,1/2+z
1/2+x,1/2-y,1/2-z
1/2-x,1/2+y,1/2-z
y,x,-z
-y,-x,-z
loop_
_atom_site_type_symbol
_atom_site_label
_atom_site_fract_x
_atom_site_fract_y
_atom_site_fract_z
Si Si1 0.220054 0.668442 0.136822
Si Si2 0.500000 0.000000 0.982999
Si Si3 0.155187 0.924452 0.256936
Si Si4 0.950727 0.213075 0.425777
O O1 0.092278 0.612891 0.075049
O O2 0.196380 0.824845 0.178864
O O3 0.234102 0.548689 0.211553
O O4 0.379128 0.677112 0.092760
O O5 0.430434 0.122450 0.042592
O O6 0.132111 0.823778 0.339601
O O7 0.000000 0.000000 0.240162
O O8 0.884811 0.115190 0.500000
#
# Coordination Sequence:
#
# PCOD9550284 Si02
#       4
#     8   4   8   8
#     4  11  26  45  71 104 134 187 233 286 355 424
#     4  12  26  38  76  98 134 174 246 278 346 414
#     4  10  25  44  72  99 145 177 233 285 354 421
#     4  11  25  48  71  98 140 188 226 290 357 423
#
# _framework density 21.054718999999999
#
# number of rings (size 3 to 8) (size 9 to 14) (size 15 to 20)
#    0.000    1.143    2.857    0.857   20.000    0.000 
#    0.000    0.000    0.000    0.000    0.000    0.000 
#    0.000    0.000    0.000    0.000    0.000    0.000 
#
# Total GULP energy -156559.566405 kJ/mol
# GULP energy per Si atom -5591.413086 kJ/mol
# Density = 2.100680 g / cm^3
# Si number density = 21.054719 Si / 1000 Ang^3
#
#
#
# Elastic Constant Matrix: (Units=GPa)
#
#
# Indices 1 2 3 4 5 6 
#
# 1 87.7927 19.1735 17.4544 0.0000 0.0000 0.0000
# 2 19.1735 87.7953 17.4547 0.0000 0.0000 0.0000
# 3 17.4544 17.4547 47.8517 0.0000 0.0000 0.0000
# 4 0.0000 0.0000 0.0000 16.9240 0.0000 0.0000
# 5 0.0000 0.0000 0.0000 0.0000 16.9234 0.0000
# 6 0.0000 0.0000 0.0000 0.0000 0.0000 22.1113
#
#
#
# Elastic Compliance Matrix: (Units=1/GPa)
#
#
# Indices 1 2 3 4 5 6 
#
# 1 0.012593 -0.001981 -0.003871 0.000000 0.000000 0.000000
# 2 -0.001981 0.012592 -0.003871 0.000000 0.000000 0.000000
# 3 -0.003871 -0.003871 0.023722 0.000000 0.000000 0.000000
# 4 0.000000 0.000000 0.000000 0.059088 0.000000 0.000000
# 5 0.000000 0.000000 0.000000 0.000000 0.059090 0.000000
# 6 0.000000 0.000000 0.000000 0.000000 0.000000 0.045226
#
#
# Mechanical properties :
#
#
# Convention : Reuss Voigt Hill
#
# Bulk Modulus (GPa) = 33.94176 36.84499 35.39337
# Shear Modulus (GPa) = 20.69751 22.48220 21.58986
#
# Velocity S-wave (km/s) = 3.13874 3.27126 3.20569
# Velocity P-wave (km/s) = 5.41215 5.63967 5.52708
#
# Compressibility (1/GPa) = 0.02946223
#
# Stress axis : x y z
#
# Youngs Moduli (GPa) = 79.41180 79.41413 42.15534
#
# Poissons Ratio (x) = 0.15728 0.16318
# Poissons Ratio (y) = 0.15728 0.16318
# Poissons Ratio (z) = 0.30739 0.30740
#
# Static dielectric constant tensor:
#      x y z
#    x 1.758580 0.000000 0.000000 
#    y 0.000000 1.758580 0.000000 
#    z 0.000000 0.000000 1.758860 
# 
# From -- ./inp_files/3834.got.cif
#   From: 2010.05.17/outbox.cif.g08.bks.cpg/sg94_2_cif.got.tgz:3834.got - 2010.06.03 19:43:16.
