data_PCOD9550067
_publ_section_title
;
Structure prediction by ZEFSAII (Michael W. Deem and Ramdas Pophale) SiO2 
 PCOD9550067
Probable space group: P 42 21 2
;
_chemical_formula_sum "Si O2"
_cell_formula_units_Z 48
_cell_length_a 9.259314
_cell_length_b 9.259314
_cell_length_c 28.653861
_cell_angle_alpha 90.000000
_cell_angle_beta 90.000000
_cell_angle_gamma 90.000000
_cell_volume 2456.635786
_symmetry_space_group_name_H-M "P 42 21 2"
_symmetry_group_IT_number 94
_symmetry_cell_setting 'tetragonal'
loop_
_space_group_symop_operation_xyz
x,y,z
1/2-y,1/2+x,1/2+z
-x,-y,z
1/2+y,1/2-x,1/2+z
1/2+x,1/2-y,1/2-z
1/2-x,1/2+y,1/2-z
y,x,-z
-y,-x,-z
loop_
_atom_site_type_symbol
_atom_site_label
_atom_site_fract_x
_atom_site_fract_y
_atom_site_fract_z
Si Si1 0.226108 0.368810 0.063678
Si Si2 0.153317 0.167238 0.608109
Si Si3 0.988224 0.326401 0.131032
Si Si4 0.881347 0.386738 0.727906
Si Si5 0.873225 0.898493 0.289737
Si Si6 0.333233 0.983105 0.535847
O O1 0.310371 0.485160 0.095244
O O2 0.098544 0.287071 0.090516
O O3 0.334590 0.243952 0.049334
O O4 0.176441 0.470547 0.020446
O O5 0.216548 0.325744 0.620164
O O6 0.152576 0.086632 0.657771
O O7 0.238459 0.098840 0.564691
O O8 0.041848 0.300274 0.183322
O O9 0.000000 0.500000 0.128017
O O10 0.749824 0.343604 0.761682
O O11 0.000000 0.500000 0.748229
O O12 0.989043 0.260659 0.710077
O O13 0.000000 0.000000 0.269956
O O14 0.500000 0.000000 0.548931
#
# Coordination Sequence:
#
# PCOD9550067 Si02
#       6
#     8   8   8   8   8   8
#     4  10  20  40  65  86 122 167 202 253 311 376
#     4  11  21  39  64  89 118 162 209 253 308 375
#     4   9  18  39  64  81 115 166 207 239 310 384
#     4  11  22  44  62  88 125 168 211 256 320 385
#     4  12  24  38  65  94 124 161 214 270 315 379
#     4  11  23  37  59  97 128 153 205 261 311 364
#
# _framework density 19.538913999999998
#
# number of rings (size 3 to 8) (size 9 to 14) (size 15 to 20)
#    0.000    1.333    5.000    4.500    0.000    2.000 
#    3.000    0.833    0.000    2.000    0.000    0.000 
#    0.000    0.000    0.000    0.000    0.000    0.000 
#
# Total GULP energy -267299.706028 kJ/mol
# GULP energy per Si atom -5568.743876 kJ/mol
# Density = 1.949444 g / cm^3
# Si number density = 19.538914 Si / 1000 Ang^3
#
#
#
# Elastic Constant Matrix: (Units=GPa)
#
#
# Indices 1 2 3 4 5 6 
#
# 1 77.5636 25.9515 25.7393 0.0000 0.0000 0.0000
# 2 25.9515 77.5636 25.7393 0.0000 0.0000 0.0000
# 3 25.7393 25.7393 88.5482 0.0000 0.0000 0.0000
# 4 0.0000 0.0000 0.0000 22.8936 0.0000 0.0000
# 5 0.0000 0.0000 0.0000 0.0000 22.8936 0.0000
# 6 0.0000 0.0000 0.0000 0.0000 0.0000 9.6584
#
#
#
# Elastic Compliance Matrix: (Units=1/GPa)
#
#
# Indices 1 2 3 4 5 6 
#
# 1 0.015334 -0.004041 -0.003283 0.000000 0.000000 0.000000
# 2 -0.004041 0.015334 -0.003283 0.000000 0.000000 0.000000
# 3 -0.003283 -0.003283 0.013202 0.000000 0.000000 0.000000
# 4 0.000000 0.000000 0.000000 0.043680 0.000000 0.000000
# 5 0.000000 0.000000 0.000000 0.000000 0.043680 0.000000
# 6 0.000000 0.000000 0.000000 0.000000 0.000000 0.103537
#
#
# Mechanical properties :
#
#
# Convention : Reuss Voigt Hill
#
# Bulk Modulus (GPa) = 44.13658 44.28173 44.20916
# Shear Modulus (GPa) = 18.97298 22.17213 20.57256
#
# Velocity S-wave (km/s) = 3.11953 3.37229 3.24837
# Velocity P-wave (km/s) = 5.96769 6.15432 6.06172
#
# Compressibility (1/GPa) = 0.02265694
#
# Stress axis : x y z
#
# Youngs Moduli (GPa) = 65.21412 65.21412 75.74797
#
# Poissons Ratio (x) = 0.26354 0.24865
# Poissons Ratio (y) = 0.26354 0.24865
# Poissons Ratio (z) = 0.21407 0.21407
#
# Static dielectric constant tensor:
#      x y z
#    x 1.716080 0.000000 0.000000 
#    y 0.000000 1.716080 0.000000 
#    z 0.000000 0.000000 1.828760 
# 
# From -- ./inp_files/5545.got.cif
#   From: 2010.05.17/outbox.cif.g08.bks.cpg/sg94_3_cif.got.tgz:5545.got - 2010.06.03 19:43:16.
