data_PCOD9550479
_publ_section_title
;
Structure prediction by ZEFSAII (Michael W. Deem and Ramdas Pophale) SiO2 
 PCOD9550479
Probable space group: P 43 2 2
;
_chemical_formula_sum "Si O2"
_cell_formula_units_Z 32
_cell_length_a 17.304892
_cell_length_b 17.304892
_cell_length_c 5.169329
_cell_angle_alpha 90.000000
_cell_angle_beta 90.000000
_cell_angle_gamma 90.000000
_cell_volume 1548.003577
_symmetry_space_group_name_H-M "P 43 2 2"
_symmetry_group_IT_number 95
_symmetry_cell_setting 'tetragonal'
loop_
_space_group_symop_operation_xyz
x,y,z
-y,x,3/4+z
-x,-y,1/2+z
y,-x,1/4+z
x,-y,1/2-z
-x,y,-z
y,x,1/4-z
-y,-x,3/4-z
loop_
_atom_site_type_symbol
_atom_site_label
_atom_site_fract_x
_atom_site_fract_y
_atom_site_fract_z
Si Si1 0.130401 0.869600 0.875000
Si Si2 0.582985 0.287356 0.376164
Si Si3 0.000000 0.152131 0.000000
Si Si4 0.218951 0.349628 0.121686
Si Si5 0.722639 0.924873 0.372234
O O1 0.222216 0.880011 0.830293
O O2 0.068878 0.890287 0.650539
O O3 0.500000 0.305386 0.500000
O O4 0.636942 0.363059 0.375000
O O5 0.618524 0.226404 0.582206
O O6 0.591574 0.254274 0.086150
O O7 0.040446 0.210320 0.198846
O O8 0.272627 0.272627 0.125000
O O9 0.133973 0.328703 0.218358
O O10 0.682174 0.000000 0.250000
#
# Coordination Sequence:
#
# PCOD9550479 Si02
#       5
#     4   8   4   8   8
#     4  10  20  34  54  76 112 148 202 256 314 372
#     4  10  22  40  64  97 131 165 202 242 302 372
#     4  10  20  34  54  76 110 150 200 256 318 378
#     4  10  21  36  63  94 123 161 213 261 299 356
#     4  10  22  35  59  83 115 156 205 267 318 363
#
# _framework density 20.671786000000001
#
# number of rings (size 3 to 8) (size 9 to 14) (size 15 to 20)
#    0.000    2.000    0.000    3.000   12.250    0.000 
#    0.000    3.750   99.000    3.000    0.000    0.000 
#    0.000    0.000    0.000    0.000    0.000    0.000 
#
# Total GULP energy -178522.446304 kJ/mol
# GULP energy per Si atom -5578.826447 kJ/mol
# Density = 2.062474 g / cm^3
# Si number density = 20.671786 Si / 1000 Ang^3
#
#
#
# Elastic Constant Matrix: (Units=GPa)
#
#
# Indices 1 2 3 4 5 6 
#
# 1 88.4429 32.3174 14.4511 0.0000 0.0000 0.0000
# 2 32.3174 88.4437 14.4510 0.0000 0.0000 0.0000
# 3 14.4511 14.4510 74.9412 0.0000 0.0000 0.0000
# 4 0.0000 0.0000 0.0000 32.4784 0.0000 0.0000
# 5 0.0000 0.0000 0.0000 0.0000 32.4795 0.0000
# 6 0.0000 0.0000 0.0000 0.0000 0.0000 9.7141
#
#
#
# Elastic Compliance Matrix: (Units=1/GPa)
#
#
# Indices 1 2 3 4 5 6 
#
# 1 0.013249 -0.004568 -0.001674 0.000000 0.000000 0.000000
# 2 -0.004568 0.013249 -0.001674 0.000000 0.000000 0.000000
# 3 -0.001674 -0.001674 0.013989 0.000000 0.000000 0.000000
# 4 0.000000 0.000000 0.000000 0.030790 0.000000 0.000000
# 5 0.000000 0.000000 0.000000 0.000000 0.030789 0.000000
# 6 0.000000 0.000000 0.000000 0.000000 0.000000 0.102943
#
#
# Mechanical properties :
#
#
# Convention : Reuss Voigt Hill
#
# Bulk Modulus (GPa) = 40.55784 41.58520 41.07152
# Shear Modulus (GPa) = 21.82834 27.64163 24.73499
#
# Velocity S-wave (km/s) = 3.25306 3.66070 3.46288
# Velocity P-wave (km/s) = 5.81140 6.16670 5.99168
#
# Compressibility (1/GPa) = 0.02465615
#
# Stress axis : x y z
#
# Youngs Moduli (GPa) = 75.47541 75.47615 71.48256
#
# Poissons Ratio (x) = 0.34476 0.11967
# Poissons Ratio (y) = 0.34476 0.11966
# Poissons Ratio (z) = 0.12635 0.12635
#
# Static dielectric constant tensor:
#      x y z
#    x 1.747800 0.000000 0.000000 
#    y 0.000000 1.747810 0.000000 
#    z 0.000000 0.000000 1.894690 
# 
# From -- ./inp_files/706.got.cif
#   From: 2010.05.17/outbox.cif.g08.bks.cpg/sg95_1_cif.got.tgz:706.got - 2010.06.03 19:46:49.
