data_PCOD9550376
_publ_section_title
;
Structure prediction by ZEFSAII (Michael W. Deem and Ramdas Pophale) SiO2 
 PCOD9550376
Probable space group: P 42 21 2
;
_chemical_formula_sum "Si O2"
_cell_formula_units_Z 18
_cell_length_a 9.406865
_cell_length_b 9.406865
_cell_length_c 8.061210
_cell_angle_alpha 90.000000
_cell_angle_beta 90.000000
_cell_angle_gamma 90.000000
_cell_volume 713.329291
_symmetry_space_group_name_H-M "P 42 21 2"
_symmetry_group_IT_number 94
_symmetry_cell_setting 'tetragonal'
loop_
_space_group_symop_operation_xyz
x,y,z
1/2-y,1/2+x,1/2+z
-x,-y,z
1/2+y,1/2-x,1/2+z
1/2+x,1/2-y,1/2-z
1/2-x,1/2+y,1/2-z
y,x,-z
-y,-x,-z
loop_
_atom_site_type_symbol
_atom_site_label
_atom_site_fract_x
_atom_site_fract_y
_atom_site_fract_z
Si Si1 0.000000 0.000000 0.000000
Si Si2 0.671113 0.000735 0.421564
Si Si3 0.372112 0.714746 0.262852
O O1 0.014776 0.136202 0.118202
O O2 0.702540 0.158400 0.359721
O O3 0.500000 0.000000 0.417485
O O4 0.724728 0.951089 0.600970
O O5 0.753313 0.897323 0.294998
#
# Coordination Sequence:
#
# PCOD9550376 Si02
#       3
#     2   8   8
#     4  12  32  50  84 122 168 220 284 344 432 516
#     4  11  28  56  85 128 170 228 286 355 422 517
#     4  11  30  54  88 122 177 224 287 352 431 503
#
# _framework density 25.233789000000002
#
# number of rings (size 3 to 8) (size 9 to 14) (size 15 to 20)
#    0.000    0.889    0.000    1.333   18.667    3.556 
#    0.000    0.000    0.000    0.000    0.000    0.000 
#    0.000    0.000    0.000    0.000    0.000    0.000 
#
# Total GULP energy -101063.527210 kJ/mol
# GULP energy per Si atom -5614.640401 kJ/mol
# Density = 2.517636 g / cm^3
# Si number density = 25.233789 Si / 1000 Ang^3
#
#
#
# Elastic Constant Matrix: (Units=GPa)
#
#
# Indices 1 2 3 4 5 6 
#
# 1 204.6766 95.3854 100.8745 0.0000 0.0000 0.0000
# 2 95.3854 204.6766 100.8745 0.0000 0.0000 0.0000
# 3 100.8745 100.8745 163.0774 0.0000 0.0000 0.0000
# 4 0.0000 0.0000 0.0000 37.2205 0.0000 0.0000
# 5 0.0000 0.0000 0.0000 0.0000 37.2205 0.0000
# 6 0.0000 0.0000 0.0000 0.0000 0.0000 60.7079
#
#
#
# Elastic Compliance Matrix: (Units=1/GPa)
#
#
# Indices 1 2 3 4 5 6 
#
# 1 0.007428 -0.001722 -0.003529 0.000000 0.000000 0.000000
# 2 -0.001722 0.007428 -0.003529 0.000000 0.000000 0.000000
# 3 -0.003529 -0.003529 0.010498 0.000000 0.000000 0.000000
# 4 0.000000 0.000000 0.000000 0.026867 0.000000 0.000000
# 5 0.000000 0.000000 0.000000 0.000000 0.026867 0.000000
# 6 0.000000 0.000000 0.000000 0.000000 0.000000 0.016472
#
#
# Mechanical properties :
#
#
# Convention : Reuss Voigt Hill
#
# Bulk Modulus (GPa) = 128.33223 129.63326 128.98274
# Shear Modulus (GPa) = 43.20818 45.38286 44.29552
#
# Velocity S-wave (km/s) = 4.14250 4.24547 4.19430
# Velocity P-wave (km/s) = 8.59349 8.69002 8.64189
#
# Compressibility (1/GPa) = 0.00779227
#
# Stress axis : x y z
#
# Youngs Moduli (GPa) = 134.63065 134.63065 95.25370
#
# Poissons Ratio (x) = 0.23185 0.33618
# Poissons Ratio (y) = 0.23185 0.33618
# Poissons Ratio (z) = 0.47515 0.47515
#
# Static dielectric constant tensor:
#      x y z
#    x 1.985810 0.000000 0.000000 
#    y 0.000000 1.985810 0.000000 
#    z 0.000000 0.000000 2.003680 
# 
# From -- ./inp_files/785.got.cif
#   From: 2010.05.17/outbox.cif.g08.bks.cpg/sg94_1_cif.got.tgz:785.got - 2010.06.03 19:43:16.
