data_PCOD9550619
_publ_section_title
;
Structure prediction by ZEFSAII (Michael W. Deem and Ramdas Pophale) SiO2 
 PCOD9550619
Probable space group: P 43 2 2
;
_chemical_formula_sum "Si O2"
_cell_formula_units_Z 24
_cell_length_a 11.743742
_cell_length_b 11.743742
_cell_length_c 7.448108
_cell_angle_alpha 90.000000
_cell_angle_beta 90.000000
_cell_angle_gamma 90.000000
_cell_volume 1027.209361
_symmetry_space_group_name_H-M "P 43 2 2"
_symmetry_group_IT_number 95
_symmetry_cell_setting 'tetragonal'
loop_
_space_group_symop_operation_xyz
x,y,z
-y,x,3/4+z
-x,-y,1/2+z
y,-x,1/4+z
x,-y,1/2-z
-x,y,-z
y,x,1/4-z
-y,-x,3/4-z
loop_
_atom_site_type_symbol
_atom_site_label
_atom_site_fract_x
_atom_site_fract_y
_atom_site_fract_z
Si Si1 0.000000 0.317278 0.000000
Si Si2 0.156885 0.000000 0.750000
Si Si3 0.799638 0.662319 0.976706
Si Si4 0.092583 0.500000 0.750000
Si Si5 0.240962 0.240962 0.125000
O O1 0.020584 0.396298 0.827299
O O2 0.883597 0.250738 0.966580
O O3 0.247323 0.902287 0.696061
O O4 0.070459 0.929542 0.875000
O O5 0.717701 0.717701 0.125000
O O6 0.841533 0.547943 0.075212
O O7 0.745154 0.663996 0.779842
#
# Coordination Sequence:
#
# PCOD9550619 Si02
#       5
#     4   4   8   4   4
#     4  12  25  43  74 106 152 194 246 290 368 446
#     4  10  23  37  62  98 152 200 236 282 364 452
#     4  11  24  45  65 104 141 191 253 304 363 443
#     4  12  24  50  72 102 146 204 254 310 372 452
#     4  12  26  44  66 112 150 194 244 294 370 456
#
# _framework density 23.364273000000001
#
# number of rings (size 3 to 8) (size 9 to 14) (size 15 to 20)
#    0.000    0.667    3.333    5.000    7.000    0.000 
#    0.000    0.000    0.000    0.000    4.333    0.000 
#    0.000    0.000    0.000    0.000    0.000    0.000 
#
# Total GULP energy -134106.137599 kJ/mol
# GULP energy per Si atom -5587.755733 kJ/mol
# Density = 2.331109 g / cm^3
# Si number density = 23.364273 Si / 1000 Ang^3
#
#
#
# Elastic Constant Matrix: (Units=GPa)
#
#
# Indices 1 2 3 4 5 6 
#
# 1 73.7683 48.7020 43.8460 0.0000 0.0000 0.0000
# 2 48.7020 73.7675 43.8466 0.0000 0.0000 0.0000
# 3 43.8460 43.8466 172.8552 0.0000 0.0000 0.0000
# 4 0.0000 0.0000 0.0000 35.7301 0.0000 0.0000
# 5 0.0000 0.0000 0.0000 0.0000 35.7302 0.0000
# 6 0.0000 0.0000 0.0000 0.0000 0.0000 27.0976
#
#
#
# Elastic Compliance Matrix: (Units=1/GPa)
#
#
# Indices 1 2 3 4 5 6 
#
# 1 0.024936 -0.014959 -0.002531 0.000000 0.000000 0.000000
# 2 -0.014959 0.024936 -0.002531 0.000000 0.000000 0.000000
# 3 -0.002531 -0.002531 0.007069 0.000000 0.000000 0.000000
# 4 0.000000 0.000000 0.000000 0.027988 0.000000 0.000000
# 5 0.000000 0.000000 0.000000 0.000000 0.027988 0.000000
# 6 0.000000 0.000000 0.000000 0.000000 0.000000 0.036904
#
#
# Mechanical properties :
#
#
# Convention : Reuss Voigt Hill
#
# Bulk Modulus (GPa) = 59.16957 65.90890 62.53924
# Shear Modulus (GPa) = 25.57616 31.97800 28.77708
#
# Velocity S-wave (km/s) = 3.31217 3.70357 3.51332
# Velocity P-wave (km/s) = 6.32511 6.82342 6.57899
#
# Compressibility (1/GPa) = 0.01690058
#
# Stress axis : x y z
#
# Youngs Moduli (GPa) = 40.10278 40.10214 141.45975
#
# Poissons Ratio (x) = 0.59987 0.35800
# Poissons Ratio (y) = 0.59988 0.35803
# Poissons Ratio (z) = 0.10149 0.10150
#
# Static dielectric constant tensor:
#      x y z
#    x 1.901060 0.000000 0.000000 
#    y 0.000000 1.901060 0.000000 
#    z 0.000000 0.000000 2.006740 
# 
# From -- ./inp_files/1931.got.cif
#   From: 2010.05.17/outbox.cif.g08.bks.cpg/sg95_1_cif.got.tgz:1931.got - 2010.06.03 19:46:49.
