data_PCOD9550433
_publ_section_title
;
Structure prediction by ZEFSAII (Michael W. Deem and Ramdas Pophale) SiO2 
 PCOD9550433
Probable space group: P 43 2 2
;
_chemical_formula_sum "Si O2"
_cell_formula_units_Z 40
_cell_length_a 8.439911
_cell_length_b 8.439911
_cell_length_c 25.293152
_cell_angle_alpha 90.000000
_cell_angle_beta 90.000000
_cell_angle_gamma 90.000000
_cell_volume 1801.684274
_symmetry_space_group_name_H-M "P 43 2 2"
_symmetry_group_IT_number 95
_symmetry_cell_setting 'tetragonal'
loop_
_space_group_symop_operation_xyz
x,y,z
-y,x,3/4+z
-x,-y,1/2+z
y,-x,1/4+z
x,-y,1/2-z
-x,y,-z
y,x,1/4-z
-y,-x,3/4-z
loop_
_atom_site_type_symbol
_atom_site_label
_atom_site_fract_x
_atom_site_fract_y
_atom_site_fract_z
Si Si1 0.947559 0.418177 0.806804
Si Si2 0.312961 0.519576 0.995027
Si Si3 0.845168 0.822093 0.965048
Si Si4 0.762094 0.479869 0.378369
Si Si5 0.549988 0.231736 0.148848
O O1 0.926022 0.500000 0.750000
O O2 0.014167 0.241214 0.798377
O O3 0.087327 0.495202 0.842350
O O4 0.804020 0.454899 0.846282
O O5 0.233353 0.472140 0.939982
O O6 0.372331 0.404844 0.854657
O O7 0.277503 0.708579 0.002273
O O8 0.225979 0.450703 0.046866
O O9 0.872883 0.707959 0.913593
O O10 0.000000 0.840646 0.000000
O O11 0.696282 0.303719 0.375000
O O12 0.500000 0.487925 0.000000
#
# Coordination Sequence:
#
# PCOD9550433 Si02
#       5
#     8   8   8   8   8
#     4  11  22  37  56  92 130 168 213 265 322 379
#     4  10  18  35  58  95 129 155 215 272 326 378
#     4   9  18  35  60  89 124 166 218 257 318 386
#     4  11  19  34  63  91 123 158 215 264 317 383
#     4   9  22  34  54  96 131 159 204 278 324 368
#
# _framework density 22.201447000000002
#
# number of rings (size 3 to 8) (size 9 to 14) (size 15 to 20)
#    1.200    0.800    2.000    3.000    0.000    0.800 
#    0.000    0.000    0.000    4.800    0.000    1.400 
#    0.000    0.000    0.000    0.000    0.000    0.000 
#
# Total GULP energy -222783.365720 kJ/mol
# GULP energy per Si atom -5569.584143 kJ/mol
# Density = 2.215092 g / cm^3
# Si number density = 22.201447 Si / 1000 Ang^3
#
#
#
# Elastic Constant Matrix: (Units=GPa)
#
#
# Indices 1 2 3 4 5 6 
#
# 1 24.4023 14.9247 15.2898 0.0000 0.0000 0.0000
# 2 14.9247 24.4037 15.2901 0.0000 0.0000 0.0000
# 3 15.2898 15.2901 195.6442 0.0000 0.0000 0.0000
# 4 0.0000 0.0000 0.0000 37.3165 0.0000 0.0000
# 5 0.0000 0.0000 0.0000 0.0000 37.3164 0.0000
# 6 0.0000 0.0000 0.0000 0.0000 0.0000 4.1313
#
#
#
# Elastic Compliance Matrix: (Units=1/GPa)
#
#
# Indices 1 2 3 4 5 6 
#
# 1 0.066290 -0.039216 -0.002116 0.000000 0.000000 0.000000
# 2 -0.039216 0.066286 -0.002116 0.000000 0.000000 0.000000
# 3 -0.002116 -0.002116 0.005442 0.000000 0.000000 0.000000
# 4 0.000000 0.000000 0.000000 0.026798 0.000000 0.000000
# 5 0.000000 0.000000 0.000000 0.000000 0.026798 0.000000
# 6 0.000000 0.000000 0.000000 0.000000 0.000000 0.242054
#
#
# Mechanical properties :
#
#
# Convention : Reuss Voigt Hill
#
# Bulk Modulus (GPa) = 19.56030 37.27329 28.41680
# Shear Modulus (GPa) = 9.30053 29.01589 19.15821
#
# Velocity S-wave (km/s) = 2.04896 3.61908 2.94075
# Velocity P-wave (km/s) = 3.79831 5.85566 4.93538
#
# Compressibility (1/GPa) = 0.05112395
#
# Stress axis : x y z
#
# Youngs Moduli (GPa) = 15.08522 15.08607 183.75526
#
# Poissons Ratio (x) = 0.59161 0.38880
# Poissons Ratio (y) = 0.59158 0.38877
# Poissons Ratio (z) = 0.03192 0.03192
#
# Static dielectric constant tensor:
#      x y z
#    x 1.882620 0.000000 0.000000 
#    y 0.000000 1.882620 0.000000 
#    z 0.000000 0.000000 1.926580 
# 
# From -- ./inp_files/7693.got.cif
#   From: 2010.05.17/outbox.cif.g08.bks.cpg/sg95_4_cif.got.tgz:7693.got - 2010.06.03 19:46:49.
