data_PCOD9550959
_publ_section_title
;
Structure prediction by ZEFSAII (Michael W. Deem and Ramdas Pophale) SiO2 
 PCOD9550959
Probable space group: P 43 21 2
;
_chemical_formula_sum "Si O2"
_cell_formula_units_Z 60
_cell_length_a 11.321088
_cell_length_b 11.321088
_cell_length_c 20.984345
_cell_angle_alpha 90.000000
_cell_angle_beta 90.000000
_cell_angle_gamma 90.000000
_cell_volume 2689.501249
_symmetry_space_group_name_H-M "P 43 21 2"
_symmetry_group_IT_number 96
_symmetry_cell_setting 'tetragonal'
loop_
_space_group_symop_operation_xyz
x,y,z
1/2-y,1/2+x,3/4+z
-x,-y,1/2+z
1/2+y,1/2-x,1/4+z
1/2+x,1/2-y,1/4-z
1/2-x,1/2+y,3/4-z
y,x,-z
-y,-x,1/2-z
loop_
_atom_site_type_symbol
_atom_site_label
_atom_site_fract_x
_atom_site_fract_y
_atom_site_fract_z
Si Si1 0.426624 0.829662 0.668132
Si Si2 0.719640 0.455761 0.713758
Si Si3 0.323326 0.125039 0.231140
Si Si4 0.634755 0.658934 0.192074
Si Si5 0.245019 0.390718 0.447492
Si Si6 0.328252 0.456104 0.078273
Si Si7 0.686354 0.428031 0.450521
Si Si8 0.909442 0.909442 0.500000
O O1 0.550088 0.885626 0.694547
O O2 0.298729 0.890104 0.678714
O O3 0.440784 0.802904 0.592733
O O4 0.414756 0.704547 0.704813
O O5 0.635597 0.364403 0.750000
O O6 0.746749 0.556096 0.764856
O O7 0.827352 0.380027 0.688810
O O8 0.661165 0.509561 0.651614
O O9 0.334316 0.235304 0.278933
O O10 0.206512 0.143312 0.186618
O O11 0.288249 0.015483 0.274194
O O12 0.615868 0.687613 0.118933
O O13 0.593046 0.526967 0.207898
O O14 0.322712 0.322712 0.500000
O O15 0.451193 0.386666 0.065015
O O16 0.313831 0.561750 0.027375
#
# Coordination Sequence:
#
# PCOD9550959 Si02
#       8
#     8   8   8   8   8   8   8   4
#     4  11  24  46  68 109 148 193 242 306 381 431
#     4  11  25  47  73 100 142 190 245 291 365 442
#     4  11  27  45  71 110 146 192 248 307 369 444
#     4  11  24  45  76 102 142 199 245 295 372 441
#     4  11  29  46  69 109 144 189 242 312 358 438
#     4  11  25  44  74 105 143 195 245 304 371 447
#     4  11  24  42  74 106 145 190 249 307 366 449
#     4  10  22  40  72 104 144 194 246 298 358 458
#
# _framework density 22.308971
#
# number of rings (size 3 to 8) (size 9 to 14) (size 15 to 20)
#    0.000    1.067    0.667    4.800    9.333    3.200 
#    2.400    0.000    0.000    0.000    0.000    0.000 
#    0.000    0.000    0.000    0.000    0.000    0.000 
#
# Total GULP energy -335172.740022 kJ/mol
# GULP energy per Si atom -5586.212334 kJ/mol
# Density = 2.225819 g / cm^3
# Si number density = 22.308971 Si / 1000 Ang^3
#
#
#
# Elastic Constant Matrix: (Units=GPa)
#
#
# Indices 1 2 3 4 5 6 
#
# 1 61.2986 110.5948 24.3590 0.0000 0.0000 0.0000
# 2 110.5948 61.2975 24.3550 0.0000 0.0000 0.0000
# 3 24.3590 24.3550 118.4681 0.0000 0.0000 0.0000
# 4 0.0000 0.0000 0.0000 23.8747 0.0000 0.0000
# 5 0.0000 0.0000 0.0000 0.0000 23.8749 0.0000
# 6 0.0000 0.0000 0.0000 0.0000 0.0000 16.5794
#
#
#
# Elastic Compliance Matrix: (Units=1/GPa)
#
#
# Indices 1 2 3 4 5 6 
#
# 1 -0.007054 0.013231 -0.001270 0.000000 0.000000 0.000000
# 2 0.013231 -0.007054 -0.001270 0.000000 0.000000 0.000000
# 3 -0.001270 -0.001270 0.008963 0.000000 0.000000 0.000000
# 4 0.000000 0.000000 0.000000 0.041885 0.000000 0.000000
# 5 0.000000 0.000000 0.000000 0.000000 0.041885 0.000000
# 6 0.000000 0.000000 0.000000 0.000000 0.000000 0.060316
#
#
# Mechanical properties :
#
#
# Convention : Reuss Voigt Hill
#
# Bulk Modulus (GPa) = 61.58390 62.18686 61.88538
# Shear Modulus (GPa) = 40.65975 18.31618 29.48797
#
# Velocity S-wave (km/s) = 4.27379 2.86846 3.63960
# Velocity P-wave (km/s) = 7.21240 6.23751 6.74260
#
# Compressibility (1/GPa) = 0.01623801
#
# Stress axis : x y z
#
# Youngs Moduli (GPa) = -141.76497 -141.76626 111.56542
#
# Poissons Ratio (x) = 1.87577 0.14166
# Poissons Ratio (y) = 1.87575 0.14174
# Poissons Ratio (z) = -0.18001 -0.18011
#
# Static dielectric constant tensor:
#      x y z
#    x 1.889300 0.000000 0.000000 
#    y 0.000000 1.889300 0.000000 
#    z 0.000000 0.000000 1.817790 
# 
# From -- ./inp_files/3609.got.cif
#   From: 2010.05.17/outbox.cif.g08.bks.cpg/sg96_2_cif.got.tgz:3609.got - 2010.06.03 19:52:08.
