data_PCOD9550459
_publ_section_title
;
Structure prediction by ZEFSAII (Michael W. Deem and Ramdas Pophale) SiO2 
 PCOD9550459
Probable space group: P 43 2 2
;
_chemical_formula_sum "Si O2"
_cell_formula_units_Z 44
_cell_length_a 20.412039
_cell_length_b 20.412039
_cell_length_c 5.197653
_cell_angle_alpha 90.000000
_cell_angle_beta 90.000000
_cell_angle_gamma 90.000000
_cell_volume 2165.609067
_symmetry_space_group_name_H-M "P 43 2 2"
_symmetry_group_IT_number 95
_symmetry_cell_setting 'tetragonal'
loop_
_space_group_symop_operation_xyz
x,y,z
-y,x,3/4+z
-x,-y,1/2+z
y,-x,1/4+z
x,-y,1/2-z
-x,y,-z
y,x,1/4-z
-y,-x,3/4-z
loop_
_atom_site_type_symbol
_atom_site_label
_atom_site_fract_x
_atom_site_fract_y
_atom_site_fract_z
Si Si1 0.265967 0.560916 0.619129
Si Si2 0.325549 0.229905 0.059229
Si Si3 0.832397 0.266134 0.305402
Si Si4 0.500000 0.046896 0.500000
Si Si5 0.611371 0.611371 0.125000
Si Si6 0.626180 0.500000 0.750000
Si Si7 0.954448 0.355000 0.252014
O O1 0.230109 0.500000 0.750000
O O2 0.222961 0.602216 0.421841
O O3 0.310719 0.601646 0.822299
O O4 0.324562 0.530072 0.456862
O O5 0.304995 0.304995 0.125000
O O6 0.281062 0.192610 0.268704
O O7 0.309508 0.204515 0.776330
O O8 0.807302 0.192699 0.375000
O O9 0.905185 0.294539 0.295011
O O10 0.427518 0.079823 0.491411
O O11 0.499976 0.000000 0.750000
O O12 0.560174 0.592415 0.351772
O O13 0.000000 0.356843 0.500000
O O14 0.000000 0.347234 0.000000
#
# Coordination Sequence:
#
# PCOD9550459 Si02
#       7
#     8   8   8   4   4   4   8
#     4  10  22  35  56  68  93 129 177 229 287 365
#     4  10  21  36  56  78 109 148 184 228 302 356
#     4  10  22  37  57  89 123 154 195 249 300 364
#     4   8  16  30  52  79 108 151 204 248 286 348
#     4  10  20  34  54  68  86 120 168 220 298 368
#     4  10  20  34  52  69  88 117 162 226 288 364
#     4  10  19  36  61  84 118 165 207 249 307 357
#
# _framework density 20.317609999999998
#
# number of rings (size 3 to 8) (size 9 to 14) (size 15 to 20)
#    0.000    2.182    0.000    2.727    8.909    0.000 
#    1.636    0.000   72.000    0.000    0.000    0.000 
#    0.000    1.455    0.000    0.000    0.000    0.000 
#
# Total GULP energy -245091.305942 kJ/mol
# GULP energy per Si atom -5570.256953 kJ/mol
# Density = 2.027137 g / cm^3
# Si number density = 20.317610 Si / 1000 Ang^3
#
#
#
# Elastic Constant Matrix: (Units=GPa)
#
#
# Indices 1 2 3 4 5 6 
#
# 1 68.4825 37.5501 19.7790 0.0000 0.0000 0.0000
# 2 37.5501 68.4840 19.7791 0.0000 0.0000 0.0000
# 3 19.7790 19.7791 117.6601 0.0000 0.0000 0.0000
# 4 0.0000 0.0000 0.0000 20.0601 0.0000 0.0000
# 5 0.0000 0.0000 0.0000 0.0000 20.0596 0.0000
# 6 0.0000 0.0000 0.0000 0.0000 0.0000 29.5366
#
#
#
# Elastic Compliance Matrix: (Units=1/GPa)
#
#
# Indices 1 2 3 4 5 6 
#
# 1 0.021195 -0.011133 -0.001691 0.000000 0.000000 0.000000
# 2 -0.011133 0.021195 -0.001691 0.000000 0.000000 0.000000
# 3 -0.001691 -0.001691 0.009068 0.000000 0.000000 0.000000
# 4 0.000000 0.000000 0.000000 0.049850 0.000000 0.000000
# 5 0.000000 0.000000 0.000000 0.000000 0.049851 0.000000
# 6 0.000000 0.000000 0.000000 0.000000 0.000000 0.033856
#
#
# Mechanical properties :
#
#
# Convention : Reuss Voigt Hill
#
# Bulk Modulus (GPa) = 44.59118 45.42700 45.00909
# Shear Modulus (GPa) = 22.57111 25.76584 24.16847
#
# Velocity S-wave (km/s) = 3.33665 3.56498 3.45270
# Velocity P-wave (km/s) = 6.06952 6.27315 6.17217
#
# Compressibility (1/GPa) = 0.02242596
#
# Stress axis : x y z
#
# Youngs Moduli (GPa) = 47.18065 47.18168 110.28105
#
# Poissons Ratio (x) = 0.52527 0.18654
# Poissons Ratio (y) = 0.52526 0.18653
# Poissons Ratio (z) = 0.07981 0.07980
#
# Static dielectric constant tensor:
#      x y z
#    x 1.802090 0.000000 0.000000 
#    y 0.000000 1.802090 0.000000 
#    z 0.000000 0.000000 1.808770 
# 
# From -- ./inp_files/1207.got.cif
#   From: 2010.05.17/outbox.cif.g08.bks.cpg/sg95_1_cif.got.tgz:1207.got - 2010.06.03 19:46:49.
