data_PCOD9550359
_publ_section_title
;
Structure prediction by ZEFSAII (Michael W. Deem and Ramdas Pophale) SiO2 
 PCOD9550359
Probable space group: P 42 21 2
;
_chemical_formula_sum "Si O2"
_cell_formula_units_Z 34
_cell_length_a 8.123984
_cell_length_b 8.123984
_cell_length_c 21.726394
_cell_angle_alpha 90.000000
_cell_angle_beta 90.000000
_cell_angle_gamma 90.000000
_cell_volume 1433.922799
_symmetry_space_group_name_H-M "P 42 21 2"
_symmetry_group_IT_number 94
_symmetry_cell_setting 'tetragonal'
loop_
_space_group_symop_operation_xyz
x,y,z
1/2-y,1/2+x,1/2+z
-x,-y,z
1/2+y,1/2-x,1/2+z
1/2+x,1/2-y,1/2-z
1/2-x,1/2+y,1/2-z
y,x,-z
-y,-x,-z
loop_
_atom_site_type_symbol
_atom_site_label
_atom_site_fract_x
_atom_site_fract_y
_atom_site_fract_z
Si Si1 0.000000 0.000000 0.500000
Si Si2 0.085788 0.776085 0.934553
Si Si3 0.922417 0.286536 0.408662
Si Si4 0.603034 0.743259 0.318097
Si Si5 0.096176 0.750356 0.700785
O O1 0.016539 0.843772 0.458061
O O2 0.128584 0.600391 0.901355
O O3 0.157154 0.900697 0.884274
O O4 0.892182 0.730304 0.937050
O O5 0.166485 0.833515 0.000000
O O6 0.861421 0.193692 0.348098
O O7 0.670700 0.616513 0.267693
O O8 0.425318 0.812284 0.299614
O O9 0.717985 0.907279 0.317976
#
# Coordination Sequence:
#
# PCOD9550359 Si02
#       5
#     2   8   8   8   8
#     4  12  24  44  66 104 136 190 234 282 344 452
#     4  11  25  45  69 104 146 186 237 306 363 445
#     4  11  25  43  71 100 140 188 239 291 369 431
#     4  11  25  45  69 104 145 185 250 307 371 440
#     4  11  25  44  72 103 140 193 243 309 372 439
#
# _framework density 23.711182000000001
#
# number of rings (size 3 to 8) (size 9 to 14) (size 15 to 20)
#    0.000    0.941    1.176    4.235    3.294   11.294 
#    0.000    0.000    0.000    0.000    0.000    0.000 
#    0.000    0.000    0.000    0.000    0.000    0.000 
#
# Total GULP energy -189874.785406 kJ/mol
# GULP energy per Si atom -5584.552512 kJ/mol
# Density = 2.365721 g / cm^3
# Si number density = 23.711182 Si / 1000 Ang^3
#
#
#
# Elastic Constant Matrix: (Units=GPa)
#
#
# Indices 1 2 3 4 5 6 
#
# 1 110.8170 20.6511 41.4837 0.0000 0.0000 0.0000
# 2 20.6511 110.8174 41.4841 0.0000 0.0000 0.0000
# 3 41.4837 41.4841 162.6175 0.0000 0.0000 0.0000
# 4 0.0000 0.0000 0.0000 31.6298 0.0000 0.0000
# 5 0.0000 0.0000 0.0000 0.0000 31.6298 0.0000
# 6 0.0000 0.0000 0.0000 0.0000 0.0000 38.2608
#
#
#
# Elastic Compliance Matrix: (Units=1/GPa)
#
#
# Indices 1 2 3 4 5 6 
#
# 1 0.010078 -0.001012 -0.002313 0.000000 0.000000 0.000000
# 2 -0.001012 0.010078 -0.002313 0.000000 0.000000 0.000000
# 3 -0.002313 -0.002313 0.007329 0.000000 0.000000 0.000000
# 4 0.000000 0.000000 0.000000 0.031616 0.000000 0.000000
# 5 0.000000 0.000000 0.000000 0.000000 0.031616 0.000000
# 6 0.000000 0.000000 0.000000 0.000000 0.000000 0.026136
#
#
# Mechanical properties :
#
#
# Convention : Reuss Voigt Hill
#
# Bulk Modulus (GPa) = 61.68918 65.72108 63.70513
# Shear Modulus (GPa) = 37.44396 39.01295 38.22845
#
# Velocity S-wave (km/s) = 3.97819 4.06068 4.01964
# Velocity P-wave (km/s) = 6.86838 7.05429 6.96196
#
# Compressibility (1/GPa) = 0.01621030
#
# Stress axis : x y z
#
# Youngs Moduli (GPa) = 99.22311 99.22331 136.43761
#
# Poissons Ratio (x) = 0.10045 0.31554
# Poissons Ratio (y) = 0.10045 0.31554
# Poissons Ratio (z) = 0.22948 0.22948
#
# Static dielectric constant tensor:
#      x y z
#    x 1.854170 0.000000 0.000000 
#    y 0.000000 1.854170 0.000000 
#    z 0.000000 0.000000 1.785560 
# 
# From -- ./inp_files/4504.got.cif
#   From: 2010.05.17/outbox.cif.g08.bks.cpg/sg94_3_cif.got.tgz:4504.got - 2010.06.03 19:43:16.
