data_PCOD9550876
_publ_section_title
;
Structure prediction by ZEFSAII (Michael W. Deem and Ramdas Pophale) SiO2 
 PCOD9550876
Probable space group: P 43 21 2
;
_chemical_formula_sum "Si O2"
_cell_formula_units_Z 24
_cell_length_a 9.462247
_cell_length_b 9.462247
_cell_length_c 9.830784
_cell_angle_alpha 90.000000
_cell_angle_beta 90.000000
_cell_angle_gamma 90.000000
_cell_volume 880.190578
_symmetry_space_group_name_H-M "P 43 21 2"
_symmetry_group_IT_number 96
_symmetry_cell_setting 'tetragonal'
loop_
_space_group_symop_operation_xyz
x,y,z
1/2-y,1/2+x,3/4+z
-x,-y,1/2+z
1/2+y,1/2-x,1/4+z
1/2+x,1/2-y,1/4-z
1/2-x,1/2+y,3/4-z
y,x,-z
-y,-x,1/2-z
loop_
_atom_site_type_symbol
_atom_site_label
_atom_site_fract_x
_atom_site_fract_y
_atom_site_fract_z
Si Si1 0.518937 0.758487 0.510205
Si Si2 0.031294 0.801277 0.032819
Si Si3 0.212272 0.655336 0.523889
O O1 0.625638 0.625638 0.500000
O O2 0.502302 0.795446 0.351046
O O3 0.371603 0.700756 0.568556
O O4 0.604194 0.866865 0.603618
O O5 0.966695 0.732022 0.165931
O O6 0.196303 0.835301 0.046199
O O7 0.940549 0.940549 0.000000
#
# Coordination Sequence:
#
# PCOD9550876 Si02
#       3
#     8   8   8
#     4   9  20  43  70 104 147 193 250 307 372 450
#     4   9  20  43  70 104 147 193 250 307 372 450
#     4  10  20  44  78 106 148 202 248 312 384 450
#
# _framework density 27.266821
#
# number of rings (size 3 to 8) (size 9 to 14) (size 15 to 20)
#    0.000    2.667    0.000    0.000    0.000    0.000 
#    0.000  140.000    0.000    0.000    0.000    0.000 
#    0.000    0.000    0.000    0.000    0.000    0.000 
#
# Total GULP energy -134482.947305 kJ/mol
# GULP energy per Si atom -5603.456138 kJ/mol
# Density = 2.720476 g / cm^3
# Si number density = 27.266821 Si / 1000 Ang^3
#
#
#
# Elastic Constant Matrix: (Units=GPa)
#
#
# Indices 1 2 3 4 5 6 
#
# 1 106.9216 -6.2829 11.7254 0.0000 0.0000 0.0000
# 2 -6.2829 106.9216 11.7254 0.0000 0.0000 0.0000
# 3 11.7254 11.7254 152.2377 0.0000 0.0000 0.0000
# 4 0.0000 0.0000 0.0000 50.4494 0.0000 0.0000
# 5 0.0000 0.0000 0.0000 0.0000 50.4494 0.0000
# 6 0.0000 0.0000 0.0000 0.0000 0.0000 43.9504
#
#
#
# Elastic Compliance Matrix: (Units=1/GPa)
#
#
# Indices 1 2 3 4 5 6 
#
# 1 0.009476 0.000642 -0.000779 0.000000 0.000000 0.000000
# 2 0.000642 0.009476 -0.000779 0.000000 0.000000 0.000000
# 3 -0.000779 -0.000779 0.006689 0.000000 0.000000 0.000000
# 4 0.000000 0.000000 0.000000 0.019822 0.000000 0.000000
# 5 0.000000 0.000000 0.000000 0.000000 0.019822 0.000000
# 6 0.000000 0.000000 0.000000 0.000000 0.000000 0.022753
#
#
# Mechanical properties :
#
#
# Convention : Reuss Voigt Hill
#
# Bulk Modulus (GPa) = 42.00309 44.49074 43.24691
# Shear Modulus (GPa) = 51.12183 52.23072 51.67628
#
# Velocity S-wave (km/s) = 4.33468 4.38144 4.35812
# Velocity P-wave (km/s) = 6.36321 6.47674 6.42023
#
# Compressibility (1/GPa) = 0.02380777
#
# Stress axis : x y z
#
# Youngs Moduli (GPa) = 105.53143 105.53143 149.50545
#
# Poissons Ratio (x) = -0.06778 0.11651
# Poissons Ratio (y) = -0.06778 0.11651
# Poissons Ratio (z) = 0.08224 0.08224
#
# Static dielectric constant tensor:
#      x y z
#    x 2.139250 0.000000 0.000000 
#    y 0.000000 2.139250 0.000000 
#    z 0.000000 0.000000 2.229200 
# 
# From -- ./inp_files/1812.got.cif
#   From: 2010.05.17/outbox.cif.g08.bks.cpg/sg96_1_cif.got.tgz:1812.got - 2010.06.03 19:52:08.
