data_PCOD9550945
_publ_section_title
;
Structure prediction by ZEFSAII (Michael W. Deem and Ramdas Pophale) SiO2 
 PCOD9550945
Probable space group: P 43 21 2
;
_chemical_formula_sum "Si O2"
_cell_formula_units_Z 56
_cell_length_a 21.993037
_cell_length_b 21.993037
_cell_length_c 5.634085
_cell_angle_alpha 90.000000
_cell_angle_beta 90.000000
_cell_angle_gamma 90.000000
_cell_volume 2725.171287
_symmetry_space_group_name_H-M "P 43 21 2"
_symmetry_group_IT_number 96
_symmetry_cell_setting 'tetragonal'
loop_
_space_group_symop_operation_xyz
x,y,z
1/2-y,1/2+x,3/4+z
-x,-y,1/2+z
1/2+y,1/2-x,1/4+z
1/2+x,1/2-y,1/4-z
1/2-x,1/2+y,3/4-z
y,x,-z
-y,-x,1/2-z
loop_
_atom_site_type_symbol
_atom_site_label
_atom_site_fract_x
_atom_site_fract_y
_atom_site_fract_z
Si Si1 0.017923 0.647897 0.118846
Si Si2 0.871077 0.276496 0.754609
Si Si3 0.247299 0.021817 0.704898
Si Si4 0.315740 0.091694 0.077476
Si Si5 0.848586 0.749481 0.048817
Si Si6 0.441221 0.938911 0.707884
Si Si7 0.794730 0.106120 0.242110
O O1 0.072206 0.676971 0.268479
O O2 0.951239 0.653357 0.226649
O O3 0.028253 0.580984 0.030544
O O4 0.012099 0.693015 0.894117
O O5 0.809598 0.314164 0.696810
O O6 0.878800 0.235113 0.517485
O O7 0.873670 0.241723 0.012963
O O8 0.237661 0.082760 0.545780
O O9 0.199801 0.967546 0.736369
O O10 0.267197 0.049226 0.952412
O O11 0.275684 0.145146 0.182389
O O12 0.377799 0.100811 0.935899
O O13 0.807177 0.807177 0.000000
O O14 0.512786 0.926810 0.665959
O O15 0.857570 0.142431 0.250000
#
# Coordination Sequence:
#
# PCOD9550945 Si02
#       7
#     8   8   8   8   8   8   8
#     4  10  22  39  56  84 124 168 221 262 321 386
#     4  11  24  41  67  96 134 173 219 278 328 388
#     4  10  22  43  62  90 124 169 210 264 340 394
#     4  11  23  40  62  81 125 174 214 274 329 390
#     4  11  26  42  62  95 127 173 224 274 336 403
#     4  12  24  36  55  88 125 179 235 278 319 381
#     4  11  23  43  70 102 132 171 222 278 337 400
#
# _framework density 20.549168000000002
#
# number of rings (size 3 to 8) (size 9 to 14) (size 15 to 20)
#    0.000    1.143    2.857    3.000   10.000    0.571 
#    0.000    0.000    0.000    0.000    3.714    0.000 
#    0.000    0.000    0.000    0.000    0.000    0.000 
#
# Total GULP energy -311829.370294 kJ/mol
# GULP energy per Si atom -5568.381612 kJ/mol
# Density = 2.050240 g / cm^3
# Si number density = 20.549168 Si / 1000 Ang^3
#
#
#
# Elastic Constant Matrix: (Units=GPa)
#
#
# Indices 1 2 3 4 5 6 
#
# 1 85.9347 52.4146 24.0960 0.0000 0.0000 0.0000
# 2 52.4146 85.9361 24.0972 0.0000 0.0000 0.0000
# 3 24.0960 24.0972 75.2837 0.0000 0.0000 0.0000
# 4 0.0000 0.0000 0.0000 25.5053 0.0000 0.0000
# 5 0.0000 0.0000 0.0000 0.0000 25.5048 0.0000
# 6 0.0000 0.0000 0.0000 0.0000 0.0000 29.7183
#
#
#
# Elastic Compliance Matrix: (Units=1/GPa)
#
#
# Indices 1 2 3 4 5 6 
#
# 1 0.018984 -0.010849 -0.002604 0.000000 0.000000 0.000000
# 2 -0.010849 0.018984 -0.002604 0.000000 0.000000 0.000000
# 3 -0.002604 -0.002604 0.014950 0.000000 0.000000 0.000000
# 4 0.000000 0.000000 0.000000 0.039208 0.000000 0.000000
# 5 0.000000 0.000000 0.000000 0.000000 0.039208 0.000000
# 6 0.000000 0.000000 0.000000 0.000000 0.000000 0.033649
#
#
# Mechanical properties :
#
#
# Convention : Reuss Voigt Hill
#
# Bulk Modulus (GPa) = 48.06607 49.81889 48.94248
# Shear Modulus (GPa) = 24.50624 25.91548 25.21086
#
# Velocity S-wave (km/s) = 3.45710 3.55511 3.50645
# Velocity P-wave (km/s) = 6.27510 6.41468 6.34528
#
# Compressibility (1/GPa) = 0.02080470
#
# Stress axis : x y z
#
# Youngs Moduli (GPa) = 52.67673 52.67714 66.88987
#
# Poissons Ratio (x) = 0.57147 0.17416
# Poissons Ratio (y) = 0.57147 0.17419
# Poissons Ratio (z) = 0.13715 0.13718
#
# Static dielectric constant tensor:
#      x y z
#    x 1.850800 0.000000 0.000000 
#    y 0.000000 1.850800 0.000000 
#    z 0.000000 0.000000 1.959390 
# 
# From -- ./inp_files/816.got.cif
#   From: 2010.05.17/outbox.cif.g08.bks.cpg/sg96_1_cif.got.tgz:816.got - 2010.06.03 19:52:08.
