data_PCOD9550414
_publ_section_title
;
Structure prediction by ZEFSAII (Michael W. Deem and Ramdas Pophale) SiO2 
 PCOD9550414
Probable space group: P 43 2 2
;
_chemical_formula_sum "Si O2"
_cell_formula_units_Z 40
_cell_length_a 22.154063
_cell_length_b 22.154063
_cell_length_c 5.344146
_cell_angle_alpha 90.000000
_cell_angle_beta 90.000000
_cell_angle_gamma 90.000000
_cell_volume 2622.920257
_symmetry_space_group_name_H-M "P 43 2 2"
_symmetry_group_IT_number 95
_symmetry_cell_setting 'tetragonal'
loop_
_space_group_symop_operation_xyz
x,y,z
-y,x,3/4+z
-x,-y,1/2+z
y,-x,1/4+z
x,-y,1/2-z
-x,y,-z
y,x,1/4-z
-y,-x,3/4-z
loop_
_atom_site_type_symbol
_atom_site_label
_atom_site_fract_x
_atom_site_fract_y
_atom_site_fract_z
Si Si1 0.736987 0.427253 0.754885
Si Si2 0.063212 0.565909 0.755211
Si Si3 0.686126 0.021483 0.000641
Si Si4 0.663683 0.428133 0.261108
Si Si5 0.395892 0.872653 0.493114
O O1 0.746821 0.500000 0.750000
O O2 0.711397 0.413388 0.480172
O O3 0.801181 0.395106 0.781083
O O4 0.691517 0.412532 0.986633
O O5 0.033520 0.500000 0.750000
O O6 0.016398 0.621757 0.753776
O O7 0.102233 0.571623 0.504341
O O8 0.105321 0.572736 0.999605
O O9 0.718087 0.000000 0.250000
O O10 0.667600 0.091245 0.998151
O O11 0.717394 0.000000 0.750000
O O12 0.653213 0.500000 0.250000
O O13 0.605125 0.394876 0.375000
#
# Coordination Sequence:
#
# PCOD9550414 Si02
#       5
#     8   8   8   8   8
#     4  10  19  30  46  64  80  95 110 131 162 201
#     4  10  17  23  32  47  70 100 129 150 162 172
#     4   8  16  24  31  45  68  98 128 151 164 173
#     4  10  21  37  52  66  79  89 103 128 167 222
#     4  10  18  26  36  52  73  96 120 142 162 184
#
# _framework density 15.250177000000001
#
# number of rings (size 3 to 8) (size 9 to 14) (size 15 to 20)
#    0.000    2.400    0.000    3.600    0.000    9.600 
#    0.000    3.000    0.000    0.000    0.000    0.000 
#    0.000    0.000    0.000    0.000    0.000    0.000 
#
# Total GULP energy -222682.241210 kJ/mol
# GULP energy per Si atom -5567.056030 kJ/mol
# Density = 1.521547 g / cm^3
# Si number density = 15.250177 Si / 1000 Ang^3
#
#
#
# Elastic Constant Matrix: (Units=GPa)
#
#
# Indices 1 2 3 4 5 6 
#
# 1 37.6041 21.9456 20.2328 0.0000 0.0000 0.0000
# 2 21.9456 37.5987 20.2346 0.0000 0.0000 0.0000
# 3 20.2328 20.2346 143.6270 0.0000 0.0000 0.0000
# 4 0.0000 0.0000 0.0000 15.0787 0.0000 0.0000
# 5 0.0000 0.0000 0.0000 0.0000 15.0788 0.0000
# 6 0.0000 0.0000 0.0000 0.0000 0.0000 -0.9416
#
#
#
# Elastic Compliance Matrix: (Units=1/GPa)
#
#
# Indices 1 2 3 4 5 6 
#
# 1 0.041219 -0.022651 -0.002615 0.000000 0.000000 0.000000
# 2 -0.022651 0.041226 -0.002617 0.000000 0.000000 0.000000
# 3 -0.002615 -0.002617 0.007700 0.000000 0.000000 0.000000
# 4 0.000000 0.000000 0.000000 0.066319 0.000000 0.000000
# 5 0.000000 0.000000 0.000000 0.000000 0.066318 0.000000
# 6 0.000000 0.000000 0.000000 0.000000 0.000000 -1.062023
#
#
# Mechanical properties :
#
#
# Convention : Reuss Voigt Hill
#
# Bulk Modulus (GPa) = 29.08887 38.18397 33.63642
# Shear Modulus (GPa) = -6.47656 16.27097 4.89720
#
# Velocity S-wave (km/s) = -2.06303 3.26994 1.79394
# Velocity P-wave (km/s) = 3.66621 6.27291 5.13763
#
# Compressibility (1/GPa) = 0.03437740
#
# Stress axis : x y z
#
# Youngs Moduli (GPa) = 24.26050 24.25641 129.87642
#
# Poissons Ratio (x) = 0.54944 0.33968
# Poissons Ratio (y) = 0.54953 0.33991
# Poissons Ratio (z) = 0.06345 0.06348
#
# Static dielectric constant tensor:
#      x y z
#    x 1.509560 0.000000 0.000000 
#    y 0.000000 1.509560 0.000000 
#    z 0.000000 0.000000 1.600290 
# 
# From -- ./inp_files/1072.got.cif
#   From: 2010.05.17/outbox.cif.g08.bks.cpg/sg95_1_cif.got.tgz:1072.got - 2010.06.03 19:46:49.
