data_PCOD9550880
_publ_section_title
;
Structure prediction by ZEFSAII (Michael W. Deem and Ramdas Pophale) SiO2 
 PCOD9550880
Probable space group: P 43 21 2
;
_chemical_formula_sum "Si O2"
_cell_formula_units_Z 36
_cell_length_a 7.019639
_cell_length_b 7.019639
_cell_length_c 25.357614
_cell_angle_alpha 90.000000
_cell_angle_beta 90.000000
_cell_angle_gamma 90.000000
_cell_volume 1249.504841
_symmetry_space_group_name_H-M "P 43 21 2"
_symmetry_group_IT_number 96
_symmetry_cell_setting 'tetragonal'
loop_
_space_group_symop_operation_xyz
x,y,z
1/2-y,1/2+x,3/4+z
-x,-y,1/2+z
1/2+y,1/2-x,1/4+z
1/2+x,1/2-y,1/4-z
1/2-x,1/2+y,3/4-z
y,x,-z
-y,-x,1/2-z
loop_
_atom_site_type_symbol
_atom_site_label
_atom_site_fract_x
_atom_site_fract_y
_atom_site_fract_z
Si Si1 0.761040 0.590057 0.890013
Si Si2 0.459467 0.849431 0.796246
Si Si3 0.829916 0.082853 0.137141
Si Si4 0.349549 0.349549 0.500000
Si Si5 0.230282 0.293600 0.230479
O O1 0.910959 0.684942 0.850872
O O2 0.545676 0.520402 0.880614
O O3 0.895030 0.411122 0.907567
O O4 0.745732 0.711814 0.944890
O O5 0.577280 0.692836 0.764372
O O6 0.183767 0.749306 0.679460
O O7 0.423157 0.042790 0.761927
O O8 0.780329 0.174946 0.080973
O O9 0.575479 0.325079 0.492540
#
# Coordination Sequence:
#
# PCOD9550880 Si02
#       5
#     8   8   8   4   8
#     4  10  24  45  80 109 167 212 273 355 429 506
#     4  10  23  49  81 126 163 231 284 359 435 522
#     4  11  24  49  82 120 163 222 290 349 443 518
#     4  10  20  48  76 110 164 226 270 352 438 504
#     4  10  23  48  79 120 168 221 294 349 445 519
#
# _framework density 28.811412000000001
#
# number of rings (size 3 to 8) (size 9 to 14) (size 15 to 20)
#    0.000    1.778    2.222    0.000    3.111    0.000 
#   16.000   22.222    4.889    5.333    0.000    0.000 
#    0.000    0.000    0.000    0.000    0.000    0.000 
#
# Total GULP energy -201416.662983 kJ/mol
# GULP energy per Si atom -5594.907305 kJ/mol
# Density = 2.874584 g / cm^3
# Si number density = 28.811412 Si / 1000 Ang^3
#
#
#
# Elastic Constant Matrix: (Units=GPa)
#
#
# Indices 1 2 3 4 5 6 
#
# 1 151.9648 50.1784 37.8225 0.0000 0.0000 0.0000
# 2 50.1784 151.9648 37.8225 0.0000 0.0000 0.0000
# 3 37.8225 37.8225 116.8216 0.0000 0.0000 0.0000
# 4 0.0000 0.0000 0.0000 47.6195 0.0000 0.0000
# 5 0.0000 0.0000 0.0000 0.0000 47.6195 0.0000
# 6 0.0000 0.0000 0.0000 0.0000 0.0000 66.2639
#
#
#
# Elastic Compliance Matrix: (Units=1/GPa)
#
#
# Indices 1 2 3 4 5 6 
#
# 1 0.007727 -0.002098 -0.001822 0.000000 0.000000 0.000000
# 2 -0.002098 0.007727 -0.001822 0.000000 0.000000 0.000000
# 3 -0.001822 -0.001822 0.009740 0.000000 0.000000 0.000000
# 4 0.000000 0.000000 0.000000 0.021000 0.000000 0.000000
# 5 0.000000 0.000000 0.000000 0.000000 0.021000 0.000000
# 6 0.000000 0.000000 0.000000 0.000000 0.000000 0.015091
#
#
# Mechanical properties :
#
#
# Convention : Reuss Voigt Hill
#
# Bulk Modulus (GPa) = 72.94858 74.71090 73.82974
# Shear Modulus (GPa) = 50.84444 51.96243 51.40344
#
# Velocity S-wave (km/s) = 4.20543 4.25141 4.22848
# Velocity P-wave (km/s) = 6.99680 7.07719 7.03711
#
# Compressibility (1/GPa) = 0.01370829
#
# Stress axis : x y z
#
# Youngs Moduli (GPa) = 129.42079 129.42079 102.66785
#
# Poissons Ratio (x) = 0.27149 0.18711
# Poissons Ratio (y) = 0.27149 0.18711
# Poissons Ratio (z) = 0.23586 0.23586
#
# Static dielectric constant tensor:
#      x y z
#    x 2.361920 0.000000 0.000000 
#    y 0.000000 2.361920 0.000000 
#    z 0.000000 0.000000 2.324600 
# 
# From -- ./inp_files/4064.got.cif
#   From: 2010.05.17/outbox.cif.g08.bks.cpg/sg96_3_cif.got.tgz:4064.got - 2010.06.03 19:52:08.
