data_PCOD9550885
_publ_section_title
;
Structure prediction by ZEFSAII (Michael W. Deem and Ramdas Pophale) SiO2 
 PCOD9550885
Probable space group: P 43 21 2
;
_chemical_formula_sum "Si O2"
_cell_formula_units_Z 48
_cell_length_a 17.882982
_cell_length_b 17.882982
_cell_length_c 5.504426
_cell_angle_alpha 90.000000
_cell_angle_beta 90.000000
_cell_angle_gamma 90.000000
_cell_volume 1760.321188
_symmetry_space_group_name_H-M "P 43 21 2"
_symmetry_group_IT_number 96
_symmetry_cell_setting 'tetragonal'
loop_
_space_group_symop_operation_xyz
x,y,z
1/2-y,1/2+x,3/4+z
-x,-y,1/2+z
1/2+y,1/2-x,1/4+z
1/2+x,1/2-y,1/4-z
1/2-x,1/2+y,3/4-z
y,x,-z
-y,-x,1/2-z
loop_
_atom_site_type_symbol
_atom_site_label
_atom_site_fract_x
_atom_site_fract_y
_atom_site_fract_z
Si Si1 0.903517 0.456847 0.418868
Si Si2 0.675857 0.446728 0.123245
Si Si3 0.379196 0.492890 0.104146
Si Si4 0.061631 0.688767 0.396258
Si Si5 0.277984 0.362056 0.288765
Si Si6 0.662018 0.202390 0.245876
O O1 0.980845 0.414960 0.372170
O O2 0.881582 0.508846 0.185716
O O3 0.829603 0.405863 0.425241
O O4 0.639075 0.447809 0.392249
O O5 0.735591 0.513900 0.171830
O O6 0.728142 0.373409 0.108695
O O7 0.631572 0.472162 0.876686
O O8 0.323636 0.420715 0.126596
O O9 0.455607 0.455607 0.000000
O O10 0.092902 0.706746 0.135040
O O11 0.132363 0.680024 0.575020
O O12 0.332391 0.332391 0.500000
O O13 0.234281 0.291872 0.177245
#
# Coordination Sequence:
#
# PCOD9550885 Si02
#       6
#     8   8   8   8   8   8
#     4   9  19  32  49  75 107 157 215 265 316 362
#     4  10  21  36  58  83 116 159 203 261 321 374
#     4  11  21  39  60  85 113 156 215 264 316 380
#     4   9  19  37  49  79 110 158 209 263 306 373
#     4  11  23  35  60  81 115 168 220 270 323 382
#     4  10  21  36  52  79 120 158 211 265 322 381
#
# _framework density 27.267751000000001
#
# number of rings (size 3 to 8) (size 9 to 14) (size 15 to 20)
#    0.000    2.000    1.667    2.500    4.667    0.000 
#    0.000    0.000    0.000    0.000    0.000    0.000 
#    0.000    0.000    5.667    0.167    0.000    0.667 
#
# Total GULP energy -267810.808504 kJ/mol
# GULP energy per Si atom -5579.391844 kJ/mol
# Density = 2.720569 g / cm^3
# Si number density = 27.267751 Si / 1000 Ang^3
#
#
#
# Elastic Constant Matrix: (Units=GPa)
#
#
# Indices 1 2 3 4 5 6 
#
# 1 86.4646 29.5370 66.0189 0.0000 0.0000 0.0000
# 2 29.5370 86.4646 66.0189 0.0000 0.0000 0.0000
# 3 66.0189 66.0189 145.1116 0.0000 0.0000 0.0000
# 4 0.0000 0.0000 0.0000 52.7669 0.0000 0.0000
# 5 0.0000 0.0000 0.0000 0.0000 52.7669 0.0000
# 6 0.0000 0.0000 0.0000 0.0000 0.0000 54.3133
#
#
#
# Elastic Compliance Matrix: (Units=1/GPa)
#
#
# Indices 1 2 3 4 5 6 
#
# 1 0.017723 0.000157 -0.008134 0.000000 0.000000 0.000000
# 2 0.000157 0.017723 -0.008134 0.000000 0.000000 0.000000
# 3 -0.008134 -0.008134 0.014293 0.000000 0.000000 0.000000
# 4 0.000000 0.000000 0.000000 0.018951 0.000000 0.000000
# 5 0.000000 0.000000 0.000000 0.000000 0.018951 0.000000
# 6 0.000000 0.000000 0.000000 0.000000 0.000000 0.018412
#
#
# Mechanical properties :
#
#
# Convention : Reuss Voigt Hill
#
# Bulk Modulus (GPa) = 57.09627 71.24341 64.16984
# Shear Modulus (GPa) = 34.69467 42.40045 38.54756
#
# Velocity S-wave (km/s) = 3.57090 3.94758 3.76396
# Velocity P-wave (km/s) = 6.16331 6.85288 6.51722
#
# Compressibility (1/GPa) = 0.01751428
#
# Stress axis : x y z
#
# Youngs Moduli (GPa) = 56.42468 56.42468 69.96608
#
# Poissons Ratio (x) = -0.00883 0.56912
# Poissons Ratio (y) = -0.00883 0.56912
# Poissons Ratio (z) = 0.45897 0.45897
#
# Static dielectric constant tensor:
#      x y z
#    x 2.216540 0.000000 0.000000 
#    y 0.000000 2.216540 0.000000 
#    z 0.000000 0.000000 2.176560 
# 
# From -- ./inp_files/628.got.cif
#   From: 2010.05.17/outbox.cif.g08.bks.cpg/sg96_1_cif.got.tgz:628.got - 2010.06.03 19:52:08.
