data_PCOD9550279
_publ_section_title
;
Structure prediction by ZEFSAII (Michael W. Deem and Ramdas Pophale) SiO2 
 PCOD9550279
Probable space group: P 42 21 2
;
_chemical_formula_sum "Si O2"
_cell_formula_units_Z 40
_cell_length_a 8.466213
_cell_length_b 8.466213
_cell_length_c 24.380623
_cell_angle_alpha 90.000000
_cell_angle_beta 90.000000
_cell_angle_gamma 90.000000
_cell_volume 1747.524126
_symmetry_space_group_name_H-M "P 42 21 2"
_symmetry_group_IT_number 94
_symmetry_cell_setting 'tetragonal'
loop_
_space_group_symop_operation_xyz
x,y,z
1/2-y,1/2+x,1/2+z
-x,-y,z
1/2+y,1/2-x,1/2+z
1/2+x,1/2-y,1/2-z
1/2-x,1/2+y,1/2-z
y,x,-z
-y,-x,-z
loop_
_atom_site_type_symbol
_atom_site_label
_atom_site_fract_x
_atom_site_fract_y
_atom_site_fract_z
Si Si1 0.081703 0.329003 0.261539
Si Si2 0.414144 0.252745 0.949775
Si Si3 0.249326 0.412568 0.548937
Si Si4 0.562150 0.664518 0.658317
Si Si5 0.306729 0.268520 0.164195
O O1 0.236393 0.333632 0.299815
O O2 0.151345 0.302202 0.201018
O O3 0.000000 0.500000 0.259702
O O4 0.956017 0.223673 0.294938
O O5 0.594646 0.197961 0.953030
O O6 0.374225 0.321575 0.889708
O O7 0.310663 0.091825 0.954264
O O8 0.363667 0.363667 0.000000
O O9 0.363556 0.363556 0.500000
O O10 0.341299 0.382008 0.604994
O O11 0.500000 0.500000 0.683064
O O12 0.412475 0.776758 0.644888
#
# Coordination Sequence:
#
# PCOD9550279 Si02
#       5
#     8   8   8   8   8
#     4  10  25  42  70 108 144 189 238 301 354 436
#     4  11  26  46  71 101 140 189 234 303 364 433
#     4  11  26  44  71 100 140 179 243 295 359 442
#     4  11  22  42  71 100 137 185 234 288 359 424
#     4  11  23  43  71 102 148 184 242 290 364 432
#
# _framework density 22.889527000000001
#
# number of rings (size 3 to 8) (size 9 to 14) (size 15 to 20)
#    0.000    1.200    2.000    2.400    5.600    2.000 
#    0.000    4.000    0.000    0.000    0.000    0.000 
#    0.000    0.000    0.000    0.000    0.000    0.000 
#
# Total GULP energy -223857.195904 kJ/mol
# GULP energy per Si atom -5596.429898 kJ/mol
# Density = 2.283743 g / cm^3
# Si number density = 22.889527 Si / 1000 Ang^3
#
#
#
# Elastic Constant Matrix: (Units=GPa)
#
#
# Indices 1 2 3 4 5 6 
#
# 1 78.2011 33.7770 48.7588 0.0000 0.0000 0.0000
# 2 33.7770 78.2011 48.7588 0.0000 0.0000 0.0000
# 3 48.7588 48.7588 139.1374 0.0000 0.0000 0.0000
# 4 0.0000 0.0000 0.0000 33.1131 0.0000 0.0000
# 5 0.0000 0.0000 0.0000 0.0000 33.1131 0.0000
# 6 0.0000 0.0000 0.0000 0.0000 0.0000 33.2245
#
#
#
# Elastic Compliance Matrix: (Units=1/GPa)
#
#
# Indices 1 2 3 4 5 6 
#
# 1 0.017682 -0.004829 -0.004504 0.000000 0.000000 0.000000
# 2 -0.004829 0.017682 -0.004504 0.000000 0.000000 0.000000
# 3 -0.004504 -0.004504 0.010344 0.000000 0.000000 0.000000
# 4 0.000000 0.000000 0.000000 0.030199 0.000000 0.000000
# 5 0.000000 0.000000 0.000000 0.000000 0.030199 0.000000
# 6 0.000000 0.000000 0.000000 0.000000 0.000000 0.030098
#
#
# Mechanical properties :
#
#
# Convention : Reuss Voigt Hill
#
# Bulk Modulus (GPa) = 55.45349 62.01432 58.73391
# Shear Modulus (GPa) = 29.43097 30.83983 30.13540
#
# Velocity S-wave (km/s) = 3.58967 3.67459 3.63238
# Velocity P-wave (km/s) = 6.43896 6.71976 6.58086
#
# Compressibility (1/GPa) = 0.01803313
#
# Stress axis : x y z
#
# Youngs Moduli (GPa) = 56.55620 56.55620 96.67515
#
# Poissons Ratio (x) = 0.27310 0.43543
# Poissons Ratio (y) = 0.27310 0.43543
# Poissons Ratio (z) = 0.25473 0.25473
#
# Static dielectric constant tensor:
#      x y z
#    x 1.872650 0.000000 0.000000 
#    y 0.000000 1.872650 0.000000 
#    z 0.000000 0.000000 1.813830 
# 
# From -- ./inp_files/4993.got.cif
#   From: 2010.05.17/outbox.cif.g08.bks.cpg/sg94_3_cif.got.tgz:4993.got - 2010.06.03 19:43:16.
