data_PCOD9550061
_publ_section_title
;
Structure prediction by ZEFSAII (Michael W. Deem and Ramdas Pophale) SiO2 
 PCOD9550061
Probable space group: P 42 21 2
;
_chemical_formula_sum "Si O2"
_cell_formula_units_Z 56
_cell_length_a 12.042554
_cell_length_b 12.042554
_cell_length_c 18.920814
_cell_angle_alpha 90.000000
_cell_angle_beta 90.000000
_cell_angle_gamma 90.000000
_cell_volume 2743.955230
_symmetry_space_group_name_H-M "P 42 21 2"
_symmetry_group_IT_number 94
_symmetry_cell_setting 'tetragonal'
loop_
_space_group_symop_operation_xyz
x,y,z
1/2-y,1/2+x,1/2+z
-x,-y,z
1/2+y,1/2-x,1/2+z
1/2+x,1/2-y,1/2-z
1/2-x,1/2+y,1/2-z
y,x,-z
-y,-x,-z
loop_
_atom_site_type_symbol
_atom_site_label
_atom_site_fract_x
_atom_site_fract_y
_atom_site_fract_z
Si Si1 0.096368 0.267102 0.029727
Si Si2 0.633407 0.783494 0.548333
Si Si3 0.103979 0.941088 0.723679
Si Si4 0.346791 0.866109 0.669962
Si Si5 0.887596 0.776287 0.183691
Si Si6 0.302382 0.917079 0.214691
Si Si7 0.873192 0.520185 0.979688
O O1 0.057731 0.257795 0.109816
O O2 0.166108 0.166108 0.000000
O O3 0.170943 0.378879 0.026018
O O4 0.993371 0.277658 0.977268
O O5 0.693057 0.693057 0.500000
O O6 0.628387 0.784194 0.633947
O O7 0.682984 0.901702 0.523362
O O8 0.228279 0.917811 0.693276
O O9 0.069265 0.820005 0.751862
O O10 0.131629 0.033069 0.782957
O O11 0.000000 0.000000 0.682944
O O12 0.321349 0.734611 0.662947
O O13 0.463179 0.864074 0.713341
O O14 0.375102 0.932211 0.599233
O O15 0.866525 0.674844 0.238268
O O16 0.000000 0.500000 0.004599
#
# Coordination Sequence:
#
# PCOD9550061 Si02
#       7
#     8   8   8   8   8   8   8
#     4  11  21  40  65  90 122 168 222 268 328 400
#     4  11  23  41  65  98 130 170 216 280 339 394
#     4  11  24  38  61  97 136 159 221 288 335 394
#     4  11  21  42  66  91 123 185 215 265 345 415
#     4  11  23  40  63  94 131 170 221 283 337 408
#     4  11  22  43  67  94 133 178 223 271 356 412
#     4  10  20  39  66  86 125 167 217 262 325 408
#
# _framework density 20.408497000000001
#
# number of rings (size 3 to 8) (size 9 to 14) (size 15 to 20)
#    0.000    1.143    5.714    1.714    0.000    0.286 
#   12.857    1.429    0.000    0.000    0.000    0.000 
#    0.000    0.000    0.000    0.000    0.000    0.000 
#
# Total GULP energy -311760.684579 kJ/mol
# GULP energy per Si atom -5567.155082 kJ/mol
# Density = 2.036205 g / cm^3
# Si number density = 20.408497 Si / 1000 Ang^3
#
#
#
# Elastic Constant Matrix: (Units=GPa)
#
#
# Indices 1 2 3 4 5 6 
#
# 1 78.1788 18.7203 6.6271 0.0000 0.0000 0.0000
# 2 18.7203 78.1788 6.6271 0.0000 0.0000 0.0000
# 3 6.6271 6.6271 69.8014 0.0000 0.0000 0.0000
# 4 0.0000 0.0000 0.0000 11.8467 0.0000 0.0000
# 5 0.0000 0.0000 0.0000 0.0000 11.8467 0.0000
# 6 0.0000 0.0000 0.0000 0.0000 0.0000 26.9221
#
#
#
# Elastic Compliance Matrix: (Units=1/GPa)
#
#
# Indices 1 2 3 4 5 6 
#
# 1 0.013637 -0.003181 -0.000993 0.000000 0.000000 0.000000
# 2 -0.003181 0.013637 -0.000993 0.000000 0.000000 0.000000
# 3 -0.000993 -0.000993 0.014515 0.000000 0.000000 0.000000
# 4 0.000000 0.000000 0.000000 0.084412 0.000000 0.000000
# 5 0.000000 0.000000 0.000000 0.000000 0.084412 0.000000
# 6 0.000000 0.000000 0.000000 0.000000 0.000000 0.037144
#
#
# Mechanical properties :
#
#
# Convention : Reuss Voigt Hill
#
# Bulk Modulus (GPa) = 31.79079 32.23424 32.01252
# Shear Modulus (GPa) = 18.61672 23.06872 20.84272
#
# Velocity S-wave (km/s) = 3.02355 3.36571 3.19921
# Velocity P-wave (km/s) = 5.27259 5.56173 5.41909
#
# Compressibility (1/GPa) = 0.03145565
#
# Stress axis : x y z
#
# Youngs Moduli (GPa) = 73.32927 73.32927 68.89497
#
# Poissons Ratio (x) = 0.23328 0.06839
# Poissons Ratio (y) = 0.23328 0.06839
# Poissons Ratio (z) = 0.07279 0.07279
#
# Static dielectric constant tensor:
#      x y z
#    x 1.794890 0.000000 0.000000 
#    y 0.000000 1.794890 0.000000 
#    z 0.000000 0.000000 1.739340 
# 
# From -- ./inp_files/4739.got.cif
#   From: 2010.05.17/outbox.cif.g08.bks.cpg/sg94_3_cif.got.tgz:4739.got - 2010.06.03 19:43:16.
