data_PCOD9550909
_publ_section_title
;
Structure prediction by ZEFSAII (Michael W. Deem and Ramdas Pophale) SiO2 
 PCOD9550909
Probable space group: P 43 21 2
;
_chemical_formula_sum "Si O2"
_cell_formula_units_Z 48
_cell_length_a 11.096301
_cell_length_b 11.096301
_cell_length_c 18.618742
_cell_angle_alpha 90.000000
_cell_angle_beta 90.000000
_cell_angle_gamma 90.000000
_cell_volume 2292.486526
_symmetry_space_group_name_H-M "P 43 21 2"
_symmetry_group_IT_number 96
_symmetry_cell_setting 'tetragonal'
loop_
_space_group_symop_operation_xyz
x,y,z
1/2-y,1/2+x,3/4+z
-x,-y,1/2+z
1/2+y,1/2-x,1/4+z
1/2+x,1/2-y,1/4-z
1/2-x,1/2+y,3/4-z
y,x,-z
-y,-x,1/2-z
loop_
_atom_site_type_symbol
_atom_site_label
_atom_site_fract_x
_atom_site_fract_y
_atom_site_fract_z
Si Si1 0.752996 0.704253 0.769488
Si Si2 0.810668 0.617527 0.486324
Si Si3 0.111010 0.619600 0.901202
Si Si4 0.521479 0.778543 0.851735
Si Si5 0.140973 0.459585 0.389367
Si Si6 0.468584 0.657413 0.003233
O O1 0.762257 0.668730 0.686433
O O2 0.619904 0.716895 0.800625
O O3 0.820095 0.604155 0.816458
O O4 0.823876 0.830792 0.776426
O O5 0.682616 0.682616 0.500000
O O6 0.873130 0.607520 0.565143
O O7 0.819787 0.493600 0.439215
O O8 0.898313 0.703766 0.441051
O O9 0.971141 0.611237 0.923393
O O10 0.490604 0.711729 0.924724
O O11 0.584076 0.907429 0.870020
O O12 0.256326 0.461145 0.440967
O O13 0.525061 0.525061 0.000000
#
# Coordination Sequence:
#
# PCOD9550909 Si02
#       6
#     8   8   8   8   8   8
#     4  11  22  39  65  92 128 165 210 265 322 386
#     4  11  25  41  66  95 129 170 212 271 328 386
#     4  11  23  42  65  94 123 166 225 261 320 394
#     4  10  23  40  67  89 124 172 216 261 316 387
#     4  10  21  40  63  93 120 169 219 263 304 390
#     4  11  22  39  63  92 131 162 211 265 331 377
#
# _framework density 20.937964000000001
#
# number of rings (size 3 to 8) (size 9 to 14) (size 15 to 20)
#    0.000    1.333    3.333    2.000   14.000    0.667 
#    0.000    1.667    0.000    0.000    0.000    0.000 
#    0.000    0.000    0.000    0.000    0.000    0.000 
#
# Total GULP energy -267893.984434 kJ/mol
# GULP energy per Si atom -5581.124676 kJ/mol
# Density = 2.089031 g / cm^3
# Si number density = 20.937964 Si / 1000 Ang^3
#
#
#
# Elastic Constant Matrix: (Units=GPa)
#
#
# Indices 1 2 3 4 5 6 
#
# 1 22.3636 28.0834 20.0520 0.0000 0.0000 0.0000
# 2 28.0834 22.3636 20.0520 0.0000 0.0000 0.0000
# 3 20.0520 20.0520 120.5185 0.0000 0.0000 0.0000
# 4 0.0000 0.0000 0.0000 32.0820 0.0000 0.0000
# 5 0.0000 0.0000 0.0000 0.0000 32.0820 0.0000
# 6 0.0000 0.0000 0.0000 0.0000 0.0000 27.1266
#
#
#
# Elastic Compliance Matrix: (Units=1/GPa)
#
#
# Indices 1 2 3 4 5 6 
#
# 1 -0.075994 0.098838 -0.003801 0.000000 0.000000 0.000000
# 2 0.098838 -0.075994 -0.003801 0.000000 0.000000 0.000000
# 3 -0.003801 -0.003801 0.009562 0.000000 0.000000 0.000000
# 4 0.000000 0.000000 0.000000 0.031170 0.000000 0.000000
# 5 0.000000 0.000000 0.000000 0.000000 0.031170 0.000000
# 6 0.000000 0.000000 0.000000 0.000000 0.000000 0.036864
#
#
# Mechanical properties :
#
#
# Convention : Reuss Voigt Hill
#
# Bulk Modulus (GPa) = 24.97030 33.51336 29.24183
# Shear Modulus (GPa) = -23.54666 24.72867 0.59101
#
# Velocity S-wave (km/s) = -3.35713 3.44036 0.53186
# Velocity P-wave (km/s) = 1.75367 5.64112 3.79123
#
# Compressibility (1/GPa) = 0.04004758
#
# Stress axis : x y z
#
# Youngs Moduli (GPa) = -13.15898 -13.15898 104.57768
#
# Poissons Ratio (x) = 1.30061 0.39749
# Poissons Ratio (y) = 1.30061 0.39749
# Poissons Ratio (z) = -0.05002 -0.05002
#
# Static dielectric constant tensor:
#      x y z
#    x 1.776410 0.000000 0.000000 
#    y 0.000000 1.776410 0.000000 
#    z 0.000000 0.000000 1.744880 
# 
# From -- ./inp_files/3106.got.cif
#   From: 2010.05.17/outbox.cif.g08.bks.cpg/sg96_2_cif.got.tgz:3106.got - 2010.06.03 19:52:08.
