data_PCOD9550390
_publ_section_title
;
Structure prediction by ZEFSAII (Michael W. Deem and Ramdas Pophale) SiO2 
 PCOD9550390
Probable space group: P 42 21 2
;
_chemical_formula_sum "Si O2"
_cell_formula_units_Z 56
_cell_length_a 13.857339
_cell_length_b 13.857339
_cell_length_c 11.782619
_cell_angle_alpha 90.000000
_cell_angle_beta 90.000000
_cell_angle_gamma 90.000000
_cell_volume 2262.567360
_symmetry_space_group_name_H-M "P 42 21 2"
_symmetry_group_IT_number 94
_symmetry_cell_setting 'tetragonal'
loop_
_space_group_symop_operation_xyz
x,y,z
1/2-y,1/2+x,1/2+z
-x,-y,z
1/2+y,1/2-x,1/2+z
1/2+x,1/2-y,1/2-z
1/2-x,1/2+y,1/2-z
y,x,-z
-y,-x,-z
loop_
_atom_site_type_symbol
_atom_site_label
_atom_site_fract_x
_atom_site_fract_y
_atom_site_fract_z
Si Si1 0.160166 0.275627 0.722883
Si Si2 0.968500 0.242758 0.645962
Si Si3 0.398525 0.448552 0.733831
Si Si4 0.778205 0.536012 0.888110
Si Si5 0.165308 0.357343 0.327469
Si Si6 0.240223 0.438890 0.557234
Si Si7 0.366738 0.776745 0.556216
O O1 0.259658 0.213631 0.719466
O O2 0.183905 0.376555 0.650411
O O3 0.099038 0.220882 0.832304
O O4 0.082102 0.234260 0.631214
O O5 0.916836 0.154105 0.706187
O O6 0.934146 0.259774 0.518044
O O7 0.937504 0.330609 0.728255
O O8 0.500000 0.500000 0.731037
O O9 0.317079 0.489602 0.819358
O O10 0.346038 0.448470 0.612057
O O11 0.845859 0.444536 0.870278
O O12 0.827544 0.639796 0.854881
O O13 0.228046 0.387447 0.436694
O O14 0.201721 0.547423 0.529077
O O15 0.281763 0.718238 0.500000
#
# Coordination Sequence:
#
# PCOD9550390 Si02
#       7
#     8   8   8   8   8   8   8
#     4  12  25  49  77 113 156 210 264 330 409 490
#     4  12  26  46  77 114 157 209 266 335 411 487
#     4  12  28  48  80 121 161 211 279 341 408 495
#     4  12  27  48  79 113 158 215 267 344 402 501
#     4  12  26  48  79 110 161 211 270 333 417 489
#     4  12  27  50  76 117 162 211 268 338 408 496
#     4  12  28  50  79 112 160 210 270 338 417 482
#
# _framework density 24.750646
#
# number of rings (size 3 to 8) (size 9 to 14) (size 15 to 20)
#    0.000    0.000    5.714    3.429    6.000    2.857 
#    0.000    2.143    0.000    0.000    0.000    0.000 
#    0.000    0.000    0.000    0.000    0.000    0.000 
#
# Total GULP energy -312412.502719 kJ/mol
# GULP energy per Si atom -5578.794691 kJ/mol
# Density = 2.469431 g / cm^3
# Si number density = 24.750646 Si / 1000 Ang^3
#
#
#
# Elastic Constant Matrix: (Units=GPa)
#
#
# Indices 1 2 3 4 5 6 
#
# 1 87.5385 20.5727 31.9620 0.0000 0.0000 0.0000
# 2 20.5727 87.5373 31.9622 0.0000 0.0000 0.0000
# 3 31.9620 31.9622 156.5419 0.0000 0.0000 0.0000
# 4 0.0000 0.0000 0.0000 17.7100 0.0000 0.0000
# 5 0.0000 0.0000 0.0000 0.0000 17.7097 0.0000
# 6 0.0000 0.0000 0.0000 0.0000 0.0000 41.6588
#
#
#
# Elastic Compliance Matrix: (Units=1/GPa)
#
#
# Indices 1 2 3 4 5 6 
#
# 1 0.012726 -0.002207 -0.002148 0.000000 0.000000 0.000000
# 2 -0.002207 0.012727 -0.002148 0.000000 0.000000 0.000000
# 3 -0.002148 -0.002148 0.007265 0.000000 0.000000 0.000000
# 4 0.000000 0.000000 0.000000 0.056465 0.000000 0.000000
# 5 0.000000 0.000000 0.000000 0.000000 0.056466 0.000000
# 6 0.000000 0.000000 0.000000 0.000000 0.000000 0.024005
#
#
# Mechanical properties :
#
#
# Convention : Reuss Voigt Hill
#
# Bulk Modulus (GPa) = 50.72743 55.62350 53.17546
# Shear Modulus (GPa) = 26.42286 31.89043 29.15664
#
# Velocity S-wave (km/s) = 3.27090 3.59342 3.43595
# Velocity P-wave (km/s) = 5.89957 6.30390 6.10509
#
# Compressibility (1/GPa) = 0.01971320
#
# Stress axis : x y z
#
# Youngs Moduli (GPa) = 78.57708 78.57580 137.64323
#
# Poissons Ratio (x) = 0.17339 0.29564
# Poissons Ratio (y) = 0.17339 0.29565
# Poissons Ratio (z) = 0.16877 0.16877
#
# Static dielectric constant tensor:
#      x y z
#    x 2.284330 0.000000 0.000000 
#    y 0.000000 2.284310 0.000000 
#    z 0.000000 0.000000 2.016830 
# 
# From -- ./inp_files/2713.got.cif
#   From: 2010.05.17/outbox.cif.g08.bks.cpg/sg94_2_cif.got.tgz:2713.got - 2010.06.03 19:43:16.
