data_PCOD9550156
_publ_section_title
;
Structure prediction by ZEFSAII (Michael W. Deem and Ramdas Pophale) SiO2 
 PCOD9550156
Probable space group: P 42 21 2
;
_chemical_formula_sum "Si O2"
_cell_formula_units_Z 32
_cell_length_a 13.442751
_cell_length_b 13.442751
_cell_length_c 9.765999
_cell_angle_alpha 90.000000
_cell_angle_beta 90.000000
_cell_angle_gamma 90.000000
_cell_volume 1764.789796
_symmetry_space_group_name_H-M "P 42 21 2"
_symmetry_group_IT_number 94
_symmetry_cell_setting 'tetragonal'
loop_
_space_group_symop_operation_xyz
x,y,z
1/2-y,1/2+x,1/2+z
-x,-y,z
1/2+y,1/2-x,1/2+z
1/2+x,1/2-y,1/2-z
1/2-x,1/2+y,1/2-z
y,x,-z
-y,-x,-z
loop_
_atom_site_type_symbol
_atom_site_label
_atom_site_fract_x
_atom_site_fract_y
_atom_site_fract_z
Si Si1 0.398520 0.063556 0.657332
Si Si2 0.724292 0.124393 0.669343
Si Si3 0.231821 0.624321 0.084912
Si Si4 0.751320 0.593491 0.138087
O O1 0.365466 0.100845 0.507410
O O2 0.407555 0.158808 0.754330
O O3 0.500000 0.000000 0.654864
O O4 0.311030 0.987319 0.703570
O O5 0.665820 0.197942 0.769236
O O6 0.837945 0.159750 0.683710
O O7 0.704879 0.133776 0.506572
O O8 0.283073 0.518237 0.107623
O O9 0.299862 0.700139 0.000000
#
# Coordination Sequence:
#
# PCOD9550156 Si02
#       4
#     8   8   8   8
#     4  11  22  36  62  93 120 154 209 258 306 359
#     4  10  22  37  57  88 125 156 198 254 312 355
#     4  11  22  38  62  89 122 164 201 253 314 373
#     4  10  22  40  58  87 125 159 200 257 307 365
#
# _framework density 18.132472
#
# number of rings (size 3 to 8) (size 9 to 14) (size 15 to 20)
#    0.000    1.500    5.000    0.000    7.000    0.000 
#    0.000   10.000    0.000    0.000    0.000    3.500 
#    0.000    0.000    0.000    0.000    0.000    0.000 
#
# Total GULP energy -178343.563070 kJ/mol
# GULP energy per Si atom -5573.236346 kJ/mol
# Density = 1.809120 g / cm^3
# Si number density = 18.132472 Si / 1000 Ang^3
#
#
#
# Elastic Constant Matrix: (Units=GPa)
#
#
# Indices 1 2 3 4 5 6 
#
# 1 32.9182 -9.2137 5.4189 0.0000 0.0000 0.0000
# 2 -9.2137 32.9129 5.4172 0.0000 0.0000 0.0000
# 3 5.4189 5.4172 39.4722 0.0000 0.0000 0.0000
# 4 0.0000 0.0000 0.0000 23.5502 0.0000 0.0000
# 5 0.0000 0.0000 0.0000 0.0000 23.5503 0.0000
# 6 0.0000 0.0000 0.0000 0.0000 0.0000 34.3643
#
#
#
# Elastic Compliance Matrix: (Units=1/GPa)
#
#
# Indices 1 2 3 4 5 6 
#
# 1 0.034374 0.010640 -0.006179 0.000000 0.000000 0.000000
# 2 0.010640 0.034379 -0.006179 0.000000 0.000000 0.000000
# 3 -0.006179 -0.006179 0.027031 0.000000 0.000000 0.000000
# 4 0.000000 0.000000 0.000000 0.042462 0.000000 0.000000
# 5 0.000000 0.000000 0.000000 0.000000 0.042462 0.000000
# 6 0.000000 0.000000 0.000000 0.000000 0.000000 0.029100
#
#
# Mechanical properties :
#
#
# Convention : Reuss Voigt Hill
#
# Bulk Modulus (GPa) = 10.82879 12.06087 11.44483
# Shear Modulus (GPa) = 20.48960 23.20501 21.84731
#
# Velocity S-wave (km/s) = 3.36519 3.58124 3.47489
# Velocity P-wave (km/s) = 4.59177 4.87507 4.73554
#
# Compressibility (1/GPa) = 0.09234638
#
# Stress axis : x y z
#
# Youngs Moduli (GPa) = 29.09213 29.08776 36.99516
#
# Poissons Ratio (x) = -0.30948 0.22860
# Poissons Ratio (y) = -0.30953 0.22858
# Poissons Ratio (z) = 0.17976 0.17973
#
# Static dielectric constant tensor:
#      x y z
#    x 1.630830 0.000000 0.000000 
#    y 0.000000 1.630830 0.000000 
#    z 0.000000 0.000000 1.632460 
# 
# From -- ./inp_files/1185.got.cif
#   From: 2010.05.17/outbox.cif.g08.bks.cpg/sg94_1_cif.got.tgz:1185.got - 2010.06.03 19:43:16.
