data_PCOD9550943
_publ_section_title
;
Structure prediction by ZEFSAII (Michael W. Deem and Ramdas Pophale) SiO2 
 PCOD9550943
Probable space group: P 43 21 2
;
_chemical_formula_sum "Si O2"
_cell_formula_units_Z 56
_cell_length_a 11.466690
_cell_length_b 11.466690
_cell_length_c 21.080128
_cell_angle_alpha 90.000000
_cell_angle_beta 90.000000
_cell_angle_gamma 90.000000
_cell_volume 2771.720199
_symmetry_space_group_name_H-M "P 43 21 2"
_symmetry_group_IT_number 96
_symmetry_cell_setting 'tetragonal'
loop_
_space_group_symop_operation_xyz
x,y,z
1/2-y,1/2+x,3/4+z
-x,-y,1/2+z
1/2+y,1/2-x,1/4+z
1/2+x,1/2-y,1/4-z
1/2-x,1/2+y,3/4-z
y,x,-z
-y,-x,1/2-z
loop_
_atom_site_type_symbol
_atom_site_label
_atom_site_fract_x
_atom_site_fract_y
_atom_site_fract_z
Si Si1 0.697969 0.302032 0.750000
Si Si2 0.442048 0.300439 0.716373
Si Si3 0.354046 0.551701 0.495892
Si Si4 0.664816 0.429059 0.384304
Si Si5 0.929219 0.165343 0.312322
Si Si6 0.428355 0.571646 0.750000
Si Si7 0.575172 0.823051 0.085241
Si Si8 0.131950 0.417925 0.161800
O O1 0.581869 0.304858 0.708410
O O2 0.692861 0.189950 0.793165
O O3 0.408699 0.434346 0.731774
O O4 0.400561 0.242549 0.651294
O O5 0.416330 0.214359 0.775500
O O6 0.434004 0.434004 0.500000
O O7 0.340746 0.600167 0.567037
O O8 0.439223 0.643567 0.461463
O O9 0.241312 0.525710 0.454604
O O10 0.602747 0.553781 0.394525
O O11 0.646421 0.396937 0.311649
O O12 0.798475 0.438301 0.405636
O O13 0.849057 0.150944 0.250000
O O14 0.918948 0.280908 0.352027
O O15 0.559443 0.962125 0.091040
#
# Coordination Sequence:
#
# PCOD9550943 Si02
#       8
#     4   8   8   8   8   4   8   8
#     4   9  22  38  60  97 128 156 210 263 332 390
#     4  10  22  38  66  93 126 165 213 270 335 383
#     4   9  19  38  68  95 117 162 217 258 320 394
#     4  10  22  39  66  92 127 169 221 262 321 400
#     4   9  20  40  67  84 118 172 217 257 315 393
#     4  11  20  40  68  97 120 168 226 283 314 386
#     4  11  22  37  67  94 131 160 208 271 331 391
#     4  11  24  40  61  96 131 172 214 268 334 391
#
# _framework density 20.204058
#
# number of rings (size 3 to 8) (size 9 to 14) (size 15 to 20)
#    0.000    2.286    2.143    1.714    9.000    0.000 
#    0.000    2.857    9.429    0.000    0.000    0.000 
#    0.000    0.000    0.000    0.000    0.000    0.000 
#
# Total GULP energy -312558.887798 kJ/mol
# GULP energy per Si atom -5581.408711 kJ/mol
# Density = 2.015807 g / cm^3
# Si number density = 20.204058 Si / 1000 Ang^3
#
#
#
# Elastic Constant Matrix: (Units=GPa)
#
#
# Indices 1 2 3 4 5 6 
#
# 1 56.8940 29.3195 33.4114 0.0000 0.0000 0.0000
# 2 29.3195 56.8935 33.4109 0.0000 0.0000 0.0000
# 3 33.4114 33.4109 110.8866 0.0000 0.0000 0.0000
# 4 0.0000 0.0000 0.0000 14.4458 0.0000 0.0000
# 5 0.0000 0.0000 0.0000 0.0000 14.4458 0.0000
# 6 0.0000 0.0000 0.0000 0.0000 0.0000 12.3105
#
#
#
# Elastic Compliance Matrix: (Units=1/GPa)
#
#
# Indices 1 2 3 4 5 6 
#
# 1 0.025700 -0.010566 -0.004560 0.000000 0.000000 0.000000
# 2 -0.010566 0.025700 -0.004560 0.000000 0.000000 0.000000
# 3 -0.004560 -0.004560 0.011766 0.000000 0.000000 0.000000
# 4 0.000000 0.000000 0.000000 0.069224 0.000000 0.000000
# 5 0.000000 0.000000 0.000000 0.000000 0.069224 0.000000
# 6 0.000000 0.000000 0.000000 0.000000 0.000000 0.081232
#
#
# Mechanical properties :
#
#
# Convention : Reuss Voigt Hill
#
# Bulk Modulus (GPa) = 42.02824 46.32863 44.17843
# Shear Modulus (GPa) = 15.14472 16.80924 15.97698
#
# Velocity S-wave (km/s) = 2.74083 2.88752 2.81513
# Velocity P-wave (km/s) = 5.55547 5.83928 5.69914
#
# Compressibility (1/GPa) = 0.02379353
#
# Stress axis : x y z
#
# Youngs Moduli (GPa) = 38.91123 38.91108 84.99023
#
# Poissons Ratio (x) = 0.41114 0.38755
# Poissons Ratio (y) = 0.41114 0.38754
# Poissons Ratio (z) = 0.17743 0.17743
#
# Static dielectric constant tensor:
#      x y z
#    x 1.724420 0.000000 0.000000 
#    y 0.000000 1.724420 0.000000 
#    z 0.000000 0.000000 1.746180 
# 
# From -- ./inp_files/3586.got.cif
#   From: 2010.05.17/outbox.cif.g08.bks.cpg/sg96_2_cif.got.tgz:3586.got - 2010.06.03 19:52:08.
