data_PCOD9550348
_publ_section_title
;
Structure prediction by ZEFSAII (Michael W. Deem and Ramdas Pophale) SiO2 
 PCOD9550348
Probable space group: P 42 21 2
;
_chemical_formula_sum "Si O2"
_cell_formula_units_Z 40
_cell_length_a 12.526973
_cell_length_b 12.526973
_cell_length_c 12.269795
_cell_angle_alpha 90.000000
_cell_angle_beta 90.000000
_cell_angle_gamma 90.000000
_cell_volume 1925.438225
_symmetry_space_group_name_H-M "P 42 21 2"
_symmetry_group_IT_number 94
_symmetry_cell_setting 'tetragonal'
loop_
_space_group_symop_operation_xyz
x,y,z
1/2-y,1/2+x,1/2+z
-x,-y,z
1/2+y,1/2-x,1/2+z
1/2+x,1/2-y,1/2-z
1/2-x,1/2+y,1/2-z
y,x,-z
-y,-x,-z
loop_
_atom_site_type_symbol
_atom_site_label
_atom_site_fract_x
_atom_site_fract_y
_atom_site_fract_z
Si Si1 0.604327 0.068453 0.354138
Si Si2 0.233361 0.041894 0.717668
Si Si3 0.302767 0.854366 0.565855
Si Si4 0.593015 0.589257 0.621186
Si Si5 0.430040 0.724805 0.751641
O O1 0.601368 0.162626 0.264751
O O2 0.610502 0.119454 0.473505
O O3 0.500000 0.000000 0.336809
O O4 0.699455 0.983898 0.339934
O O5 0.140472 0.128794 0.699849
O O6 0.258809 0.963720 0.617778
O O7 0.189192 0.963693 0.813050
O O8 0.213427 0.786574 0.500000
O O9 0.355762 0.786635 0.663905
O O10 0.500000 0.500000 0.612485
O O11 0.623517 0.623517 0.500000
O O12 0.532808 0.680072 0.687365
#
# Coordination Sequence:
#
# PCOD9550348 Si02
#       5
#     8   8   8   8   8
#     4  12  26  43  68 101 136 183 237 295 361 425
#     4  11  24  46  68 102 143 184 236 298 359 434
#     4  12  25  45  75 100 140 189 234 301 368 433
#     4   9  19  37  66  98 129 173 226 279 342 420
#     4  11  24  44  69 101 141 185 238 293 357 435
#
# _framework density 20.774493
#
# number of rings (size 3 to 8) (size 9 to 14) (size 15 to 20)
#    0.000    1.000    4.000    2.400    5.600    0.800 
#    0.000    1.000    0.000    0.000    0.000    0.000 
#    0.000    0.000    0.000    0.000    0.000    0.000 
#
# Total GULP energy -223476.504427 kJ/mol
# GULP energy per Si atom -5586.912611 kJ/mol
# Density = 2.072721 g / cm^3
# Si number density = 20.774493 Si / 1000 Ang^3
#
#
#
# Elastic Constant Matrix: (Units=GPa)
#
#
# Indices 1 2 3 4 5 6 
#
# 1 -29.8692 132.5592 3.2266 0.0000 0.0000 0.0000
# 2 132.5592 -29.8659 3.2216 0.0000 0.0000 0.0000
# 3 3.2266 3.2216 31.2685 0.0000 0.0000 0.0000
# 4 0.0000 0.0000 0.0000 38.1823 0.0000 0.0000
# 5 0.0000 0.0000 0.0000 0.0000 38.1797 0.0000
# 6 0.0000 0.0000 0.0000 0.0000 0.0000 64.6757
#
#
#
# Elastic Compliance Matrix: (Units=1/GPa)
#
#
# Indices 1 2 3 4 5 6 
#
# 1 0.001822 0.007979 -0.001010 0.000000 0.000000 0.000000
# 2 0.007979 0.001822 -0.001011 0.000000 0.000000 0.000000
# 3 -0.001010 -0.001011 0.032189 0.000000 0.000000 0.000000
# 4 0.000000 0.000000 0.000000 0.026190 0.000000 0.000000
# 5 0.000000 0.000000 0.000000 0.000000 0.026192 0.000000
# 6 0.000000 0.000000 0.000000 0.000000 0.000000 0.015462
#
#
# Mechanical properties :
#
#
# Convention : Reuss Voigt Hill
#
# Bulk Modulus (GPa) = 20.94253 27.72757 24.33505
# Shear Modulus (GPa) = 46.43425 17.04261 31.73843
#
# Velocity S-wave (km/s) = 4.73287 2.86730 3.91290
# Velocity P-wave (km/s) = 6.32215 4.93334 5.67042
#
# Compressibility (1/GPa) = 0.04774973
#
# Stress axis : x y z
#
# Youngs Moduli (GPa) = 548.77736 548.69914 31.06604
#
# Poissons Ratio (x) = -4.37806 0.03138
# Poissons Ratio (y) = -4.37869 0.03141
# Poissons Ratio (z) = 0.55433 0.55480
#
# Static dielectric constant tensor:
#      x y z
#    x 1.753900 0.000000 0.000000 
#    y 0.000000 1.753900 0.000000 
#    z 0.000000 0.000000 1.483040 
# 
# From -- ./inp_files/3421.got.cif
#   From: 2010.05.17/outbox.cif.g08.bks.cpg/sg94_2_cif.got.tgz:3421.got - 2010.06.03 19:43:16.
