data_PCOD9550738
_publ_section_title
;
Structure prediction by ZEFSAII (Michael W. Deem and Ramdas Pophale) SiO2 
 PCOD9550738
Probable space group: P 43 21 2
;
_chemical_formula_sum "Si O2"
_cell_formula_units_Z 40
_cell_length_a 7.414830
_cell_length_b 7.414830
_cell_length_c 35.958878
_cell_angle_alpha 90.000000
_cell_angle_beta 90.000000
_cell_angle_gamma 90.000000
_cell_volume 1977.008466
_symmetry_space_group_name_H-M "P 43 21 2"
_symmetry_group_IT_number 96
_symmetry_cell_setting 'tetragonal'
loop_
_space_group_symop_operation_xyz
x,y,z
1/2-y,1/2+x,3/4+z
-x,-y,1/2+z
1/2+y,1/2-x,1/4+z
1/2+x,1/2-y,1/4-z
1/2-x,1/2+y,3/4-z
y,x,-z
-y,-x,1/2-z
loop_
_atom_site_type_symbol
_atom_site_label
_atom_site_fract_x
_atom_site_fract_y
_atom_site_fract_z
Si Si1 0.937278 0.642546 0.332585
Si Si2 0.413949 0.468549 0.374882
Si Si3 0.291328 0.468257 0.297872
Si Si4 0.760787 0.115819 0.032568
Si Si5 0.386799 0.013477 0.603873
O O1 0.787282 0.645820 0.301140
O O2 0.960962 0.839511 0.350778
O O3 0.123295 0.579874 0.313873
O O4 0.903928 0.501089 0.365770
O O5 0.376677 0.376244 0.334446
O O6 0.476259 0.674706 0.367052
O O7 0.217407 0.461984 0.394270
O O8 0.445592 0.607505 0.286237
O O9 0.228641 0.360344 0.261359
O O10 0.604780 0.064887 0.062190
#
# Coordination Sequence:
#
# PCOD9550738 Si02
#       5
#     8   8   8   8   8
#     4  11  22  38  60  89 119 155 203 241 292 361
#     4  10  18  38  61  84 114 153 201 241 284 354
#     4   9  21  40  56  87 122 151 198 243 296 348
#     4  10  21  38  60  88 118 158 193 242 306 349
#     4  10  20  36  60  90 114 156 200 244 291 351
#
# _framework density 20.232592
#
# number of rings (size 3 to 8) (size 9 to 14) (size 15 to 20)
#    0.000    2.000    6.000    0.000    5.600    1.600 
#    0.000    4.000    0.000    0.000    0.000    0.000 
#    0.000    0.000    0.000    0.000    0.000    0.000 
#
# Total GULP energy -222845.885480 kJ/mol
# GULP energy per Si atom -5571.147137 kJ/mol
# Density = 2.018654 g / cm^3
# Si number density = 20.232592 Si / 1000 Ang^3
#
#
#
# Elastic Constant Matrix: (Units=GPa)
#
#
# Indices 1 2 3 4 5 6 
#
# 1 57.4074 -3.6985 -3.4198 0.0000 0.0000 0.0000
# 2 -3.6985 57.4074 -3.4198 0.0000 0.0000 0.0000
# 3 -3.4198 -3.4198 43.4288 0.0000 0.0000 0.0000
# 4 0.0000 0.0000 0.0000 19.7265 0.0000 0.0000
# 5 0.0000 0.0000 0.0000 0.0000 19.7265 0.0000
# 6 0.0000 0.0000 0.0000 0.0000 0.0000 -19.3947
#
#
#
# Elastic Compliance Matrix: (Units=1/GPa)
#
#
# Indices 1 2 3 4 5 6 
#
# 1 0.017586 0.001221 0.001481 0.000000 0.000000 0.000000
# 2 0.001221 0.017586 0.001481 0.000000 0.000000 0.000000
# 3 0.001481 0.001481 0.023259 0.000000 0.000000 0.000000
# 4 0.000000 0.000000 0.000000 0.050693 0.000000 0.000000
# 5 0.000000 0.000000 0.000000 0.000000 0.050693 0.000000
# 6 0.000000 0.000000 0.000000 0.000000 0.000000 -0.051561
#
#
# Mechanical properties :
#
#
# Convention : Reuss Voigt Hill
#
# Bulk Modulus (GPa) = 14.97043 15.24083 15.10563
# Shear Modulus (GPa) = 40.93085 15.26381 28.09733
#
# Velocity S-wave (km/s) = 4.50267 2.74964 3.73059
# Velocity P-wave (km/s) = 5.86918 4.19880 5.10280
#
# Compressibility (1/GPa) = 0.06679837
#
# Stress axis : x y z
#
# Youngs Moduli (GPa) = 56.86261 56.86261 42.99334
#
# Poissons Ratio (x) = -0.06944 -0.06367
# Poissons Ratio (y) = -0.06944 -0.06367
# Poissons Ratio (z) = -0.08421 -0.08421
#
# Static dielectric constant tensor:
#      x y z
#    x 1.739370 0.000000 0.000000 
#    y 0.000000 1.739370 0.000000 
#    z 0.000000 0.000000 1.778660 
# 
# From -- ./inp_files/4323.got.cif
#   From: 2010.05.17/outbox.cif.g08.bks.cpg/sg96_3_cif.got.tgz:4323.got - 2010.06.03 19:52:08.
