data_PCOD9550344
_publ_section_title
;
Structure prediction by ZEFSAII (Michael W. Deem and Ramdas Pophale) SiO2 
 PCOD9550344
Probable space group: P 42 21 2
;
_chemical_formula_sum "Si O2"
_cell_formula_units_Z 40
_cell_length_a 9.350831
_cell_length_b 9.350831
_cell_length_c 23.494493
_cell_angle_alpha 90.000000
_cell_angle_beta 90.000000
_cell_angle_gamma 90.000000
_cell_volume 2054.312428
_symmetry_space_group_name_H-M "P 42 21 2"
_symmetry_group_IT_number 94
_symmetry_cell_setting 'tetragonal'
loop_
_space_group_symop_operation_xyz
x,y,z
1/2-y,1/2+x,1/2+z
-x,-y,z
1/2+y,1/2-x,1/2+z
1/2+x,1/2-y,1/2-z
1/2-x,1/2+y,1/2-z
y,x,-z
-y,-x,-z
loop_
_atom_site_type_symbol
_atom_site_label
_atom_site_fract_x
_atom_site_fract_y
_atom_site_fract_z
Si Si1 0.500000 0.500000 0.000000
Si Si2 0.583491 0.651064 0.200940
Si Si3 0.345636 0.073116 0.793814
Si Si4 0.115908 0.757836 0.426017
Si Si5 0.000000 0.500000 0.994527
Si Si6 0.953154 0.724404 0.074992
Si Si7 0.500000 0.500000 0.500000
O O1 0.511978 0.635429 0.040705
O O2 0.500000 0.500000 0.195347
O O3 0.498844 0.741284 0.248052
O O4 0.754456 0.638685 0.213904
O O5 0.581439 0.731661 0.140328
O O6 0.286693 0.036195 0.857187
O O7 0.500000 0.000000 0.788820
O O8 0.282029 0.802569 0.435096
O O9 0.085918 0.605273 0.453693
O O10 0.945473 0.385674 0.040954
O O11 0.989948 0.869644 0.043696
#
# Coordination Sequence:
#
# PCOD9550344 Si02
#       7
#     2   8   8   8   4   8   2
#     4  12  18  42  66  94 130 164 206 276 328 378
#     4  11  25  47  69  99 131 178 227 279 339 401
#     4  11  25  47  71  96 134 176 227 282 337 400
#     4  11  24  42  67  97 135 166 220 275 324 398
#     4  12  20  44  64  96 134 168 212 266 336 386
#     4  11  24  44  65  97 137 170 213 277 327 397
#     4  12  22  46  62  98 138 172 218 260 336 398
#
# _framework density 19.471233000000002
#
# number of rings (size 3 to 8) (size 9 to 14) (size 15 to 20)
#    0.000    0.800    6.000    1.200    2.800    0.800 
#   10.800    0.000    0.000    0.000    0.000    0.000 
#    0.000    0.000    0.000    0.000    0.000    0.000 
#
# Total GULP energy -223055.140387 kJ/mol
# GULP energy per Si atom -5576.378510 kJ/mol
# Density = 1.942692 g / cm^3
# Si number density = 19.471233 Si / 1000 Ang^3
#
#
#
# Elastic Constant Matrix: (Units=GPa)
#
#
# Indices 1 2 3 4 5 6 
#
# 1 104.3378 -12.8392 53.8330 0.0000 0.0000 0.0000
# 2 -12.8392 104.3378 53.8330 0.0000 0.0000 0.0000
# 3 53.8330 53.8330 159.2135 0.0000 0.0000 0.0000
# 4 0.0000 0.0000 0.0000 14.7737 0.0000 0.0000
# 5 0.0000 0.0000 0.0000 0.0000 14.7737 0.0000
# 6 0.0000 0.0000 0.0000 0.0000 0.0000 34.0630
#
#
#
# Elastic Compliance Matrix: (Units=1/GPa)
#
#
# Indices 1 2 3 4 5 6 
#
# 1 0.013342 0.004808 -0.006137 0.000000 0.000000 0.000000
# 2 0.004808 0.013342 -0.006137 0.000000 0.000000 0.000000
# 3 -0.006137 -0.006137 0.010431 0.000000 0.000000 0.000000
# 4 0.000000 0.000000 0.000000 0.067688 0.000000 0.000000
# 5 0.000000 0.000000 0.000000 0.000000 0.067688 0.000000
# 6 0.000000 0.000000 0.000000 0.000000 0.000000 0.029357
#
#
# Mechanical properties :
#
#
# Convention : Reuss Voigt Hill
#
# Bulk Modulus (GPa) = 45.07767 61.94920 53.51343
# Shear Modulus (GPa) = 22.30400 30.92622 26.61511
#
# Velocity S-wave (km/s) = 3.38817 3.98968 3.70116
# Velocity P-wave (km/s) = 6.20544 7.28754 6.76815
#
# Compressibility (1/GPa) = 0.02218393
#
# Stress axis : x y z
#
# Youngs Moduli (GPa) = 74.94939 74.94939 95.86831
#
# Poissons Ratio (x) = -0.36037 0.58835
# Poissons Ratio (y) = -0.36037 0.58835
# Poissons Ratio (z) = 0.45997 0.45997
#
# Static dielectric constant tensor:
#      x y z
#    x 1.862630 0.000000 0.000000 
#    y 0.000000 1.862630 0.000000 
#    z 0.000000 0.000000 1.670030 
# 
# From -- ./inp_files/5354.got.cif
#   From: 2010.05.17/outbox.cif.g08.bks.cpg/sg94_3_cif.got.tgz:5354.got - 2010.06.03 19:43:16.
