data_PCOD9550122
_publ_section_title
;
Structure prediction by ZEFSAII (Michael W. Deem and Ramdas Pophale) SiO2 
 PCOD9550122
Probable space group: P 42 21 2
;
_chemical_formula_sum "Si O2"
_cell_formula_units_Z 48
_cell_length_a 11.183567
_cell_length_b 11.183567
_cell_length_c 18.035757
_cell_angle_alpha 90.000000
_cell_angle_beta 90.000000
_cell_angle_gamma 90.000000
_cell_volume 2255.771281
_symmetry_space_group_name_H-M "P 42 21 2"
_symmetry_group_IT_number 94
_symmetry_cell_setting 'tetragonal'
loop_
_space_group_symop_operation_xyz
x,y,z
1/2-y,1/2+x,1/2+z
-x,-y,z
1/2+y,1/2-x,1/2+z
1/2+x,1/2-y,1/2-z
1/2-x,1/2+y,1/2-z
y,x,-z
-y,-x,-z
loop_
_atom_site_type_symbol
_atom_site_label
_atom_site_fract_x
_atom_site_fract_y
_atom_site_fract_z
Si Si1 0.711504 0.554795 0.053110
Si Si2 0.730456 0.720662 0.671223
Si Si3 0.436428 0.608086 0.157211
Si Si4 0.260590 0.331464 0.838050
Si Si5 0.355770 0.000870 0.104123
Si Si6 0.107285 0.423786 0.556668
O O1 0.618229 0.460680 0.086870
O O2 0.751733 0.640472 0.121753
O O3 0.814503 0.470615 0.022567
O O4 0.647539 0.647539 0.000000
O O5 0.824995 0.825339 0.691197
O O6 0.713926 0.661850 0.750837
O O7 0.612233 0.784771 0.638770
O O8 0.795203 0.632440 0.612082
O O9 0.500000 0.500000 0.201218
O O10 0.535137 0.703930 0.135868
O O11 0.125554 0.307410 0.862408
O O12 0.500000 0.000000 0.119033
O O13 0.340863 0.992708 0.014561
O O14 0.000000 0.500000 0.594264
#
# Coordination Sequence:
#
# PCOD9550122 Si02
#       6
#     8   8   8   8   8   8
#     4  10  21  40  66  96 128 161 216 278 339 391
#     4  11  24  40  64  96 134 177 222 276 338 414
#     4   9  21  38  58  92 126 159 215 264 337 385
#     4  11  24  39  63  96 134 170 218 279 341 405
#     4  11  22  42  66  93 134 176 223 281 342 408
#     4  10  23  41  66  94 132 172 226 275 335 412
#
# _framework density 21.278752000000001
#
# number of rings (size 3 to 8) (size 9 to 14) (size 15 to 20)
#    0.000    1.667    1.667    2.500    9.333    5.000 
#    3.000    0.000    0.000    0.000    0.000    5.833 
#    0.000    0.000    0.000    0.000    0.000    0.000 
#
# Total GULP energy -267584.704520 kJ/mol
# GULP energy per Si atom -5574.681344 kJ/mol
# Density = 2.123032 g / cm^3
# Si number density = 21.278752 Si / 1000 Ang^3
#
#
#
# Elastic Constant Matrix: (Units=GPa)
#
#
# Indices 1 2 3 4 5 6 
#
# 1 83.0506 43.5621 35.5676 0.0000 0.0000 0.0000
# 2 43.5621 83.0506 35.5676 0.0000 0.0000 0.0000
# 3 35.5676 35.5676 114.2437 0.0000 0.0000 0.0000
# 4 0.0000 0.0000 0.0000 6.7573 0.0000 0.0000
# 5 0.0000 0.0000 0.0000 0.0000 6.7573 0.0000
# 6 0.0000 0.0000 0.0000 0.0000 0.0000 45.0622
#
#
#
# Elastic Compliance Matrix: (Units=1/GPa)
#
#
# Indices 1 2 3 4 5 6 
#
# 1 0.017448 -0.007876 -0.002980 0.000000 0.000000 0.000000
# 2 -0.007876 0.017448 -0.002980 0.000000 0.000000 0.000000
# 3 -0.002980 -0.002980 0.010609 0.000000 0.000000 0.000000
# 4 0.000000 0.000000 0.000000 0.147989 0.000000 0.000000
# 5 0.000000 0.000000 0.000000 0.000000 0.147989 0.000000
# 6 0.000000 0.000000 0.000000 0.000000 0.000000 0.022192
#
#
# Mechanical properties :
#
#
# Convention : Reuss Voigt Hill
#
# Bulk Modulus (GPa) = 56.07579 56.63771 56.35675
# Shear Modulus (GPa) = 12.58523 22.75854 17.67188
#
# Velocity S-wave (km/s) = 2.43460 3.27393 2.88496
# Velocity P-wave (km/s) = 5.85775 6.40050 6.13513
#
# Compressibility (1/GPa) = 0.01783301
#
# Stress axis : x y z
#
# Youngs Moduli (GPa) = 57.31276 57.31276 94.26066
#
# Poissons Ratio (x) = 0.45137 0.28092
# Poissons Ratio (y) = 0.45137 0.28092
# Poissons Ratio (z) = 0.17080 0.17080
#
# Static dielectric constant tensor:
#      x y z
#    x 1.860240 0.000000 0.000000 
#    y 0.000000 1.860240 0.000000 
#    z 0.000000 0.000000 1.831070 
# 
# From -- ./inp_files/4118.got.cif
#   From: 2010.05.17/outbox.cif.g08.bks.cpg/sg94_3_cif.got.tgz:4118.got - 2010.06.03 19:43:16.
