data_PCOD9550923
_publ_section_title
;
Structure prediction by ZEFSAII (Michael W. Deem and Ramdas Pophale) SiO2 
 PCOD9550923
Probable space group: P 43 21 2
;
_chemical_formula_sum "Si O2"
_cell_formula_units_Z 36
_cell_length_a 11.339750
_cell_length_b 11.339750
_cell_length_c 11.011230
_cell_angle_alpha 90.000000
_cell_angle_beta 90.000000
_cell_angle_gamma 90.000000
_cell_volume 1415.933296
_symmetry_space_group_name_H-M "P 43 21 2"
_symmetry_group_IT_number 96
_symmetry_cell_setting 'tetragonal'
loop_
_space_group_symop_operation_xyz
x,y,z
1/2-y,1/2+x,3/4+z
-x,-y,1/2+z
1/2+y,1/2-x,1/4+z
1/2+x,1/2-y,1/4-z
1/2-x,1/2+y,3/4-z
y,x,-z
-y,-x,1/2-z
loop_
_atom_site_type_symbol
_atom_site_label
_atom_site_fract_x
_atom_site_fract_y
_atom_site_fract_z
Si Si1 0.023823 0.274144 0.170741
Si Si2 0.392196 0.607805 0.250000
Si Si3 0.433766 0.226995 0.829114
Si Si4 0.825656 0.939421 0.753762
Si Si5 0.760442 0.619606 0.190466
O O1 0.101270 0.386632 0.209192
O O2 0.103812 0.155853 0.172415
O O3 0.926868 0.260998 0.275703
O O4 0.978058 0.297704 0.037633
O O5 0.433230 0.735796 0.296373
O O6 0.408369 0.537572 0.377582
O O7 0.349799 0.317540 0.758063
O O8 0.716943 0.863370 0.809370
O O9 0.776069 0.051453 0.681863
#
# Coordination Sequence:
#
# PCOD9550923 Si02
#       5
#     8   4   8   8   8
#     4  10  21  42  64 103 140 186 241 306 355 439
#     4  10  24  46  62 100 126 186 230 292 360 436
#     4  10  23  41  69  96 145 186 244 299 363 436
#     4  10  24  41  67  97 144 177 243 294 364 432
#     4  11  22  42  68 104 136 195 232 306 364 440
#
# _framework density 25.424928999999999
#
# number of rings (size 3 to 8) (size 9 to 14) (size 15 to 20)
#    0.000    1.778    0.000    2.667    3.111    9.778 
#   12.000    0.000    0.000    0.000    0.000    0.000 
#    0.000    0.000    0.000    0.000    0.000    0.000 
#
# Total GULP energy -201019.167253 kJ/mol
# GULP energy per Si atom -5583.865757 kJ/mol
# Density = 2.536706 g / cm^3
# Si number density = 25.424929 Si / 1000 Ang^3
#
#
#
# Elastic Constant Matrix: (Units=GPa)
#
#
# Indices 1 2 3 4 5 6 
#
# 1 92.6537 58.1319 40.9825 0.0000 0.0000 0.0000
# 2 58.1319 92.6544 40.9827 0.0000 0.0000 0.0000
# 3 40.9825 40.9827 123.6508 0.0000 0.0000 0.0000
# 4 0.0000 0.0000 0.0000 32.2150 0.0000 0.0000
# 5 0.0000 0.0000 0.0000 0.0000 32.2149 0.0000
# 6 0.0000 0.0000 0.0000 0.0000 0.0000 33.6353
#
#
#
# Elastic Compliance Matrix: (Units=1/GPa)
#
#
# Indices 1 2 3 4 5 6 
#
# 1 0.018528 -0.010439 -0.002681 0.000000 0.000000 0.000000
# 2 -0.010439 0.018528 -0.002681 0.000000 0.000000 0.000000
# 3 -0.002681 -0.002681 0.009865 0.000000 0.000000 0.000000
# 4 0.000000 0.000000 0.000000 0.031041 0.000000 0.000000
# 5 0.000000 0.000000 0.000000 0.000000 0.031042 0.000000
# 6 0.000000 0.000000 0.000000 0.000000 0.000000 0.029731
#
#
# Mechanical properties :
#
#
# Convention : Reuss Voigt Hill
#
# Bulk Modulus (GPa) = 65.27947 65.46145 65.37046
# Shear Modulus (GPa) = 28.49932 30.87048 29.68490
#
# Velocity S-wave (km/s) = 3.35165 3.48829 3.42065
# Velocity P-wave (km/s) = 6.38037 6.48283 6.43181
#
# Compressibility (1/GPa) = 0.01531875
#
# Stress axis : x y z
#
# Youngs Moduli (GPa) = 53.97180 53.97220 101.37323
#
# Poissons Ratio (x) = 0.56340 0.27179
# Poissons Ratio (y) = 0.56340 0.27179
# Poissons Ratio (z) = 0.14471 0.14471
#
# Static dielectric constant tensor:
#      x y z
#    x 2.083000 0.000000 0.000000 
#    y 0.000000 2.083000 0.000000 
#    z 0.000000 0.000000 2.034640 
# 
# From -- ./inp_files/2594.got.cif
#   From: 2010.05.17/outbox.cif.g08.bks.cpg/sg96_2_cif.got.tgz:2594.got - 2010.06.03 19:52:08.
