data_PCOD9550727
_publ_section_title
;
Structure prediction by ZEFSAII (Michael W. Deem and Ramdas Pophale) SiO2 
 PCOD9550727
Probable space group: P 43 21 2
;
_chemical_formula_sum "Si O2"
_cell_formula_units_Z 24
_cell_length_a 12.235051
_cell_length_b 12.235051
_cell_length_c 6.907953
_cell_angle_alpha 90.000000
_cell_angle_beta 90.000000
_cell_angle_gamma 90.000000
_cell_volume 1034.096200
_symmetry_space_group_name_H-M "P 43 21 2"
_symmetry_group_IT_number 96
_symmetry_cell_setting 'tetragonal'
loop_
_space_group_symop_operation_xyz
x,y,z
1/2-y,1/2+x,3/4+z
-x,-y,1/2+z
1/2+y,1/2-x,1/4+z
1/2+x,1/2-y,1/4-z
1/2-x,1/2+y,3/4-z
y,x,-z
-y,-x,1/2-z
loop_
_atom_site_type_symbol
_atom_site_label
_atom_site_fract_x
_atom_site_fract_y
_atom_site_fract_z
Si Si1 0.688679 0.266366 0.520681
Si Si2 0.612397 0.096878 0.051732
Si Si3 0.729284 0.553943 0.052194
O O1 0.693474 0.306527 0.750000
O O2 0.788101 0.328256 0.417480
O O3 0.716553 0.136864 0.542753
O O4 0.573245 0.291905 0.424468
O O5 0.490432 0.111771 0.971844
O O6 0.685187 0.050316 0.875561
O O7 0.618363 0.618363 0.000000
#
# Coordination Sequence:
#
# PCOD9550727 Si02
#       3
#     8   8   8
#     4   9  17  29  53  78 100 140 185 225 267 331
#     4  10  18  32  57  80 103 145 190 229 271 340
#     4   9  16  28  52  80  98 135 186 226 259 330
#
# _framework density 23.208672
#
# number of rings (size 3 to 8) (size 9 to 14) (size 15 to 20)
#    0.000    3.333    6.667    0.000    0.000    0.000 
#    0.000    0.000   22.000    0.000    0.000    0.000 
#    0.000    0.000    0.000    0.000    0.000    0.000 
#
# Total GULP energy -134030.889610 kJ/mol
# GULP energy per Si atom -5584.620400 kJ/mol
# Density = 2.315585 g / cm^3
# Si number density = 23.208672 Si / 1000 Ang^3
#
#
#
# Elastic Constant Matrix: (Units=GPa)
#
#
# Indices 1 2 3 4 5 6 
#
# 1 193.8843 89.3576 44.7840 0.0000 0.0000 0.0000
# 2 89.3576 193.8869 44.7844 0.0000 0.0000 0.0000
# 3 44.7840 44.7844 63.0651 0.0000 0.0000 0.0000
# 4 0.0000 0.0000 0.0000 15.6205 0.0000 0.0000
# 5 0.0000 0.0000 0.0000 0.0000 15.6205 0.0000
# 6 0.0000 0.0000 0.0000 0.0000 0.0000 6.5971
#
#
#
# Elastic Compliance Matrix: (Units=1/GPa)
#
#
# Indices 1 2 3 4 5 6 
#
# 1 0.007060 -0.002507 -0.003233 0.000000 0.000000 0.000000
# 2 -0.002507 0.007060 -0.003233 0.000000 0.000000 0.000000
# 3 -0.003233 -0.003233 0.020449 0.000000 0.000000 0.000000
# 4 0.000000 0.000000 0.000000 0.064018 0.000000 0.000000
# 5 0.000000 0.000000 0.000000 0.000000 0.064018 0.000000
# 6 0.000000 0.000000 0.000000 0.000000 0.000000 0.151581
#
#
# Mechanical properties :
#
#
# Convention : Reuss Voigt Hill
#
# Bulk Modulus (GPa) = 60.16207 89.85426 75.00816
# Shear Modulus (GPa) = 14.80722 25.69498 20.25110
#
# Velocity S-wave (km/s) = 2.52861 3.33096 2.95713
# Velocity P-wave (km/s) = 5.87398 7.32077 6.63692
#
# Compressibility (1/GPa) = 0.01662177
#
# Stress axis : x y z
#
# Youngs Moduli (GPa) = 141.64459 141.64643 48.90320
#
# Poissons Ratio (x) = 0.35510 0.15811
# Poissons Ratio (y) = 0.35509 0.15811
# Poissons Ratio (z) = 0.45796 0.45797
#
# Static dielectric constant tensor:
#      x y z
#    x 1.874300 0.000000 0.000000 
#    y 0.000000 1.874300 0.000000 
#    z 0.000000 0.000000 1.937120 
# 
# From -- ./inp_files/961.got.cif
#   From: 2010.05.17/outbox.cif.g08.bks.cpg/sg96_1_cif.got.tgz:961.got - 2010.06.03 19:52:08.
