data_PCOD9550249
_publ_section_title
;
Structure prediction by ZEFSAII (Michael W. Deem and Ramdas Pophale) SiO2 
 PCOD9550249
Probable space group: P 42 21 2
;
_chemical_formula_sum "Si O2"
_cell_formula_units_Z 56
_cell_length_a 10.830611
_cell_length_b 10.830611
_cell_length_c 24.320254
_cell_angle_alpha 90.000000
_cell_angle_beta 90.000000
_cell_angle_gamma 90.000000
_cell_volume 2852.817709
_symmetry_space_group_name_H-M "P 42 21 2"
_symmetry_group_IT_number 94
_symmetry_cell_setting 'tetragonal'
loop_
_space_group_symop_operation_xyz
x,y,z
1/2-y,1/2+x,1/2+z
-x,-y,z
1/2+y,1/2-x,1/2+z
1/2+x,1/2-y,1/2-z
1/2-x,1/2+y,1/2-z
y,x,-z
-y,-x,-z
loop_
_atom_site_type_symbol
_atom_site_label
_atom_site_fract_x
_atom_site_fract_y
_atom_site_fract_z
Si Si1 0.622571 0.908537 0.915279
Si Si2 0.500000 0.500000 0.252521
Si Si3 0.530282 0.366075 0.057003
Si Si4 0.284239 0.451701 0.672927
Si Si5 0.807936 0.759856 0.351728
Si Si6 0.047836 0.375559 0.263441
Si Si7 0.785541 0.214460 0.500000
Si Si8 0.463960 0.261100 0.818267
O O1 0.685427 0.843159 0.968326
O O2 0.590858 0.791781 0.875454
O O3 0.500000 0.000000 0.923206
O O4 0.721536 0.986602 0.880057
O O5 0.529542 0.390155 0.295883
O O6 0.392192 0.449166 0.212721
O O7 0.500000 0.500000 0.084924
O O8 0.623531 0.282105 0.091017
O O9 0.595572 0.404429 0.000000
O O10 0.401442 0.302289 0.041863
O O11 0.324073 0.313976 0.654976
O O12 0.181742 0.450675 0.721302
O O13 0.910552 0.717313 0.309363
O O14 0.761324 0.892684 0.332812
O O15 0.163205 0.413696 0.225687
O O16 0.000000 0.500000 0.290391
#
# Coordination Sequence:
#
# PCOD9550249 Si02
#       8
#     8   4   8   8   8   8   4   8
#     4  11  23  43  70  93 131 172 221 268 339 396
#     4  12  24  36  60  98 132 172 220 258 310 384
#     4   9  21  39  64  94 120 144 212 281 319 365
#     4  11  23  39  62  90 128 178 213 249 313 399
#     4  12  21  37  64  90 123 168 205 253 323 376
#     4  11  22  38  56  93 135 164 210 254 303 386
#     4  10  23  44  64  99 120 158 224 292 330 379
#     4  11  21  36  62  94 126 171 208 255 314 385
#
# _framework density 19.629714
#
# number of rings (size 3 to 8) (size 9 to 14) (size 15 to 20)
#    0.000    1.286    5.714    2.571    3.000    0.000 
#    2.571    2.143    0.000    0.000    0.000    0.000 
#    0.000    0.000    0.000    0.000    0.000    0.000 
#
# Total GULP energy -311752.840593 kJ/mol
# GULP energy per Si atom -5567.015011 kJ/mol
# Density = 1.958504 g / cm^3
# Si number density = 19.629714 Si / 1000 Ang^3
#
#
#
# Elastic Constant Matrix: (Units=GPa)
#
#
# Indices 1 2 3 4 5 6 
#
# 1 55.5805 9.1885 36.1932 0.0000 0.0000 0.0000
# 2 9.1885 55.5806 36.1937 0.0000 0.0000 0.0000
# 3 36.1932 36.1937 92.5083 0.0000 0.0000 0.0000
# 4 0.0000 0.0000 0.0000 30.9116 0.0000 0.0000
# 5 0.0000 0.0000 0.0000 0.0000 30.9106 0.0000
# 6 0.0000 0.0000 0.0000 0.0000 0.0000 18.8226
#
#
#
# Elastic Compliance Matrix: (Units=1/GPa)
#
#
# Indices 1 2 3 4 5 6 
#
# 1 0.024496 0.002940 -0.010734 0.000000 0.000000 0.000000
# 2 0.002940 0.024496 -0.010734 0.000000 0.000000 0.000000
# 3 -0.010734 -0.010734 0.019209 0.000000 0.000000 0.000000
# 4 0.000000 0.000000 0.000000 0.032350 0.000000 0.000000
# 5 0.000000 0.000000 0.000000 0.000000 0.032351 0.000000
# 6 0.000000 0.000000 0.000000 0.000000 0.000000 0.053128
#
#
# Mechanical properties :
#
#
# Convention : Reuss Voigt Hill
#
# Bulk Modulus (GPa) = 32.10820 40.75779 36.43300
# Shear Modulus (GPa) = 21.41617 24.26855 22.84236
#
# Velocity S-wave (km/s) = 3.30662 3.51994 3.41495
# Velocity P-wave (km/s) = 5.56514 6.10970 5.84377
#
# Compressibility (1/GPa) = 0.03114469
#
# Stress axis : x y z
#
# Youngs Moduli (GPa) = 40.82333 40.82304 52.05798
#
# Poissons Ratio (x) = -0.12004 0.55880
# Poissons Ratio (y) = -0.12004 0.55881
# Poissons Ratio (z) = 0.43821 0.43821
#
# Static dielectric constant tensor:
#      x y z
#    x 2.057860 0.000000 0.000000 
#    y 0.000000 2.058000 0.000000 
#    z 0.000000 0.000000 1.697290 
# 
# From -- ./inp_files/5148.got.cif
#   From: 2010.05.17/outbox.cif.g08.bks.cpg/sg94_3_cif.got.tgz:5148.got - 2010.06.03 19:43:16.
