data_PCOD9550786
_publ_section_title
;
Structure prediction by ZEFSAII (Michael W. Deem and Ramdas Pophale) SiO2 
 PCOD9550786
Probable space group: P 43 21 2
;
_chemical_formula_sum "Si O2"
_cell_formula_units_Z 48
_cell_length_a 15.741518
_cell_length_b 15.741518
_cell_length_c 7.357661
_cell_angle_alpha 90.000000
_cell_angle_beta 90.000000
_cell_angle_gamma 90.000000
_cell_volume 1823.194469
_symmetry_space_group_name_H-M "P 43 21 2"
_symmetry_group_IT_number 96
_symmetry_cell_setting 'tetragonal'
loop_
_space_group_symop_operation_xyz
x,y,z
1/2-y,1/2+x,3/4+z
-x,-y,1/2+z
1/2+y,1/2-x,1/4+z
1/2+x,1/2-y,1/4-z
1/2-x,1/2+y,3/4-z
y,x,-z
-y,-x,1/2-z
loop_
_atom_site_type_symbol
_atom_site_label
_atom_site_fract_x
_atom_site_fract_y
_atom_site_fract_z
Si Si1 0.428093 0.436945 0.716725
Si Si2 0.761391 0.871040 0.638531
Si Si3 0.173575 0.618424 0.946971
Si Si4 0.988301 0.396223 0.660738
Si Si5 0.044368 0.216766 0.521346
Si Si6 0.708128 0.688789 0.217037
O O1 0.428675 0.428675 0.500000
O O2 0.472199 0.527802 0.750000
O O3 0.487743 0.361194 0.792606
O O4 0.336278 0.399672 0.773641
O O5 0.823447 0.823447 0.500000
O O6 0.705056 0.920772 0.492083
O O7 0.816767 0.902571 0.806684
O O8 0.695500 0.805681 0.729871
O O9 0.083214 0.584679 0.008140
O O10 0.237779 0.593231 0.108992
O O11 0.170932 0.722923 0.944751
O O12 0.947055 0.428999 0.845994
O O13 0.001193 0.295297 0.633658
O O14 0.698948 0.698948 0.000000
#
# Coordination Sequence:
#
# PCOD9550786 Si02
#       6
#     8   8   8   8   8   8
#     4  11  27  45  67  96 143 191 232 291 371 427
#     4  10  23  36  71 101 121 166 236 282 330 401
#     4  10  21  41  65 103 123 173 227 275 338 405
#     4  10  23  40  63  96 139 175 214 275 353 420
#     4  11  23  45  69  95 138 179 227 292 348 408
#     4  10  19  42  67  95 127 173 227 285 339 406
#
# _framework density 26.327418000000002
#
# number of rings (size 3 to 8) (size 9 to 14) (size 15 to 20)
#    0.000    1.667    3.333    0.000    7.000    2.667 
#    0.000    5.000    0.000    0.000    0.000    0.000 
#    0.000    0.000    0.000    0.000    0.000    0.000 
#
# Total GULP energy -268070.113962 kJ/mol
# GULP energy per Si atom -5584.794041 kJ/mol
# Density = 2.626750 g / cm^3
# Si number density = 26.327418 Si / 1000 Ang^3
#
#
#
# Elastic Constant Matrix: (Units=GPa)
#
#
# Indices 1 2 3 4 5 6 
#
# 1 -80.7811 171.0376 -1.9616 0.0000 0.0000 0.0000
# 2 171.0376 -80.7641 -1.9482 0.0000 0.0000 0.0000
# 3 -1.9616 -1.9482 92.1230 0.0000 0.0000 0.0000
# 4 0.0000 0.0000 0.0000 27.6812 0.0000 0.0000
# 5 0.0000 0.0000 0.0000 0.0000 27.6812 0.0000
# 6 0.0000 0.0000 0.0000 0.0000 0.0000 60.1800
#
#
#
# Elastic Compliance Matrix: (Units=1/GPa)
#
#
# Indices 1 2 3 4 5 6 
#
# 1 0.003558 0.007530 0.000235 0.000000 0.000000 0.000000
# 2 0.007530 0.003559 0.000236 0.000000 0.000000 0.000000
# 3 0.000235 0.000236 0.010865 0.000000 0.000000 0.000000
# 4 0.000000 0.000000 0.000000 0.036126 0.000000 0.000000
# 5 0.000000 0.000000 0.000000 0.000000 0.036126 0.000000
# 6 0.000000 0.000000 0.000000 0.000000 0.000000 0.016617
#
#
# Mechanical properties :
#
#
# Convention : Reuss Voigt Hill
#
# Bulk Modulus (GPa) = 29.42592 29.42592 29.42592
# Shear Modulus (GPa) = 48.93461 7.33849 28.13655
#
# Velocity S-wave (km/s) = 4.31593 1.67136 3.27267
# Velocity P-wave (km/s) = 6.00313 3.86339 5.04794
#
# Compressibility (1/GPa) = 0.03398365
#
# Stress axis : x y z
#
# Youngs Moduli (GPa) = 281.03069 280.96940 92.03828
#
# Poissons Ratio (x) = -2.11569 -0.02163
# Poissons Ratio (y) = -2.11615 -0.02168
# Poissons Ratio (z) = -0.06605 -0.06620
#
# Static dielectric constant tensor:
#      x y z
#    x 2.206640 0.000000 0.000000 
#    y 0.000000 2.206650 0.000000 
#    z 0.000000 0.000000 2.089310 
# 
# From -- ./inp_files/1508.got.cif
#   From: 2010.05.17/outbox.cif.g08.bks.cpg/sg96_1_cif.got.tgz:1508.got - 2010.06.03 19:52:08.
