data_PCOD9550406
_publ_section_title
;
Structure prediction by ZEFSAII (Michael W. Deem and Ramdas Pophale) SiO2 
 PCOD9550406
Probable space group: P 43 2 2
;
_chemical_formula_sum "Si O2"
_cell_formula_units_Z 44
_cell_length_a 8.714476
_cell_length_b 8.714476
_cell_length_c 22.132847
_cell_angle_alpha 90.000000
_cell_angle_beta 90.000000
_cell_angle_gamma 90.000000
_cell_volume 1680.814702
_symmetry_space_group_name_H-M "P 43 2 2"
_symmetry_group_IT_number 95
_symmetry_cell_setting 'tetragonal'
loop_
_space_group_symop_operation_xyz
x,y,z
-y,x,3/4+z
-x,-y,1/2+z
y,-x,1/4+z
x,-y,1/2-z
-x,y,-z
y,x,1/4-z
-y,-x,3/4-z
loop_
_atom_site_type_symbol
_atom_site_label
_atom_site_fract_x
_atom_site_fract_y
_atom_site_fract_z
Si Si1 0.670592 0.324765 0.515903
Si Si2 0.566641 0.193991 0.114619
Si Si3 0.765232 0.133527 0.709370
Si Si4 0.702750 0.930286 0.185630
Si Si5 0.995520 0.004481 0.875000
Si Si6 0.343107 0.968220 0.461083
O O1 0.500000 0.361218 0.500000
O O2 0.727171 0.432799 0.570053
O O3 0.756239 0.330315 0.451057
O O4 0.687080 0.151175 0.542839
O O5 0.699355 0.275886 0.072612
O O6 0.400638 0.157342 0.087858
O O7 0.624828 0.018951 0.130632
O O8 0.894034 0.199325 0.754880
O O9 0.832999 0.037312 0.652879
O O10 0.681029 0.000000 0.750000
O O11 0.880326 0.962016 0.175473
O O12 0.659518 0.000000 0.250000
O O13 0.500000 0.967730 0.500000
#
# Coordination Sequence:
#
# PCOD9550406 Si02
#       6
#     8   8   8   8   4   8
#     4  10  19  33  55  90 122 163 218 265 319 397
#     4   9  20  35  55  87 131 164 202 271 336 374
#     4  10  19  29  52  89 129 165 210 263 331 396
#     4   9  17  29  48  81 120 153 197 267 312 370
#     4  10  16  24  46  82 126 152 194 262 332 354
#     4   9  18  33  50  86 132 167 204 269 340 386
#
# _framework density 26.177781
#
# number of rings (size 3 to 8) (size 9 to 14) (size 15 to 20)
#    0.000    2.545    1.818    0.545    7.636    0.000 
#    0.000    0.000    0.000    3.273    0.000   36.909 
#    0.000    0.000    0.000    0.000    0.000    0.000 
#
# Total GULP energy -245169.255461 kJ/mol
# GULP energy per Si atom -5572.028533 kJ/mol
# Density = 2.611820 g / cm^3
# Si number density = 26.177781 Si / 1000 Ang^3
#
#
#
# Elastic Constant Matrix: (Units=GPa)
#
#
# Indices 1 2 3 4 5 6 
#
# 1 88.0395 15.2460 38.0250 0.0000 0.0000 0.0000
# 2 15.2460 88.0398 38.0248 0.0000 0.0000 0.0000
# 3 38.0250 38.0248 101.4181 0.0000 0.0000 0.0000
# 4 0.0000 0.0000 0.0000 22.1351 0.0000 0.0000
# 5 0.0000 0.0000 0.0000 0.0000 22.1350 0.0000
# 6 0.0000 0.0000 0.0000 0.0000 0.0000 17.5987
#
#
#
# Elastic Compliance Matrix: (Units=1/GPa)
#
#
# Indices 1 2 3 4 5 6 
#
# 1 0.013556 -0.000182 -0.005014 0.000000 0.000000 0.000000
# 2 -0.000182 0.013556 -0.005014 0.000000 0.000000 0.000000
# 3 -0.005014 -0.005014 0.013620 0.000000 0.000000 0.000000
# 4 0.000000 0.000000 0.000000 0.045177 0.000000 0.000000
# 5 0.000000 0.000000 0.000000 0.000000 0.045177 0.000000
# 6 0.000000 0.000000 0.000000 0.000000 0.000000 0.056822
#
#
# Mechanical properties :
#
#
# Convention : Reuss Voigt Hill
#
# Bulk Modulus (GPa) = 49.23476 51.12101 50.17788
# Shear Modulus (GPa) = 23.24505 24.78721 24.01613
#
# Velocity S-wave (km/s) = 2.98311 3.08048 3.03219
# Velocity P-wave (km/s) = 5.54202 5.67655 5.60969
#
# Compressibility (1/GPa) = 0.02031085
#
# Stress axis : x y z
#
# Youngs Moduli (GPa) = 73.76936 73.76985 73.42013
#
# Poissons Ratio (x) = 0.01341 0.36816
# Poissons Ratio (y) = 0.01341 0.36815
# Poissons Ratio (z) = 0.36991 0.36990
#
# Static dielectric constant tensor:
#      x y z
#    x 2.180110 0.000000 0.000000 
#    y 0.000000 2.180110 0.000000 
#    z 0.000000 0.000000 2.162020 
# 
# From -- ./inp_files/7810.got.cif
#   From: 2010.05.17/outbox.cif.g08.bks.cpg/sg95_4_cif.got.tgz:7810.got - 2010.06.03 19:46:49.
