data_PCOD9550817
_publ_section_title
;
Structure prediction by ZEFSAII (Michael W. Deem and Ramdas Pophale) SiO2 
 PCOD9550817
Probable space group: P 43 21 2
;
_chemical_formula_sum "Si O2"
_cell_formula_units_Z 56
_cell_length_a 14.272860
_cell_length_b 14.272860
_cell_length_c 11.287580
_cell_angle_alpha 90.000000
_cell_angle_beta 90.000000
_cell_angle_gamma 90.000000
_cell_volume 2299.444084
_symmetry_space_group_name_H-M "P 43 21 2"
_symmetry_group_IT_number 96
_symmetry_cell_setting 'tetragonal'
loop_
_space_group_symop_operation_xyz
x,y,z
1/2-y,1/2+x,3/4+z
-x,-y,1/2+z
1/2+y,1/2-x,1/4+z
1/2+x,1/2-y,1/4-z
1/2-x,1/2+y,3/4-z
y,x,-z
-y,-x,1/2-z
loop_
_atom_site_type_symbol
_atom_site_label
_atom_site_fract_x
_atom_site_fract_y
_atom_site_fract_z
Si Si1 0.218334 0.755732 0.516467
Si Si2 0.563615 0.617428 0.634834
Si Si3 0.510129 0.952270 0.868164
Si Si4 0.928715 0.247508 0.813638
Si Si5 0.694794 0.060175 0.947745
Si Si6 0.609275 0.362450 0.416703
Si Si7 0.170178 0.059562 0.578641
O O1 0.130556 0.795585 0.589975
O O2 0.168219 0.743597 0.387663
O O3 0.297226 0.837394 0.505684
O O4 0.266932 0.669281 0.582875
O O5 0.585003 0.585003 0.500000
O O6 0.454806 0.636216 0.656986
O O7 0.604497 0.528862 0.705996
O O8 0.522122 0.844924 0.903698
O O9 0.502088 0.946818 0.724108
O O10 0.600840 0.016180 0.897032
O O11 0.927108 0.242858 0.670989
O O12 0.999742 0.162963 0.844755
O O13 0.730638 0.984860 0.045194
O O14 0.640344 0.402672 0.545126
O O15 0.148782 0.148782 0.500000
#
# Coordination Sequence:
#
# PCOD9550817 Si02
#       7
#     8   8   8   8   8   8   8
#     4  11  24  42  66 101 133 182 238 293 360 440
#     4   9  23  45  64  92 137 175 233 290 350 435
#     4  10  23  45  67  96 144 191 242 297 367 441
#     4  11  23  41  64 101 139 171 240 302 354 428
#     4  10  22  39  65 102 136 177 225 294 358 428
#     4  11  24  42  68  99 134 187 230 294 370 427
#     4  10  20  36  68  97 135 168 214 279 357 425
#
# _framework density 24.353712000000002
#
# number of rings (size 3 to 8) (size 9 to 14) (size 15 to 20)
#    0.000    1.714    1.429    2.143    8.000    1.143 
#    7.714    0.000    0.000    0.000    0.000    0.000 
#    0.000    0.000    0.000    0.000    0.000    0.000 
#
# Total GULP energy -311894.603536 kJ/mol
# GULP energy per Si atom -5569.546492 kJ/mol
# Density = 2.429828 g / cm^3
# Si number density = 24.353712 Si / 1000 Ang^3
#
#
#
# Elastic Constant Matrix: (Units=GPa)
#
#
# Indices 1 2 3 4 5 6 
#
# 1 84.2128 45.2166 -4.3489 0.0000 0.0000 0.0000
# 2 45.2166 84.2128 -4.3489 0.0000 0.0000 0.0000
# 3 -4.3489 -4.3489 60.9120 0.0000 0.0000 0.0000
# 4 0.0000 0.0000 0.0000 26.8102 0.0000 0.0000
# 5 0.0000 0.0000 0.0000 0.0000 26.8102 0.0000
# 6 0.0000 0.0000 0.0000 0.0000 0.0000 23.5464
#
#
#
# Elastic Compliance Matrix: (Units=1/GPa)
#
#
# Indices 1 2 3 4 5 6 
#
# 1 0.016704 -0.008940 0.000554 0.000000 0.000000 0.000000
# 2 -0.008940 0.016704 0.000554 0.000000 0.000000 0.000000
# 3 0.000554 0.000554 0.016496 0.000000 0.000000 0.000000
# 4 0.000000 0.000000 0.000000 0.037299 0.000000 0.000000
# 5 0.000000 0.000000 0.000000 0.000000 0.037299 0.000000
# 6 0.000000 0.000000 0.000000 0.000000 0.000000 0.042469
#
#
# Mechanical properties :
#
#
# Convention : Reuss Voigt Hill
#
# Bulk Modulus (GPa) = 29.20529 33.59722 31.40126
# Shear Modulus (GPa) = 25.76690 28.28796 27.02743
#
# Velocity S-wave (km/s) = 3.25626 3.41184 3.33496
# Velocity P-wave (km/s) = 5.11428 5.41723 5.26793
#
# Compressibility (1/GPa) = 0.03424037
#
# Stress axis : x y z
#
# Youngs Moduli (GPa) = 59.86764 59.86764 60.61977
#
# Poissons Ratio (x) = 0.53522 -0.03360
# Poissons Ratio (y) = 0.53522 -0.03360
# Poissons Ratio (z) = -0.03318 -0.03318
#
# Static dielectric constant tensor:
#      x y z
#    x 2.079420 0.000000 0.000000 
#    y 0.000000 2.079420 0.000000 
#    z 0.000000 0.000000 3.798080 
# 
# From -- ./inp_files/2309.got.cif
#   From: 2010.05.17/outbox.cif.g08.bks.cpg/sg96_2_cif.got.tgz:2309.got - 2010.06.03 19:52:08.
