data_PCOD9550091
_publ_section_title
;
Structure prediction by ZEFSAII (Michael W. Deem and Ramdas Pophale) SiO2 
 PCOD9550091
Probable space group: P 42 21 2
;
_chemical_formula_sum "Si O2"
_cell_formula_units_Z 58
_cell_length_a 16.359775
_cell_length_b 16.359775
_cell_length_c 10.848434
_cell_angle_alpha 90.000000
_cell_angle_beta 90.000000
_cell_angle_gamma 90.000000
_cell_volume 2903.499155
_symmetry_space_group_name_H-M "P 42 21 2"
_symmetry_group_IT_number 94
_symmetry_cell_setting 'tetragonal'
loop_
_space_group_symop_operation_xyz
x,y,z
1/2-y,1/2+x,1/2+z
-x,-y,z
1/2+y,1/2-x,1/2+z
1/2+x,1/2-y,1/2-z
1/2-x,1/2+y,1/2-z
y,x,-z
-y,-x,-z
loop_
_atom_site_type_symbol
_atom_site_label
_atom_site_fract_x
_atom_site_fract_y
_atom_site_fract_z
Si Si1 0.380109 0.812344 0.600360
Si Si2 0.835745 0.181962 0.865384
Si Si3 0.294916 0.689162 0.192785
Si Si4 0.000000 0.000000 0.500000
Si Si5 0.565225 0.739752 0.179476
Si Si6 0.179744 0.020876 0.437465
Si Si7 0.311772 0.956703 0.243021
Si Si8 0.419954 0.810698 0.316042
O O1 0.350425 0.734492 0.678337
O O2 0.304754 0.875188 0.612679
O O3 0.462178 0.839881 0.671839
O O4 0.401394 0.795444 0.459239
O O5 0.745520 0.222831 0.861398
O O6 0.828005 0.116927 0.754521
O O7 0.900371 0.253523 0.841258
O O8 0.853137 0.146864 0.000000
O O9 0.312158 0.615109 0.101655
O O10 0.366573 0.750049 0.230963
O O11 0.083914 0.000041 0.421369
O O12 0.512054 0.791041 0.277679
O O13 0.507895 0.699858 0.075858
O O14 0.249686 0.978767 0.354028
O O15 0.387337 0.901545 0.286822
#
# Coordination Sequence:
#
# PCOD9550091 Si02
#       8
#     8   8   8   2   8   8   8   8
#     4  10  21  42  59  91 121 169 214 266 315 400
#     4  10  21  37  59  90 117 164 205 264 305 384
#     4   9  22  36  64  84 119 158 214 251 320 369
#     4  12  24  32  64  88 126 152 192 250 336 352
#     4  11  23  38  63  90 127 165 220 260 333 382
#     4  11  22  41  57  94 124 159 203 271 311 398
#     4  10  22  39  62  85 127 165 210 260 328 369
#     4  11  21  39  62  89 120 170 209 267 316 395
#
# _framework density 19.975898000000001
#
# number of rings (size 3 to 8) (size 9 to 14) (size 15 to 20)
#    0.000    1.655    1.379    2.897    4.828    0.552 
#    2.483    1.379    0.000    0.000    0.000    5.793 
#    0.000    0.000    0.000    0.000    0.000    0.000 
#
# Total GULP energy -323621.772321 kJ/mol
# GULP energy per Si atom -5579.685730 kJ/mol
# Density = 1.993043 g / cm^3
# Si number density = 19.975898 Si / 1000 Ang^3
#
#
#
# Elastic Constant Matrix: (Units=GPa)
#
#
# Indices 1 2 3 4 5 6 
#
# 1 60.6187 7.1191 12.0612 0.0000 0.0000 0.0000
# 2 7.1191 60.6188 12.0614 0.0000 0.0000 0.0000
# 3 12.0612 12.0614 98.0092 0.0000 0.0000 0.0000
# 4 0.0000 0.0000 0.0000 30.3625 0.0000 0.0000
# 5 0.0000 0.0000 0.0000 0.0000 30.3625 0.0000
# 6 0.0000 0.0000 0.0000 0.0000 0.0000 14.1767
#
#
#
# Elastic Compliance Matrix: (Units=1/GPa)
#
#
# Indices 1 2 3 4 5 6 
#
# 1 0.017066 -0.001626 -0.001900 0.000000 0.000000 0.000000
# 2 -0.001626 0.017066 -0.001900 0.000000 0.000000 0.000000
# 3 -0.001900 -0.001900 0.010671 0.000000 0.000000 0.000000
# 4 0.000000 0.000000 0.000000 0.032935 0.000000 0.000000
# 5 0.000000 0.000000 0.000000 0.000000 0.032935 0.000000
# 6 0.000000 0.000000 0.000000 0.000000 0.000000 0.070538
#
#
# Mechanical properties :
#
#
# Convention : Reuss Voigt Hill
#
# Bulk Modulus (GPa) = 29.45550 31.30336 30.37943
# Shear Modulus (GPa) = 24.58455 27.51401 26.04928
#
# Velocity S-wave (km/s) = 3.51195 3.71531 3.61506
# Velocity P-wave (km/s) = 5.58772 5.84031 5.71541
#
# Compressibility (1/GPa) = 0.03394952
#
# Stress axis : x y z
#
# Youngs Moduli (GPa) = 58.59753 58.59755 93.71397
#
# Poissons Ratio (x) = 0.09529 0.17806
# Poissons Ratio (y) = 0.09529 0.17806
# Poissons Ratio (z) = 0.11134 0.11134
#
# Static dielectric constant tensor:
#      x y z
#    x 1.705780 0.000000 0.000000 
#    y 0.000000 1.705780 0.000000 
#    z 0.000000 0.000000 1.717560 
# 
# From -- ./inp_files/1727.got.cif
#   From: 2010.05.17/outbox.cif.g08.bks.cpg/sg94_1_cif.got.tgz:1727.got - 2010.06.03 19:43:16.
