data_PCOD9550580
_publ_section_title
;
Structure prediction by ZEFSAII (Michael W. Deem and Ramdas Pophale) SiO2 
 PCOD9550580
Probable space group: P 43 2 2
;
_chemical_formula_sum "Si O2"
_cell_formula_units_Z 32
_cell_length_a 7.617992
_cell_length_b 7.617992
_cell_length_c 25.324831
_cell_angle_alpha 90.000000
_cell_angle_beta 90.000000
_cell_angle_gamma 90.000000
_cell_volume 1469.696231
_symmetry_space_group_name_H-M "P 43 2 2"
_symmetry_group_IT_number 95
_symmetry_cell_setting 'tetragonal'
loop_
_space_group_symop_operation_xyz
x,y,z
-y,x,3/4+z
-x,-y,1/2+z
y,-x,1/4+z
x,-y,1/2-z
-x,y,-z
y,x,1/4-z
-y,-x,3/4-z
loop_
_atom_site_type_symbol
_atom_site_label
_atom_site_fract_x
_atom_site_fract_y
_atom_site_fract_z
Si Si1 0.702778 0.409821 0.134172
Si Si2 0.134683 0.754957 0.821366
Si Si3 0.296733 0.592126 0.012442
Si Si4 0.808620 0.234389 0.025023
O O1 0.521198 0.521198 0.125000
O O2 0.831804 0.560631 0.155443
O O3 0.666360 0.267293 0.179413
O O4 0.780620 0.322132 0.082432
O O5 0.128248 0.871753 0.875000
O O6 0.301598 0.802426 0.783764
O O7 0.964661 0.750079 0.784438
O O8 0.500000 0.630773 0.000000
O O9 0.281318 0.382531 0.011194
O O10 0.000000 0.224510 0.000000
#
# Coordination Sequence:
#
# PCOD9550580 Si02
#       4
#     8   8   8   8
#     4  10  21  46  68  95 141 200 236 299 373 429
#     4  10  22  45  67  98 147 194 236 294 372 428
#     4  10  21  44  72  94 139 191 241 293 363 436
#     4  12  26  40  69 111 135 188 251 293 366 442
#
# _framework density 21.773208
#
# number of rings (size 3 to 8) (size 9 to 14) (size 15 to 20)
#    0.000    1.500    7.500    0.000    3.500    6.000 
#    0.000    1.250    0.000    0.000    0.000    0.000 
#    0.000    0.000    0.000    0.000    0.000    0.000 
#
# Total GULP energy -178331.492671 kJ/mol
# GULP energy per Si atom -5572.859146 kJ/mol
# Density = 2.172365 g / cm^3
# Si number density = 21.773208 Si / 1000 Ang^3
#
#
#
# Elastic Constant Matrix: (Units=GPa)
#
#
# Indices 1 2 3 4 5 6 
#
# 1 36.0487 33.6068 22.8088 0.0000 0.0000 0.0000
# 2 33.6068 36.0484 22.8087 0.0000 0.0000 0.0000
# 3 22.8088 22.8087 101.9686 0.0000 0.0000 0.0000
# 4 0.0000 0.0000 0.0000 20.7627 0.0000 0.0000
# 5 0.0000 0.0000 0.0000 0.0000 20.7628 0.0000
# 6 0.0000 0.0000 0.0000 0.0000 0.0000 13.1843
#
#
#
# Elastic Compliance Matrix: (Units=1/GPa)
#
#
# Indices 1 2 3 4 5 6 
#
# 1 0.213175 -0.196356 -0.003763 0.000000 0.000000 0.000000
# 2 -0.196356 0.213177 -0.003762 0.000000 0.000000 0.000000
# 3 -0.003763 -0.003762 0.011490 0.000000 0.000000 0.000000
# 4 0.000000 0.000000 0.000000 0.048163 0.000000 0.000000
# 5 0.000000 0.000000 0.000000 0.000000 0.048163 0.000000
# 6 0.000000 0.000000 0.000000 0.000000 0.000000 0.075848
#
#
# Mechanical properties :
#
#
# Convention : Reuss Voigt Hill
#
# Bulk Modulus (GPa) = 33.24336 36.94603 35.09470
# Shear Modulus (GPa) = 4.86474 17.26474 11.06474
#
# Velocity S-wave (km/s) = 1.49637 2.81896 2.25673
# Velocity P-wave (km/s) = 4.27629 5.25365 4.78996
#
# Compressibility (1/GPa) = 0.03008119
#
# Stress axis : x y z
#
# Youngs Moduli (GPa) = 4.69097 4.69094 87.03114
#
# Poissons Ratio (x) = 0.92109 0.32746
# Poissons Ratio (y) = 0.92110 0.32745
# Poissons Ratio (z) = 0.01765 0.01765
#
# Static dielectric constant tensor:
#      x y z
#    x 1.808120 0.000000 0.000000 
#    y 0.000000 1.808120 0.000000 
#    z 0.000000 0.000000 1.828500 
# 
# From -- ./inp_files/7208.got.cif
#   From: 2010.05.17/outbox.cif.g08.bks.cpg/sg95_4_cif.got.tgz:7208.got - 2010.06.03 19:46:49.
