data_PCOD9550609
_publ_section_title
;
Structure prediction by ZEFSAII (Michael W. Deem and Ramdas Pophale) SiO2 
 PCOD9550609
Probable space group: P 43 2 2
;
_chemical_formula_sum "Si O2"
_cell_formula_units_Z 48
_cell_length_a 7.577719
_cell_length_b 7.577719
_cell_length_c 31.567806
_cell_angle_alpha 90.000000
_cell_angle_beta 90.000000
_cell_angle_gamma 90.000000
_cell_volume 1812.681039
_symmetry_space_group_name_H-M "P 43 2 2"
_symmetry_group_IT_number 95
_symmetry_cell_setting 'tetragonal'
loop_
_space_group_symop_operation_xyz
x,y,z
-y,x,3/4+z
-x,-y,1/2+z
y,-x,1/4+z
x,-y,1/2-z
-x,y,-z
y,x,1/4-z
-y,-x,3/4-z
loop_
_atom_site_type_symbol
_atom_site_label
_atom_site_fract_x
_atom_site_fract_y
_atom_site_fract_z
Si Si1 0.306008 0.963058 0.545661
Si Si2 0.673244 0.193425 0.263085
Si Si3 0.108246 0.273910 0.199556
Si Si4 0.311593 0.503994 0.429504
Si Si5 0.726739 0.461403 0.405127
Si Si6 0.817545 0.811649 0.367017
O O1 0.235236 0.887850 0.500262
O O2 0.512317 0.916343 0.551437
O O3 0.196381 0.910019 0.587690
O O4 0.297800 0.169866 0.535324
O O5 0.585290 0.298366 0.225362
O O6 0.538202 0.173040 0.301003
O O7 0.734923 0.000000 0.250000
O O8 0.298831 0.241450 0.179849
O O9 0.960465 0.174012 0.171007
O O10 0.519870 0.503694 0.416786
O O11 0.184733 0.379609 0.402033
O O12 0.709623 0.290377 0.375000
O O13 0.824081 0.605896 0.377955
#
# Coordination Sequence:
#
# PCOD9550609 Si02
#       6
#     8   8   8   8   8   8
#     4  11  24  47  76 117 169 221 276 362 436 513
#     4  12  27  47  74 111 164 220 279 344 435 515
#     4  11  24  46  85 121 162 216 295 358 433 535
#     4  11  23  46  84 116 153 216 284 350 426 523
#     4  10  22  43  75 111 146 201 272 344 412 513
#     4  11  23  47  78 121 161 207 288 347 436 523
#
# _framework density 26.480117
#
# number of rings (size 3 to 8) (size 9 to 14) (size 15 to 20)
#    0.000    1.000    3.333    3.500    4.667    2.667 
#    0.000    8.333    7.333    0.000    0.000    0.000 
#    0.000    0.000    0.000    0.000    0.000    0.000 
#
# Total GULP energy -268565.103179 kJ/mol
# GULP energy per Si atom -5595.106316 kJ/mol
# Density = 2.641985 g / cm^3
# Si number density = 26.480117 Si / 1000 Ang^3
#
#
#
# Elastic Constant Matrix: (Units=GPa)
#
#
# Indices 1 2 3 4 5 6 
#
# 1 103.2187 43.8096 58.1813 0.0000 0.0000 0.0000
# 2 43.8096 103.2187 58.1813 0.0000 0.0000 0.0000
# 3 58.1813 58.1813 215.6413 0.0000 0.0000 0.0000
# 4 0.0000 0.0000 0.0000 42.4312 0.0000 0.0000
# 5 0.0000 0.0000 0.0000 0.0000 42.4312 0.0000
# 6 0.0000 0.0000 0.0000 0.0000 0.0000 18.6083
#
#
#
# Elastic Compliance Matrix: (Units=1/GPa)
#
#
# Indices 1 2 3 4 5 6 
#
# 1 0.012740 -0.004092 -0.002333 0.000000 0.000000 0.000000
# 2 -0.004092 0.012740 -0.002333 0.000000 0.000000 0.000000
# 3 -0.002333 -0.002333 0.005896 0.000000 0.000000 0.000000
# 4 0.000000 0.000000 0.000000 0.023568 0.000000 0.000000
# 5 0.000000 0.000000 0.000000 0.000000 0.023568 0.000000
# 6 0.000000 0.000000 0.000000 0.000000 0.000000 0.053740
#
#
# Mechanical properties :
#
#
# Convention : Reuss Voigt Hill
#
# Bulk Modulus (GPa) = 72.15356 82.49145 77.32250
# Shear Modulus (GPa) = 32.38575 38.15457 35.27016
#
# Velocity S-wave (km/s) = 3.50097 3.80001 3.65355
# Velocity P-wave (km/s) = 6.60679 7.10445 6.86014
#
# Compressibility (1/GPa) = 0.01385933
#
# Stress axis : x y z
#
# Youngs Moduli (GPa) = 78.49138 78.49138 169.59481
#
# Poissons Ratio (x) = 0.32120 0.39572
# Poissons Ratio (y) = 0.32120 0.39572
# Poissons Ratio (z) = 0.18314 0.18314
#
# Static dielectric constant tensor:
#      x y z
#    x 2.123840 0.000000 0.000000 
#    y 0.000000 2.123840 0.000000 
#    z 0.000000 0.000000 2.195650 
# 
# From -- ./inp_files/7955.got.cif
#   From: 2010.05.17/outbox.cif.g08.bks.cpg/sg95_4_cif.got.tgz:7955.got - 2010.06.03 19:46:49.
