data_PCOD9550677
_publ_section_title
;
Structure prediction by ZEFSAII (Michael W. Deem and Ramdas Pophale) SiO2 
 PCOD9550677
Probable space group: P 43 2 2
;
_chemical_formula_sum "Si O2"
_cell_formula_units_Z 36
_cell_length_a 11.962113
_cell_length_b 11.962113
_cell_length_c 10.210111
_cell_angle_alpha 90.000000
_cell_angle_beta 90.000000
_cell_angle_gamma 90.000000
_cell_volume 1460.986708
_symmetry_space_group_name_H-M "P 43 2 2"
_symmetry_group_IT_number 95
_symmetry_cell_setting 'tetragonal'
loop_
_space_group_symop_operation_xyz
x,y,z
-y,x,3/4+z
-x,-y,1/2+z
y,-x,1/4+z
x,-y,1/2-z
-x,y,-z
y,x,1/4-z
-y,-x,3/4-z
loop_
_atom_site_type_symbol
_atom_site_label
_atom_site_fract_x
_atom_site_fract_y
_atom_site_fract_z
Si Si1 0.893772 0.271602 0.224030
Si Si2 0.514843 0.696354 0.652290
Si Si3 0.553844 0.062465 0.857984
Si Si4 0.134726 0.103352 0.984896
Si Si5 0.323745 0.676256 0.875000
O O1 0.830047 0.187480 0.127499
O O2 0.800669 0.331428 0.311162
O O3 0.976138 0.345315 0.133800
O O4 0.985470 0.192591 0.293827
O O5 0.500000 0.727003 0.500000
O O6 0.589458 0.589458 0.625000
O O7 0.572310 0.812603 0.696304
O O8 0.415491 0.668672 0.756337
O O9 0.478423 0.000000 0.750000
O O10 0.500000 0.060779 0.000000
O O11 0.159928 0.159928 0.125000
O O12 0.000000 0.089709 0.000000
#
# Coordination Sequence:
#
# PCOD9550677 Si02
#       5
#     8   8   8   8   4
#     4  11  25  43  77 115 176 212 284 334 417 512
#     4  11  30  55  85 112 154 214 282 359 436 506
#     4  11  25  47  76 117 157 212 266 351 423 503
#     4   9  20  39  67 111 164 231 268 318 403 499
#     4  12  30  52  82 128 158 226 284 364 434 516
#
# _framework density 24.640881
#
# number of rings (size 3 to 8) (size 9 to 14) (size 15 to 20)
#    0.000    1.333    0.000    3.333   15.556    2.667 
#    0.000    0.000    0.000    0.000    0.000    0.000 
#    0.000    0.000    0.000    0.000    0.000    0.000 
#
# Total GULP energy -200550.656147 kJ/mol
# GULP energy per Si atom -5570.851560 kJ/mol
# Density = 2.458480 g / cm^3
# Si number density = 24.640881 Si / 1000 Ang^3
#
#
#
# Elastic Constant Matrix: (Units=GPa)
#
#
# Indices 1 2 3 4 5 6 
#
# 1 112.3637 69.0557 60.2565 0.0000 0.0000 0.0000
# 2 69.0557 112.3638 60.2568 0.0000 0.0000 0.0000
# 3 60.2565 60.2568 128.9005 0.0000 0.0000 0.0000
# 4 0.0000 0.0000 0.0000 45.7036 0.0000 0.0000
# 5 0.0000 0.0000 0.0000 0.0000 45.7034 0.0000
# 6 0.0000 0.0000 0.0000 0.0000 0.0000 20.8211
#
#
#
# Elastic Compliance Matrix: (Units=1/GPa)
#
#
# Indices 1 2 3 4 5 6 
#
# 1 0.015543 -0.007548 -0.003737 0.000000 0.000000 0.000000
# 2 -0.007548 0.015543 -0.003737 0.000000 0.000000 0.000000
# 3 -0.003737 -0.003737 0.011252 0.000000 0.000000 0.000000
# 4 0.000000 0.000000 0.000000 0.021880 0.000000 0.000000
# 5 0.000000 0.000000 0.000000 0.000000 0.021880 0.000000
# 6 0.000000 0.000000 0.000000 0.000000 0.000000 0.048028
#
#
# Mechanical properties :
#
#
# Convention : Reuss Voigt Hill
#
# Bulk Modulus (GPa) = 81.35133 81.41846 81.38489
# Shear Modulus (GPa) = 29.71456 33.38288 31.54872
#
# Velocity S-wave (km/s) = 3.47638 3.68472 3.58207
# Velocity P-wave (km/s) = 7.01428 7.15658 7.08579
#
# Compressibility (1/GPa) = 0.01229236
#
# Stress axis : x y z
#
# Youngs Moduli (GPa) = 64.33964 64.33951 88.87316
#
# Poissons Ratio (x) = 0.48563 0.33214
# Poissons Ratio (y) = 0.48563 0.33214
# Poissons Ratio (z) = 0.24045 0.24045
#
# Static dielectric constant tensor:
#      x y z
#    x 2.002690 0.000000 0.000000 
#    y 0.000000 2.002690 0.000000 
#    z 0.000000 0.000000 2.111770 
# 
# From -- ./inp_files/3564.got.cif
#   From: 2010.05.17/outbox.cif.g08.bks.cpg/sg95_2_cif.got.tgz:3564.got - 2010.06.03 19:46:49.
