data_PCOD9550517
_publ_section_title
;
Structure prediction by ZEFSAII (Michael W. Deem and Ramdas Pophale) SiO2 
 PCOD9550517
Probable space group: P 43 2 2
;
_chemical_formula_sum "Si O2"
_cell_formula_units_Z 36
_cell_length_a 8.136041
_cell_length_b 8.136041
_cell_length_c 23.804585
_cell_angle_alpha 90.000000
_cell_angle_beta 90.000000
_cell_angle_gamma 90.000000
_cell_volume 1575.748388
_symmetry_space_group_name_H-M "P 43 2 2"
_symmetry_group_IT_number 95
_symmetry_cell_setting 'tetragonal'
loop_
_space_group_symop_operation_xyz
x,y,z
-y,x,3/4+z
-x,-y,1/2+z
y,-x,1/4+z
x,-y,1/2-z
-x,y,-z
y,x,1/4-z
-y,-x,3/4-z
loop_
_atom_site_type_symbol
_atom_site_label
_atom_site_fract_x
_atom_site_fract_y
_atom_site_fract_z
Si Si1 0.749989 0.600629 0.167393
Si Si2 0.578571 0.000000 0.750000
Si Si3 0.928305 0.333396 0.600284
Si Si4 0.669936 0.221300 0.029192
Si Si5 0.269076 0.137621 0.475182
O O1 0.598040 0.598040 0.125000
O O2 0.809146 0.425344 0.188570
O O3 0.738947 0.715784 0.221947
O O4 0.896774 0.666187 0.129229
O O5 0.474500 0.065432 0.803325
O O6 0.678998 0.161736 0.730082
O O7 0.809133 0.356621 0.654144
O O8 0.884680 0.170266 0.564616
O O9 0.500000 0.285012 0.000000
O O10 0.704638 0.043611 0.999374
#
# Coordination Sequence:
#
# PCOD9550517 Si02
#       5
#     8   4   8   8   8
#     4  10  20  39  64  94 135 185 237 304 385 444
#     4  12  28  46  78 118 148 220 262 306 438 472
#     4  11  23  45  70 107 149 187 267 319 377 493
#     4  11  25  51  74 110 159 202 258 338 393 477
#     4  10  21  43  66  95 142 184 243 313 374 453
#
# _framework density 22.846285000000002
#
# number of rings (size 3 to 8) (size 9 to 14) (size 15 to 20)
#    0.000    1.333    4.444    2.667    0.000    5.333 
#   12.000    0.000    0.000    0.000    0.000    0.000 
#    0.000    0.000    0.000    0.000    0.000    0.000 
#
# Total GULP energy -201022.772577 kJ/mol
# GULP energy per Si atom -5583.965905 kJ/mol
# Density = 2.279429 g / cm^3
# Si number density = 22.846285 Si / 1000 Ang^3
#
#
#
# Elastic Constant Matrix: (Units=GPa)
#
#
# Indices 1 2 3 4 5 6 
#
# 1 65.8809 61.8737 70.8174 0.0000 0.0000 0.0000
# 2 61.8737 65.8809 70.8174 0.0000 0.0000 0.0000
# 3 70.8174 70.8174 185.8931 0.0000 0.0000 0.0000
# 4 0.0000 0.0000 0.0000 42.6879 0.0000 0.0000
# 5 0.0000 0.0000 0.0000 0.0000 42.6879 0.0000
# 6 0.0000 0.0000 0.0000 0.0000 0.0000 30.8261
#
#
#
# Elastic Compliance Matrix: (Units=1/GPa)
#
#
# Indices 1 2 3 4 5 6 
#
# 1 0.131553 -0.118003 -0.005162 0.000000 0.000000 0.000000
# 2 -0.118003 0.131553 -0.005162 0.000000 0.000000 0.000000
# 3 -0.005162 -0.005162 0.009313 0.000000 0.000000 0.000000
# 4 0.000000 0.000000 0.000000 0.023426 0.000000 0.000000
# 5 0.000000 0.000000 0.000000 0.000000 0.023426 0.000000
# 6 0.000000 0.000000 0.000000 0.000000 0.000000 0.032440
#
#
# Mechanical properties :
#
#
# Convention : Reuss Voigt Hill
#
# Bulk Modulus (GPa) = 63.43189 80.51911 71.97550
# Shear Modulus (GPa) = 8.14838 30.85014 19.49926
#
# Velocity S-wave (km/s) = 1.89060 3.67868 2.92464
# Velocity P-wave (km/s) = 5.70883 7.30506 6.55571
#
# Compressibility (1/GPa) = 0.01576494
#
# Stress axis : x y z
#
# Youngs Moduli (GPa) = 7.60149 7.60149 107.38148
#
# Poissons Ratio (x) = 0.89700 0.55432
# Poissons Ratio (y) = 0.89700 0.55432
# Poissons Ratio (z) = 0.03924 0.03924
#
# Static dielectric constant tensor:
#      x y z
#    x 1.938480 0.000000 0.000000 
#    y 0.000000 1.938480 0.000000 
#    z 0.000000 0.000000 1.916600 
# 
# From -- ./inp_files/6249.got.cif
#   From: 2010.05.17/outbox.cif.g08.bks.cpg/sg95_4_cif.got.tgz:6249.got - 2010.06.03 19:46:49.
