data_PCOD9550693
_publ_section_title
;
Structure prediction by ZEFSAII (Michael W. Deem and Ramdas Pophale) SiO2 
 PCOD9550693
Probable space group: P 43 2 2
;
_chemical_formula_sum "Si O2"
_cell_formula_units_Z 40
_cell_length_a 16.927466
_cell_length_b 16.927466
_cell_length_c 5.866253
_cell_angle_alpha 90.000000
_cell_angle_beta 90.000000
_cell_angle_gamma 90.000000
_cell_volume 1680.910885
_symmetry_space_group_name_H-M "P 43 2 2"
_symmetry_group_IT_number 95
_symmetry_cell_setting 'tetragonal'
loop_
_space_group_symop_operation_xyz
x,y,z
-y,x,3/4+z
-x,-y,1/2+z
y,-x,1/4+z
x,-y,1/2-z
-x,y,-z
y,x,1/4-z
-y,-x,3/4-z
loop_
_atom_site_type_symbol
_atom_site_label
_atom_site_fract_x
_atom_site_fract_y
_atom_site_fract_z
Si Si1 0.621795 0.500000 0.250000
Si Si2 0.348480 0.874454 0.406009
Si Si3 0.276088 0.000000 0.750000
Si Si4 0.865051 0.791752 0.311602
Si Si5 0.000000 0.540900 0.500000
Si Si6 0.709701 0.419662 0.877185
Si Si7 0.083667 0.916334 0.375000
O O1 0.560490 0.560490 0.125000
O O2 0.686145 0.555490 0.370672
O O3 0.270573 0.853528 0.261783
O O4 0.403411 0.924030 0.236001
O O5 0.397179 0.796045 0.460814
O O6 0.326091 0.933167 0.613433
O O7 0.229047 0.050643 0.557574
O O8 0.865380 0.880355 0.417014
O O9 0.796073 0.796073 0.125000
O O10 0.006772 0.500000 0.250000
O O11 0.681549 0.500000 0.750000
O O12 0.659262 0.340739 0.875000
O O13 0.000000 0.911976 0.500000
#
# Coordination Sequence:
#
# PCOD9550693 Si02
#       7
#     4   8   4   8   4   8   4
#     4  12  24  48  82 116 166 220 262 336 434 528
#     4  12  28  49  80 119 163 220 286 355 431 520
#     4  12  25  52  80 112 165 222 284 354 449 510
#     4  12  26  47  80 110 156 211 277 344 430 517
#     4  12  27  52  82 118 167 228 288 354 443 532
#     4  12  28  49  79 122 165 210 274 338 422 511
#     4  12  28  48  68 114 154 210 268 350 424 514
#
# _framework density 23.796621999999999
#
# number of rings (size 3 to 8) (size 9 to 14) (size 15 to 20)
#    0.000    0.000    4.000    5.400    7.000    2.400 
#    1.800    0.000    0.000    0.000    0.000    0.000 
#    0.000    0.000    0.000    0.000    0.000    0.000 
#
# Total GULP energy -222820.933082 kJ/mol
# GULP energy per Si atom -5570.523327 kJ/mol
# Density = 2.374246 g / cm^3
# Si number density = 23.796622 Si / 1000 Ang^3
#
#
#
# Elastic Constant Matrix: (Units=GPa)
#
#
# Indices 1 2 3 4 5 6 
#
# 1 90.8328 51.0644 40.3376 0.0000 0.0000 0.0000
# 2 51.0644 90.8402 40.3393 0.0000 0.0000 0.0000
# 3 40.3376 40.3393 90.5989 0.0000 0.0000 0.0000
# 4 0.0000 0.0000 0.0000 19.7918 0.0000 0.0000
# 5 0.0000 0.0000 0.0000 0.0000 19.7924 0.0000
# 6 0.0000 0.0000 0.0000 0.0000 0.0000 34.8893
#
#
#
# Elastic Compliance Matrix: (Units=1/GPa)
#
#
# Indices 1 2 3 4 5 6 
#
# 1 0.017290 -0.007854 -0.004201 0.000000 0.000000 0.000000
# 2 -0.007854 0.017289 -0.004201 0.000000 0.000000 0.000000
# 3 -0.004201 -0.004201 0.014779 0.000000 0.000000 0.000000
# 4 0.000000 0.000000 0.000000 0.050526 0.000000 0.000000
# 5 0.000000 0.000000 0.000000 0.000000 0.050525 0.000000
# 6 0.000000 0.000000 0.000000 0.000000 0.000000 0.028662
#
#
# Mechanical properties :
#
#
# Convention : Reuss Voigt Hill
#
# Bulk Modulus (GPa) = 59.36313 59.52827 59.44570
# Shear Modulus (GPa) = 23.02049 24.26340 23.64194
#
# Velocity S-wave (km/s) = 3.11366 3.19661 3.15540
# Velocity P-wave (km/s) = 6.15846 6.22046 6.18954
#
# Compressibility (1/GPa) = 0.01684547
#
# Stress axis : x y z
#
# Youngs Moduli (GPa) = 57.83622 57.84093 67.66475
#
# Poissons Ratio (x) = 0.45427 0.28428
# Poissons Ratio (y) = 0.45423 0.28427
# Poissons Ratio (z) = 0.24299 0.24300
#
# Static dielectric constant tensor:
#      x y z
#    x 1.978890 0.000000 0.000000 
#    y 0.000000 1.978870 0.000000 
#    z 0.000000 0.000000 2.283220 
# 
# From -- ./inp_files/934.got.cif
#   From: 2010.05.17/outbox.cif.g08.bks.cpg/sg95_1_cif.got.tgz:934.got - 2010.06.03 19:46:49.
