data_PCOD9550748
_publ_section_title
;
Structure prediction by ZEFSAII (Michael W. Deem and Ramdas Pophale) SiO2 
 PCOD9550748
Probable space group: P 43 21 2
;
_chemical_formula_sum "Si O2"
_cell_formula_units_Z 40
_cell_length_a 7.175497
_cell_length_b 7.175497
_cell_length_c 27.160402
_cell_angle_alpha 90.000000
_cell_angle_beta 90.000000
_cell_angle_gamma 90.000000
_cell_volume 1398.428184
_symmetry_space_group_name_H-M "P 43 21 2"
_symmetry_group_IT_number 96
_symmetry_cell_setting 'tetragonal'
loop_
_space_group_symop_operation_xyz
x,y,z
1/2-y,1/2+x,3/4+z
-x,-y,1/2+z
1/2+y,1/2-x,1/4+z
1/2+x,1/2-y,1/4-z
1/2-x,1/2+y,3/4-z
y,x,-z
-y,-x,1/2-z
loop_
_atom_site_type_symbol
_atom_site_label
_atom_site_fract_x
_atom_site_fract_y
_atom_site_fract_z
Si Si1 0.385198 0.614803 0.250000
Si Si2 0.338559 0.753488 0.479760
Si Si3 0.737008 0.051936 0.695411
Si Si4 0.369362 0.993969 0.638339
Si Si5 0.225350 0.225350 0.000000
Si Si6 0.768510 0.406089 0.148606
O O1 0.589628 0.703753 0.251690
O O2 0.268308 0.699835 0.296413
O O3 0.289511 0.559518 0.505842
O O4 0.345852 0.763653 0.419722
O O5 0.551664 0.788855 0.495442
O O6 0.542269 0.962463 0.677181
O O7 0.845594 0.008828 0.644930
O O8 0.238547 0.814136 0.633898
O O9 0.521864 0.990428 0.594270
O O10 0.107703 0.173408 0.951828
#
# Coordination Sequence:
#
# PCOD9550748 Si02
#       6
#     4   8   8   8   4   8
#     4  10  21  40  65  98 134 174 225 282 351 426
#     4  10  19  37  62  98 132 173 221 285 346 417
#     4   9  19  34  62  88 130 174 214 277 347 408
#     4   8  18  31  56  93 121 162 220 273 329 412
#     4  10  19  32  67  92 120 184 235 276 351 414
#     4   9  17  34  57  93 122 166 226 276 330 416
#
# _framework density 28.603542999999998
#
# number of rings (size 3 to 8) (size 9 to 14) (size 15 to 20)
#    1.200    1.600    0.000    1.800    0.000    1.600 
#    0.000    9.000    4.400    9.600    0.000    0.000 
#    0.000    0.000    0.000    0.000    0.000    0.000 
#
# Total GULP energy -222758.861213 kJ/mol
# GULP energy per Si atom -5568.971530 kJ/mol
# Density = 2.853844 g / cm^3
# Si number density = 28.603543 Si / 1000 Ang^3
#
#
#
# Elastic Constant Matrix: (Units=GPa)
#
#
# Indices 1 2 3 4 5 6 
#
# 1 109.9995 61.7972 5.3373 0.0000 0.0000 0.0000
# 2 61.7972 109.9990 5.3375 0.0000 0.0000 0.0000
# 3 5.3373 5.3375 66.1726 0.0000 0.0000 0.0000
# 4 0.0000 0.0000 0.0000 28.2319 0.0000 0.0000
# 5 0.0000 0.0000 0.0000 0.0000 28.2317 0.0000
# 6 0.0000 0.0000 0.0000 0.0000 0.0000 34.8227
#
#
#
# Elastic Compliance Matrix: (Units=1/GPa)
#
#
# Indices 1 2 3 4 5 6 
#
# 1 0.013298 -0.007448 -0.000472 0.000000 0.000000 0.000000
# 2 -0.007448 0.013298 -0.000472 0.000000 0.000000 0.000000
# 3 -0.000472 -0.000472 0.015188 0.000000 0.000000 0.000000
# 4 0.000000 0.000000 0.000000 0.035421 0.000000 0.000000
# 5 0.000000 0.000000 0.000000 0.000000 0.035421 0.000000
# 6 0.000000 0.000000 0.000000 0.000000 0.000000 0.028717
#
#
# Mechanical properties :
#
#
# Convention : Reuss Voigt Hill
#
# Bulk Modulus (GPa) = 39.99844 47.90168 43.95006
# Shear Modulus (GPa) = 30.03719 32.50386 31.27052
#
# Velocity S-wave (km/s) = 3.24407 3.37465 3.31000
# Velocity P-wave (km/s) = 5.29586 5.65398 5.47784
#
# Compressibility (1/GPa) = 0.02500098
#
# Stress axis : x y z
#
# Youngs Moduli (GPa) = 75.19899 75.19864 65.84096
#
# Poissons Ratio (x) = 0.56007 0.03107
# Poissons Ratio (y) = 0.56008 0.03107
# Poissons Ratio (z) = 0.03548 0.03549
#
# Static dielectric constant tensor:
#      x y z
#    x 2.452060 0.000000 0.000000 
#    y 0.000000 2.452060 0.000000 
#    z 0.000000 0.000000 2.971950 
# 
# From -- ./inp_files/4351.got.cif
#   From: 2010.05.17/outbox.cif.g08.bks.cpg/sg96_3_cif.got.tgz:4351.got - 2010.06.03 19:52:08.
