data_PCOD9550362
_publ_section_title
;
Structure prediction by ZEFSAII (Michael W. Deem and Ramdas Pophale) SiO2 
 PCOD9550362
Probable space group: P 42 21 2
;
_chemical_formula_sum "Si O2"
_cell_formula_units_Z 34
_cell_length_a 8.593850
_cell_length_b 8.593850
_cell_length_c 20.483183
_cell_angle_alpha 90.000000
_cell_angle_beta 90.000000
_cell_angle_gamma 90.000000
_cell_volume 1512.770278
_symmetry_space_group_name_H-M "P 42 21 2"
_symmetry_group_IT_number 94
_symmetry_cell_setting 'tetragonal'
loop_
_space_group_symop_operation_xyz
x,y,z
1/2-y,1/2+x,1/2+z
-x,-y,z
1/2+y,1/2-x,1/2+z
1/2+x,1/2-y,1/2-z
1/2-x,1/2+y,1/2-z
y,x,-z
-y,-x,-z
loop_
_atom_site_type_symbol
_atom_site_label
_atom_site_fract_x
_atom_site_fract_y
_atom_site_fract_z
Si Si1 0.350700 0.408414 0.076420
Si Si2 0.559796 0.168997 0.823395
Si Si3 0.048318 0.324895 0.917409
Si Si4 0.165358 0.921275 0.203941
Si Si5 0.500000 0.500000 0.500000
O O1 0.500000 0.500000 0.102525
O O2 0.211097 0.515840 0.101976
O O3 0.324015 0.232173 0.097280
O O4 0.382624 0.382624 0.000000
O O5 0.471928 0.289078 0.776389
O O6 0.738537 0.164016 0.805574
O O7 0.500000 0.000000 0.808421
O O8 0.000000 0.500000 0.942115
O O9 0.973234 0.295598 0.847379
O O10 0.005708 0.168287 0.960623
O O11 0.000000 0.000000 0.186865
#
# Coordination Sequence:
#
# PCOD9550362 Si02
#       5
#     8   8   8   8   2
#     4  11  25  47  70 107 148 199 262 313 386 473
#     4  12  26  45  75 109 151 201 258 325 402 472
#     4  12  26  48  76 109 158 205 260 325 395 468
#     4  12  25  47  75 112 153 200 257 329 397 480
#     4  12  28  52  74 118 160 212 262 334 390 492
#
# _framework density 22.475321999999998
#
# number of rings (size 3 to 8) (size 9 to 14) (size 15 to 20)
#    0.000    0.235    2.353    7.059    0.000    4.706 
#    0.000    0.000    0.000    0.000    0.000    0.000 
#    0.000    0.000    0.000    0.000    0.000    0.000 
#
# Total GULP energy -189844.193785 kJ/mol
# GULP energy per Si atom -5583.652758 kJ/mol
# Density = 2.242417 g / cm^3
# Si number density = 22.475322 Si / 1000 Ang^3
#
#
#
# Elastic Constant Matrix: (Units=GPa)
#
#
# Indices 1 2 3 4 5 6 
#
# 1 120.5161 112.0927 45.9511 0.0000 0.0000 0.0000
# 2 112.0927 120.5161 45.9511 0.0000 0.0000 0.0000
# 3 45.9511 45.9511 101.6540 0.0000 0.0000 0.0000
# 4 0.0000 0.0000 0.0000 81.5894 0.0000 0.0000
# 5 0.0000 0.0000 0.0000 0.0000 81.5894 0.0000
# 6 0.0000 0.0000 0.0000 0.0000 0.0000 46.1729
#
#
#
# Elastic Compliance Matrix: (Units=1/GPa)
#
#
# Indices 1 2 3 4 5 6 
#
# 1 0.061975 -0.056741 -0.002366 0.000000 0.000000 0.000000
# 2 -0.056741 0.061975 -0.002366 0.000000 0.000000 0.000000
# 3 -0.002366 -0.002366 0.011976 0.000000 0.000000 0.000000
# 4 0.000000 0.000000 0.000000 0.012256 0.000000 0.000000
# 5 0.000000 0.000000 0.000000 0.000000 0.012256 0.000000
# 6 0.000000 0.000000 0.000000 0.000000 0.000000 0.021658
#
#
# Mechanical properties :
#
#
# Convention : Reuss Voigt Hill
#
# Bulk Modulus (GPa) = 77.03947 83.40844 80.22395
# Shear Modulus (GPa) = 16.16188 51.11642 33.63915
#
# Velocity S-wave (km/s) = 2.68450 4.77417 3.87294
# Velocity P-wave (km/s) = 6.63027 8.22083 7.46802
#
# Compressibility (1/GPa) = 0.01298036
#
# Stress axis : x y z
#
# Youngs Moduli (GPa) = 16.13551 16.13551 83.49898
#
# Poissons Ratio (x) = 0.91555 0.19755
# Poissons Ratio (y) = 0.91555 0.19755
# Poissons Ratio (z) = 0.03817 0.03817
#
# Static dielectric constant tensor:
#      x y z
#    x 1.707340 0.000000 0.000000 
#    y 0.000000 1.707340 0.000000 
#    z 0.000000 0.000000 1.959890 
# 
# From -- ./inp_files/4565.got.cif
#   From: 2010.05.17/outbox.cif.g08.bks.cpg/sg94_3_cif.got.tgz:4565.got - 2010.06.03 19:43:16.
