data_PCOD9550273
_publ_section_title
;
Structure prediction by ZEFSAII (Michael W. Deem and Ramdas Pophale) SiO2 
 PCOD9550273
Probable space group: P 42 21 2
;
_chemical_formula_sum "Si O2"
_cell_formula_units_Z 54
_cell_length_a 15.097422
_cell_length_b 15.097422
_cell_length_c 10.460252
_cell_angle_alpha 90.000000
_cell_angle_beta 90.000000
_cell_angle_gamma 90.000000
_cell_volume 2384.227739
_symmetry_space_group_name_H-M "P 42 21 2"
_symmetry_group_IT_number 94
_symmetry_cell_setting 'tetragonal'
loop_
_space_group_symop_operation_xyz
x,y,z
1/2-y,1/2+x,1/2+z
-x,-y,z
1/2+y,1/2-x,1/2+z
1/2+x,1/2-y,1/2-z
1/2-x,1/2+y,1/2-z
y,x,-z
-y,-x,-z
loop_
_atom_site_type_symbol
_atom_site_label
_atom_site_fract_x
_atom_site_fract_y
_atom_site_fract_z
Si Si1 0.704417 0.777714 0.191184
Si Si2 0.526439 0.830941 0.858785
Si Si3 0.300240 0.117786 0.716757
Si Si4 0.500000 0.000000 0.996887
Si Si5 0.724635 0.132399 0.969505
Si Si6 0.811763 0.458349 0.409762
Si Si7 0.000000 0.000000 0.500000
Si Si8 0.304800 0.461945 0.906055
O O1 0.805098 0.757886 0.222000
O O2 0.661604 0.803310 0.328198
O O3 0.703113 0.854548 0.086105
O O4 0.639104 0.699718 0.144493
O O5 0.614939 0.881911 0.809176
O O6 0.473531 0.914699 0.914722
O O7 0.488145 0.785496 0.732527
O O8 0.536224 0.755641 0.965703
O O9 0.331504 0.158447 0.579908
O O10 0.248566 0.027822 0.688722
O O11 0.582583 0.970841 0.080997
O O12 0.730299 0.027074 0.991587
O O13 0.816982 0.183019 0.000000
O O14 0.995547 0.094838 0.426202
#
# Coordination Sequence:
#
# PCOD9550273 Si02
#       8
#     8   8   8   4   8   8   2   8
#     4  11  23  42  68  99 134 171 233 288 343 414
#     4  11  23  40  67  98 145 169 223 283 355 433
#     4  10  24  43  68 100 133 185 227 282 357 408
#     4  12  22  36  60 106 142 172 212 278 378 426
#     4   9  21  40  63  97 132 177 217 267 345 426
#     4  11  22  35  64 101 136 176 214 283 349 421
#     4  12  32  48  68  92 142 196 258 286 332 426
#     4  12  26  47  70 102 138 191 240 297 349 415
#
# _framework density 22.648841999999998
#
# number of rings (size 3 to 8) (size 9 to 14) (size 15 to 20)
#    0.000    1.185    1.481    4.889    9.333    0.000 
#    0.000    0.000    0.000    0.000    0.000    0.000 
#    0.000    0.000    0.000    0.000    0.000    0.000 
#
# Total GULP energy -301853.505820 kJ/mol
# GULP energy per Si atom -5589.879737 kJ/mol
# Density = 2.259729 g / cm^3
# Si number density = 22.648842 Si / 1000 Ang^3
#
#
#
# Elastic Constant Matrix: (Units=GPa)
#
#
# Indices 1 2 3 4 5 6 
#
# 1 102.1776 35.7577 15.8228 0.0000 0.0000 0.0000
# 2 35.7577 102.1783 15.8232 0.0000 0.0000 0.0000
# 3 15.8228 15.8232 92.0639 0.0000 0.0000 0.0000
# 4 0.0000 0.0000 0.0000 32.4683 0.0000 0.0000
# 5 0.0000 0.0000 0.0000 0.0000 32.4681 0.0000
# 6 0.0000 0.0000 0.0000 0.0000 0.0000 38.3257
#
#
#
# Elastic Compliance Matrix: (Units=1/GPa)
#
#
# Indices 1 2 3 4 5 6 
#
# 1 0.011302 -0.003754 -0.001297 0.000000 0.000000 0.000000
# 2 -0.003754 0.011301 -0.001297 0.000000 0.000000 0.000000
# 3 -0.001297 -0.001297 0.011308 0.000000 0.000000 0.000000
# 4 0.000000 0.000000 0.000000 0.030799 0.000000 0.000000
# 5 0.000000 0.000000 0.000000 0.000000 0.030799 0.000000
# 6 0.000000 0.000000 0.000000 0.000000 0.000000 0.026092
#
#
# Mechanical properties :
#
#
# Convention : Reuss Voigt Hill
#
# Bulk Modulus (GPa) = 47.13874 47.91414 47.52644
# Shear Modulus (GPa) = 35.36819 35.92018 35.64419
#
# Velocity S-wave (km/s) = 3.95598 3.98673 3.97139
# Velocity P-wave (km/s) = 6.45945 6.51101 6.48528
#
# Compressibility (1/GPa) = 0.02121398
#
# Stress axis : x y z
#
# Youngs Moduli (GPa) = 88.48359 88.48407 88.43372
#
# Poissons Ratio (x) = 0.33218 0.11471
# Poissons Ratio (y) = 0.33218 0.11472
# Poissons Ratio (z) = 0.11477 0.11478
#
# Static dielectric constant tensor:
#      x y z
#    x 1.877500 0.000000 0.000000 
#    y 0.000000 1.877500 0.000000 
#    z 0.000000 0.000000 1.866490 
# 
# From -- ./inp_files/2742.got.cif
#   From: 2010.05.17/outbox.cif.g08.bks.cpg/sg94_2_cif.got.tgz:2742.got - 2010.06.03 19:43:16.
