data_PCOD9550837
_publ_section_title
;
Structure prediction by ZEFSAII (Michael W. Deem and Ramdas Pophale) SiO2 
 PCOD9550837
Probable space group: P 43 21 2
;
_chemical_formula_sum "Si O2"
_cell_formula_units_Z 48
_cell_length_a 8.675838
_cell_length_b 8.675838
_cell_length_c 25.772536
_cell_angle_alpha 90.000000
_cell_angle_beta 90.000000
_cell_angle_gamma 90.000000
_cell_volume 1939.903037
_symmetry_space_group_name_H-M "P 43 21 2"
_symmetry_group_IT_number 96
_symmetry_cell_setting 'tetragonal'
loop_
_space_group_symop_operation_xyz
x,y,z
1/2-y,1/2+x,3/4+z
-x,-y,1/2+z
1/2+y,1/2-x,1/4+z
1/2+x,1/2-y,1/4-z
1/2-x,1/2+y,3/4-z
y,x,-z
-y,-x,1/2-z
loop_
_atom_site_type_symbol
_atom_site_label
_atom_site_fract_x
_atom_site_fract_y
_atom_site_fract_z
Si Si1 0.551563 0.150447 0.807470
Si Si2 0.674356 0.975338 0.710379
Si Si3 0.786017 0.932260 0.346430
Si Si4 0.094862 0.653328 0.082255
Si Si5 0.637763 0.596548 0.252280
Si Si6 0.756769 0.659198 0.557506
O O1 0.386756 0.067617 0.820676
O O2 0.484668 0.312383 0.788258
O O3 0.656003 0.073196 0.763160
O O4 0.649655 0.152087 0.859420
O O5 0.829693 0.910652 0.684745
O O6 0.599882 0.811119 0.727164
O O7 0.578366 0.083454 0.670842
O O8 0.757165 0.867171 0.403969
O O9 0.844070 0.104464 0.343265
O O10 0.183723 0.515633 0.052719
O O11 0.125816 0.809360 0.051611
O O12 0.572473 0.427528 0.250000
O O13 0.710396 0.710396 0.500000
#
# Coordination Sequence:
#
# PCOD9550837 Si02
#       6
#     8   8   8   8   8   8
#     4   9  20  39  61  88 128 163 202 258 318 383
#     4  10  20  39  64  91 124 164 212 265 319 380
#     4  10  21  37  63 100 133 166 215 271 328 391
#     4  10  22  41  63  87 125 167 206 260 320 379
#     4  10  22  40  60  87 122 161 205 257 313 376
#     4  11  21  38  64  93 132 171 211 269 332 389
#
# _framework density 24.743501999999999
#
# number of rings (size 3 to 8) (size 9 to 14) (size 15 to 20)
#    0.000    2.000    0.000    5.000    0.000    3.333 
#    0.000   16.667    0.000    0.000    0.000    0.000 
#    0.000    0.000    0.000    0.000    0.000    0.000 
#
# Total GULP energy -268466.424344 kJ/mol
# GULP energy per Si atom -5593.050507 kJ/mol
# Density = 2.468718 g / cm^3
# Si number density = 24.743502 Si / 1000 Ang^3
#
#
#
# Elastic Constant Matrix: (Units=GPa)
#
#
# Indices 1 2 3 4 5 6 
#
# 1 48.3439 36.3522 14.7684 0.0000 0.0000 0.0000
# 2 36.3522 48.3445 14.7682 0.0000 0.0000 0.0000
# 3 14.7684 14.7682 149.0967 0.0000 0.0000 0.0000
# 4 0.0000 0.0000 0.0000 28.0265 0.0000 0.0000
# 5 0.0000 0.0000 0.0000 0.0000 28.0269 0.0000
# 6 0.0000 0.0000 0.0000 0.0000 0.0000 35.8166
#
#
#
# Elastic Compliance Matrix: (Units=1/GPa)
#
#
# Indices 1 2 3 4 5 6 
#
# 1 0.047809 -0.035580 -0.001211 0.000000 0.000000 0.000000
# 2 -0.035580 0.047809 -0.001211 0.000000 0.000000 0.000000
# 3 -0.001211 -0.001211 0.006947 0.000000 0.000000 0.000000
# 4 0.000000 0.000000 0.000000 0.035681 0.000000 0.000000
# 5 0.000000 0.000000 0.000000 0.000000 0.035680 0.000000
# 6 0.000000 0.000000 0.000000 0.000000 0.000000 0.027920
#
#
# Mechanical properties :
#
#
# Convention : Reuss Voigt Hill
#
# Bulk Modulus (GPa) = 37.65015 41.95140 39.80078
# Shear Modulus (GPa) = 17.43960 30.36708 23.90334
#
# Velocity S-wave (km/s) = 2.65772 3.50705 3.11150
# Velocity P-wave (km/s) = 4.96660 5.77845 5.38784
#
# Compressibility (1/GPa) = 0.02656032
#
# Stress axis : x y z
#
# Youngs Moduli (GPa) = 20.91642 20.91668 143.94644
#
# Poissons Ratio (x) = 0.74421 0.17438
# Poissons Ratio (y) = 0.74420 0.17435
# Poissons Ratio (z) = 0.02534 0.02534
#
# Static dielectric constant tensor:
#      x y z
#    x 1.983780 0.000000 0.000000 
#    y 0.000000 1.983780 0.000000 
#    z 0.000000 0.000000 1.980870 
# 
# From -- ./inp_files/4487.got.cif
#   From: 2010.05.17/outbox.cif.g08.bks.cpg/sg96_3_cif.got.tgz:4487.got - 2010.06.03 19:52:08.
