data_PCOD9550704
_publ_section_title
;
Structure prediction by ZEFSAII (Michael W. Deem and Ramdas Pophale) SiO2 
 PCOD9550704
Probable space group: P 43 21 2
;
_chemical_formula_sum "Si O2"
_cell_formula_units_Z 48
_cell_length_a 12.536229
_cell_length_b 12.536229
_cell_length_c 13.751936
_cell_angle_alpha 90.000000
_cell_angle_beta 90.000000
_cell_angle_gamma 90.000000
_cell_volume 2161.213522
_symmetry_space_group_name_H-M "P 43 21 2"
_symmetry_group_IT_number 96
_symmetry_cell_setting 'tetragonal'
loop_
_space_group_symop_operation_xyz
x,y,z
1/2-y,1/2+x,3/4+z
-x,-y,1/2+z
1/2+y,1/2-x,1/4+z
1/2+x,1/2-y,1/4-z
1/2-x,1/2+y,3/4-z
y,x,-z
-y,-x,1/2-z
loop_
_atom_site_type_symbol
_atom_site_label
_atom_site_fract_x
_atom_site_fract_y
_atom_site_fract_z
Si Si1 0.371647 0.024647 0.639556
Si Si2 0.841361 0.138135 0.583848
Si Si3 0.324498 0.804208 0.559956
Si Si4 0.762952 0.958084 0.471506
Si Si5 0.899818 0.412958 0.104108
Si Si6 0.283499 0.938287 0.272429
O O1 0.327829 0.077605 0.736835
O O2 0.368362 0.117226 0.559467
O O3 0.309411 0.917922 0.613283
O O4 0.497008 0.991805 0.645653
O O5 0.791053 0.224021 0.509985
O O6 0.853165 0.025577 0.527621
O O7 0.764812 0.111962 0.674777
O O8 0.938333 0.198139 0.639503
O O9 0.361830 0.721366 0.644166
O O10 0.701675 0.048343 0.408992
O O11 0.673026 0.924543 0.550776
O O12 0.828885 0.448777 0.012365
#
# Coordination Sequence:
#
# PCOD9550704 Si02
#       6
#     8   8   8   8   8   8
#     4  10  15  26  48  72  98 124 157 212 275 321
#     4   9  20  28  43  66 110 136 169 208 246 325
#     4  10  18  29  44  71 102 136 163 201 265 324
#     4  10  18  29  44  71 102 136 163 201 265 324
#     4  10  15  26  48  72  98 124 157 212 275 321
#     4   9  16  30  44  72 102 127 166 214 266 301
#
# _framework density 22.209744000000001
#
# number of rings (size 3 to 8) (size 9 to 14) (size 15 to 20)
#    0.000    2.333    3.333    3.000    0.000    0.000 
#    0.000    3.333    0.000    0.000    0.000    0.000 
#  120.000    0.000    0.000    0.000    0.000    0.000 
#
# Total GULP energy -267509.732166 kJ/mol
# GULP energy per Si atom -5573.119420 kJ/mol
# Density = 2.215919 g / cm^3
# Si number density = 22.209744 Si / 1000 Ang^3
#
#
#
# Elastic Constant Matrix: (Units=GPa)
#
#
# Indices 1 2 3 4 5 6 
#
# 1 49.0279 23.9440 32.2722 0.0000 0.0000 0.0000
# 2 23.9440 49.0279 32.2722 0.0000 0.0000 0.0000
# 3 32.2722 32.2722 122.9611 0.0000 0.0000 0.0000
# 4 0.0000 0.0000 0.0000 13.0341 0.0000 0.0000
# 5 0.0000 0.0000 0.0000 0.0000 13.0341 0.0000
# 6 0.0000 0.0000 0.0000 0.0000 0.0000 29.8237
#
#
#
# Elastic Compliance Matrix: (Units=1/GPa)
#
#
# Indices 1 2 3 4 5 6 
#
# 1 0.028857 -0.011010 -0.004684 0.000000 0.000000 0.000000
# 2 -0.011010 0.028857 -0.004684 0.000000 0.000000 0.000000
# 3 -0.004684 -0.004684 0.010591 0.000000 0.000000 0.000000
# 4 0.000000 0.000000 0.000000 0.076722 0.000000 0.000000
# 5 0.000000 0.000000 0.000000 0.000000 0.076722 0.000000
# 6 0.000000 0.000000 0.000000 0.000000 0.000000 0.033530
#
#
# Mechanical properties :
#
#
# Convention : Reuss Voigt Hill
#
# Bulk Modulus (GPa) = 36.29884 44.22150 40.26017
# Shear Modulus (GPa) = 16.38174 20.01360 18.19767
#
# Velocity S-wave (km/s) = 2.71881 3.00512 2.86554
# Velocity P-wave (km/s) = 5.12202 5.65642 5.39584
#
# Compressibility (1/GPa) = 0.02754909
#
# Stress axis : x y z
#
# Youngs Moduli (GPa) = 34.65405 34.65405 94.41604
#
# Poissons Ratio (x) = 0.38153 0.44225
# Poissons Ratio (y) = 0.38153 0.44225
# Poissons Ratio (z) = 0.16232 0.16232
#
# Static dielectric constant tensor:
#      x y z
#    x 1.883260 0.000000 0.000000 
#    y 0.000000 1.883260 0.000000 
#    z 0.000000 0.000000 1.870410 
# 
# From -- ./inp_files/2730.got.cif
#   From: 2010.05.17/outbox.cif.g08.bks.cpg/sg96_2_cif.got.tgz:2730.got - 2010.06.03 19:52:08.
