data_PCOD9550593
_publ_section_title
;
Structure prediction by ZEFSAII (Michael W. Deem and Ramdas Pophale) SiO2 
 PCOD9550593
Probable space group: P 43 2 2
;
_chemical_formula_sum "Si O2"
_cell_formula_units_Z 40
_cell_length_a 18.833693
_cell_length_b 18.833693
_cell_length_c 4.935525
_cell_angle_alpha 90.000000
_cell_angle_beta 90.000000
_cell_angle_gamma 90.000000
_cell_volume 1750.670162
_symmetry_space_group_name_H-M "P 43 2 2"
_symmetry_group_IT_number 95
_symmetry_cell_setting 'tetragonal'
loop_
_space_group_symop_operation_xyz
x,y,z
-y,x,3/4+z
-x,-y,1/2+z
y,-x,1/4+z
x,-y,1/2-z
-x,y,-z
y,x,1/4-z
-y,-x,3/4-z
loop_
_atom_site_type_symbol
_atom_site_label
_atom_site_fract_x
_atom_site_fract_y
_atom_site_fract_z
Si Si1 0.879522 0.702328 0.338464
Si Si2 0.887234 0.500000 0.750000
Si Si3 0.859938 0.140063 0.375000
Si Si4 0.653272 0.653272 0.625000
Si Si5 0.189911 0.361877 0.345537
Si Si6 0.077207 0.922793 0.375000
Si Si7 0.578636 0.421365 0.375000
Si Si8 0.390986 0.000000 0.250000
O O1 0.875793 0.784385 0.264308
O O2 0.861694 0.684563 0.650792
O O3 0.954973 0.661042 0.299986
O O4 0.818381 0.670506 0.142874
O O5 0.835810 0.557183 0.888122
O O6 0.939629 0.553343 0.594242
O O7 0.912836 0.130061 0.625294
O O8 0.736830 0.642318 0.682556
O O9 0.608416 0.623907 0.373115
O O10 0.000000 0.914513 0.500000
O O11 0.585531 0.500000 0.250000
#
# Coordination Sequence:
#
# PCOD9550593 Si02
#       8
#     8   4   4   4   8   4   4   4
#     4  11  24  44  69 105 147 192 244 307 372 450
#     4  10  22  40  68 100 144 194 238 296 370 436
#     4  12  25  45  78 102 144 188 248 307 379 452
#     4  12  25  45  74 106 142 196 252 313 383 464
#     4  11  24  43  69 103 148 193 244 306 371 450
#     4  12  27  51  70 106 136 186 238 311 379 456
#     4  12  27  47  72 102 144 186 246 319 391 462
#     4  10  22  42  68 106 150 196 250 304 376 454
#
# _framework density 22.848393000000002
#
# number of rings (size 3 to 8) (size 9 to 14) (size 15 to 20)
#    0.000    0.800    0.000    7.200    4.200    4.800 
#    7.200    0.000    0.000    0.000    0.000    0.000 
#    0.000    0.000    0.000    0.000    0.000    0.000 
#
# Total GULP energy -223046.175417 kJ/mol
# GULP energy per Si atom -5576.154385 kJ/mol
# Density = 2.279639 g / cm^3
# Si number density = 22.848393 Si / 1000 Ang^3
#
#
#
# Elastic Constant Matrix: (Units=GPa)
#
#
# Indices 1 2 3 4 5 6 
#
# 1 82.2004 107.8673 38.3126 0.0000 0.0000 0.0000
# 2 107.8673 82.1998 38.3135 0.0000 0.0000 0.0000
# 3 38.3126 38.3135 128.6780 0.0000 0.0000 0.0000
# 4 0.0000 0.0000 0.0000 36.3494 0.0000 0.0000
# 5 0.0000 0.0000 0.0000 0.0000 36.3502 0.0000
# 6 0.0000 0.0000 0.0000 0.0000 0.0000 12.5055
#
#
#
# Elastic Compliance Matrix: (Units=1/GPa)
#
#
# Indices 1 2 3 4 5 6 
#
# 1 -0.016491 0.022470 -0.001780 0.000000 0.000000 0.000000
# 2 0.022470 -0.016491 -0.001780 0.000000 0.000000 0.000000
# 3 -0.001780 -0.001780 0.008831 0.000000 0.000000 0.000000
# 4 0.000000 0.000000 0.000000 0.027511 0.000000 0.000000
# 5 0.000000 0.000000 0.000000 0.000000 0.027510 0.000000
# 6 0.000000 0.000000 0.000000 0.000000 0.000000 0.079965
#
#
# Mechanical properties :
#
#
# Convention : Reuss Voigt Hill
#
# Bulk Modulus (GPa) = 73.16049 73.56276 73.36163
# Shear Modulus (GPa) = 64.45511 24.28002 44.36756
#
# Velocity S-wave (km/s) = 5.31706 3.26338 4.41139
# Velocity P-wave (km/s) = 8.35370 6.81656 7.62397
#
# Compressibility (1/GPa) = 0.01366858
#
# Stress axis : x y z
#
# Youngs Moduli (GPa) = -60.64087 -60.63992 113.23200
#
# Poissons Ratio (x) = 1.36256 0.20160
# Poissons Ratio (y) = 1.36258 0.20156
# Poissons Ratio (z) = -0.10796 -0.10794
#
# Static dielectric constant tensor:
#      x y z
#    x 1.923760 0.000000 0.000000 
#    y 0.000000 1.923750 0.000000 
#    z 0.000000 0.000000 1.835260 
# 
# From -- ./inp_files/948.got.cif
#   From: 2010.05.17/outbox.cif.g08.bks.cpg/sg95_1_cif.got.tgz:948.got - 2010.06.03 19:46:49.
