data_PCOD9550271
_publ_section_title
;
Structure prediction by ZEFSAII (Michael W. Deem and Ramdas Pophale) SiO2 
 PCOD9550271
Probable space group: P 42 21 2
;
_chemical_formula_sum "Si O2"
_cell_formula_units_Z 34
_cell_length_a 8.493196
_cell_length_b 8.493196
_cell_length_c 20.873838
_cell_angle_alpha 90.000000
_cell_angle_beta 90.000000
_cell_angle_gamma 90.000000
_cell_volume 1505.721327
_symmetry_space_group_name_H-M "P 42 21 2"
_symmetry_group_IT_number 94
_symmetry_cell_setting 'tetragonal'
loop_
_space_group_symop_operation_xyz
x,y,z
1/2-y,1/2+x,1/2+z
-x,-y,z
1/2+y,1/2-x,1/2+z
1/2+x,1/2-y,1/2-z
1/2-x,1/2+y,1/2-z
y,x,-z
-y,-x,-z
loop_
_atom_site_type_symbol
_atom_site_label
_atom_site_fract_x
_atom_site_fract_y
_atom_site_fract_z
Si Si1 0.606006 0.754331 0.794264
Si Si2 0.000000 0.000000 0.208826
Si Si3 0.823532 0.461414 0.828992
Si Si4 0.846383 0.191555 0.097969
Si Si5 0.000000 0.500000 0.601207
Si Si6 0.500000 0.500000 0.500000
O O1 0.479248 0.647684 0.755985
O O2 0.727918 0.622478 0.819417
O O3 0.657850 0.877585 0.740047
O O4 0.543759 0.854133 0.853053
O O5 0.056608 0.860688 0.161875
O O6 0.765981 0.328678 0.879105
O O7 0.000000 0.500000 0.850443
O O8 0.938725 0.340585 0.068086
O O9 0.862034 0.040470 0.051337
#
# Coordination Sequence:
#
# PCOD9550271 Si02
#       6
#     8   4   8   8   4   2
#     4  11  22  35  58  97 142 182 206 258 325 408
#     4   9  20  35  62  88 132 175 214 255 314 414
#     4  11  24  37  62  99 140 185 224 261 326 414
#     4  10  24  43  66  94 120 173 234 283 345 391
#     4  12  24  38  64  98 136 174 210 272 338 410
#     4  10  24  52  76  82 126 176 236 310 346 392
#
# _framework density 22.580537
#
# number of rings (size 3 to 8) (size 9 to 14) (size 15 to 20)
#    0.000    1.412    1.176    4.235   16.471    0.000 
#    2.118    0.000    0.000    1.412    0.000    0.000 
#    0.000    0.000    0.000    0.000    0.000    0.000 
#
# Total GULP energy -189556.723379 kJ/mol
# GULP energy per Si atom -5575.197746 kJ/mol
# Density = 2.252914 g / cm^3
# Si number density = 22.580537 Si / 1000 Ang^3
#
#
#
# Elastic Constant Matrix: (Units=GPa)
#
#
# Indices 1 2 3 4 5 6 
#
# 1 110.3377 52.2559 16.9928 0.0000 0.0000 0.0000
# 2 52.2559 110.3377 16.9928 0.0000 0.0000 0.0000
# 3 16.9928 16.9928 60.2284 0.0000 0.0000 0.0000
# 4 0.0000 0.0000 0.0000 11.6918 0.0000 0.0000
# 5 0.0000 0.0000 0.0000 0.0000 11.6918 0.0000
# 6 0.0000 0.0000 0.0000 0.0000 0.0000 57.4339
#
#
#
# Elastic Compliance Matrix: (Units=1/GPa)
#
#
# Indices 1 2 3 4 5 6 
#
# 1 0.011876 -0.005341 -0.001844 0.000000 0.000000 0.000000
# 2 -0.005341 0.011876 -0.001844 0.000000 0.000000 0.000000
# 3 -0.001844 -0.001844 0.017644 0.000000 0.000000 0.000000
# 4 0.000000 0.000000 0.000000 0.085530 0.000000 0.000000
# 5 0.000000 0.000000 0.000000 0.000000 0.085530 0.000000
# 6 0.000000 0.000000 0.000000 0.000000 0.000000 0.017411
#
#
# Mechanical properties :
#
#
# Convention : Reuss Voigt Hill
#
# Bulk Modulus (GPa) = 42.84584 50.37634 46.61109
# Shear Modulus (GPa) = 19.55381 29.14101 24.34741
#
# Velocity S-wave (km/s) = 2.94591 3.59630 3.28723
# Velocity P-wave (km/s) = 5.53056 6.29306 5.92409
#
# Compressibility (1/GPa) = 0.02333949
#
# Stress axis : x y z
#
# Youngs Moduli (GPa) = 84.20053 84.20053 56.67655
#
# Poissons Ratio (x) = 0.44969 0.10451
# Poissons Ratio (y) = 0.44969 0.10451
# Poissons Ratio (z) = 0.15527 0.15527
#
# Static dielectric constant tensor:
#      x y z
#    x 1.936810 0.000000 0.000000 
#    y 0.000000 1.936810 0.000000 
#    z 0.000000 0.000000 1.823820 
# 
# From -- ./inp_files/4588.got.cif
#   From: 2010.05.17/outbox.cif.g08.bks.cpg/sg94_3_cif.got.tgz:4588.got - 2010.06.03 19:43:16.
