data_PCOD9550428
_publ_section_title
;
Structure prediction by ZEFSAII (Michael W. Deem and Ramdas Pophale) SiO2 
 PCOD9550428
Probable space group: P 43 2 2
;
_chemical_formula_sum "Si O2"
_cell_formula_units_Z 64
_cell_length_a 18.537893
_cell_length_b 18.537893
_cell_length_c 11.916161
_cell_angle_alpha 90.000000
_cell_angle_beta 90.000000
_cell_angle_gamma 90.000000
_cell_volume 4095.030159
_symmetry_space_group_name_H-M "P 43 2 2"
_symmetry_group_IT_number 95
_symmetry_cell_setting 'tetragonal'
loop_
_space_group_symop_operation_xyz
x,y,z
-y,x,3/4+z
-x,-y,1/2+z
y,-x,1/4+z
x,-y,1/2-z
-x,y,-z
y,x,1/4-z
-y,-x,3/4-z
loop_
_atom_site_type_symbol
_atom_site_label
_atom_site_fract_x
_atom_site_fract_y
_atom_site_fract_z
Si Si1 0.601034 0.085726 0.232278
Si Si2 0.077687 0.312781 0.838616
Si Si3 0.916572 0.368410 0.773792
Si Si4 0.125017 0.790709 0.279763
Si Si5 0.840103 0.975456 0.868177
Si Si6 0.727281 0.838743 0.135510
Si Si7 0.559769 0.913075 0.750930
Si Si8 0.084606 0.153831 0.467696
O O1 0.660519 0.138108 0.285667
O O2 0.522293 0.104032 0.282008
O O3 0.618643 0.000000 0.250000
O O4 0.598337 0.092045 0.098276
O O5 0.063434 0.237582 0.904541
O O6 0.128374 0.292007 0.735386
O O7 0.000523 0.343265 0.793019
O O8 0.109503 0.375925 0.916213
O O9 0.871815 0.295004 0.780442
O O10 0.893089 0.420089 0.874248
O O11 0.178380 0.821621 0.375000
O O12 0.118701 0.814751 0.149497
O O13 0.047831 0.818059 0.321380
O O14 0.888442 0.927997 0.951247
O O15 0.874409 0.000000 0.750000
O O16 0.756815 0.756815 0.125000
O O17 0.794674 0.881073 0.189442
O O18 0.562375 0.000000 0.750000
O O19 0.000000 0.155160 0.500000
#
# Coordination Sequence:
#
# PCOD9550428 Si02
#       8
#     8   8   8   8   8   8   8   8
#     4  11  20  34  52  79 104 130 167 213 265 315
#     4  10  19  34  53  74 100 130 169 216 271 324
#     4  10  18  33  54  72 101 129 163 214 268 320
#     4  11  22  35  52  72  93 130 173 223 272 317
#     4  11  21  37  52  67  93 126 175 228 279 318
#     4  12  23  36  54  70  97 138 173 214 255 319
#     4   9  20  32  53  79 103 127 159 211 272 328
#     4  12  24  37  51  68  91 128 178 229 278 319
#
# _framework density 15.628701
#
# number of rings (size 3 to 8) (size 9 to 14) (size 15 to 20)
#    0.000    1.250    5.000    4.125    0.000    0.500 
#    2.250    0.000    0.000    0.000    0.000    0.000 
#    0.000    0.000    0.000    0.000    0.000    5.000 
#
# Total GULP energy -356608.469894 kJ/mol
# GULP energy per Si atom -5572.007342 kJ/mol
# Density = 1.559313 g / cm^3
# Si number density = 15.628701 Si / 1000 Ang^3
#
#
#
# Elastic Constant Matrix: (Units=GPa)
#
#
# Indices 1 2 3 4 5 6 
#
# 1 54.6934 23.0550 27.2836 0.0000 0.0000 0.0000
# 2 23.0550 54.6948 27.2839 0.0000 0.0000 0.0000
# 3 27.2836 27.2839 91.0668 0.0000 0.0000 0.0000
# 4 0.0000 0.0000 0.0000 12.5175 0.0000 0.0000
# 5 0.0000 0.0000 0.0000 0.0000 12.5154 0.0000
# 6 0.0000 0.0000 0.0000 0.0000 0.0000 8.7804
#
#
#
# Elastic Compliance Matrix: (Units=1/GPa)
#
#
# Indices 1 2 3 4 5 6 
#
# 1 0.023947 -0.007660 -0.004879 0.000000 0.000000 0.000000
# 2 -0.007660 0.023946 -0.004879 0.000000 0.000000 0.000000
# 3 -0.004879 -0.004879 0.013905 0.000000 0.000000 0.000000
# 4 0.000000 0.000000 0.000000 0.079888 0.000000 0.000000
# 5 0.000000 0.000000 0.000000 0.000000 0.079901 0.000000
# 6 0.000000 0.000000 0.000000 0.000000 0.000000 0.113891
#
#
# Mechanical properties :
#
#
# Convention : Reuss Voigt Hill
#
# Bulk Modulus (GPa) = 37.09216 39.52222 38.30719
# Shear Modulus (GPa) = 13.18209 14.95148 14.06678
#
# Velocity S-wave (km/s) = 2.90738 3.09636 3.00336
# Velocity P-wave (km/s) = 5.92076 6.17466 6.04904
#
# Compressibility (1/GPa) = 0.02695988
#
# Stress axis : x y z
#
# Youngs Moduli (GPa) = 41.75921 41.76037 71.91806
#
# Poissons Ratio (x) = 0.31989 0.35092
# Poissons Ratio (y) = 0.31988 0.35092
# Poissons Ratio (z) = 0.20376 0.20377
#
# Static dielectric constant tensor:
#      x y z
#    x 1.549610 0.000000 0.000000 
#    y 0.000000 1.549610 0.000000 
#    z 0.000000 0.000000 1.643780 
# 
# From -- ./inp_files/4102.got.cif
#   From: 2010.05.17/outbox.cif.g08.bks.cpg/sg95_3_cif.got.tgz:4102.got - 2010.06.03 19:46:49.
