data_PCOD9550261
_publ_section_title
;
Structure prediction by ZEFSAII (Michael W. Deem and Ramdas Pophale) SiO2 
 PCOD9550261
Probable space group: P 42 21 2
;
_chemical_formula_sum "Si O2"
_cell_formula_units_Z 24
_cell_length_a 11.469584
_cell_length_b 11.469584
_cell_length_c 7.911467
_cell_angle_alpha 90.000000
_cell_angle_beta 90.000000
_cell_angle_gamma 90.000000
_cell_volume 1040.764221
_symmetry_space_group_name_H-M "P 42 21 2"
_symmetry_group_IT_number 94
_symmetry_cell_setting 'tetragonal'
loop_
_space_group_symop_operation_xyz
x,y,z
1/2-y,1/2+x,1/2+z
-x,-y,z
1/2+y,1/2-x,1/2+z
1/2+x,1/2-y,1/2-z
1/2-x,1/2+y,1/2-z
y,x,-z
-y,-x,-z
loop_
_atom_site_type_symbol
_atom_site_label
_atom_site_fract_x
_atom_site_fract_y
_atom_site_fract_z
Si Si1 0.551452 0.732334 0.926811
Si Si2 0.905715 0.599955 0.347302
Si Si3 0.009595 0.177387 0.931249
O O1 0.620376 0.833451 0.823791
O O2 0.481111 0.673983 0.772479
O O3 0.639680 0.639680 0.000000
O O4 0.468906 0.792472 0.064445
O O5 0.805791 0.542117 0.467014
O O6 0.000000 0.500000 0.312701
O O7 0.131494 0.131494 0.000000
O O8 0.912066 0.087935 0.000000
#
# Coordination Sequence:
#
# PCOD9550261 Si02
#       3
#     8   8   8
#     4  10  24  47  80 112 162 212 271 331 398 475
#     4  10  23  46  76 114 155 210 269 322 399 472
#     4   9  22  49  80 113 156 202 265 329 399 475
#
# _framework density 23.059975000000001
#
# number of rings (size 3 to 8) (size 9 to 14) (size 15 to 20)
#    2.000    0.333    0.000    1.000    0.000    6.667 
#    6.000   11.667    0.000    2.000    0.000    0.000 
#    0.000    0.000    0.000    0.000    0.000    0.000 
#
# Total GULP energy -133952.345611 kJ/mol
# GULP energy per Si atom -5581.347734 kJ/mol
# Density = 2.300749 g / cm^3
# Si number density = 23.059975 Si / 1000 Ang^3
#
#
#
# Elastic Constant Matrix: (Units=GPa)
#
#
# Indices 1 2 3 4 5 6 
#
# 1 88.5395 100.8307 41.1805 0.0000 0.0000 0.0000
# 2 100.8307 88.5385 41.1835 0.0000 0.0000 0.0000
# 3 41.1805 41.1835 80.6392 0.0000 0.0000 0.0000
# 4 0.0000 0.0000 0.0000 16.6724 0.0000 0.0000
# 5 0.0000 0.0000 0.0000 0.0000 16.6683 0.0000
# 6 0.0000 0.0000 0.0000 0.0000 0.0000 47.5387
#
#
#
# Elastic Compliance Matrix: (Units=1/GPa)
#
#
# Indices 1 2 3 4 5 6 
#
# 1 -0.037282 0.044072 -0.003469 0.000000 0.000000 0.000000
# 2 0.044072 -0.037284 -0.003465 0.000000 0.000000 0.000000
# 3 -0.003469 -0.003465 0.015942 0.000000 0.000000 0.000000
# 4 0.000000 0.000000 0.000000 0.059979 0.000000 0.000000
# 5 0.000000 0.000000 0.000000 0.000000 0.059994 0.000000
# 6 0.000000 0.000000 0.000000 0.000000 0.000000 0.021035
#
#
# Mechanical properties :
#
#
# Convention : Reuss Voigt Hill
#
# Bulk Modulus (GPa) = 63.89145 69.34517 66.61831
# Shear Modulus (GPa) = 375.23132 21.14404 198.18768
#
# Velocity S-wave (km/s) = 12.77000 3.03135 9.28068
# Velocity P-wave (km/s) = 15.65878 6.51069 11.99138
#
# Compressibility (1/GPa) = 0.01565155
#
# Stress axis : x y z
#
# Youngs Moduli (GPa) = -26.82245 -26.82080 62.72760
#
# Poissons Ratio (x) = 1.18204 0.21760
# Poissons Ratio (y) = 1.18212 0.21734
# Poissons Ratio (z) = -0.09305 -0.09293
#
# Static dielectric constant tensor:
#      x y z
#    x 1.866800 0.000000 0.000000 
#    y 0.000000 1.866810 0.000000 
#    z 0.000000 0.000000 1.914190 
# 
# From -- ./inp_files/992.got.cif
#   From: 2010.05.17/outbox.cif.g08.bks.cpg/sg94_1_cif.got.tgz:992.got - 2010.06.03 19:43:16.
