data_PCOD9550985
_publ_section_title
;
Structure prediction by ZEFSAII (Michael W. Deem and Ramdas Pophale) SiO2 
 PCOD9550985
Probable space group: P 43 21 2
;
_chemical_formula_sum "Si O2"
_cell_formula_units_Z 32
_cell_length_a 8.858172
_cell_length_b 8.858172
_cell_length_c 13.819327
_cell_angle_alpha 90.000000
_cell_angle_beta 90.000000
_cell_angle_gamma 90.000000
_cell_volume 1084.364050
_symmetry_space_group_name_H-M "P 43 21 2"
_symmetry_group_IT_number 96
_symmetry_cell_setting 'tetragonal'
loop_
_space_group_symop_operation_xyz
x,y,z
1/2-y,1/2+x,3/4+z
-x,-y,1/2+z
1/2+y,1/2-x,1/4+z
1/2+x,1/2-y,1/4-z
1/2-x,1/2+y,3/4-z
y,x,-z
-y,-x,1/2-z
loop_
_atom_site_type_symbol
_atom_site_label
_atom_site_fract_x
_atom_site_fract_y
_atom_site_fract_z
Si Si1 0.290354 0.290354 0.500000
Si Si2 0.460442 0.811319 0.871531
Si Si3 0.908866 0.091135 0.250000
Si Si4 0.400703 0.868489 0.425011
Si Si5 0.875795 0.150323 0.052256
O O1 0.459709 0.262553 0.465037
O O2 0.270529 0.189700 0.594993
O O3 0.518738 0.734640 0.774074
O O4 0.283843 0.797319 0.886840
O O5 0.517521 0.985697 0.879775
O O6 0.961089 0.061236 0.137307
O O7 0.983012 0.259241 0.269502
O O8 0.261925 0.922708 0.493282
#
# Coordination Sequence:
#
# PCOD9550985 Si02
#       5
#     4   8   4   8   8
#     4  10  22  43  75 102 134 190 248 279 365 434
#     4  11  22  47  77 102 146 194 233 304 363 451
#     4  12  28  45  69 116 144 186 244 311 363 438
#     4  11  25  48  72 108 143 190 244 301 364 441
#     4  11  26  42  79 104 143 198 240 295 376 430
#
# _framework density 29.510382
#
# number of rings (size 3 to 8) (size 9 to 14) (size 15 to 20)
#    0.000    1.000    2.500    3.000    7.000    1.000 
#    9.000    0.000    0.000    0.000    0.000    0.000 
#    0.000    0.000    0.000    0.000    0.000    0.000 
#
# Total GULP energy -179242.204463 kJ/mol
# GULP energy per Si atom -5601.318889 kJ/mol
# Density = 2.944322 g / cm^3
# Si number density = 29.510382 Si / 1000 Ang^3
#
#
#
# Elastic Constant Matrix: (Units=GPa)
#
#
# Indices 1 2 3 4 5 6 
#
# 1 96.8863 52.4166 41.0365 0.0000 0.0000 0.0000
# 2 52.4166 96.8877 41.0368 0.0000 0.0000 0.0000
# 3 41.0365 41.0368 190.9351 0.0000 0.0000 0.0000
# 4 0.0000 0.0000 0.0000 60.4032 0.0000 0.0000
# 5 0.0000 0.0000 0.0000 0.0000 60.4029 0.0000
# 6 0.0000 0.0000 0.0000 0.0000 0.0000 60.2619
#
#
#
# Elastic Compliance Matrix: (Units=1/GPa)
#
#
# Indices 1 2 3 4 5 6 
#
# 1 0.015041 -0.007446 -0.001632 0.000000 0.000000 0.000000
# 2 -0.007446 0.015041 -0.001632 0.000000 0.000000 0.000000
# 3 -0.001632 -0.001632 0.005939 0.000000 0.000000 0.000000
# 4 0.000000 0.000000 0.000000 0.016555 0.000000 0.000000
# 5 0.000000 0.000000 0.000000 0.000000 0.016556 0.000000
# 6 0.000000 0.000000 0.000000 0.000000 0.000000 0.016594
#
#
# Mechanical properties :
#
#
# Convention : Reuss Voigt Hill
#
# Bulk Modulus (GPa) = 68.49434 72.63210 70.56322
# Shear Modulus (GPa) = 44.63729 52.89487 48.76608
#
# Velocity S-wave (km/s) = 3.89343 4.23829 4.06951
# Velocity P-wave (km/s) = 6.59336 6.97256 6.78561
#
# Compressibility (1/GPa) = 0.01459975
#
# Stress axis : x y z
#
# Youngs Moduli (GPa) = 66.48461 66.48560 168.37689
#
# Poissons Ratio (x) = 0.49504 0.27485
# Poissons Ratio (y) = 0.49504 0.27485
# Poissons Ratio (z) = 0.10853 0.10853
#
# Static dielectric constant tensor:
#      x y z
#    x 2.375650 0.000000 0.000000 
#    y 0.000000 2.375640 0.000000 
#    z 0.000000 0.000000 2.315430 
# 
# From -- ./inp_files/1945.got.cif
#   From: 2010.05.17/outbox.cif.g08.bks.cpg/sg96_1_cif.got.tgz:1945.got - 2010.06.03 19:52:08.
