data_PCOD9550447
_publ_section_title
;
Structure prediction by ZEFSAII (Michael W. Deem and Ramdas Pophale) SiO2 
 PCOD9550447
Probable space group: P 43 2 2
;
_chemical_formula_sum "Si O2"
_cell_formula_units_Z 56
_cell_length_a 13.972903
_cell_length_b 13.972903
_cell_length_c 13.506673
_cell_angle_alpha 90.000000
_cell_angle_beta 90.000000
_cell_angle_gamma 90.000000
_cell_volume 2637.070096
_symmetry_space_group_name_H-M "P 43 2 2"
_symmetry_group_IT_number 95
_symmetry_cell_setting 'tetragonal'
loop_
_space_group_symop_operation_xyz
x,y,z
-y,x,3/4+z
-x,-y,1/2+z
y,-x,1/4+z
x,-y,1/2-z
-x,y,-z
y,x,1/4-z
-y,-x,3/4-z
loop_
_atom_site_type_symbol
_atom_site_label
_atom_site_fract_x
_atom_site_fract_y
_atom_site_fract_z
Si Si1 0.305127 0.863486 0.925211
Si Si2 0.628428 0.532580 0.358923
Si Si3 0.256181 0.312733 0.430109
Si Si4 0.757804 0.989978 0.593544
Si Si5 0.000000 0.783557 0.000000
Si Si6 0.839835 0.134889 0.074404
Si Si7 0.392278 0.000000 0.250000
Si Si8 0.526087 0.823350 0.199867
O O1 0.414176 0.848444 0.897799
O O2 0.263601 0.921012 0.826882
O O3 0.273731 0.760299 0.975485
O O4 0.285330 0.937988 0.011694
O O5 0.659266 0.500000 0.250000
O O6 0.530215 0.469786 0.375000
O O7 0.633290 0.647440 0.353347
O O8 0.714019 0.507688 0.434508
O O9 0.211543 0.243940 0.347336
O O10 0.183115 0.395999 0.461919
O O11 0.818980 0.942195 0.835755
O O12 0.817197 0.915044 0.529027
O O13 0.671389 0.956321 0.661445
O O14 0.063241 0.837072 0.081292
O O15 0.452802 0.091193 0.285659
#
# Coordination Sequence:
#
# PCOD9550447 Si02
#       8
#     8   8   8   8   4   8   4   8
#     4  10  19  36  64 103 136 173 219 280 349 419
#     4  12  23  41  67  99 131 176 240 294 340 410
#     4  11  22  38  67 101 142 187 220 288 365 414
#     4  10  25  45  67  96 135 186 231 286 350 438
#     4  10  19  32  65 110 140 162 212 289 348 425
#     4  10  22  42  72 102 140 176 231 283 364 423
#     4  12  29  44  61 100 140 182 242 287 358 441
#     4  12  22  38  65  99 137 176 227 286 353 421
#
# _framework density 21.235688
#
# number of rings (size 3 to 8) (size 9 to 14) (size 15 to 20)
#    0.000    1.143    4.286    2.571    4.000    2.286 
#    0.000    3.571    0.000    0.000    0.000    0.000 
#    0.000    0.000    0.000    0.000    0.000    0.000 
#
# Total GULP energy -311887.954144 kJ/mol
# GULP energy per Si atom -5569.427753 kJ/mol
# Density = 2.118735 g / cm^3
# Si number density = 21.235688 Si / 1000 Ang^3
#
#
#
# Elastic Constant Matrix: (Units=GPa)
#
#
# Indices 1 2 3 4 5 6 
#
# 1 108.0304 51.6707 47.7790 0.0000 0.0000 0.0000
# 2 51.6707 108.0300 47.7791 0.0000 0.0000 0.0000
# 3 47.7790 47.7791 96.5745 0.0000 0.0000 0.0000
# 4 0.0000 0.0000 0.0000 12.0655 0.0000 0.0000
# 5 0.0000 0.0000 0.0000 0.0000 12.0648 0.0000
# 6 0.0000 0.0000 0.0000 0.0000 0.0000 32.6226
#
#
#
# Elastic Compliance Matrix: (Units=1/GPa)
#
#
# Indices 1 2 3 4 5 6 
#
# 1 0.013319 -0.004424 -0.004401 0.000000 0.000000 0.000000
# 2 -0.004424 0.013319 -0.004401 0.000000 0.000000 0.000000
# 3 -0.004401 -0.004401 0.014709 0.000000 0.000000 0.000000
# 4 0.000000 0.000000 0.000000 0.082881 0.000000 0.000000
# 5 0.000000 0.000000 0.000000 0.000000 0.082886 0.000000
# 6 0.000000 0.000000 0.000000 0.000000 0.000000 0.030654
#
#
# Mechanical properties :
#
#
# Convention : Reuss Voigt Hill
#
# Bulk Modulus (GPa) = 67.13109 67.45472 67.29290
# Shear Modulus (GPa) = 18.57468 22.37765 20.47616
#
# Velocity S-wave (km/s) = 2.96073 3.24971 3.10858
# Velocity P-wave (km/s) = 6.58551 6.77603 6.68145
#
# Compressibility (1/GPa) = 0.01489623
#
# Stress axis : x y z
#
# Youngs Moduli (GPa) = 75.08069 75.08028 67.98557
#
# Poissons Ratio (x) = 0.33217 0.29918
# Poissons Ratio (y) = 0.33217 0.29918
# Poissons Ratio (z) = 0.33040 0.33040
#
# Static dielectric constant tensor:
#      x y z
#    x 1.823540 0.000000 0.000000 
#    y 0.000000 1.823540 0.000000 
#    z 0.000000 0.000000 1.791790 
# 
# From -- ./inp_files/4025.got.cif
#   From: 2010.05.17/outbox.cif.g08.bks.cpg/sg95_3_cif.got.tgz:4025.got - 2010.06.03 19:46:49.
