data_PCOD9550636
_publ_section_title
;
Structure prediction by ZEFSAII (Michael W. Deem and Ramdas Pophale) SiO2 
 PCOD9550636
Probable space group: P 43 2 2
;
_chemical_formula_sum "Si O2"
_cell_formula_units_Z 36
_cell_length_a 12.687887
_cell_length_b 12.687887
_cell_length_c 11.327248
_cell_angle_alpha 90.000000
_cell_angle_beta 90.000000
_cell_angle_gamma 90.000000
_cell_volume 1823.488435
_symmetry_space_group_name_H-M "P 43 2 2"
_symmetry_group_IT_number 95
_symmetry_cell_setting 'tetragonal'
loop_
_space_group_symop_operation_xyz
x,y,z
-y,x,3/4+z
-x,-y,1/2+z
y,-x,1/4+z
x,-y,1/2-z
-x,y,-z
y,x,1/4-z
-y,-x,3/4-z
loop_
_atom_site_type_symbol
_atom_site_label
_atom_site_fract_x
_atom_site_fract_y
_atom_site_fract_z
Si Si1 0.087961 0.500000 0.750000
Si Si2 0.401420 0.368644 0.914536
Si Si3 0.033731 0.694573 0.366787
Si Si4 0.725631 0.568295 0.083158
Si Si5 0.721965 0.278036 0.875000
Si Si6 0.947007 0.052994 0.875000
O O1 0.164084 0.463769 0.641506
O O2 0.022436 0.394893 0.786953
O O3 0.355967 0.479203 0.872123
O O4 0.428415 0.289539 0.808591
O O5 0.500000 0.385195 0.000000
O O6 0.312183 0.329588 0.002875
O O7 0.158503 0.688678 0.355898
O O8 0.021750 0.822740 0.354260
O O9 0.000000 0.670077 0.500000
O O10 0.681489 0.681489 0.125000
O O11 0.977306 0.000000 0.750000
#
# Coordination Sequence:
#
# PCOD9550636 Si02
#       6
#     4   8   8   8   4   4
#     4  12  26  42  66 102 140 186 224 292 346 414
#     4  12  22  37  65  98 128 182 229 263 320 423
#     4  10  24  44  66  93 135 177 221 284 355 403
#     4  12  23  40  61  95 141 177 219 271 340 396
#     4  11  24  40  66  92 125 170 222 280 325 406
#     4   9  20  48  76 100 129 180 240 294 353 418
#
# _framework density 19.742377000000001
#
# number of rings (size 3 to 8) (size 9 to 14) (size 15 to 20)
#    0.000    0.889    4.444    2.667    1.556    0.000 
#    2.000    1.111    0.000    0.000    0.000    0.000 
#    0.000    0.000    0.000    0.000    0.000    0.000 
#
# Total GULP energy -200561.045925 kJ/mol
# GULP energy per Si atom -5571.140165 kJ/mol
# Density = 1.969744 g / cm^3
# Si number density = 19.742377 Si / 1000 Ang^3
#
#
#
# Elastic Constant Matrix: (Units=GPa)
#
#
# Indices 1 2 3 4 5 6 
#
# 1 -367.0363 535.8623 60.5333 0.0000 0.0000 0.0000
# 2 535.8623 -366.9956 60.5473 0.0000 0.0000 0.0000
# 3 60.5333 60.5473 156.0660 0.0000 0.0000 0.0000
# 4 0.0000 0.0000 0.0000 -69.8094 0.0000 0.0000
# 5 0.0000 0.0000 0.0000 0.0000 -69.8747 0.0000
# 6 0.0000 0.0000 0.0000 0.0000 0.0000 11.5022
#
#
#
# Elastic Compliance Matrix: (Units=1/GPa)
#
#
# Indices 1 2 3 4 5 6 
#
# 1 0.003549 0.004656 -0.003183 0.000000 0.000000 0.000000
# 2 0.004656 0.003549 -0.003183 0.000000 0.000000 0.000000
# 3 -0.003183 -0.003183 0.008877 0.000000 0.000000 0.000000
# 4 0.000000 0.000000 0.000000 -0.014325 0.000000 0.000000
# 5 0.000000 0.000000 0.000000 0.000000 -0.014311 0.000000
# 6 0.000000 0.000000 0.000000 0.000000 0.000000 0.086940
#
#
# Mechanical properties :
#
#
# Convention : Reuss Voigt Hill
#
# Bulk Modulus (GPa) = 79.64637 81.76888 80.70762
# Shear Modulus (GPa) = 61.06356 -107.96363 -23.45004
#
# Velocity S-wave (km/s) = 5.56753 -7.40304 -3.45019
# Velocity P-wave (km/s) = 9.04214 5.61831 5.00973
#
# Compressibility (1/GPa) = 0.01255550
#
# Stress axis : x y z
#
# Youngs Moduli (GPa) = 281.80429 281.78281 112.65230
#
# Poissons Ratio (x) = -1.31206 0.35855
# Poissons Ratio (y) = -1.31216 0.35855
# Poissons Ratio (z) = 0.89693 0.89687
#
# Static dielectric constant tensor:
#      x y z
#    x 2.787660 0.000000 0.000000 
#    y 0.000000 2.788020 0.000000 
#    z 0.000000 0.000000 1.491040 
# 
# From -- ./inp_files/3622.got.cif
#   From: 2010.05.17/outbox.cif.g08.bks.cpg/sg95_2_cif.got.tgz:3622.got - 2010.06.03 19:46:49.
