data_PCOD9550642
_publ_section_title
;
Structure prediction by ZEFSAII (Michael W. Deem and Ramdas Pophale) SiO2 
 PCOD9550642
Probable space group: P 43 2 2
;
_chemical_formula_sum "Si O2"
_cell_formula_units_Z 48
_cell_length_a 8.431226
_cell_length_b 8.431226
_cell_length_c 25.092229
_cell_angle_alpha 90.000000
_cell_angle_beta 90.000000
_cell_angle_gamma 90.000000
_cell_volume 1783.695448
_symmetry_space_group_name_H-M "P 43 2 2"
_symmetry_group_IT_number 95
_symmetry_cell_setting 'tetragonal'
loop_
_space_group_symop_operation_xyz
x,y,z
-y,x,3/4+z
-x,-y,1/2+z
y,-x,1/4+z
x,-y,1/2-z
-x,y,-z
y,x,1/4-z
-y,-x,3/4-z
loop_
_atom_site_type_symbol
_atom_site_label
_atom_site_fract_x
_atom_site_fract_y
_atom_site_fract_z
Si Si1 0.169461 0.544133 0.028061
Si Si2 0.000000 0.064012 0.000000
Si Si3 0.338087 0.335008 0.943610
Si Si4 0.320930 0.853226 0.982761
Si Si5 0.342381 0.342381 0.625000
Si Si6 0.168073 0.059460 0.357100
Si Si7 0.156323 0.588738 0.356960
O O1 0.259066 0.401872 0.997000
O O2 0.278765 0.697398 0.017883
O O3 0.135231 0.516797 0.089970
O O4 0.000000 0.570431 0.000000
O O5 0.838382 0.962694 0.010568
O O6 0.031829 0.175192 0.050577
O O7 0.343828 0.491811 0.906883
O O8 0.498271 0.234671 0.941811
O O9 0.229766 0.211507 0.911726
O O10 0.330326 0.792614 0.920853
O O11 0.500000 0.906098 0.000000
O O12 0.993741 0.006260 0.375000
O O13 0.302362 0.999122 0.397401
O O14 0.288681 0.711320 0.375000
#
# Coordination Sequence:
#
# PCOD9550642 Si02
#       7
#     8   4   8   8   4   8   8
#     4  11  22  44  76 105 157 207 249 329 407 474
#     4  12  28  52  72 112 160 220 262 344 428 494
#     4  11  23  45  75 108 148 201 261 317 401 485
#     4  11  26  46  77 114 161 208 274 333 412 507
#     4  10  24  44  76 120 150 206 272 338 400 494
#     4  11  27  45  73 105 155 196 256 324 401 483
#     4  11  24  45  73 112 147 199 258 326 392 474
#
# _framework density 26.910420999999999
#
# number of rings (size 3 to 8) (size 9 to 14) (size 15 to 20)
#    0.000    1.000    3.333    2.000    8.167    1.333 
#    3.000    0.000    0.000    0.000    0.000    0.000 
#    0.000    0.000    0.000    0.000    0.000    0.000 
#
# Total GULP energy -268522.146738 kJ/mol
# GULP energy per Si atom -5594.211390 kJ/mol
# Density = 2.684917 g / cm^3
# Si number density = 26.910421 Si / 1000 Ang^3
#
#
#
# Elastic Constant Matrix: (Units=GPa)
#
#
# Indices 1 2 3 4 5 6 
#
# 1 42.3150 151.9629 41.5925 0.0000 0.0000 0.0000
# 2 151.9629 42.3024 41.5911 0.0000 0.0000 0.0000
# 3 41.5925 41.5911 132.1605 0.0000 0.0000 0.0000
# 4 0.0000 0.0000 0.0000 13.2694 0.0000 0.0000
# 5 0.0000 0.0000 0.0000 0.0000 13.2780 0.0000
# 6 0.0000 0.0000 0.0000 0.0000 0.0000 39.9402
#
#
#
# Elastic Compliance Matrix: (Units=1/GPa)
#
#
# Indices 1 2 3 4 5 6 
#
# 1 -0.001585 0.007534 -0.001872 0.000000 0.000000 0.000000
# 2 0.007534 -0.001586 -0.001872 0.000000 0.000000 0.000000
# 3 -0.001872 -0.001872 0.008745 0.000000 0.000000 0.000000
# 4 0.000000 0.000000 0.000000 0.075361 0.000000 0.000000
# 5 0.000000 0.000000 0.000000 0.000000 0.075313 0.000000
# 6 0.000000 0.000000 0.000000 0.000000 0.000000 0.025037
#
#
# Mechanical properties :
#
#
# Convention : Reuss Voigt Hill
#
# Bulk Modulus (GPa) = 76.02104 76.34122 76.18113
# Shear Modulus (GPa) = 28.07557 12.07295 20.07426
#
# Velocity S-wave (km/s) = 3.23352 2.12040 2.73420
# Velocity P-wave (km/s) = 6.50014 5.86728 6.19180
#
# Compressibility (1/GPa) = 0.01315425
#
# Stress axis : x y z
#
# Youngs Moduli (GPa) = -630.94366 -630.68979 114.35162
#
# Poissons Ratio (x) = 4.75182 0.21410
# Poissons Ratio (y) = 4.75374 0.21408
# Poissons Ratio (z) = -1.18130 -1.18075
#
# Static dielectric constant tensor:
#      x y z
#    x 2.252180 0.000000 0.000000 
#    y 0.000000 2.252150 0.000000 
#    z 0.000000 0.000000 -4.729560 
# 
# From -- ./inp_files/7974.got.cif
#   From: 2010.05.17/outbox.cif.g08.bks.cpg/sg95_4_cif.got.tgz:7974.got - 2010.06.03 19:46:49.
