data_PCOD9550767
_publ_section_title
;
Structure prediction by ZEFSAII (Michael W. Deem and Ramdas Pophale) SiO2 
 PCOD9550767
Probable space group: P 43 21 2
;
_chemical_formula_sum "Si O2"
_cell_formula_units_Z 60
_cell_length_a 17.747053
_cell_length_b 17.747053
_cell_length_c 6.940687
_cell_angle_alpha 90.000000
_cell_angle_beta 90.000000
_cell_angle_gamma 90.000000
_cell_volume 2186.024134
_symmetry_space_group_name_H-M "P 43 21 2"
_symmetry_group_IT_number 96
_symmetry_cell_setting 'tetragonal'
loop_
_space_group_symop_operation_xyz
x,y,z
1/2-y,1/2+x,3/4+z
-x,-y,1/2+z
1/2+y,1/2-x,1/4+z
1/2+x,1/2-y,1/4-z
1/2-x,1/2+y,3/4-z
y,x,-z
-y,-x,1/2-z
loop_
_atom_site_type_symbol
_atom_site_label
_atom_site_fract_x
_atom_site_fract_y
_atom_site_fract_z
Si Si1 0.238180 0.128371 0.791153
Si Si2 0.161266 0.563676 0.321655
Si Si3 0.617807 0.543514 0.713066
Si Si4 0.621797 0.378204 0.750000
Si Si5 0.340158 0.492071 0.790724
Si Si6 0.869439 0.271424 0.433108
Si Si7 0.923446 0.297223 0.844921
Si Si8 0.910471 0.531994 0.531437
O O1 0.084880 0.282512 0.390005
O O2 0.166365 0.156293 0.678359
O O3 0.289806 0.193793 0.872366
O O4 0.205317 0.070214 0.947471
O O5 0.188660 0.501718 0.475250
O O6 0.124087 0.633791 0.432750
O O7 0.090825 0.531444 0.199465
O O8 0.633566 0.465058 0.817065
O O9 0.617817 0.507649 0.498362
O O10 0.549176 0.588759 0.807600
O O11 0.686744 0.600896 0.669789
O O12 0.271574 0.436165 0.737756
O O13 0.870268 0.277973 0.664776
O O14 0.926318 0.332209 0.335271
O O15 0.916517 0.482383 0.337187
#
# Coordination Sequence:
#
# PCOD9550767 Si02
#       8
#     8   8   8   4   8   8   8   8
#     4  10  21  41  66  92 125 175 222 274 339 401
#     4  10  19  37  54  87 127 175 219 258 316 403
#     4  10  23  44  67  93 127 168 223 281 339 407
#     4  10  20  40  72  90 118 172 218 270 332 400
#     4  10  22  40  62  93 126 161 216 279 336 392
#     4  10  22  40  62  90 133 174 221 268 334 414
#     4  10  20  35  58  87 130 168 212 268 321 392
#     4  11  19  33  51  85 126 171 220 266 316 393
#
# _framework density 27.447091
#
# number of rings (size 3 to 8) (size 9 to 14) (size 15 to 20)
#    0.000    1.867    4.000    3.200    0.000    4.800 
#    0.000   10.667    0.000    1.600    0.000    0.000 
#    0.000    0.000    0.000    0.000    0.000    0.000 
#
# Total GULP energy -334187.844795 kJ/mol
# GULP energy per Si atom -5569.797413 kJ/mol
# Density = 2.738462 g / cm^3
# Si number density = 27.447091 Si / 1000 Ang^3
#
#
#
# Elastic Constant Matrix: (Units=GPa)
#
#
# Indices 1 2 3 4 5 6 
#
# 1 108.3438 39.5548 26.8843 0.0000 0.0000 0.0000
# 2 39.5548 108.3457 26.8849 0.0000 0.0000 0.0000
# 3 26.8843 26.8849 64.2190 0.0000 0.0000 0.0000
# 4 0.0000 0.0000 0.0000 37.5884 0.0000 0.0000
# 5 0.0000 0.0000 0.0000 0.0000 37.5887 0.0000
# 6 0.0000 0.0000 0.0000 0.0000 0.0000 40.5567
#
#
#
# Elastic Compliance Matrix: (Units=1/GPa)
#
#
# Indices 1 2 3 4 5 6 
#
# 1 0.011256 -0.003281 -0.003339 0.000000 0.000000 0.000000
# 2 -0.003281 0.011256 -0.003339 0.000000 0.000000 0.000000
# 3 -0.003339 -0.003339 0.018367 0.000000 0.000000 0.000000
# 4 0.000000 0.000000 0.000000 0.026604 0.000000 0.000000
# 5 0.000000 0.000000 0.000000 0.000000 0.026604 0.000000
# 6 0.000000 0.000000 0.000000 0.000000 0.000000 0.024657
#
#
# Mechanical properties :
#
#
# Convention : Reuss Voigt Hill
#
# Bulk Modulus (GPa) = 47.70399 51.95071 49.82735
# Shear Modulus (GPa) = 34.32933 35.65240 34.99087
#
# Velocity S-wave (km/s) = 3.54043 3.60800 3.57437
# Velocity P-wave (km/s) = 5.84216 6.02707 5.93534
#
# Compressibility (1/GPa) = 0.02096261
#
# Stress axis : x y z
#
# Youngs Moduli (GPa) = 88.84025 88.84150 54.44504
#
# Poissons Ratio (x) = 0.29148 0.18177
# Poissons Ratio (y) = 0.29148 0.18178
# Poissons Ratio (z) = 0.29661 0.29662
#
# Static dielectric constant tensor:
#      x y z
#    x 2.409280 0.000000 0.000000 
#    y 0.000000 2.409280 0.000000 
#    z 0.000000 0.000000 1.571500 
# 
# From -- ./inp_files/1632.got.cif
#   From: 2010.05.17/outbox.cif.g08.bks.cpg/sg96_1_cif.got.tgz:1632.got - 2010.06.03 19:52:08.
