data_PCOD9550321
_publ_section_title
;
Structure prediction by ZEFSAII (Michael W. Deem and Ramdas Pophale) SiO2 
 PCOD9550321
Probable space group: P 42 21 2
;
_chemical_formula_sum "Si O2"
_cell_formula_units_Z 64
_cell_length_a 24.867261
_cell_length_b 24.867261
_cell_length_c 5.463477
_cell_angle_alpha 90.000000
_cell_angle_beta 90.000000
_cell_angle_gamma 90.000000
_cell_volume 3378.508566
_symmetry_space_group_name_H-M "P 42 21 2"
_symmetry_group_IT_number 94
_symmetry_cell_setting 'tetragonal'
loop_
_space_group_symop_operation_xyz
x,y,z
1/2-y,1/2+x,1/2+z
-x,-y,z
1/2+y,1/2-x,1/2+z
1/2+x,1/2-y,1/2-z
1/2-x,1/2+y,1/2-z
y,x,-z
-y,-x,-z
loop_
_atom_site_type_symbol
_atom_site_label
_atom_site_fract_x
_atom_site_fract_y
_atom_site_fract_z
Si Si1 0.255066 0.036842 0.722717
Si Si2 0.167786 0.633145 0.264296
Si Si3 0.871930 0.453761 0.625080
Si Si4 0.971832 0.248986 0.771168
Si Si5 0.130800 0.824308 0.749883
Si Si6 0.644855 0.268097 0.031957
Si Si7 0.931801 0.365796 0.907897
Si Si8 0.278584 0.797538 0.364075
O O1 0.319006 0.048801 0.705672
O O2 0.241468 0.003570 0.481062
O O3 0.225633 0.093862 0.706874
O O4 0.245787 0.005846 0.976781
O O5 0.147486 0.577878 0.384202
O O6 0.168996 0.682224 0.458686
O O7 0.230790 0.625840 0.194139
O O8 0.122325 0.645598 0.062777
O O9 0.918187 0.416606 0.737067
O O10 0.881634 0.516171 0.569949
O O11 0.927154 0.202721 0.771534
O O12 0.946983 0.309654 0.776134
O O13 0.141972 0.858029 0.500000
O O14 0.169808 0.772503 0.727343
O O15 0.144928 0.855073 0.000000
O O16 0.686790 0.226165 0.147100
O O17 0.676919 0.323082 0.000000
O O18 0.254218 0.745782 0.500000
#
# Coordination Sequence:
#
# PCOD9550321 Si02
#       8
#     8   8   8   8   8   8   8   8
#     4  11  24  42  64  88 125 168 213 252 311 392
#     4  12  22  41  60  85 118 159 210 259 328 393
#     4  11  25  41  63  83 112 160 219 281 325 377
#     4  11  25  43  66  90 126 173 209 256 324 373
#     4  11  24  39  62  95 131 161 209 257 309 380
#     4  12  22  37  60  92 125 164 201 255 313 387
#     4  11  26  40  66  77 120 158 227 270 337 368
#     4  11  23  33  58  89 127 157 202 256 319 383
#
# _framework density 18.943269999999998
#
# number of rings (size 3 to 8) (size 9 to 14) (size 15 to 20)
#    0.000    0.750    3.750    4.125   12.250    0.000 
#    0.000    1.875    0.000    0.000    0.000    0.000 
#    0.000    7.500    0.000    0.000    0.000    0.000 
#
# Total GULP energy -357502.192150 kJ/mol
# GULP energy per Si atom -5585.971752 kJ/mol
# Density = 1.890015 g / cm^3
# Si number density = 18.943270 Si / 1000 Ang^3
#
#
#
# Elastic Constant Matrix: (Units=GPa)
#
#
# Indices 1 2 3 4 5 6 
#
# 1 66.7578 72.2601 33.2452 0.0000 0.0000 0.0000
# 2 72.2601 66.7562 33.2429 0.0000 0.0000 0.0000
# 3 33.2452 33.2429 84.2457 0.0000 0.0000 0.0000
# 4 0.0000 0.0000 0.0000 27.8199 0.0000 0.0000
# 5 0.0000 0.0000 0.0000 0.0000 27.8203 0.0000
# 6 0.0000 0.0000 0.0000 0.0000 0.0000 30.9356
#
#
#
# Elastic Compliance Matrix: (Units=1/GPa)
#
#
# Indices 1 2 3 4 5 6 
#
# 1 -0.086424 0.095291 -0.003496 0.000000 0.000000 0.000000
# 2 0.095291 -0.086424 -0.003502 0.000000 0.000000 0.000000
# 3 -0.003496 -0.003502 0.014631 0.000000 0.000000 0.000000
# 4 0.000000 0.000000 0.000000 0.035945 0.000000 0.000000
# 5 0.000000 0.000000 0.000000 0.000000 0.035945 0.000000
# 6 0.000000 0.000000 0.000000 0.000000 0.000000 0.032325
#
#
# Mechanical properties :
#
#
# Convention : Reuss Voigt Hill
#
# Bulk Modulus (GPa) = 54.43838 55.02844 54.73341
# Shear Modulus (GPa) = -22.27544 22.58258 0.15357
#
# Velocity S-wave (km/s) = -3.43286 3.45645 0.28504
# Velocity P-wave (km/s) = 3.61763 6.71130 5.39114
#
# Compressibility (1/GPa) = 0.01836939
#
# Stress axis : x y z
#
# Youngs Moduli (GPa) = -11.57087 -11.57092 68.34592
#
# Poissons Ratio (x) = 1.10260 0.23896
# Poissons Ratio (y) = 1.10259 0.23931
# Poissons Ratio (z) = -0.04046 -0.04052
#
# Static dielectric constant tensor:
#      x y z
#    x 1.686550 0.000000 0.000000 
#    y 0.000000 1.686550 0.000000 
#    z 0.000000 0.000000 1.451150 
# 
# From -- ./inp_files/671.got.cif
#   From: 2010.05.17/outbox.cif.g08.bks.cpg/sg94_1_cif.got.tgz:671.got - 2010.06.03 19:43:16.
