data_PCOD9550637
_publ_section_title
;
Structure prediction by ZEFSAII (Michael W. Deem and Ramdas Pophale) SiO2 
 PCOD9550637
Probable space group: P 43 2 2
;
_chemical_formula_sum "Si O2"
_cell_formula_units_Z 28
_cell_length_a 7.966040
_cell_length_b 7.966040
_cell_length_c 21.066103
_cell_angle_alpha 90.000000
_cell_angle_beta 90.000000
_cell_angle_gamma 90.000000
_cell_volume 1336.808409
_symmetry_space_group_name_H-M "P 43 2 2"
_symmetry_group_IT_number 95
_symmetry_cell_setting 'tetragonal'
loop_
_space_group_symop_operation_xyz
x,y,z
-y,x,3/4+z
-x,-y,1/2+z
y,-x,1/4+z
x,-y,1/2-z
-x,y,-z
y,x,1/4-z
-y,-x,3/4-z
loop_
_atom_site_type_symbol
_atom_site_label
_atom_site_fract_x
_atom_site_fract_y
_atom_site_fract_z
Si Si1 0.519148 0.500000 0.750000
Si Si2 0.365349 0.634652 0.875000
Si Si3 0.041724 0.041724 0.125000
Si Si4 0.208655 0.338087 0.062520
Si Si5 0.004600 0.680775 0.072933
O O1 0.407123 0.521439 0.813316
O O2 0.636082 0.335644 0.754893
O O3 0.174482 0.625354 0.899405
O O4 0.098579 0.169179 0.068504
O O5 0.844772 0.067199 0.139253
O O6 0.321976 0.321976 0.125000
O O7 0.108896 0.509843 0.070515
O O8 0.000000 0.739629 0.000000
#
# Coordination Sequence:
#
# PCOD9550637 Si02
#       5
#     4   4   4   8   8
#     4  12  22  44  72 108 134 200 240 300 370 442
#     4  11  25  42  76 102 147 183 254 300 368 455
#     4   9  25  46  66 110 135 187 246 290 364 441
#     4  10  24  44  67  98 146 187 235 294 363 430
#     4  11  23  45  71 104 142 189 237 307 369 427
#
# _framework density 20.945409999999999
#
# number of rings (size 3 to 8) (size 9 to 14) (size 15 to 20)
#    0.857    0.571    4.286    0.000    4.000    1.143 
#   10.286    1.429    0.000    0.000    0.000    0.000 
#    0.000    0.000    0.000    0.000    0.000    0.000 
#
# Total GULP energy -156001.442815 kJ/mol
# GULP energy per Si atom -5571.480101 kJ/mol
# Density = 2.089774 g / cm^3
# Si number density = 20.945410 Si / 1000 Ang^3
#
#
#
# Elastic Constant Matrix: (Units=GPa)
#
#
# Indices 1 2 3 4 5 6 
#
# 1 92.0305 52.8172 18.2040 0.0000 0.0000 0.0000
# 2 52.8172 92.0309 18.2040 0.0000 0.0000 0.0000
# 3 18.2040 18.2040 92.4576 0.0000 0.0000 0.0000
# 4 0.0000 0.0000 0.0000 51.4650 0.0000 0.0000
# 5 0.0000 0.0000 0.0000 0.0000 51.4653 0.0000
# 6 0.0000 0.0000 0.0000 0.0000 0.0000 44.8673
#
#
#
# Elastic Compliance Matrix: (Units=1/GPa)
#
#
# Indices 1 2 3 4 5 6 
#
# 1 0.016382 -0.009119 -0.001430 0.000000 0.000000 0.000000
# 2 -0.009119 0.016382 -0.001430 0.000000 0.000000 0.000000
# 3 -0.001430 -0.001430 0.011379 0.000000 0.000000 0.000000
# 4 0.000000 0.000000 0.000000 0.019431 0.000000 0.000000
# 5 0.000000 0.000000 0.000000 0.000000 0.019431 0.000000
# 6 0.000000 0.000000 0.000000 0.000000 0.000000 0.022288
#
#
# Mechanical properties :
#
#
# Convention : Reuss Voigt Hill
#
# Bulk Modulus (GPa) = 49.54142 50.55218 50.04680
# Shear Modulus (GPa) = 36.77022 42.04577 39.40800
#
# Velocity S-wave (km/s) = 4.19445 4.48526 4.34229
# Velocity P-wave (km/s) = 6.86745 7.14220 7.00617
#
# Compressibility (1/GPa) = 0.02018513
#
# Stress axis : x y z
#
# Youngs Moduli (GPa) = 61.04118 61.04150 87.88196
#
# Poissons Ratio (x) = 0.55664 0.12568
# Poissons Ratio (y) = 0.55664 0.12568
# Poissons Ratio (z) = 0.08729 0.08729
#
# Static dielectric constant tensor:
#      x y z
#    x 1.737340 0.000000 0.000000 
#    y 0.000000 1.737340 0.000000 
#    z 0.000000 0.000000 1.787020 
# 
# From -- ./inp_files/5381.got.cif
#   From: 2010.05.17/outbox.cif.g08.bks.cpg/sg95_3_cif.got.tgz:5381.got - 2010.06.03 19:46:49.
