data_PCOD9550123
_publ_section_title
;
Structure prediction by ZEFSAII (Michael W. Deem and Ramdas Pophale) SiO2 
 PCOD9550123
Probable space group: P 42 21 2
;
_chemical_formula_sum "Si O2"
_cell_formula_units_Z 58
_cell_length_a 17.013396
_cell_length_b 17.013396
_cell_length_c 9.431784
_cell_angle_alpha 90.000000
_cell_angle_beta 90.000000
_cell_angle_gamma 90.000000
_cell_volume 2730.083107
_symmetry_space_group_name_H-M "P 42 21 2"
_symmetry_group_IT_number 94
_symmetry_cell_setting 'tetragonal'
loop_
_space_group_symop_operation_xyz
x,y,z
1/2-y,1/2+x,1/2+z
-x,-y,z
1/2+y,1/2-x,1/2+z
1/2+x,1/2-y,1/2-z
1/2-x,1/2+y,1/2-z
y,x,-z
-y,-x,-z
loop_
_atom_site_type_symbol
_atom_site_label
_atom_site_fract_x
_atom_site_fract_y
_atom_site_fract_z
Si Si1 0.660061 0.530699 0.831358
Si Si2 0.498810 0.369584 0.483542
Si Si3 0.328453 0.170026 0.723067
Si Si4 0.500000 0.500000 0.000000
Si Si5 0.039144 0.304734 0.505770
Si Si6 0.810137 0.244056 0.345817
Si Si7 0.117689 0.606145 0.480844
Si Si8 0.501572 0.221817 0.682246
O O1 0.665024 0.496589 0.674104
O O2 0.728391 0.499303 0.932621
O O3 0.678626 0.623429 0.815913
O O4 0.576743 0.507595 0.900078
O O5 0.415391 0.415391 0.500000
O O6 0.564713 0.435288 0.500000
O O7 0.513981 0.301634 0.596763
O O8 0.321249 0.116245 0.585513
O O9 0.261586 0.236072 0.741597
O O10 0.410051 0.216933 0.717636
O O11 0.339545 0.119326 0.867457
O O12 0.047984 0.284344 0.670378
O O13 0.974596 0.375230 0.497032
O O14 0.776650 0.223351 0.500000
O O15 0.850613 0.327742 0.370429
O O16 0.147380 0.525349 0.414722
#
# Coordination Sequence:
#
# PCOD9550123 Si02
#       8
#     8   8   8   2   8   8   8   8
#     4  11  23  39  65  93 132 170 219 270 328 401
#     4  11  25  41  61  91 132 174 212 264 328 398
#     4  10  21  40  67  92 125 171 219 270 331 401
#     4  12  24  36  74 100 132 180 218 280 336 396
#     4  10  24  42  63  96 128 165 220 280 334 398
#     4   9  18  39  63  89 123 171 217 264 332 396
#     4   9  21  40  63  88 125 169 211 271 336 392
#     4  11  24  42  66  93 128 167 221 275 331 410
#
# _framework density 21.244774
#
# number of rings (size 3 to 8) (size 9 to 14) (size 15 to 20)
#    0.000    1.793    0.690    3.310    3.862    6.621 
#    0.000    4.138    0.000    0.000    0.000    0.000 
#    0.000    0.000    0.000    0.000    0.000    0.000 
#
# Total GULP energy -323937.047828 kJ/mol
# GULP energy per Si atom -5585.121514 kJ/mol
# Density = 2.119642 g / cm^3
# Si number density = 21.244774 Si / 1000 Ang^3
#
#
#
# Elastic Constant Matrix: (Units=GPa)
#
#
# Indices 1 2 3 4 5 6 
#
# 1 153.7374 -101.8040 33.7649 0.0000 0.0000 0.0000
# 2 -101.8040 153.7329 33.7414 0.0000 0.0000 0.0000
# 3 33.7649 33.7414 141.1545 0.0000 0.0000 0.0000
# 4 0.0000 0.0000 0.0000 11.9138 0.0000 0.0000
# 5 0.0000 0.0000 0.0000 0.0000 11.9228 0.0000
# 6 0.0000 0.0000 0.0000 0.0000 0.0000 23.2779
#
#
#
# Elastic Compliance Matrix: (Units=1/GPa)
#
#
# Indices 1 2 3 4 5 6 
#
# 1 0.015928 0.012014 -0.006682 0.000000 0.000000 0.000000
# 2 0.012014 0.015927 -0.006681 0.000000 0.000000 0.000000
# 3 -0.006682 -0.006681 0.010280 0.000000 0.000000 0.000000
# 4 0.000000 0.000000 0.000000 0.083936 0.000000 0.000000
# 5 0.000000 0.000000 0.000000 0.000000 0.083873 0.000000
# 6 0.000000 0.000000 0.000000 0.000000 0.000000 0.042959
#
#
# Mechanical properties :
#
#
# Convention : Reuss Voigt Hill
#
# Bulk Modulus (GPa) = 25.35679 42.22550 33.79114
# Shear Modulus (GPa) = 18.60490 41.61772 30.11131
#
# Velocity S-wave (km/s) = 2.96250 4.43082 3.76886
# Velocity P-wave (km/s) = 4.86450 6.78933 5.90586
#
# Compressibility (1/GPa) = 0.03943717
#
# Stress axis : x y z
#
# Youngs Moduli (GPa) = 62.78327 62.78621 97.27819
#
# Poissons Ratio (x) = -0.75432 0.65000
# Poissons Ratio (y) = -0.75429 0.64992
# Poissons Ratio (z) = 0.41951 0.41948
#
# Static dielectric constant tensor:
#      x y z
#    x 1.780760 0.000000 0.000000 
#    y 0.000000 1.780770 0.000000 
#    z 0.000000 0.000000 1.766510 
# 
# From -- ./inp_files/1746.got.cif
#   From: 2010.05.17/outbox.cif.g08.bks.cpg/sg94_1_cif.got.tgz:1746.got - 2010.06.03 19:43:16.
