data_PCOD9550585
_publ_section_title
;
Structure prediction by ZEFSAII (Michael W. Deem and Ramdas Pophale) SiO2 
 PCOD9550585
Probable space group: P 43 2 2
;
_chemical_formula_sum "Si O2"
_cell_formula_units_Z 56
_cell_length_a 15.861520
_cell_length_b 15.861520
_cell_length_c 10.643878
_cell_angle_alpha 90.000000
_cell_angle_beta 90.000000
_cell_angle_gamma 90.000000
_cell_volume 2677.870027
_symmetry_space_group_name_H-M "P 43 2 2"
_symmetry_group_IT_number 95
_symmetry_cell_setting 'tetragonal'
loop_
_space_group_symop_operation_xyz
x,y,z
-y,x,3/4+z
-x,-y,1/2+z
y,-x,1/4+z
x,-y,1/2-z
-x,y,-z
y,x,1/4-z
-y,-x,3/4-z
loop_
_atom_site_type_symbol
_atom_site_label
_atom_site_fract_x
_atom_site_fract_y
_atom_site_fract_z
Si Si1 0.234580 0.205562 0.891796
Si Si2 0.772378 0.523915 0.606247
Si Si3 0.303182 0.303182 0.125000
Si Si4 0.342200 0.103381 0.446508
Si Si5 0.766396 0.013463 0.107744
Si Si6 0.235095 0.365057 0.579899
Si Si7 0.052325 0.947676 0.875000
Si Si8 0.971659 0.466403 0.887957
O O1 0.157031 0.269224 0.871845
O O2 0.210020 0.109786 0.916511
O O3 0.291735 0.203797 0.765893
O O4 0.287048 0.239432 0.010177
O O5 0.749722 0.500000 0.750000
O O6 0.715700 0.604238 0.572587
O O7 0.760549 0.448868 0.505459
O O8 0.871440 0.548559 0.611131
O O9 0.376333 0.170654 0.551666
O O10 0.302811 0.024230 0.518620
O O11 0.401800 0.052007 0.350994
O O12 0.738919 0.000000 0.250000
O O13 0.850805 0.960285 0.092383
O O14 0.325027 0.325027 0.625000
O O15 0.031353 0.000000 0.750000
O O16 0.987672 0.500000 0.750000
O O17 0.000000 0.529164 0.000000
#
# Coordination Sequence:
#
# PCOD9550585 Si02
#       8
#     8   8   4   8   8   8   4   8
#     4  11  23  40  63  95 130 185 233 283 349 413
#     4  11  23  43  70  97 135 180 225 278 354 431
#     4  12  24  43  70  94 138 177 218 278 364 434
#     4  11  22  37  64  95 137 173 232 291 334 411
#     4  11  21  36  61  88 124 178 236 282 334 399
#     4  10  22  42  70 102 133 179 234 286 349 426
#     4  10  22  37  54  78 118 171 228 288 330 378
#     4  11  24  40  63 100 141 179 225 281 349 418
#
# _framework density 20.912141999999999
#
# number of rings (size 3 to 8) (size 9 to 14) (size 15 to 20)
#    0.000    1.143    2.857    4.286    3.000    1.143 
#    0.000    5.000    1.571    0.000    0.000    0.000 
#    0.000    0.000    0.000    0.000    0.000    0.000 
#
# Total GULP energy -312429.415607 kJ/mol
# GULP energy per Si atom -5579.096707 kJ/mol
# Density = 2.086454 g / cm^3
# Si number density = 20.912142 Si / 1000 Ang^3
#
#
#
# Elastic Constant Matrix: (Units=GPa)
#
#
# Indices 1 2 3 4 5 6 
#
# 1 -557.4199 675.1941 2.0309 0.0000 0.0000 0.0000
# 2 675.1941 -557.8093 1.9097 0.0000 0.0000 0.0000
# 3 2.0309 1.9097 53.7005 0.0000 0.0000 0.0000
# 4 0.0000 0.0000 0.0000 22.6879 0.0000 0.0000
# 5 0.0000 0.0000 0.0000 0.0000 22.6844 0.0000
# 6 0.0000 0.0000 0.0000 0.0000 0.0000 27.5461
#
#
#
# Elastic Compliance Matrix: (Units=1/GPa)
#
#
# Indices 1 2 3 4 5 6 
#
# 1 0.003853 0.004663 -0.000312 0.000000 0.000000 0.000000
# 2 0.004663 0.003851 -0.000313 0.000000 0.000000 0.000000
# 3 -0.000312 -0.000313 0.018645 0.000000 0.000000 0.000000
# 4 0.000000 0.000000 0.000000 0.044076 0.000000 0.000000
# 5 0.000000 0.000000 0.000000 0.000000 0.044083 0.000000
# 6 0.000000 0.000000 0.000000 0.000000 0.000000 0.036303
#
#
# Mechanical properties :
#
#
# Convention : Reuss Voigt Hill
#
# Bulk Modulus (GPa) = 29.04808 32.97120 31.00964
# Shear Modulus (GPa) = 32.42339 -101.46054 -34.51857
#
# Velocity S-wave (km/s) = 3.94186 -6.97301 -4.06722
# Velocity P-wave (km/s) = 5.88543 7.00212 2.68248
#
# Compressibility (1/GPa) = 0.03442568
#
# Stress axis : x y z
#
# Youngs Moduli (GPa) = 259.51035 259.68744 53.63449
#
# Poissons Ratio (x) = -1.21099 0.01671
# Poissons Ratio (y) = -1.21016 0.01680
# Poissons Ratio (z) = 0.08085 0.08136
#
# Static dielectric constant tensor:
#      x y z
#    x 1.767640 0.000000 0.000000 
#    y 0.000000 1.767640 0.000000 
#    z 0.000000 0.000000 2.100380 
# 
# From -- ./inp_files/4037.got.cif
#   From: 2010.05.17/outbox.cif.g08.bks.cpg/sg95_3_cif.got.tgz:4037.got - 2010.06.03 19:46:49.
