data_PCOD9550785
_publ_section_title
;
Structure prediction by ZEFSAII (Michael W. Deem and Ramdas Pophale) SiO2 
 PCOD9550785
Probable space group: P 43 21 2
;
_chemical_formula_sum "Si O2"
_cell_formula_units_Z 52
_cell_length_a 20.382452
_cell_length_b 20.382452
_cell_length_c 6.407994
_cell_angle_alpha 90.000000
_cell_angle_beta 90.000000
_cell_angle_gamma 90.000000
_cell_volume 2662.164899
_symmetry_space_group_name_H-M "P 43 21 2"
_symmetry_group_IT_number 96
_symmetry_cell_setting 'tetragonal'
loop_
_space_group_symop_operation_xyz
x,y,z
1/2-y,1/2+x,3/4+z
-x,-y,1/2+z
1/2+y,1/2-x,1/4+z
1/2+x,1/2-y,1/4-z
1/2-x,1/2+y,3/4-z
y,x,-z
-y,-x,1/2-z
loop_
_atom_site_type_symbol
_atom_site_label
_atom_site_fract_x
_atom_site_fract_y
_atom_site_fract_z
Si Si1 0.494407 0.389941 0.446674
Si Si2 0.580833 0.839408 0.687344
Si Si3 0.468276 0.226445 0.806906
Si Si4 0.811223 0.450734 0.081028
Si Si5 0.721516 0.618390 0.035884
Si Si6 0.809715 0.946547 0.347967
Si Si7 0.616688 0.383313 0.750000
O O1 0.458155 0.458155 0.500000
O O2 0.437179 0.334843 0.445768
O O3 0.529378 0.373374 0.226393
O O4 0.548125 0.378708 0.625584
O O5 0.550810 0.832619 0.457406
O O6 0.636315 0.893778 0.691438
O O7 0.516521 0.846270 0.831496
O O8 0.612681 0.771319 0.771809
O O9 0.526978 0.214575 0.644709
O O10 0.404501 0.241715 0.672019
O O11 0.492999 0.283696 0.959120
O O12 0.749653 0.434068 0.235698
O O13 0.687275 0.687275 0.000000
O O14 0.829526 0.888612 0.186431
#
# Coordination Sequence:
#
# PCOD9550785 Si02
#       7
#     8   8   8   8   8   8   4
#     4  11  23  38  58  93 127 169 224 271 321 384
#     4  10  22  41  68  92 128 162 210 274 334 405
#     4  10  19  41  66  85 122 172 198 272 323 381
#     4  10  22  42  66  97 125 166 214 268 342 408
#     4  10  20  39  63  90 121 166 220 259 318 391
#     4  11  21  41  60  90 126 173 219 257 337 384
#     4  12  24  36  62  88 128 178 218 276 318 388
#
# _framework density 19.532975
#
# number of rings (size 3 to 8) (size 9 to 14) (size 15 to 20)
#    0.000    1.538    6.154    0.462    2.154    5.538 
#    2.769    0.000   25.385    0.000    0.000    0.000 
#    0.000    0.000    0.000    0.000    0.000    0.000 
#
# Total GULP energy -289754.340642 kJ/mol
# GULP energy per Si atom -5572.198859 kJ/mol
# Density = 1.948852 g / cm^3
# Si number density = 19.532975 Si / 1000 Ang^3
#
#
#
# Elastic Constant Matrix: (Units=GPa)
#
#
# Indices 1 2 3 4 5 6 
#
# 1 78.7190 65.0826 44.8319 0.0000 0.0000 0.0000
# 2 65.0826 78.7197 44.8317 0.0000 0.0000 0.0000
# 3 44.8319 44.8317 126.4302 0.0000 0.0000 0.0000
# 4 0.0000 0.0000 0.0000 7.6356 0.0000 0.0000
# 5 0.0000 0.0000 0.0000 0.0000 7.6354 0.0000
# 6 0.0000 0.0000 0.0000 0.0000 0.0000 45.0948
#
#
#
# Elastic Compliance Matrix: (Units=1/GPa)
#
#
# Indices 1 2 3 4 5 6 
#
# 1 0.041130 -0.032202 -0.003166 0.000000 0.000000 0.000000
# 2 -0.032202 0.041129 -0.003166 0.000000 0.000000 0.000000
# 3 -0.003166 -0.003166 0.010155 0.000000 0.000000 0.000000
# 4 0.000000 0.000000 0.000000 0.130966 0.000000 0.000000
# 5 0.000000 0.000000 0.000000 0.000000 0.130969 0.000000
# 6 0.000000 0.000000 0.000000 0.000000 0.000000 0.022176
#
#
# Mechanical properties :
#
#
# Convention : Reuss Voigt Hill
#
# Bulk Modulus (GPa) = 65.15805 65.92906 65.54356
# Shear Modulus (GPa) = 10.90020 20.68133 15.79076
#
# Velocity S-wave (km/s) = 2.36485 3.25744 2.84635
# Velocity P-wave (km/s) = 6.39430 6.92631 6.66562
#
# Compressibility (1/GPa) = 0.01534730
#
# Stress axis : x y z
#
# Youngs Moduli (GPa) = 24.31322 24.31355 98.47664
#
# Poissons Ratio (x) = 0.78294 0.31178
# Poissons Ratio (y) = 0.78293 0.31175
# Poissons Ratio (z) = 0.07698 0.07697
#
# Static dielectric constant tensor:
#      x y z
#    x 1.701490 0.000000 0.000000 
#    y 0.000000 1.701480 0.000000 
#    z 0.000000 0.000000 1.742630 
# 
# From -- ./inp_files/710.got.cif
#   From: 2010.05.17/outbox.cif.g08.bks.cpg/sg96_1_cif.got.tgz:710.got - 2010.06.03 19:52:08.
