data_PCOD9550833
_publ_section_title
;
Structure prediction by ZEFSAII (Michael W. Deem and Ramdas Pophale) SiO2 
 PCOD9550833
Probable space group: P 43 21 2
;
_chemical_formula_sum "Si O2"
_cell_formula_units_Z 52
_cell_length_a 15.195867
_cell_length_b 15.195867
_cell_length_c 9.212678
_cell_angle_alpha 90.000000
_cell_angle_beta 90.000000
_cell_angle_gamma 90.000000
_cell_volume 2127.339772
_symmetry_space_group_name_H-M "P 43 21 2"
_symmetry_group_IT_number 96
_symmetry_cell_setting 'tetragonal'
loop_
_space_group_symop_operation_xyz
x,y,z
1/2-y,1/2+x,3/4+z
-x,-y,1/2+z
1/2+y,1/2-x,1/4+z
1/2+x,1/2-y,1/4-z
1/2-x,1/2+y,3/4-z
y,x,-z
-y,-x,1/2-z
loop_
_atom_site_type_symbol
_atom_site_label
_atom_site_fract_x
_atom_site_fract_y
_atom_site_fract_z
Si Si1 0.259107 0.740894 0.750000
Si Si2 0.546667 0.833843 0.738046
Si Si3 0.619828 0.047111 0.175376
Si Si4 0.527273 0.349684 0.670861
Si Si5 0.833204 0.384054 0.751871
Si Si6 0.647020 0.743100 0.228193
Si Si7 0.058191 0.176259 0.915300
O O1 0.221697 0.781769 0.601622
O O2 0.256313 0.635892 0.718655
O O3 0.550139 0.818212 0.566206
O O4 0.524332 0.738581 0.804938
O O5 0.469120 0.908153 0.733510
O O6 0.623414 0.872832 0.839638
O O7 0.610389 0.953269 0.095698
O O8 0.674571 0.101895 0.060305
O O9 0.565646 0.434355 0.750000
O O10 0.574715 0.263444 0.737150
O O11 0.424047 0.331947 0.695093
O O12 0.554227 0.348540 0.502677
O O13 0.825981 0.291199 0.669750
O O14 0.087972 0.087972 0.000000
#
# Coordination Sequence:
#
# PCOD9550833 Si02
#       7
#     4   8   8   8   8   8   8
#     4  10  20  38  66  88 116 174 212 268 308 398
#     4  12  23  35  55  88 127 173 215 252 310 383
#     4  11  23  33  53  85 128 176 202 248 309 382
#     4  11  24  41  62  93 125 169 210 275 327 376
#     4  11  24  38  55  90 139 167 212 263 312 397
#     4  11  22  40  60  90 124 165 220 260 322 381
#     4  10  21  39  61  85 126 168 218 254 312 381
#
# _framework density 24.443674999999999
#
# number of rings (size 3 to 8) (size 9 to 14) (size 15 to 20)
#    0.462    0.615    4.615    1.846    8.615    0.000 
#    0.000    0.000    0.000    0.000   10.000    0.000 
#    0.000    0.000    0.000    0.000    0.000    0.000 
#
# Total GULP energy -290307.615857 kJ/mol
# GULP energy per Si atom -5582.838766 kJ/mol
# Density = 2.438804 g / cm^3
# Si number density = 24.443675 Si / 1000 Ang^3
#
#
#
# Elastic Constant Matrix: (Units=GPa)
#
#
# Indices 1 2 3 4 5 6 
#
# 1 17.1558 74.7266 20.0873 0.0000 0.0000 0.0000
# 2 74.7266 17.1542 20.0823 0.0000 0.0000 0.0000
# 3 20.0873 20.0823 128.8207 0.0000 0.0000 0.0000
# 4 0.0000 0.0000 0.0000 34.1521 0.0000 0.0000
# 5 0.0000 0.0000 0.0000 0.0000 34.1522 0.0000
# 6 0.0000 0.0000 0.0000 0.0000 0.0000 41.2791
#
#
#
# Elastic Compliance Matrix: (Units=1/GPa)
#
#
# Indices 1 2 3 4 5 6 
#
# 1 -0.002845 0.014525 -0.001821 0.000000 0.000000 0.000000
# 2 0.014525 -0.002845 -0.001821 0.000000 0.000000 0.000000
# 3 -0.001821 -0.001821 0.008331 0.000000 0.000000 0.000000
# 4 0.000000 0.000000 0.000000 0.029281 0.000000 0.000000
# 5 0.000000 0.000000 0.000000 0.000000 0.029281 0.000000
# 6 0.000000 0.000000 0.000000 0.000000 0.000000 0.024225
#
#
# Mechanical properties :
#
#
# Convention : Reuss Voigt Hill
#
# Bulk Modulus (GPa) = 40.97370 43.65812 42.31591
# Shear Modulus (GPa) = 69.64038 25.13230 47.38634
#
# Velocity S-wave (km/s) = 5.34341 3.20999 4.40772
# Velocity P-wave (km/s) = 7.40731 5.62478 6.57672
#
# Compressibility (1/GPa) = 0.02440590
#
# Stress axis : x y z
#
# Youngs Moduli (GPa) = -351.49702 -351.49399 120.03985
#
# Poissons Ratio (x) = 5.10534 0.21855
# Poissons Ratio (y) = 5.10538 0.21863
# Poissons Ratio (z) = -0.63996 -0.64019
#
# Static dielectric constant tensor:
#      x y z
#    x 2.020640 0.000000 0.000000 
#    y 0.000000 2.020640 0.000000 
#    z 0.000000 0.000000 1.982140 
# 
# From -- ./inp_files/1570.got.cif
#   From: 2010.05.17/outbox.cif.g08.bks.cpg/sg96_1_cif.got.tgz:1570.got - 2010.06.03 19:52:08.
