data_PCOD9550501
_publ_section_title
;
Structure prediction by ZEFSAII (Michael W. Deem and Ramdas Pophale) SiO2 
 PCOD9550501
Probable space group: P 43 2 2
;
_chemical_formula_sum "Si O2"
_cell_formula_units_Z 40
_cell_length_a 11.452305
_cell_length_b 11.452305
_cell_length_c 13.400331
_cell_angle_alpha 90.000000
_cell_angle_beta 90.000000
_cell_angle_gamma 90.000000
_cell_volume 1757.524296
_symmetry_space_group_name_H-M "P 43 2 2"
_symmetry_group_IT_number 95
_symmetry_cell_setting 'tetragonal'
loop_
_space_group_symop_operation_xyz
x,y,z
-y,x,3/4+z
-x,-y,1/2+z
y,-x,1/4+z
x,-y,1/2-z
-x,y,-z
y,x,1/4-z
-y,-x,3/4-z
loop_
_atom_site_type_symbol
_atom_site_label
_atom_site_fract_x
_atom_site_fract_y
_atom_site_fract_z
Si Si1 0.580670 0.225276 0.081297
Si Si2 0.148543 0.178017 0.244189
Si Si3 0.760645 0.649961 0.039793
Si Si4 0.969010 0.486920 0.109055
Si Si5 0.098621 0.756107 0.692857
O O1 0.583122 0.279428 0.190766
O O2 0.536588 0.091646 0.101099
O O3 0.500000 0.283684 0.000000
O O4 0.706482 0.216148 0.030898
O O5 0.167429 0.167429 0.125000
O O6 0.187896 0.091010 0.331869
O O7 0.010490 0.198150 0.254936
O O8 0.665724 0.665724 0.125000
O O9 0.874150 0.587028 0.085882
O O10 0.786751 0.780304 0.997315
O O11 0.917057 0.383247 0.176121
O O12 0.000000 0.434685 0.000000
#
# Coordination Sequence:
#
# PCOD9550501 Si02
#       5
#     8   8   8   8   8
#     4  10  20  37  64  92 123 169 236 289 312 398
#     4  11  22  37  61  95 135 173 218 271 354 410
#     4  10  23  37  59 100 128 169 215 287 360 401
#     4  10  20  39  68  93 125 173 239 290 326 403
#     4  11  23  41  62  97 133 176 226 281 344 426
#
# _framework density 22.759285999999999
#
# number of rings (size 3 to 8) (size 9 to 14) (size 15 to 20)
#    0.000    1.600    2.000    3.000    2.800    1.600 
#    0.000   15.000    0.000    0.000   31.200    0.000 
#    0.000    0.000    0.000    0.000    0.000    0.000 
#
# Total GULP energy -223426.787150 kJ/mol
# GULP energy per Si atom -5585.669679 kJ/mol
# Density = 2.270748 g / cm^3
# Si number density = 22.759286 Si / 1000 Ang^3
#
#
#
# Elastic Constant Matrix: (Units=GPa)
#
#
# Indices 1 2 3 4 5 6 
#
# 1 51.9433 20.1390 30.0972 0.0000 0.0000 0.0000
# 2 20.1390 51.9433 30.0972 0.0000 0.0000 0.0000
# 3 30.0972 30.0972 159.7967 0.0000 0.0000 0.0000
# 4 0.0000 0.0000 0.0000 35.5139 0.0000 0.0000
# 5 0.0000 0.0000 0.0000 0.0000 35.5139 0.0000
# 6 0.0000 0.0000 0.0000 0.0000 0.0000 5.1345
#
#
#
# Elastic Compliance Matrix: (Units=1/GPa)
#
#
# Indices 1 2 3 4 5 6 
#
# 1 0.023952 -0.007490 -0.003101 0.000000 0.000000 0.000000
# 2 -0.007490 0.023952 -0.003101 0.000000 0.000000 0.000000
# 3 -0.003101 -0.003101 0.007426 0.000000 0.000000 0.000000
# 4 0.000000 0.000000 0.000000 0.028158 0.000000 0.000000
# 5 0.000000 0.000000 0.000000 0.000000 0.028158 0.000000
# 6 0.000000 0.000000 0.000000 0.000000 0.000000 0.194763
#
#
# Mechanical properties :
#
#
# Convention : Reuss Voigt Hill
#
# Bulk Modulus (GPa) = 35.78065 47.15000 41.46533
# Shear Modulus (GPa) = 14.57269 27.45579 21.01424
#
# Velocity S-wave (km/s) = 2.53315 3.47703 3.04192
# Velocity P-wave (km/s) = 4.93065 6.07301 5.53140
#
# Compressibility (1/GPa) = 0.02794807
#
# Stress axis : x y z
#
# Youngs Moduli (GPa) = 41.74963 41.74963 134.66318
#
# Poissons Ratio (x) = 0.31270 0.41754
# Poissons Ratio (y) = 0.31270 0.41754
# Poissons Ratio (z) = 0.12945 0.12945
#
# Static dielectric constant tensor:
#      x y z
#    x 1.858590 0.000000 0.000000 
#    y 0.000000 1.858590 0.000000 
#    z 0.000000 0.000000 1.906520 
# 
# From -- ./inp_files/4807.got.cif
#   From: 2010.05.17/outbox.cif.g08.bks.cpg/sg95_3_cif.got.tgz:4807.got - 2010.06.03 19:46:49.
