data_PCOD9550367
_publ_section_title
;
Structure prediction by ZEFSAII (Michael W. Deem and Ramdas Pophale) SiO2 
 PCOD9550367
Probable space group: P 42 21 2
;
_chemical_formula_sum "Si O2"
_cell_formula_units_Z 48
_cell_length_a 8.319821
_cell_length_b 8.319821
_cell_length_c 28.430531
_cell_angle_alpha 90.000000
_cell_angle_beta 90.000000
_cell_angle_gamma 90.000000
_cell_volume 1967.944908
_symmetry_space_group_name_H-M "P 42 21 2"
_symmetry_group_IT_number 94
_symmetry_cell_setting 'tetragonal'
loop_
_space_group_symop_operation_xyz
x,y,z
1/2-y,1/2+x,1/2+z
-x,-y,z
1/2+y,1/2-x,1/2+z
1/2+x,1/2-y,1/2-z
1/2-x,1/2+y,1/2-z
y,x,-z
-y,-x,-z
loop_
_atom_site_type_symbol
_atom_site_label
_atom_site_fract_x
_atom_site_fract_y
_atom_site_fract_z
Si Si1 0.598316 0.770632 0.543195
Si Si2 0.910899 0.232250 0.704134
Si Si3 0.397381 0.249715 0.041757
Si Si4 0.097682 0.252210 0.284722
Si Si5 0.615905 0.877242 0.892104
Si Si6 0.124091 0.874268 0.854850
O O1 0.667734 0.667734 0.500000
O O2 0.426589 0.836555 0.526715
O O3 0.568471 0.685331 0.593291
O O4 0.720890 0.917473 0.554580
O O5 0.848679 0.375244 0.736811
O O6 0.960692 0.289585 0.652600
O O7 0.073968 0.162817 0.724984
O O8 0.777679 0.088364 0.701206
O O9 0.268903 0.307531 0.079928
O O10 0.373705 0.373705 0.000000
O O11 0.219320 0.332291 0.323099
O O12 0.500000 0.000000 0.920134
O O13 0.735889 0.003133 0.868628
O O14 0.000000 0.000000 0.831606
#
# Coordination Sequence:
#
# PCOD9550367 Si02
#       6
#     8   8   8   8   8   8
#     4  11  26  46  70 101 140 182 237 291 350 426
#     4  11  26  46  70 103 141 186 237 294 359 430
#     4  11  26  45  71 102 137 185 233 288 357 421
#     4  11  26  45  72 102 141 186 238 296 360 428
#     4  12  25  46  72 100 143 184 234 294 356 425
#     4  12  25  45  71 100 137 185 236 291 353 423
#
# _framework density 24.390929
#
# number of rings (size 3 to 8) (size 9 to 14) (size 15 to 20)
#    0.000    0.667    3.333    3.000    9.333    0.333 
#    0.000    0.000    0.000    0.000    0.000    0.000 
#    0.000    0.000    0.000    0.000    0.000    0.000 
#
# Total GULP energy -268336.135869 kJ/mol
# GULP energy per Si atom -5590.336164 kJ/mol
# Density = 2.433541 g / cm^3
# Si number density = 24.390929 Si / 1000 Ang^3
#
#
#
# Elastic Constant Matrix: (Units=GPa)
#
#
# Indices 1 2 3 4 5 6 
#
# 1 80.8387 14.4823 25.0964 0.0000 0.0000 0.0000
# 2 14.4823 80.8387 25.0964 0.0000 0.0000 0.0000
# 3 25.0964 25.0964 106.6691 0.0000 0.0000 0.0000
# 4 0.0000 0.0000 0.0000 25.3242 0.0000 0.0000
# 5 0.0000 0.0000 0.0000 0.0000 25.3242 0.0000
# 6 0.0000 0.0000 0.0000 0.0000 0.0000 45.4394
#
#
#
# Elastic Compliance Matrix: (Units=1/GPa)
#
#
# Indices 1 2 3 4 5 6 
#
# 1 0.013522 -0.001548 -0.002817 0.000000 0.000000 0.000000
# 2 -0.001548 0.013522 -0.002817 0.000000 0.000000 0.000000
# 3 -0.002817 -0.002817 0.010700 0.000000 0.000000 0.000000
# 4 0.000000 0.000000 0.000000 0.039488 0.000000 0.000000
# 5 0.000000 0.000000 0.000000 0.000000 0.039488 0.000000
# 6 0.000000 0.000000 0.000000 0.000000 0.000000 0.022007
#
#
# Mechanical properties :
#
#
# Convention : Reuss Voigt Hill
#
# Bulk Modulus (GPa) = 42.77135 44.18850 43.47992
# Shear Modulus (GPa) = 31.07785 32.79565 31.93675
#
# Velocity S-wave (km/s) = 3.57341 3.67083 3.62245
# Velocity P-wave (km/s) = 5.88213 6.01023 5.94652
#
# Compressibility (1/GPa) = 0.02338014
#
# Stress axis : x y z
#
# Youngs Moduli (GPa) = 73.95230 73.95230 93.45418
#
# Poissons Ratio (x) = 0.11447 0.26328
# Poissons Ratio (y) = 0.11447 0.26328
# Poissons Ratio (z) = 0.20834 0.20834
#
# Static dielectric constant tensor:
#      x y z
#    x 2.030410 0.000000 0.000000 
#    y 0.000000 2.030410 0.000000 
#    z 0.000000 0.000000 2.013380 
# 
# From -- ./inp_files/5606.got.cif
#   From: 2010.05.17/outbox.cif.g08.bks.cpg/sg94_3_cif.got.tgz:5606.got - 2010.06.03 19:43:16.
