data_PCOD9550413
_publ_section_title
;
Structure prediction by ZEFSAII (Michael W. Deem and Ramdas Pophale) SiO2 
 PCOD9550413
Probable space group: P 43 2 2
;
_chemical_formula_sum "Si O2"
_cell_formula_units_Z 40
_cell_length_a 15.115861
_cell_length_b 15.115861
_cell_length_c 8.243348
_cell_angle_alpha 90.000000
_cell_angle_beta 90.000000
_cell_angle_gamma 90.000000
_cell_volume 1883.516433
_symmetry_space_group_name_H-M "P 43 2 2"
_symmetry_group_IT_number 95
_symmetry_cell_setting 'tetragonal'
loop_
_space_group_symop_operation_xyz
x,y,z
-y,x,3/4+z
-x,-y,1/2+z
y,-x,1/4+z
x,-y,1/2-z
-x,y,-z
y,x,1/4-z
-y,-x,3/4-z
loop_
_atom_site_type_symbol
_atom_site_label
_atom_site_fract_x
_atom_site_fract_y
_atom_site_fract_z
Si Si1 0.916150 0.698130 0.223142
Si Si2 0.000000 0.154822 0.500000
Si Si3 0.000000 0.551175 0.000000
Si Si4 0.288415 0.288415 0.625000
Si Si5 0.249774 0.325585 0.288422
Si Si6 0.864807 0.163619 0.054463
Si Si7 0.500000 0.865198 0.500000
O O1 0.815036 0.693886 0.161863
O O2 0.907879 0.740550 0.403916
O O3 0.964933 0.777890 0.134444
O O4 0.963248 0.611695 0.149594
O O5 0.914950 0.106936 0.574654
O O6 0.076312 0.495931 0.086268
O O7 0.307135 0.334662 0.453121
O O8 0.185161 0.240717 0.319872
O O9 0.192752 0.412415 0.263735
O O10 0.302468 0.302468 0.125000
O O11 0.873335 0.126666 0.875000
#
# Coordination Sequence:
#
# PCOD9550413 Si02
#       7
#     8   4   4   4   8   8   4
#     4  10  18  36  56  83 115 175 210 253 323 390
#     4  11  16  30  56  78 106 137 204 281 310 336
#     4  11  24  38  66  92 150 167 202 287 348 392
#     4  10  16  38  64  84 122 180 222 256 298 404
#     4  10  21  39  64  92 125 174 230 256 311 417
#     4  10  21  35  59  85 113 166 228 262 309 402
#     4  12  24  42  60 110 138 168 212 282 348 392
#
# _framework density 21.236872999999999
#
# number of rings (size 3 to 8) (size 9 to 14) (size 15 to 20)
#    0.000    1.600    6.000    1.200    0.000    5.600 
#    0.000    2.000    0.000   14.400    2.600    0.000 
#    0.000    0.000    0.000    0.000    0.000    0.000 
#
# Total GULP energy -222994.967912 kJ/mol
# GULP energy per Si atom -5574.874198 kJ/mol
# Density = 2.118854 g / cm^3
# Si number density = 21.236873 Si / 1000 Ang^3
#
#
#
# Elastic Constant Matrix: (Units=GPa)
#
#
# Indices 1 2 3 4 5 6 
#
# 1 73.0174 30.0850 40.8608 0.0000 0.0000 0.0000
# 2 30.0850 73.0175 40.8612 0.0000 0.0000 0.0000
# 3 40.8608 40.8612 132.0451 0.0000 0.0000 0.0000
# 4 0.0000 0.0000 0.0000 23.7448 0.0000 0.0000
# 5 0.0000 0.0000 0.0000 0.0000 23.7446 0.0000
# 6 0.0000 0.0000 0.0000 0.0000 0.0000 16.9408
#
#
#
# Elastic Compliance Matrix: (Units=1/GPa)
#
#
# Indices 1 2 3 4 5 6 
#
# 1 0.018072 -0.005221 -0.003977 0.000000 0.000000 0.000000
# 2 -0.005221 0.018072 -0.003977 0.000000 0.000000 0.000000
# 3 -0.003977 -0.003977 0.010034 0.000000 0.000000 0.000000
# 4 0.000000 0.000000 0.000000 0.042114 0.000000 0.000000
# 5 0.000000 0.000000 0.000000 0.000000 0.042115 0.000000
# 6 0.000000 0.000000 0.000000 0.000000 0.000000 0.059029
#
#
# Mechanical properties :
#
#
# Convention : Reuss Voigt Hill
#
# Bulk Modulus (GPa) = 50.42942 55.74377 53.08659
# Shear Modulus (GPa) = 22.48257 23.97091 23.22674
#
# Velocity S-wave (km/s) = 3.25723 3.36332 3.31070
# Velocity P-wave (km/s) = 6.15985 6.43336 6.29809
#
# Compressibility (1/GPa) = 0.01982969
#
# Stress axis : x y z
#
# Youngs Moduli (GPa) = 55.33489 55.33478 99.65740
#
# Poissons Ratio (x) = 0.28888 0.39631
# Poissons Ratio (y) = 0.28888 0.39632
# Poissons Ratio (z) = 0.22005 0.22006
#
# Static dielectric constant tensor:
#      x y z
#    x 1.785760 0.000000 0.000000 
#    y 0.000000 1.785760 0.000000 
#    z 0.000000 0.000000 2.026290 
# 
# From -- ./inp_files/2476.got.cif
#   From: 2010.05.17/outbox.cif.g08.bks.cpg/sg95_2_cif.got.tgz:2476.got - 2010.06.03 19:46:49.
