data_PCOD9550842
_publ_section_title
;
Structure prediction by ZEFSAII (Michael W. Deem and Ramdas Pophale) SiO2 
 PCOD9550842
Probable space group: P 43 21 2
;
_chemical_formula_sum "Si O2"
_cell_formula_units_Z 56
_cell_length_a 10.935564
_cell_length_b 10.935564
_cell_length_c 21.341774
_cell_angle_alpha 90.000000
_cell_angle_beta 90.000000
_cell_angle_gamma 90.000000
_cell_volume 2552.189337
_symmetry_space_group_name_H-M "P 43 21 2"
_symmetry_group_IT_number 96
_symmetry_cell_setting 'tetragonal'
loop_
_space_group_symop_operation_xyz
x,y,z
1/2-y,1/2+x,3/4+z
-x,-y,1/2+z
1/2+y,1/2-x,1/4+z
1/2+x,1/2-y,1/4-z
1/2-x,1/2+y,3/4-z
y,x,-z
-y,-x,1/2-z
loop_
_atom_site_type_symbol
_atom_site_label
_atom_site_fract_x
_atom_site_fract_y
_atom_site_fract_z
Si Si1 0.321545 0.829498 0.956338
Si Si2 0.750447 0.182051 0.314048
Si Si3 0.252483 0.947561 0.505637
Si Si4 0.803614 0.974092 0.138260
Si Si5 0.345831 0.949128 0.377158
Si Si6 0.023589 0.460446 0.967146
Si Si7 0.168236 0.004441 0.283488
O O1 0.301170 0.793630 0.883756
O O2 0.193508 0.792933 0.989681
O O3 0.372440 0.963514 0.979294
O O4 0.429449 0.746824 0.981513
O O5 0.738089 0.261912 0.250000
O O6 0.894957 0.172487 0.328119
O O7 0.664376 0.069106 0.296032
O O8 0.257223 0.987495 0.433708
O O9 0.395354 0.973341 0.520637
O O10 0.181642 0.010277 0.563298
O O11 0.664793 0.928268 0.148901
O O12 0.893529 0.878291 0.168933
O O13 0.435506 0.049105 0.344758
O O14 0.254845 0.911659 0.321023
O O15 0.057205 0.942796 0.250000
#
# Coordination Sequence:
#
# PCOD9550842 Si02
#       7
#     8   8   8   8   8   8   8
#     4  10  23  41  64  95 136 174 229 286 334 425
#     4  11  23  40  67  99 131 180 224 280 353 418
#     4  10  20  39  67  94 134 178 220 282 341 405
#     4  10  22  41  64  98 130 174 221 277 344 401
#     4  10  21  42  67  94 132 178 223 279 342 412
#     4  10  22  40  66 102 133 182 226 280 353 416
#     4  11  24  43  67  96 132 178 228 285 343 411
#
# _framework density 21.941946000000002
#
# number of rings (size 3 to 8) (size 9 to 14) (size 15 to 20)
#    0.000    1.714    1.429    2.143    2.000    4.000 
#   10.286    0.000    0.000    0.000    0.000    0.000 
#    0.000    0.000    0.000    0.000    0.000    0.000 
#
# Total GULP energy -311767.506934 kJ/mol
# GULP energy per Si atom -5567.276910 kJ/mol
# Density = 2.189201 g / cm^3
# Si number density = 21.941946 Si / 1000 Ang^3
#
#
#
# Elastic Constant Matrix: (Units=GPa)
#
#
# Indices 1 2 3 4 5 6 
#
# 1 48.1863 21.9426 31.6257 0.0000 0.0000 0.0000
# 2 21.9426 48.1852 31.6272 0.0000 0.0000 0.0000
# 3 31.6257 31.6272 137.4966 0.0000 0.0000 0.0000
# 4 0.0000 0.0000 0.0000 24.3821 0.0000 0.0000
# 5 0.0000 0.0000 0.0000 0.0000 24.3812 0.0000
# 6 0.0000 0.0000 0.0000 0.0000 0.0000 20.2359
#
#
#
# Elastic Compliance Matrix: (Units=1/GPa)
#
#
# Indices 1 2 3 4 5 6 
#
# 1 0.028048 -0.010056 -0.004138 0.000000 0.000000 0.000000
# 2 -0.010056 0.028049 -0.004139 0.000000 0.000000 0.000000
# 3 -0.004138 -0.004139 0.009177 0.000000 0.000000 0.000000
# 4 0.000000 0.000000 0.000000 0.041014 0.000000 0.000000
# 5 0.000000 0.000000 0.000000 0.000000 0.041015 0.000000
# 6 0.000000 0.000000 0.000000 0.000000 0.000000 0.049417
#
#
# Mechanical properties :
#
#
# Convention : Reuss Voigt Hill
#
# Bulk Modulus (GPa) = 34.95607 44.91769 39.93688
# Shear Modulus (GPa) = 20.58265 23.71135 22.14700
#
# Velocity S-wave (km/s) = 3.06608 3.29088 3.18047
# Velocity P-wave (km/s) = 5.33856 5.91231 5.63275
#
# Compressibility (1/GPa) = 0.02860734
#
# Stress axis : x y z
#
# Youngs Moduli (GPa) = 35.65297 35.65138 108.97075
#
# Poissons Ratio (x) = 0.35853 0.45094
# Poissons Ratio (y) = 0.35854 0.45102
# Poissons Ratio (z) = 0.14754 0.14756
#
# Static dielectric constant tensor:
#      x y z
#    x 1.815420 0.000000 0.000000 
#    y 0.000000 1.815430 0.000000 
#    z 0.000000 0.000000 1.933990 
# 
# From -- ./inp_files/3537.got.cif
#   From: 2010.05.17/outbox.cif.g08.bks.cpg/sg96_2_cif.got.tgz:3537.got - 2010.06.03 19:52:08.
