data_PCOD9550352
_publ_section_title
;
Structure prediction by ZEFSAII (Michael W. Deem and Ramdas Pophale) SiO2 
 PCOD9550352
Probable space group: P 42 21 2
;
_chemical_formula_sum "Si O2"
_cell_formula_units_Z 40
_cell_length_a 10.889207
_cell_length_b 10.889207
_cell_length_c 14.505454
_cell_angle_alpha 90.000000
_cell_angle_beta 90.000000
_cell_angle_gamma 90.000000
_cell_volume 1719.981729
_symmetry_space_group_name_H-M "P 42 21 2"
_symmetry_group_IT_number 94
_symmetry_cell_setting 'tetragonal'
loop_
_space_group_symop_operation_xyz
x,y,z
1/2-y,1/2+x,1/2+z
-x,-y,z
1/2+y,1/2-x,1/2+z
1/2+x,1/2-y,1/2-z
1/2-x,1/2+y,1/2-z
y,x,-z
-y,-x,-z
loop_
_atom_site_type_symbol
_atom_site_label
_atom_site_fract_x
_atom_site_fract_y
_atom_site_fract_z
Si Si1 0.288860 0.374123 0.909248
Si Si2 0.601524 0.898332 0.315735
Si Si3 0.774697 0.460674 0.374913
Si Si4 0.386464 0.413510 0.720089
Si Si5 0.113689 0.318003 0.480378
O O1 0.170785 0.286935 0.921885
O O2 0.355420 0.341762 0.814586
O O3 0.243285 0.515263 0.911195
O O4 0.368679 0.368679 0.000000
O O5 0.692004 0.921385 0.229978
O O6 0.555064 0.754530 0.312430
O O7 0.656002 0.929882 0.415659
O O8 0.500000 0.000000 0.297648
O O9 0.656495 0.546212 0.362970
O O10 0.860348 0.552501 0.431644
O O11 0.500000 0.500000 0.749710
O O12 0.229842 0.229842 0.500000
#
# Coordination Sequence:
#
# PCOD9550352 Si02
#       5
#     8   8   8   8   8
#     4  11  26  43  71 107 144 194 249 316 387 471
#     4  11  24  45  73 103 144 200 249 309 390 461
#     4  11  24  47  68 105 145 191 252 301 382 472
#     4  11  26  43  70 107 148 195 252 331 390 466
#     4  12  25  45  74 105 146 194 254 313 382 472
#
# _framework density 23.256060999999999
#
# number of rings (size 3 to 8) (size 9 to 14) (size 15 to 20)
#    0.000    0.800    2.000    5.400    5.600    6.400 
#    0.000    1.000    0.000    0.000    0.000    0.000 
#    0.000    0.000    0.000    0.000    0.000    0.000 
#
# Total GULP energy -222790.526439 kJ/mol
# GULP energy per Si atom -5569.763161 kJ/mol
# Density = 2.320313 g / cm^3
# Si number density = 23.256061 Si / 1000 Ang^3
#
#
#
# Elastic Constant Matrix: (Units=GPa)
#
#
# Indices 1 2 3 4 5 6 
#
# 1 3499.6958-3373.7473 -1.9275 0.0000 0.0000 0.0000
# 2 -3373.7473 3499.6958 -1.9275 0.0000 0.0000 0.0000
# 3 -1.9275 -1.9275 51.9781 0.0000 0.0000 0.0000
# 4 0.0000 0.0000 0.0000 29.8569 0.0000 0.0000
# 5 0.0000 0.0000 0.0000 0.0000 29.8569 0.0000
# 6 0.0000 0.0000 0.0000 0.0000 0.0000 28.1548
#
#
#
# Elastic Compliance Matrix: (Units=1/GPa)
#
#
# Indices 1 2 3 4 5 6 
#
# 1 0.004047 0.003902 0.000295 0.000000 0.000000 0.000000
# 2 0.003902 0.004047 0.000295 0.000000 0.000000 0.000000
# 3 0.000295 0.000295 0.019261 0.000000 0.000000 0.000000
# 4 0.000000 0.000000 0.000000 0.033493 0.000000 0.000000
# 5 0.000000 0.000000 0.000000 0.000000 0.033493 0.000000
# 6 0.000000 0.000000 0.000000 0.000000 0.000000 0.035518
#
#
# Mechanical properties :
#
#
# Convention : Reuss Voigt Hill
#
# Bulk Modulus (GPa) = 27.51990 32.90723 30.21357
# Shear Modulus (GPa) = 37.59704 712.83853 375.21779
#
# Velocity S-wave (km/s) = 4.02513 17.52663 12.71582
# Velocity P-wave (km/s) = 5.78458 20.58537 15.11984
#
# Compressibility (1/GPa) = 0.03633734
#
# Stress axis : x y z
#
# Youngs Moduli (GPa) = 247.08861 247.08861 51.91914
#
# Poissons Ratio (x) = -0.96405 -0.01530
# Poissons Ratio (y) = -0.96405 -0.01530
# Poissons Ratio (z) = -0.07283 -0.07283
#
# Static dielectric constant tensor:
#      x y z
#    x 1.976600 0.000000 0.000000 
#    y 0.000000 1.976600 0.000000 
#    z 0.000000 0.000000 1.767230 
# 
# From -- ./inp_files/3389.got.cif
#   From: 2010.05.17/outbox.cif.g08.bks.cpg/sg94_2_cif.got.tgz:3389.got - 2010.06.03 19:43:16.
