data_PCOD9550182
_publ_section_title
;
Structure prediction by ZEFSAII (Michael W. Deem and Ramdas Pophale) SiO2 
 PCOD9550182
Probable space group: P 42 21 2
;
_chemical_formula_sum "Si O2"
_cell_formula_units_Z 36
_cell_length_a 11.331939
_cell_length_b 11.331939
_cell_length_c 13.829950
_cell_angle_alpha 90.000000
_cell_angle_beta 90.000000
_cell_angle_gamma 90.000000
_cell_volume 1775.943177
_symmetry_space_group_name_H-M "P 42 21 2"
_symmetry_group_IT_number 94
_symmetry_cell_setting 'tetragonal'
loop_
_space_group_symop_operation_xyz
x,y,z
1/2-y,1/2+x,1/2+z
-x,-y,z
1/2+y,1/2-x,1/2+z
1/2+x,1/2-y,1/2-z
1/2-x,1/2+y,1/2-z
y,x,-z
-y,-x,-z
loop_
_atom_site_type_symbol
_atom_site_label
_atom_site_fract_x
_atom_site_fract_y
_atom_site_fract_z
Si Si1 0.000000 0.500000 0.801697
Si Si2 0.791218 0.336662 0.364945
Si Si3 0.184892 0.300185 0.308431
Si Si4 0.464802 0.374876 0.601140
Si Si5 0.141765 0.141765 0.500000
Si Si6 0.369904 0.369904 0.000000
O O1 0.077287 0.402697 0.855333
O O2 0.110964 0.583788 0.764162
O O3 0.727469 0.299117 0.265912
O O4 0.697775 0.417277 0.419693
O O5 0.835120 0.218608 0.414969
O O6 0.296651 0.382898 0.331347
O O7 0.155551 0.234099 0.410699
O O8 0.500000 0.500000 0.645925
O O9 0.401106 0.401106 0.500000
O O10 0.004836 0.151093 0.531871
#
# Coordination Sequence:
#
# PCOD9550182 Si02
#       6
#     4   8   8   8   4   4
#     4  10  24  48  64 102 140 168 230 292 330 422
#     4  11  25  44  70  99 137 174 235 275 348 405
#     4  11  24  45  69 100 135 181 225 285 341 413
#     4  10  22  41  66  97 133 172 221 277 332 405
#     4  11  24  44  69  96 138 174 227 278 350 403
#     4  11  24  44  67  98 132 178 221 284 332 415
#
# _framework density 20.270918000000002
#
# number of rings (size 3 to 8) (size 9 to 14) (size 15 to 20)
#    0.000    1.333    3.333    1.333    9.333    0.000 
#    0.000    2.222    0.000    0.000    0.000    0.000 
#    0.000    0.000    0.000    0.000    0.000    0.000 
#
# Total GULP energy -200434.654815 kJ/mol
# GULP energy per Si atom -5567.629300 kJ/mol
# Density = 2.022478 g / cm^3
# Si number density = 20.270918 Si / 1000 Ang^3
#
#
#
# Elastic Constant Matrix: (Units=GPa)
#
#
# Indices 1 2 3 4 5 6 
#
# 1 121.6682 48.6361 18.9970 0.0000 0.0000 0.0000
# 2 48.6361 121.6682 18.9970 0.0000 0.0000 0.0000
# 3 18.9970 18.9970 46.2819 0.0000 0.0000 0.0000
# 4 0.0000 0.0000 0.0000 -117.0154 0.0000 0.0000
# 5 0.0000 0.0000 0.0000 0.0000 -117.0154 0.0000
# 6 0.0000 0.0000 0.0000 0.0000 0.0000 50.7409
#
#
#
# Elastic Compliance Matrix: (Units=1/GPa)
#
#
# Indices 1 2 3 4 5 6 
#
# 1 0.010078 -0.003614 -0.002653 0.000000 0.000000 0.000000
# 2 -0.003614 0.010078 -0.002653 0.000000 0.000000 0.000000
# 3 -0.002653 -0.002653 0.023785 0.000000 0.000000 0.000000
# 4 0.000000 0.000000 0.000000 -0.008546 0.000000 0.000000
# 5 0.000000 0.000000 0.000000 0.000000 -0.008546 0.000000
# 6 0.000000 0.000000 0.000000 0.000000 0.000000 0.019708
#
#
# Mechanical properties :
#
#
# Convention : Reuss Voigt Hill
#
# Bulk Modulus (GPa) = 38.31457 51.43094 44.87276
# Shear Modulus (GPa) = 68.40080 -23.12543 22.63769
#
# Velocity S-wave (km/s) = 5.81520 -3.38126 3.34542
# Velocity P-wave (km/s) = 8.00194 3.19107 6.09155
#
# Compressibility (1/GPa) = 0.02609973
#
# Stress axis : x y z
#
# Youngs Moduli (GPa) = 99.22439 99.22439 42.04374
#
# Poissons Ratio (x) = 0.35864 0.11155
# Poissons Ratio (y) = 0.35864 0.11155
# Poissons Ratio (z) = 0.26325 0.26325
#
# Static dielectric constant tensor:
#      x y z
#    x 1.746420 0.000000 0.000000 
#    y 0.000000 1.746420 0.000000 
#    z 0.000000 0.000000 1.918630 
# 
# From -- ./inp_files/3345.got.cif
#   From: 2010.05.17/outbox.cif.g08.bks.cpg/sg94_2_cif.got.tgz:3345.got - 2010.06.03 19:43:16.
