data_PCOD9550681
_publ_section_title
;
Structure prediction by ZEFSAII (Michael W. Deem and Ramdas Pophale) SiO2 
 PCOD9550681
Probable space group: P 43 2 2
;
_chemical_formula_sum "Si O2"
_cell_formula_units_Z 40
_cell_length_a 7.854775
_cell_length_b 7.854775
_cell_length_c 24.897840
_cell_angle_alpha 90.000000
_cell_angle_beta 90.000000
_cell_angle_gamma 90.000000
_cell_volume 1536.134242
_symmetry_space_group_name_H-M "P 43 2 2"
_symmetry_group_IT_number 95
_symmetry_cell_setting 'tetragonal'
loop_
_space_group_symop_operation_xyz
x,y,z
-y,x,3/4+z
-x,-y,1/2+z
y,-x,1/4+z
x,-y,1/2-z
-x,y,-z
y,x,1/4-z
-y,-x,3/4-z
loop_
_atom_site_type_symbol
_atom_site_label
_atom_site_fract_x
_atom_site_fract_y
_atom_site_fract_z
Si Si1 0.472059 0.595073 0.436399
Si Si2 0.154847 0.775768 0.714355
Si Si3 0.886513 0.770781 0.549860
Si Si4 0.203065 0.334515 0.895020
Si Si5 0.857873 0.715955 0.071456
O O1 0.500000 0.539835 0.500000
O O2 0.489992 0.510009 0.375000
O O3 0.276654 0.657379 0.436449
O O4 0.627462 0.730695 0.425628
O O5 0.212132 0.646612 0.668963
O O6 0.217442 0.740224 0.773576
O O7 0.955275 0.814606 0.714962
O O8 0.245816 0.949542 0.695037
O O9 0.967989 0.775220 0.404603
O O10 0.000000 0.706557 0.500000
O O11 0.169361 0.517871 0.920231
O O12 0.813986 0.813986 0.125000
#
# Coordination Sequence:
#
# PCOD9550681 Si02
#       5
#     8   8   8   8   8
#     4  12  29  49  83 123 164 215 280 347 426 508
#     4  11  27  49  79 112 160 208 269 341 411 503
#     4  12  25  53  79 120 156 212 278 337 423 507
#     4  12  28  48  82 112 162 212 265 341 412 495
#     4  11  26  49  72 115 156 204 263 329 412 488
#
# _framework density 26.039391999999999
#
# number of rings (size 3 to 8) (size 9 to 14) (size 15 to 20)
#    0.000    0.400    4.000    3.600   11.200    0.800 
#    0.000    0.000    0.000    0.000    0.000    0.000 
#    0.000    0.000    0.000    0.000    0.000    0.000 
#
# Total GULP energy -223630.025602 kJ/mol
# GULP energy per Si atom -5590.750640 kJ/mol
# Density = 2.598013 g / cm^3
# Si number density = 26.039392 Si / 1000 Ang^3
#
#
#
# Elastic Constant Matrix: (Units=GPa)
#
#
# Indices 1 2 3 4 5 6 
#
# 1 104.4964 7.8338 44.9093 0.0000 0.0000 0.0000
# 2 7.8338 104.4968 44.9094 0.0000 0.0000 0.0000
# 3 44.9093 44.9094 247.9223 0.0000 0.0000 0.0000
# 4 0.0000 0.0000 0.0000 37.2285 0.0000 0.0000
# 5 0.0000 0.0000 0.0000 0.0000 37.2284 0.0000
# 6 0.0000 0.0000 0.0000 0.0000 0.0000 17.1532
#
#
#
# Elastic Compliance Matrix: (Units=1/GPa)
#
#
# Indices 1 2 3 4 5 6 
#
# 1 0.010378 0.000032 -0.001886 0.000000 0.000000 0.000000
# 2 0.000032 0.010378 -0.001886 0.000000 0.000000 0.000000
# 3 -0.001886 -0.001886 0.004717 0.000000 0.000000 0.000000
# 4 0.000000 0.000000 0.000000 0.026861 0.000000 0.000000
# 5 0.000000 0.000000 0.000000 0.000000 0.026861 0.000000
# 6 0.000000 0.000000 0.000000 0.000000 0.000000 0.058298
#
#
# Mechanical properties :
#
#
# Convention : Reuss Voigt Hill
#
# Bulk Modulus (GPa) = 55.57391 72.46894 64.02143
# Shear Modulus (GPa) = 33.11950 42.27289 37.69620
#
# Velocity S-wave (km/s) = 3.57024 4.03354 3.80894
# Velocity P-wave (km/s) = 6.19549 7.04156 6.63203
#
# Compressibility (1/GPa) = 0.01799405
#
# Stress axis : x y z
#
# Youngs Moduli (GPa) = 96.36048 96.36087 212.01306
#
# Poissons Ratio (x) = -0.00313 0.39980
# Poissons Ratio (y) = -0.00313 0.39980
# Poissons Ratio (z) = 0.18171 0.18171
#
# Static dielectric constant tensor:
#      x y z
#    x 2.075930 0.000000 0.000000 
#    y 0.000000 2.075930 0.000000 
#    z 0.000000 0.000000 2.189770 
# 
# From -- ./inp_files/6850.got.cif
#   From: 2010.05.17/outbox.cif.g08.bks.cpg/sg95_4_cif.got.tgz:6850.got - 2010.06.03 19:46:49.
