data_PCOD9550806
_publ_section_title
;
Structure prediction by ZEFSAII (Michael W. Deem and Ramdas Pophale) SiO2 
 PCOD9550806
Probable space group: P 43 21 2
;
_chemical_formula_sum "Si O2"
_cell_formula_units_Z 48
_cell_length_a 8.568468
_cell_length_b 8.568468
_cell_length_c 27.890341
_cell_angle_alpha 90.000000
_cell_angle_beta 90.000000
_cell_angle_gamma 90.000000
_cell_volume 2047.671013
_symmetry_space_group_name_H-M "P 43 21 2"
_symmetry_group_IT_number 96
_symmetry_cell_setting 'tetragonal'
loop_
_space_group_symop_operation_xyz
x,y,z
1/2-y,1/2+x,3/4+z
-x,-y,1/2+z
1/2+y,1/2-x,1/4+z
1/2+x,1/2-y,1/4-z
1/2-x,1/2+y,3/4-z
y,x,-z
-y,-x,1/2-z
loop_
_atom_site_type_symbol
_atom_site_label
_atom_site_fract_x
_atom_site_fract_y
_atom_site_fract_z
Si Si1 0.367982 0.512336 0.454895
Si Si2 0.709616 0.716841 0.751029
Si Si3 0.362524 0.112258 0.998591
Si Si4 0.535079 0.138937 0.798133
Si Si5 0.410618 0.046941 0.890271
Si Si6 0.809290 0.895930 0.652124
O O1 0.478986 0.478986 0.500000
O O2 0.308890 0.691305 0.458252
O O3 0.207759 0.416292 0.462906
O O4 0.462588 0.429271 0.412096
O O5 0.528509 0.745284 0.759983
O O6 0.756437 0.812402 0.702246
O O7 0.734644 0.537130 0.737321
O O8 0.432078 0.080249 0.946147
O O9 0.499702 0.087843 0.036005
O O10 0.273543 0.273543 0.000000
O O11 0.514517 0.153889 0.855024
O O12 0.441080 0.861827 0.881780
O O13 0.232962 0.100394 0.879081
#
# Coordination Sequence:
#
# PCOD9550806 Si02
#       6
#     8   8   8   8   8   8
#     4   9  18  35  56  80 109 148 189 231 289 348
#     4   8  18  34  53  77 107 143 184 227 278 338
#     4  10  20  35  56  81 109 143 186 234 283 340
#     4  10  20  36  58  82 111 147 189 235 285 346
#     4  10  20  36  55  82 111 144 189 236 286 345
#     4   9  18  34  54  76 111 147 183 233 283 337
#
# _framework density 23.441268000000001
#
# number of rings (size 3 to 8) (size 9 to 14) (size 15 to 20)
#    0.000    2.667    0.000    2.000    0.000    5.333 
#    0.000   10.000    0.000    0.000    0.000    0.000 
#    0.000    0.000    0.000    0.000    0.000    0.000 
#
# Total GULP energy -267738.824944 kJ/mol
# GULP energy per Si atom -5577.892186 kJ/mol
# Density = 2.338791 g / cm^3
# Si number density = 23.441268 Si / 1000 Ang^3
#
#
#
# Elastic Constant Matrix: (Units=GPa)
#
#
# Indices 1 2 3 4 5 6 
#
# 1 52.3507 57.9954 6.9963 0.0000 0.0000 0.0000
# 2 57.9954 52.3507 6.9963 0.0000 0.0000 0.0000
# 3 6.9963 6.9963 45.9268 0.0000 0.0000 0.0000
# 4 0.0000 0.0000 0.0000 19.4047 0.0000 0.0000
# 5 0.0000 0.0000 0.0000 0.0000 19.4047 0.0000
# 6 0.0000 0.0000 0.0000 0.0000 0.0000 39.9659
#
#
#
# Elastic Compliance Matrix: (Units=1/GPa)
#
#
# Indices 1 2 3 4 5 6 
#
# 1 -0.083958 0.093199 -0.001408 0.000000 0.000000 0.000000
# 2 0.093199 -0.083958 -0.001408 0.000000 0.000000 0.000000
# 3 -0.001408 -0.001408 0.022203 0.000000 0.000000 0.000000
# 4 0.000000 0.000000 0.000000 0.051534 0.000000 0.000000
# 5 0.000000 0.000000 0.000000 0.000000 0.051534 0.000000
# 6 0.000000 0.000000 0.000000 0.000000 0.000000 0.025021
#
#
# Mechanical properties :
#
#
# Convention : Reuss Voigt Hill
#
# Bulk Modulus (GPa) = 28.52772 32.73379 30.63076
# Shear Modulus (GPa) = -26.78000 20.99775 -2.89113
#
# Velocity S-wave (km/s) = -3.38365 2.99617 -1.11177
# Velocity P-wave (km/s) = 1.75191 5.09548 3.38339
#
# Compressibility (1/GPa) = 0.03505362
#
# Stress axis : x y z
#
# Youngs Moduli (GPa) = -11.91072 -11.91072 45.03960
#
# Poissons Ratio (x) = 1.11007 0.06340
# Poissons Ratio (y) = 1.11007 0.06340
# Poissons Ratio (z) = -0.01677 -0.01677
#
# Static dielectric constant tensor:
#      x y z
#    x 1.921480 0.000000 0.000000 
#    y 0.000000 1.921480 0.000000 
#    z 0.000000 0.000000 1.929890 
# 
# From -- ./inp_files/4462.got.cif
#   From: 2010.05.17/outbox.cif.g08.bks.cpg/sg96_3_cif.got.tgz:4462.got - 2010.06.03 19:52:08.
