data_PCOD9550132
_publ_section_title
;
Structure prediction by ZEFSAII (Michael W. Deem and Ramdas Pophale) SiO2 
 PCOD9550132
Probable space group: P 42 21 2
;
_chemical_formula_sum "Si O2"
_cell_formula_units_Z 56
_cell_length_a 14.837561
_cell_length_b 14.837561
_cell_length_c 12.459739
_cell_angle_alpha 90.000000
_cell_angle_beta 90.000000
_cell_angle_gamma 90.000000
_cell_volume 2743.051617
_symmetry_space_group_name_H-M "P 42 21 2"
_symmetry_group_IT_number 94
_symmetry_cell_setting 'tetragonal'
loop_
_space_group_symop_operation_xyz
x,y,z
1/2-y,1/2+x,1/2+z
-x,-y,z
1/2+y,1/2-x,1/2+z
1/2+x,1/2-y,1/2-z
1/2-x,1/2+y,1/2-z
y,x,-z
-y,-x,-z
loop_
_atom_site_type_symbol
_atom_site_label
_atom_site_fract_x
_atom_site_fract_y
_atom_site_fract_z
Si Si1 0.001074 0.849304 0.000350
Si Si2 0.716005 0.083994 0.493391
Si Si3 0.278243 0.907061 0.152616
Si Si4 0.250471 0.621330 0.934844
Si Si5 0.432596 0.920051 0.319657
Si Si6 0.727233 0.478412 0.733940
Si Si7 0.176818 0.841499 0.669141
O O1 0.015406 0.781227 0.901530
O O2 0.921982 0.921982 0.000000
O O3 0.981551 0.799490 0.111048
O O4 0.094081 0.905920 0.000000
O O5 0.625829 0.102662 0.425969
O O6 0.732606 0.149108 0.596229
O O7 0.799024 0.105279 0.412895
O O8 0.726173 0.979608 0.525935
O O9 0.322463 0.842203 0.063711
O O10 0.357731 0.943123 0.229192
O O11 0.218985 0.838732 0.226236
O O12 0.282318 0.608240 0.810674
O O13 0.327054 0.672947 0.000000
O O14 0.487843 0.835467 0.272640
O O15 0.500000 0.000000 0.342243
O O16 0.669225 0.556583 0.790164
#
# Coordination Sequence:
#
# PCOD9550132 Si02
#       7
#     8   8   8   8   8   8   8
#     4  11  23  41  65  96 131 177 220 279 343 400
#     4   9  20  39  61  93 125 169 217 272 339 394
#     4  10  21  41  65  92 131 174 221 268 342 404
#     4  10  22  39  63  94 123 170 227 272 332 403
#     4  10  23  42  64  98 130 172 223 277 336 402
#     4  10  22  42  59  93 129 163 223 273 329 401
#     4   9  18  39  64  84 127 171 212 269 339 393
#
# _framework density 20.415219
#
# number of rings (size 3 to 8) (size 9 to 14) (size 15 to 20)
#    0.000    2.143    1.429    0.429    2.000    2.286 
#   15.429    5.000    0.000    0.000    0.000    0.000 
#    0.000    0.000    0.000    0.000    0.000    0.000 
#
# Total GULP energy -311743.566884 kJ/mol
# GULP energy per Si atom -5566.849409 kJ/mol
# Density = 2.036875 g / cm^3
# Si number density = 20.415219 Si / 1000 Ang^3
#
#
#
# Elastic Constant Matrix: (Units=GPa)
#
#
# Indices 1 2 3 4 5 6 
#
# 1 61.3045 32.9612 30.0008 0.0000 0.0000 0.0000
# 2 32.9612 61.3068 30.0027 0.0000 0.0000 0.0000
# 3 30.0008 30.0027 83.9667 0.0000 0.0000 0.0000
# 4 0.0000 0.0000 0.0000 559.1755 0.0000 0.0000
# 5 0.0000 0.0000 0.0000 0.0000 558.6149 0.0000
# 6 0.0000 0.0000 0.0000 0.0000 0.0000 30.6292
#
#
#
# Elastic Compliance Matrix: (Units=1/GPa)
#
#
# Indices 1 2 3 4 5 6 
#
# 1 0.024506 -0.010775 -0.004906 0.000000 0.000000 0.000000
# 2 -0.010775 0.024505 -0.004907 0.000000 0.000000 0.000000
# 3 -0.004906 -0.004907 0.015415 0.000000 0.000000 0.000000
# 4 0.000000 0.000000 0.000000 0.001788 0.000000 0.000000
# 5 0.000000 0.000000 0.000000 0.000000 0.001790 0.000000
# 6 0.000000 0.000000 0.000000 0.000000 0.000000 0.032649
#
#
# Mechanical properties :
#
#
# Convention : Reuss Voigt Hill
#
# Bulk Modulus (GPa) = 43.00534 43.61195 43.30864
# Shear Modulus (GPa) = 33.42721 237.25814 135.34268
#
# Velocity S-wave (km/s) = 4.05083 10.79206 8.15101
# Velocity P-wave (km/s) = 6.55668 13.29287 10.48070
#
# Compressibility (1/GPa) = 0.02325293
#
# Stress axis : x y z
#
# Youngs Moduli (GPa) = 40.80649 40.80728 64.86978
#
# Poissons Ratio (x) = 0.43968 0.31824
# Poissons Ratio (y) = 0.43967 0.31828
# Poissons Ratio (z) = 0.20019 0.20022
#
# Static dielectric constant tensor:
#      x y z
#    x 0.646860 0.000000 0.000000 
#    y 0.000000 0.647810 0.000000 
#    z 0.000000 0.000000 1.799630 
# 
# From -- ./inp_files/2738.got.cif
#   From: 2010.05.17/outbox.cif.g08.bks.cpg/sg94_2_cif.got.tgz:2738.got - 2010.06.03 19:43:16.
