data_PCOD9550560
_publ_section_title
;
Structure prediction by ZEFSAII (Michael W. Deem and Ramdas Pophale) SiO2 
 PCOD9550560
Probable space group: P 43 2 2
;
_chemical_formula_sum "Si O2"
_cell_formula_units_Z 32
_cell_length_a 14.061705
_cell_length_b 14.061705
_cell_length_c 8.236375
_cell_angle_alpha 90.000000
_cell_angle_beta 90.000000
_cell_angle_gamma 90.000000
_cell_volume 1628.591175
_symmetry_space_group_name_H-M "P 43 2 2"
_symmetry_group_IT_number 95
_symmetry_cell_setting 'tetragonal'
loop_
_space_group_symop_operation_xyz
x,y,z
-y,x,3/4+z
-x,-y,1/2+z
y,-x,1/4+z
x,-y,1/2-z
-x,y,-z
y,x,1/4-z
-y,-x,3/4-z
loop_
_atom_site_type_symbol
_atom_site_label
_atom_site_fract_x
_atom_site_fract_y
_atom_site_fract_z
Si Si1 0.245244 0.396286 0.176114
Si Si2 0.446553 0.911516 0.158989
Si Si3 0.938271 0.745821 0.243634
Si Si4 0.764369 0.136454 0.132397
O O1 0.265273 0.500000 0.250000
O O2 0.340203 0.340203 0.125000
O O3 0.191524 0.321845 0.295874
O O4 0.172784 0.418352 0.028836
O O5 0.497906 0.000000 0.250000
O O6 0.500000 0.874449 0.000000
O O7 0.352232 0.957139 0.083112
O O8 0.859228 0.801887 0.344909
O O9 0.040840 0.791416 0.214181
O O10 0.893893 0.732295 0.063807
#
# Coordination Sequence:
#
# PCOD9550560 Si02
#       4
#     8   8   8   8
#     4  12  25  45  68  94 128 171 221 277 340 399
#     4  12  24  38  65 101 129 167 218 276 338 393
#     4  10  21  38  67  95 135 179 219 270 321 391
#     4  10  21  40  67  96 138 178 223 269 324 391
#
# _framework density 19.648883999999999
#
# number of rings (size 3 to 8) (size 9 to 14) (size 15 to 20)
#    0.000    1.000    5.000    2.250    3.500    0.000 
#    0.000    1.250   44.000    0.000    0.000    0.000 
#    0.000    0.000    0.000    0.000    0.000    0.000 
#
# Total GULP energy -178730.649988 kJ/mol
# GULP energy per Si atom -5585.332812 kJ/mol
# Density = 1.960416 g / cm^3
# Si number density = 19.648884 Si / 1000 Ang^3
#
#
#
# Elastic Constant Matrix: (Units=GPa)
#
#
# Indices 1 2 3 4 5 6 
#
# 1 105.8298 67.4312 55.9279 0.0000 0.0000 0.0000
# 2 67.4312 105.8298 55.9279 0.0000 0.0000 0.0000
# 3 55.9279 55.9279 79.8160 0.0000 0.0000 0.0000
# 4 0.0000 0.0000 0.0000 34.8642 0.0000 0.0000
# 5 0.0000 0.0000 0.0000 0.0000 34.8642 0.0000
# 6 0.0000 0.0000 0.0000 0.0000 0.0000 20.4558
#
#
#
# Elastic Compliance Matrix: (Units=1/GPa)
#
#
# Indices 1 2 3 4 5 6 
#
# 1 0.018291 -0.007752 -0.007385 0.000000 0.000000 0.000000
# 2 -0.007752 0.018291 -0.007385 0.000000 0.000000 0.000000
# 3 -0.007385 -0.007385 0.022878 0.000000 0.000000 0.000000
# 4 0.000000 0.000000 0.000000 0.028683 0.000000 0.000000
# 5 0.000000 0.000000 0.000000 0.000000 0.028683 0.000000
# 6 0.000000 0.000000 0.000000 0.000000 0.000000 0.048886
#
#
# Mechanical properties :
#
#
# Convention : Reuss Voigt Hill
#
# Bulk Modulus (GPa) = 69.36294 72.22775 70.79535
# Shear Modulus (GPa) = 23.19531 25.51607 24.35569
#
# Velocity S-wave (km/s) = 3.43955 3.60752 3.52454
# Velocity P-wave (km/s) = 7.15205 7.36147 7.25752
#
# Compressibility (1/GPa) = 0.01441692
#
# Stress axis : x y z
#
# Youngs Moduli (GPa) = 54.67176 54.67176 43.70940
#
# Poissons Ratio (x) = 0.42379 0.32280
# Poissons Ratio (y) = 0.42379 0.32280
# Poissons Ratio (z) = 0.40375 0.40375
#
# Static dielectric constant tensor:
#      x y z
#    x 1.673850 0.000000 0.000000 
#    y 0.000000 1.673850 0.000000 
#    z 0.000000 0.000000 1.743640 
# 
# From -- ./inp_files/2090.got.cif
#   From: 2010.05.17/outbox.cif.g08.bks.cpg/sg95_2_cif.got.tgz:2090.got - 2010.06.03 19:46:49.
