data_PCOD9550354
_publ_section_title
;
Structure prediction by ZEFSAII (Michael W. Deem and Ramdas Pophale) SiO2 
 PCOD9550354
Probable space group: P 42 21 2
;
_chemical_formula_sum "Si O2"
_cell_formula_units_Z 24
_cell_length_a 7.333460
_cell_length_b 7.333460
_cell_length_c 17.500737
_cell_angle_alpha 90.000000
_cell_angle_beta 90.000000
_cell_angle_gamma 90.000000
_cell_volume 941.183258
_symmetry_space_group_name_H-M "P 42 21 2"
_symmetry_group_IT_number 94
_symmetry_cell_setting 'tetragonal'
loop_
_space_group_symop_operation_xyz
x,y,z
1/2-y,1/2+x,1/2+z
-x,-y,z
1/2+y,1/2-x,1/2+z
1/2+x,1/2-y,1/2-z
1/2-x,1/2+y,1/2-z
y,x,-z
-y,-x,-z
loop_
_atom_site_type_symbol
_atom_site_label
_atom_site_fract_x
_atom_site_fract_y
_atom_site_fract_z
Si Si1 0.167424 0.751567 0.845214
Si Si2 0.255209 0.351100 0.827642
Si Si3 0.431049 0.814344 0.445837
O O1 0.273436 0.560247 0.852526
O O2 0.210822 0.836967 0.762414
O O3 0.953569 0.707007 0.842718
O O4 0.212697 0.895927 0.910290
O O5 0.368718 0.202898 0.875370
O O6 0.311649 0.688352 0.500000
O O7 0.500000 0.000000 0.484515
#
# Coordination Sequence:
#
# PCOD9550354 Si02
#       3
#     8   8   8
#     4  11  24  45  81 113 156 204 269 331 397 476
#     4  11  24  45  78 119 150 208 269 330 394 482
#     4  12  29  52  76 114 165 212 268 338 417 491
#
# _framework density 25.499815000000002
#
# number of rings (size 3 to 8) (size 9 to 14) (size 15 to 20)
#    0.000    0.667    3.333    3.000    4.667    6.667 
#    0.000    1.667    0.000    0.000    0.000    0.000 
#    0.000    0.000    0.000    0.000    0.000    0.000 
#
# Total GULP energy -134854.744447 kJ/mol
# GULP energy per Si atom -5618.947685 kJ/mol
# Density = 2.544178 g / cm^3
# Si number density = 25.499815 Si / 1000 Ang^3
#
#
#
# Elastic Constant Matrix: (Units=GPa)
#
#
# Indices 1 2 3 4 5 6 
#
# 1 160.1909 58.0175 50.1293 0.0000 0.0000 0.0000
# 2 58.0175 160.1902 50.1288 0.0000 0.0000 0.0000
# 3 50.1293 50.1288 132.3502 0.0000 0.0000 0.0000
# 4 0.0000 0.0000 0.0000 32.6555 0.0000 0.0000
# 5 0.0000 0.0000 0.0000 0.0000 32.6563 0.0000
# 6 0.0000 0.0000 0.0000 0.0000 0.0000 46.9352
#
#
#
# Elastic Compliance Matrix: (Units=1/GPa)
#
#
# Indices 1 2 3 4 5 6 
#
# 1 0.007668 -0.002119 -0.002102 0.000000 0.000000 0.000000
# 2 -0.002119 0.007668 -0.002101 0.000000 0.000000 0.000000
# 3 -0.002102 -0.002101 0.009148 0.000000 0.000000 0.000000
# 4 0.000000 0.000000 0.000000 0.030623 0.000000 0.000000
# 5 0.000000 0.000000 0.000000 0.000000 0.030622 0.000000
# 6 0.000000 0.000000 0.000000 0.000000 0.000000 0.021306
#
#
# Mechanical properties :
#
#
# Convention : Reuss Voigt Hill
#
# Bulk Modulus (GPa) = 84.47131 85.47585 84.97358
# Shear Modulus (GPa) = 40.44490 42.07978 41.26234
#
# Velocity S-wave (km/s) = 3.98689 4.06667 4.02698
# Velocity P-wave (km/s) = 7.37509 7.45945 7.41739
#
# Compressibility (1/GPa) = 0.01183834
#
# Stress axis : x y z
#
# Youngs Moduli (GPa) = 130.41515 130.41486 109.31786
#
# Poissons Ratio (x) = 0.27641 0.22973
# Poissons Ratio (y) = 0.27641 0.22973
# Poissons Ratio (z) = 0.27407 0.27406
#
# Static dielectric constant tensor:
#      x y z
#    x 2.006230 0.000000 0.000000 
#    y 0.000000 2.006230 0.000000 
#    z 0.000000 0.000000 1.998450 
# 
# From -- ./inp_files/3711.got.cif
#   From: 2010.05.17/outbox.cif.g08.bks.cpg/sg94_2_cif.got.tgz:3711.got - 2010.06.03 19:43:16.
