data_PCOD9550632
_publ_section_title
;
Structure prediction by ZEFSAII (Michael W. Deem and Ramdas Pophale) SiO2 
 PCOD9550632
Probable space group: P 43 2 2
;
_chemical_formula_sum "Si O2"
_cell_formula_units_Z 28
_cell_length_a 6.863101
_cell_length_b 6.863101
_cell_length_c 20.780682
_cell_angle_alpha 90.000000
_cell_angle_beta 90.000000
_cell_angle_gamma 90.000000
_cell_volume 978.814912
_symmetry_space_group_name_H-M "P 43 2 2"
_symmetry_group_IT_number 95
_symmetry_cell_setting 'tetragonal'
loop_
_space_group_symop_operation_xyz
x,y,z
-y,x,3/4+z
-x,-y,1/2+z
y,-x,1/4+z
x,-y,1/2-z
-x,y,-z
y,x,1/4-z
-y,-x,3/4-z
loop_
_atom_site_type_symbol
_atom_site_label
_atom_site_fract_x
_atom_site_fract_y
_atom_site_fract_z
Si Si1 0.384943 0.115915 0.183089
Si Si2 0.500000 0.244082 0.000000
Si Si3 0.269970 0.200965 0.420870
Si Si4 0.704028 0.894742 0.065794
O O1 0.338577 0.340703 0.202652
O O2 0.271392 0.982064 0.129789
O O3 0.607485 0.140748 0.161336
O O4 0.370092 0.000000 0.250000
O O5 0.366807 0.108004 0.956076
O O6 0.846395 0.153606 0.375000
O O7 0.216133 0.159771 0.495135
O O8 0.505910 0.231320 0.422431
#
# Coordination Sequence:
#
# PCOD9550632 Si02
#       4
#     8   4   8   8
#     4  12  27  53  97 143 191 267 336 419 514 613
#     4  10  26  52 100 140 194 270 330 422 518 624
#     4  10  25  48  90 131 188 250 322 401 503 600
#     4  10  23  51  86 131 187 246 319 407 499 596
#
# _framework density 28.606021999999999
#
# number of rings (size 3 to 8) (size 9 to 14) (size 15 to 20)
#    0.000    1.714    0.000    3.429    8.000    4.571 
#    0.000   11.429   44.000    0.000    0.000    0.000 
#    0.000    0.000    0.000    0.000    0.000    0.000 
#
# Total GULP energy -156207.902148 kJ/mol
# GULP energy per Si atom -5578.853648 kJ/mol
# Density = 2.854091 g / cm^3
# Si number density = 28.606022 Si / 1000 Ang^3
#
#
#
# Elastic Constant Matrix: (Units=GPa)
#
#
# Indices 1 2 3 4 5 6 
#
# 1 161.8016 89.2840 64.7924 0.0000 0.0000 0.0000
# 2 89.2840 161.8016 64.7927 0.0000 0.0000 0.0000
# 3 64.7924 64.7927 270.5854 0.0000 0.0000 0.0000
# 4 0.0000 0.0000 0.0000 49.1230 0.0000 0.0000
# 5 0.0000 0.0000 0.0000 0.0000 49.1222 0.0000
# 6 0.0000 0.0000 0.0000 0.0000 0.0000 71.0171
#
#
#
# Elastic Compliance Matrix: (Units=1/GPa)
#
#
# Indices 1 2 3 4 5 6 
#
# 1 0.009167 -0.004623 -0.001088 0.000000 0.000000 0.000000
# 2 -0.004623 0.009167 -0.001088 0.000000 0.000000 0.000000
# 3 -0.001088 -0.001088 0.004217 0.000000 0.000000 0.000000
# 4 0.000000 0.000000 0.000000 0.020357 0.000000 0.000000
# 5 0.000000 0.000000 0.000000 0.000000 0.020357 0.000000
# 6 0.000000 0.000000 0.000000 0.000000 0.000000 0.014081
#
#
# Mechanical properties :
#
#
# Convention : Reuss Voigt Hill
#
# Bulk Modulus (GPa) = 111.69666 114.65854 113.17760
# Shear Modulus (GPa) = 53.23183 58.87374 56.05278
#
# Velocity S-wave (km/s) = 4.31845 4.54154 4.43140
# Velocity P-wave (km/s) = 7.99979 8.22616 8.11377
#
# Compressibility (1/GPa) = 0.00895282
#
# Stress axis : x y z
#
# Youngs Moduli (GPa) = 109.08673 109.08660 237.14594
#
# Poissons Ratio (x) = 0.50428 0.25805
# Poissons Ratio (y) = 0.50428 0.25805
# Poissons Ratio (z) = 0.11870 0.11870
#
# Static dielectric constant tensor:
#      x y z
#    x 2.558960 0.000000 0.000000 
#    y 0.000000 2.558970 0.000000 
#    z 0.000000 0.000000 2.419290 
# 
# From -- ./inp_files/5328.got.cif
#   From: 2010.05.17/outbox.cif.g08.bks.cpg/sg95_3_cif.got.tgz:5328.got - 2010.06.03 19:46:49.
