data_PCOD9550648
_publ_section_title
;
Structure prediction by ZEFSAII (Michael W. Deem and Ramdas Pophale) SiO2 
 PCOD9550648
Probable space group: P 43 2 2
;
_chemical_formula_sum "Si O2"
_cell_formula_units_Z 64
_cell_length_a 11.568841
_cell_length_b 11.568841
_cell_length_c 23.183906
_cell_angle_alpha 90.000000
_cell_angle_beta 90.000000
_cell_angle_gamma 90.000000
_cell_volume 3102.889514
_symmetry_space_group_name_H-M "P 43 2 2"
_symmetry_group_IT_number 95
_symmetry_cell_setting 'tetragonal'
loop_
_space_group_symop_operation_xyz
x,y,z
-y,x,3/4+z
-x,-y,1/2+z
y,-x,1/4+z
x,-y,1/2-z
-x,y,-z
y,x,1/4-z
-y,-x,3/4-z
loop_
_atom_site_type_symbol
_atom_site_label
_atom_site_fract_x
_atom_site_fract_y
_atom_site_fract_z
Si Si1 0.704987 0.115060 0.288500
Si Si2 0.940798 0.726752 0.863766
Si Si3 0.464356 0.815867 0.251516
Si Si4 0.037089 0.860982 0.758646
Si Si5 0.982185 0.625926 0.415240
Si Si6 0.485052 0.886969 0.433235
Si Si7 0.376954 0.418420 0.191692
Si Si8 0.040041 0.143399 0.863247
O O1 0.598486 0.191564 0.266909
O O2 0.831516 0.165091 0.277771
O O3 0.694290 0.000000 0.250000
O O4 0.698030 0.059986 0.352700
O O5 0.876061 0.610945 0.846871
O O6 0.871361 0.823429 0.899438
O O7 0.961503 0.803348 0.807351
O O8 0.435179 0.921061 0.295254
O O9 0.417493 0.704166 0.283271
O O10 0.402746 0.858194 0.192558
O O11 0.994742 0.812430 0.697965
O O12 0.030093 0.000000 0.750000
O O13 0.012105 0.576872 0.352586
O O14 0.990767 0.764080 0.411562
O O15 0.500000 0.918461 0.500000
O O16 0.424764 0.761559 0.431096
O O17 0.398383 0.500000 0.250000
O O18 0.430546 0.430546 0.125000
O O19 0.978598 0.021403 0.875000
#
# Coordination Sequence:
#
# PCOD9550648 Si02
#       8
#     8   8   8   8   8   8   8   8
#     4  11  19  39  71  94 126 180 232 283 328 409
#     4  12  22  42  66  98 139 179 234 274 348 437
#     4  11  23  45  68  98 133 180 251 295 345 426
#     4  11  22  38  63 103 142 179 221 272 351 421
#     4  11  24  40  67 101 132 186 232 293 347 429
#     4  11  24  43  69  98 137 186 235 296 356 425
#     4  11  26  47  76 103 142 188 244 307 374 435
#     4  12  25  37  59  98 149 183 217 279 359 430
#
# _framework density 20.625934999999998
#
# number of rings (size 3 to 8) (size 9 to 14) (size 15 to 20)
#    0.000    0.750    7.500    1.125    5.250    2.000 
#    0.000    1.250    0.000    0.000    0.000    0.000 
#    0.000    0.000    0.000    0.000    0.000    0.000 
#
# Total GULP energy -356608.724776 kJ/mol
# GULP energy per Si atom -5572.011325 kJ/mol
# Density = 2.057899 g / cm^3
# Si number density = 20.625935 Si / 1000 Ang^3
#
#
#
# Elastic Constant Matrix: (Units=GPa)
#
#
# Indices 1 2 3 4 5 6 
#
# 1 56.8044 8.0735 14.8643 0.0000 0.0000 0.0000
# 2 8.0735 56.8056 14.8644 0.0000 0.0000 0.0000
# 3 14.8643 14.8644 117.9329 0.0000 0.0000 0.0000
# 4 0.0000 0.0000 0.0000 32.3477 0.0000 0.0000
# 5 0.0000 0.0000 0.0000 0.0000 32.3476 0.0000
# 6 0.0000 0.0000 0.0000 0.0000 0.0000 17.2914
#
#
#
# Elastic Compliance Matrix: (Units=1/GPa)
#
#
# Indices 1 2 3 4 5 6 
#
# 1 0.018440 -0.002081 -0.002062 0.000000 0.000000 0.000000
# 2 -0.002081 0.018439 -0.002062 0.000000 0.000000 0.000000
# 3 -0.002062 -0.002062 0.008999 0.000000 0.000000 0.000000
# 4 0.000000 0.000000 0.000000 0.030914 0.000000 0.000000
# 5 0.000000 0.000000 0.000000 0.000000 0.030914 0.000000
# 6 0.000000 0.000000 0.000000 0.000000 0.000000 0.057832
#
#
# Mechanical properties :
#
#
# Convention : Reuss Voigt Hill
#
# Bulk Modulus (GPa) = 29.87901 34.12747 32.00324
# Shear Modulus (GPa) = 26.44045 29.31339 27.87692
#
# Velocity S-wave (km/s) = 3.58425 3.77396 3.68033
# Velocity P-wave (km/s) = 5.62554 5.96424 5.79737
#
# Compressibility (1/GPa) = 0.03346832
#
# Stress axis : x y z
#
# Youngs Moduli (GPa) = 54.23111 54.23228 111.12174
#
# Poissons Ratio (x) = 0.11287 0.22911
# Poissons Ratio (y) = 0.11287 0.22911
# Poissons Ratio (z) = 0.11181 0.11182
#
# Static dielectric constant tensor:
#      x y z
#    x 1.772340 0.000000 0.000000 
#    y 0.000000 1.772340 0.000000 
#    z 0.000000 0.000000 1.882700 
# 
# From -- ./inp_files/7072.got.cif
#   From: 2010.05.17/outbox.cif.g08.bks.cpg/sg95_4_cif.got.tgz:7072.got - 2010.06.03 19:46:49.
