data_PCOD9550942
_publ_section_title
;
Structure prediction by ZEFSAII (Michael W. Deem and Ramdas Pophale) SiO2 
 PCOD9550942
Probable space group: P 43 21 2
;
_chemical_formula_sum "Si O2"
_cell_formula_units_Z 48
_cell_length_a 12.803872
_cell_length_b 12.803872
_cell_length_c 16.034588
_cell_angle_alpha 90.000000
_cell_angle_beta 90.000000
_cell_angle_gamma 90.000000
_cell_volume 2628.696538
_symmetry_space_group_name_H-M "P 43 21 2"
_symmetry_group_IT_number 96
_symmetry_cell_setting 'tetragonal'
loop_
_space_group_symop_operation_xyz
x,y,z
1/2-y,1/2+x,3/4+z
-x,-y,1/2+z
1/2+y,1/2-x,1/4+z
1/2+x,1/2-y,1/4-z
1/2-x,1/2+y,3/4-z
y,x,-z
-y,-x,1/2-z
loop_
_atom_site_type_symbol
_atom_site_label
_atom_site_fract_x
_atom_site_fract_y
_atom_site_fract_z
Si Si1 0.141865 0.953075 0.167185
Si Si2 0.040861 0.360902 0.777003
Si Si3 0.032786 0.871046 0.668010
Si Si4 0.352079 0.285446 0.245226
Si Si5 0.470981 0.939342 0.366506
Si Si6 0.607355 0.181361 0.018235
O O1 0.114628 0.885373 0.250000
O O2 0.164431 0.889330 0.082532
O O3 0.246904 0.019350 0.185929
O O4 0.044031 0.030657 0.153935
O O5 0.162519 0.379998 0.757910
O O6 0.002827 0.453983 0.836735
O O7 0.971575 0.377518 0.694558
O O8 0.960542 0.771999 0.690297
O O9 0.097188 0.842985 0.584857
O O10 0.102207 0.897794 0.750000
O O11 0.227669 0.289730 0.237963
O O12 0.437417 0.848035 0.428025
O O13 0.573735 0.903833 0.318270
#
# Coordination Sequence:
#
# PCOD9550942 Si02
#       6
#     8   8   8   8   8   8
#     4  11  24  43  65  89 131 172 214 265 318 384
#     4  11  20  38  62  91 123 164 211 261 313 385
#     4  11  24  42  64  97 132 166 216 270 321 384
#     4  12  23  41  64  94 126 170 217 257 329 380
#     4  10  22  38  62  91 126 160 211 264 316 380
#     4  11  22  40  62  90 126 166 208 266 321 376
#
# _framework density 18.259999000000001
#
# number of rings (size 3 to 8) (size 9 to 14) (size 15 to 20)
#    0.000    1.000    5.000    2.500    0.000    0.000 
#    3.000    0.000    0.000    0.000    0.000    0.000 
#    0.000    0.000    0.000    0.000    0.000    0.000 
#
# Total GULP energy -268022.831340 kJ/mol
# GULP energy per Si atom -5583.808986 kJ/mol
# Density = 1.821844 g / cm^3
# Si number density = 18.259999 Si / 1000 Ang^3
#
#
#
# Elastic Constant Matrix: (Units=GPa)
#
#
# Indices 1 2 3 4 5 6 
#
# 1 67.2595 23.9322 38.5549 0.0000 0.0000 0.0000
# 2 23.9322 67.2608 38.5543 0.0000 0.0000 0.0000
# 3 38.5549 38.5543 118.0632 0.0000 0.0000 0.0000
# 4 0.0000 0.0000 0.0000 7.3705 0.0000 0.0000
# 5 0.0000 0.0000 0.0000 0.0000 7.3683 0.0000
# 6 0.0000 0.0000 0.0000 0.0000 0.0000 27.6045
#
#
#
# Elastic Compliance Matrix: (Units=1/GPa)
#
#
# Indices 1 2 3 4 5 6 
#
# 1 0.019115 -0.003965 -0.004947 0.000000 0.000000 0.000000
# 2 -0.003965 0.019114 -0.004947 0.000000 0.000000 0.000000
# 3 -0.004947 -0.004947 0.011701 0.000000 0.000000 0.000000
# 4 0.000000 0.000000 0.000000 0.135676 0.000000 0.000000
# 5 0.000000 0.000000 0.000000 0.000000 0.135716 0.000000
# 6 0.000000 0.000000 0.000000 0.000000 0.000000 0.036226
#
#
# Mechanical properties :
#
#
# Convention : Reuss Voigt Hill
#
# Bulk Modulus (GPa) = 45.02329 50.51848 47.77089
# Shear Modulus (GPa) = 12.73334 18.57147 15.65240
#
# Velocity S-wave (km/s) = 2.64357 3.19259 2.93097
# Velocity P-wave (km/s) = 5.83338 6.42779 6.13778
#
# Compressibility (1/GPa) = 0.02221073
#
# Stress axis : x y z
#
# Youngs Moduli (GPa) = 52.31599 52.31759 85.46278
#
# Poissons Ratio (x) = 0.20747 0.42280
# Poissons Ratio (y) = 0.20746 0.42277
# Poissons Ratio (z) = 0.25881 0.25881
#
# Static dielectric constant tensor:
#      x y z
#    x 1.599890 0.000000 0.000000 
#    y 0.000000 1.599890 0.000000 
#    z 0.000000 0.000000 1.638890 
# 
# From -- ./inp_files/3094.got.cif
#   From: 2010.05.17/outbox.cif.g08.bks.cpg/sg96_2_cif.got.tgz:3094.got - 2010.06.03 19:52:08.
