data_PCOD9550171
_publ_section_title
;
Structure prediction by ZEFSAII (Michael W. Deem and Ramdas Pophale) SiO2 
 PCOD9550171
Probable space group: P 42 21 2
;
_chemical_formula_sum "Si O2"
_cell_formula_units_Z 60
_cell_length_a 11.227887
_cell_length_b 11.227887
_cell_length_c 21.123688
_cell_angle_alpha 90.000000
_cell_angle_beta 90.000000
_cell_angle_gamma 90.000000
_cell_volume 2662.967159
_symmetry_space_group_name_H-M "P 42 21 2"
_symmetry_group_IT_number 94
_symmetry_cell_setting 'tetragonal'
loop_
_space_group_symop_operation_xyz
x,y,z
1/2-y,1/2+x,1/2+z
-x,-y,z
1/2+y,1/2-x,1/2+z
1/2+x,1/2-y,1/2-z
1/2-x,1/2+y,1/2-z
y,x,-z
-y,-x,-z
loop_
_atom_site_type_symbol
_atom_site_label
_atom_site_fract_x
_atom_site_fract_y
_atom_site_fract_z
Si Si1 0.373722 0.933416 0.579037
Si Si2 0.206728 0.793272 0.500000
Si Si3 0.756577 0.816813 0.572180
Si Si4 0.597573 0.096155 0.718044
Si Si5 0.414593 0.387086 0.424079
Si Si6 0.489048 0.306526 0.305932
Si Si7 0.498846 0.660441 0.752637
Si Si8 0.865222 0.014995 0.395624
O O1 0.333624 0.831482 0.529592
O O2 0.358790 0.871913 0.647745
O O3 0.500000 0.000000 0.566461
O O4 0.284340 0.046670 0.578606
O O5 0.111158 0.809823 0.557203
O O6 0.788712 0.788712 0.500000
O O7 0.652929 0.723449 0.590545
O O8 0.884485 0.803753 0.605995
O O9 0.692817 0.040130 0.764756
O O10 0.530979 0.203099 0.751151
O O11 0.500000 0.000000 0.702228
O O12 0.500000 0.500000 0.406198
O O13 0.402914 0.402914 0.500000
O O14 0.487952 0.288670 0.381844
O O15 0.595925 0.378811 0.272438
O O16 0.380448 0.399240 0.295084
O O17 0.547460 0.626784 0.821756
O O18 0.000000 0.000000 0.419413
#
# Coordination Sequence:
#
# PCOD9550171 Si02
#       8
#     8   4   8   8   8   8   8   8
#     4  11  25  43  67 106 149 191 237 290 382 446
#     4  12  23  44  74 106 145 186 234 314 363 444
#     4  11  21  39  68 102 136 179 235 299 357 435
#     4  11  27  45  71 106 146 192 232 304 374 434
#     4  10  22  39  66  98 136 189 246 294 356 443
#     4  11  22  44  69 102 132 183 243 292 354 432
#     4  11  24  41  69 100 139 181 239 294 348 436
#     4  12  19  38  71 112 132 172 241 302 372 420
#
# _framework density 22.531257
#
# number of rings (size 3 to 8) (size 9 to 14) (size 15 to 20)
#    0.000    0.933    5.333    2.600    5.600    0.000 
#    0.000    6.000    0.000    0.000    0.000    0.000 
#    0.000    0.000    0.000    0.000    0.000    0.000 
#
# Total GULP energy -334263.008429 kJ/mol
# GULP energy per Si atom -5571.050140 kJ/mol
# Density = 2.247998 g / cm^3
# Si number density = 22.531257 Si / 1000 Ang^3
#
#
#
# Elastic Constant Matrix: (Units=GPa)
#
#
# Indices 1 2 3 4 5 6 
#
# 1 32.0847 16.2493 13.7351 0.0000 0.0000 0.0000
# 2 16.2493 32.0843 13.7352 0.0000 0.0000 0.0000
# 3 13.7351 13.7352 79.1479 0.0000 0.0000 0.0000
# 4 0.0000 0.0000 0.0000 28.6959 0.0000 0.0000
# 5 0.0000 0.0000 0.0000 0.0000 28.6980 0.0000
# 6 0.0000 0.0000 0.0000 0.0000 0.0000 15.2586
#
#
#
# Elastic Compliance Matrix: (Units=1/GPa)
#
#
# Indices 1 2 3 4 5 6 
#
# 1 0.043052 -0.020099 -0.003983 0.000000 0.000000 0.000000
# 2 -0.020099 0.043052 -0.003983 0.000000 0.000000 0.000000
# 3 -0.003983 -0.003983 0.014017 0.000000 0.000000 0.000000
# 4 0.000000 0.000000 0.000000 0.034848 0.000000 0.000000
# 5 0.000000 0.000000 0.000000 0.000000 0.034846 0.000000
# 6 0.000000 0.000000 0.000000 0.000000 0.000000 0.065537
#
#
# Mechanical properties :
#
#
# Convention : Reuss Voigt Hill
#
# Bulk Modulus (GPa) = 22.73212 25.63959 24.18585
# Shear Modulus (GPa) = 16.33212 21.17032 18.75122
#
# Velocity S-wave (km/s) = 2.69525 3.06861 2.88797
# Velocity P-wave (km/s) = 4.44937 4.89484 4.67741
#
# Compressibility (1/GPa) = 0.04399062
#
# Stress axis : x y z
#
# Youngs Moduli (GPa) = 23.22796 23.22764 71.34154
#
# Poissons Ratio (x) = 0.46684 0.28417
# Poissons Ratio (y) = 0.46685 0.28418
# Poissons Ratio (z) = 0.09252 0.09252
#
# Static dielectric constant tensor:
#      x y z
#    x 1.787280 0.000000 0.000000 
#    y 0.000000 1.787280 0.000000 
#    z 0.000000 0.000000 1.948030 
# 
# From -- ./inp_files/4788.got.cif
#   From: 2010.05.17/outbox.cif.g08.bks.cpg/sg94_3_cif.got.tgz:4788.got - 2010.06.03 19:43:16.
