data_PCOD9550473
_publ_section_title
;
Structure prediction by ZEFSAII (Michael W. Deem and Ramdas Pophale) SiO2 
 PCOD9550473
Probable space group: P 43 2 2
;
_chemical_formula_sum "Si O2"
_cell_formula_units_Z 40
_cell_length_a 13.620665
_cell_length_b 13.620665
_cell_length_c 13.509713
_cell_angle_alpha 90.000000
_cell_angle_beta 90.000000
_cell_angle_gamma 90.000000
_cell_volume 2506.355933
_symmetry_space_group_name_H-M "P 43 2 2"
_symmetry_group_IT_number 95
_symmetry_cell_setting 'tetragonal'
loop_
_space_group_symop_operation_xyz
x,y,z
-y,x,3/4+z
-x,-y,1/2+z
y,-x,1/4+z
x,-y,1/2-z
-x,y,-z
y,x,1/4-z
-y,-x,3/4-z
loop_
_atom_site_type_symbol
_atom_site_label
_atom_site_fract_x
_atom_site_fract_y
_atom_site_fract_z
Si Si1 0.803556 0.111990 0.565623
Si Si2 0.112228 0.181852 0.231577
Si Si3 0.112912 0.395444 0.718107
Si Si4 0.118184 0.683743 0.992631
Si Si5 0.877300 0.400419 0.698480
O O1 0.840857 0.120685 0.678219
O O2 0.686790 0.124838 0.552105
O O3 0.851792 0.203771 0.509643
O O4 0.826752 0.006351 0.517796
O O5 0.147130 0.147130 0.125000
O O6 0.141324 0.296249 0.247585
O O7 0.154184 0.500000 0.750000
O O8 0.151644 0.355052 0.613615
O O9 0.995998 0.408312 0.700130
O O10 0.154806 0.618094 0.085087
O O11 0.000000 0.680972 0.000000
O O12 0.839386 0.500000 0.750000
#
# Coordination Sequence:
#
# PCOD9550473 Si02
#       5
#     8   8   8   8   8
#     4  10  20  32  45  65  95 127 158 188 226 279
#     4  10  20  32  46  68  97 127 160 195 226 268
#     4   9  17  29  45  65  86 114 153 197 237 266
#     4   9  17  29  45  65  90 121 154 187 223 276
#     4   8  16  30  46  63  86 119 155 191 234 273
#
# _framework density 15.959424
#
# number of rings (size 3 to 8) (size 9 to 14) (size 15 to 20)
#    0.000    2.800    0.000    2.400    0.000    3.200 
#    0.000    8.000    0.000    0.000    0.000    0.000 
#    0.000   44.800    0.000    0.000    0.000    0.000 
#
# Total GULP energy -222690.879092 kJ/mol
# GULP energy per Si atom -5567.271977 kJ/mol
# Density = 1.592310 g / cm^3
# Si number density = 15.959424 Si / 1000 Ang^3
#
#
#
# Elastic Constant Matrix: (Units=GPa)
#
#
# Indices 1 2 3 4 5 6 
#
# 1 71.3230 16.9361 49.9307 0.0000 0.0000 0.0000
# 2 16.9361 71.3230 49.9307 0.0000 0.0000 0.0000
# 3 49.9307 49.9307 118.2331 0.0000 0.0000 0.0000
# 4 0.0000 0.0000 0.0000 18.4035 0.0000 0.0000
# 5 0.0000 0.0000 0.0000 0.0000 18.4035 0.0000
# 6 0.0000 0.0000 0.0000 0.0000 0.0000 -2.3374
#
#
#
# Elastic Compliance Matrix: (Units=1/GPa)
#
#
# Indices 1 2 3 4 5 6 
#
# 1 0.020042 0.001656 -0.009163 0.000000 0.000000 0.000000
# 2 0.001656 0.020042 -0.009163 0.000000 0.000000 0.000000
# 3 -0.009163 -0.009163 0.016197 0.000000 0.000000 0.000000
# 4 0.000000 0.000000 0.000000 0.054338 0.000000 0.000000
# 5 0.000000 0.000000 0.000000 0.000000 0.054338 0.000000
# 6 0.000000 0.000000 0.000000 0.000000 0.000000 -0.427822
#
#
# Mechanical properties :
#
#
# Convention : Reuss Voigt Hill
#
# Bulk Modulus (GPa) = 43.59113 54.94156 49.26635
# Shear Modulus (GPa) = -22.53505 16.49935 -3.01785
#
# Velocity S-wave (km/s) = -3.76176 3.21881 -1.37661
# Velocity P-wave (km/s) = 2.91637 6.95089 5.33011
#
# Compressibility (1/GPa) = 0.02294045
#
# Stress axis : x y z
#
# Youngs Moduli (GPa) = 49.89410 49.89410 61.73876
#
# Poissons Ratio (x) = -0.08261 0.56573
# Poissons Ratio (y) = -0.08261 0.56573
# Poissons Ratio (z) = 0.45719 0.45719
#
# Static dielectric constant tensor:
#      x y z
#    x 1.536450 0.000000 0.000000 
#    y 0.000000 1.536450 0.000000 
#    z 0.000000 0.000000 1.559910 
# 
# From -- ./inp_files/3655.got.cif
#   From: 2010.05.17/outbox.cif.g08.bks.cpg/sg95_2_cif.got.tgz:3655.got - 2010.06.03 19:46:49.
