data_PCOD9550038
_publ_section_title
;
Structure prediction by ZEFSAII (Michael W. Deem and Ramdas Pophale) SiO2 
 PCOD9550038
Probable space group: P 42 21 2
;
_chemical_formula_sum "Si O2"
_cell_formula_units_Z 40
_cell_length_a 14.052462
_cell_length_b 14.052462
_cell_length_c 10.061274
_cell_angle_alpha 90.000000
_cell_angle_beta 90.000000
_cell_angle_gamma 90.000000
_cell_volume 1986.816763
_symmetry_space_group_name_H-M "P 42 21 2"
_symmetry_group_IT_number 94
_symmetry_cell_setting 'tetragonal'
loop_
_space_group_symop_operation_xyz
x,y,z
1/2-y,1/2+x,1/2+z
-x,-y,z
1/2+y,1/2-x,1/2+z
1/2+x,1/2-y,1/2-z
1/2-x,1/2+y,1/2-z
y,x,-z
-y,-x,-z
loop_
_atom_site_type_symbol
_atom_site_label
_atom_site_fract_x
_atom_site_fract_y
_atom_site_fract_z
Si Si1 0.308740 0.595894 0.804140
Si Si2 0.366435 0.958980 0.993511
Si Si3 0.996524 0.850801 0.046465
Si Si4 0.742184 0.941589 0.403837
Si Si5 0.123051 0.402045 0.213453
O O1 0.344542 0.514900 0.704995
O O2 0.382967 0.681565 0.819272
O O3 0.209326 0.635666 0.745466
O O4 0.285227 0.553767 0.948464
O O5 0.385306 0.858097 0.921088
O O6 0.254170 0.980689 0.004553
O O7 0.406933 0.042915 0.901095
O O8 0.403614 0.948883 0.144346
O O9 0.896446 0.896446 0.000000
O O10 0.078006 0.921995 0.000000
O O11 0.714066 0.042183 0.341642
#
# Coordination Sequence:
#
# PCOD9550038 Si02
#       5
#     8   8   8   8   8
#     4   9  21  39  58  95 121 163 220 250 327 385
#     4  10  22  36  61  93 124 164 212 260 326 387
#     4  10  21  38  63  88 118 164 212 264 319 393
#     4  10  20  37  64  85 132 168 200 277 312 383
#     4  10  21  37  61  91 129 162 211 261 323 380
#
# _framework density 20.132707
#
# number of rings (size 3 to 8) (size 9 to 14) (size 15 to 20)
#    0.000    2.200    0.000    1.800    5.600    8.000 
#    0.000    0.000    4.400   19.200    0.000    0.000 
#    0.000    0.000    0.000    0.000    0.000    0.000 
#
# Total GULP energy -223305.111845 kJ/mol
# GULP energy per Si atom -5582.627796 kJ/mol
# Density = 2.008688 g / cm^3
# Si number density = 20.132707 Si / 1000 Ang^3
#
#
#
# Elastic Constant Matrix: (Units=GPa)
#
#
# Indices 1 2 3 4 5 6 
#
# 1 88.3674 49.8719 58.0683 0.0000 0.0000 0.0000
# 2 49.8719 88.3669 58.0678 0.0000 0.0000 0.0000
# 3 58.0683 58.0678 115.6519 0.0000 0.0000 0.0000
# 4 0.0000 0.0000 0.0000 23.7114 0.0000 0.0000
# 5 0.0000 0.0000 0.0000 0.0000 23.7084 0.0000
# 6 0.0000 0.0000 0.0000 0.0000 0.0000 32.3127
#
#
#
# Elastic Compliance Matrix: (Units=1/GPa)
#
#
# Indices 1 2 3 4 5 6 
#
# 1 0.019244 -0.006733 -0.006282 0.000000 0.000000 0.000000
# 2 -0.006733 0.019244 -0.006282 0.000000 0.000000 0.000000
# 3 -0.006282 -0.006282 0.014955 0.000000 0.000000 0.000000
# 4 0.000000 0.000000 0.000000 0.042174 0.000000 0.000000
# 5 0.000000 0.000000 0.000000 0.000000 0.042179 0.000000
# 6 0.000000 0.000000 0.000000 0.000000 0.000000 0.030948
#
#
# Mechanical properties :
#
#
# Convention : Reuss Voigt Hill
#
# Bulk Modulus (GPa) = 67.34005 69.37803 68.35904
# Shear Modulus (GPa) = 23.55301 24.37171 23.96236
#
# Velocity S-wave (km/s) = 3.42407 3.48308 3.45370
# Velocity P-wave (km/s) = 7.01093 7.12116 7.06626
#
# Compressibility (1/GPa) = 0.01485000
#
# Stress axis : x y z
#
# Youngs Moduli (GPa) = 51.96355 51.96358 66.86834
#
# Poissons Ratio (x) = 0.34987 0.42006
# Poissons Ratio (y) = 0.34987 0.42005
# Poissons Ratio (z) = 0.32643 0.32642
#
# Static dielectric constant tensor:
#      x y z
#    x 1.704270 0.000000 0.000000 
#    y 0.000000 1.704270 0.000000 
#    z 0.000000 0.000000 1.737520 
# 
# From -- ./inp_files/1400.got.cif
#   From: 2010.05.17/outbox.cif.g08.bks.cpg/sg94_1_cif.got.tgz:1400.got - 2010.06.03 19:43:16.
