data_PCOD9550686
_publ_section_title
;
Structure prediction by ZEFSAII (Michael W. Deem and Ramdas Pophale) SiO2 
 PCOD9550686
Probable space group: P 43 2 2
;
_chemical_formula_sum "Si O2"
_cell_formula_units_Z 36
_cell_length_a 12.882078
_cell_length_b 12.882078
_cell_length_c 9.962282
_cell_angle_alpha 90.000000
_cell_angle_beta 90.000000
_cell_angle_gamma 90.000000
_cell_volume 1653.220112
_symmetry_space_group_name_H-M "P 43 2 2"
_symmetry_group_IT_number 95
_symmetry_cell_setting 'tetragonal'
loop_
_space_group_symop_operation_xyz
x,y,z
-y,x,3/4+z
-x,-y,1/2+z
y,-x,1/4+z
x,-y,1/2-z
-x,y,-z
y,x,1/4-z
-y,-x,3/4-z
loop_
_atom_site_type_symbol
_atom_site_label
_atom_site_fract_x
_atom_site_fract_y
_atom_site_fract_z
Si Si1 0.205402 0.850953 0.612384
Si Si2 0.000000 0.459491 0.000000
Si Si3 0.386286 0.185443 0.697993
Si Si4 0.000000 0.073253 0.500000
Si Si5 0.048097 0.291041 0.796043
Si Si6 0.421851 0.578150 0.875000
O O1 0.309171 0.804444 0.674505
O O2 0.147757 0.903775 0.738985
O O3 0.118088 0.764388 0.586865
O O4 0.227407 0.949358 0.515559
O O5 0.102512 0.528476 0.991145
O O6 0.999667 0.390563 0.866720
O O7 0.328463 0.128267 0.571334
O O8 0.429839 0.298607 0.661308
O O9 0.999318 0.000683 0.375000
O O10 0.442804 0.500000 0.750000
#
# Coordination Sequence:
#
# PCOD9550686 Si02
#       6
#     8   4   8   4   8   4
#     4  12  22  41  70 100 141 188 244 280 362 457
#     4  12  27  43  70 106 150 188 249 321 372 446
#     4  12  23  46  77 104 136 190 247 310 376 451
#     4  12  21  37  62  90 136 190 229 277 328 424
#     4  12  24  44  68 108 145 198 239 296 375 453
#     4  12  28  54  82 108 146 200 260 322 386 452
#
# _framework density 21.775686
#
# number of rings (size 3 to 8) (size 9 to 14) (size 15 to 20)
#    0.000    0.000    8.889    2.000    0.000    1.778 
#    4.000    0.000    0.000    0.000    0.000    0.000 
#    0.000    0.000    0.000    0.000    0.000    0.000 
#
# Total GULP energy -200787.440134 kJ/mol
# GULP energy per Si atom -5577.428893 kJ/mol
# Density = 2.172612 g / cm^3
# Si number density = 21.775686 Si / 1000 Ang^3
#
#
#
# Elastic Constant Matrix: (Units=GPa)
#
#
# Indices 1 2 3 4 5 6 
#
# 1 129.7695 68.6849 55.6149 0.0000 0.0000 0.0000
# 2 68.6849 129.7708 55.6150 0.0000 0.0000 0.0000
# 3 55.6149 55.6150 83.6722 0.0000 0.0000 0.0000
# 4 0.0000 0.0000 0.0000 31.2646 0.0000 0.0000
# 5 0.0000 0.0000 0.0000 0.0000 31.2660 0.0000
# 6 0.0000 0.0000 0.0000 0.0000 0.0000 32.6067
#
#
#
# Elastic Compliance Matrix: (Units=1/GPa)
#
#
# Indices 1 2 3 4 5 6 
#
# 1 0.012201 -0.004170 -0.005338 0.000000 0.000000 0.000000
# 2 -0.004170 0.012201 -0.005338 0.000000 0.000000 0.000000
# 3 -0.005338 -0.005338 0.019047 0.000000 0.000000 0.000000
# 4 0.000000 0.000000 0.000000 0.031985 0.000000 0.000000
# 5 0.000000 0.000000 0.000000 0.000000 0.031984 0.000000
# 6 0.000000 0.000000 0.000000 0.000000 0.000000 0.030669
#
#
# Mechanical properties :
#
#
# Convention : Reuss Voigt Hill
#
# Bulk Modulus (GPa) = 72.68837 78.11578 75.40207
# Shear Modulus (GPa) = 29.00865 29.91397 29.46131
#
# Velocity S-wave (km/s) = 3.65383 3.71041 3.68223
# Velocity P-wave (km/s) = 7.15917 7.36933 7.26501
#
# Compressibility (1/GPa) = 0.01375736
#
# Stress axis : x y z
#
# Youngs Moduli (GPa) = 81.96270 81.96372 52.50125
#
# Poissons Ratio (x) = 0.34179 0.28024
# Poissons Ratio (y) = 0.34178 0.28024
# Poissons Ratio (z) = 0.43750 0.43750
#
# Static dielectric constant tensor:
#      x y z
#    x 2.031870 0.000000 0.000000 
#    y 0.000000 2.031820 0.000000 
#    z 0.000000 0.000000 1.889590 
# 
# From -- ./inp_files/3631.got.cif
#   From: 2010.05.17/outbox.cif.g08.bks.cpg/sg95_2_cif.got.tgz:3631.got - 2010.06.03 19:46:49.
