data_PCOD9550578
_publ_section_title
;
Structure prediction by ZEFSAII (Michael W. Deem and Ramdas Pophale) SiO2 
 PCOD9550578
Probable space group: P 43 2 2
;
_chemical_formula_sum "Si O2"
_cell_formula_units_Z 40
_cell_length_a 17.836086
_cell_length_b 17.836086
_cell_length_c 5.531998
_cell_angle_alpha 90.000000
_cell_angle_beta 90.000000
_cell_angle_gamma 90.000000
_cell_volume 1759.872195
_symmetry_space_group_name_H-M "P 43 2 2"
_symmetry_group_IT_number 95
_symmetry_cell_setting 'tetragonal'
loop_
_space_group_symop_operation_xyz
x,y,z
-y,x,3/4+z
-x,-y,1/2+z
y,-x,1/4+z
x,-y,1/2-z
-x,y,-z
y,x,1/4-z
-y,-x,3/4-z
loop_
_atom_site_type_symbol
_atom_site_label
_atom_site_fract_x
_atom_site_fract_y
_atom_site_fract_z
Si Si1 0.857668 0.857668 0.125000
Si Si2 0.000000 0.773652 0.000000
Si Si3 0.793649 0.206352 0.875000
Si Si4 0.617380 0.617380 0.625000
Si Si5 0.000000 0.546848 0.500000
Si Si6 0.337622 0.109131 0.033524
Si Si7 0.500000 0.335787 0.500000
Si Si8 0.423544 0.234477 0.850762
O O1 0.943232 0.829250 0.139096
O O2 0.820293 0.830749 0.374162
O O3 0.046146 0.717870 0.176383
O O4 0.824893 0.289858 0.907009
O O5 0.617005 0.545376 0.447558
O O6 0.614408 0.697177 0.494590
O O7 0.929608 0.601612 0.546701
O O8 0.008510 0.500000 0.750000
O O9 0.380330 0.156701 0.827486
O O10 0.440298 0.277403 0.605541
O O11 0.500000 0.218964 0.000000
#
# Coordination Sequence:
#
# PCOD9550578 Si02
#       8
#     4   4   4   4   4   8   4   8
#     4  10  22  44  71 103 145 186 237 294 364 438
#     4  10  23  46  72 109 150 192 250 306 374 443
#     4  10  23  44  73 106 136 186 249 305 358 422
#     4  10  21  44  72 103 139 194 242 317 374 460
#     4  12  27  48  72 109 158 200 248 308 394 465
#     4  11  23  47  71 106 144 193 248 310 368 450
#     4  10  22  44  76 100 152 182 254 304 392 446
#     4  10  22  43  66  98 136 187 239 297 368 445
#
# _framework density 22.728921
#
# number of rings (size 3 to 8) (size 9 to 14) (size 15 to 20)
#    0.000    1.600    0.000    3.600    0.000    4.000 
#   55.800    4.000   83.600    0.000    0.000    0.000 
#    0.000    0.000    0.000    0.000    0.000    0.000 
#
# Total GULP energy -223171.577103 kJ/mol
# GULP energy per Si atom -5579.289428 kJ/mol
# Density = 2.267719 g / cm^3
# Si number density = 22.728921 Si / 1000 Ang^3
#
#
#
# Elastic Constant Matrix: (Units=GPa)
#
#
# Indices 1 2 3 4 5 6 
#
# 1 118.0602 72.6537 43.1004 0.0000 0.0000 0.0000
# 2 72.6537 118.0611 43.1004 0.0000 0.0000 0.0000
# 3 43.1004 43.1004 106.0512 0.0000 0.0000 0.0000
# 4 0.0000 0.0000 0.0000 13.0184 0.0000 0.0000
# 5 0.0000 0.0000 0.0000 0.0000 13.0179 0.0000
# 6 0.0000 0.0000 0.0000 0.0000 0.0000 48.6842
#
#
#
# Elastic Compliance Matrix: (Units=1/GPa)
#
#
# Indices 1 2 3 4 5 6 
#
# 1 0.014223 -0.007800 -0.002611 0.000000 0.000000 0.000000
# 2 -0.007800 0.014223 -0.002611 0.000000 0.000000 0.000000
# 3 -0.002611 -0.002611 0.011551 0.000000 0.000000 0.000000
# 4 0.000000 0.000000 0.000000 0.076814 0.000000 0.000000
# 5 0.000000 0.000000 0.000000 0.000000 0.076818 0.000000
# 6 0.000000 0.000000 0.000000 0.000000 0.000000 0.020541
#
#
# Mechanical properties :
#
#
# Convention : Reuss Voigt Hill
#
# Bulk Modulus (GPa) = 71.65412 73.32016 72.48714
# Shear Modulus (GPa) = 20.41952 27.16531 23.79241
#
# Velocity S-wave (km/s) = 3.00057 3.46090 3.23892
# Velocity P-wave (km/s) = 6.60292 6.94975 6.77855
#
# Compressibility (1/GPa) = 0.01395593
#
# Stress axis : x y z
#
# Youngs Moduli (GPa) = 70.30729 70.30796 86.57027
#
# Poissons Ratio (x) = 0.54839 0.22600
# Poissons Ratio (y) = 0.54839 0.22599
# Poissons Ratio (z) = 0.18354 0.18354
#
# Static dielectric constant tensor:
#      x y z
#    x 1.925210 0.000000 0.000000 
#    y 0.000000 1.925210 0.000000 
#    z 0.000000 0.000000 1.828640 
# 
# From -- ./inp_files/962.got.cif
#   From: 2010.05.17/outbox.cif.g08.bks.cpg/sg95_1_cif.got.tgz:962.got - 2010.06.03 19:46:49.
