data_PCOD9550125
_publ_section_title
;
Structure prediction by ZEFSAII (Michael W. Deem and Ramdas Pophale) SiO2 
 PCOD9550125
Probable space group: P 42 21 2
;
_chemical_formula_sum "Si O2"
_cell_formula_units_Z 32
_cell_length_a 10.872277
_cell_length_b 10.872277
_cell_length_c 12.381394
_cell_angle_alpha 90.000000
_cell_angle_beta 90.000000
_cell_angle_gamma 90.000000
_cell_volume 1463.560100
_symmetry_space_group_name_H-M "P 42 21 2"
_symmetry_group_IT_number 94
_symmetry_cell_setting 'tetragonal'
loop_
_space_group_symop_operation_xyz
x,y,z
1/2-y,1/2+x,1/2+z
-x,-y,z
1/2+y,1/2-x,1/2+z
1/2+x,1/2-y,1/2-z
1/2-x,1/2+y,1/2-z
y,x,-z
-y,-x,-z
loop_
_atom_site_type_symbol
_atom_site_label
_atom_site_fract_x
_atom_site_fract_y
_atom_site_fract_z
Si Si1 0.446423 0.627076 0.165598
Si Si2 0.835100 0.164901 0.500000
Si Si3 0.799964 0.685778 0.603101
Si Si4 0.500000 0.000000 0.336724
Si Si5 0.184879 0.321593 0.210684
O O1 0.500000 0.500000 0.205397
O O2 0.309133 0.615114 0.115802
O O3 0.417749 0.720329 0.261236
O O4 0.541876 0.669294 0.073497
O O5 0.826006 0.272031 0.588155
O O6 0.714585 0.714585 0.500000
O O7 0.888866 0.567532 0.598797
O O8 0.714388 0.702972 0.710004
O O9 0.388163 0.946725 0.265727
#
# Coordination Sequence:
#
# PCOD9550125 Si02
#       5
#     8   4   8   4   8
#     4  10  21  40  72 100 133 190 244 295 364 443
#     4  12  21  48  69  96 150 190 245 314 366 434
#     4  10  23  42  64 104 137 182 241 298 364 443
#     4  12  22  46  70 104 146 186 240 308 366 432
#     4  10  26  40  70 107 135 190 246 299 371 439
#
# _framework density 21.864495999999999
#
# number of rings (size 3 to 8) (size 9 to 14) (size 15 to 20)
#    1.500    0.000    0.000    6.375    0.000    1.000 
#    4.500    0.625    0.000    0.000    0.000    0.000 
#    0.000    0.000    0.000    0.000    0.000    0.000 
#
# Total GULP energy -178154.925227 kJ/mol
# GULP energy per Si atom -5567.341413 kJ/mol
# Density = 2.181473 g / cm^3
# Si number density = 21.864496 Si / 1000 Ang^3
#
#
#
# Elastic Constant Matrix: (Units=GPa)
#
#
# Indices 1 2 3 4 5 6 
#
# 1 74.4971 75.7365 60.1215 0.0000 0.0000 0.0000
# 2 75.7365 74.4963 60.1227 0.0000 0.0000 0.0000
# 3 60.1215 60.1227 88.7713 0.0000 0.0000 0.0000
# 4 0.0000 0.0000 0.0000 16.1066 0.0000 0.0000
# 5 0.0000 0.0000 0.0000 0.0000 16.1064 0.0000
# 6 0.0000 0.0000 0.0000 0.0000 0.0000 62.7834
#
#
#
# Elastic Compliance Matrix: (Units=1/GPa)
#
#
# Indices 1 2 3 4 5 6 
#
# 1 -0.395990 0.410540 -0.009860 0.000000 0.000000 0.000000
# 2 0.410540 -0.396018 -0.009829 0.000000 0.000000 0.000000
# 3 -0.009860 -0.009829 0.024600 0.000000 0.000000 0.000000
# 4 0.000000 0.000000 0.000000 0.062086 0.000000 0.000000
# 5 0.000000 0.000000 0.000000 0.000000 0.062087 0.000000
# 6 0.000000 0.000000 0.000000 0.000000 0.000000 0.015928
#
#
# Mechanical properties :
#
#
# Convention : Reuss Voigt Hill
#
# Bulk Modulus (GPa) = 69.96500 69.96957 69.96728
# Shear Modulus (GPa) = -3.56064 21.78488 9.11212
#
# Velocity S-wave (km/s) = -1.27751 3.15994 2.04367
# Velocity P-wave (km/s) = 5.46743 6.73681 6.13504
#
# Compressibility (1/GPa) = 0.01429286
#
# Stress axis : x y z
#
# Youngs Moduli (GPa) = -2.52532 -2.52514 40.65052
#
# Poissons Ratio (x) = 1.03667 0.40081
# Poissons Ratio (y) = 1.03674 0.39957
# Poissons Ratio (z) = -0.02490 -0.02482
#
# Static dielectric constant tensor:
#      x y z
#    x 1.886480 0.000000 0.000000 
#    y 0.000000 1.886480 0.000000 
#    z 0.000000 0.000000 1.808670 
# 
# From -- ./inp_files/3268.got.cif
#   From: 2010.05.17/outbox.cif.g08.bks.cpg/sg94_2_cif.got.tgz:3268.got - 2010.06.03 19:43:16.
