data_PCOD9550308
_publ_section_title
;
Structure prediction by ZEFSAII (Michael W. Deem and Ramdas Pophale) SiO2 
 PCOD9550308
Probable space group: P 42 21 2
;
_chemical_formula_sum "Si O2"
_cell_formula_units_Z 48
_cell_length_a 19.125806
_cell_length_b 19.125806
_cell_length_c 5.789958
_cell_angle_alpha 90.000000
_cell_angle_beta 90.000000
_cell_angle_gamma 90.000000
_cell_volume 2117.946112
_symmetry_space_group_name_H-M "P 42 21 2"
_symmetry_group_IT_number 94
_symmetry_cell_setting 'tetragonal'
loop_
_space_group_symop_operation_xyz
x,y,z
1/2-y,1/2+x,1/2+z
-x,-y,z
1/2+y,1/2-x,1/2+z
1/2+x,1/2-y,1/2-z
1/2-x,1/2+y,1/2-z
y,x,-z
-y,-x,-z
loop_
_atom_site_type_symbol
_atom_site_label
_atom_site_fract_x
_atom_site_fract_y
_atom_site_fract_z
Si Si1 0.251727 0.654983 0.317996
Si Si2 0.570294 0.743989 0.708850
Si Si3 0.705770 0.705770 0.000000
Si Si4 0.326696 0.007234 0.589851
Si Si5 0.810481 0.958570 0.868909
Si Si6 0.122723 0.122723 0.500000
Si Si7 0.362924 0.887405 0.890651
O O1 0.234773 0.737563 0.312141
O O2 0.284260 0.617261 0.541136
O O3 0.301070 0.624377 0.119618
O O4 0.173707 0.627804 0.295113
O O5 0.628828 0.714324 0.887448
O O6 0.515349 0.690168 0.581210
O O7 0.610410 0.786966 0.509684
O O8 0.526835 0.803684 0.846093
O O9 0.251669 0.014006 0.711304
O O10 0.366857 0.079359 0.573329
O O11 0.371789 0.957659 0.751570
O O12 0.875057 0.937022 0.699464
#
# Coordination Sequence:
#
# PCOD9550308 Si02
#       7
#     8   8   4   8   8   4   8
#     4  12  21  37  67  98 126 171 229 291 345 403
#     4  11  24  41  60  92 136 180 220 291 362 417
#     4  12  22  38  64 100 132 181 229 296 368 420
#     4  11  23  40  61  84 130 181 233 280 342 405
#     4  11  22  38  61  93 132 179 221 282 353 408
#     4  12  20  34  64  98 130 169 226 288 337 422
#     4  11  23  39  62  86 130 183 229 294 341 411
#
# _framework density 22.663466
#
# number of rings (size 3 to 8) (size 9 to 14) (size 15 to 20)
#    0.000    0.667    6.667    2.000    0.000    0.000 
#    0.000    2.500    0.000    0.000    0.000    0.000 
#    0.000   46.667    0.000    0.000    0.000    0.000 
#
# Total GULP energy -267243.405655 kJ/mol
# GULP energy per Si atom -5567.570951 kJ/mol
# Density = 2.261188 g / cm^3
# Si number density = 22.663466 Si / 1000 Ang^3
#
#
#
# Elastic Constant Matrix: (Units=GPa)
#
#
# Indices 1 2 3 4 5 6 
#
# 1 67.4338 20.7320 14.4303 0.0000 0.0000 0.0000
# 2 20.7320 67.4338 14.4303 0.0000 0.0000 0.0000
# 3 14.4303 14.4303 65.3992 0.0000 0.0000 0.0000
# 4 0.0000 0.0000 0.0000 21.1019 0.0000 0.0000
# 5 0.0000 0.0000 0.0000 0.0000 21.1019 0.0000
# 6 0.0000 0.0000 0.0000 0.0000 0.0000 22.5333
#
#
#
# Elastic Compliance Matrix: (Units=1/GPa)
#
#
# Indices 1 2 3 4 5 6 
#
# 1 0.016819 -0.004594 -0.002698 0.000000 0.000000 0.000000
# 2 -0.004594 0.016819 -0.002698 0.000000 0.000000 0.000000
# 3 -0.002698 -0.002698 0.016481 0.000000 0.000000 0.000000
# 4 0.000000 0.000000 0.000000 0.047389 0.000000 0.000000
# 5 0.000000 0.000000 0.000000 0.000000 0.047389 0.000000
# 6 0.000000 0.000000 0.000000 0.000000 0.000000 0.044379
#
#
# Mechanical properties :
#
#
# Convention : Reuss Voigt Hill
#
# Bulk Modulus (GPa) = 33.17667 33.27245 33.22456
# Shear Modulus (GPa) = 22.79980 22.99237 22.89608
#
# Velocity S-wave (km/s) = 3.17522 3.18860 3.18191
# Velocity P-wave (km/s) = 5.30220 5.31688 5.30954
#
# Compressibility (1/GPa) = 0.03014166
#
# Stress axis : x y z
#
# Youngs Moduli (GPa) = 59.45704 59.45704 60.67551
#
# Poissons Ratio (x) = 0.27312 0.16367
# Poissons Ratio (y) = 0.27312 0.16367
# Poissons Ratio (z) = 0.16039 0.16039
#
# Static dielectric constant tensor:
#      x y z
#    x 1.902670 0.000000 0.000000 
#    y 0.000000 1.902670 0.000000 
#    z 0.000000 0.000000 2.040750 
# 
# From -- ./inp_files/540.got.cif
#   From: 2010.05.17/outbox.cif.g08.bks.cpg/sg94_1_cif.got.tgz:540.got - 2010.06.03 19:43:16.
