data_PCOD9550823
_publ_section_title
;
Structure prediction by ZEFSAII (Michael W. Deem and Ramdas Pophale) SiO2 
 PCOD9550823
Probable space group: P 43 21 2
;
_chemical_formula_sum "Si O2"
_cell_formula_units_Z 44
_cell_length_a 8.777317
_cell_length_b 8.777317
_cell_length_c 27.045081
_cell_angle_alpha 90.000000
_cell_angle_beta 90.000000
_cell_angle_gamma 90.000000
_cell_volume 2083.588029
_symmetry_space_group_name_H-M "P 43 21 2"
_symmetry_group_IT_number 96
_symmetry_cell_setting 'tetragonal'
loop_
_space_group_symop_operation_xyz
x,y,z
1/2-y,1/2+x,3/4+z
-x,-y,1/2+z
1/2+y,1/2-x,1/4+z
1/2+x,1/2-y,1/4-z
1/2-x,1/2+y,3/4-z
y,x,-z
-y,-x,1/2-z
loop_
_atom_site_type_symbol
_atom_site_label
_atom_site_fract_x
_atom_site_fract_y
_atom_site_fract_z
Si Si1 0.081087 0.867753 0.881466
Si Si2 0.283320 0.105154 0.931368
Si Si3 0.296520 0.454374 0.329949
Si Si4 0.601222 0.917769 0.079357
Si Si5 0.225553 0.225553 0.500000
Si Si6 0.204096 0.492684 0.714490
O O1 0.118388 0.748688 0.837605
O O2 0.035661 0.742224 0.923240
O O3 0.224114 0.977098 0.892867
O O4 0.931902 0.976333 0.884680
O O5 0.128576 0.183845 0.949899
O O6 0.344777 0.014582 0.978786
O O7 0.161560 0.412693 0.367330
O O8 0.268717 0.582454 0.288139
O O9 0.346770 0.303488 0.300542
O O10 0.444579 0.997525 0.068254
O O11 0.633288 0.792321 0.037053
#
# Coordination Sequence:
#
# PCOD9550823 Si02
#       6
#     8   8   8   8   4   8
#     4  10  21  39  60  88 120 165 208 253 313 385
#     4  10  21  39  61  90 124 164 206 261 321 389
#     4  10  21  41  64  87 126 174 215 259 322 395
#     4  11  22  38  63  93 124 169 210 269 318 388
#     4  10  22  40  62  92 128 168 222 260 322 392
#     4  10  20  37  61  89 124 164 208 260 328 377
#
# _framework density 21.117418000000001
#
# number of rings (size 3 to 8) (size 9 to 14) (size 15 to 20)
#    0.000    1.818    0.000    6.545    2.545    0.000 
#    9.818    1.818    0.000    0.000    0.000    0.000 
#    0.000    0.000    0.000    0.000    0.000    0.000 
#
# Total GULP energy -244995.994056 kJ/mol
# GULP energy per Si atom -5568.090774 kJ/mol
# Density = 2.106935 g / cm^3
# Si number density = 21.117418 Si / 1000 Ang^3
#
#
#
# Elastic Constant Matrix: (Units=GPa)
#
#
# Indices 1 2 3 4 5 6 
#
# 1 29.7870 10.3708 13.5404 0.0000 0.0000 0.0000
# 2 10.3708 29.7870 13.5404 0.0000 0.0000 0.0000
# 3 13.5404 13.5404 99.6496 0.0000 0.0000 0.0000
# 4 0.0000 0.0000 0.0000 31.3584 0.0000 0.0000
# 5 0.0000 0.0000 0.0000 0.0000 31.3584 0.0000
# 6 0.0000 0.0000 0.0000 0.0000 0.0000 18.4770
#
#
#
# Elastic Compliance Matrix: (Units=1/GPa)
#
#
# Indices 1 2 3 4 5 6 
#
# 1 0.039459 -0.012045 -0.003725 0.000000 0.000000 0.000000
# 2 -0.012045 0.039459 -0.003725 0.000000 0.000000 0.000000
# 3 -0.003725 -0.003725 0.011047 0.000000 0.000000 0.000000
# 4 0.000000 0.000000 0.000000 0.031889 0.000000 0.000000
# 5 0.000000 0.000000 0.000000 0.000000 0.031889 0.000000
# 6 0.000000 0.000000 0.000000 0.000000 0.000000 0.054121
#
#
# Mechanical properties :
#
#
# Convention : Reuss Voigt Hill
#
# Bulk Modulus (GPa) = 19.61748 26.01412 22.81580
# Shear Modulus (GPa) = 18.95043 24.35688 21.65366
#
# Velocity S-wave (km/s) = 2.99889 3.39986 3.20565
# Velocity P-wave (km/s) = 4.61530 5.26855 4.95271
#
# Compressibility (1/GPa) = 0.05097494
#
# Stress axis : x y z
#
# Youngs Moduli (GPa) = 25.34301 25.34301 90.51845
#
# Poissons Ratio (x) = 0.30525 0.33718
# Poissons Ratio (y) = 0.30525 0.33718
# Poissons Ratio (z) = 0.09440 0.09440
#
# Static dielectric constant tensor:
#      x y z
#    x 1.786310 0.000000 0.000000 
#    y 0.000000 1.786310 0.000000 
#    z 0.000000 0.000000 1.817570 
# 
# From -- ./inp_files/4418.got.cif
#   From: 2010.05.17/outbox.cif.g08.bks.cpg/sg96_3_cif.got.tgz:4418.got - 2010.06.03 19:52:08.
