data_PCOD9550707
_publ_section_title
;
Structure prediction by ZEFSAII (Michael W. Deem and Ramdas Pophale) SiO2 
 PCOD9550707
Probable space group: P 43 21 2
;
_chemical_formula_sum "Si O2"
_cell_formula_units_Z 44
_cell_length_a 14.381180
_cell_length_b 14.381180
_cell_length_c 10.923211
_cell_angle_alpha 90.000000
_cell_angle_beta 90.000000
_cell_angle_gamma 90.000000
_cell_volume 2259.120347
_symmetry_space_group_name_H-M "P 43 21 2"
_symmetry_group_IT_number 96
_symmetry_cell_setting 'tetragonal'
loop_
_space_group_symop_operation_xyz
x,y,z
1/2-y,1/2+x,3/4+z
-x,-y,1/2+z
1/2+y,1/2-x,1/4+z
1/2+x,1/2-y,1/4-z
1/2-x,1/2+y,3/4-z
y,x,-z
-y,-x,1/2-z
loop_
_atom_site_type_symbol
_atom_site_label
_atom_site_fract_x
_atom_site_fract_y
_atom_site_fract_z
Si Si1 0.118805 0.118805 0.500000
Si Si2 0.315350 0.123254 0.367126
Si Si3 0.161628 0.838373 0.750000
Si Si4 0.368594 0.546341 0.979389
Si Si5 0.781417 0.581158 0.921395
Si Si6 0.428210 0.428210 0.500000
Si Si7 0.266161 0.214577 0.788714
O O1 0.221100 0.113183 0.445000
O O2 0.053966 0.115874 0.378982
O O3 0.383971 0.184229 0.447282
O O4 0.287029 0.185157 0.251096
O O5 0.336307 0.015279 0.347231
O O6 0.240671 0.822196 0.649468
O O7 0.056829 0.835932 0.697801
O O8 0.472043 0.570736 0.930492
O O9 0.291480 0.620388 0.940288
O O10 0.800803 0.660820 0.821667
O O11 0.668846 0.570252 0.925782
#
# Coordination Sequence:
#
# PCOD9550707 Si02
#       7
#     4   8   4   8   8   4   8
#     4  10  15  36  64  86 115 150 202 278 290 363
#     4  11  21  37  66  94 121 161 217 261 314 379
#     4  11  26  42  60  92 135 178 198 258 333 380
#     4  10  22  40  62  97 118 161 218 254 323 377
#     4  12  21  39  68  96 123 163 216 269 323 362
#     4  11  19  34  66  98 114 144 212 280 307 353
#     4  11  22  41  63  88 133 166 205 266 318 388
#
# _framework density 19.476607999999999
#
# number of rings (size 3 to 8) (size 9 to 14) (size 15 to 20)
#    0.000    1.091    9.091    1.091    0.000    0.000 
#    6.545    1.818    0.000    0.000    0.000    0.000 
#    0.000    0.000    0.000    0.000    0.000    0.000 
#
# Total GULP energy -245161.776563 kJ/mol
# GULP energy per Si atom -5571.858558 kJ/mol
# Density = 1.943228 g / cm^3
# Si number density = 19.476608 Si / 1000 Ang^3
#
#
#
# Elastic Constant Matrix: (Units=GPa)
#
#
# Indices 1 2 3 4 5 6 
#
# 1 103.6948 46.4618 1.4077 0.0000 0.0000 0.0000
# 2 46.4618 103.6938 1.4069 0.0000 0.0000 0.0000
# 3 1.4077 1.4069 8.3286 0.0000 0.0000 0.0000
# 4 0.0000 0.0000 0.0000 11.5857 0.0000 0.0000
# 5 0.0000 0.0000 0.0000 0.0000 11.5861 0.0000
# 6 0.0000 0.0000 0.0000 0.0000 0.0000 39.0896
#
#
#
# Elastic Compliance Matrix: (Units=1/GPa)
#
#
# Indices 1 2 3 4 5 6 
#
# 1 0.012077 -0.005396 -0.001130 0.000000 0.000000 0.000000
# 2 -0.005396 0.012077 -0.001128 0.000000 0.000000 0.000000
# 3 -0.001130 -0.001128 0.120450 0.000000 0.000000 0.000000
# 4 0.000000 0.000000 0.000000 0.086313 0.000000 0.000000
# 5 0.000000 0.000000 0.000000 0.000000 0.086310 0.000000
# 6 0.000000 0.000000 0.000000 0.000000 0.000000 0.025582
#
#
# Mechanical properties :
#
#
# Convention : Reuss Voigt Hill
#
# Bulk Modulus (GPa) = 7.73416 34.91886 21.32651
# Shear Modulus (GPa) = 12.46213 23.54834 18.00523
#
# Velocity S-wave (km/s) = 2.53227 3.48092 3.04378
# Velocity P-wave (km/s) = 3.53970 5.84152 4.82974
#
# Compressibility (1/GPa) = 0.12929660
#
# Stress axis : x y z
#
# Youngs Moduli (GPa) = 82.80405 82.80345 8.30218
#
# Poissons Ratio (x) = 0.44679 0.00938
# Poissons Ratio (y) = 0.44680 0.00937
# Poissons Ratio (z) = 0.09354 0.09341
#
# Static dielectric constant tensor:
#      x y z
#    x 1.718020 0.000000 0.000000 
#    y 0.000000 1.718020 0.000000 
#    z 0.000000 0.000000 -0.239390 
# 
# From -- ./inp_files/2162.got.cif
#   From: 2010.05.17/outbox.cif.g08.bks.cpg/sg96_2_cif.got.tgz:2162.got - 2010.06.03 19:52:08.
