data_PCOD9550510
_publ_section_title
;
Structure prediction by ZEFSAII (Michael W. Deem and Ramdas Pophale) SiO2 
 PCOD9550510
Probable space group: P 43 2 2
;
_chemical_formula_sum "Si O2"
_cell_formula_units_Z 40
_cell_length_a 10.494060
_cell_length_b 10.494060
_cell_length_c 18.647450
_cell_angle_alpha 90.000000
_cell_angle_beta 90.000000
_cell_angle_gamma 90.000000
_cell_volume 2053.555938
_symmetry_space_group_name_H-M "P 43 2 2"
_symmetry_group_IT_number 95
_symmetry_cell_setting 'tetragonal'
loop_
_space_group_symop_operation_xyz
x,y,z
-y,x,3/4+z
-x,-y,1/2+z
y,-x,1/4+z
x,-y,1/2-z
-x,y,-z
y,x,1/4-z
-y,-x,3/4-z
loop_
_atom_site_type_symbol
_atom_site_label
_atom_site_fract_x
_atom_site_fract_y
_atom_site_fract_z
Si Si1 0.078516 0.601314 0.927881
Si Si2 0.876623 0.667660 0.359977
Si Si3 0.338627 0.661374 0.875000
Si Si4 0.500000 0.253883 0.500000
Si Si5 0.152318 0.350339 0.335066
Si Si6 0.648378 0.163863 0.913826
O O1 0.992228 0.657106 0.863773
O O2 0.113554 0.453559 0.913530
O O3 0.214744 0.665600 0.924808
O O4 0.000000 0.616766 0.000000
O O5 0.836545 0.608262 0.283246
O O6 0.765149 0.764546 0.382303
O O7 0.024782 0.705788 0.356531
O O8 0.453301 0.665769 0.931630
O O9 0.168946 0.344395 0.249849
O O10 0.180988 0.498420 0.356693
O O11 0.729016 0.270985 0.875000
#
# Coordination Sequence:
#
# PCOD9550510 Si02
#       6
#     8   8   4   4   8   8
#     4  10  21  37  64  89 125 168 215 270 330 389
#     4  10  21  39  65  88 123 169 210 260 323 392
#     4  10  20  38  62  92 126 172 218 270 332 394
#     4  10  20  40  62  92 126 168 212 268 320 384
#     4  10  22  40  62  91 124 167 213 264 325 394
#     4  10  22  41  63  91 129 165 211 271 326 383
#
# _framework density 19.478407000000001
#
# number of rings (size 3 to 8) (size 9 to 14) (size 15 to 20)
#    0.000    2.000    0.000    4.800    5.600    0.000 
#    9.000    0.000    4.400    0.000    0.000    0.000 
#    0.000    0.000    0.000    0.000    0.000    0.000 
#
# Total GULP energy -222855.984694 kJ/mol
# GULP energy per Si atom -5571.399617 kJ/mol
# Density = 1.943407 g / cm^3
# Si number density = 19.478407 Si / 1000 Ang^3
#
#
#
# Elastic Constant Matrix: (Units=GPa)
#
#
# Indices 1 2 3 4 5 6 
#
# 1 76.3257 65.3378 23.0289 0.0000 0.0000 0.0000
# 2 65.3378 76.3226 23.0282 0.0000 0.0000 0.0000
# 3 23.0289 23.0282 74.9156 0.0000 0.0000 0.0000
# 4 0.0000 0.0000 0.0000 36.9929 0.0000 0.0000
# 5 0.0000 0.0000 0.0000 0.0000 36.9932 0.0000
# 6 0.0000 0.0000 0.0000 0.0000 0.0000 26.9849
#
#
#
# Elastic Compliance Matrix: (Units=1/GPa)
#
#
# Indices 1 2 3 4 5 6 
#
# 1 0.049431 -0.041590 -0.002411 0.000000 0.000000 0.000000
# 2 -0.041590 0.049433 -0.002411 0.000000 0.000000 0.000000
# 3 -0.002411 -0.002411 0.014831 0.000000 0.000000 0.000000
# 4 0.000000 0.000000 0.000000 0.027032 0.000000 0.000000
# 5 0.000000 0.000000 0.000000 0.000000 0.027032 0.000000
# 6 0.000000 0.000000 0.000000 0.000000 0.000000 0.037058
#
#
# Mechanical properties :
#
#
# Convention : Reuss Voigt Hill
#
# Bulk Modulus (GPa) = 47.90908 50.03930 48.97419
# Shear Modulus (GPa) = 16.41511 27.93880 22.17696
#
# Velocity S-wave (km/s) = 2.90614 3.79139 3.37789
# Velocity P-wave (km/s) = 5.99251 6.70161 6.35696
#
# Compressibility (1/GPa) = 0.02087287
#
# Stress axis : x y z
#
# Youngs Moduli (GPa) = 20.23003 20.22926 67.42855
#
# Poissons Ratio (x) = 0.84133 0.16257
# Poissons Ratio (y) = 0.84136 0.16255
# Poissons Ratio (z) = 0.04877 0.04877
#
# Static dielectric constant tensor:
#      x y z
#    x 1.695220 0.000000 0.000000 
#    y 0.000000 1.695220 0.000000 
#    z 0.000000 0.000000 1.696330 
# 
# From -- ./inp_files/6883.got.cif
#   From: 2010.05.17/outbox.cif.g08.bks.cpg/sg95_4_cif.got.tgz:6883.got - 2010.06.03 19:46:49.
