data_PCOD9550403
_publ_section_title
;
Structure prediction by ZEFSAII (Michael W. Deem and Ramdas Pophale) SiO2 
 PCOD9550403
Probable space group: P 42 21 2
;
_chemical_formula_sum "Si O2"
_cell_formula_units_Z 58
_cell_length_a 18.000000
_cell_length_b 18.000000
_cell_length_c 9.000000
_cell_angle_alpha 90.000000
_cell_angle_beta 90.000000
_cell_angle_gamma 90.000000
_cell_volume 2916.000000
_symmetry_space_group_name_H-M "P 42 21 2"
_symmetry_group_IT_number 94
_symmetry_cell_setting 'tetragonal'
loop_
_space_group_symop_operation_xyz
x,y,z
1/2-y,1/2+x,1/2+z
-x,-y,z
1/2+y,1/2-x,1/2+z
1/2+x,1/2-y,1/2-z
1/2-x,1/2+y,1/2-z
y,x,-z
-y,-x,-z
loop_
_atom_site_type_symbol
_atom_site_label
_atom_site_fract_x
_atom_site_fract_y
_atom_site_fract_z
Si Si1 0.380587 0.157622 0.307751
Si Si2 0.187549 0.835643 0.671524
Si Si3 0.952901 0.699645 0.212306
Si Si4 0.386396 0.533210 0.234787
Si Si5 0.125730 0.693277 0.846678
Si Si6 0.772698 0.452084 0.363030
Si Si7 0.500000 0.500000 0.500000
Si Si8 0.154004 0.999164 0.606450
O O1 0.356460 0.230323 0.219317
O O2 0.470297 0.151969 0.293099
O O3 0.360102 0.174711 0.479454
O O4 0.334182 0.092880 0.229865
O O5 0.188012 0.811989 0.500000
O O6 0.159994 0.769226 0.777923
O O7 0.146192 0.915920 0.673133
O O8 0.879394 0.655189 0.260485
O O9 0.969253 0.767269 0.329330
O O10 0.940626 0.726322 0.041754
O O11 0.309520 0.564663 0.301058
O O12 0.429628 0.499415 0.382334
O O13 0.446504 0.592150 0.174081
O O14 0.357902 0.496952 0.074188
O O15 0.038169 0.708116 0.835481
#
# Coordination Sequence:
#
# PCOD9550403 Si02
#       8
#     8   8   8   8   8   8   2   8
#     4  10  24  45  69  99 136 180 229 283 351 410
#     4  11  23  41  68  98 132 177 228 284 343 417
#     4  10  23  45  70 100 137 176 234 292 346 414
#     4  11  25  44  68  96 141 184 233 287 341 424
#     4  11  24  42  69 100 136 178 225 288 349 416
#     4  11  24  44  67 101 139 179 232 285 349 419
#     4  12  28  42  64 100 140 198 232 284 344 416
#     4  10  24  44  69  99 132 183 238 286 348 415
#
# _framework density 19.890260999999999
#
# number of rings (size 3 to 8) (size 9 to 14) (size 15 to 20)
#    0.000    1.379    0.000    3.724    5.793    4.414 
#    1.241    2.759    0.000    0.000    0.000    0.000 
#    0.000    0.000    0.000    0.000    0.000    0.000 
#
# Total GULP energy -323644.534723 kJ/mol
# GULP energy per Si atom -5580.078185 kJ/mol
# Density = 1.984499 g / cm^3
# Si number density = 19.890261 Si / 1000 Ang^3
#
#
#
# Elastic Constant Matrix: (Units=GPa)
#
#
# Indices 1 2 3 4 5 6 
#
# 1 62.2505 24.7073 18.9814 0.0000 0.0000 0.0000
# 2 24.7073 62.2501 18.9811 0.0000 0.0000 0.0000
# 3 18.9814 18.9811 94.6420 0.0000 0.0000 0.0000
# 4 0.0000 0.0000 0.0000 42.1542 0.0000 0.0000
# 5 0.0000 0.0000 0.0000 0.0000 42.1543 0.0000
# 6 0.0000 0.0000 0.0000 0.0000 0.0000 27.7933
#
#
#
# Elastic Compliance Matrix: (Units=1/GPa)
#
#
# Indices 1 2 3 4 5 6 
#
# 1 0.019620 -0.007016 -0.002528 0.000000 0.000000 0.000000
# 2 -0.007016 0.019620 -0.002528 0.000000 0.000000 0.000000
# 3 -0.002528 -0.002528 0.011580 0.000000 0.000000 0.000000
# 4 0.000000 0.000000 0.000000 0.023722 0.000000 0.000000
# 5 0.000000 0.000000 0.000000 0.000000 0.023722 0.000000
# 6 0.000000 0.000000 0.000000 0.000000 0.000000 0.035980
#
#
# Mechanical properties :
#
#
# Convention : Reuss Voigt Hill
#
# Bulk Modulus (GPa) = 37.48699 38.27580 37.88140
# Shear Modulus (GPa) = 29.89003 32.85187 31.37095
#
# Velocity S-wave (km/s) = 3.88073 4.06847 3.97571
# Velocity P-wave (km/s) = 6.24243 6.43080 6.33731
#
# Compressibility (1/GPa) = 0.02667592
#
# Stress axis : x y z
#
# Youngs Moduli (GPa) = 50.96911 50.96897 86.35546
#
# Poissons Ratio (x) = 0.35762 0.21829
# Poissons Ratio (y) = 0.35762 0.21828
# Poissons Ratio (z) = 0.12884 0.12883
#
# Static dielectric constant tensor:
#      x y z
#    x 1.715910 0.000000 0.000000 
#    y 0.000000 1.715910 0.000000 
#    z 0.000000 0.000000 1.732450 
# 
# From -- ./inp_files/1733.got.cif
#   From: 2010.05.17/outbox.ucp.g08.bks.cvg/sg94_1_cif.got.tgz:1733.got - 2010.06.11 10:37:05.
