data_PCOD9550853
_publ_section_title
;
Structure prediction by ZEFSAII (Michael W. Deem and Ramdas Pophale) SiO2 
 PCOD9550853
Probable space group: P 43 21 2
;
_chemical_formula_sum "Si O2"
_cell_formula_units_Z 52
_cell_length_a 15.825339
_cell_length_b 15.825339
_cell_length_c 8.374165
_cell_angle_alpha 90.000000
_cell_angle_beta 90.000000
_cell_angle_gamma 90.000000
_cell_volume 2097.237225
_symmetry_space_group_name_H-M "P 43 21 2"
_symmetry_group_IT_number 96
_symmetry_cell_setting 'tetragonal'
loop_
_space_group_symop_operation_xyz
x,y,z
1/2-y,1/2+x,3/4+z
-x,-y,1/2+z
1/2+y,1/2-x,1/4+z
1/2+x,1/2-y,1/4-z
1/2-x,1/2+y,3/4-z
y,x,-z
-y,-x,1/2-z
loop_
_atom_site_type_symbol
_atom_site_label
_atom_site_fract_x
_atom_site_fract_y
_atom_site_fract_z
Si Si1 0.737220 0.364961 0.383176
Si Si2 0.182698 0.951167 0.427475
Si Si3 0.967629 0.594401 0.308472
Si Si4 0.969754 0.030247 0.750000
Si Si5 0.746392 0.882542 0.807877
Si Si6 0.341321 0.864339 0.366463
Si Si7 0.019348 0.845276 0.729147
O O1 0.698913 0.301088 0.250000
O O2 0.687426 0.316884 0.528675
O O3 0.830464 0.367588 0.459314
O O4 0.709350 0.463037 0.357577
O O5 0.083046 0.937091 0.401626
O O6 0.240068 0.873791 0.379972
O O7 0.205718 0.028398 0.314036
O O8 0.203168 0.983376 0.603447
O O9 0.013719 0.573722 0.473195
O O10 0.042921 0.623876 0.184976
O O11 0.898877 0.670034 0.318473
O O12 0.069614 0.036170 0.766845
O O13 0.695288 0.866340 0.970293
O O14 0.114949 0.885052 0.750000
#
# Coordination Sequence:
#
# PCOD9550853 Si02
#       7
#     8   8   8   4   8   8   8
#     4  12  25  39  62  93 135 171 208 262 323 379
#     4  11  21  39  64  94 122 167 213 265 306 385
#     4   9  20  39  66  92 117 158 210 259 311 371
#     4  10  22  32  60  98 116 158 210 254 304 380
#     4  10  20  41  64  90 121 165 212 253 317 376
#     4  10  23  39  67  90 122 168 214 256 314 382
#     4  10  23  37  63  89 131 166 206 255 322 379
#
# _framework density 24.794523000000002
#
# number of rings (size 3 to 8) (size 9 to 14) (size 15 to 20)
#    0.462    1.231    3.077    0.923    4.308    1.846 
#    0.000    0.000   13.538    0.000    0.000    0.000 
#    0.000    0.000    0.000    0.000    0.000    0.000 
#
# Total GULP energy -289584.243443 kJ/mol
# GULP energy per Si atom -5568.927759 kJ/mol
# Density = 2.473809 g / cm^3
# Si number density = 24.794523 Si / 1000 Ang^3
#
#
#
# Elastic Constant Matrix: (Units=GPa)
#
#
# Indices 1 2 3 4 5 6 
#
# 1 52.5285 24.1140 -1.3684 0.0000 0.0000 0.0000
# 2 24.1140 52.5283 -1.3688 0.0000 0.0000 0.0000
# 3 -1.3684 -1.3688 40.7214 0.0000 0.0000 0.0000
# 4 0.0000 0.0000 0.0000 26.1495 0.0000 0.0000
# 5 0.0000 0.0000 0.0000 0.0000 26.1497 0.0000
# 6 0.0000 0.0000 0.0000 0.0000 0.0000 29.2697
#
#
#
# Elastic Compliance Matrix: (Units=1/GPa)
#
#
# Indices 1 2 3 4 5 6 
#
# 1 0.024128 -0.011065 0.000439 0.000000 0.000000 0.000000
# 2 -0.011065 0.024128 0.000439 0.000000 0.000000 0.000000
# 3 0.000439 0.000439 0.024587 0.000000 0.000000 0.000000
# 4 0.000000 0.000000 0.000000 0.038242 0.000000 0.000000
# 5 0.000000 0.000000 0.000000 0.000000 0.038241 0.000000
# 6 0.000000 0.000000 0.000000 0.000000 0.000000 0.034165
#
#
# Mechanical properties :
#
#
# Convention : Reuss Voigt Hill
#
# Bulk Modulus (GPa) = 19.05874 20.94798 20.00336
# Shear Modulus (GPa) = 22.58813 24.60722 23.59767
#
# Velocity S-wave (km/s) = 3.02157 3.15373 3.08836
# Velocity P-wave (km/s) = 4.45831 4.66136 4.56097
#
# Compressibility (1/GPa) = 0.05246937
#
# Stress axis : x y z
#
# Youngs Moduli (GPa) = 41.44505 41.44486 40.67251
#
# Poissons Ratio (x) = 0.45859 -0.01785
# Poissons Ratio (y) = 0.45859 -0.01786
# Poissons Ratio (z) = -0.01819 -0.01820
#
# Static dielectric constant tensor:
#      x y z
#    x 2.036090 0.000000 0.000000 
#    y 0.000000 2.036100 0.000000 
#    z 0.000000 0.000000 2.141110 
# 
# From -- ./inp_files/1561.got.cif
#   From: 2010.05.17/outbox.cif.g08.bks.cpg/sg96_1_cif.got.tgz:1561.got - 2010.06.03 19:52:08.
