data_PCOD9550807
_publ_section_title
;
Structure prediction by ZEFSAII (Michael W. Deem and Ramdas Pophale) SiO2 
 PCOD9550807
Probable space group: P 43 21 2
;
_chemical_formula_sum "Si O2"
_cell_formula_units_Z 40
_cell_length_a 9.140588
_cell_length_b 9.140588
_cell_length_c 23.029245
_cell_angle_alpha 90.000000
_cell_angle_beta 90.000000
_cell_angle_gamma 90.000000
_cell_volume 1924.101457
_symmetry_space_group_name_H-M "P 43 21 2"
_symmetry_group_IT_number 96
_symmetry_cell_setting 'tetragonal'
loop_
_space_group_symop_operation_xyz
x,y,z
1/2-y,1/2+x,3/4+z
-x,-y,1/2+z
1/2+y,1/2-x,1/4+z
1/2+x,1/2-y,1/4-z
1/2-x,1/2+y,3/4-z
y,x,-z
-y,-x,1/2-z
loop_
_atom_site_type_symbol
_atom_site_label
_atom_site_fract_x
_atom_site_fract_y
_atom_site_fract_z
Si Si1 0.107592 0.336982 0.890829
Si Si2 0.883505 0.883505 0.000000
Si Si3 0.627962 0.669937 0.161751
Si Si4 0.703343 0.144249 0.485020
Si Si5 0.925632 0.408837 0.687165
Si Si6 0.183490 0.183490 0.000000
O O1 0.188426 0.311082 0.830795
O O2 0.206981 0.283907 0.944132
O O3 0.960638 0.235085 0.890817
O O4 0.047556 0.500920 0.903693
O O5 0.725665 0.914119 0.028333
O O6 0.987251 0.896402 0.056322
O O7 0.712696 0.741126 0.217117
O O8 0.589466 0.781140 0.111003
O O9 0.544211 0.125040 0.512955
O O10 0.782330 0.985278 0.484580
#
# Coordination Sequence:
#
# PCOD9550807 Si02
#       6
#     8   4   8   8   8   4
#     4  10  21  39  62  88 123 163 208 253 307 374
#     4  12  21  36  60  90 125 160 197 256 316 358
#     4  10  20  35  57  89 122 157 201 252 307 362
#     4  10  20  38  60  84 118 162 205 254 303 364
#     4  10  20  35  58  88 121 161 205 248 302 367
#     4   8  19  38  58  84 117 154 199 252 306 356
#
# _framework density 20.788924999999999
#
# number of rings (size 3 to 8) (size 9 to 14) (size 15 to 20)
#    0.000    2.400    0.000    7.200    0.000    1.600 
#    0.000    0.000    0.000    7.200    0.000    5.600 
#    0.000    0.000    0.000    0.000    0.000    0.000 
#
# Total GULP energy -222895.737399 kJ/mol
# GULP energy per Si atom -5572.393435 kJ/mol
# Density = 2.074161 g / cm^3
# Si number density = 20.788925 Si / 1000 Ang^3
#
#
#
# Elastic Constant Matrix: (Units=GPa)
#
#
# Indices 1 2 3 4 5 6 
#
# 1 84.7886 11.8094 32.6178 0.0000 0.0000 0.0000
# 2 11.8094 84.7886 32.6178 0.0000 0.0000 0.0000
# 3 32.6178 32.6178 155.8636 0.0000 0.0000 0.0000
# 4 0.0000 0.0000 0.0000 26.4320 0.0000 0.0000
# 5 0.0000 0.0000 0.0000 0.0000 26.4320 0.0000
# 6 0.0000 0.0000 0.0000 0.0000 0.0000 24.2644
#
#
#
# Elastic Compliance Matrix: (Units=1/GPa)
#
#
# Indices 1 2 3 4 5 6 
#
# 1 0.012879 -0.000823 -0.002523 0.000000 0.000000 0.000000
# 2 -0.000823 0.012879 -0.002523 0.000000 0.000000 0.000000
# 3 -0.002523 -0.002523 0.007472 0.000000 0.000000 0.000000
# 4 0.000000 0.000000 0.000000 0.037833 0.000000 0.000000
# 5 0.000000 0.000000 0.000000 0.000000 0.037833 0.000000
# 6 0.000000 0.000000 0.000000 0.000000 0.000000 0.041213
#
#
# Mechanical properties :
#
#
# Convention : Reuss Voigt Hill
#
# Bulk Modulus (GPa) = 46.52899 53.28119 49.90509
# Shear Modulus (GPa) = 29.58379 31.98538 30.78458
#
# Velocity S-wave (km/s) = 3.77643 3.92673 3.85231
# Velocity P-wave (km/s) = 6.43782 6.80030 6.62154
#
# Compressibility (1/GPa) = 0.02149198
#
# Stress axis : x y z
#
# Youngs Moduli (GPa) = 77.64404 77.64404 133.83585
#
# Poissons Ratio (x) = 0.06392 0.33767
# Poissons Ratio (y) = 0.06392 0.33767
# Poissons Ratio (z) = 0.19589 0.19589
#
# Static dielectric constant tensor:
#      x y z
#    x 1.795110 0.000000 0.000000 
#    y 0.000000 1.795110 0.000000 
#    z 0.000000 0.000000 1.761590 
# 
# From -- ./inp_files/3877.got.cif
#   From: 2010.05.17/outbox.cif.g08.bks.cpg/sg96_2_cif.got.tgz:3877.got - 2010.06.03 19:52:08.
