data_PCOD9550968
_publ_section_title
;
Structure prediction by ZEFSAII (Michael W. Deem and Ramdas Pophale) SiO2 
 PCOD9550968
Probable space group: P 43 21 2
;
_chemical_formula_sum "Si O2"
_cell_formula_units_Z 48
_cell_length_a 8.969961
_cell_length_b 8.969961
_cell_length_c 26.397107
_cell_angle_alpha 90.000000
_cell_angle_beta 90.000000
_cell_angle_gamma 90.000000
_cell_volume 2123.916518
_symmetry_space_group_name_H-M "P 43 21 2"
_symmetry_group_IT_number 96
_symmetry_cell_setting 'tetragonal'
loop_
_space_group_symop_operation_xyz
x,y,z
1/2-y,1/2+x,3/4+z
-x,-y,1/2+z
1/2+y,1/2-x,1/4+z
1/2+x,1/2-y,1/4-z
1/2-x,1/2+y,3/4-z
y,x,-z
-y,-x,1/2-z
loop_
_atom_site_type_symbol
_atom_site_label
_atom_site_fract_x
_atom_site_fract_y
_atom_site_fract_z
Si Si1 0.903215 0.799058 0.639913
Si Si2 0.020195 0.670214 0.333135
Si Si3 0.286284 0.864848 0.324305
Si Si4 0.468341 0.923690 0.807242
Si Si5 0.401299 0.143968 0.952046
Si Si6 0.939306 0.875864 0.853717
O O1 0.836664 0.729286 0.588861
O O2 0.980920 0.666473 0.669822
O O3 0.776055 0.876976 0.673525
O O4 0.029972 0.919689 0.626687
O O5 0.159788 0.749169 0.306848
O O6 0.032902 0.670483 0.395305
O O7 0.992280 0.501460 0.317431
O O8 0.384547 0.759581 0.361170
O O9 0.403257 0.958441 0.291535
O O10 0.187198 0.998612 0.348357
O O11 0.402967 0.847886 0.757441
O O12 0.504028 0.291291 0.947322
#
# Coordination Sequence:
#
# PCOD9550968 Si02
#       6
#     8   8   8   8   8   8
#     4  10  23  40  65  91 128 171 205 261 324 376
#     4  10  22  42  64  90 128 169 207 260 322 383
#     4  11  21  41  65  90 122 168 213 254 321 375
#     4  11  23  37  64  95 124 161 213 263 312 379
#     4  11  22  39  62  96 128 161 214 261 314 380
#     4  11  21  41  66  88 126 168 208 260 314 382
#
# _framework density 22.599755999999999
#
# number of rings (size 3 to 8) (size 9 to 14) (size 15 to 20)
#    0.000    1.333    5.000    2.000    0.000    4.667 
#    0.000    3.333    0.000    2.000    0.000    0.000 
#    0.000    0.000    0.000    0.000    0.000    0.000 
#
# Total GULP energy -267857.721881 kJ/mol
# GULP energy per Si atom -5580.369206 kJ/mol
# Density = 2.254832 g / cm^3
# Si number density = 22.599756 Si / 1000 Ang^3
#
#
#
# Elastic Constant Matrix: (Units=GPa)
#
#
# Indices 1 2 3 4 5 6 
#
# 1 143.6953 -1.2845 -3.3584 0.0000 0.0000 0.0000
# 2 -1.2845 143.6953 -3.3584 0.0000 0.0000 0.0000
# 3 -3.3584 -3.3584 44.9110 0.0000 0.0000 0.0000
# 4 0.0000 0.0000 0.0000 6.3632 0.0000 0.0000
# 5 0.0000 0.0000 0.0000 0.0000 6.3632 0.0000
# 6 0.0000 0.0000 0.0000 0.0000 0.0000 58.1115
#
#
#
# Elastic Compliance Matrix: (Units=1/GPa)
#
#
# Indices 1 2 3 4 5 6 
#
# 1 0.006972 0.000075 0.000527 0.000000 0.000000 0.000000
# 2 0.000075 0.006972 0.000527 0.000000 0.000000 0.000000
# 3 0.000527 0.000527 0.022345 0.000000 0.000000 0.000000
# 4 0.000000 0.000000 0.000000 0.157155 0.000000 0.000000
# 5 0.000000 0.000000 0.000000 0.000000 0.157155 0.000000
# 6 0.000000 0.000000 0.000000 0.000000 0.000000 0.017208
#
#
# Mechanical properties :
#
#
# Convention : Reuss Voigt Hill
#
# Bulk Modulus (GPa) = 25.94271 35.14433 30.54352
# Shear Modulus (GPa) = 13.21356 36.85441 25.03399
#
# Velocity S-wave (km/s) = 2.42063 4.04263 3.33184
# Velocity P-wave (km/s) = 4.39508 6.11351 5.32408
#
# Compressibility (1/GPa) = 0.03854648
#
# Stress axis : x y z
#
# Youngs Moduli (GPa) = 143.42773 143.42773 44.75255
#
# Poissons Ratio (x) = -0.01071 -0.02358
# Poissons Ratio (y) = -0.01071 -0.02358
# Poissons Ratio (z) = -0.07558 -0.07558
#
# Static dielectric constant tensor:
#      x y z
#    x 1.859390 0.000000 0.000000 
#    y 0.000000 1.859390 0.000000 
#    z 0.000000 0.000000 1.899510 
# 
# From -- ./inp_files/4469.got.cif
#   From: 2010.05.17/outbox.cif.g08.bks.cpg/sg96_3_cif.got.tgz:4469.got - 2010.06.03 19:52:08.
