data_PCOD9550391
_publ_section_title
;
Structure prediction by ZEFSAII (Michael W. Deem and Ramdas Pophale) SiO2 
 PCOD9550391
Probable space group: P 42 21 2
;
_chemical_formula_sum "Si O2"
_cell_formula_units_Z 34
_cell_length_a 11.962626
_cell_length_b 11.962626
_cell_length_c 10.865808
_cell_angle_alpha 90.000000
_cell_angle_beta 90.000000
_cell_angle_gamma 90.000000
_cell_volume 1554.945161
_symmetry_space_group_name_H-M "P 42 21 2"
_symmetry_group_IT_number 94
_symmetry_cell_setting 'tetragonal'
loop_
_space_group_symop_operation_xyz
x,y,z
1/2-y,1/2+x,1/2+z
-x,-y,z
1/2+y,1/2-x,1/2+z
1/2+x,1/2-y,1/2-z
1/2-x,1/2+y,1/2-z
y,x,-z
-y,-x,-z
loop_
_atom_site_type_symbol
_atom_site_label
_atom_site_fract_x
_atom_site_fract_y
_atom_site_fract_z
Si Si1 0.927000 0.183659 0.190632
Si Si2 0.619212 0.936832 0.723579
Si Si3 0.500000 0.500000 0.500000
Si Si4 0.736967 0.610758 0.110337
Si Si5 0.633524 0.196816 0.974785
O O1 0.852020 0.106265 0.278367
O O2 0.854410 0.273474 0.114387
O O3 0.988167 0.269764 0.282573
O O4 0.992283 0.107096 0.091911
O O5 0.656516 0.850530 0.829276
O O6 0.615311 0.875789 0.592263
O O7 0.500000 0.000000 0.746226
O O8 0.780148 0.488599 0.075161
O O9 0.682821 0.682821 0.000000
O O10 0.681296 0.318705 0.000000
#
# Coordination Sequence:
#
# PCOD9550391 Si02
#       5
#     8   8   2   8   8
#     4  12  27  48  73 114 145 203 250 318 384 458
#     4  12  27  47  77 108 154 196 253 319 392 467
#     4  12  28  48  74 108 158 188 254 314 392 456
#     4  12  27  48  75 112 150 201 258 313 386 464
#     4  12  26  50  74 106 153 200 259 314 385 466
#
# _framework density 21.865724
#
# number of rings (size 3 to 8) (size 9 to 14) (size 15 to 20)
#    0.000    0.000    8.235    0.000    8.235    0.471 
#    0.000    0.000    0.000    0.000    0.000    0.000 
#    0.000    0.000    0.000    0.000    0.000    0.000 
#
# Total GULP energy -189602.431914 kJ/mol
# GULP energy per Si atom -5576.542115 kJ/mol
# Density = 2.181596 g / cm^3
# Si number density = 21.865724 Si / 1000 Ang^3
#
#
#
# Elastic Constant Matrix: (Units=GPa)
#
#
# Indices 1 2 3 4 5 6 
#
# 1 64.9510 39.3826 40.0680 0.0000 0.0000 0.0000
# 2 39.3826 64.9492 40.0678 0.0000 0.0000 0.0000
# 3 40.0680 40.0678 120.0534 0.0000 0.0000 0.0000
# 4 0.0000 0.0000 0.0000 67.5844 0.0000 0.0000
# 5 0.0000 0.0000 0.0000 0.0000 67.6137 0.0000
# 6 0.0000 0.0000 0.0000 0.0000 0.0000 15.5739
#
#
#
# Elastic Compliance Matrix: (Units=1/GPa)
#
#
# Indices 1 2 3 4 5 6 
#
# 1 0.026000 -0.013112 -0.004302 0.000000 0.000000 0.000000
# 2 -0.013112 0.026001 -0.004302 0.000000 0.000000 0.000000
# 3 -0.004302 -0.004302 0.011201 0.000000 0.000000 0.000000
# 4 0.000000 0.000000 0.000000 0.014796 0.000000 0.000000
# 5 0.000000 0.000000 0.000000 0.000000 0.014790 0.000000
# 6 0.000000 0.000000 0.000000 0.000000 0.000000 0.064210
#
#
# Mechanical properties :
#
#
# Convention : Reuss Voigt Hill
#
# Bulk Modulus (GPa) = 50.57680 54.33226 52.45453
# Shear Modulus (GPa) = 24.15243 38.85008 31.50125
#
# Velocity S-wave (km/s) = 3.32713 4.21973 3.79973
# Velocity P-wave (km/s) = 6.15959 6.97450 6.57967
#
# Compressibility (1/GPa) = 0.01977191
#
# Stress axis : x y z
#
# Youngs Moduli (GPa) = 38.46157 38.46034 89.27810
#
# Poissons Ratio (x) = 0.50428 0.38403
# Poissons Ratio (y) = 0.50430 0.38405
# Poissons Ratio (z) = 0.16544 0.16545
#
# Static dielectric constant tensor:
#      x y z
#    x 1.109610 0.000000 0.000000 
#    y 0.000000 1.108470 0.000000 
#    z 0.000000 0.000000 2.114250 
# 
# From -- ./inp_files/2319.got.cif
#   From: 2010.05.17/outbox.cif.g08.bks.cpg/sg94_2_cif.got.tgz:2319.got - 2010.06.03 19:43:16.
