data_PCOD9550779
_publ_section_title
;
Structure prediction by ZEFSAII (Michael W. Deem and Ramdas Pophale) SiO2 
 PCOD9550779
Probable space group: P 43 21 2
;
_chemical_formula_sum "Si O2"
_cell_formula_units_Z 56
_cell_length_a 13.636146
_cell_length_b 13.636146
_cell_length_c 11.559484
_cell_angle_alpha 90.000000
_cell_angle_beta 90.000000
_cell_angle_gamma 90.000000
_cell_volume 2149.422215
_symmetry_space_group_name_H-M "P 43 21 2"
_symmetry_group_IT_number 96
_symmetry_cell_setting 'tetragonal'
loop_
_space_group_symop_operation_xyz
x,y,z
1/2-y,1/2+x,3/4+z
-x,-y,1/2+z
1/2+y,1/2-x,1/4+z
1/2+x,1/2-y,1/4-z
1/2-x,1/2+y,3/4-z
y,x,-z
-y,-x,1/2-z
loop_
_atom_site_type_symbol
_atom_site_label
_atom_site_fract_x
_atom_site_fract_y
_atom_site_fract_z
Si Si1 0.437015 0.437015 0.500000
Si Si2 0.988474 0.689213 0.454671
Si Si3 0.877729 0.122272 0.250000
Si Si4 0.633556 0.317098 0.460425
Si Si5 0.016564 0.294044 0.195739
Si Si6 0.828573 0.617771 0.833550
Si Si7 0.128132 0.873059 0.499479
Si Si8 0.328622 0.113942 0.419676
O O1 0.543730 0.394248 0.472535
O O2 0.418812 0.382538 0.622491
O O3 0.053639 0.783658 0.490320
O O4 0.061406 0.627192 0.377985
O O5 0.898087 0.734666 0.383807
O O6 0.979266 0.641572 0.579935
O O7 0.925536 0.102947 0.378134
O O8 0.917996 0.233015 0.226556
O O9 0.717009 0.393834 0.426670
O O10 0.646338 0.256193 0.579634
O O11 0.060698 0.357098 0.298194
O O12 0.741998 0.657173 0.749421
O O13 0.813228 0.501904 0.822184
O O14 0.824424 0.664049 0.961877
#
# Coordination Sequence:
#
# PCOD9550779 Si02
#       8
#     4   8   4   8   8   8   8   8
#     4  10  19  38  74 104 144 185 240 302 366 445
#     4  10  23  45  68  98 144 190 229 293 362 447
#     4  10  23  46  68 104 148 189 236 304 368 431
#     4  11  22  43  72 106 139 190 241 302 366 441
#     4  11  25  43  70 105 142 185 242 300 367 437
#     4  12  25  45  71 109 139 187 246 308 363 452
#     4  10  20  43  69 101 146 184 234 294 370 431
#     4  12  24  46  70 101 144 189 242 296 379 437
#
# _framework density 26.053512000000001
#
# number of rings (size 3 to 8) (size 9 to 14) (size 15 to 20)
#    0.000    1.143    2.857    3.429    0.000    2.857 
#   10.286    1.429    0.000    0.000    0.000    0.000 
#    0.000    0.000    0.000    0.000    0.000    0.000 
#
# Total GULP energy -312380.948317 kJ/mol
# GULP energy per Si atom -5578.231220 kJ/mol
# Density = 2.599421 g / cm^3
# Si number density = 26.053512 Si / 1000 Ang^3
#
#
#
# Elastic Constant Matrix: (Units=GPa)
#
#
# Indices 1 2 3 4 5 6 
#
# 1 74.7320 31.7696 22.3009 0.0000 0.0000 0.0000
# 2 31.7696 74.7326 22.3008 0.0000 0.0000 0.0000
# 3 22.3009 22.3008 167.6924 0.0000 0.0000 0.0000
# 4 0.0000 0.0000 0.0000 25.0543 0.0000 0.0000
# 5 0.0000 0.0000 0.0000 0.0000 25.0543 0.0000
# 6 0.0000 0.0000 0.0000 0.0000 0.0000 43.2239
#
#
#
# Elastic Compliance Matrix: (Units=1/GPa)
#
#
# Indices 1 2 3 4 5 6 
#
# 1 0.016610 -0.006666 -0.001322 0.000000 0.000000 0.000000
# 2 -0.006666 0.016610 -0.001322 0.000000 0.000000 0.000000
# 3 -0.001322 -0.001322 0.006315 0.000000 0.000000 0.000000
# 4 0.000000 0.000000 0.000000 0.039913 0.000000 0.000000
# 5 0.000000 0.000000 0.000000 0.000000 0.039913 0.000000
# 6 0.000000 0.000000 0.000000 0.000000 0.000000 0.023135
#
#
# Mechanical properties :
#
#
# Convention : Reuss Voigt Hill
#
# Bulk Modulus (GPa) = 47.81883 52.21107 50.01495
# Shear Modulus (GPa) = 29.74616 34.71890 32.23253
#
# Velocity S-wave (km/s) = 3.38262 3.65444 3.52115
# Velocity P-wave (km/s) = 5.80087 6.15549 5.98081
#
# Compressibility (1/GPa) = 0.02091226
#
# Stress axis : x y z
#
# Youngs Moduli (GPa) = 60.20578 60.20628 158.35312
#
# Poissons Ratio (x) = 0.40136 0.20940
# Poissons Ratio (y) = 0.40135 0.20939
# Poissons Ratio (z) = 0.07961 0.07961
#
# Static dielectric constant tensor:
#      x y z
#    x 2.105930 0.000000 0.000000 
#    y 0.000000 2.105930 0.000000 
#    z 0.000000 0.000000 2.343030 
# 
# From -- ./inp_files/2315.got.cif
#   From: 2010.05.17/outbox.cif.g08.bks.cpg/sg96_2_cif.got.tgz:2315.got - 2010.06.03 19:52:08.
