data_PCOD9550971
_publ_section_title
;
Structure prediction by ZEFSAII (Michael W. Deem and Ramdas Pophale) SiO2 
 PCOD9550971
Probable space group: P 43 21 2
;
_chemical_formula_sum "Si O2"
_cell_formula_units_Z 56
_cell_length_a 14.503251
_cell_length_b 14.503251
_cell_length_c 11.967747
_cell_angle_alpha 90.000000
_cell_angle_beta 90.000000
_cell_angle_gamma 90.000000
_cell_volume 2517.347240
_symmetry_space_group_name_H-M "P 43 21 2"
_symmetry_group_IT_number 96
_symmetry_cell_setting 'tetragonal'
loop_
_space_group_symop_operation_xyz
x,y,z
1/2-y,1/2+x,3/4+z
-x,-y,1/2+z
1/2+y,1/2-x,1/4+z
1/2+x,1/2-y,1/4-z
1/2-x,1/2+y,3/4-z
y,x,-z
-y,-x,1/2-z
loop_
_atom_site_type_symbol
_atom_site_label
_atom_site_fract_x
_atom_site_fract_y
_atom_site_fract_z
Si Si1 0.064736 0.381353 0.681274
Si Si2 0.569746 0.312461 0.095309
Si Si3 0.128671 0.857775 0.614858
Si Si4 0.059425 0.169434 0.407773
Si Si5 0.080350 0.374849 0.433726
Si Si6 0.165665 0.281633 0.865091
Si Si7 0.887468 0.431304 0.318440
O O1 0.112432 0.389376 0.562664
O O2 0.098944 0.302245 0.761797
O O3 0.079515 0.475369 0.753899
O O4 0.961790 0.366908 0.634061
O O5 0.480516 0.350451 0.160632
O O6 0.673034 0.330992 0.135404
O O7 0.553489 0.200672 0.100202
O O8 0.565622 0.357172 0.972157
O O9 0.139153 0.860848 0.750000
O O10 0.181829 0.766082 0.579943
O O11 0.171074 0.950593 0.566800
O O12 0.108134 0.108134 0.500000
O O13 0.102318 0.270867 0.407954
O O14 0.975451 0.393233 0.386186
O O15 0.132835 0.343183 0.971122
#
# Coordination Sequence:
#
# PCOD9550971 Si02
#       7
#     8   8   8   8   8   8   8
#     4  12  24  38  65 105 142 169 223 291 363 432
#     4  11  23  41  70 101 139 179 235 302 357 418
#     4  10  22  42  67  97 131 181 242 293 347 429
#     4  11  25  44  64  89 135 194 245 279 348 439
#     4  12  23  40  64  93 137 185 221 284 363 430
#     4  12  23  42  68 108 140 175 235 301 364 430
#     4  12  22  41  68 102 138 180 225 291 366 430
#
# _framework density 22.245640000000002
#
# number of rings (size 3 to 8) (size 9 to 14) (size 15 to 20)
#    0.000    0.571    4.286    5.571    0.000    1.143 
#    0.000    0.000    0.000    2.571    0.000    0.000 
#    0.000    0.000    0.000    0.000    0.000    0.000 
#
# Total GULP energy -312512.225338 kJ/mol
# GULP energy per Si atom -5580.575452 kJ/mol
# Density = 2.219501 g / cm^3
# Si number density = 22.245640 Si / 1000 Ang^3
#
#
#
# Elastic Constant Matrix: (Units=GPa)
#
#
# Indices 1 2 3 4 5 6 
#
# 1 83.1433 16.3947 0.7201 0.0000 0.0000 0.0000
# 2 16.3947 83.1434 0.7201 0.0000 0.0000 0.0000
# 3 0.7201 0.7201 74.7299 0.0000 0.0000 0.0000
# 4 0.0000 0.0000 0.0000 19.3415 0.0000 0.0000
# 5 0.0000 0.0000 0.0000 0.0000 19.3412 0.0000
# 6 0.0000 0.0000 0.0000 0.0000 0.0000 23.1003
#
#
#
# Elastic Compliance Matrix: (Units=1/GPa)
#
#
# Indices 1 2 3 4 5 6 
#
# 1 0.012515 -0.002467 -0.000097 0.000000 0.000000 0.000000
# 2 -0.002467 0.012515 -0.000097 0.000000 0.000000 0.000000
# 3 -0.000097 -0.000097 0.013383 0.000000 0.000000 0.000000
# 4 0.000000 0.000000 0.000000 0.051702 0.000000 0.000000
# 5 0.000000 0.000000 0.000000 0.000000 0.051703 0.000000
# 6 0.000000 0.000000 0.000000 0.000000 0.000000 0.043290
#
#
# Mechanical properties :
#
#
# Convention : Reuss Voigt Hill
#
# Bulk Modulus (GPa) = 30.21904 30.74294 30.48099
# Shear Modulus (GPa) = 24.81893 27.23539 26.02716
#
# Velocity S-wave (km/s) = 3.34380 3.50280 3.42422
# Velocity P-wave (km/s) = 5.34057 5.49629 5.41899
#
# Compressibility (1/GPa) = 0.03309172
#
# Stress axis : x y z
#
# Youngs Moduli (GPa) = 79.90602 79.90616 74.71948
#
# Poissons Ratio (x) = 0.19712 0.00723
# Poissons Ratio (y) = 0.19712 0.00723
# Poissons Ratio (z) = 0.00774 0.00774
#
# Static dielectric constant tensor:
#      x y z
#    x 1.890280 0.000000 0.000000 
#    y 0.000000 1.890280 0.000000 
#    z 0.000000 0.000000 1.867790 
# 
# From -- ./inp_files/2275.got.cif
#   From: 2010.05.17/outbox.cif.g08.bks.cpg/sg96_2_cif.got.tgz:2275.got - 2010.06.03 19:52:08.
