data_PCOD9550670
_publ_section_title
;
Structure prediction by ZEFSAII (Michael W. Deem and Ramdas Pophale) SiO2 
 PCOD9550670
Probable space group: P 43 2 2
;
_chemical_formula_sum "Si O2"
_cell_formula_units_Z 56
_cell_length_a 15.423770
_cell_length_b 15.423770
_cell_length_c 10.887428
_cell_angle_alpha 90.000000
_cell_angle_beta 90.000000
_cell_angle_gamma 90.000000
_cell_volume 2590.039436
_symmetry_space_group_name_H-M "P 43 2 2"
_symmetry_group_IT_number 95
_symmetry_cell_setting 'tetragonal'
loop_
_space_group_symop_operation_xyz
x,y,z
-y,x,3/4+z
-x,-y,1/2+z
y,-x,1/4+z
x,-y,1/2-z
-x,y,-z
y,x,1/4-z
-y,-x,3/4-z
loop_
_atom_site_type_symbol
_atom_site_label
_atom_site_fract_x
_atom_site_fract_y
_atom_site_fract_z
Si Si1 0.279426 0.769153 0.098056
Si Si2 0.807662 0.945603 0.623687
Si Si3 0.914063 0.212606 0.320675
Si Si4 0.295717 0.418970 0.661137
Si Si5 0.660874 0.198450 0.849576
Si Si6 0.516843 0.942738 0.633536
Si Si7 0.848228 0.643270 0.984592
O O1 0.345390 0.792542 0.203113
O O2 0.204513 0.697923 0.118437
O O3 0.233955 0.853425 0.045824
O O4 0.334764 0.730042 0.989021
O O5 0.901584 0.901584 0.625000
O O6 0.737044 0.869961 0.627587
O O7 0.797350 0.000000 0.750000
O O8 0.793781 0.993878 0.493451
O O9 0.876947 0.123054 0.375000
O O10 0.892911 0.287608 0.421491
O O11 0.290630 0.500000 0.750000
O O12 0.394467 0.394467 0.625000
O O13 0.223214 0.416752 0.554969
O O14 0.705384 0.294617 0.875000
O O15 0.575019 0.144595 0.889423
O O16 0.500000 0.987467 0.500000
O O17 0.421800 0.915128 0.676981
O O18 0.552870 0.000000 0.750000
#
# Coordination Sequence:
#
# PCOD9550670 Si02
#       7
#     8   8   8   8   8   8   8
#     4   9  17  35  64  89 117 164 212 261 318 390
#     4  11  23  39  61  87 124 168 220 275 326 395
#     4   9  19  38  65  91 121 163 215 270 326 393
#     4   9  17  31  58  90 121 163 213 268 319 390
#     4  11  23  40  65  84 122 175 217 261 324 404
#     4  12  28  43  63  99 139 170 212 281 342 405
#     4   9  20  39  63  94 127 162 217 270 332 403
#
# _framework density 21.621293000000001
#
# number of rings (size 3 to 8) (size 9 to 14) (size 15 to 20)
#    0.000    2.000    1.429    3.857    2.000    2.286 
#    0.000    0.000    0.000   11.143    0.000    0.000 
#    0.000    0.000    0.000    0.000    0.000    0.000 
#
# Total GULP energy -311844.129703 kJ/mol
# GULP energy per Si atom -5568.645173 kJ/mol
# Density = 2.157208 g / cm^3
# Si number density = 21.621293 Si / 1000 Ang^3
#
#
#
# Elastic Constant Matrix: (Units=GPa)
#
#
# Indices 1 2 3 4 5 6 
#
# 1 60.5264 24.7208 18.7933 0.0000 0.0000 0.0000
# 2 24.7208 60.5264 18.7938 0.0000 0.0000 0.0000
# 3 18.7933 18.7938 85.8352 0.0000 0.0000 0.0000
# 4 0.0000 0.0000 0.0000 27.3296 0.0000 0.0000
# 5 0.0000 0.0000 0.0000 0.0000 27.3304 0.0000
# 6 0.0000 0.0000 0.0000 0.0000 0.0000 23.9082
#
#
#
# Elastic Compliance Matrix: (Units=1/GPa)
#
#
# Indices 1 2 3 4 5 6 
#
# 1 0.020456 -0.007472 -0.002843 0.000000 0.000000 0.000000
# 2 -0.007472 0.020456 -0.002843 0.000000 0.000000 0.000000
# 3 -0.002843 -0.002843 0.012895 0.000000 0.000000 0.000000
# 4 0.000000 0.000000 0.000000 0.036590 0.000000 0.000000
# 5 0.000000 0.000000 0.000000 0.000000 0.036589 0.000000
# 6 0.000000 0.000000 0.000000 0.000000 0.000000 0.041827
#
#
# Mechanical properties :
#
#
# Convention : Reuss Voigt Hill
#
# Bulk Modulus (GPa) = 36.37444 36.83376 36.60410
# Shear Modulus (GPa) = 24.47454 25.35231 24.91342
#
# Velocity S-wave (km/s) = 3.36812 3.42798 3.39818
# Velocity P-wave (km/s) = 5.65558 5.72197 5.68887
#
# Compressibility (1/GPa) = 0.02749183
#
# Stress axis : x y z
#
# Youngs Moduli (GPa) = 48.88475 48.88455 77.54875
#
# Poissons Ratio (x) = 0.36528 0.22045
# Poissons Ratio (y) = 0.36528 0.22047
# Poissons Ratio (z) = 0.13897 0.13898
#
# Static dielectric constant tensor:
#      x y z
#    x 1.836860 0.000000 0.000000 
#    y 0.000000 1.836860 0.000000 
#    z 0.000000 0.000000 1.869410 
# 
# From -- ./inp_files/3963.got.cif
#   From: 2010.05.17/outbox.cif.g08.bks.cpg/sg95_2_cif.got.tgz:3963.got - 2010.06.03 19:46:49.
