data_PCOD9550658
_publ_section_title
;
Structure prediction by ZEFSAII (Michael W. Deem and Ramdas Pophale) SiO2 
 PCOD9550658
Probable space group: P 43 2 2
;
_chemical_formula_sum "Si O2"
_cell_formula_units_Z 52
_cell_length_a 18.626491
_cell_length_b 18.626491
_cell_length_c 8.009159
_cell_angle_alpha 90.000000
_cell_angle_beta 90.000000
_cell_angle_gamma 90.000000
_cell_volume 2778.747016
_symmetry_space_group_name_H-M "P 43 2 2"
_symmetry_group_IT_number 95
_symmetry_cell_setting 'tetragonal'
loop_
_space_group_symop_operation_xyz
x,y,z
-y,x,3/4+z
-x,-y,1/2+z
y,-x,1/4+z
x,-y,1/2-z
-x,y,-z
y,x,1/4-z
-y,-x,3/4-z
loop_
_atom_site_type_symbol
_atom_site_label
_atom_site_fract_x
_atom_site_fract_y
_atom_site_fract_z
Si Si1 0.773775 0.398499 0.518809
Si Si2 0.309919 0.000000 0.750000
Si Si3 0.130809 0.500000 0.250000
Si Si4 0.187194 0.709154 0.473887
Si Si5 0.704713 0.500000 0.250000
Si Si6 0.053002 0.370194 0.152689
Si Si7 0.632988 0.335611 0.697837
Si Si8 0.263221 0.145657 0.600426
O O1 0.820613 0.443611 0.649536
O O2 0.752853 0.454873 0.376971
O O3 0.700950 0.367897 0.600508
O O4 0.814237 0.330499 0.439104
O O5 0.263613 0.067298 0.683227
O O6 0.357053 0.979403 0.586850
O O7 0.080238 0.451676 0.133953
O O8 0.226095 0.773906 0.375000
O O9 0.124293 0.677961 0.361125
O O10 0.252159 0.653188 0.511833
O O11 0.150565 0.725154 0.651501
O O12 0.660040 0.560162 0.346378
O O13 0.000000 0.352678 0.000000
O O14 0.626473 0.373528 0.875000
O O15 0.191555 0.191555 0.625000
#
# Coordination Sequence:
#
# PCOD9550658 Si02
#       8
#     8   4   4   8   4   8   8   8
#     4  12  23  41  64  96 128 176 235 280 337 409
#     4  12  26  44  66 100 144 176 226 290 340 414
#     4  12  26  40  63  89 132 184 232 272 342 410
#     4  11  21  41  67  91 127 174 227 283 326 388
#     4  12  22  36  65  95 124 160 216 290 358 400
#     4  12  26  43  60  96 140 180 219 271 342 413
#     4  11  23  40  64  93 124 167 227 295 331 403
#     4  12  22  42  69 100 133 181 233 285 335 405
#
# _framework density 18.713470999999998
#
# number of rings (size 3 to 8) (size 9 to 14) (size 15 to 20)
#    0.000    0.308    6.154    5.077    1.077    0.000 
#    0.000    0.000    0.000   11.077    0.000    3.231 
#    0.000    0.000    0.000    0.000    0.000    0.000 
#
# Total GULP energy -290621.695002 kJ/mol
# GULP energy per Si atom -5588.878750 kJ/mol
# Density = 1.867088 g / cm^3
# Si number density = 18.713471 Si / 1000 Ang^3
#
#
#
# Elastic Constant Matrix: (Units=GPa)
#
#
# Indices 1 2 3 4 5 6 
#
# 1 113.9001 57.4447 57.8305 0.0000 0.0000 0.0000
# 2 57.4447 113.8990 57.8301 0.0000 0.0000 0.0000
# 3 57.8305 57.8301 133.2496 0.0000 0.0000 0.0000
# 4 0.0000 0.0000 0.0000 36.9277 0.0000 0.0000
# 5 0.0000 0.0000 0.0000 0.0000 36.9286 0.0000
# 6 0.0000 0.0000 0.0000 0.0000 0.0000 -57.9063
#
#
#
# Elastic Compliance Matrix: (Units=1/GPa)
#
#
# Indices 1 2 3 4 5 6 
#
# 1 0.012984 -0.004729 -0.003582 0.000000 0.000000 0.000000
# 2 -0.004729 0.012984 -0.003582 0.000000 0.000000 0.000000
# 3 -0.003582 -0.003582 0.010614 0.000000 0.000000 0.000000
# 4 0.000000 0.000000 0.000000 0.027080 0.000000 0.000000
# 5 0.000000 0.000000 0.000000 0.000000 0.027079 0.000000
# 6 0.000000 0.000000 0.000000 0.000000 0.000000 -0.017269
#
#
# Mechanical properties :
#
#
# Convention : Reuss Voigt Hill
#
# Bulk Modulus (GPa) = 78.16525 78.58436 78.37481
# Shear Modulus (GPa) = 49.24902 15.71956 32.48429
#
# Velocity S-wave (km/s) = 5.13562 2.90144 4.17091
# Velocity P-wave (km/s) = 8.77646 7.30131 8.07265
#
# Compressibility (1/GPa) = 0.01279341
#
# Stress axis : x y z
#
# Youngs Moduli (GPa) = 77.01915 77.01845 94.21304
#
# Poissons Ratio (x) = 0.36425 0.33751
# Poissons Ratio (y) = 0.36426 0.33751
# Poissons Ratio (z) = 0.27591 0.27591
#
# Static dielectric constant tensor:
#      x y z
#    x 1.649260 0.000000 0.000000 
#    y 0.000000 1.649260 0.000000 
#    z 0.000000 0.000000 1.700440 
# 
# From -- ./inp_files/2793.got.cif
#   From: 2010.05.17/outbox.cif.g08.bks.cpg/sg95_2_cif.got.tgz:2793.got - 2010.06.03 19:46:49.
