data_PCOD9550597
_publ_section_title
;
Structure prediction by ZEFSAII (Michael W. Deem and Ramdas Pophale) SiO2 
 PCOD9550597
Probable space group: P 43 2 2
;
_chemical_formula_sum "Si O2"
_cell_formula_units_Z 32
_cell_length_a 10.286460
_cell_length_b 10.286460
_cell_length_c 16.378262
_cell_angle_alpha 90.000000
_cell_angle_beta 90.000000
_cell_angle_gamma 90.000000
_cell_volume 1733.004528
_symmetry_space_group_name_H-M "P 43 2 2"
_symmetry_group_IT_number 95
_symmetry_cell_setting 'tetragonal'
loop_
_space_group_symop_operation_xyz
x,y,z
-y,x,3/4+z
-x,-y,1/2+z
y,-x,1/4+z
x,-y,1/2-z
-x,y,-z
y,x,1/4-z
-y,-x,3/4-z
loop_
_atom_site_type_symbol
_atom_site_label
_atom_site_fract_x
_atom_site_fract_y
_atom_site_fract_z
Si Si1 0.518530 0.962010 0.902338
Si Si2 0.292451 0.366274 0.800928
Si Si3 0.466162 0.260487 0.096790
Si Si4 0.746159 0.885116 0.189222
O O1 0.614636 0.838749 0.895285
O O2 0.386074 0.923165 0.857232
O O3 0.551790 0.109158 0.877767
O O4 0.500000 0.969035 0.000000
O O5 0.315421 0.500000 0.750000
O O6 0.412870 0.326380 0.856640
O O7 0.273433 0.249503 0.737247
O O8 0.341181 0.341181 0.125000
O O9 0.500000 0.266938 0.000000
O O10 0.859178 0.859178 0.125000
O O11 0.778529 0.000000 0.250000
#
# Coordination Sequence:
#
# PCOD9550597 Si02
#       4
#     8   8   8   8
#     4  10  22  41  63  91 134 161 213 275 322 377
#     4  11  23  39  68  97 126 166 226 267 317 398
#     4  11  25  40  61  94 132 165 207 269 337 389
#     4  12  23  42  70 100 131 176 225 273 332 397
#
# _framework density 18.465040999999999
#
# number of rings (size 3 to 8) (size 9 to 14) (size 15 to 20)
#    0.000    1.000    7.500    0.750    7.000    0.000 
#    0.000    1.250    0.000    0.000    0.000    0.000 
#    0.000    0.000    0.000    0.000    0.000    0.000 
#
# Total GULP energy -178588.700305 kJ/mol
# GULP energy per Si atom -5580.896885 kJ/mol
# Density = 1.842301 g / cm^3
# Si number density = 18.465041 Si / 1000 Ang^3
#
#
#
# Elastic Constant Matrix: (Units=GPa)
#
#
# Indices 1 2 3 4 5 6 
#
# 1 157.8016 67.6806 51.0146 0.0000 0.0000 0.0000
# 2 67.6806 157.8016 51.0146 0.0000 0.0000 0.0000
# 3 51.0146 51.0146 83.7333 0.0000 0.0000 0.0000
# 4 0.0000 0.0000 0.0000 35.6061 0.0000 0.0000
# 5 0.0000 0.0000 0.0000 0.0000 35.6061 0.0000
# 6 0.0000 0.0000 0.0000 0.0000 0.0000 20.5957
#
#
#
# Elastic Compliance Matrix: (Units=1/GPa)
#
#
# Indices 1 2 3 4 5 6 
#
# 1 0.008610 -0.002487 -0.003730 0.000000 0.000000 0.000000
# 2 -0.002487 0.008610 -0.003730 0.000000 0.000000 0.000000
# 3 -0.003730 -0.003730 0.016488 0.000000 0.000000 0.000000
# 4 0.000000 0.000000 0.000000 0.028085 0.000000 0.000000
# 5 0.000000 0.000000 0.000000 0.000000 0.028085 0.000000
# 6 0.000000 0.000000 0.000000 0.000000 0.000000 0.048554
#
#
# Mechanical properties :
#
#
# Convention : Reuss Voigt Hill
#
# Bulk Modulus (GPa) = 72.39857 82.08403 77.24130
# Shear Modulus (GPa) = 30.68797 33.67003 32.17900
#
# Velocity S-wave (km/s) = 4.08112 4.27482 4.17909
# Velocity P-wave (km/s) = 7.84226 8.30155 8.07517
#
# Compressibility (1/GPa) = 0.01381243
#
# Stress axis : x y z
#
# Youngs Moduli (GPa) = 116.15007 116.15007 60.64958
#
# Poissons Ratio (x) = 0.28882 0.22625
# Poissons Ratio (y) = 0.28882 0.22625
# Poissons Ratio (z) = 0.43329 0.43329
#
# Static dielectric constant tensor:
#      x y z
#    x 1.636860 0.000000 0.000000 
#    y 0.000000 1.636860 0.000000 
#    z 0.000000 0.000000 1.657470 
# 
# From -- ./inp_files/6097.got.cif
#   From: 2010.05.17/outbox.cif.g08.bks.cpg/sg95_4_cif.got.tgz:6097.got - 2010.06.03 19:46:49.
