data_PCOD9550557
_publ_section_title
;
Structure prediction by ZEFSAII (Michael W. Deem and Ramdas Pophale) SiO2 
 PCOD9550557
Probable space group: P 43 2 2
;
_chemical_formula_sum "Si O2"
_cell_formula_units_Z 40
_cell_length_a 18.895881
_cell_length_b 18.895881
_cell_length_c 5.423010
_cell_angle_alpha 90.000000
_cell_angle_beta 90.000000
_cell_angle_gamma 90.000000
_cell_volume 1936.309141
_symmetry_space_group_name_H-M "P 43 2 2"
_symmetry_group_IT_number 95
_symmetry_cell_setting 'tetragonal'
loop_
_space_group_symop_operation_xyz
x,y,z
-y,x,3/4+z
-x,-y,1/2+z
y,-x,1/4+z
x,-y,1/2-z
-x,y,-z
y,x,1/4-z
-y,-x,3/4-z
loop_
_atom_site_type_symbol
_atom_site_label
_atom_site_fract_x
_atom_site_fract_y
_atom_site_fract_z
Si Si1 0.890344 0.359472 0.162600
Si Si2 0.344957 0.764891 0.758446
Si Si3 0.543089 0.000000 0.750000
Si Si4 0.457871 0.652057 0.751137
Si Si5 0.711874 0.000000 0.250000
Si Si6 0.868658 0.758987 0.700593
O O1 0.818325 0.380054 0.294479
O O2 0.952606 0.342709 0.349266
O O3 0.927244 0.411801 0.971441
O O4 0.879101 0.282404 0.051050
O O5 0.290737 0.709264 0.875000
O O6 0.406898 0.715577 0.653809
O O7 0.294067 0.813968 0.591204
O O8 0.500000 0.010241 0.500000
O O9 0.500000 0.629714 0.500000
O O10 0.500000 0.676668 0.000000
O O11 0.410331 0.589670 0.875000
O O12 0.757949 0.943270 0.405245
O O13 0.832220 0.832220 0.625000
#
# Coordination Sequence:
#
# PCOD9550557 Si02
#       6
#     8   8   4   8   4   8
#     4  11  22  42  61  92 137 178 225 284 338 411
#     4  10  23  40  64  97 132 169 225 290 348 409
#     4  12  27  44  62  90 134 199 236 274 342 419
#     4  11  26  47  71  98 133 178 232 295 362 430
#     4  10  21  38  62  96 140 173 222 288 332 413
#     4  11  21  37  69  95 135 176 229 284 352 407
#
# _framework density 20.657859999999999
#
# number of rings (size 3 to 8) (size 9 to 14) (size 15 to 20)
#    0.000    1.200    4.000    1.200    5.600    1.600 
#    0.000    0.000    0.000    0.000    0.000    0.000 
#   42.000    0.000    0.000    0.000    0.000    0.000 
#
# Total GULP energy -222850.767570 kJ/mol
# GULP energy per Si atom -5571.269189 kJ/mol
# Density = 2.061084 g / cm^3
# Si number density = 20.657860 Si / 1000 Ang^3
#
#
#
# Elastic Constant Matrix: (Units=GPa)
#
#
# Indices 1 2 3 4 5 6 
#
# 1 122.4156 4.0377 20.4250 0.0000 0.0000 0.0000
# 2 4.0377 122.4009 20.4290 0.0000 0.0000 0.0000
# 3 20.4250 20.4290 64.7569 0.0000 0.0000 0.0000
# 4 0.0000 0.0000 0.0000 30.9940 0.0000 0.0000
# 5 0.0000 0.0000 0.0000 0.0000 30.9953 0.0000
# 6 0.0000 0.0000 0.0000 0.0000 0.0000 9.6003
#
#
#
# Elastic Compliance Matrix: (Units=1/GPa)
#
#
# Indices 1 2 3 4 5 6 
#
# 1 0.008626 0.000179 -0.002777 0.000000 0.000000 0.000000
# 2 0.000179 0.008628 -0.002778 0.000000 0.000000 0.000000
# 3 -0.002777 -0.002778 0.017195 0.000000 0.000000 0.000000
# 4 0.000000 0.000000 0.000000 0.032264 0.000000 0.000000
# 5 0.000000 0.000000 0.000000 0.000000 0.032263 0.000000
# 6 0.000000 0.000000 0.000000 0.000000 0.000000 0.104164
#
#
# Mechanical properties :
#
#
# Convention : Reuss Voigt Hill
#
# Bulk Modulus (GPa) = 42.20174 44.37300 43.28737
# Shear Modulus (GPa) = 22.54370 31.96336 27.25353
#
# Velocity S-wave (km/s) = 3.30705 3.93781 3.63613
# Velocity P-wave (km/s) = 5.92076 6.49628 6.21519
#
# Compressibility (1/GPa) = 0.02369571
#
# Stress axis : x y z
#
# Youngs Moduli (GPa) = 115.92338 115.90618 58.15702
#
# Poissons Ratio (x) = -0.02074 0.16152
# Poissons Ratio (y) = -0.02075 0.16157
# Poissons Ratio (z) = 0.32196 0.32202
#
# Static dielectric constant tensor:
#      x y z
#    x 1.715620 0.000000 0.000000 
#    y 0.000000 1.715650 0.000000 
#    z 0.000000 0.000000 1.771160 
# 
# From -- ./inp_files/852.got.cif
#   From: 2010.05.17/outbox.cif.g08.bks.cpg/sg95_1_cif.got.tgz:852.got - 2010.06.03 19:46:49.
