data_PCOD9550536
_publ_section_title
;
Structure prediction by ZEFSAII (Michael W. Deem and Ramdas Pophale) SiO2 
 PCOD9550536
Probable space group: P 43 2 2
;
_chemical_formula_sum "Si O2"
_cell_formula_units_Z 48
_cell_length_a 8.690754
_cell_length_b 8.690754
_cell_length_c 29.337756
_cell_angle_alpha 90.000000
_cell_angle_beta 90.000000
_cell_angle_gamma 90.000000
_cell_volume 2215.857390
_symmetry_space_group_name_H-M "P 43 2 2"
_symmetry_group_IT_number 95
_symmetry_cell_setting 'tetragonal'
loop_
_space_group_symop_operation_xyz
x,y,z
-y,x,3/4+z
-x,-y,1/2+z
y,-x,1/4+z
x,-y,1/2-z
-x,y,-z
y,x,1/4-z
-y,-x,3/4-z
loop_
_atom_site_type_symbol
_atom_site_label
_atom_site_fract_x
_atom_site_fract_y
_atom_site_fract_z
Si Si1 0.487684 0.500584 0.179635
Si Si2 0.792744 0.967685 0.895008
Si Si3 0.194410 0.652853 0.279554
Si Si4 0.237263 0.500000 0.750000
Si Si5 0.834951 0.821527 0.985228
Si Si6 0.529130 0.000000 0.250000
Si Si7 0.683233 0.178913 0.696819
O O1 0.495888 0.495888 0.125000
O O2 0.363404 0.377609 0.198618
O O3 0.650208 0.485293 0.205929
O O4 0.415461 0.665835 0.192538
O O5 0.843887 0.844009 0.931809
O O6 0.744869 0.865822 0.852109
O O7 0.687419 0.079466 0.927979
O O8 0.921740 0.078261 0.875000
O O9 0.158791 0.500000 0.250000
O O10 0.207880 0.786734 0.240856
O O11 0.143985 0.662249 0.752940
O O12 0.000000 0.894778 0.000000
O O13 0.857374 0.642848 0.996651
O O14 0.421576 0.967786 0.208023
#
# Coordination Sequence:
#
# PCOD9550536 Si02
#       7
#     8   8   8   4   8   4   8
#     4  11  20  39  70 103 133 171 235 307 369 434
#     4  12  27  42  65 100 139 199 245 293 372 469
#     4  10  23  43  66  99 137 181 234 307 369 437
#     4  12  20  46  70 102 144 178 238 302 386 444
#     4  10  25  44  68  99 141 192 237 302 375 455
#     4  10  20  42  66  96 136 182 234 300 384 436
#     4  11  22  40  68  99 133 184 239 302 368 445
#
# _framework density 21.662044000000002
#
# number of rings (size 3 to 8) (size 9 to 14) (size 15 to 20)
#    0.500    0.667    4.167    2.500    3.500    4.000 
#    0.000    5.000    0.000    0.000    0.000    0.000 
#    0.000    0.000    0.000    0.000    0.000    0.000 
#
# Total GULP energy -267258.781036 kJ/mol
# GULP energy per Si atom -5567.891272 kJ/mol
# Density = 2.161274 g / cm^3
# Si number density = 21.662044 Si / 1000 Ang^3
#
#
#
# Elastic Constant Matrix: (Units=GPa)
#
#
# Indices 1 2 3 4 5 6 
#
# 1 70.1506 21.5452 20.8245 0.0000 0.0000 0.0000
# 2 21.5452 70.1499 20.8271 0.0000 0.0000 0.0000
# 3 20.8245 20.8271 135.5771 0.0000 0.0000 0.0000
# 4 0.0000 0.0000 0.0000 387.2623 0.0000 0.0000
# 5 0.0000 0.0000 0.0000 0.0000 384.6622 0.0000
# 6 0.0000 0.0000 0.0000 0.0000 0.0000 36.1835
#
#
#
# Elastic Compliance Matrix: (Units=1/GPa)
#
#
# Indices 1 2 3 4 5 6 
#
# 1 0.016149 -0.004425 -0.001801 0.000000 0.000000 0.000000
# 2 -0.004425 0.016149 -0.001801 0.000000 0.000000 0.000000
# 3 -0.001801 -0.001801 0.007929 0.000000 0.000000 0.000000
# 4 0.000000 0.000000 0.000000 0.002582 0.000000 0.000000
# 5 0.000000 0.000000 0.000000 0.000000 0.002600 0.000000
# 6 0.000000 0.000000 0.000000 0.000000 0.000000 0.027637
#
#
# Mechanical properties :
#
#
# Convention : Reuss Voigt Hill
#
# Bulk Modulus (GPa) = 41.36832 44.69677 43.03254
# Shear Modulus (GPa) = 51.46308 175.80031 113.63169
#
# Velocity S-wave (km/s) = 4.87943 9.01843 7.25055
# Velocity P-wave (km/s) = 7.13328 11.36315 9.48696
#
# Compressibility (1/GPa) = 0.02417309
#
# Stress axis : x y z
#
# Youngs Moduli (GPa) = 61.92466 61.92324 126.11721
#
# Poissons Ratio (x) = 0.27402 0.22709
# Poissons Ratio (y) = 0.27403 0.22715
# Poissons Ratio (z) = 0.11150 0.11153
#
# Static dielectric constant tensor:
#      x y z
#    x 1.604590 0.000000 0.000000 
#    y 0.000000 1.606440 0.000000 
#    z 0.000000 0.000000 1.712550 
# 
# From -- ./inp_files/8004.got.cif
#   From: 2010.05.17/outbox.cif.g08.bks.cpg/sg95_5_cif.got.tgz:8004.got - 2010.06.03 19:46:49.
