data_PCOD9550364
_publ_section_title
;
Structure prediction by ZEFSAII (Michael W. Deem and Ramdas Pophale) SiO2 
 PCOD9550364
Probable space group: P 42 21 2
;
_chemical_formula_sum "Si O2"
_cell_formula_units_Z 54
_cell_length_a 13.822140
_cell_length_b 13.822140
_cell_length_c 12.353096
_cell_angle_alpha 90.000000
_cell_angle_beta 90.000000
_cell_angle_gamma 90.000000
_cell_volume 2360.078190
_symmetry_space_group_name_H-M "P 42 21 2"
_symmetry_group_IT_number 94
_symmetry_cell_setting 'tetragonal'
loop_
_space_group_symop_operation_xyz
x,y,z
1/2-y,1/2+x,1/2+z
-x,-y,z
1/2+y,1/2-x,1/2+z
1/2+x,1/2-y,1/2-z
1/2-x,1/2+y,1/2-z
y,x,-z
-y,-x,-z
loop_
_atom_site_type_symbol
_atom_site_label
_atom_site_fract_x
_atom_site_fract_y
_atom_site_fract_z
Si Si1 0.172110 0.942986 0.909143
Si Si2 0.331096 0.839944 0.610058
Si Si3 0.339902 0.821097 0.979229
Si Si4 0.381022 0.383357 0.819783
Si Si5 0.343169 0.656832 0.500000
Si Si6 0.500000 0.500000 0.000000
Si Si7 0.035161 0.601865 0.832356
Si Si8 0.174371 0.445200 0.115810
O O1 0.276032 0.890388 0.901869
O O2 0.114741 0.931843 0.797531
O O3 0.174295 0.049602 0.957266
O O4 0.118979 0.881022 0.000000
O O5 0.232860 0.890921 0.648157
O O6 0.313441 0.726846 0.597292
O O7 0.432174 0.844433 0.672172
O O8 0.347760 0.882133 0.489647
O O9 0.445745 0.807682 0.927945
O O10 0.277907 0.722094 0.000000
O O11 0.353711 0.882796 0.090570
O O12 0.408305 0.270562 0.822838
O O13 0.452166 0.429751 0.907066
O O14 0.000000 0.500000 0.879936
O O15 0.066669 0.593239 0.707965
#
# Coordination Sequence:
#
# PCOD9550364 Si02
#       8
#     8   8   8   8   4   2   8   8
#     4  11  26  48  74 111 149 193 251 325 375 457
#     4  12  25  50  71 106 150 197 249 315 375 463
#     4  11  25  48  74 108 149 190 257 313 386 463
#     4  12  27  50  72 109 158 192 261 317 385 454
#     4  12  24  46  78 104 144 200 252 294 388 444
#     4  12  26  44  74 106 148 208 242 324 384 458
#     4  12  27  44  74 108 146 197 251 319 383 451
#     4  12  25  46  74 101 150 198 248 310 384 462
#
# _framework density 22.880597999999999
#
# number of rings (size 3 to 8) (size 9 to 14) (size 15 to 20)
#    0.000    0.296    5.926    2.889    5.185    1.185 
#    0.000    0.000    0.000    0.000    0.000    0.000 
#    0.000    0.000    0.000    0.000    0.000    0.000 
#
# Total GULP energy -301365.440300 kJ/mol
# GULP energy per Si atom -5580.841487 kJ/mol
# Density = 2.282852 g / cm^3
# Si number density = 22.880598 Si / 1000 Ang^3
#
#
#
# Elastic Constant Matrix: (Units=GPa)
#
#
# Indices 1 2 3 4 5 6 
#
# 1 92.4091 2.5258 27.8660 0.0000 0.0000 0.0000
# 2 2.5258 92.4059 27.8640 0.0000 0.0000 0.0000
# 3 27.8660 27.8640 169.0438 0.0000 0.0000 0.0000
# 4 0.0000 0.0000 0.0000 0.9366 0.0000 0.0000
# 5 0.0000 0.0000 0.0000 0.0000 0.9206 0.0000
# 6 0.0000 0.0000 0.0000 0.0000 0.0000 50.3414
#
#
#
# Elastic Compliance Matrix: (Units=1/GPa)
#
#
# Indices 1 2 3 4 5 6 
#
# 1 0.011394 0.000268 -0.001922 0.000000 0.000000 0.000000
# 2 0.000268 0.011394 -0.001922 0.000000 0.000000 0.000000
# 3 -0.001922 -0.001922 0.006549 0.000000 0.000000 0.000000
# 4 0.000000 0.000000 0.000000 1.067716 0.000000 0.000000
# 5 0.000000 0.000000 0.000000 0.000000 1.086222 0.000000
# 6 0.000000 0.000000 0.000000 0.000000 0.000000 0.019864
#
#
# Mechanical properties :
#
#
# Convention : Reuss Voigt Hill
#
# Bulk Modulus (GPa) = 45.07690 52.26337 48.67013
# Shear Modulus (GPa) = 2.25460 30.14658 16.20059
#
# Velocity S-wave (km/s) = 0.99374 3.63376 2.66381
# Velocity P-wave (km/s) = 4.58916 6.36372 5.54785
#
# Compressibility (1/GPa) = 0.02218431
#
# Stress axis : x y z
#
# Youngs Moduli (GPa) = 87.76685 87.76433 152.68587
#
# Poissons Ratio (x) = -0.02354 0.29353
# Poissons Ratio (y) = -0.02354 0.29352
# Poissons Ratio (z) = 0.16873 0.16871
#
# Static dielectric constant tensor:
#      x y z
#    x 2.039960 0.000000 0.000000 
#    y 0.000000 2.040000 0.000000 
#    z 0.000000 0.000000 1.825430 
# 
# From -- ./inp_files/2746.got.cif
#   From: 2010.05.17/outbox.cif.g08.bks.cpg/sg94_2_cif.got.tgz:2746.got - 2010.06.03 19:43:16.
