data_PCOD9550366
_publ_section_title
;
Structure prediction by ZEFSAII (Michael W. Deem and Ramdas Pophale) SiO2 
 PCOD9550366
Probable space group: P 42 21 2
;
_chemical_formula_sum "Si O2"
_cell_formula_units_Z 18
_cell_length_a 9.049827
_cell_length_b 9.049827
_cell_length_c 9.068641
_cell_angle_alpha 90.000000
_cell_angle_beta 90.000000
_cell_angle_gamma 90.000000
_cell_volume 742.715973
_symmetry_space_group_name_H-M "P 42 21 2"
_symmetry_group_IT_number 94
_symmetry_cell_setting 'tetragonal'
loop_
_space_group_symop_operation_xyz
x,y,z
1/2-y,1/2+x,1/2+z
-x,-y,z
1/2+y,1/2-x,1/2+z
1/2+x,1/2-y,1/2-z
1/2-x,1/2+y,1/2-z
y,x,-z
-y,-x,-z
loop_
_atom_site_type_symbol
_atom_site_label
_atom_site_fract_x
_atom_site_fract_y
_atom_site_fract_z
Si Si1 0.531111 0.774816 0.998524
Si Si2 0.958395 0.301016 0.157427
Si Si3 0.000000 0.000000 0.000000
O O1 0.381786 0.810054 0.905037
O O2 0.633442 0.898159 0.923156
O O3 0.618394 0.618394 0.000000
O O4 0.519723 0.819076 0.169109
O O5 0.969419 0.132741 0.112444
#
# Coordination Sequence:
#
# PCOD9550366 Si02
#       3
#     8   8   2
#     4  11  25  48  80 110 156 209 261 330 392 479
#     4  11  26  47  74 112 159 198 266 322 404 469
#     4  12  28  44  76 104 156 198 250 330 392 476
#
# _framework density 24.235374
#
# number of rings (size 3 to 8) (size 9 to 14) (size 15 to 20)
#    0.000    0.889    2.222    5.333   12.444    0.000 
#    0.000    0.000    0.000    0.000    0.000    0.000 
#    0.000    0.000    0.000    0.000    0.000    0.000 
#
# Total GULP energy -100536.230120 kJ/mol
# GULP energy per Si atom -5585.346118 kJ/mol
# Density = 2.418021 g / cm^3
# Si number density = 24.235374 Si / 1000 Ang^3
#
#
#
# Elastic Constant Matrix: (Units=GPa)
#
#
# Indices 1 2 3 4 5 6 
#
# 1 132.3854 33.7827 33.5604 0.0000 0.0000 0.0000
# 2 33.7827 132.3854 33.5604 0.0000 0.0000 0.0000
# 3 33.5604 33.5604 236.4677 0.0000 0.0000 0.0000
# 4 0.0000 0.0000 0.0000 16.6331 0.0000 0.0000
# 5 0.0000 0.0000 0.0000 0.0000 16.6331 0.0000
# 6 0.0000 0.0000 0.0000 0.0000 0.0000 52.4769
#
#
#
# Elastic Compliance Matrix: (Units=1/GPa)
#
#
# Indices 1 2 3 4 5 6 
#
# 1 0.008263 -0.001879 -0.000906 0.000000 0.000000 0.000000
# 2 -0.001879 0.008263 -0.000906 0.000000 0.000000 0.000000
# 3 -0.000906 -0.000906 0.004486 0.000000 0.000000 0.000000
# 4 0.000000 0.000000 0.000000 0.060121 0.000000 0.000000
# 5 0.000000 0.000000 0.000000 0.000000 0.060121 0.000000
# 6 0.000000 0.000000 0.000000 0.000000 0.000000 0.019056
#
#
# Mechanical properties :
#
#
# Convention : Reuss Voigt Hill
#
# Bulk Modulus (GPa) = 73.36816 78.11616 75.74216
# Shear Modulus (GPa) = 29.03007 43.83761 36.43384
#
# Velocity S-wave (km/s) = 3.46474 4.25765 3.88149
# Velocity P-wave (km/s) = 6.80770 7.51481 7.16997
#
# Compressibility (1/GPa) = 0.01362989
#
# Stress axis : x y z
#
# Youngs Moduli (GPa) = 121.02367 121.02367 222.91153
#
# Poissons Ratio (x) = 0.22739 0.20197
# Poissons Ratio (y) = 0.22739 0.20197
# Poissons Ratio (z) = 0.10965 0.10965
#
# Static dielectric constant tensor:
#      x y z
#    x 2.033340 0.000000 0.000000 
#    y 0.000000 2.033340 0.000000 
#    z 0.000000 0.000000 2.388580 
# 
# From -- ./inp_files/786.got.cif
#   From: 2010.05.17/outbox.cif.g08.bks.cpg/sg94_1_cif.got.tgz:786.got - 2010.06.03 19:43:16.
