data_PCOD9550068
_publ_section_title
;
Structure prediction by ZEFSAII (Michael W. Deem and Ramdas Pophale) SiO2 
 PCOD9550068
Probable space group: P 42 21 2
;
_chemical_formula_sum "Si O2"
_cell_formula_units_Z 48
_cell_length_a 9.046898
_cell_length_b 9.046898
_cell_length_c 30.892651
_cell_angle_alpha 90.000000
_cell_angle_beta 90.000000
_cell_angle_gamma 90.000000
_cell_volume 2528.451141
_symmetry_space_group_name_H-M "P 42 21 2"
_symmetry_group_IT_number 94
_symmetry_cell_setting 'tetragonal'
loop_
_space_group_symop_operation_xyz
x,y,z
1/2-y,1/2+x,1/2+z
-x,-y,z
1/2+y,1/2-x,1/2+z
1/2+x,1/2-y,1/2-z
1/2-x,1/2+y,1/2-z
y,x,-z
-y,-x,-z
loop_
_atom_site_type_symbol
_atom_site_label
_atom_site_fract_x
_atom_site_fract_y
_atom_site_fract_z
Si Si1 0.500000 0.500000 0.601740
Si Si2 0.255400 0.459275 0.470300
Si Si3 0.301084 0.553068 0.957030
Si Si4 0.981233 0.252948 0.174494
Si Si5 0.484798 0.248637 0.817402
Si Si6 0.232903 0.767098 0.500000
Si Si7 0.000000 0.000000 0.382373
Si Si8 0.000000 0.000000 0.754205
O O1 0.509104 0.356794 0.570037
O O2 0.354221 0.491106 0.632262
O O3 0.356852 0.356852 0.500000
O O4 0.117715 0.362070 0.455614
O O5 0.209642 0.593182 0.501503
O O6 0.385611 0.584195 0.913344
O O7 0.377665 0.622336 0.000000
O O8 0.309770 0.376106 0.961549
O O9 0.839534 0.362481 0.172630
O O10 0.123262 0.358659 0.182022
O O11 0.978269 0.141762 0.215081
O O12 0.436909 0.371416 0.852453
O O13 0.509023 0.351253 0.775009
#
# Coordination Sequence:
#
# PCOD9550068 Si02
#       8
#     4   8   8   8   8   4   4   4
#     4  11  21  39  57  82 120 152 187 243 285 339
#     4  11  23  39  58  81 113 155 200 243 294 341
#     4  11  23  39  58  81 113 155 200 243 294 341
#     4  10  22  38  61  89 115 150 188 227 282 343
#     4  10  22  38  61  89 115 150 188 227 282 343
#     4  12  20  40  56  84 108 152 200 256 280 344
#     4  11  21  39  57  82 120 152 187 243 285 339
#     4  10  20  40  66  84 122 144 182 232 280 334
#
# _framework density 18.983953
#
# number of rings (size 3 to 8) (size 9 to 14) (size 15 to 20)
#    0.000    1.333    3.333    2.500    2.333    0.000 
#    0.000    0.000    0.000    6.000    0.000    0.000 
#    0.000    0.000    0.000    0.000    0.000    0.000 
#
# Total GULP energy -267407.083237 kJ/mol
# GULP energy per Si atom -5570.980901 kJ/mol
# Density = 1.894074 g / cm^3
# Si number density = 18.983953 Si / 1000 Ang^3
#
#
#
# Elastic Constant Matrix: (Units=GPa)
#
#
# Indices 1 2 3 4 5 6 
#
# 1 99.7935 48.7738 37.4248 0.0000 0.0000 0.0000
# 2 48.7738 99.7932 37.4245 0.0000 0.0000 0.0000
# 3 37.4248 37.4245 92.1054 0.0000 0.0000 0.0000
# 4 0.0000 0.0000 0.0000 14.4521 0.0000 0.0000
# 5 0.0000 0.0000 0.0000 0.0000 14.4524 0.0000
# 6 0.0000 0.0000 0.0000 0.0000 0.0000 34.2069
#
#
#
# Elastic Compliance Matrix: (Units=1/GPa)
#
#
# Indices 1 2 3 4 5 6 
#
# 1 0.014032 -0.005568 -0.003439 0.000000 0.000000 0.000000
# 2 -0.005568 0.014032 -0.003439 0.000000 0.000000 0.000000
# 3 -0.003439 -0.003439 0.013652 0.000000 0.000000 0.000000
# 4 0.000000 0.000000 0.000000 0.069194 0.000000 0.000000
# 5 0.000000 0.000000 0.000000 0.000000 0.069193 0.000000
# 6 0.000000 0.000000 0.000000 0.000000 0.000000 0.029234
#
#
# Mechanical properties :
#
#
# Convention : Reuss Voigt Hill
#
# Bulk Modulus (GPa) = 59.44213 59.88202 59.66207
# Shear Modulus (GPa) = 20.84753 23.82688 22.33720
#
# Velocity S-wave (km/s) = 3.31745 3.54659 3.43393
# Velocity P-wave (km/s) = 6.78629 6.95579 6.87156
#
# Compressibility (1/GPa) = 0.01682309
#
# Stress axis : x y z
#
# Youngs Moduli (GPa) = 71.26608 71.26605 73.25056
#
# Poissons Ratio (x) = 0.39684 0.25191
# Poissons Ratio (y) = 0.39684 0.25190
# Poissons Ratio (z) = 0.24508 0.24508
#
# Static dielectric constant tensor:
#      x y z
#    x 1.679780 0.000000 0.000000 
#    y 0.000000 1.679780 0.000000 
#    z 0.000000 0.000000 1.644700 
# 
# From -- ./inp_files/5678.got.cif
#   From: 2010.05.17/outbox.cif.g08.bks.cpg/sg94_3_cif.got.tgz:5678.got - 2010.06.03 19:43:16.
