data_PCOD9550584
_publ_section_title
;
Structure prediction by ZEFSAII (Michael W. Deem and Ramdas Pophale) SiO2 
 PCOD9550584
Probable space group: P 43 2 2
;
_chemical_formula_sum "Si O2"
_cell_formula_units_Z 48
_cell_length_a 11.395207
_cell_length_b 11.395207
_cell_length_c 15.495625
_cell_angle_alpha 90.000000
_cell_angle_beta 90.000000
_cell_angle_gamma 90.000000
_cell_volume 2012.118413
_symmetry_space_group_name_H-M "P 43 2 2"
_symmetry_group_IT_number 95
_symmetry_cell_setting 'tetragonal'
loop_
_space_group_symop_operation_xyz
x,y,z
-y,x,3/4+z
-x,-y,1/2+z
y,-x,1/4+z
x,-y,1/2-z
-x,y,-z
y,x,1/4-z
-y,-x,3/4-z
loop_
_atom_site_type_symbol
_atom_site_label
_atom_site_fract_x
_atom_site_fract_y
_atom_site_fract_z
Si Si1 0.164705 0.842811 0.202966
Si Si2 0.370886 0.017757 0.961208
Si Si3 0.500000 0.374134 0.000000
Si Si4 0.182832 0.624211 0.656840
Si Si5 0.303645 0.447206 0.437628
Si Si6 0.945831 0.945831 0.625000
Si Si7 0.171868 0.633841 0.907085
O O1 0.301006 0.849293 0.178475
O O2 0.121901 0.893992 0.293276
O O3 0.132656 0.707127 0.211019
O O4 0.087983 0.916884 0.132613
O O5 0.338743 0.961021 0.868142
O O6 0.500000 0.042177 0.000000
O O7 0.328704 0.913903 0.025896
O O8 0.611404 0.462869 0.989275
O O9 0.492965 0.302313 0.910624
O O10 0.316296 0.645912 0.681536
O O11 0.179949 0.485206 0.649194
O O12 0.192763 0.417389 0.497401
O O13 0.267727 0.732274 0.875000
#
# Coordination Sequence:
#
# PCOD9550584 Si02
#       7
#     8   8   4   8   8   4   8
#     4  11  23  48  70 106 132 185 248 301 373 422
#     4  10  23  42  69 103 146 179 225 301 369 432
#     4  10  22  34  58  88 148 178 232 276 322 422
#     4  11  22  39  68  97 138 181 225 289 362 418
#     4  11  20  36  57  95 132 182 225 274 335 413
#     4  10  24  44  82  96 132 180 254 320 344 440
#     4  11  21  37  68 101 141 180 223 286 358 438
#
# _framework density 23.855454000000002
#
# number of rings (size 3 to 8) (size 9 to 14) (size 15 to 20)
#    0.000    1.333    5.000    1.000    2.333    0.000 
#    4.500    0.000    0.000    0.000    0.000    0.000 
#    0.000    0.000    0.000    0.000    0.000    0.000 
#
# Total GULP energy -267491.158353 kJ/mol
# GULP energy per Si atom -5572.732466 kJ/mol
# Density = 2.380116 g / cm^3
# Si number density = 23.855454 Si / 1000 Ang^3
#
#
#
# Elastic Constant Matrix: (Units=GPa)
#
#
# Indices 1 2 3 4 5 6 
#
# 1 77.4234 27.4675 20.4718 0.0000 0.0000 0.0000
# 2 27.4675 77.4233 20.4716 0.0000 0.0000 0.0000
# 3 20.4718 20.4716 123.3909 0.0000 0.0000 0.0000
# 4 0.0000 0.0000 0.0000 27.4816 0.0000 0.0000
# 5 0.0000 0.0000 0.0000 0.0000 27.4816 0.0000
# 6 0.0000 0.0000 0.0000 0.0000 0.0000 23.3331
#
#
#
# Elastic Compliance Matrix: (Units=1/GPa)
#
#
# Indices 1 2 3 4 5 6 
#
# 1 0.015106 -0.004912 -0.001691 0.000000 0.000000 0.000000
# 2 -0.004912 0.015106 -0.001691 0.000000 0.000000 0.000000
# 3 -0.001691 -0.001691 0.008666 0.000000 0.000000 0.000000
# 4 0.000000 0.000000 0.000000 0.036388 0.000000 0.000000
# 5 0.000000 0.000000 0.000000 0.000000 0.036388 0.000000
# 6 0.000000 0.000000 0.000000 0.000000 0.000000 0.042858
#
#
# Mechanical properties :
#
#
# Convention : Reuss Voigt Hill
#
# Bulk Modulus (GPa) = 44.86669 46.11772 45.49220
# Shear Modulus (GPa) = 28.00669 29.64772 28.82721
#
# Velocity S-wave (km/s) = 3.43011 3.52917 3.47999
# Velocity P-wave (km/s) = 5.87674 5.99840 5.93788
#
# Compressibility (1/GPa) = 0.02228825
#
# Stress axis : x y z
#
# Youngs Moduli (GPa) = 66.19984 66.19984 115.39992
#
# Poissons Ratio (x) = 0.32517 0.19517
# Poissons Ratio (y) = 0.32517 0.19517
# Poissons Ratio (z) = 0.11196 0.11196
#
# Static dielectric constant tensor:
#      x y z
#    x 2.000850 0.000000 0.000000 
#    y 0.000000 2.000850 0.000000 
#    z 0.000000 0.000000 2.003780 
# 
# From -- ./inp_files/5722.got.cif
#   From: 2010.05.17/outbox.cif.g08.bks.cpg/sg95_3_cif.got.tgz:5722.got - 2010.06.03 19:46:49.
