data_PCOD9550166
_publ_section_title
;
Structure prediction by ZEFSAII (Michael W. Deem and Ramdas Pophale) SiO2 
 PCOD9550166
Probable space group: P 42 21 2
;
_chemical_formula_sum "Si O2"
_cell_formula_units_Z 24
_cell_length_a 13.952360
_cell_length_b 13.952360
_cell_length_c 5.189137
_cell_angle_alpha 90.000000
_cell_angle_beta 90.000000
_cell_angle_gamma 90.000000
_cell_volume 1010.160735
_symmetry_space_group_name_H-M "P 42 21 2"
_symmetry_group_IT_number 94
_symmetry_cell_setting 'tetragonal'
loop_
_space_group_symop_operation_xyz
x,y,z
1/2-y,1/2+x,1/2+z
-x,-y,z
1/2+y,1/2-x,1/2+z
1/2+x,1/2-y,1/2-z
1/2-x,1/2+y,1/2-z
y,x,-z
-y,-x,-z
loop_
_atom_site_type_symbol
_atom_site_label
_atom_site_fract_x
_atom_site_fract_y
_atom_site_fract_z
Si Si1 0.176376 0.660717 0.549734
Si Si2 0.605586 0.543909 0.250059
Si Si3 0.544807 0.218423 0.926856
O O1 0.256786 0.743215 0.500000
O O2 0.160819 0.606225 0.278915
O O3 0.067663 0.694049 0.606679
O O4 0.209569 0.590899 0.788391
O O5 0.500000 0.500000 0.256863
O O6 0.610696 0.610696 0.500000
O O7 0.675657 0.456248 0.200824
O O8 0.608991 0.608991 0.000000
#
# Coordination Sequence:
#
# PCOD9550166 Si02
#       3
#     8   8   8
#     4  12  29  49  78 113 154 200 263 317 379 471
#     4  10  22  38  69 103 139 190 241 301 381 443
#     4  12  27  49  76 112 156 202 258 316 385 463
#
# _framework density 23.758596000000001
#
# number of rings (size 3 to 8) (size 9 to 14) (size 15 to 20)
#    0.000    0.667    0.000    6.000   14.000    6.667 
#    0.000    0.000    0.000    0.000    0.000    0.000 
#    0.000    0.000    0.000    0.000    0.000    0.000 
#
# Total GULP energy -133866.870492 kJ/mol
# GULP energy per Si atom -5577.786270 kJ/mol
# Density = 2.370452 g / cm^3
# Si number density = 23.758596 Si / 1000 Ang^3
#
#
#
# Elastic Constant Matrix: (Units=GPa)
#
#
# Indices 1 2 3 4 5 6 
#
# 1 99.2951 43.9197 22.4074 0.0000 0.0000 0.0000
# 2 43.9197 99.2977 22.4087 0.0000 0.0000 0.0000
# 3 22.4074 22.4087 203.2669 0.0000 0.0000 0.0000
# 4 0.0000 0.0000 0.0000 29.1462 0.0000 0.0000
# 5 0.0000 0.0000 0.0000 0.0000 29.1465 0.0000
# 6 0.0000 0.0000 0.0000 0.0000 0.0000 27.7198
#
#
#
# Elastic Compliance Matrix: (Units=1/GPa)
#
#
# Indices 1 2 3 4 5 6 
#
# 1 0.012645 -0.005413 -0.000797 0.000000 0.000000 0.000000
# 2 -0.005413 0.012645 -0.000797 0.000000 0.000000 0.000000
# 3 -0.000797 -0.000797 0.005095 0.000000 0.000000 0.000000
# 4 0.000000 0.000000 0.000000 0.034310 0.000000 0.000000
# 5 0.000000 0.000000 0.000000 0.000000 0.034309 0.000000
# 6 0.000000 0.000000 0.000000 0.000000 0.000000 0.036075
#
#
# Mechanical properties :
#
#
# Convention : Reuss Voigt Hill
#
# Bulk Modulus (GPa) = 61.08623 64.37015 62.72819
# Shear Modulus (GPa) = 32.35159 38.07744 35.21451
#
# Velocity S-wave (km/s) = 3.69410 4.00769 3.85409
# Velocity P-wave (km/s) = 6.63040 6.96905 6.80183
#
# Compressibility (1/GPa) = 0.01637030
#
# Stress axis : x y z
#
# Youngs Moduli (GPa) = 79.08143 79.08332 196.25489
#
# Poissons Ratio (x) = 0.42809 0.15645
# Poissons Ratio (y) = 0.42808 0.15647
# Poissons Ratio (z) = 0.06304 0.06305
#
# Static dielectric constant tensor:
#      x y z
#    x 2.023890 0.000000 0.000000 
#    y 0.000000 2.023890 0.000000 
#    z 0.000000 0.000000 1.957320 
# 
# From -- ./inp_files/164.got.cif
#   From: 2010.05.17/outbox.cif.g08.bks.cpg/sg94_1_cif.got.tgz:164.got - 2010.06.03 19:43:16.
