data_PCOD9550353
_publ_section_title
;
Structure prediction by ZEFSAII (Michael W. Deem and Ramdas Pophale) SiO2 
 PCOD9550353
Probable space group: P 42 21 2
;
_chemical_formula_sum "Si O2"
_cell_formula_units_Z 40
_cell_length_a 8.865331
_cell_length_b 8.865331
_cell_length_c 23.151913
_cell_angle_alpha 90.000000
_cell_angle_beta 90.000000
_cell_angle_gamma 90.000000
_cell_volume 1819.603621
_symmetry_space_group_name_H-M "P 42 21 2"
_symmetry_group_IT_number 94
_symmetry_cell_setting 'tetragonal'
loop_
_space_group_symop_operation_xyz
x,y,z
1/2-y,1/2+x,1/2+z
-x,-y,z
1/2+y,1/2-x,1/2+z
1/2+x,1/2-y,1/2-z
1/2-x,1/2+y,1/2-z
y,x,-z
-y,-x,-z
loop_
_atom_site_type_symbol
_atom_site_label
_atom_site_fract_x
_atom_site_fract_y
_atom_site_fract_z
Si Si1 0.362517 0.131114 0.986811
Si Si2 0.397654 0.125574 0.293655
Si Si3 0.162623 0.351635 0.581970
Si Si4 0.966724 0.328366 0.890959
Si Si5 0.625602 0.390206 0.289682
O O1 0.532503 0.166044 0.966232
O O2 0.049850 0.334813 0.952241
O O3 0.286335 0.020615 0.938560
O O4 0.288271 0.288271 0.000000
O O5 0.346330 0.075033 0.357066
O O6 0.515563 0.256507 0.307273
O O7 0.253951 0.162882 0.254882
O O8 0.500000 0.000000 0.264005
O O9 0.299228 0.234826 0.592328
O O10 0.031795 0.211508 0.843359
O O11 0.000000 0.500000 0.868917
O O12 0.500000 0.500000 0.261347
#
# Coordination Sequence:
#
# PCOD9550353 Si02
#       5
#     8   8   8   8   8
#     4  11  24  45  77 106 146 197 250 315 387 456
#     4  12  25  47  75 107 157 188 252 322 385 465
#     4  11  24  48  72 107 152 192 253 315 384 460
#     4  12  26  46  76 107 150 200 262 315 381 471
#     4  12  27  48  76 113 144 205 256 315 392 477
#
# _framework density 21.982807999999999
#
# number of rings (size 3 to 8) (size 9 to 14) (size 15 to 20)
#    0.000    0.400    6.000    3.600    2.800    0.800 
#    0.000    2.000    0.000    0.000    0.000    0.000 
#    0.000    0.000    0.000    0.000    0.000    0.000 
#
# Total GULP energy -222737.498688 kJ/mol
# GULP energy per Si atom -5568.437467 kJ/mol
# Density = 2.193277 g / cm^3
# Si number density = 21.982808 Si / 1000 Ang^3
#
#
#
# Elastic Constant Matrix: (Units=GPa)
#
#
# Indices 1 2 3 4 5 6 
#
# 1 116.4851 65.4824 35.0368 0.0000 0.0000 0.0000
# 2 65.4824 116.4851 35.0368 0.0000 0.0000 0.0000
# 3 35.0368 35.0368 138.4427 0.0000 0.0000 0.0000
# 4 0.0000 0.0000 0.0000 -34.1361 0.0000 0.0000
# 5 0.0000 0.0000 0.0000 0.0000 -34.1361 0.0000
# 6 0.0000 0.0000 0.0000 0.0000 0.0000 35.0697
#
#
#
# Elastic Compliance Matrix: (Units=1/GPa)
#
#
# Indices 1 2 3 4 5 6 
#
# 1 0.012848 -0.006759 -0.001541 0.000000 0.000000 0.000000
# 2 -0.006759 0.012848 -0.001541 0.000000 0.000000 0.000000
# 3 -0.001541 -0.001541 0.008003 0.000000 0.000000 0.000000
# 4 0.000000 0.000000 0.000000 -0.029294 0.000000 0.000000
# 5 0.000000 0.000000 0.000000 0.000000 -0.029294 0.000000
# 6 0.000000 0.000000 0.000000 0.000000 0.000000 0.028515
#
#
# Mechanical properties :
#
#
# Convention : Reuss Voigt Hill
#
# Bulk Modulus (GPa) = 71.34143 71.39167 71.36655
# Shear Modulus (GPa) = 178.70711 9.08328 93.89519
#
# Velocity S-wave (km/s) = 9.02610 2.03494 6.54261
# Velocity P-wave (km/s) = 11.88070 6.16992 9.46623
#
# Compressibility (1/GPa) = 0.01401710
#
# Stress axis : x y z
#
# Youngs Moduli (GPa) = 77.83400 77.83400 124.95041
#
# Poissons Ratio (x) = 0.52608 0.19254
# Poissons Ratio (y) = 0.52608 0.19254
# Poissons Ratio (z) = 0.11994 0.11994
#
# Static dielectric constant tensor:
#      x y z
#    x 1.909990 0.000000 0.000000 
#    y 0.000000 1.909990 0.000000 
#    z 0.000000 0.000000 1.772250 
# 
# From -- ./inp_files/5291.got.cif
#   From: 2010.05.17/outbox.cif.g08.bks.cpg/sg94_3_cif.got.tgz:5291.got - 2010.06.03 19:43:16.
