data_PCOD9550914
_publ_section_title
;
Structure prediction by ZEFSAII (Michael W. Deem and Ramdas Pophale) SiO2 
 PCOD9550914
Probable space group: P 43 21 2
;
_chemical_formula_sum "Si O2"
_cell_formula_units_Z 52
_cell_length_a 20.671935
_cell_length_b 20.671935
_cell_length_c 5.100121
_cell_angle_alpha 90.000000
_cell_angle_beta 90.000000
_cell_angle_gamma 90.000000
_cell_volume 2179.429080
_symmetry_space_group_name_H-M "P 43 21 2"
_symmetry_group_IT_number 96
_symmetry_cell_setting 'tetragonal'
loop_
_space_group_symop_operation_xyz
x,y,z
1/2-y,1/2+x,3/4+z
-x,-y,1/2+z
1/2+y,1/2-x,1/4+z
1/2+x,1/2-y,1/4-z
1/2-x,1/2+y,3/4-z
y,x,-z
-y,-x,1/2-z
loop_
_atom_site_type_symbol
_atom_site_label
_atom_site_fract_x
_atom_site_fract_y
_atom_site_fract_z
Si Si1 0.851101 0.041343 0.196901
Si Si2 0.032039 0.032039 0.500000
Si Si3 0.240847 0.132653 0.519402
Si Si4 0.978050 0.594259 0.978530
Si Si5 0.880228 0.351315 0.975244
Si Si6 0.938507 0.292722 0.469622
Si Si7 0.427721 0.680821 0.775629
O O1 0.897315 0.102686 0.250000
O O2 0.783596 0.058776 0.065525
O O3 0.894478 0.988754 0.040884
O O4 0.833728 0.001655 0.458914
O O5 0.005538 0.994462 0.250000
O O6 0.195843 0.195843 0.500000
O O7 0.311540 0.150851 0.419822
O O8 0.213267 0.083603 0.302861
O O9 0.228688 0.102270 0.804548
O O10 0.940168 0.545590 0.791632
O O11 0.997287 0.666216 0.888766
O O12 0.927244 0.600439 0.218327
O O13 0.925863 0.312808 0.770075
O O14 0.885789 0.320410 0.261377
O O15 0.384823 0.615178 0.750000
#
# Coordination Sequence:
#
# PCOD9550914 Si02
#       7
#     8   4   8   8   8   8   8
#     4  11  27  46  71 101 147 189 243 301 370 434
#     4  10  26  46  72 100 136 190 246 300 366 434
#     4  10  22  42  67  96 134 182 237 293 354 425
#     4  10  21  40  68  99 135 176 227 286 356 421
#     4  11  24  43  69  99 139 186 229 291 362 442
#     4  11  26  43  66 105 141 182 236 295 361 435
#     4  10  23  40  65  98 127 173 234 301 347 408
#
# _framework density 23.859459000000001
#
# number of rings (size 3 to 8) (size 9 to 14) (size 15 to 20)
#    0.000    1.538    0.000    2.769    7.538   12.308 
#    0.000    0.000    0.000    0.000    0.000    0.000 
#    0.000    0.000    0.000    0.000    0.000    0.000 
#
# Total GULP energy -291116.444124 kJ/mol
# GULP energy per Si atom -5598.393156 kJ/mol
# Density = 2.380515 g / cm^3
# Si number density = 23.859459 Si / 1000 Ang^3
#
#
#
# Elastic Constant Matrix: (Units=GPa)
#
#
# Indices 1 2 3 4 5 6 
#
# 1 116.5250 44.9702 9.8485 0.0000 0.0000 0.0000
# 2 44.9702 116.5227 9.8473 0.0000 0.0000 0.0000
# 3 9.8485 9.8473 91.7948 0.0000 0.0000 0.0000
# 4 0.0000 0.0000 0.0000 27.7073 0.0000 0.0000
# 5 0.0000 0.0000 0.0000 0.0000 27.7081 0.0000
# 6 0.0000 0.0000 0.0000 0.0000 0.0000 24.8752
#
#
#
# Elastic Compliance Matrix: (Units=1/GPa)
#
#
# Indices 1 2 3 4 5 6 
#
# 1 0.010125 -0.003851 -0.000673 0.000000 0.000000 0.000000
# 2 -0.003851 0.010125 -0.000673 0.000000 0.000000 0.000000
# 3 -0.000673 -0.000673 0.011038 0.000000 0.000000 0.000000
# 4 0.000000 0.000000 0.000000 0.036092 0.000000 0.000000
# 5 0.000000 0.000000 0.000000 0.000000 0.036091 0.000000
# 6 0.000000 0.000000 0.000000 0.000000 0.000000 0.040201
#
#
# Mechanical properties :
#
#
# Convention : Reuss Voigt Hill
#
# Bulk Modulus (GPa) = 47.85976 50.46381 49.16178
# Shear Modulus (GPa) = 31.05025 33.40324 32.22675
#
# Velocity S-wave (km/s) = 3.61138 3.74572 3.67916
# Velocity P-wave (km/s) = 6.12307 6.31693 6.22075
#
# Compressibility (1/GPa) = 0.02089438
#
# Stress axis : x y z
#
# Youngs Moduli (GPa) = 98.76733 98.76556 90.59377
#
# Poissons Ratio (x) = 0.38031 0.06099
# Poissons Ratio (y) = 0.38032 0.06097
# Poissons Ratio (z) = 0.06649 0.06647
#
# Static dielectric constant tensor:
#      x y z
#    x 1.952290 0.000000 0.000000 
#    y 0.000000 1.952290 0.000000 
#    z 0.000000 0.000000 1.917020 
# 
# From -- ./inp_files/689.got.cif
#   From: 2010.05.17/outbox.cif.g08.bks.cpg/sg96_1_cif.got.tgz:689.got - 2010.06.03 19:52:08.
