data_PCOD9550417
_publ_section_title
;
Structure prediction by ZEFSAII (Michael W. Deem and Ramdas Pophale) SiO2 
 PCOD9550417
Probable space group: P 43 2 2
;
_chemical_formula_sum "Si O2"
_cell_formula_units_Z 56
_cell_length_a 20.508436
_cell_length_b 20.508436
_cell_length_c 8.317284
_cell_angle_alpha 90.000000
_cell_angle_beta 90.000000
_cell_angle_gamma 90.000000
_cell_volume 3498.215942
_symmetry_space_group_name_H-M "P 43 2 2"
_symmetry_group_IT_number 95
_symmetry_cell_setting 'tetragonal'
loop_
_space_group_symop_operation_xyz
x,y,z
-y,x,3/4+z
-x,-y,1/2+z
y,-x,1/4+z
x,-y,1/2-z
-x,y,-z
y,x,1/4-z
-y,-x,3/4-z
loop_
_atom_site_type_symbol
_atom_site_label
_atom_site_fract_x
_atom_site_fract_y
_atom_site_fract_z
Si Si1 0.000000 0.803342 0.000000
Si Si2 0.078021 0.921980 0.875000
Si Si3 0.707619 0.045148 0.978764
Si Si4 0.768786 0.153952 0.749722
Si Si5 0.922139 0.397225 0.538593
Si Si6 0.070392 0.531430 0.572199
Si Si7 0.117120 0.933510 0.208144
Si Si8 0.104874 0.664058 0.704437
O O1 0.962186 0.757785 0.876550
O O2 0.050276 0.848467 0.900041
O O3 0.055527 0.932431 0.688955
O O4 0.642100 0.079318 0.046616
O O5 0.740259 0.094103 0.854869
O O6 0.690868 0.970010 0.934103
O O7 0.789239 0.210762 0.875000
O O8 0.835588 0.126412 0.672589
O O9 0.715861 0.157535 0.608335
O O10 0.900163 0.472268 0.532353
O O11 0.890773 0.356933 0.391295
O O12 0.000000 0.400101 0.500000
O O13 0.060689 0.500000 0.750000
O O14 0.108844 0.597820 0.600776
O O15 0.000000 0.548322 0.500000
O O16 0.083919 0.916082 0.375000
O O17 0.154111 0.000000 0.250000
#
# Coordination Sequence:
#
# PCOD9550417 Si02
#       8
#     4   4   8   8   8   8   8   8
#     4  12  22  36  50  66  80 106 148 182 238 298
#     4  12  24  38  56  68  80 114 138 190 252 294
#     4  11  19  33  51  64  87 111 139 182 226 277
#     4  11  22  33  44  63  83 108 143 181 214 263
#     4   8  16  29  44  68  89 109 136 167 206 277
#     4   9  16  25  42  66  94 111 135 163 205 268
#     4  11  23  40  51  67  84  99 136 185 231 299
#     4  10  17  30  46  66  86 115 136 171 223 268
#
# _framework density 16.008158999999999
#
# number of rings (size 3 to 8) (size 9 to 14) (size 15 to 20)
#    0.000    1.714    2.143    7.286    0.000    0.000 
#    5.143    0.000    0.000    0.000    0.000    0.000 
#    0.000    0.000    0.000    0.000    0.000    0.000 
#
# Total GULP energy -312030.735198 kJ/mol
# GULP energy per Si atom -5571.977414 kJ/mol
# Density = 1.597172 g / cm^3
# Si number density = 16.008159 Si / 1000 Ang^3
#
#
#
# Elastic Constant Matrix: (Units=GPa)
#
#
# Indices 1 2 3 4 5 6 
#
# 1 41.2374 22.0514 15.7817 0.0000 0.0000 0.0000
# 2 22.0514 41.2352 15.7812 0.0000 0.0000 0.0000
# 3 15.7817 15.7812 67.3487 0.0000 0.0000 0.0000
# 4 0.0000 0.0000 0.0000 19.2936 0.0000 0.0000
# 5 0.0000 0.0000 0.0000 0.0000 19.2938 0.0000
# 6 0.0000 0.0000 0.0000 0.0000 0.0000 4.9882
#
#
#
# Elastic Compliance Matrix: (Units=1/GPa)
#
#
# Indices 1 2 3 4 5 6 
#
# 1 0.035007 -0.017116 -0.004192 0.000000 0.000000 0.000000
# 2 -0.017116 0.035009 -0.004192 0.000000 0.000000 0.000000
# 3 -0.004192 -0.004192 0.016813 0.000000 0.000000 0.000000
# 4 0.000000 0.000000 0.000000 0.051831 0.000000 0.000000
# 5 0.000000 0.000000 0.000000 0.000000 0.051830 0.000000
# 6 0.000000 0.000000 0.000000 0.000000 0.000000 0.200472
#
#
# Mechanical properties :
#
#
# Convention : Reuss Voigt Hill
#
# Bulk Modulus (GPa) = 27.91232 28.56110 28.23671
# Shear Modulus (GPa) = 11.01548 15.12893 13.07220
#
# Velocity S-wave (km/s) = 2.62604 3.07754 2.86072
# Velocity P-wave (km/s) = 5.16420 5.52347 5.34685
#
# Compressibility (1/GPa) = 0.03582647
#
# Stress axis : x y z
#
# Youngs Moduli (GPa) = 28.56561 28.56410 59.47824
#
# Poissons Ratio (x) = 0.48891 0.24936
# Poissons Ratio (y) = 0.48894 0.24936
# Poissons Ratio (z) = 0.11976 0.11975
#
# Static dielectric constant tensor:
#      x y z
#    x 1.580560 0.000000 0.000000 
#    y 0.000000 1.580560 0.000000 
#    z 0.000000 0.000000 1.656060 
# 
# From -- ./inp_files/2941.got.cif
#   From: 2010.05.17/outbox.cif.g08.bks.cpg/sg95_2_cif.got.tgz:2941.got - 2010.06.03 19:46:49.
