data_PCOD9550973
_publ_section_title
;
Structure prediction by ZEFSAII (Michael W. Deem and Ramdas Pophale) SiO2 
 PCOD9550973
Probable space group: P 43 21 2
;
_chemical_formula_sum "Si O2"
_cell_formula_units_Z 36
_cell_length_a 10.976032
_cell_length_b 10.976032
_cell_length_c 12.932336
_cell_angle_alpha 90.000000
_cell_angle_beta 90.000000
_cell_angle_gamma 90.000000
_cell_volume 1558.000916
_symmetry_space_group_name_H-M "P 43 21 2"
_symmetry_group_IT_number 96
_symmetry_cell_setting 'tetragonal'
loop_
_space_group_symop_operation_xyz
x,y,z
1/2-y,1/2+x,3/4+z
-x,-y,1/2+z
1/2+y,1/2-x,1/4+z
1/2+x,1/2-y,1/4-z
1/2-x,1/2+y,3/4-z
y,x,-z
-y,-x,1/2-z
loop_
_atom_site_type_symbol
_atom_site_label
_atom_site_fract_x
_atom_site_fract_y
_atom_site_fract_z
Si Si1 0.799131 0.814434 0.828338
Si Si2 0.397733 0.602268 0.750000
Si Si3 0.662333 0.900039 0.644939
Si Si4 0.255264 0.426158 0.449849
Si Si5 0.966494 0.195791 0.188255
O O1 0.700568 0.805307 0.735504
O O2 0.791163 0.695954 0.897476
O O3 0.925572 0.818058 0.768904
O O4 0.776451 0.952768 0.868843
O O5 0.406263 0.728642 0.813241
O O6 0.387332 0.499652 0.838632
O O7 0.546621 0.837482 0.594392
O O8 0.666272 0.026159 0.708166
O O9 0.383529 0.383529 0.500000
O O10 0.847532 0.152469 0.250000
#
# Coordination Sequence:
#
# PCOD9550973 Si02
#       5
#     8   4   8   8   8
#     4   9  23  42  73 106 148 202 258 336 394 488
#     4  10  22  42  68 102 138 198 250 324 380 478
#     4   9  22  40  73  98 145 194 254 329 383 485
#     4  10  22  47  70 111 149 201 260 329 409 470
#     4  11  22  44  74 107 141 211 271 318 406 482
#
# _framework density 23.106531
#
# number of rings (size 3 to 8) (size 9 to 14) (size 15 to 20)
#    1.333    0.889    1.111    0.667    3.111    0.000 
#    6.000    6.667    0.000    0.000    0.000    0.000 
#    0.000    0.000    0.000    0.000    0.000    0.000 
#
# Total GULP energy -200567.488136 kJ/mol
# GULP energy per Si atom -5571.319115 kJ/mol
# Density = 2.305394 g / cm^3
# Si number density = 23.106531 Si / 1000 Ang^3
#
#
#
# Elastic Constant Matrix: (Units=GPa)
#
#
# Indices 1 2 3 4 5 6 
#
# 1 94.5326 46.5533 45.0026 0.0000 0.0000 0.0000
# 2 46.5533 94.5325 45.0030 0.0000 0.0000 0.0000
# 3 45.0026 45.0030 105.1308 0.0000 0.0000 0.0000
# 4 0.0000 0.0000 0.0000 33.5012 0.0000 0.0000
# 5 0.0000 0.0000 0.0000 0.0000 33.5011 0.0000
# 6 0.0000 0.0000 0.0000 0.0000 0.0000 26.4932
#
#
#
# Elastic Compliance Matrix: (Units=1/GPa)
#
#
# Indices 1 2 3 4 5 6 
#
# 1 0.015296 -0.005546 -0.004174 0.000000 0.000000 0.000000
# 2 -0.005546 0.015297 -0.004174 0.000000 0.000000 0.000000
# 3 -0.004174 -0.004174 0.013085 0.000000 0.000000 0.000000
# 4 0.000000 0.000000 0.000000 0.029850 0.000000 0.000000
# 5 0.000000 0.000000 0.000000 0.000000 0.029850 0.000000
# 6 0.000000 0.000000 0.000000 0.000000 0.000000 0.037745
#
#
# Mechanical properties :
#
#
# Convention : Reuss Voigt Hill
#
# Bulk Modulus (GPa) = 62.92867 63.03485 62.98176
# Shear Modulus (GPa) = 28.70139 29.20823 28.95481
#
# Velocity S-wave (km/s) = 3.52821 3.55923 3.54376
# Velocity P-wave (km/s) = 6.62503 6.65058 6.63781
#
# Compressibility (1/GPa) = 0.01589101
#
# Stress axis : x y z
#
# Youngs Moduli (GPa) = 65.37474 65.37436 76.42126
#
# Poissons Ratio (x) = 0.36256 0.31897
# Poissons Ratio (y) = 0.36256 0.31898
# Poissons Ratio (z) = 0.27286 0.27287
#
# Static dielectric constant tensor:
#      x y z
#    x 1.887430 0.000000 0.000000 
#    y 0.000000 1.887430 0.000000 
#    z 0.000000 0.000000 1.931800 
# 
# From -- ./inp_files/2638.got.cif
#   From: 2010.05.17/outbox.cif.g08.bks.cpg/sg96_2_cif.got.tgz:2638.got - 2010.06.03 19:52:08.
