data_PCOD9550163
_publ_section_title
;
Structure prediction by ZEFSAII (Michael W. Deem and Ramdas Pophale) SiO2 
 PCOD9550163
Probable space group: P 42 21 2
;
_chemical_formula_sum "Si O2"
_cell_formula_units_Z 28
_cell_length_a 7.525239
_cell_length_b 7.525239
_cell_length_c 20.538153
_cell_angle_alpha 90.000000
_cell_angle_beta 90.000000
_cell_angle_gamma 90.000000
_cell_volume 1163.059626
_symmetry_space_group_name_H-M "P 42 21 2"
_symmetry_group_IT_number 94
_symmetry_cell_setting 'tetragonal'
loop_
_space_group_symop_operation_xyz
x,y,z
1/2-y,1/2+x,1/2+z
-x,-y,z
1/2+y,1/2-x,1/2+z
1/2+x,1/2-y,1/2-z
1/2-x,1/2+y,1/2-z
y,x,-z
-y,-x,-z
loop_
_atom_site_type_symbol
_atom_site_label
_atom_site_fract_x
_atom_site_fract_y
_atom_site_fract_z
Si Si1 0.000000 0.000000 0.726481
Si Si2 0.784498 0.499628 0.334390
Si Si3 0.764750 0.201612 0.431485
Si Si4 0.665876 0.327821 0.102146
O O1 0.051327 0.837556 0.773567
O O2 0.867806 0.905953 0.675518
O O3 0.729180 0.311791 0.366030
O O4 0.742994 0.640367 0.391543
O O5 0.000000 0.500000 0.323135
O O6 0.712414 0.287587 0.500000
O O7 0.982155 0.194641 0.436638
O O8 0.720242 0.994944 0.420240
#
# Coordination Sequence:
#
# PCOD9550163 Si02
#       4
#     4   8   8   8
#     4  10  22  38  60  90 124 154 204 248 302 360
#     4  10  22  39  59  90 121 156 200 251 298 359
#     4   9  18  39  61  84 120 158 201 248 299 357
#     4   9  20  36  61  90 116 165 200 249 302 360
#
# _framework density 24.07443
#
# number of rings (size 3 to 8) (size 9 to 14) (size 15 to 20)
#    0.000    2.857    0.000    1.714   12.000    0.000 
#    0.000   16.429    0.000   12.000    0.000    0.000 
#    0.000    0.000    0.000    0.000    0.000    0.000 
#
# Total GULP energy -155983.294698 kJ/mol
# GULP energy per Si atom -5570.831954 kJ/mol
# Density = 2.401964 g / cm^3
# Si number density = 24.074430 Si / 1000 Ang^3
#
#
#
# Elastic Constant Matrix: (Units=GPa)
#
#
# Indices 1 2 3 4 5 6 
#
# 1 64.3468 -3.4765 14.4035 0.0000 0.0000 0.0000
# 2 -3.4765 64.3469 14.4037 0.0000 0.0000 0.0000
# 3 14.4035 14.4037 104.3994 0.0000 0.0000 0.0000
# 4 0.0000 0.0000 0.0000 3.3459 0.0000 0.0000
# 5 0.0000 0.0000 0.0000 0.0000 3.3459 0.0000
# 6 0.0000 0.0000 0.0000 0.0000 0.0000 1.9473
#
#
#
# Elastic Compliance Matrix: (Units=1/GPa)
#
#
# Indices 1 2 3 4 5 6 
#
# 1 0.016160 0.001416 -0.002425 0.000000 0.000000 0.000000
# 2 0.001416 0.016160 -0.002425 0.000000 0.000000 0.000000
# 3 -0.002425 -0.002425 0.010248 0.000000 0.000000 0.000000
# 4 0.000000 0.000000 0.000000 0.298874 0.000000 0.000000
# 5 0.000000 0.000000 0.000000 0.000000 0.298874 0.000000
# 6 0.000000 0.000000 0.000000 0.000000 0.000000 0.513542
#
#
# Mechanical properties :
#
#
# Convention : Reuss Voigt Hill
#
# Bulk Modulus (GPa) = 28.01115 31.52827 29.76971
# Shear Modulus (GPa) = 4.26394 15.57864 9.92129
#
# Velocity S-wave (km/s) = 1.33229 2.54658 2.03225
# Velocity P-wave (km/s) = 3.74528 4.66598 4.23075
#
# Compressibility (1/GPa) = 0.03570007
#
# Stress axis : x y z
#
# Youngs Moduli (GPa) = 61.88090 61.88096 97.58290
#
# Poissons Ratio (x) = -0.08762 0.23663
# Poissons Ratio (y) = -0.08762 0.23663
# Poissons Ratio (z) = 0.15005 0.15005
#
# Static dielectric constant tensor:
#      x y z
#    x 2.029830 0.000000 0.000000 
#    y 0.000000 2.029830 0.000000 
#    z 0.000000 0.000000 1.940640 
# 
# From -- ./inp_files/4308.got.cif
#   From: 2010.05.17/outbox.cif.g08.bks.cpg/sg94_3_cif.got.tgz:4308.got - 2010.06.03 19:43:16.
