data_PCOD9550545
_publ_section_title
;
Structure prediction by ZEFSAII (Michael W. Deem and Ramdas Pophale) SiO2 
 PCOD9550545
Probable space group: P 43 2 2
;
_chemical_formula_sum "Si O2"
_cell_formula_units_Z 56
_cell_length_a 15.148448
_cell_length_b 15.148448
_cell_length_c 13.769633
_cell_angle_alpha 90.000000
_cell_angle_beta 90.000000
_cell_angle_gamma 90.000000
_cell_volume 3159.793098
_symmetry_space_group_name_H-M "P 43 2 2"
_symmetry_group_IT_number 95
_symmetry_cell_setting 'tetragonal'
loop_
_space_group_symop_operation_xyz
x,y,z
-y,x,3/4+z
-x,-y,1/2+z
y,-x,1/4+z
x,-y,1/2-z
-x,y,-z
y,x,1/4-z
-y,-x,3/4-z
loop_
_atom_site_type_symbol
_atom_site_label
_atom_site_fract_x
_atom_site_fract_y
_atom_site_fract_z
Si Si1 0.192495 0.180349 0.778980
Si Si2 0.900069 0.528302 0.460080
Si Si3 0.070326 0.654778 0.704959
Si Si4 0.847417 0.793119 0.764678
Si Si5 0.020804 0.906888 0.775335
Si Si6 0.661523 0.918825 0.177122
Si Si7 0.694903 0.107011 0.836697
O O1 0.150846 0.277168 0.781300
O O2 0.243689 0.170816 0.879518
O O3 0.104058 0.119895 0.790552
O O4 0.253858 0.144082 0.693259
O O5 0.899041 0.567388 0.351262
O O6 0.867526 0.427947 0.456980
O O7 0.865391 0.605954 0.530740
O O8 0.000000 0.517723 0.500000
O O9 0.042975 0.646326 0.818089
O O10 0.993143 0.686894 0.629398
O O11 0.840644 0.717712 0.684405
O O12 0.778216 0.869817 0.732704
O O13 0.946312 0.833497 0.766610
O O14 0.071272 0.928729 0.875000
O O15 0.977538 0.000000 0.750000
O O16 0.678123 0.000000 0.250000
#
# Coordination Sequence:
#
# PCOD9550545 Si02
#       7
#     8   8   8   8   8   8   8
#     4  12  23  36  50  74 111 148 183 226 275 327
#     4   9  20  37  58  76  98 138 190 239 276 328
#     4  11  20  36  56  76 105 142 182 232 280 326
#     4  11  23  34  51  76 106 149 181 234 268 312
#     4  12  24  32  43  68 105 150 192 221 260 313
#     4  11  23  37  53  76 107 145 188 231 283 330
#     4  10  21  36  55  76 102 138 194 231 272 313
#
# _framework density 17.72268
#
# number of rings (size 3 to 8) (size 9 to 14) (size 15 to 20)
#    0.000    1.143    4.286    3.000    4.000    0.000 
#    0.000    2.143    0.000    0.000    0.000    0.000 
#    0.000    0.000   29.143    0.000    0.000    0.000 
#
# Total GULP energy -311798.726613 kJ/mol
# GULP energy per Si atom -5567.834404 kJ/mol
# Density = 1.768234 g / cm^3
# Si number density = 17.722680 Si / 1000 Ang^3
#
#
#
# Elastic Constant Matrix: (Units=GPa)
#
#
# Indices 1 2 3 4 5 6 
#
# 1 76.6138 22.2676 14.1417 0.0000 0.0000 0.0000
# 2 22.2676 76.6135 14.1415 0.0000 0.0000 0.0000
# 3 14.1417 14.1415 95.7888 0.0000 0.0000 0.0000
# 4 0.0000 0.0000 0.0000 20.3979 0.0000 0.0000
# 5 0.0000 0.0000 0.0000 0.0000 20.3979 0.0000
# 6 0.0000 0.0000 0.0000 0.0000 0.0000 9.7021
#
#
#
# Elastic Compliance Matrix: (Units=1/GPa)
#
#
# Indices 1 2 3 4 5 6 
#
# 1 0.014480 -0.003921 -0.001559 0.000000 0.000000 0.000000
# 2 -0.003921 0.014480 -0.001559 0.000000 0.000000 0.000000
# 3 -0.001559 -0.001559 0.010900 0.000000 0.000000 0.000000
# 4 0.000000 0.000000 0.000000 0.049025 0.000000 0.000000
# 5 0.000000 0.000000 0.000000 0.000000 0.049025 0.000000
# 6 0.000000 0.000000 0.000000 0.000000 0.000000 0.103070
#
#
# Mechanical properties :
#
#
# Convention : Reuss Voigt Hill
#
# Bulk Modulus (GPa) = 38.78599 38.90199 38.84399
# Shear Modulus (GPa) = 18.96450 23.33059 21.14755
#
# Velocity S-wave (km/s) = 3.27474 3.63219 3.45809
# Velocity P-wave (km/s) = 6.01922 6.29194 6.15709
#
# Compressibility (1/GPa) = 0.02578250
#
# Stress axis : x y z
#
# Youngs Moduli (GPa) = 69.06176 69.06158 91.74382
#
# Poissons Ratio (x) = 0.27078 0.14302
# Poissons Ratio (y) = 0.27078 0.14301
# Poissons Ratio (z) = 0.10766 0.10766
#
# Static dielectric constant tensor:
#      x y z
#    x 1.659740 0.000000 0.000000 
#    y 0.000000 1.659740 0.000000 
#    z 0.000000 0.000000 1.715750 
# 
# From -- ./inp_files/4978.got.cif
#   From: 2010.05.17/outbox.cif.g08.bks.cpg/sg95_3_cif.got.tgz:4978.got - 2010.06.03 19:46:49.
