data_PCOD9550777
_publ_section_title
;
Structure prediction by ZEFSAII (Michael W. Deem and Ramdas Pophale) SiO2 
 PCOD9550777
Probable space group: P 43 21 2
;
_chemical_formula_sum "Si O2"
_cell_formula_units_Z 56
_cell_length_a 13.618389
_cell_length_b 13.618389
_cell_length_c 13.452455
_cell_angle_alpha 90.000000
_cell_angle_beta 90.000000
_cell_angle_gamma 90.000000
_cell_volume 2494.899286
_symmetry_space_group_name_H-M "P 43 21 2"
_symmetry_group_IT_number 96
_symmetry_cell_setting 'tetragonal'
loop_
_space_group_symop_operation_xyz
x,y,z
1/2-y,1/2+x,3/4+z
-x,-y,1/2+z
1/2+y,1/2-x,1/4+z
1/2+x,1/2-y,1/4-z
1/2-x,1/2+y,3/4-z
y,x,-z
-y,-x,1/2-z
loop_
_atom_site_type_symbol
_atom_site_label
_atom_site_fract_x
_atom_site_fract_y
_atom_site_fract_z
Si Si1 0.190510 0.766902 0.536150
Si Si2 0.362094 0.046205 0.729877
Si Si3 0.554643 0.766841 0.184559
Si Si4 0.353761 0.821748 0.682303
Si Si5 0.018864 0.165079 0.964204
Si Si6 0.692377 0.405498 0.667269
Si Si7 0.199416 0.066291 0.256925
O O1 0.239812 0.832438 0.449636
O O2 0.244054 0.803908 0.637919
O O3 0.225359 0.655448 0.518696
O O4 0.077101 0.793483 0.520224
O O5 0.455006 0.119133 0.717871
O O6 0.292980 0.074818 0.638628
O O7 0.371081 0.929902 0.725799
O O8 0.313782 0.080201 0.832682
O O9 0.499865 0.691047 0.259594
O O10 0.512599 0.751940 0.076413
O O11 0.397255 0.743792 0.757317
O O12 0.016866 0.162932 0.844563
O O13 0.059914 0.059914 0.000000
O O14 0.680279 0.319722 0.750000
O O15 0.615327 0.384028 0.578492
#
# Coordination Sequence:
#
# PCOD9550777 Si02
#       7
#     8   8   8   8   8   8   8
#     4  11  24  48  70 102 143 193 235 299 374 427
#     4  11  20  43  71 102 135 185 236 294 356 438
#     4  10  23  43  70 108 139 180 249 294 366 443
#     4  11  25  45  72  98 146 190 244 291 373 430
#     4  12  27  48  69 101 149 187 248 301 346 451
#     4  10  19  38  70  97 138 181 221 294 351 434
#     4  11  24  46  71 103 146 188 234 303 374 423
#
# _framework density 22.445796000000001
#
# number of rings (size 3 to 8) (size 9 to 14) (size 15 to 20)
#    0.000    1.143    7.143    0.000    2.000    5.714 
#    0.000    0.000    0.000    0.000    0.000    0.000 
#    0.000    0.000    0.000    0.000    0.000    0.000 
#
# Total GULP energy -312182.998525 kJ/mol
# GULP energy per Si atom -5574.696402 kJ/mol
# Density = 2.239471 g / cm^3
# Si number density = 22.445796 Si / 1000 Ang^3
#
#
#
# Elastic Constant Matrix: (Units=GPa)
#
#
# Indices 1 2 3 4 5 6 
#
# 1 77.9251 3.4581 11.7822 0.0000 0.0000 0.0000
# 2 3.4581 77.9256 11.7820 0.0000 0.0000 0.0000
# 3 11.7822 11.7820 130.1657 0.0000 0.0000 0.0000
# 4 0.0000 0.0000 0.0000 22.8831 0.0000 0.0000
# 5 0.0000 0.0000 0.0000 0.0000 22.8831 0.0000
# 6 0.0000 0.0000 0.0000 0.0000 0.0000 9.2776
#
#
#
# Elastic Compliance Matrix: (Units=1/GPa)
#
#
# Indices 1 2 3 4 5 6 
#
# 1 0.013024 -0.000405 -0.001142 0.000000 0.000000 0.000000
# 2 -0.000405 0.013023 -0.001142 0.000000 0.000000 0.000000
# 3 -0.001142 -0.001142 0.007889 0.000000 0.000000 0.000000
# 4 0.000000 0.000000 0.000000 0.043700 0.000000 0.000000
# 5 0.000000 0.000000 0.000000 0.000000 0.043700 0.000000
# 6 0.000000 0.000000 0.000000 0.000000 0.000000 0.107786
#
#
# Mechanical properties :
#
#
# Convention : Reuss Voigt Hill
#
# Bulk Modulus (GPa) = 35.01756 37.78456 36.40106
# Shear Modulus (GPa) = 20.49000 28.27503 24.38252
#
# Velocity S-wave (km/s) = 3.02464 3.55308 3.29946
# Velocity P-wave (km/s) = 5.27568 5.80541 5.54687
#
# Compressibility (1/GPa) = 0.02855710
#
# Stress axis : x y z
#
# Youngs Moduli (GPa) = 76.78421 76.78472 126.75430
#
# Poissons Ratio (x) = 0.03112 0.14477
# Poissons Ratio (y) = 0.03112 0.14477
# Poissons Ratio (z) = 0.08770 0.08770
#
# Static dielectric constant tensor:
#      x y z
#    x 1.927220 0.000000 0.000000 
#    y 0.000000 1.927220 0.000000 
#    z 0.000000 0.000000 1.825300 
# 
# From -- ./inp_files/2281.got.cif
#   From: 2010.05.17/outbox.cif.g08.bks.cpg/sg96_2_cif.got.tgz:2281.got - 2010.06.03 19:52:08.
