data_PCOD9550792
_publ_section_title
;
Structure prediction by ZEFSAII (Michael W. Deem and Ramdas Pophale) SiO2 
 PCOD9550792
Probable space group: P 43 21 2
;
_chemical_formula_sum "Si O2"
_cell_formula_units_Z 48
_cell_length_a 20.814728
_cell_length_b 20.814728
_cell_length_c 5.033783
_cell_angle_alpha 90.000000
_cell_angle_beta 90.000000
_cell_angle_gamma 90.000000
_cell_volume 2180.901091
_symmetry_space_group_name_H-M "P 43 21 2"
_symmetry_group_IT_number 96
_symmetry_cell_setting 'tetragonal'
loop_
_space_group_symop_operation_xyz
x,y,z
1/2-y,1/2+x,3/4+z
-x,-y,1/2+z
1/2+y,1/2-x,1/4+z
1/2+x,1/2-y,1/4-z
1/2-x,1/2+y,3/4-z
y,x,-z
-y,-x,1/2-z
loop_
_atom_site_type_symbol
_atom_site_label
_atom_site_fract_x
_atom_site_fract_y
_atom_site_fract_z
Si Si1 0.886690 0.686306 0.446541
Si Si2 0.290374 0.464203 0.427637
Si Si3 0.113733 0.662151 0.179288
Si Si4 0.425848 0.425848 0.500000
Si Si5 0.435231 0.564770 0.750000
Si Si6 0.001275 0.404189 0.922180
Si Si7 0.552702 0.302230 0.062492
O O1 0.843052 0.646627 0.647154
O O2 0.891474 0.758484 0.556606
O O3 0.959476 0.659285 0.494782
O O4 0.863555 0.664058 0.153824
O O5 0.233500 0.413407 0.459018
O O6 0.357890 0.430843 0.349864
O O7 0.298813 0.497736 0.712161
O O8 0.277816 0.520641 0.211032
O O9 0.049813 0.617154 0.197225
O O10 0.429175 0.491695 0.661231
O O11 0.426340 0.623221 0.541895
O O12 0.057510 0.454413 0.863325
#
# Coordination Sequence:
#
# PCOD9550792 Si02
#       7
#     8   8   8   4   4   8   8
#     4  11  23  38  59  88 130 175 221 265 320 390
#     4  11  23  41  66  95 131 172 216 270 345 405
#     4  11  23  38  59  88 130 175 221 265 320 390
#     4  10  22  42  72 104 130 158 212 286 352 416
#     4  10  22  42  72 104 130 158 212 286 352 416
#     4  10  20  32  54  84 120 164 214 272 310 360
#     4  11  23  41  66  95 131 172 216 270 345 405
#
# _framework density 22.009252
#
# number of rings (size 3 to 8) (size 9 to 14) (size 15 to 20)
#    0.000    1.333    1.667    4.000    4.667    4.000 
#    0.000    1.667    0.000    0.000    0.000    0.000 
#    0.000    0.000    0.000    0.000    0.000    0.000 
#
# Total GULP energy -267625.878480 kJ/mol
# GULP energy per Si atom -5575.539135 kJ/mol
# Density = 2.195916 g / cm^3
# Si number density = 22.009252 Si / 1000 Ang^3
#
#
#
# Elastic Constant Matrix: (Units=GPa)
#
#
# Indices 1 2 3 4 5 6 
#
# 1 175.4917 -53.7094 9.7637 0.0000 0.0000 0.0000
# 2 -53.7094 175.4966 9.7642 0.0000 0.0000 0.0000
# 3 9.7637 9.7642 39.9922 0.0000 0.0000 0.0000
# 4 0.0000 0.0000 0.0000 21.7885 0.0000 0.0000
# 5 0.0000 0.0000 0.0000 0.0000 21.7884 0.0000
# 6 0.0000 0.0000 0.0000 0.0000 0.0000 9.4649
#
#
#
# Elastic Compliance Matrix: (Units=1/GPa)
#
#
# Indices 1 2 3 4 5 6 
#
# 1 0.006454 0.002091 -0.002086 0.000000 0.000000 0.000000
# 2 0.002091 0.006454 -0.002086 0.000000 0.000000 0.000000
# 3 -0.002086 -0.002086 0.026024 0.000000 0.000000 0.000000
# 4 0.000000 0.000000 0.000000 0.045896 0.000000 0.000000
# 5 0.000000 0.000000 0.000000 0.000000 0.045896 0.000000
# 6 0.000000 0.000000 0.000000 0.000000 0.000000 0.105654
#
#
# Mechanical properties :
#
#
# Convention : Reuss Voigt Hill
#
# Bulk Modulus (GPa) = 28.76084 35.84640 32.30362
# Shear Modulus (GPa) = 19.83100 38.95248 29.39174
#
# Velocity S-wave (km/s) = 3.00497 4.21149 3.65831
# Velocity P-wave (km/s) = 5.01356 6.32228 5.70557
#
# Compressibility (1/GPa) = 0.03476950
#
# Stress axis : x y z
#
# Youngs Moduli (GPa) = 154.93226 154.93643 38.42660
#
# Poissons Ratio (x) = -0.32404 0.08017
# Poissons Ratio (y) = -0.32403 0.08017
# Poissons Ratio (z) = 0.32325 0.32326
#
# Static dielectric constant tensor:
#      x y z
#    x 1.916070 0.000000 0.000000 
#    y 0.000000 1.916070 0.000000 
#    z 0.000000 0.000000 1.832670 
# 
# From -- ./inp_files/663.got.cif
#   From: 2010.05.17/outbox.cif.g08.bks.cpg/sg96_1_cif.got.tgz:663.got - 2010.06.03 19:52:08.
