data_PCOD9550910
_publ_section_title
;
Structure prediction by ZEFSAII (Michael W. Deem and Ramdas Pophale) SiO2 
 PCOD9550910
Probable space group: P 43 21 2
;
_chemical_formula_sum "Si O2"
_cell_formula_units_Z 36
_cell_length_a 7.703348
_cell_length_b 7.703348
_cell_length_c 24.046633
_cell_angle_alpha 90.000000
_cell_angle_beta 90.000000
_cell_angle_gamma 90.000000
_cell_volume 1426.964965
_symmetry_space_group_name_H-M "P 43 21 2"
_symmetry_group_IT_number 96
_symmetry_cell_setting 'tetragonal'
loop_
_space_group_symop_operation_xyz
x,y,z
1/2-y,1/2+x,3/4+z
-x,-y,1/2+z
1/2+y,1/2-x,1/4+z
1/2+x,1/2-y,1/4-z
1/2-x,1/2+y,3/4-z
y,x,-z
-y,-x,1/2-z
loop_
_atom_site_type_symbol
_atom_site_label
_atom_site_fract_x
_atom_site_fract_y
_atom_site_fract_z
Si Si1 0.061044 0.363886 0.738722
Si Si2 0.343986 0.374471 0.316288
Si Si3 0.848970 0.555606 0.582458
Si Si4 0.456929 0.456929 0.000000
Si Si5 0.226644 0.977278 0.558460
O O1 0.181283 0.419769 0.685371
O O2 0.091709 0.493369 0.790659
O O3 0.072677 0.162596 0.756126
O O4 0.865646 0.386899 0.715677
O O5 0.153253 0.363173 0.341597
O O6 0.444598 0.547187 0.333094
O O7 0.325142 0.387763 0.249056
O O8 0.671792 0.594254 0.549640
O O9 0.824209 0.630928 0.643905
#
# Coordination Sequence:
#
# PCOD9550910 Si02
#       5
#     8   8   8   4   8
#     4  10  21  42  64  88 132 167 201 262 315 365
#     4   9  21  39  61  93 127 162 209 260 312 366
#     4  10  22  38  65  96 126 166 212 257 313 379
#     4  10  22  40  62  92 132 158 212 262 302 376
#     4  10  21  40  63  95 128 161 216 256 304 386
#
# _framework density 25.228368
#
# number of rings (size 3 to 8) (size 9 to 14) (size 15 to 20)
#    0.000    2.222    0.000    2.667    6.222    3.556 
#   12.000    0.000    0.000    0.000    0.000    0.000 
#    0.000    0.000    0.000    0.000    0.000    0.000 
#
# Total GULP energy -200832.670060 kJ/mol
# GULP energy per Si atom -5578.685279 kJ/mol
# Density = 2.517095 g / cm^3
# Si number density = 25.228368 Si / 1000 Ang^3
#
#
#
# Elastic Constant Matrix: (Units=GPa)
#
#
# Indices 1 2 3 4 5 6 
#
# 1 102.0530 12.0323 9.5552 0.0000 0.0000 0.0000
# 2 12.0323 102.0530 9.5552 0.0000 0.0000 0.0000
# 3 9.5552 9.5552 104.7681 0.0000 0.0000 0.0000
# 4 0.0000 0.0000 0.0000 11.6231 0.0000 0.0000
# 5 0.0000 0.0000 0.0000 0.0000 11.6231 0.0000
# 6 0.0000 0.0000 0.0000 0.0000 0.0000 25.9274
#
#
#
# Elastic Compliance Matrix: (Units=1/GPa)
#
#
# Indices 1 2 3 4 5 6 
#
# 1 0.010005 -0.001104 -0.000812 0.000000 0.000000 0.000000
# 2 -0.001104 0.010005 -0.000812 0.000000 0.000000 0.000000
# 3 -0.000812 -0.000812 0.009693 0.000000 0.000000 0.000000
# 4 0.000000 0.000000 0.000000 0.086035 0.000000 0.000000
# 5 0.000000 0.000000 0.000000 0.000000 0.086035 0.000000
# 6 0.000000 0.000000 0.000000 0.000000 0.000000 0.038569
#
#
# Mechanical properties :
#
#
# Convention : Reuss Voigt Hill
#
# Bulk Modulus (GPa) = 41.23991 41.23996 41.23994
# Shear Modulus (GPa) = 19.69431 28.35016 24.02224
#
# Velocity S-wave (km/s) = 2.79703 3.35586 3.08911
# Velocity P-wave (km/s) = 5.17815 5.60338 5.39496
#
# Compressibility (1/GPa) = 0.02424835
#
# Stress axis : x y z
#
# Youngs Moduli (GPa) = 99.95048 99.95048 103.16754
#
# Poissons Ratio (x) = 0.11031 0.08375
# Poissons Ratio (y) = 0.11031 0.08375
# Poissons Ratio (z) = 0.08114 0.08114
#
# Static dielectric constant tensor:
#      x y z
#    x 2.190680 0.000000 0.000000 
#    y 0.000000 2.190680 0.000000 
#    z 0.000000 0.000000 2.014810 
# 
# From -- ./inp_files/4048.got.cif
#   From: 2010.05.17/outbox.cif.g08.bks.cpg/sg96_3_cif.got.tgz:4048.got - 2010.06.03 19:52:08.
