data_PCOD9550841
_publ_section_title
;
Structure prediction by ZEFSAII (Michael W. Deem and Ramdas Pophale) SiO2 
 PCOD9550841
Probable space group: P 43 21 2
;
_chemical_formula_sum "Si O2"
_cell_formula_units_Z 52
_cell_length_a 17.659527
_cell_length_b 17.659527
_cell_length_c 7.580593
_cell_angle_alpha 90.000000
_cell_angle_beta 90.000000
_cell_angle_gamma 90.000000
_cell_volume 2364.075348
_symmetry_space_group_name_H-M "P 43 21 2"
_symmetry_group_IT_number 96
_symmetry_cell_setting 'tetragonal'
loop_
_space_group_symop_operation_xyz
x,y,z
1/2-y,1/2+x,3/4+z
-x,-y,1/2+z
1/2+y,1/2-x,1/4+z
1/2+x,1/2-y,1/4-z
1/2-x,1/2+y,3/4-z
y,x,-z
-y,-x,1/2-z
loop_
_atom_site_type_symbol
_atom_site_label
_atom_site_fract_x
_atom_site_fract_y
_atom_site_fract_z
Si Si1 0.547100 0.216822 0.810270
Si Si2 0.338046 0.185579 0.394743
Si Si3 0.018612 0.127888 0.570922
Si Si4 0.972967 0.415276 0.295445
Si Si5 0.288287 0.617750 0.611072
Si Si6 0.357344 0.357344 0.500000
Si Si7 0.834550 0.488980 0.095640
O O1 0.636083 0.193525 0.812111
O O2 0.536090 0.305818 0.819432
O O3 0.491723 0.172200 0.939031
O O4 0.522790 0.189124 0.610422
O O5 0.273399 0.167992 0.249279
O O6 0.354650 0.274295 0.412985
O O7 0.422973 0.155262 0.367874
O O8 0.047563 0.047563 0.500000
O O9 0.073490 0.153836 0.732186
O O10 0.931325 0.135181 0.626444
O O11 0.952185 0.448970 0.483637
O O12 0.908046 0.445608 0.167214
O O13 0.331990 0.668011 0.750000
O O14 0.236054 0.551421 0.692944
#
# Coordination Sequence:
#
# PCOD9550841 Si02
#       7
#     8   8   8   8   8   4   8
#     4  10  22  39  64  92 130 170 213 270 328 406
#     4  10  20  39  67  92 130 172 219 263 330 406
#     4  10  24  45  68  97 126 173 233 279 332 394
#     4  12  22  32  58  91 131 172 213 256 320 399
#     4  10  23  42  65  94 135 172 215 278 348 388
#     4  12  22  42  76  96 126 180 230 282 334 396
#     4  10  20  42  58  87 131 171 211 260 334 393
#
# _framework density 21.995913999999999
#
# number of rings (size 3 to 8) (size 9 to 14) (size 15 to 20)
#    0.000    1.846    3.077    4.615    4.308    3.077 
#    0.000    1.538    0.000    0.000    0.000    0.000 
#    0.000    0.000    0.000    0.000    0.000    0.000 
#
# Total GULP energy -289917.832483 kJ/mol
# GULP energy per Si atom -5575.342932 kJ/mol
# Density = 2.194585 g / cm^3
# Si number density = 21.995914 Si / 1000 Ang^3
#
#
#
# Elastic Constant Matrix: (Units=GPa)
#
#
# Indices 1 2 3 4 5 6 
#
# 1 100.2539 26.5264 12.7535 0.0000 0.0000 0.0000
# 2 26.5264 100.2539 12.7539 0.0000 0.0000 0.0000
# 3 12.7535 12.7539 19.3176 0.0000 0.0000 0.0000
# 4 0.0000 0.0000 0.0000 29.0694 0.0000 0.0000
# 5 0.0000 0.0000 0.0000 0.0000 29.0696 0.0000
# 6 0.0000 0.0000 0.0000 0.0000 0.0000 45.8064
#
#
#
# Elastic Compliance Matrix: (Units=1/GPa)
#
#
# Indices 1 2 3 4 5 6 
#
# 1 0.011330 -0.002234 -0.006005 0.000000 0.000000 0.000000
# 2 -0.002234 0.011330 -0.006005 0.000000 0.000000 0.000000
# 3 -0.006005 -0.006005 0.059696 0.000000 0.000000 0.000000
# 4 0.000000 0.000000 0.000000 0.034400 0.000000 0.000000
# 5 0.000000 0.000000 0.000000 0.000000 0.034400 0.000000
# 6 0.000000 0.000000 0.000000 0.000000 0.000000 0.021831
#
#
# Mechanical properties :
#
#
# Convention : Reuss Voigt Hill
#
# Bulk Modulus (GPa) = 18.56440 35.98812 27.27626
# Shear Modulus (GPa) = 22.78627 31.97519 27.38073
#
# Velocity S-wave (km/s) = 3.22208 3.81686 3.53201
# Velocity P-wave (km/s) = 4.72236 5.98510 5.39083
#
# Compressibility (1/GPa) = 0.05386653
#
# Stress axis : x y z
#
# Youngs Moduli (GPa) = 88.26416 88.26361 16.75167
#
# Poissons Ratio (x) = 0.19716 0.10059
# Poissons Ratio (y) = 0.19716 0.10060
# Poissons Ratio (z) = 0.53003 0.53005
#
# Static dielectric constant tensor:
#      x y z
#    x 1.837580 0.000000 0.000000 
#    y 0.000000 1.837580 0.000000 
#    z 0.000000 0.000000 1.876300 
# 
# From -- ./inp_files/1555.got.cif
#   From: 2010.05.17/outbox.cif.g08.bks.cpg/sg96_1_cif.got.tgz:1555.got - 2010.06.03 19:52:08.
