data_PCOD9550649
_publ_section_title
;
Structure prediction by ZEFSAII (Michael W. Deem and Ramdas Pophale) SiO2 
 PCOD9550649
Probable space group: P 43 2 2
;
_chemical_formula_sum "Si O2"
_cell_formula_units_Z 36
_cell_length_a 11.587014
_cell_length_b 11.587014
_cell_length_c 13.321280
_cell_angle_alpha 90.000000
_cell_angle_beta 90.000000
_cell_angle_gamma 90.000000
_cell_volume 1788.500312
_symmetry_space_group_name_H-M "P 43 2 2"
_symmetry_group_IT_number 95
_symmetry_cell_setting 'tetragonal'
loop_
_space_group_symop_operation_xyz
x,y,z
-y,x,3/4+z
-x,-y,1/2+z
y,-x,1/4+z
x,-y,1/2-z
-x,y,-z
y,x,1/4-z
-y,-x,3/4-z
loop_
_atom_site_type_symbol
_atom_site_label
_atom_site_fract_x
_atom_site_fract_y
_atom_site_fract_z
Si Si1 0.964206 0.117334 0.197676
Si Si2 0.316926 0.488015 0.861484
Si Si3 0.707554 0.292447 0.875000
Si Si4 0.753673 0.855627 0.431771
Si Si5 0.752665 0.446625 0.577594
O O1 0.859822 0.176117 0.140327
O O2 0.021925 0.206073 0.273677
O O3 0.919722 0.000000 0.250000
O O4 0.064359 0.064359 0.125000
O O5 0.264032 0.500000 0.750000
O O6 0.367260 0.146957 0.873124
O O7 0.242446 0.524369 0.958455
O O8 0.370680 0.359952 0.858120
O O9 0.768695 0.246972 0.775327
O O10 0.571686 0.266138 0.875203
O O11 0.573458 0.426543 0.375000
#
# Coordination Sequence:
#
# PCOD9550649 Si02
#       5
#     8   8   4   8   8
#     4   9  20  43  69  95 116 164 233 288 340 392
#     4   9  18  32  54  84 129 174 214 247 297 388
#     4  12  22  34  64 106 138 178 218 262 328 410
#     4  11  22  37  69  99 127 169 223 284 329 398
#     4  11  20  35  59 101 135 170 217 264 316 396
#
# _framework density 20.128594
#
# number of rings (size 3 to 8) (size 9 to 14) (size 15 to 20)
#    0.000    1.778    4.444    0.667    0.000    0.000 
#    0.000   10.000    9.778    8.000    0.000    0.000 
#    0.000    0.000    0.000    0.000    0.000    0.000 
#
# Total GULP energy -200646.266752 kJ/mol
# GULP energy per Si atom -5573.507410 kJ/mol
# Density = 2.008278 g / cm^3
# Si number density = 20.128594 Si / 1000 Ang^3
#
#
#
# Elastic Constant Matrix: (Units=GPa)
#
#
# Indices 1 2 3 4 5 6 
#
# 1 50.7409 71.0078 57.6742 0.0000 0.0000 0.0000
# 2 71.0078 50.7411 57.6744 0.0000 0.0000 0.0000
# 3 57.6742 57.6744 145.4117 0.0000 0.0000 0.0000
# 4 0.0000 0.0000 0.0000 31.5484 0.0000 0.0000
# 5 0.0000 0.0000 0.0000 0.0000 31.5469 0.0000
# 6 0.0000 0.0000 0.0000 0.0000 0.0000 16.8473
#
#
#
# Elastic Compliance Matrix: (Units=1/GPa)
#
#
# Indices 1 2 3 4 5 6 
#
# 1 -0.018092 0.031250 -0.005219 0.000000 0.000000 0.000000
# 2 0.031250 -0.018092 -0.005219 0.000000 0.000000 0.000000
# 3 -0.005219 -0.005219 0.011017 0.000000 0.000000 0.000000
# 4 0.000000 0.000000 0.000000 0.031697 0.000000 0.000000
# 5 0.000000 0.000000 0.000000 0.000000 0.031699 0.000000
# 6 0.000000 0.000000 0.000000 0.000000 0.000000 0.059357
#
#
# Mechanical properties :
#
#
# Convention : Reuss Voigt Hill
#
# Bulk Modulus (GPa) = 60.76176 68.84515 64.80346
# Shear Modulus (GPa) = 81.37010 20.02434 50.69722
#
# Velocity S-wave (km/s) = 6.36497 3.15750 5.02408
# Velocity P-wave (km/s) = 9.17984 6.89710 8.11910
#
# Compressibility (1/GPa) = 0.01645772
#
# Stress axis : x y z
#
# Youngs Moduli (GPa) = -55.27357 -55.27354 90.76924
#
# Poissons Ratio (x) = 1.72730 0.47372
# Poissons Ratio (y) = 1.72730 0.47371
# Poissons Ratio (z) = -0.28847 -0.28847
#
# Static dielectric constant tensor:
#      x y z
#    x 1.717580 0.000000 0.000000 
#    y 0.000000 1.717590 0.000000 
#    z 0.000000 0.000000 1.824020 
# 
# From -- ./inp_files/4675.got.cif
#   From: 2010.05.17/outbox.cif.g08.bks.cpg/sg95_3_cif.got.tgz:4675.got - 2010.06.03 19:46:49.
