data_PCOD9550744
_publ_section_title
;
Structure prediction by ZEFSAII (Michael W. Deem and Ramdas Pophale) SiO2 
 PCOD9550744
Probable space group: P 43 21 2
;
_chemical_formula_sum "Si O2"
_cell_formula_units_Z 48
_cell_length_a 16.764005
_cell_length_b 16.764005
_cell_length_c 8.440727
_cell_angle_alpha 90.000000
_cell_angle_beta 90.000000
_cell_angle_gamma 90.000000
_cell_volume 2372.113239
_symmetry_space_group_name_H-M "P 43 21 2"
_symmetry_group_IT_number 96
_symmetry_cell_setting 'tetragonal'
loop_
_space_group_symop_operation_xyz
x,y,z
1/2-y,1/2+x,3/4+z
-x,-y,1/2+z
1/2+y,1/2-x,1/4+z
1/2+x,1/2-y,1/4-z
1/2-x,1/2+y,3/4-z
y,x,-z
-y,-x,1/2-z
loop_
_atom_site_type_symbol
_atom_site_label
_atom_site_fract_x
_atom_site_fract_y
_atom_site_fract_z
Si Si1 0.187853 0.606780 0.965258
Si Si2 0.924624 0.257099 0.811538
Si Si3 0.575761 0.029911 0.552920
Si Si4 0.424554 0.697778 0.823683
Si Si5 0.165520 0.482695 0.246798
Si Si6 0.705139 0.257147 0.586152
O O1 0.239239 0.576981 0.819279
O O2 0.193879 0.545451 0.113873
O O3 0.096069 0.624029 0.928642
O O4 0.225529 0.693149 0.002694
O O5 0.958193 0.334181 0.902355
O O6 0.946868 0.272485 0.626899
O O7 0.831338 0.264717 0.861202
O O8 0.983730 0.187177 0.870402
O O9 0.552231 0.044411 0.374306
O O10 0.529429 0.098596 0.652076
O O11 0.378992 0.621009 0.750000
O O12 0.371308 0.735176 0.969603
O O13 0.694277 0.305724 0.750000
#
# Coordination Sequence:
#
# PCOD9550744 Si02
#       6
#     8   8   8   8   8   8
#     4  11  23  37  58  88 133 165 211 253 318 390
#     4  11  21  35  60  85 114 164 211 260 314 364
#     4  10  19  28  43  76 113 150 188 235 295 366
#     4  10  25  39  59  93 125 167 205 263 324 375
#     4  11  20  36  53  88 122 168 204 244 311 378
#     4  11  20  42  62  89 122 167 218 265 311 390
#
# _framework density 20.235122
#
# number of rings (size 3 to 8) (size 9 to 14) (size 15 to 20)
#    0.000    1.333    5.000    3.000    4.667    0.000 
#    0.000    0.000    0.000    0.000    8.667    0.000 
#    0.000    0.000    0.000    0.000    0.000    0.000 
#
# Total GULP energy -267577.514833 kJ/mol
# GULP energy per Si atom -5574.531559 kJ/mol
# Density = 2.018907 g / cm^3
# Si number density = 20.235122 Si / 1000 Ang^3
#
#
#
# Elastic Constant Matrix: (Units=GPa)
#
#
# Indices 1 2 3 4 5 6 
#
# 1 52.1771 5.4181 25.0127 0.0000 0.0000 0.0000
# 2 5.4181 52.1780 25.0132 0.0000 0.0000 0.0000
# 3 25.0127 25.0132 112.4600 0.0000 0.0000 0.0000
# 4 0.0000 0.0000 0.0000 23.0396 0.0000 0.0000
# 5 0.0000 0.0000 0.0000 0.0000 23.0404 0.0000
# 6 0.0000 0.0000 0.0000 0.0000 0.0000 21.2016
#
#
#
# Elastic Compliance Matrix: (Units=1/GPa)
#
#
# Indices 1 2 3 4 5 6 
#
# 1 0.021453 0.000067 -0.004786 0.000000 0.000000 0.000000
# 2 0.000067 0.021453 -0.004786 0.000000 0.000000 0.000000
# 3 -0.004786 -0.004786 0.011021 0.000000 0.000000 0.000000
# 4 0.000000 0.000000 0.000000 0.043404 0.000000 0.000000
# 5 0.000000 0.000000 0.000000 0.000000 0.043402 0.000000
# 6 0.000000 0.000000 0.000000 0.000000 0.000000 0.047166
#
#
# Mechanical properties :
#
#
# Convention : Reuss Voigt Hill
#
# Bulk Modulus (GPa) = 28.64080 36.41145 32.52612
# Shear Modulus (GPa) = 22.87817 24.21438 23.54628
#
# Velocity S-wave (km/s) = 3.36611 3.46302 3.41491
# Velocity P-wave (km/s) = 5.41224 5.83294 5.62653
#
# Compressibility (1/GPa) = 0.03491523
#
# Stress axis : x y z
#
# Youngs Moduli (GPa) = 46.61342 46.61418 90.73444
#
# Poissons Ratio (x) = -0.00311 0.43429
# Poissons Ratio (y) = -0.00311 0.43429
# Poissons Ratio (z) = 0.22311 0.22311
#
# Static dielectric constant tensor:
#      x y z
#    x 1.771260 0.000000 0.000000 
#    y 0.000000 1.771260 0.000000 
#    z 0.000000 0.000000 1.774410 
# 
# From -- ./inp_files/1489.got.cif
#   From: 2010.05.17/outbox.cif.g08.bks.cpg/sg96_1_cif.got.tgz:1489.got - 2010.06.03 19:52:08.
