data_PCOD9550370
_publ_section_title
;
Structure prediction by ZEFSAII (Michael W. Deem and Ramdas Pophale) SiO2 
 PCOD9550370
Probable space group: P 42 21 2
;
_chemical_formula_sum "Si O2"
_cell_formula_units_Z 36
_cell_length_a 11.297204
_cell_length_b 11.297204
_cell_length_c 12.220003
_cell_angle_alpha 90.000000
_cell_angle_beta 90.000000
_cell_angle_gamma 90.000000
_cell_volume 1559.600101
_symmetry_space_group_name_H-M "P 42 21 2"
_symmetry_group_IT_number 94
_symmetry_cell_setting 'tetragonal'
loop_
_space_group_symop_operation_xyz
x,y,z
1/2-y,1/2+x,1/2+z
-x,-y,z
1/2+y,1/2-x,1/2+z
1/2+x,1/2-y,1/2-z
1/2-x,1/2+y,1/2-z
y,x,-z
-y,-x,-z
loop_
_atom_site_type_symbol
_atom_site_label
_atom_site_fract_x
_atom_site_fract_y
_atom_site_fract_z
Si Si1 0.815345 0.327656 0.091971
Si Si2 0.842339 0.940894 0.232530
Si Si3 0.079115 0.812032 0.260971
Si Si4 0.941679 0.373462 0.457996
Si Si5 0.827229 0.827229 0.000000
O O1 0.750214 0.358240 0.205431
O O2 0.920522 0.249123 0.141544
O O3 0.745058 0.254943 0.000000
O O4 0.838332 0.454468 0.040297
O O5 0.962599 0.888504 0.279953
O O6 0.824481 0.080790 0.254846
O O7 0.849615 0.910913 0.104458
O O8 0.074489 0.715726 0.356562
O O9 0.813699 0.355947 0.517032
O O10 0.000000 0.500000 0.418412
#
# Coordination Sequence:
#
# PCOD9550370 Si02
#       5
#     8   8   8   8   4
#     4  12  26  46  75 111 151 199 261 322 400 475
#     4  11  26  46  74 106 153 201 257 323 395 475
#     4  11  26  47  72 111 149 200 258 324 390 476
#     4  12  27  48  78 114 159 204 261 330 400 484
#     4  12  26  49  73 114 158 208 264 328 404 475
#
# _framework density 23.082839
#
# number of rings (size 3 to 8) (size 9 to 14) (size 15 to 20)
#    0.000    0.444    4.444    2.667    6.222    3.556 
#    0.000    0.000    0.000    0.000    0.000    0.000 
#    0.000    0.000    0.000    0.000    0.000    0.000 
#
# Total GULP energy -200497.671866 kJ/mol
# GULP energy per Si atom -5569.379774 kJ/mol
# Density = 2.303030 g / cm^3
# Si number density = 23.082839 Si / 1000 Ang^3
#
#
#
# Elastic Constant Matrix: (Units=GPa)
#
#
# Indices 1 2 3 4 5 6 
#
# 1 115.5980 28.7618 36.6330 0.0000 0.0000 0.0000
# 2 28.7618 115.6004 36.6329 0.0000 0.0000 0.0000
# 3 36.6330 36.6329 117.9564 0.0000 0.0000 0.0000
# 4 0.0000 0.0000 0.0000 30.2892 0.0000 0.0000
# 5 0.0000 0.0000 0.0000 0.0000 30.2883 0.0000
# 6 0.0000 0.0000 0.0000 0.0000 0.0000 22.4300
#
#
#
# Elastic Compliance Matrix: (Units=1/GPa)
#
#
# Indices 1 2 3 4 5 6 
#
# 1 0.009870 -0.001646 -0.002554 0.000000 0.000000 0.000000
# 2 -0.001646 0.009869 -0.002554 0.000000 0.000000 0.000000
# 3 -0.002554 -0.002554 0.010064 0.000000 0.000000 0.000000
# 4 0.000000 0.000000 0.000000 0.033015 0.000000 0.000000
# 5 0.000000 0.000000 0.000000 0.000000 0.033016 0.000000
# 6 0.000000 0.000000 0.000000 0.000000 0.000000 0.044583
#
#
# Mechanical properties :
#
#
# Convention : Reuss Voigt Hill
#
# Bulk Modulus (GPa) = 61.36835 61.46781 61.41808
# Shear Modulus (GPa) = 31.37615 33.07665 32.22640
#
# Velocity S-wave (km/s) = 3.69085 3.78954 3.74052
# Velocity P-wave (km/s) = 6.69380 6.77012 6.73207
#
# Compressibility (1/GPa) = 0.01629504
#
# Stress axis : x y z
#
# Youngs Moduli (GPa) = 101.32128 101.32364 99.36445
#
# Poissons Ratio (x) = 0.16681 0.25376
# Poissons Ratio (y) = 0.16680 0.25376
# Poissons Ratio (z) = 0.25876 0.25876
#
# Static dielectric constant tensor:
#      x y z
#    x 2.363510 0.000000 0.000000 
#    y 0.000000 2.363580 0.000000 
#    z 0.000000 0.000000 1.832630 
# 
# From -- ./inp_files/2409.got.cif
#   From: 2010.05.17/outbox.cif.g08.bks.cpg/sg94_2_cif.got.tgz:2409.got - 2010.06.03 19:43:16.
