data_PCOD9550730
_publ_section_title
;
Structure prediction by ZEFSAII (Michael W. Deem and Ramdas Pophale) SiO2 
 PCOD9550730
Probable space group: P 43 21 2
;
_chemical_formula_sum "Si O2"
_cell_formula_units_Z 64
_cell_length_a 10.404557
_cell_length_b 10.404557
_cell_length_c 23.766482
_cell_angle_alpha 90.000000
_cell_angle_beta 90.000000
_cell_angle_gamma 90.000000
_cell_volume 2572.835907
_symmetry_space_group_name_H-M "P 43 21 2"
_symmetry_group_IT_number 96
_symmetry_cell_setting 'tetragonal'
loop_
_space_group_symop_operation_xyz
x,y,z
1/2-y,1/2+x,3/4+z
-x,-y,1/2+z
1/2+y,1/2-x,1/4+z
1/2+x,1/2-y,1/4-z
1/2-x,1/2+y,3/4-z
y,x,-z
-y,-x,1/2-z
loop_
_atom_site_type_symbol
_atom_site_label
_atom_site_fract_x
_atom_site_fract_y
_atom_site_fract_z
Si Si1 0.832129 0.910104 0.053701
Si Si2 0.670008 0.222080 0.460870
Si Si3 0.064724 0.811949 0.111865
Si Si4 0.797240 0.990212 0.529781
Si Si5 0.209171 0.368140 0.125211
Si Si6 0.559936 0.795080 0.028303
Si Si7 0.971071 0.451260 0.186321
Si Si8 0.688871 0.918005 0.209373
O O1 0.914172 0.822780 0.095516
O O2 0.700814 0.854259 0.028775
O O3 0.790593 0.040866 0.082407
O O4 0.923413 0.923413 0.000000
O O5 0.738057 0.093102 0.484965
O O6 0.728997 0.257960 0.400493
O O7 0.517292 0.211453 0.470503
O O8 0.709203 0.336082 0.504668
O O9 0.073327 0.823654 0.179188
O O10 0.130555 0.681125 0.086974
O O11 0.134654 0.927619 0.078947
O O12 0.674782 0.915957 0.555242
O O13 0.887467 0.887467 0.500000
O O14 0.056756 0.389793 0.137526
O O15 0.233349 0.446328 0.067645
O O16 0.476830 0.894928 0.066333
O O17 0.044267 0.416135 0.244189
#
# Coordination Sequence:
#
# PCOD9550730 Si02
#       8
#     8   8   8   8   8   8   8   8
#     4  11  20  32  52  86 117 147 186 236 303 350
#     4   9  19  32  53  80 110 144 184 239 290 342
#     4  11  19  30  56  86 116 147 185 233 298 355
#     4  10  20  34  52  78 113 147 182 237 292 342
#     4  10  18  34  55  81 108 150 195 235 287 359
#     4  10  20  32  50  84 119 143 179 237 292 349
#     4   9  19  33  53  79 109 144 191 241 268 338
#     4  10  18  33  58  82 107 148 198 232 282 352
#
# _framework density 24.875274999999998
#
# number of rings (size 3 to 8) (size 9 to 14) (size 15 to 20)
#    0.000    2.000    2.500    4.875    3.500    0.000 
#    0.000    0.000    8.250    3.000    0.000    0.000 
#    0.000    0.000    0.000    0.000    0.000    0.000 
#
# Total GULP energy -357280.264408 kJ/mol
# GULP energy per Si atom -5582.504131 kJ/mol
# Density = 2.481866 g / cm^3
# Si number density = 24.875275 Si / 1000 Ang^3
#
#
#
# Elastic Constant Matrix: (Units=GPa)
#
#
# Indices 1 2 3 4 5 6 
#
# 1 50.0434 35.8008 7.5796 0.0000 0.0000 0.0000
# 2 35.8008 50.0434 7.5796 0.0000 0.0000 0.0000
# 3 7.5796 7.5796 37.9112 0.0000 0.0000 0.0000
# 4 0.0000 0.0000 0.0000 30.0731 0.0000 0.0000
# 5 0.0000 0.0000 0.0000 0.0000 30.0731 0.0000
# 6 0.0000 0.0000 0.0000 0.0000 0.0000 14.9675
#
#
#
# Elastic Compliance Matrix: (Units=1/GPa)
#
#
# Indices 1 2 3 4 5 6 
#
# 1 0.041144 -0.029068 -0.002414 0.000000 0.000000 0.000000
# 2 -0.029068 0.041144 -0.002414 0.000000 0.000000 0.000000
# 3 -0.002414 -0.002414 0.027343 0.000000 0.000000 0.000000
# 4 0.000000 0.000000 0.000000 0.033252 0.000000 0.000000
# 5 0.000000 0.000000 0.000000 0.000000 0.033252 0.000000
# 6 0.000000 0.000000 0.000000 0.000000 0.000000 0.066811
#
#
# Mechanical properties :
#
#
# Convention : Reuss Voigt Hill
#
# Bulk Modulus (GPa) = 23.90255 26.65756 25.28005
# Shear Modulus (GPa) = 15.39954 20.82526 18.11240
#
# Velocity S-wave (km/s) = 2.49081 2.89656 2.70131
# Velocity P-wave (km/s) = 4.23108 4.68257 4.46254
#
# Compressibility (1/GPa) = 0.04183655
#
# Stress axis : x y z
#
# Youngs Moduli (GPa) = 24.30509 24.30509 36.57276
#
# Poissons Ratio (x) = 0.70651 0.08829
# Poissons Ratio (y) = 0.70651 0.08829
# Poissons Ratio (z) = 0.05868 0.05868
#
# Static dielectric constant tensor:
#      x y z
#    x 2.064400 0.000000 0.000000 
#    y 0.000000 2.064400 0.000000 
#    z 0.000000 0.000000 2.033210 
# 
# From -- ./inp_files/4203.got.cif
#   From: 2010.05.17/outbox.cif.g08.bks.cpg/sg96_3_cif.got.tgz:4203.got - 2010.06.03 19:52:08.
