data_PCOD9550937
_publ_section_title
;
Structure prediction by ZEFSAII (Michael W. Deem and Ramdas Pophale) SiO2 
 PCOD9550937
Probable space group: P 43 21 2
;
_chemical_formula_sum "Si O2"
_cell_formula_units_Z 32
_cell_length_a 8.484226
_cell_length_b 8.484226
_cell_length_c 19.329899
_cell_angle_alpha 90.000000
_cell_angle_beta 90.000000
_cell_angle_gamma 90.000000
_cell_volume 1391.406545
_symmetry_space_group_name_H-M "P 43 21 2"
_symmetry_group_IT_number 96
_symmetry_cell_setting 'tetragonal'
loop_
_space_group_symop_operation_xyz
x,y,z
1/2-y,1/2+x,3/4+z
-x,-y,1/2+z
1/2+y,1/2-x,1/4+z
1/2+x,1/2-y,1/4-z
1/2-x,1/2+y,3/4-z
y,x,-z
-y,-x,1/2-z
loop_
_atom_site_type_symbol
_atom_site_label
_atom_site_fract_x
_atom_site_fract_y
_atom_site_fract_z
Si Si1 0.075543 0.155140 0.925778
Si Si2 0.972857 0.256672 0.177666
Si Si3 0.915099 0.796600 0.819099
Si Si4 0.380886 0.273648 0.575218
O O1 0.114703 0.338576 0.931243
O O2 0.922398 0.142800 0.877529
O O3 0.229563 0.079315 0.888867
O O4 0.069628 0.069628 0.000000
O O5 0.082109 0.282881 0.244288
O O6 0.881937 0.085758 0.178721
O O7 0.875239 0.687720 0.883979
O O8 0.781719 0.931827 0.815524
O O9 0.303759 0.303759 0.500000
#
# Coordination Sequence:
#
# PCOD9550937 Si02
#       4
#     8   8   8   8
#     4  11  23  41  71  98 131 180 226 273 343 400
#     4  10  22  45  66  96 136 170 225 280 326 400
#     4  10  21  46  65  91 139 174 210 284 334 387
#     4  11  24  45  67 101 138 174 227 283 335 411
#
# _framework density 22.998308000000002
#
# number of rings (size 3 to 8) (size 9 to 14) (size 15 to 20)
#    0.000    1.500    7.500    0.000    3.500    6.000 
#    4.500    0.000    0.000    0.000    0.000    0.000 
#    0.000    0.000    0.000    0.000    0.000    0.000 
#
# Total GULP energy -178600.227080 kJ/mol
# GULP energy per Si atom -5581.257096 kJ/mol
# Density = 2.294596 g / cm^3
# Si number density = 22.998308 Si / 1000 Ang^3
#
#
#
# Elastic Constant Matrix: (Units=GPa)
#
#
# Indices 1 2 3 4 5 6 
#
# 1 42.4889 22.1742 28.5135 0.0000 0.0000 0.0000
# 2 22.1742 42.4889 28.5135 0.0000 0.0000 0.0000
# 3 28.5135 28.5135 171.3289 0.0000 0.0000 0.0000
# 4 0.0000 0.0000 0.0000 21.7988 0.0000 0.0000
# 5 0.0000 0.0000 0.0000 0.0000 21.7988 0.0000
# 6 0.0000 0.0000 0.0000 0.0000 0.0000 15.1725
#
#
#
# Elastic Compliance Matrix: (Units=1/GPa)
#
#
# Indices 1 2 3 4 5 6 
#
# 1 0.033675 -0.015550 -0.003016 0.000000 0.000000 0.000000
# 2 -0.015550 0.033675 -0.003016 0.000000 0.000000 0.000000
# 3 -0.003016 -0.003016 0.006841 0.000000 0.000000 0.000000
# 4 0.000000 0.000000 0.000000 0.045874 0.000000 0.000000
# 5 0.000000 0.000000 0.000000 0.000000 0.045874 0.000000
# 6 0.000000 0.000000 0.000000 0.000000 0.000000 0.065909
#
#
# Mechanical properties :
#
#
# Convention : Reuss Voigt Hill
#
# Bulk Modulus (GPa) = 32.23212 46.07879 39.15546
# Shear Modulus (GPa) = 17.52196 23.56104 20.54150
#
# Velocity S-wave (km/s) = 2.76321 3.20420 2.99184
# Velocity P-wave (km/s) = 4.92198 5.81106 5.38490
#
# Compressibility (1/GPa) = 0.03102495
#
# Stress axis : x y z
#
# Youngs Moduli (GPa) = 29.69543 29.69543 146.18260
#
# Poissons Ratio (x) = 0.46177 0.44095
# Poissons Ratio (y) = 0.46177 0.44095
# Poissons Ratio (z) = 0.08958 0.08958
#
# Static dielectric constant tensor:
#      x y z
#    x 1.903420 0.000000 0.000000 
#    y 0.000000 1.903420 0.000000 
#    z 0.000000 0.000000 1.999240 
# 
# From -- ./inp_files/3326.got.cif
#   From: 2010.05.17/outbox.cif.g08.bks.cpg/sg96_2_cif.got.tgz:3326.got - 2010.06.03 19:52:08.
