data_PCOD9550469
_publ_section_title
;
Structure prediction by ZEFSAII (Michael W. Deem and Ramdas Pophale) SiO2 
 PCOD9550469
Probable space group: P 43 2 2
;
_chemical_formula_sum "Si O2"
_cell_formula_units_Z 20
_cell_length_a 8.098532
_cell_length_b 8.098532
_cell_length_c 12.670208
_cell_angle_alpha 90.000000
_cell_angle_beta 90.000000
_cell_angle_gamma 90.000000
_cell_volume 830.991056
_symmetry_space_group_name_H-M "P 43 2 2"
_symmetry_group_IT_number 95
_symmetry_cell_setting 'tetragonal'
loop_
_space_group_symop_operation_xyz
x,y,z
-y,x,3/4+z
-x,-y,1/2+z
y,-x,1/4+z
x,-y,1/2-z
-x,y,-z
y,x,1/4-z
-y,-x,3/4-z
loop_
_atom_site_type_symbol
_atom_site_label
_atom_site_fract_x
_atom_site_fract_y
_atom_site_fract_z
Si Si1 0.687580 0.229211 0.541436
Si Si2 0.698308 0.383461 0.982524
Si Si3 0.000000 0.026169 0.500000
O O1 0.500000 0.204077 0.500000
O O2 0.733400 0.422106 0.524990
O O3 0.686189 0.207145 0.667839
O O4 0.825106 0.121076 0.487919
O O5 0.716102 0.283899 0.875000
O O6 0.500000 0.376623 0.000000
O O7 0.028920 0.971081 0.375000
#
# Coordination Sequence:
#
# PCOD9550469 Si02
#       3
#     8   8   4
#     4  10  19  39  69  97 134 183 225 273 340 401
#     4   8  15  31  62 101 136 175 228 280 329 397
#     4  12  28  48  66  98 142 176 224 286 336 402
#
# _framework density 24.067647000000001
#
# number of rings (size 3 to 8) (size 9 to 14) (size 15 to 20)
#    0.000    2.400    0.000    6.000    0.000    1.600 
#    0.000   26.000    0.000    0.000    0.000    0.000 
#    0.000    0.000    0.000    0.000    0.000    0.000 
#
# Total GULP energy -111413.954072 kJ/mol
# GULP energy per Si atom -5570.697704 kJ/mol
# Density = 2.401287 g / cm^3
# Si number density = 24.067647 Si / 1000 Ang^3
#
#
#
# Elastic Constant Matrix: (Units=GPa)
#
#
# Indices 1 2 3 4 5 6 
#
# 1 57.9397 47.1175 25.5664 0.0000 0.0000 0.0000
# 2 47.1175 57.9400 25.5667 0.0000 0.0000 0.0000
# 3 25.5664 25.5667 219.9540 0.0000 0.0000 0.0000
# 4 0.0000 0.0000 0.0000 11.3344 0.0000 0.0000
# 5 0.0000 0.0000 0.0000 0.0000 11.3344 0.0000
# 6 0.0000 0.0000 0.0000 0.0000 0.0000 35.4506
#
#
#
# Elastic Compliance Matrix: (Units=1/GPa)
#
#
# Indices 1 2 3 4 5 6 
#
# 1 0.051245 -0.041156 -0.001173 0.000000 0.000000 0.000000
# 2 -0.041156 0.051245 -0.001173 0.000000 0.000000 0.000000
# 3 -0.001173 -0.001173 0.004819 0.000000 0.000000 0.000000
# 4 0.000000 0.000000 0.000000 0.088227 0.000000 0.000000
# 5 0.000000 0.000000 0.000000 0.000000 0.088227 0.000000
# 6 0.000000 0.000000 0.000000 0.000000 0.000000 0.028208
#
#
# Mechanical properties :
#
#
# Convention : Reuss Voigt Hill
#
# Bulk Modulus (GPa) = 49.24450 59.14833 54.19641
# Shear Modulus (GPa) = 12.32304 27.46275 19.89289
#
# Velocity S-wave (km/s) = 2.26523 3.38163 2.87808
# Velocity P-wave (km/s) = 5.22944 6.31478 5.79756
#
# Compressibility (1/GPa) = 0.02030684
#
# Stress axis : x y z
#
# Youngs Moduli (GPa) = 19.51391 19.51400 207.51034
#
# Poissons Ratio (x) = 0.80312 0.24335
# Poissons Ratio (y) = 0.80311 0.24337
# Poissons Ratio (z) = 0.02288 0.02289
#
# Static dielectric constant tensor:
#      x y z
#    x 1.889150 0.000000 0.000000 
#    y 0.000000 1.889150 0.000000 
#    z 0.000000 0.000000 2.035000 
# 
# From -- ./inp_files/3125.got.cif
#   From: 2010.05.17/outbox.cif.g08.bks.cpg/sg95_2_cif.got.tgz:3125.got - 2010.06.03 19:46:49.
