data_PCOD9550946
_publ_section_title
;
Structure prediction by ZEFSAII (Michael W. Deem and Ramdas Pophale) SiO2 
 PCOD9550946
Probable space group: P 43 21 2
;
_chemical_formula_sum "Si O2"
_cell_formula_units_Z 48
_cell_length_a 16.708671
_cell_length_b 16.708671
_cell_length_c 9.498020
_cell_angle_alpha 90.000000
_cell_angle_beta 90.000000
_cell_angle_gamma 90.000000
_cell_volume 2651.654247
_symmetry_space_group_name_H-M "P 43 21 2"
_symmetry_group_IT_number 96
_symmetry_cell_setting 'tetragonal'
loop_
_space_group_symop_operation_xyz
x,y,z
1/2-y,1/2+x,3/4+z
-x,-y,1/2+z
1/2+y,1/2-x,1/4+z
1/2+x,1/2-y,1/4-z
1/2-x,1/2+y,3/4-z
y,x,-z
-y,-x,1/2-z
loop_
_atom_site_type_symbol
_atom_site_label
_atom_site_fract_x
_atom_site_fract_y
_atom_site_fract_z
Si Si1 0.164064 0.835937 0.250000
Si Si2 0.337347 0.851337 0.740067
Si Si3 0.529731 0.470270 0.750000
Si Si4 0.137590 0.114132 0.732820
Si Si5 0.754615 0.744097 0.259135
Si Si6 0.508810 0.223956 0.118498
Si Si7 0.349370 0.485034 0.651359
O O1 0.200804 0.795938 0.388362
O O2 0.068407 0.827387 0.266264
O O3 0.287462 0.808645 0.614448
O O4 0.309147 0.808319 0.884775
O O5 0.428829 0.834757 0.696128
O O6 0.317496 0.943749 0.769405
O O7 0.562626 0.417794 0.879210
O O8 0.435435 0.460088 0.715977
O O9 0.184157 0.193593 0.685280
O O10 0.209513 0.058700 0.784203
O O11 0.077253 0.141737 0.856584
O O12 0.469910 0.279182 0.238630
#
# Coordination Sequence:
#
# PCOD9550946 Si02
#       7
#     4   8   4   8   8   8   8
#     4  12  23  38  56  94 133 160 204 246 306 372
#     4  10  22  39  67  86 112 159 216 257 305 364
#     4  12  23  32  54  96 127 164 190 238 314 368
#     4  11  22  38  58  87 131 160 198 248 310 369
#     4  10  22  39  60  91 122 166 206 246 303 381
#     4  11  22  40  64  85 116 162 213 259 302 370
#     4  12  22  34  58  92 128 157 197 247 306 372
#
# _framework density 18.101907000000001
#
# number of rings (size 3 to 8) (size 9 to 14) (size 15 to 20)
#    0.000    1.000    6.667    0.500    2.333    0.000 
#    0.000    0.000    7.333    0.000    0.000    0.000 
#    0.000    0.000    0.000    0.000    0.000    0.000 
#
# Total GULP energy -267524.926682 kJ/mol
# GULP energy per Si atom -5573.435973 kJ/mol
# Density = 1.806071 g / cm^3
# Si number density = 18.101907 Si / 1000 Ang^3
#
#
#
# Elastic Constant Matrix: (Units=GPa)
#
#
# Indices 1 2 3 4 5 6 
#
# 1 93.5939 61.8767 29.4475 0.0000 0.0000 0.0000
# 2 61.8767 93.5948 29.4474 0.0000 0.0000 0.0000
# 3 29.4475 29.4474 58.6681 0.0000 0.0000 0.0000
# 4 0.0000 0.0000 0.0000 29.1474 0.0000 0.0000
# 5 0.0000 0.0000 0.0000 0.0000 29.1470 0.0000
# 6 0.0000 0.0000 0.0000 0.0000 0.0000 36.2718
#
#
#
# Elastic Compliance Matrix: (Units=1/GPa)
#
#
# Indices 1 2 3 4 5 6 
#
# 1 0.019735 -0.011793 -0.003987 0.000000 0.000000 0.000000
# 2 -0.011793 0.019735 -0.003986 0.000000 0.000000 0.000000
# 3 -0.003987 -0.003986 0.021047 0.000000 0.000000 0.000000
# 4 0.000000 0.000000 0.000000 0.034308 0.000000 0.000000
# 5 0.000000 0.000000 0.000000 0.000000 0.034309 0.000000
# 6 0.000000 0.000000 0.000000 0.000000 0.000000 0.027570
#
#
# Mechanical properties :
#
#
# Convention : Reuss Voigt Hill
#
# Bulk Modulus (GPa) = 47.65197 54.15556 50.90376
# Shear Modulus (GPa) = 24.60255 27.25226 25.92740
#
# Velocity S-wave (km/s) = 3.69062 3.88428 3.78868
# Velocity P-wave (km/s) = 6.67400 7.07805 6.87899
#
# Compressibility (1/GPa) = 0.02098549
#
# Stress axis : x y z
#
# Youngs Moduli (GPa) = 50.67070 50.67128 47.51290
#
# Poissons Ratio (x) = 0.59756 0.18941
# Poissons Ratio (y) = 0.59756 0.18940
# Poissons Ratio (z) = 0.20200 0.20200
#
# Static dielectric constant tensor:
#      x y z
#    x 1.639660 0.000000 0.000000 
#    y 0.000000 1.639650 0.000000 
#    z 0.000000 0.000000 1.726920 
# 
# From -- ./inp_files/1520.got.cif
#   From: 2010.05.17/outbox.cif.g08.bks.cpg/sg96_1_cif.got.tgz:1520.got - 2010.06.03 19:52:08.
