data_PCOD9550712
_publ_section_title
;
Structure prediction by ZEFSAII (Michael W. Deem and Ramdas Pophale) SiO2 
 PCOD9550712
Probable space group: P 43 21 2
;
_chemical_formula_sum "Si O2"
_cell_formula_units_Z 32
_cell_length_a 6.843457
_cell_length_b 6.843457
_cell_length_c 25.127813
_cell_angle_alpha 90.000000
_cell_angle_beta 90.000000
_cell_angle_gamma 90.000000
_cell_volume 1176.808447
_symmetry_space_group_name_H-M "P 43 21 2"
_symmetry_group_IT_number 96
_symmetry_cell_setting 'tetragonal'
loop_
_space_group_symop_operation_xyz
x,y,z
1/2-y,1/2+x,3/4+z
-x,-y,1/2+z
1/2+y,1/2-x,1/4+z
1/2+x,1/2-y,1/4-z
1/2-x,1/2+y,3/4-z
y,x,-z
-y,-x,1/2-z
loop_
_atom_site_type_symbol
_atom_site_label
_atom_site_fract_x
_atom_site_fract_y
_atom_site_fract_z
Si Si1 0.867626 0.748300 0.253563
Si Si2 0.072838 0.912714 0.671964
Si Si3 0.981677 0.513088 0.839665
Si Si4 0.553409 0.664855 0.833224
O O1 0.947490 0.880033 0.204895
O O2 0.788637 0.913450 0.294830
O O3 0.714826 0.595854 0.227990
O O4 0.019598 0.621261 0.287188
O O5 0.888009 0.274893 0.601557
O O6 0.303355 0.879249 0.673809
O O7 0.011588 0.938015 0.610865
O O8 0.020775 0.361667 0.887171
#
# Coordination Sequence:
#
# PCOD9550712 Si02
#       4
#     8   8   8   8
#     4   9  18  29  51  86 112 152 206 249 292 358
#     4   9  18  31  52  86 122 160 199 256 306 359
#     4  10  17  29  52  85 121 154 205 246 299 365
#     4  10  17  31  54  86 118 163 206 238 310 376
#
# _framework density 27.192191999999999
#
# number of rings (size 3 to 8) (size 9 to 14) (size 15 to 20)
#    0.000    2.500    5.000    0.000    0.000    0.000 
#    0.000    0.000    0.000   15.000    0.000   98.000 
#    0.000    0.000    0.000    0.000    0.000    0.000 
#
# Total GULP energy -178547.049618 kJ/mol
# GULP energy per Si atom -5579.595301 kJ/mol
# Density = 2.713030 g / cm^3
# Si number density = 27.192192 Si / 1000 Ang^3
#
#
#
# Elastic Constant Matrix: (Units=GPa)
#
#
# Indices 1 2 3 4 5 6 
#
# 1 110.6852 30.5336 48.0667 0.0000 0.0000 0.0000
# 2 30.5336 110.6852 48.0667 0.0000 0.0000 0.0000
# 3 48.0667 48.0667 89.9249 0.0000 0.0000 0.0000
# 4 0.0000 0.0000 0.0000 43.4577 0.0000 0.0000
# 5 0.0000 0.0000 0.0000 0.0000 43.4577 0.0000
# 6 0.0000 0.0000 0.0000 0.0000 0.0000 50.6452
#
#
#
# Elastic Compliance Matrix: (Units=1/GPa)
#
#
# Indices 1 2 3 4 5 6 
#
# 1 0.011804 -0.000672 -0.005950 0.000000 0.000000 0.000000
# 2 -0.000672 0.011804 -0.005950 0.000000 0.000000 0.000000
# 3 -0.005950 -0.005950 0.017481 0.000000 0.000000 0.000000
# 4 0.000000 0.000000 0.000000 0.023011 0.000000 0.000000
# 5 0.000000 0.000000 0.000000 0.000000 0.023011 0.000000
# 6 0.000000 0.000000 0.000000 0.000000 0.000000 0.019745
#
#
# Mechanical properties :
#
#
# Convention : Reuss Voigt Hill
#
# Bulk Modulus (GPa) = 62.71865 62.73661 62.72763
# Shear Modulus (GPa) = 36.41227 39.82064 38.11646
#
# Velocity S-wave (km/s) = 3.66330 3.83092 3.74805
# Velocity P-wave (km/s) = 6.40375 6.53372 6.46907
#
# Compressibility (1/GPa) = 0.01594422
#
# Stress axis : x y z
#
# Youngs Moduli (GPa) = 84.71677 84.71677 57.20389
#
# Poissons Ratio (x) = 0.05696 0.34037
# Poissons Ratio (y) = 0.05696 0.34037
# Poissons Ratio (z) = 0.50408 0.50408
#
# Static dielectric constant tensor:
#      x y z
#    x 2.194510 0.000000 0.000000 
#    y 0.000000 2.194510 0.000000 
#    z 0.000000 0.000000 2.107260 
# 
# From -- ./inp_files/3736.got.cif
#   From: 2010.05.17/outbox.cif.g08.bks.cpg/sg96_2_cif.got.tgz:3736.got - 2010.06.03 19:52:08.
