data_PCOD9550327
_publ_section_title
;
Structure prediction by ZEFSAII (Michael W. Deem and Ramdas Pophale) SiO2 
 PCOD9550327
Probable space group: P 42 21 2
;
_chemical_formula_sum "Si O2"
_cell_formula_units_Z 42
_cell_length_a 15.286422
_cell_length_b 15.286422
_cell_length_c 7.620233
_cell_angle_alpha 90.000000
_cell_angle_beta 90.000000
_cell_angle_gamma 90.000000
_cell_volume 1780.655642
_symmetry_space_group_name_H-M "P 42 21 2"
_symmetry_group_IT_number 94
_symmetry_cell_setting 'tetragonal'
loop_
_space_group_symop_operation_xyz
x,y,z
1/2-y,1/2+x,1/2+z
-x,-y,z
1/2+y,1/2-x,1/2+z
1/2+x,1/2-y,1/2-z
1/2-x,1/2+y,1/2-z
y,x,-z
-y,-x,-z
loop_
_atom_site_type_symbol
_atom_site_label
_atom_site_fract_x
_atom_site_fract_y
_atom_site_fract_z
Si Si1 0.753222 0.451001 0.812292
Si Si2 0.238188 0.365947 0.897227
Si Si3 0.428284 0.611403 0.687493
Si Si4 0.000000 0.000000 0.500000
Si Si5 0.419132 0.794611 0.784215
Si Si6 0.921147 0.560346 0.134542
O O1 0.715517 0.549768 0.815641
O O2 0.675496 0.393804 0.733022
O O3 0.848824 0.452219 0.721592
O O4 0.769503 0.423239 0.012190
O O5 0.180846 0.315908 0.755694
O O6 0.303672 0.303672 0.000000
O O7 0.160576 0.405991 0.018295
O O8 0.435287 0.564714 0.500000
O O9 0.482807 0.576364 0.855244
O O10 0.450174 0.713078 0.669304
O O11 0.486618 0.873086 0.746042
O O12 0.000000 0.500000 0.058884
#
# Coordination Sequence:
#
# PCOD9550327 Si02
#       6
#     8   8   8   2   8   8
#     4  11  24  43  72 106 156 196 256 318 383 452
#     4  11  25  42  70 107 151 199 256 316 385 459
#     4  12  26  48  77 108 149 202 246 318 374 454
#     4  12  26  52  76 106 148 188 270 302 382 458
#     4  11  23  41  69 102 149 196 248 311 383 445
#     4  11  24  42  69 108 151 198 251 322 384 459
#
# _framework density 23.586818000000001
#
# number of rings (size 3 to 8) (size 9 to 14) (size 15 to 20)
#    0.000    0.762    3.810    3.143    6.667    1.524 
#    0.000    0.000    0.000    4.571    0.000    0.000 
#    0.000    0.000    0.000    0.000    0.000    0.000 
#
# Total GULP energy -234476.959199 kJ/mol
# GULP energy per Si atom -5582.784743 kJ/mol
# Density = 2.353313 g / cm^3
# Si number density = 23.586818 Si / 1000 Ang^3
#
#
#
# Elastic Constant Matrix: (Units=GPa)
#
#
# Indices 1 2 3 4 5 6 
#
# 1 98.5853 64.0624 21.6009 0.0000 0.0000 0.0000
# 2 64.0624 98.5861 21.6010 0.0000 0.0000 0.0000
# 3 21.6009 21.6010 84.3901 0.0000 0.0000 0.0000
# 4 0.0000 0.0000 0.0000 28.8840 0.0000 0.0000
# 5 0.0000 0.0000 0.0000 0.0000 28.8838 0.0000
# 6 0.0000 0.0000 0.0000 0.0000 0.0000 44.7739
#
#
#
# Elastic Compliance Matrix: (Units=1/GPa)
#
#
# Indices 1 2 3 4 5 6 
#
# 1 0.017781 -0.011185 -0.001689 0.000000 0.000000 0.000000
# 2 -0.011185 0.017781 -0.001689 0.000000 0.000000 0.000000
# 3 -0.001689 -0.001689 0.012714 0.000000 0.000000 0.000000
# 4 0.000000 0.000000 0.000000 0.034621 0.000000 0.000000
# 5 0.000000 0.000000 0.000000 0.000000 0.034621 0.000000
# 6 0.000000 0.000000 0.000000 0.000000 0.000000 0.022334
#
#
# Mechanical properties :
#
#
# Convention : Reuss Voigt Hill
#
# Bulk Modulus (GPa) = 52.20982 55.12111 53.66546
# Shear Modulus (GPa) = 28.51250 32.12817 30.32033
#
# Velocity S-wave (km/s) = 3.48060 3.69470 3.58925
# Velocity P-wave (km/s) = 6.19160 6.45145 6.32286
#
# Compressibility (1/GPa) = 0.01915349
#
# Stress axis : x y z
#
# Youngs Moduli (GPa) = 56.23857 56.23902 78.65257
#
# Poissons Ratio (x) = 0.62901 0.13281
# Poissons Ratio (y) = 0.62900 0.13281
# Poissons Ratio (z) = 0.09496 0.09496
#
# Static dielectric constant tensor:
#      x y z
#    x 1.943280 0.000000 0.000000 
#    y 0.000000 1.943280 0.000000 
#    z 0.000000 0.000000 1.949210 
# 
# From -- ./inp_files/1492.got.cif
#   From: 2010.05.17/outbox.cif.g08.bks.cpg/sg94_1_cif.got.tgz:1492.got - 2010.06.03 19:43:16.
