data_PCOD9550783
_publ_section_title
;
Structure prediction by ZEFSAII (Michael W. Deem and Ramdas Pophale) SiO2 
 PCOD9550783
Probable space group: P 43 21 2
;
_chemical_formula_sum "Si O2"
_cell_formula_units_Z 40
_cell_length_a 15.464250
_cell_length_b 15.464250
_cell_length_c 8.440507
_cell_angle_alpha 90.000000
_cell_angle_beta 90.000000
_cell_angle_gamma 90.000000
_cell_volume 2018.488402
_symmetry_space_group_name_H-M "P 43 21 2"
_symmetry_group_IT_number 96
_symmetry_cell_setting 'tetragonal'
loop_
_space_group_symop_operation_xyz
x,y,z
1/2-y,1/2+x,3/4+z
-x,-y,1/2+z
1/2+y,1/2-x,1/4+z
1/2+x,1/2-y,1/4-z
1/2-x,1/2+y,3/4-z
y,x,-z
-y,-x,1/2-z
loop_
_atom_site_type_symbol
_atom_site_label
_atom_site_fract_x
_atom_site_fract_y
_atom_site_fract_z
Si Si1 0.610624 0.243154 0.428805
Si Si2 0.913858 0.165754 0.406547
Si Si3 0.298528 0.164316 0.844532
Si Si4 0.746014 0.400734 0.726618
Si Si5 0.600270 0.509374 0.129581
O O1 0.610593 0.194457 0.258960
O O2 0.702353 0.293625 0.417395
O O3 0.600658 0.203071 0.604786
O O4 0.534610 0.313502 0.429974
O O5 0.887336 0.112665 0.250000
O O6 0.864031 0.256171 0.400407
O O7 0.881996 0.102592 0.545029
O O8 0.013770 0.189281 0.437685
O O9 0.304710 0.113646 0.678679
O O10 0.677269 0.322732 0.750000
O O11 0.557422 0.442579 0.250000
O O12 0.528290 0.528290 0.000000
#
# Coordination Sequence:
#
# PCOD9550783 Si02
#       5
#     8   8   8   8   8
#     4  10  19  40  53  78 125 166 187 238 305 361
#     4  12  23  36  59  96 120 158 214 253 296 385
#     4  10  21  40  57  80 124 167 201 247 306 368
#     4  10  22  39  60  84 123 163 196 247 317 361
#     4  12  23  34  59  90 129 158 197 246 317 379
#
# _framework density 19.816808000000002
#
# number of rings (size 3 to 8) (size 9 to 14) (size 15 to 20)
#    0.000    1.200    6.000    2.400    5.600    2.400 
#    0.000    0.000    0.000    0.000    5.200    0.000 
#    0.000    0.000    0.000    0.000    0.000    0.000 
#
# Total GULP energy -222919.257820 kJ/mol
# GULP energy per Si atom -5572.981445 kJ/mol
# Density = 1.977170 g / cm^3
# Si number density = 19.816808 Si / 1000 Ang^3
#
#
#
# Elastic Constant Matrix: (Units=GPa)
#
#
# Indices 1 2 3 4 5 6 
#
# 1 15.0481 26.8302 23.1120 0.0000 0.0000 0.0000
# 2 26.8302 15.0463 23.1116 0.0000 0.0000 0.0000
# 3 23.1120 23.1116 187.3850 0.0000 0.0000 0.0000
# 4 0.0000 0.0000 0.0000 16.1897 0.0000 0.0000
# 5 0.0000 0.0000 0.0000 0.0000 16.1895 0.0000
# 6 0.0000 0.0000 0.0000 0.0000 0.0000 23.9841
#
#
#
# Elastic Compliance Matrix: (Units=1/GPa)
#
#
# Indices 1 2 3 4 5 6 
#
# 1 -0.028611 0.056255 -0.003410 0.000000 0.000000 0.000000
# 2 0.056255 -0.028615 -0.003409 0.000000 0.000000 0.000000
# 3 -0.003410 -0.003409 0.006178 0.000000 0.000000 0.000000
# 4 0.000000 0.000000 0.000000 0.061768 0.000000 0.000000
# 5 0.000000 0.000000 0.000000 0.000000 0.061768 0.000000
# 6 0.000000 0.000000 0.000000 0.000000 0.000000 0.041694
#
#
# Mechanical properties :
#
#
# Convention : Reuss Voigt Hill
#
# Bulk Modulus (GPa) = 20.90959 40.39856 30.65407
# Shear Modulus (GPa) = 159.99490 20.90105 90.44797
#
# Velocity S-wave (km/s) = 8.99512 3.25116 6.76322
# Velocity P-wave (km/s) = 10.88381 5.87568 8.74588
#
# Compressibility (1/GPa) = 0.04782495
#
# Stress axis : x y z
#
# Youngs Moduli (GPa) = -34.95177 -34.94701 161.87464
#
# Poissons Ratio (x) = 1.96595 0.55192
# Poissons Ratio (y) = 1.96622 0.55187
# Poissons Ratio (z) = -0.11917 -0.11914
#
# Static dielectric constant tensor:
#      x y z
#    x 1.632350 0.000000 0.000000 
#    y 0.000000 1.632350 0.000000 
#    z 0.000000 0.000000 2.180400 
# 
# From -- ./inp_files/1318.got.cif
#   From: 2010.05.17/outbox.cif.g08.bks.cpg/sg96_1_cif.got.tgz:1318.got - 2010.06.03 19:52:08.
