data_PCOD9550742
_publ_section_title
;
Structure prediction by ZEFSAII (Michael W. Deem and Ramdas Pophale) SiO2 
 PCOD9550742
Probable space group: P 43 21 2
;
_chemical_formula_sum "Si O2"
_cell_formula_units_Z 60
_cell_length_a 14.739702
_cell_length_b 14.739702
_cell_length_c 12.777757
_cell_angle_alpha 90.000000
_cell_angle_beta 90.000000
_cell_angle_gamma 90.000000
_cell_volume 2776.080345
_symmetry_space_group_name_H-M "P 43 21 2"
_symmetry_group_IT_number 96
_symmetry_cell_setting 'tetragonal'
loop_
_space_group_symop_operation_xyz
x,y,z
1/2-y,1/2+x,3/4+z
-x,-y,1/2+z
1/2+y,1/2-x,1/4+z
1/2+x,1/2-y,1/4-z
1/2-x,1/2+y,3/4-z
y,x,-z
-y,-x,1/2-z
loop_
_atom_site_type_symbol
_atom_site_label
_atom_site_fract_x
_atom_site_fract_y
_atom_site_fract_z
Si Si1 0.937570 0.062431 0.250000
Si Si2 0.628095 0.490139 0.028708
Si Si3 0.114505 0.630533 0.873764
Si Si4 0.168482 0.431674 0.882718
Si Si5 0.498063 0.171931 0.466505
Si Si6 0.350323 0.327671 0.823163
Si Si7 0.463245 0.843277 0.208853
Si Si8 0.350849 0.518129 0.296877
O O1 0.860248 0.080116 0.164844
O O2 0.939385 0.965109 0.311012
O O3 0.726373 0.491967 0.079982
O O4 0.647793 0.448397 0.915210
O O5 0.590104 0.590104 0.000000
O O6 0.171691 0.539174 0.865752
O O7 0.082970 0.654697 0.756772
O O8 0.164547 0.720227 0.916559
O O9 0.031984 0.613311 0.956336
O O10 0.258499 0.382052 0.841348
O O11 0.081229 0.389040 0.824173
O O12 0.494266 0.171920 0.593702
O O13 0.404914 0.123094 0.437776
O O14 0.409933 0.347773 0.720509
O O15 0.444753 0.742360 0.252073
O O16 0.440938 0.559063 0.250000
#
# Coordination Sequence:
#
# PCOD9550742 Si02
#       8
#     4   8   8   8   8   8   8   8
#     4  10  18  42  62  82 124 164 200 260 314 378
#     4   9  21  36  63  86 121 165 199 254 323 386
#     4  11  23  42  64  92 122 172 220 253 332 394
#     4  12  24  39  64  92 130 165 208 281 325 386
#     4  11  22  40  57  93 129 154 210 259 325 374
#     4  11  23  41  64  90 126 164 217 265 317 399
#     4  10  22  38  62  83 122 167 199 257 306 390
#     4  10  19  37  61  89 113 153 214 249 311 380
#
# _framework density 21.613208
#
# number of rings (size 3 to 8) (size 9 to 14) (size 15 to 20)
#    0.400    1.067    2.667    3.200    0.000    3.733 
#    0.000    8.000    0.000    0.000    0.000    0.000 
#    0.000    0.000    0.000    0.000    0.000    0.000 
#
# Total GULP energy -334378.879523 kJ/mol
# GULP energy per Si atom -5572.981325 kJ/mol
# Density = 2.156402 g / cm^3
# Si number density = 21.613208 Si / 1000 Ang^3
#
#
#
# Elastic Constant Matrix: (Units=GPa)
#
#
# Indices 1 2 3 4 5 6 
#
# 1 99.0285 53.9975 4.0867 0.0000 0.0000 0.0000
# 2 53.9975 99.0324 4.0861 0.0000 0.0000 0.0000
# 3 4.0867 4.0861 42.8238 0.0000 0.0000 0.0000
# 4 0.0000 0.0000 0.0000 15.5755 0.0000 0.0000
# 5 0.0000 0.0000 0.0000 0.0000 15.5756 0.0000
# 6 0.0000 0.0000 0.0000 0.0000 0.0000 26.7524
#
#
#
# Elastic Compliance Matrix: (Units=1/GPa)
#
#
# Indices 1 2 3 4 5 6 
#
# 1 0.014387 -0.007819 -0.000627 0.000000 0.000000 0.000000
# 2 -0.007819 0.014387 -0.000627 0.000000 0.000000 0.000000
# 3 -0.000627 -0.000627 0.023471 0.000000 0.000000 0.000000
# 4 0.000000 0.000000 0.000000 0.064204 0.000000 0.000000
# 5 0.000000 0.000000 0.000000 0.000000 0.064203 0.000000
# 6 0.000000 0.000000 0.000000 0.000000 0.000000 0.037380
#
#
# Mechanical properties :
#
#
# Convention : Reuss Voigt Hill
#
# Bulk Modulus (GPa) = 29.32509 40.58060 34.95284
# Shear Modulus (GPa) = 20.19848 23.49497 21.84673
#
# Velocity S-wave (km/s) = 3.06035 3.30064 3.18276
# Velocity P-wave (km/s) = 5.10737 5.77428 5.45103
#
# Compressibility (1/GPa) = 0.03410049
#
# Stress axis : x y z
#
# Youngs Moduli (GPa) = 69.50532 69.50818 42.60558
#
# Poissons Ratio (x) = 0.54347 0.02671
# Poissons Ratio (y) = 0.54345 0.02670
# Poissons Ratio (z) = 0.04358 0.04355
#
# Static dielectric constant tensor:
#      x y z
#    x 1.816060 0.000000 0.000000 
#    y 0.000000 1.816060 0.000000 
#    z 0.000000 0.000000 1.884520 
# 
# From -- ./inp_files/2809.got.cif
#   From: 2010.05.17/outbox.cif.g08.bks.cpg/sg96_2_cif.got.tgz:2809.got - 2010.06.03 19:52:08.
