data_PCOD9550787
_publ_section_title
;
Structure prediction by ZEFSAII (Michael W. Deem and Ramdas Pophale) SiO2 
 PCOD9550787
Probable space group: P 43 21 2
;
_chemical_formula_sum "Si O2"
_cell_formula_units_Z 40
_cell_length_a 7.733722
_cell_length_b 7.733722
_cell_length_c 27.813777
_cell_angle_alpha 90.000000
_cell_angle_beta 90.000000
_cell_angle_gamma 90.000000
_cell_volume 1663.554685
_symmetry_space_group_name_H-M "P 43 21 2"
_symmetry_group_IT_number 96
_symmetry_cell_setting 'tetragonal'
loop_
_space_group_symop_operation_xyz
x,y,z
1/2-y,1/2+x,3/4+z
-x,-y,1/2+z
1/2+y,1/2-x,1/4+z
1/2+x,1/2-y,1/4-z
1/2-x,1/2+y,3/4-z
y,x,-z
-y,-x,1/2-z
loop_
_atom_site_type_symbol
_atom_site_label
_atom_site_fract_x
_atom_site_fract_y
_atom_site_fract_z
Si Si1 0.757625 0.630668 0.935448
Si Si2 0.853790 0.454014 0.444095
Si Si3 0.359321 0.340512 0.133926
Si Si4 0.824395 0.024113 0.922112
Si Si5 0.925991 0.796170 0.792532
O O1 0.747434 0.838332 0.938973
O O2 0.746059 0.577039 0.879866
O O3 0.623505 0.497252 0.957726
O O4 0.946526 0.578394 0.953046
O O5 0.777855 0.273206 0.424091
O O6 0.816320 0.571786 0.397849
O O7 0.767022 0.510576 0.493239
O O8 0.490850 0.470951 0.161897
O O9 0.274962 0.461146 0.091452
O O10 0.749491 0.179031 0.954151
#
# Coordination Sequence:
#
# PCOD9550787 Si02
#       5
#     8   8   8   8   8
#     4  10  21  40  68  95 129 178 219 286 346 403
#     4  11  24  42  64  97 136 177 224 283 351 413
#     4  10  24  41  64  97 134 177 222 283 354 404
#     4  10  19  42  68  93 128 172 228 278 334 417
#     4  11  23  44  65 101 132 178 237 277 346 424
#
# _framework density 24.044896000000001
#
# number of rings (size 3 to 8) (size 9 to 14) (size 15 to 20)
#    0.000    1.600    6.000    0.600    2.800    4.800 
#   14.400    0.000    0.000    0.000    0.000    0.000 
#    0.000    0.000    0.000    0.000    0.000    0.000 
#
# Total GULP energy -223247.568578 kJ/mol
# GULP energy per Si atom -5581.189214 kJ/mol
# Density = 2.399017 g / cm^3
# Si number density = 24.044896 Si / 1000 Ang^3
#
#
#
# Elastic Constant Matrix: (Units=GPa)
#
#
# Indices 1 2 3 4 5 6 
#
# 1 45.9566 -14.9990 13.7669 0.0000 0.0000 0.0000
# 2 -14.9990 45.9566 13.7669 0.0000 0.0000 0.0000
# 3 13.7669 13.7669 59.8783 0.0000 0.0000 0.0000
# 4 0.0000 0.0000 0.0000 2.4398 0.0000 0.0000
# 5 0.0000 0.0000 0.0000 0.0000 2.4398 0.0000
# 6 0.0000 0.0000 0.0000 0.0000 0.0000 38.3647
#
#
#
# Elastic Compliance Matrix: (Units=1/GPa)
#
#
# Indices 1 2 3 4 5 6 
#
# 1 0.028505 0.012100 -0.009336 0.000000 0.000000 0.000000
# 2 0.012100 0.028505 -0.009336 0.000000 0.000000 0.000000
# 3 -0.009336 -0.009336 0.020993 0.000000 0.000000 0.000000
# 4 0.000000 0.000000 0.000000 0.409877 0.000000 0.000000
# 5 0.000000 0.000000 0.000000 0.000000 0.409877 0.000000
# 6 0.000000 0.000000 0.000000 0.000000 0.000000 0.026066
#
#
# Mechanical properties :
#
#
# Convention : Reuss Voigt Hill
#
# Bulk Modulus (GPa) = 15.41754 19.65123 17.53438
# Shear Modulus (GPa) = 5.21601 17.93264 11.57433
#
# Velocity S-wave (km/s) = 1.47445 2.73389 2.19638
# Velocity P-wave (km/s) = 3.05361 4.26099 3.70679
#
# Compressibility (1/GPa) = 0.06486120
#
# Stress axis : x y z
#
# Youngs Moduli (GPa) = 35.08109 35.08109 47.63412
#
# Poissons Ratio (x) = -0.42448 0.44470
# Poissons Ratio (y) = -0.42448 0.44470
# Poissons Ratio (z) = 0.32751 0.32751
#
# Static dielectric constant tensor:
#      x y z
#    x 1.955680 0.000000 0.000000 
#    y 0.000000 1.955680 0.000000 
#    z 0.000000 0.000000 1.920230 
# 
# From -- ./inp_files/4109.got.cif
#   From: 2010.05.17/outbox.cif.g08.bks.cpg/sg96_3_cif.got.tgz:4109.got - 2010.06.03 19:52:08.
