data_PCOD9550582
_publ_section_title
;
Structure prediction by ZEFSAII (Michael W. Deem and Ramdas Pophale) SiO2 
 PCOD9550582
Probable space group: P 43 2 2
;
_chemical_formula_sum "Si O2"
_cell_formula_units_Z 40
_cell_length_a 8.824031
_cell_length_b 8.824031
_cell_length_c 21.645425
_cell_angle_alpha 90.000000
_cell_angle_beta 90.000000
_cell_angle_gamma 90.000000
_cell_volume 1685.389049
_symmetry_space_group_name_H-M "P 43 2 2"
_symmetry_group_IT_number 95
_symmetry_cell_setting 'tetragonal'
loop_
_space_group_symop_operation_xyz
x,y,z
-y,x,3/4+z
-x,-y,1/2+z
y,-x,1/4+z
x,-y,1/2-z
-x,y,-z
y,x,1/4-z
-y,-x,3/4-z
loop_
_atom_site_type_symbol
_atom_site_label
_atom_site_fract_x
_atom_site_fract_y
_atom_site_fract_z
Si Si1 0.318545 0.164395 0.276630
Si Si2 0.284323 0.038431 0.035953
Si Si3 0.575842 0.928736 0.092268
Si Si4 0.408594 0.432013 0.563273
Si Si5 0.835425 0.920567 0.358817
O O1 0.213438 0.240921 0.222919
O O2 0.464383 0.261580 0.298088
O O3 0.202900 0.158484 0.335491
O O4 0.356782 0.000000 0.250000
O O5 0.409176 0.998107 0.087221
O O6 0.150000 0.922794 0.051247
O O7 0.349464 0.989286 0.970561
O O8 0.592957 0.747667 0.082960
O O9 0.667911 0.011013 0.146596
O O10 0.500000 0.437206 0.500000
O O11 0.493455 0.493455 0.625000
O O12 0.934598 0.065403 0.375000
#
# Coordination Sequence:
#
# PCOD9550582 Si02
#       5
#     8   8   8   8   8
#     4  11  25  46  73 114 154 200 270 321 408 484
#     4  10  21  46  70 108 150 197 257 329 400 474
#     4  10  23  45  72 106 151 203 260 326 401 481
#     4  12  27  53  75 115 161 211 272 334 410 492
#     4  11  22  41  72 104 150 201 255 326 396 476
#
# _framework density 23.733393
#
# number of rings (size 3 to 8) (size 9 to 14) (size 15 to 20)
#    0.000    1.200    4.000    1.800    5.600    0.000 
#   14.400    0.000    0.000    0.000    0.000    0.000 
#    0.000    0.000    0.000    0.000    0.000    0.000 
#
# Total GULP energy -223081.702649 kJ/mol
# GULP energy per Si atom -5577.042566 kJ/mol
# Density = 2.367937 g / cm^3
# Si number density = 23.733393 Si / 1000 Ang^3
#
#
#
# Elastic Constant Matrix: (Units=GPa)
#
#
# Indices 1 2 3 4 5 6 
#
# 1 120.1798 101.8800 46.8299 0.0000 0.0000 0.0000
# 2 101.8800 120.1818 46.8308 0.0000 0.0000 0.0000
# 3 46.8299 46.8308 74.6222 0.0000 0.0000 0.0000
# 4 0.0000 0.0000 0.0000 46.6670 0.0000 0.0000
# 5 0.0000 0.0000 0.0000 0.0000 46.6697 0.0000
# 6 0.0000 0.0000 0.0000 0.0000 0.0000 36.3732
#
#
#
# Elastic Compliance Matrix: (Units=1/GPa)
#
#
# Indices 1 2 3 4 5 6 
#
# 1 0.030384 -0.024259 -0.003843 0.000000 0.000000 0.000000
# 2 -0.024259 0.030383 -0.003844 0.000000 0.000000 0.000000
# 3 -0.003843 -0.003844 0.018225 0.000000 0.000000 0.000000
# 4 0.000000 0.000000 0.000000 0.021428 0.000000 0.000000
# 5 0.000000 0.000000 0.000000 0.000000 0.021427 0.000000
# 6 0.000000 0.000000 0.000000 0.000000 0.000000 0.027493
#
#
# Mechanical properties :
#
#
# Convention : Reuss Voigt Hill
#
# Bulk Modulus (GPa) = 66.22597 78.45170 72.33883
# Shear Modulus (GPa) = 22.90792 33.90485 28.40639
#
# Velocity S-wave (km/s) = 3.11017 3.78375 3.46337
# Velocity P-wave (km/s) = 6.39236 7.22607 6.82196
#
# Compressibility (1/GPa) = 0.01509982
#
# Stress axis : x y z
#
# Youngs Moduli (GPa) = 32.91255 32.91288 54.87016
#
# Poissons Ratio (x) = 0.79843 0.21088
# Poissons Ratio (y) = 0.79843 0.21090
# Poissons Ratio (z) = 0.12649 0.12651
#
# Static dielectric constant tensor:
#      x y z
#    x 1.475430 0.000000 0.000000 
#    y 0.000000 1.475480 0.000000 
#    z 0.000000 0.000000 1.989280 
# 
# From -- ./inp_files/6841.got.cif
#   From: 2010.05.17/outbox.cif.g08.bks.cpg/sg95_4_cif.got.tgz:6841.got - 2010.06.03 19:46:49.
