data_PCOD9550315
_publ_section_title
;
Structure prediction by ZEFSAII (Michael W. Deem and Ramdas Pophale) SiO2 
 PCOD9550315
Probable space group: P 42 21 2
;
_chemical_formula_sum "Si O2"
_cell_formula_units_Z 36
_cell_length_a 11.095438
_cell_length_b 11.095438
_cell_length_c 13.221018
_cell_angle_alpha 90.000000
_cell_angle_beta 90.000000
_cell_angle_gamma 90.000000
_cell_volume 1627.622926
_symmetry_space_group_name_H-M "P 42 21 2"
_symmetry_group_IT_number 94
_symmetry_cell_setting 'tetragonal'
loop_
_space_group_symop_operation_xyz
x,y,z
1/2-y,1/2+x,1/2+z
-x,-y,z
1/2+y,1/2-x,1/2+z
1/2+x,1/2-y,1/2-z
1/2-x,1/2+y,1/2-z
y,x,-z
-y,-x,-z
loop_
_atom_site_type_symbol
_atom_site_label
_atom_site_fract_x
_atom_site_fract_y
_atom_site_fract_z
Si Si1 0.400355 0.075893 0.314546
Si Si2 0.333605 0.647691 0.892103
Si Si3 0.115832 0.115832 0.000000
Si Si4 0.777990 0.555421 0.365724
Si Si5 0.027788 0.846613 0.206682
O O1 0.274944 0.105514 0.366386
O O2 0.368871 0.003837 0.212833
O O3 0.456086 0.204256 0.291825
O O4 0.500000 0.000000 0.374868
O O5 0.367434 0.554815 0.804004
O O6 0.187037 0.671662 0.902019
O O7 0.386332 0.613669 0.000000
O O8 0.235414 0.048780 0.053785
O O9 0.035655 0.118720 0.101180
O O10 0.658906 0.594042 0.301507
#
# Coordination Sequence:
#
# PCOD9550315 Si02
#       5
#     8   8   4   8   8
#     4  11  23  44  68 101 143 176 222 290 348 405
#     4  11  24  45  67 101 142 180 233 285 348 422
#     4  12  23  44  80  96 124 183 248 283 326 410
#     4  11  22  42  73 102 130 187 235 288 339 411
#     4  11  23  42  70 103 134 177 238 286 339 411
#
# _framework density 22.118144000000001
#
# number of rings (size 3 to 8) (size 9 to 14) (size 15 to 20)
#    0.000    0.889    4.444    4.667    0.000    0.000 
#    8.000    2.222    0.000    0.000    0.000    0.000 
#    0.000    0.000    0.000    0.000    0.000    0.000 
#
# Total GULP energy -200420.010239 kJ/mol
# GULP energy per Si atom -5567.222507 kJ/mol
# Density = 2.206780 g / cm^3
# Si number density = 22.118144 Si / 1000 Ang^3
#
#
#
# Elastic Constant Matrix: (Units=GPa)
#
#
# Indices 1 2 3 4 5 6 
#
# 1 85.4489 34.8449 37.7828 0.0000 0.0000 0.0000
# 2 34.8449 85.4493 37.7829 0.0000 0.0000 0.0000
# 3 37.7828 37.7829 145.0822 0.0000 0.0000 0.0000
# 4 0.0000 0.0000 0.0000 -44.9002 0.0000 0.0000
# 5 0.0000 0.0000 0.0000 0.0000 -44.9007 0.0000
# 6 0.0000 0.0000 0.0000 0.0000 0.0000 32.2287
#
#
#
# Elastic Compliance Matrix: (Units=1/GPa)
#
#
# Indices 1 2 3 4 5 6 
#
# 1 0.014850 -0.004911 -0.002588 0.000000 0.000000 0.000000
# 2 -0.004911 0.014850 -0.002588 0.000000 0.000000 0.000000
# 3 -0.002588 -0.002588 0.008241 0.000000 0.000000 0.000000
# 4 0.000000 0.000000 0.000000 -0.022272 0.000000 0.000000
# 5 0.000000 0.000000 0.000000 0.000000 -0.022271 0.000000
# 6 0.000000 0.000000 0.000000 0.000000 0.000000 0.031028
#
#
# Mechanical properties :
#
#
# Convention : Reuss Voigt Hill
#
# Bulk Modulus (GPa) = 56.28968 59.64463 57.96716
# Shear Modulus (GPa) = 98.96382 2.19020 50.57701
#
# Velocity S-wave (km/s) = 6.69630 0.99618 4.78711
# Velocity P-wave (km/s) = 9.23537 5.32429 7.53791
#
# Compressibility (1/GPa) = 0.01776525
#
# Stress axis : x y z
#
# Youngs Moduli (GPa) = 67.33971 67.34005 121.34789
#
# Poissons Ratio (x) = 0.33072 0.31409
# Poissons Ratio (y) = 0.33072 0.31409
# Poissons Ratio (z) = 0.17430 0.17430
#
# Static dielectric constant tensor:
#      x y z
#    x 1.946800 0.000000 0.000000 
#    y 0.000000 1.946800 0.000000 
#    z 0.000000 0.000000 1.784760 
# 
# From -- ./inp_files/3325.got.cif
#   From: 2010.05.17/outbox.cif.g08.bks.cpg/sg94_2_cif.got.tgz:3325.got - 2010.06.03 19:43:16.
