data_PCOD9550322
_publ_section_title
;
Structure prediction by ZEFSAII (Michael W. Deem and Ramdas Pophale) SiO2 
 PCOD9550322
Probable space group: P 42 21 2
;
_chemical_formula_sum "Si O2"
_cell_formula_units_Z 54
_cell_length_a 15.081743
_cell_length_b 15.081743
_cell_length_c 11.068952
_cell_angle_alpha 90.000000
_cell_angle_beta 90.000000
_cell_angle_gamma 90.000000
_cell_volume 2517.732442
_symmetry_space_group_name_H-M "P 42 21 2"
_symmetry_group_IT_number 94
_symmetry_cell_setting 'tetragonal'
loop_
_space_group_symop_operation_xyz
x,y,z
1/2-y,1/2+x,1/2+z
-x,-y,z
1/2+y,1/2-x,1/2+z
1/2+x,1/2-y,1/2-z
1/2-x,1/2+y,1/2-z
y,x,-z
-y,-x,-z
loop_
_atom_site_type_symbol
_atom_site_label
_atom_site_fract_x
_atom_site_fract_y
_atom_site_fract_z
Si Si1 0.430535 0.652554 0.344256
Si Si2 0.158761 0.699566 0.012411
Si Si3 0.313317 0.043270 0.667046
Si Si4 0.252110 0.086187 0.270446
Si Si5 0.542546 0.832860 0.921877
Si Si6 0.944903 0.699228 0.991002
Si Si7 0.000000 0.000000 0.000000
Si Si8 0.000000 0.500000 0.206537
O O1 0.467372 0.731172 0.257407
O O2 0.346285 0.612227 0.273129
O O3 0.410827 0.707569 0.464629
O O4 0.495563 0.580408 0.403459
O O5 0.207461 0.653437 0.129071
O O6 0.203584 0.796417 0.000000
O O7 0.184727 0.640419 0.894881
O O8 0.051172 0.697346 0.012785
O O9 0.299386 0.979119 0.553874
O O10 0.412374 0.022375 0.716526
O O11 0.311390 0.077441 0.149766
O O12 0.257675 0.987589 0.329350
O O13 0.482030 0.916572 0.880302
O O14 0.634286 0.883739 0.930151
#
# Coordination Sequence:
#
# PCOD9550322 Si02
#       8
#     8   8   8   8   8   8   2   4
#     4  12  26  48  74 100 145 199 255 317 368 452
#     4  11  24  42  72 110 146 195 256 307 390 470
#     4  11  23  40  67 107 152 194 242 310 389 456
#     4  11  24  45  70  99 150 198 241 316 381 454
#     4  11  23  37  69 105 148 191 235 307 405 448
#     4  12  25  42  69 112 149 191 250 315 392 468
#     4  12  28  56  76 102 132 212 276 310 380 452
#     4  12  20  40  66 112 154 194 230 312 390 472
#
# _framework density 21.447870000000002
#
# number of rings (size 3 to 8) (size 9 to 14) (size 15 to 20)
#    0.000    0.593    4.444    4.889    3.111    0.000 
#    0.000    0.000    3.259    6.222    0.000    0.000 
#    0.000    0.000    0.000    0.000    0.000    0.000 
#
# Total GULP energy -300858.141471 kJ/mol
# GULP energy per Si atom -5571.447064 kJ/mol
# Density = 2.139905 g / cm^3
# Si number density = 21.447870 Si / 1000 Ang^3
#
#
#
# Elastic Constant Matrix: (Units=GPa)
#
#
# Indices 1 2 3 4 5 6 
#
# 1 88.8047 73.3376 41.3975 0.0000 0.0000 0.0000
# 2 73.3376 88.8010 41.3969 0.0000 0.0000 0.0000
# 3 41.3975 41.3969 130.6991 0.0000 0.0000 0.0000
# 4 0.0000 0.0000 0.0000 23.9799 0.0000 0.0000
# 5 0.0000 0.0000 0.0000 0.0000 23.9808 0.0000
# 6 0.0000 0.0000 0.0000 0.0000 0.0000 45.2281
#
#
#
# Elastic Compliance Matrix: (Units=1/GPa)
#
#
# Indices 1 2 3 4 5 6 
#
# 1 0.036008 -0.028652 -0.002330 0.000000 0.000000 0.000000
# 2 -0.028652 0.036010 -0.002330 0.000000 0.000000 0.000000
# 3 -0.002330 -0.002330 0.009127 0.000000 0.000000 0.000000
# 4 0.000000 0.000000 0.000000 0.041702 0.000000 0.000000
# 5 0.000000 0.000000 0.000000 0.000000 0.041700 0.000000
# 6 0.000000 0.000000 0.000000 0.000000 0.000000 0.022110
#
#
# Mechanical properties :
#
#
# Convention : Reuss Voigt Hill
#
# Bulk Modulus (GPa) = 68.86669 68.95209 68.90939
# Shear Modulus (GPa) = 19.37064 28.78262 24.07663
#
# Velocity S-wave (km/s) = 3.00851 3.66728 3.35411
# Velocity P-wave (km/s) = 6.65182 7.08169 6.87012
#
# Compressibility (1/GPa) = 0.01452081
#
# Stress axis : x y z
#
# Youngs Moduli (GPa) = 27.77133 27.77013 109.56027
#
# Poissons Ratio (x) = 0.79566 0.25531
# Poissons Ratio (y) = 0.79570 0.25533
# Poissons Ratio (z) = 0.06471 0.06472
#
# Static dielectric constant tensor:
#      x y z
#    x 1.868880 0.000000 0.000000 
#    y 0.000000 1.868890 0.000000 
#    z 0.000000 0.000000 1.876640 
# 
# From -- ./inp_files/2745.got.cif
#   From: 2010.05.17/outbox.cif.g08.bks.cpg/sg94_2_cif.got.tgz:2745.got - 2010.06.03 19:43:16.
