data_PCOD9550566
_publ_section_title
;
Structure prediction by ZEFSAII (Michael W. Deem and Ramdas Pophale) SiO2 
 PCOD9550566
Probable space group: P 43 2 2
;
_chemical_formula_sum "Si O2"
_cell_formula_units_Z 20
_cell_length_a 12.944342
_cell_length_b 12.944342
_cell_length_c 5.175862
_cell_angle_alpha 90.000000
_cell_angle_beta 90.000000
_cell_angle_gamma 90.000000
_cell_volume 867.246681
_symmetry_space_group_name_H-M "P 43 2 2"
_symmetry_group_IT_number 95
_symmetry_cell_setting 'tetragonal'
loop_
_space_group_symop_operation_xyz
x,y,z
-y,x,3/4+z
-x,-y,1/2+z
y,-x,1/4+z
x,-y,1/2-z
-x,y,-z
y,x,1/4-z
-y,-x,3/4-z
loop_
_atom_site_type_symbol
_atom_site_label
_atom_site_fract_x
_atom_site_fract_y
_atom_site_fract_z
Si Si1 0.660100 0.500000 0.250000
Si Si2 0.366560 0.193405 0.154299
Si Si3 0.889879 0.286352 0.403959
O O1 0.588116 0.588116 0.125000
O O2 0.730194 0.450926 0.026192
O O3 0.341837 0.111249 0.377861
O O4 0.143393 0.370200 0.377950
O O5 0.266606 0.266606 0.125000
O O6 0.805552 0.194449 0.375000
O O7 0.000000 0.245584 0.500000
#
# Coordination Sequence:
#
# PCOD9550566 Si02
#       3
#     4   8   8
#     4  12  24  40  68  96 124 164 222 268 306 374
#     4  10  22  40  62  92 130 166 202 259 327 370
#     4  10  21  41  67  93 127 169 209 255 315 378
#
# _framework density 23.061491
#
# number of rings (size 3 to 8) (size 9 to 14) (size 15 to 20)
#    0.000    1.600    0.000    6.000    0.000    4.800 
#    0.000   10.000    0.000    0.000    0.000    0.000 
#    0.000    0.000    0.000    0.000    0.000    0.000 
#
# Total GULP energy -111774.343325 kJ/mol
# GULP energy per Si atom -5588.717166 kJ/mol
# Density = 2.300900 g / cm^3
# Si number density = 23.061491 Si / 1000 Ang^3
#
#
#
# Elastic Constant Matrix: (Units=GPa)
#
#
# Indices 1 2 3 4 5 6 
#
# 1 80.5638 70.0793 74.1551 0.0000 0.0000 0.0000
# 2 70.0793 80.5658 74.1552 0.0000 0.0000 0.0000
# 3 74.1551 74.1552 198.8933 0.0000 0.0000 0.0000
# 4 0.0000 0.0000 0.0000 36.0492 0.0000 0.0000
# 5 0.0000 0.0000 0.0000 0.0000 36.0491 0.0000
# 6 0.0000 0.0000 0.0000 0.0000 0.0000 13.5143
#
#
#
# Elastic Compliance Matrix: (Units=1/GPa)
#
#
# Indices 1 2 3 4 5 6 
#
# 1 0.052929 -0.042441 -0.003911 0.000000 0.000000 0.000000
# 2 -0.042441 0.052928 -0.003910 0.000000 0.000000 0.000000
# 3 -0.003911 -0.003910 0.007944 0.000000 0.000000 0.000000
# 4 0.000000 0.000000 0.000000 0.027740 0.000000 0.000000
# 5 0.000000 0.000000 0.000000 0.000000 0.027740 0.000000
# 6 0.000000 0.000000 0.000000 0.000000 0.000000 0.073996
#
#
# Mechanical properties :
#
#
# Convention : Reuss Voigt Hill
#
# Bulk Modulus (GPa) = 75.31123 88.53357 81.92240
# Shear Modulus (GPa) = 14.35854 26.56475 20.46164
#
# Velocity S-wave (km/s) = 2.49794 3.39766 2.98193
# Velocity P-wave (km/s) = 6.40681 7.33933 6.88886
#
# Compressibility (1/GPa) = 0.01327823
#
# Stress axis : x y z
#
# Youngs Moduli (GPa) = 18.89306 18.89373 125.88695
#
# Poissons Ratio (x) = 0.80186 0.49229
# Poissons Ratio (y) = 0.80183 0.49221
# Poissons Ratio (z) = 0.07388 0.07387
#
# Static dielectric constant tensor:
#      x y z
#    x 1.863570 0.000000 0.000000 
#    y 0.000000 1.863570 0.000000 
#    z 0.000000 0.000000 1.892810 
# 
# From -- ./inp_files/255.got.cif
#   From: 2010.05.17/outbox.cif.g08.bks.cpg/sg95_1_cif.got.tgz:255.got - 2010.06.03 19:46:49.
