data_PCOD9550773
_publ_section_title
;
Structure prediction by ZEFSAII (Michael W. Deem and Ramdas Pophale) SiO2 
 PCOD9550773
Probable space group: P 43 21 2
;
_chemical_formula_sum "Si O2"
_cell_formula_units_Z 48
_cell_length_a 13.293388
_cell_length_b 13.293388
_cell_length_c 12.900953
_cell_angle_alpha 90.000000
_cell_angle_beta 90.000000
_cell_angle_gamma 90.000000
_cell_volume 2279.781131
_symmetry_space_group_name_H-M "P 43 21 2"
_symmetry_group_IT_number 96
_symmetry_cell_setting 'tetragonal'
loop_
_space_group_symop_operation_xyz
x,y,z
1/2-y,1/2+x,3/4+z
-x,-y,1/2+z
1/2+y,1/2-x,1/4+z
1/2+x,1/2-y,1/4-z
1/2-x,1/2+y,3/4-z
y,x,-z
-y,-x,1/2-z
loop_
_atom_site_type_symbol
_atom_site_label
_atom_site_fract_x
_atom_site_fract_y
_atom_site_fract_z
Si Si1 0.824607 0.267116 0.066506
Si Si2 0.142186 0.011731 0.863913
Si Si3 0.732534 0.580273 0.794420
Si Si4 0.285801 0.108895 0.376540
Si Si5 0.690950 0.690950 0.000000
Si Si6 0.541574 0.385930 0.881453
Si Si7 0.302459 0.697542 0.750000
O O1 0.925818 0.203103 0.076387
O O2 0.797143 0.302812 0.181091
O O3 0.747121 0.183334 0.018202
O O4 0.826603 0.356897 0.984777
O O5 0.161217 0.009920 0.741363
O O6 0.022457 0.989746 0.874929
O O7 0.176915 0.114021 0.914169
O O8 0.815247 0.503024 0.838369
O O9 0.676214 0.507540 0.712237
O O10 0.677586 0.620053 0.899751
O O11 0.318139 0.195166 0.457103
O O12 0.162400 0.110413 0.368603
#
# Coordination Sequence:
#
# PCOD9550773 Si02
#       7
#     8   8   8   8   4   8   4
#     4  10  23  39  59  97 128 175 210 269 330 399
#     4  10  23  37  64  97 131 166 219 265 340 385
#     4  10  21  36  60  83 129 163 211 262 313 396
#     4  11  20  37  60  88 130 160 211 261 332 385
#     4  10  22  35  56  95 112 168 210 256 324 368
#     4  10  19  38  60  93 126 162 200 273 336 391
#     4  12  22  41  68  97 136 172 216 280 328 400
#
# _framework density 21.054652999999998
#
# number of rings (size 3 to 8) (size 9 to 14) (size 15 to 20)
#    0.000    1.667    3.333    2.000    4.667    5.333 
#    0.000    0.000    0.000    6.000    0.000    0.000 
#    0.000    0.000    0.000    0.000    0.000    0.000 
#
# Total GULP energy -267429.071011 kJ/mol
# GULP energy per Si atom -5571.438979 kJ/mol
# Density = 2.100673 g / cm^3
# Si number density = 21.054653 Si / 1000 Ang^3
#
#
#
# Elastic Constant Matrix: (Units=GPa)
#
#
# Indices 1 2 3 4 5 6 
#
# 1 4.8796 52.2019 6.1294 0.0000 0.0000 0.0000
# 2 52.2019 4.8862 6.1312 0.0000 0.0000 0.0000
# 3 6.1294 6.1312 130.0984 0.0000 0.0000 0.0000
# 4 0.0000 0.0000 0.0000 30.2345 0.0000 0.0000
# 5 0.0000 0.0000 0.0000 0.0000 30.2342 0.0000
# 6 0.0000 0.0000 0.0000 0.0000 0.0000 18.8535
#
#
#
# Elastic Compliance Matrix: (Units=1/GPa)
#
#
# Indices 1 2 3 4 5 6 
#
# 1 -0.001719 0.019415 -0.000834 0.000000 0.000000 0.000000
# 2 0.019415 -0.001717 -0.000834 0.000000 0.000000 0.000000
# 3 -0.000834 -0.000834 0.007765 0.000000 0.000000 0.000000
# 4 0.000000 0.000000 0.000000 0.033075 0.000000 0.000000
# 5 0.000000 0.000000 0.000000 0.000000 0.033075 0.000000
# 6 0.000000 0.000000 0.000000 0.000000 0.000000 0.053040
#
#
# Mechanical properties :
#
#
# Convention : Reuss Voigt Hill
#
# Bulk Modulus (GPa) = 25.11090 29.86546 27.48818
# Shear Modulus (GPa) = 49.35883 20.89124 35.12503
#
# Velocity S-wave (km/s) = 4.84707 3.15340 4.08889
# Velocity P-wave (km/s) = 6.57859 5.24157 5.94777
#
# Compressibility (1/GPa) = 0.03982334
#
# Stress axis : x y z
#
# Youngs Moduli (GPa) = -581.62105 -582.42986 128.78176
#
# Poissons Ratio (x) = 11.30790 0.10740
# Poissons Ratio (y) = 11.29220 0.10738
# Poissons Ratio (z) = -0.48506 -0.48563
#
# Static dielectric constant tensor:
#      x y z
#    x 1.794350 0.000000 0.000000 
#    y 0.000000 1.794350 0.000000 
#    z 0.000000 0.000000 1.802640 
# 
# From -- ./inp_files/2235.got.cif
#   From: 2010.05.17/outbox.cif.g08.bks.cpg/sg96_2_cif.got.tgz:2235.got - 2010.06.03 19:52:08.
