data_PCOD9550158
_publ_section_title
;
Structure prediction by ZEFSAII (Michael W. Deem and Ramdas Pophale) SiO2 
 PCOD9550158
Probable space group: P 42 21 2
;
_chemical_formula_sum "Si O2"
_cell_formula_units_Z 40
_cell_length_a 14.935806
_cell_length_b 14.935806
_cell_length_c 8.634767
_cell_angle_alpha 90.000000
_cell_angle_beta 90.000000
_cell_angle_gamma 90.000000
_cell_volume 1926.229151
_symmetry_space_group_name_H-M "P 42 21 2"
_symmetry_group_IT_number 94
_symmetry_cell_setting 'tetragonal'
loop_
_space_group_symop_operation_xyz
x,y,z
1/2-y,1/2+x,1/2+z
-x,-y,z
1/2+y,1/2-x,1/2+z
1/2+x,1/2-y,1/2-z
1/2-x,1/2+y,1/2-z
y,x,-z
-y,-x,-z
loop_
_atom_site_type_symbol
_atom_site_label
_atom_site_fract_x
_atom_site_fract_y
_atom_site_fract_z
Si Si1 0.834559 0.291055 0.601060
Si Si2 0.476354 0.755620 0.825307
Si Si3 0.275958 0.059863 0.681786
Si Si4 0.578492 0.435212 0.811223
Si Si5 0.571501 0.925497 0.135072
O O1 0.765055 0.234946 0.500000
O O2 0.792706 0.343667 0.744404
O O3 0.880731 0.368342 0.497802
O O4 0.919071 0.231667 0.652162
O O5 0.430808 0.667428 0.755454
O O6 0.468039 0.847124 0.730342
O O7 0.436033 0.775445 0.995188
O O8 0.176724 0.028990 0.728097
O O9 0.352394 0.988645 0.726732
O O10 0.500000 0.500000 0.756289
O O11 0.570901 0.429099 0.000000
O O12 0.500000 0.000000 0.081762
#
# Coordination Sequence:
#
# PCOD9550158 Si02
#       5
#     8   8   8   8   8
#     4  11  24  38  63  93 128 166 212 258 321 376
#     4  10  22  38  63  89 124 163 209 260 313 371
#     4  10  22  37  61  91 121 162 206 252 315 371
#     4   9  19  37  61  88 117 158 210 259 303 371
#     4  11  23  39  62  95 131 163 207 262 320 376
#
# _framework density 20.765961999999998
#
# number of rings (size 3 to 8) (size 9 to 14) (size 15 to 20)
#    0.000    1.800    2.000    1.200   14.000    0.000 
#    0.000    0.000    0.000    5.400    0.000    0.000 
#    0.000    0.000    0.000    0.000    0.000    0.000 
#
# Total GULP energy -223279.389497 kJ/mol
# GULP energy per Si atom -5581.984737 kJ/mol
# Density = 2.071870 g / cm^3
# Si number density = 20.765962 Si / 1000 Ang^3
#
#
#
# Elastic Constant Matrix: (Units=GPa)
#
#
# Indices 1 2 3 4 5 6 
#
# 1 107.3559 39.7428 8.4101 0.0000 0.0000 0.0000
# 2 39.7428 107.3544 8.4102 0.0000 0.0000 0.0000
# 3 8.4101 8.4102 9.2943 0.0000 0.0000 0.0000
# 4 0.0000 0.0000 0.0000 14.2850 0.0000 0.0000
# 5 0.0000 0.0000 0.0000 0.0000 14.2871 0.0000
# 6 0.0000 0.0000 0.0000 0.0000 0.0000 40.8000
#
#
#
# Elastic Compliance Matrix: (Units=1/GPa)
#
#
# Indices 1 2 3 4 5 6 
#
# 1 0.011186 -0.003604 -0.006861 0.000000 0.000000 0.000000
# 2 -0.003604 0.011187 -0.006862 0.000000 0.000000 0.000000
# 3 -0.006861 -0.006862 0.120010 0.000000 0.000000 0.000000
# 4 0.000000 0.000000 0.000000 0.070003 0.000000 0.000000
# 5 0.000000 0.000000 0.000000 0.000000 0.069993 0.000000
# 6 0.000000 0.000000 0.000000 0.000000 0.000000 0.024510
#
#
# Mechanical properties :
#
#
# Convention : Reuss Voigt Hill
#
# Bulk Modulus (GPa) = 9.28246 37.45897 23.37071
# Shear Modulus (GPa) = 13.24670 25.03720 19.14195
#
# Velocity S-wave (km/s) = 2.52842 3.47606 3.03940
# Velocity P-wave (km/s) = 3.60605 5.84709 4.85758
#
# Compressibility (1/GPa) = 0.10773009
#
# Stress axis : x y z
#
# Youngs Moduli (GPa) = 89.39429 89.39282 8.33263
#
# Poissons Ratio (x) = 0.32215 0.05717
# Poissons Ratio (y) = 0.32215 0.05718
# Poissons Ratio (z) = 0.61335 0.61338
#
# Static dielectric constant tensor:
#      x y z
#    x 1.767840 0.000000 0.000000 
#    y 0.000000 1.767840 0.000000 
#    z 0.000000 0.000000 1.758160 
# 
# From -- ./inp_files/1428.got.cif
#   From: 2010.05.17/outbox.cif.g08.bks.cpg/sg94_1_cif.got.tgz:1428.got - 2010.06.03 19:43:16.
