data_PCOD9550392
_publ_section_title
;
Structure prediction by ZEFSAII (Michael W. Deem and Ramdas Pophale) SiO2 
 PCOD9550392
Probable space group: P 42 21 2
;
_chemical_formula_sum "Si O2"
_cell_formula_units_Z 22
_cell_length_a 8.443206
_cell_length_b 8.443206
_cell_length_c 11.850478
_cell_angle_alpha 90.000000
_cell_angle_beta 90.000000
_cell_angle_gamma 90.000000
_cell_volume 844.793647
_symmetry_space_group_name_H-M "P 42 21 2"
_symmetry_group_IT_number 94
_symmetry_cell_setting 'tetragonal'
loop_
_space_group_symop_operation_xyz
x,y,z
1/2-y,1/2+x,1/2+z
-x,-y,z
1/2+y,1/2-x,1/2+z
1/2+x,1/2-y,1/2-z
1/2-x,1/2+y,1/2-z
y,x,-z
-y,-x,-z
loop_
_atom_site_type_symbol
_atom_site_label
_atom_site_fract_x
_atom_site_fract_y
_atom_site_fract_z
Si Si1 0.000000 0.000000 0.500000
Si Si2 0.500000 0.000000 0.056421
Si Si3 0.729695 0.435424 0.595378
Si Si4 0.699300 0.280056 0.163554
O O1 0.926873 0.876987 0.595953
O O2 0.601986 0.122274 0.128704
O O3 0.389694 0.100399 0.972935
O O4 0.604703 0.395298 0.500000
O O5 0.747971 0.618001 0.632875
O O6 0.699092 0.328134 0.703764
#
# Coordination Sequence:
#
# PCOD9550392 Si02
#       4
#     2   4   8   8
#     4  12  28  56  76 120 174 220 292 348 448 512
#     4  12  26  50  78 126 170 224 292 348 446 520
#     4  12  29  53  86 127 177 229 296 365 439 534
#     4  12  29  52  84 127 169 232 290 366 443 521
#
# _framework density 26.041861999999998
#
# number of rings (size 3 to 8) (size 9 to 14) (size 15 to 20)
#    0.000    0.000    3.636    3.273    7.636   11.636 
#    0.000    0.000    0.000    0.000    0.000    0.000 
#    0.000    0.000    0.000    0.000    0.000    0.000 
#
# Total GULP energy -123063.882236 kJ/mol
# GULP energy per Si atom -5593.812829 kJ/mol
# Density = 2.598259 g / cm^3
# Si number density = 26.041862 Si / 1000 Ang^3
#
#
#
# Elastic Constant Matrix: (Units=GPa)
#
#
# Indices 1 2 3 4 5 6 
#
# 1 130.8149 95.6459 74.5126 0.0000 0.0000 0.0000
# 2 95.6459 130.8108 74.5131 0.0000 0.0000 0.0000
# 3 74.5126 74.5131 269.5387 0.0000 0.0000 0.0000
# 4 0.0000 0.0000 0.0000 -9.1959 0.0000 0.0000
# 5 0.0000 0.0000 0.0000 0.0000 -9.1922 0.0000
# 6 0.0000 0.0000 0.0000 0.0000 0.0000 39.8542
#
#
#
# Elastic Compliance Matrix: (Units=1/GPa)
#
#
# Indices 1 2 3 4 5 6 
#
# 1 0.016916 -0.011519 -0.001492 0.000000 0.000000 0.000000
# 2 -0.011519 0.016917 -0.001492 0.000000 0.000000 0.000000
# 3 -0.001492 -0.001492 0.004535 0.000000 0.000000 0.000000
# 4 0.000000 0.000000 0.000000 -0.108744 0.000000 0.000000
# 5 0.000000 0.000000 0.000000 0.000000 -0.108788 0.000000
# 6 0.000000 0.000000 0.000000 0.000000 0.000000 0.025091
#
#
# Mechanical properties :
#
#
# Convention : Reuss Voigt Hill
#
# Bulk Modulus (GPa) = 106.81646 113.38974 110.10310
# Shear Modulus (GPa) = -41.00225 23.39274 -8.80476
#
# Velocity S-wave (km/s) = -3.97227 3.00037 -1.84074
# Velocity P-wave (km/s) = 4.47970 7.45915 6.15250
#
# Compressibility (1/GPa) = 0.00936185
#
# Stress axis : x y z
#
# Youngs Moduli (GPa) = 59.11412 59.11180 220.50398
#
# Poissons Ratio (x) = 0.68091 0.32901
# Poissons Ratio (y) = 0.68093 0.32906
# Poissons Ratio (z) = 0.08820 0.08821
#
# Static dielectric constant tensor:
#      x y z
#    x 2.203070 0.000000 0.000000 
#    y 0.000000 2.203050 0.000000 
#    z 0.000000 0.000000 2.021410 
# 
# From -- ./inp_files/1990.got.cif
#   From: 2010.05.17/outbox.cif.g08.bks.cpg/sg94_1_cif.got.tgz:1990.got - 2010.06.03 19:43:16.
