data_PCOD9550944
_publ_section_title
;
Structure prediction by ZEFSAII (Michael W. Deem and Ramdas Pophale) SiO2 
 PCOD9550944
Probable space group: P 43 21 2
;
_chemical_formula_sum "Si O2"
_cell_formula_units_Z 40
_cell_length_a 18.143664
_cell_length_b 18.143664
_cell_length_c 5.676091
_cell_angle_alpha 90.000000
_cell_angle_beta 90.000000
_cell_angle_gamma 90.000000
_cell_volume 1868.526833
_symmetry_space_group_name_H-M "P 43 21 2"
_symmetry_group_IT_number 96
_symmetry_cell_setting 'tetragonal'
loop_
_space_group_symop_operation_xyz
x,y,z
1/2-y,1/2+x,3/4+z
-x,-y,1/2+z
1/2+y,1/2-x,1/4+z
1/2+x,1/2-y,1/4-z
1/2-x,1/2+y,3/4-z
y,x,-z
-y,-x,1/2-z
loop_
_atom_site_type_symbol
_atom_site_label
_atom_site_fract_x
_atom_site_fract_y
_atom_site_fract_z
Si Si1 0.979713 0.237727 0.583560
Si Si2 0.927540 0.640860 0.815332
Si Si3 0.336378 0.217018 0.927516
Si Si4 0.539275 0.583676 0.249186
Si Si5 0.548356 0.846621 0.796544
O O1 0.023820 0.300299 0.449787
O O2 0.896521 0.239095 0.479669
O O3 0.008714 0.157350 0.526712
O O4 0.979780 0.268534 0.847319
O O5 0.854704 0.682473 0.725137
O O6 0.981976 0.617427 0.602488
O O7 0.898306 0.577334 0.991006
O O8 0.270008 0.270008 0.000000
O O9 0.382007 0.179093 0.140972
O O10 0.581710 0.581710 0.500000
O O11 0.488328 0.511673 0.250000
O O12 0.583234 0.583234 0.000000
#
# Coordination Sequence:
#
# PCOD9550944 Si02
#       5
#     8   8   8   8   8
#     4  10  22  38  67  92 132 174 222 273 334 400
#     4  10  22  42  66  94 136 169 224 273 340 398
#     4  10  22  40  67  96 128 168 222 268 336 398
#     4  10  23  42  65 100 140 181 229 279 340 412
#     4  10  22  42  68  93 133 174 219 281 329 411
#
# _framework density 21.407236999999999
#
# number of rings (size 3 to 8) (size 9 to 14) (size 15 to 20)
#    0.000    2.000    0.000    1.800    8.400    2.400 
#    7.200    0.000  158.400    0.000    0.000    0.000 
#    0.000    0.000    0.000    0.000    0.000    0.000 
#
# Total GULP energy -223064.471920 kJ/mol
# GULP energy per Si atom -5576.611798 kJ/mol
# Density = 2.135851 g / cm^3
# Si number density = 21.407237 Si / 1000 Ang^3
#
#
#
# Elastic Constant Matrix: (Units=GPa)
#
#
# Indices 1 2 3 4 5 6 
#
# 1 65.7839 5.0845 27.1019 0.0000 0.0000 0.0000
# 2 5.0845 65.7883 27.1019 0.0000 0.0000 0.0000
# 3 27.1019 27.1019 105.5325 0.0000 0.0000 0.0000
# 4 0.0000 0.0000 0.0000 21.2142 0.0000 0.0000
# 5 0.0000 0.0000 0.0000 0.0000 21.2140 0.0000
# 6 0.0000 0.0000 0.0000 0.0000 0.0000 15.9105
#
#
#
# Elastic Compliance Matrix: (Units=1/GPa)
#
#
# Indices 1 2 3 4 5 6 
#
# 1 0.017017 0.000543 -0.004510 0.000000 0.000000 0.000000
# 2 0.000543 0.017016 -0.004509 0.000000 0.000000 0.000000
# 3 -0.004510 -0.004509 0.011792 0.000000 0.000000 0.000000
# 4 0.000000 0.000000 0.000000 0.047138 0.000000 0.000000
# 5 0.000000 0.000000 0.000000 0.000000 0.047139 0.000000
# 6 0.000000 0.000000 0.000000 0.000000 0.000000 0.062852
#
#
# Mechanical properties :
#
#
# Convention : Reuss Voigt Hill
#
# Bulk Modulus (GPa) = 34.63489 39.52013 37.07751
# Shear Modulus (GPa) = 21.78362 23.52216 22.65289
#
# Velocity S-wave (km/s) = 3.19342 3.31840 3.25651
# Velocity P-wave (km/s) = 5.45998 5.76052 5.61226
#
# Compressibility (1/GPa) = 0.02887262
#
# Stress axis : x y z
#
# Youngs Moduli (GPa) = 58.76402 58.76843 84.80419
#
# Poissons Ratio (x) = -0.03188 0.38243
# Poissons Ratio (y) = -0.03188 0.38240
# Poissons Ratio (z) = 0.26500 0.26500
#
# Static dielectric constant tensor:
#      x y z
#    x 1.781540 0.000000 0.000000 
#    y 0.000000 1.781540 0.000000 
#    z 0.000000 0.000000 1.921930 
# 
# From -- ./inp_files/397.got.cif
#   From: 2010.05.17/outbox.cif.g08.bks.cpg/sg96_1_cif.got.tgz:397.got - 2010.06.03 19:52:08.
