data_PCOD9550640
_publ_section_title
;
Structure prediction by ZEFSAII (Michael W. Deem and Ramdas Pophale) SiO2 
 PCOD9550640
Probable space group: P 43 2 2
;
_chemical_formula_sum "Si O2"
_cell_formula_units_Z 36
_cell_length_a 14.531161
_cell_length_b 14.531161
_cell_length_c 8.478223
_cell_angle_alpha 90.000000
_cell_angle_beta 90.000000
_cell_angle_gamma 90.000000
_cell_volume 1790.216125
_symmetry_space_group_name_H-M "P 43 2 2"
_symmetry_group_IT_number 95
_symmetry_cell_setting 'tetragonal'
loop_
_space_group_symop_operation_xyz
x,y,z
-y,x,3/4+z
-x,-y,1/2+z
y,-x,1/4+z
x,-y,1/2-z
-x,y,-z
y,x,1/4-z
-y,-x,3/4-z
loop_
_atom_site_type_symbol
_atom_site_label
_atom_site_fract_x
_atom_site_fract_y
_atom_site_fract_z
Si Si1 0.042665 0.252298 0.338873
Si Si2 0.083349 0.644245 0.621781
Si Si3 0.922142 0.077859 0.875000
Si Si4 0.250819 0.740974 0.191376
Si Si5 0.228937 0.500000 0.750000
Si Si6 0.659362 0.340639 0.375000
O O1 0.057666 0.173802 0.209956
O O2 0.146500 0.288668 0.346911
O O3 0.000000 0.214002 0.500000
O O4 0.969813 0.327620 0.280317
O O5 0.148716 0.730640 0.574042
O O6 0.157307 0.563678 0.650955
O O7 0.000000 0.626029 0.500000
O O8 0.933263 0.000000 0.750000
O O9 0.278363 0.721637 0.375000
O O10 0.303899 0.697443 0.043137
O O11 0.298777 0.556623 0.863017
#
# Coordination Sequence:
#
# PCOD9550640 Si02
#       6
#     8   8   4   8   4   4
#     4  12  22  36  61  87 130 179 233 278 327 393
#     4  11  22  41  62  98 134 167 218 273 330 399
#     4  12  24  36  49  80 125 180 238 282 316 366
#     4  11  21  40  65  94 137 188 220 273 344 410
#     4  10  24  44  74  96 136 174 212 286 356 424
#     4  10  24  46  71  98 131 172 222 278 370 430
#
# _framework density 20.109304000000002
#
# number of rings (size 3 to 8) (size 9 to 14) (size 15 to 20)
#    0.000    0.889    3.333    5.333    0.000    4.444 
#    0.000    3.333    9.778    0.000    0.000    0.000 
#    0.000    0.000    0.000    0.000    0.000    0.000 
#
# Total GULP energy -200425.017113 kJ/mol
# GULP energy per Si atom -5567.361586 kJ/mol
# Density = 2.006353 g / cm^3
# Si number density = 20.109304 Si / 1000 Ang^3
#
#
#
# Elastic Constant Matrix: (Units=GPa)
#
#
# Indices 1 2 3 4 5 6 
#
# 1 77.6461 48.9711 30.9114 0.0000 0.0000 0.0000
# 2 48.9711 77.6476 30.9113 0.0000 0.0000 0.0000
# 3 30.9114 30.9113 112.3153 0.0000 0.0000 0.0000
# 4 0.0000 0.0000 0.0000 22.1174 0.0000 0.0000
# 5 0.0000 0.0000 0.0000 0.0000 22.1197 0.0000
# 6 0.0000 0.0000 0.0000 0.0000 0.0000 44.8896
#
#
#
# Elastic Compliance Matrix: (Units=1/GPa)
#
#
# Indices 1 2 3 4 5 6 
#
# 1 0.021999 -0.012874 -0.002511 0.000000 0.000000 0.000000
# 2 -0.012874 0.021998 -0.002511 0.000000 0.000000 0.000000
# 3 -0.002511 -0.002511 0.010286 0.000000 0.000000 0.000000
# 4 0.000000 0.000000 0.000000 0.045213 0.000000 0.000000
# 5 0.000000 0.000000 0.000000 0.000000 0.045209 0.000000
# 6 0.000000 0.000000 0.000000 0.000000 0.000000 0.022277
#
#
# Mechanical properties :
#
#
# Convention : Reuss Voigt Hill
#
# Bulk Modulus (GPa) = 54.08584 54.35517 54.22050
# Shear Modulus (GPa) = 23.93065 28.27969 26.10517
#
# Velocity S-wave (km/s) = 3.45342 3.75413 3.60691
# Velocity P-wave (km/s) = 6.54644 6.77347 6.66092
#
# Compressibility (1/GPa) = 0.01848913
#
# Stress axis : x y z
#
# Youngs Moduli (GPa) = 45.45759 45.45862 97.22245
#
# Poissons Ratio (x) = 0.58525 0.24414
# Poissons Ratio (y) = 0.58524 0.24412
# Poissons Ratio (z) = 0.11415 0.11415
#
# Static dielectric constant tensor:
#      x y z
#    x 1.766350 0.000000 0.000000 
#    y 0.000000 1.766350 0.000000 
#    z 0.000000 0.000000 2.001720 
# 
# From -- ./inp_files/2279.got.cif
#   From: 2010.05.17/outbox.cif.g08.bks.cpg/sg95_2_cif.got.tgz:2279.got - 2010.06.03 19:46:49.
