data_PCOD9550983
_publ_section_title
;
Structure prediction by ZEFSAII (Michael W. Deem and Ramdas Pophale) SiO2 
 PCOD9550983
Probable space group: P 43 21 2
;
_chemical_formula_sum "Si O2"
_cell_formula_units_Z 40
_cell_length_a 14.361957
_cell_length_b 14.361957
_cell_length_c 8.897384
_cell_angle_alpha 90.000000
_cell_angle_beta 90.000000
_cell_angle_gamma 90.000000
_cell_volume 1835.226108
_symmetry_space_group_name_H-M "P 43 21 2"
_symmetry_group_IT_number 96
_symmetry_cell_setting 'tetragonal'
loop_
_space_group_symop_operation_xyz
x,y,z
1/2-y,1/2+x,3/4+z
-x,-y,1/2+z
1/2+y,1/2-x,1/4+z
1/2+x,1/2-y,1/4-z
1/2-x,1/2+y,3/4-z
y,x,-z
-y,-x,1/2-z
loop_
_atom_site_type_symbol
_atom_site_label
_atom_site_fract_x
_atom_site_fract_y
_atom_site_fract_z
Si Si1 0.843742 0.205874 0.494375
Si Si2 0.205874 0.156259 0.244374
Si Si3 0.516636 0.243377 0.952624
Si Si4 0.138843 0.361158 0.500000
Si Si5 0.983365 0.256622 0.952624
O O1 0.750000 0.250000 0.425869
O O2 0.862092 0.271927 0.638630
O O3 0.816941 0.102101 0.543979
O O4 0.927835 0.213202 0.379007
O O5 0.102102 0.183059 0.293980
O O6 0.271928 0.137908 0.388628
O O7 0.213202 0.072166 0.129006
O O8 0.550909 0.154619 0.856275
O O9 0.500000 0.217988 0.125000
O O10 0.154619 0.449092 0.606276
#
# Coordination Sequence:
#
# PCOD9550983 Si02
#       5
#     8   8   8   8   8
#     4  10  22  43  68  97 132 173 218 271 331 387
#     4  10  22  43  68  97 132 173 218 271 331 387
#     4  11  22  39  67 100 133 173 218 267 327 391
#     4  10  23  42  66  94 132 174 210 266 331 394
#     4  11  22  39  67 100 133 173 218 267 327 391
#
# _framework density 21.795679
#
# number of rings (size 3 to 8) (size 9 to 14) (size 15 to 20)
#    0.000    1.600    0.000    7.800    0.000   11.200 
#    0.000   16.000    0.000   96.000    0.000    0.000 
#    0.000    0.000    0.000    0.000    0.000    0.000 
#
# Total GULP energy -223613.412478 kJ/mol
# GULP energy per Si atom -5590.335312 kJ/mol
# Density = 2.174607 g / cm^3
# Si number density = 21.795679 Si / 1000 Ang^3
#
#
#
# Elastic Constant Matrix: (Units=GPa)
#
#
# Indices 1 2 3 4 5 6 
#
# 1 45.1226 120.0437 50.8906 0.0000 0.0000 0.0000
# 2 120.0437 45.1226 50.8906 0.0000 0.0000 0.0000
# 3 50.8906 50.8906 156.0886 0.0000 0.0000 0.0000
# 4 0.0000 0.0000 0.0000 15.9506 0.0000 0.0000
# 5 0.0000 0.0000 0.0000 0.0000 15.9506 0.0000
# 6 0.0000 0.0000 0.0000 0.0000 0.0000 7.9114
#
#
#
# Elastic Compliance Matrix: (Units=1/GPa)
#
#
# Indices 1 2 3 4 5 6 
#
# 1 -0.002885 0.010462 -0.002470 0.000000 0.000000 0.000000
# 2 0.010462 -0.002885 -0.002470 0.000000 0.000000 0.000000
# 3 -0.002470 -0.002470 0.008017 0.000000 0.000000 0.000000
# 4 0.000000 0.000000 0.000000 0.062694 0.000000 0.000000
# 5 0.000000 0.000000 0.000000 0.000000 0.062694 0.000000
# 6 0.000000 0.000000 0.000000 0.000000 0.000000 0.126400
#
#
# Mechanical properties :
#
#
# Convention : Reuss Voigt Hill
#
# Bulk Modulus (GPa) = 75.24579 76.66487 75.95533
# Shear Modulus (GPa) = 20.20845 9.59644 14.90245
#
# Velocity S-wave (km/s) = 3.04826 2.10059 2.61767
# Velocity P-wave (km/s) = 6.85474 6.41358 6.63782
#
# Compressibility (1/GPa) = 0.01328978
#
# Stress axis : x y z
#
# Youngs Moduli (GPa) = -346.58541 -346.58541 124.72800
#
# Poissons Ratio (x) = 3.62601 0.30812
# Poissons Ratio (y) = 3.62601 0.30812
# Poissons Ratio (z) = -0.85618 -0.85618
#
# Static dielectric constant tensor:
#      x y z
#    x 1.813660 0.000000 0.000000 
#    y 0.000000 1.813660 0.000000 
#    z 0.000000 0.000000 1.836820 
# 
# From -- ./inp_files/1266.got.cif
#   From: 2010.05.17/outbox.cif.g08.bks.cpg/sg96_1_cif.got.tgz:1266.got - 2010.06.03 19:52:08.
