data_PCOD9550908
_publ_section_title
;
Structure prediction by ZEFSAII (Michael W. Deem and Ramdas Pophale) SiO2 
 PCOD9550908
Probable space group: P 43 21 2
;
_chemical_formula_sum "Si O2"
_cell_formula_units_Z 48
_cell_length_a 21.432240
_cell_length_b 21.432240
_cell_length_c 4.935775
_cell_angle_alpha 90.000000
_cell_angle_beta 90.000000
_cell_angle_gamma 90.000000
_cell_volume 2267.203387
_symmetry_space_group_name_H-M "P 43 21 2"
_symmetry_group_IT_number 96
_symmetry_cell_setting 'tetragonal'
loop_
_space_group_symop_operation_xyz
x,y,z
1/2-y,1/2+x,3/4+z
-x,-y,1/2+z
1/2+y,1/2-x,1/4+z
1/2+x,1/2-y,1/4-z
1/2-x,1/2+y,3/4-z
y,x,-z
-y,-x,1/2-z
loop_
_atom_site_type_symbol
_atom_site_label
_atom_site_fract_x
_atom_site_fract_y
_atom_site_fract_z
Si Si1 0.460988 0.801095 0.865138
Si Si2 0.901420 0.810481 0.658788
Si Si3 0.680277 0.888617 0.122560
Si Si4 0.596123 0.496417 0.397456
Si Si5 0.775649 0.589871 0.851452
Si Si6 0.900166 0.191528 0.093770
O O1 0.441381 0.729084 0.811415
O O2 0.447424 0.831025 0.573400
O O3 0.410861 0.830142 0.069463
O O4 0.527915 0.801869 0.002836
O O5 0.849366 0.849366 0.500000
O O6 0.874640 0.754303 0.839379
O O7 0.951288 0.855649 0.810198
O O8 0.638418 0.830603 0.202610
O O9 0.542340 0.542340 0.500000
O O10 0.556206 0.443794 0.250000
O O11 0.641995 0.546543 0.258318
O O12 0.739037 0.574695 0.574445
O O13 0.728683 0.618370 0.076138
O O14 0.846238 0.153763 0.250000
#
# Coordination Sequence:
#
# PCOD9550908 Si02
#       6
#     8   8   8   8   8   8
#     4  10  21  41  63  95 123 170 218 262 347 393
#     4   9  20  41  58  91 133 172 223 273 326 391
#     4  10  23  40  64  99 125 174 219 274 342 406
#     4  10  21  40  61  94 133 180 232 280 326 398
#     4  12  22  43  69  92 135 177 223 285 345 418
#     4  11  24  41  61  95 133 181 231 282 338 405
#
# _framework density 21.171455000000002
#
# number of rings (size 3 to 8) (size 9 to 14) (size 15 to 20)
#    1.000    0.667    1.667    3.500    0.000    4.000 
#    9.000    0.000    0.000    2.000    0.000    0.000 
#    0.000    0.000    0.000    0.000    0.000    0.000 
#
# Total GULP energy -267317.559377 kJ/mol
# GULP energy per Si atom -5569.115820 kJ/mol
# Density = 2.112327 g / cm^3
# Si number density = 21.171455 Si / 1000 Ang^3
#
#
#
# Elastic Constant Matrix: (Units=GPa)
#
#
# Indices 1 2 3 4 5 6 
#
# 1 78.8619 56.6723 12.7005 0.0000 0.0000 0.0000
# 2 56.6723 78.8611 12.7021 0.0000 0.0000 0.0000
# 3 12.7005 12.7021 74.3296 0.0000 0.0000 0.0000
# 4 0.0000 0.0000 0.0000 27.9118 0.0000 0.0000
# 5 0.0000 0.0000 0.0000 0.0000 27.9128 0.0000
# 6 0.0000 0.0000 0.0000 0.0000 0.0000 55.6835
#
#
#
# Elastic Compliance Matrix: (Units=1/GPa)
#
#
# Indices 1 2 3 4 5 6 
#
# 1 0.026344 -0.018722 -0.001302 0.000000 0.000000 0.000000
# 2 -0.018722 0.026345 -0.001303 0.000000 0.000000 0.000000
# 3 -0.001302 -0.001303 0.013899 0.000000 0.000000 0.000000
# 4 0.000000 0.000000 0.000000 0.035827 0.000000 0.000000
# 5 0.000000 0.000000 0.000000 0.000000 0.035826 0.000000
# 6 0.000000 0.000000 0.000000 0.000000 0.000000 0.017959
#
#
# Mechanical properties :
#
#
# Convention : Reuss Voigt Hill
#
# Bulk Modulus (GPa) = 41.78252 44.02250 42.90251
# Shear Modulus (GPa) = 24.17420 32.30015 28.23717
#
# Velocity S-wave (km/s) = 3.38276 3.91019 3.65600
# Velocity P-wave (km/s) = 5.91909 6.42064 6.17496
#
# Compressibility (1/GPa) = 0.02393345
#
# Stress axis : x y z
#
# Youngs Moduli (GPa) = 37.95869 37.95800 71.94906
#
# Poissons Ratio (x) = 0.71066 0.09367
# Poissons Ratio (y) = 0.71067 0.09375
# Poissons Ratio (z) = 0.04942 0.04946
#
# Static dielectric constant tensor:
#      x y z
#    x 1.793580 0.000000 0.000000 
#    y 0.000000 1.793570 0.000000 
#    z 0.000000 0.000000 1.789110 
# 
# From -- ./inp_files/627.got.cif
#   From: 2010.05.17/outbox.cif.g08.bks.cpg/sg96_1_cif.got.tgz:627.got - 2010.06.03 19:52:08.
