data_PCOD9550761
_publ_section_title
;
Structure prediction by ZEFSAII (Michael W. Deem and Ramdas Pophale) SiO2 
 PCOD9550761
Probable space group: P 43 21 2
;
_chemical_formula_sum "Si O2"
_cell_formula_units_Z 48
_cell_length_a 14.943197
_cell_length_b 14.943197
_cell_length_c 9.914930
_cell_angle_alpha 90.000000
_cell_angle_beta 90.000000
_cell_angle_gamma 90.000000
_cell_volume 2213.995308
_symmetry_space_group_name_H-M "P 43 21 2"
_symmetry_group_IT_number 96
_symmetry_cell_setting 'tetragonal'
loop_
_space_group_symop_operation_xyz
x,y,z
1/2-y,1/2+x,3/4+z
-x,-y,1/2+z
1/2+y,1/2-x,1/4+z
1/2+x,1/2-y,1/4-z
1/2-x,1/2+y,3/4-z
y,x,-z
-y,-x,1/2-z
loop_
_atom_site_type_symbol
_atom_site_label
_atom_site_fract_x
_atom_site_fract_y
_atom_site_fract_z
Si Si1 0.571991 0.744304 0.632287
Si Si2 0.218500 0.610565 0.536372
Si Si3 0.084072 0.471400 0.524385
Si Si4 0.927994 0.730430 0.986162
Si Si5 0.721425 0.618779 0.681469
Si Si6 0.872528 0.771317 0.694088
O O1 0.632852 0.830986 0.665705
O O2 0.626142 0.665709 0.709402
O O3 0.589364 0.724907 0.474459
O O4 0.464011 0.747767 0.638715
O O5 0.183316 0.509565 0.550353
O O6 0.233788 0.625110 0.376055
O O7 0.310347 0.645235 0.600520
O O8 0.036526 0.535996 0.417505
O O9 0.077272 0.375001 0.454789
O O10 0.899293 0.781440 0.851831
O O11 0.029937 0.759076 0.015021
O O12 0.801969 0.689686 0.692546
#
# Coordination Sequence:
#
# PCOD9550761 Si02
#       6
#     8   8   8   8   8   8
#     4   9  20  35  56  86 119 158 206 251 296 375
#     4  10  21  34  53  92 119 153 206 255 308 381
#     4  10  22  34  54  90 126 158 203 263 327 383
#     4  10  20  35  57  87 119 158 203 252 318 377
#     4   9  19  35  56  89 115 157 208 249 303 373
#     4  10  19  35  58  83 119 166 200 251 319 361
#
# _framework density 21.680263
#
# number of rings (size 3 to 8) (size 9 to 14) (size 15 to 20)
#    0.000    2.333    0.000    2.500    7.000    1.333 
#    0.000    0.000    0.000    0.000  216.667    0.000 
#    0.000    0.000    0.000    0.000    0.000    0.000 
#
# Total GULP energy -267507.343797 kJ/mol
# GULP energy per Si atom -5573.069662 kJ/mol
# Density = 2.163092 g / cm^3
# Si number density = 21.680263 Si / 1000 Ang^3
#
#
#
# Elastic Constant Matrix: (Units=GPa)
#
#
# Indices 1 2 3 4 5 6 
#
# 1 69.8792 22.2267 3.1903 0.0000 0.0000 0.0000
# 2 22.2267 69.8792 3.1903 0.0000 0.0000 0.0000
# 3 3.1903 3.1903 60.2183 0.0000 0.0000 0.0000
# 4 0.0000 0.0000 0.0000 24.8308 0.0000 0.0000
# 5 0.0000 0.0000 0.0000 0.0000 24.8308 0.0000
# 6 0.0000 0.0000 0.0000 0.0000 0.0000 35.7997
#
#
#
# Elastic Compliance Matrix: (Units=1/GPa)
#
#
# Indices 1 2 3 4 5 6 
#
# 1 0.015941 -0.005044 -0.000577 0.000000 0.000000 0.000000
# 2 -0.005044 0.015941 -0.000577 0.000000 0.000000 0.000000
# 3 -0.000577 -0.000577 0.016667 0.000000 0.000000 0.000000
# 4 0.000000 0.000000 0.000000 0.040273 0.000000 0.000000
# 5 0.000000 0.000000 0.000000 0.000000 0.040273 0.000000
# 6 0.000000 0.000000 0.000000 0.000000 0.000000 0.027933
#
#
# Mechanical properties :
#
#
# Convention : Reuss Voigt Hill
#
# Bulk Modulus (GPa) = 27.66076 28.57680 28.11878
# Shear Modulus (GPa) = 27.55182 28.51689 28.03436
#
# Velocity S-wave (km/s) = 3.56873 3.63069 3.59985
# Velocity P-wave (km/s) = 5.45594 5.54847 5.50240
#
# Compressibility (1/GPa) = 0.03615230
#
# Stress axis : x y z
#
# Youngs Moduli (GPa) = 62.73069 62.73069 59.99729
#
# Poissons Ratio (x) = 0.31642 0.03464
# Poissons Ratio (y) = 0.31642 0.03464
# Poissons Ratio (z) = 0.03622 0.03622
#
# Static dielectric constant tensor:
#      x y z
#    x 1.840740 0.000000 0.000000 
#    y 0.000000 1.840740 0.000000 
#    z 0.000000 0.000000 1.826440 
# 
# From -- ./inp_files/2190.got.cif
#   From: 2010.05.17/outbox.cif.g08.bks.cpg/sg96_2_cif.got.tgz:2190.got - 2010.06.03 19:52:08.
