data_PCOD9550832
_publ_section_title
;
Structure prediction by ZEFSAII (Michael W. Deem and Ramdas Pophale) SiO2 
 PCOD9550832
Probable space group: P 43 21 2
;
_chemical_formula_sum "Si O2"
_cell_formula_units_Z 40
_cell_length_a 8.546124
_cell_length_b 8.546124
_cell_length_c 24.843541
_cell_angle_alpha 90.000000
_cell_angle_beta 90.000000
_cell_angle_gamma 90.000000
_cell_volume 1814.478709
_symmetry_space_group_name_H-M "P 43 21 2"
_symmetry_group_IT_number 96
_symmetry_cell_setting 'tetragonal'
loop_
_space_group_symop_operation_xyz
x,y,z
1/2-y,1/2+x,3/4+z
-x,-y,1/2+z
1/2+y,1/2-x,1/4+z
1/2+x,1/2-y,1/4-z
1/2-x,1/2+y,3/4-z
y,x,-z
-y,-x,1/2-z
loop_
_atom_site_type_symbol
_atom_site_label
_atom_site_fract_x
_atom_site_fract_y
_atom_site_fract_z
Si Si1 0.062941 0.159362 0.649739
Si Si2 0.574679 0.574679 0.000000
Si Si3 0.361318 0.309612 0.701669
Si Si4 0.127008 0.269964 0.201532
Si Si5 0.800760 0.184371 0.345112
Si Si6 0.154107 0.154107 0.000000
O O1 0.206332 0.263326 0.668888
O O2 0.923286 0.171865 0.694572
O O3 0.000822 0.194687 0.590769
O O4 0.123451 0.978792 0.651014
O O5 0.603091 0.396515 0.019262
O O6 0.381448 0.192834 0.752160
O O7 0.335794 0.481891 0.725309
O O8 0.247776 0.254929 0.152600
O O9 0.960718 0.305814 0.174398
O O10 0.776490 0.311661 0.298047
#
# Coordination Sequence:
#
# PCOD9550832 Si02
#       6
#     8   4   8   8   8   4
#     4  10  22  42  63  90 133 172 214 273 336 397
#     4   8  17  38  59  82 122 166 207 264 321 372
#     4  11  23  42  65  94 133 174 218 275 335 397
#     4  10  20  38  65  94 129 169 216 271 328 392
#     4  11  22  41  68  99 133 172 223 280 335 400
#     4  12  23  40  69 100 130 172 229 282 333 404
#
# _framework density 22.044898
#
# number of rings (size 3 to 8) (size 9 to 14) (size 15 to 20)
#    0.000    1.600    0.000    8.400    0.000    1.600 
#    0.000   21.000    0.000    0.000    0.000    0.000 
#    0.000    0.000    0.000    0.000    0.000    0.000 
#
# Total GULP energy -223411.180653 kJ/mol
# GULP energy per Si atom -5585.279516 kJ/mol
# Density = 2.199472 g / cm^3
# Si number density = 22.044898 Si / 1000 Ang^3
#
#
#
# Elastic Constant Matrix: (Units=GPa)
#
#
# Indices 1 2 3 4 5 6 
#
# 1 58.6505 57.0027 60.6623 0.0000 0.0000 0.0000
# 2 57.0027 58.6505 60.6623 0.0000 0.0000 0.0000
# 3 60.6623 60.6623 200.7926 0.0000 0.0000 0.0000
# 4 0.0000 0.0000 0.0000 14.8588 0.0000 0.0000
# 5 0.0000 0.0000 0.0000 0.0000 14.8588 0.0000
# 6 0.0000 0.0000 0.0000 0.0000 0.0000 18.6707
#
#
#
# Elastic Compliance Matrix: (Units=1/GPa)
#
#
# Indices 1 2 3 4 5 6 
#
# 1 0.309753 -0.297095 -0.003824 0.000000 0.000000 0.000000
# 2 -0.297095 0.309753 -0.003824 0.000000 0.000000 0.000000
# 3 -0.003824 -0.003824 0.007291 0.000000 0.000000 0.000000
# 4 0.000000 0.000000 0.000000 0.067300 0.000000 0.000000
# 5 0.000000 0.000000 0.000000 0.000000 0.067300 0.000000
# 6 0.000000 0.000000 0.000000 0.000000 0.000000 0.053560
#
#
# Mechanical properties :
#
#
# Convention : Reuss Voigt Hill
#
# Bulk Modulus (GPa) = 57.76803 74.97202 66.37002
# Shear Modulus (GPa) = 3.49598 18.99543 11.24570
#
# Velocity S-wave (km/s) = 1.26067 2.93861 2.26105
# Velocity P-wave (km/s) = 5.32735 6.75252 6.08182
#
# Compressibility (1/GPa) = 0.01731061
#
# Stress axis : x y z
#
# Youngs Moduli (GPa) = 3.22838 3.22838 137.15546
#
# Poissons Ratio (x) = 0.95913 0.52452
# Poissons Ratio (y) = 0.95913 0.52452
# Poissons Ratio (z) = 0.01235 0.01235
#
# Static dielectric constant tensor:
#      x y z
#    x 1.823610 0.000000 0.000000 
#    y 0.000000 1.823610 0.000000 
#    z 0.000000 0.000000 1.845570 
# 
# From -- ./inp_files/3856.got.cif
#   From: 2010.05.17/outbox.cif.g08.bks.cpg/sg96_2_cif.got.tgz:3856.got - 2010.06.03 19:52:08.
