data_PCOD9550631
_publ_section_title
;
Structure prediction by ZEFSAII (Michael W. Deem and Ramdas Pophale) SiO2 
 PCOD9550631
Probable space group: P 43 2 2
;
_chemical_formula_sum "Si O2"
_cell_formula_units_Z 40
_cell_length_a 8.719413
_cell_length_b 8.719413
_cell_length_c 22.833470
_cell_angle_alpha 90.000000
_cell_angle_beta 90.000000
_cell_angle_gamma 90.000000
_cell_volume 1735.986780
_symmetry_space_group_name_H-M "P 43 2 2"
_symmetry_group_IT_number 95
_symmetry_cell_setting 'tetragonal'
loop_
_space_group_symop_operation_xyz
x,y,z
-y,x,3/4+z
-x,-y,1/2+z
y,-x,1/4+z
x,-y,1/2-z
-x,y,-z
y,x,1/4-z
-y,-x,3/4-z
loop_
_atom_site_type_symbol
_atom_site_label
_atom_site_fract_x
_atom_site_fract_y
_atom_site_fract_z
Si Si1 0.222087 0.366264 0.383316
Si Si2 0.825757 0.748799 0.005206
Si Si3 0.462329 0.654116 0.214289
Si Si4 0.314857 0.152100 0.180148
Si Si5 0.944851 0.106451 0.679854
O O1 0.252131 0.267740 0.441767
O O2 0.374384 0.389176 0.345085
O O3 0.128864 0.514703 0.404562
O O4 0.119688 0.266303 0.341196
O O5 0.739425 0.624431 0.045194
O O6 0.848118 0.925479 0.023007
O O7 0.000000 0.691248 0.000000
O O8 0.493092 0.500000 0.250000
O O9 0.354735 0.754923 0.259666
O O10 0.242850 0.242850 0.125000
O O11 0.196677 0.012032 0.190001
O O12 0.034907 0.034907 0.625000
#
# Coordination Sequence:
#
# PCOD9550631 Si02
#       5
#     8   8   8   8   8
#     4  11  25  45  76 110 150 204 261 315 398 468
#     4  11  26  50  68 113 154 193 255 320 406 452
#     4  11  25  47  73 112 150 206 260 319 389 476
#     4  10  23  46  73 107 150 193 255 320 374 464
#     4  11  25  45  72 105 149 201 251 319 390 472
#
# _framework density 23.041651999999999
#
# number of rings (size 3 to 8) (size 9 to 14) (size 15 to 20)
#    0.000    1.200    4.000    0.000    8.400    0.000 
#   14.400    0.000    0.000    0.000    0.000    0.000 
#    0.000    0.000    0.000    0.000    0.000    0.000 
#
# Total GULP energy -223237.562504 kJ/mol
# GULP energy per Si atom -5580.939063 kJ/mol
# Density = 2.298921 g / cm^3
# Si number density = 23.041652 Si / 1000 Ang^3
#
#
#
# Elastic Constant Matrix: (Units=GPa)
#
#
# Indices 1 2 3 4 5 6 
#
# 1 128.9364 94.2268 52.5317 0.0000 0.0000 0.0000
# 2 94.2268 128.9364 52.5317 0.0000 0.0000 0.0000
# 3 52.5317 52.5317 97.7465 0.0000 0.0000 0.0000
# 4 0.0000 0.0000 0.0000 31.1302 0.0000 0.0000
# 5 0.0000 0.0000 0.0000 0.0000 31.1302 0.0000
# 6 0.0000 0.0000 0.0000 0.0000 0.0000 39.1967
#
#
#
# Elastic Compliance Matrix: (Units=1/GPa)
#
#
# Indices 1 2 3 4 5 6 
#
# 1 0.017405 -0.011406 -0.003224 0.000000 0.000000 0.000000
# 2 -0.011406 0.017405 -0.003224 0.000000 0.000000 0.000000
# 3 -0.003224 -0.003224 0.013696 0.000000 0.000000 0.000000
# 4 0.000000 0.000000 0.000000 0.032123 0.000000 0.000000
# 5 0.000000 0.000000 0.000000 0.000000 0.032123 0.000000
# 6 0.000000 0.000000 0.000000 0.000000 0.000000 0.025512
#
#
# Mechanical properties :
#
#
# Convention : Reuss Voigt Hill
#
# Bulk Modulus (GPa) = 78.13892 83.79996 80.96944
# Shear Modulus (GPa) = 28.05255 30.71337 29.38296
#
# Velocity S-wave (km/s) = 3.49301 3.65492 3.57488
# Velocity P-wave (km/s) = 7.08899 7.36608 7.22886
#
# Compressibility (1/GPa) = 0.01279772
#
# Stress axis : x y z
#
# Youngs Moduli (GPa) = 57.45599 57.45599 73.01502
#
# Poissons Ratio (x) = 0.65533 0.23540
# Poissons Ratio (y) = 0.65533 0.23540
# Poissons Ratio (z) = 0.18523 0.18523
#
# Static dielectric constant tensor:
#      x y z
#    x 1.897080 0.000000 0.000000 
#    y 0.000000 1.897080 0.000000 
#    z 0.000000 0.000000 2.267960 
# 
# From -- ./inp_files/7359.got.cif
#   From: 2010.05.17/outbox.cif.g08.bks.cpg/sg95_4_cif.got.tgz:7359.got - 2010.06.03 19:46:49.
