data_PCOD9550696
_publ_section_title
;
Structure prediction by ZEFSAII (Michael W. Deem and Ramdas Pophale) SiO2 
 PCOD9550696
Probable space group: P 43 2 2
;
_chemical_formula_sum "Si O2"
_cell_formula_units_Z 40
_cell_length_a 9.065910
_cell_length_b 9.065910
_cell_length_c 20.334230
_cell_angle_alpha 90.000000
_cell_angle_beta 90.000000
_cell_angle_gamma 90.000000
_cell_volume 1671.285088
_symmetry_space_group_name_H-M "P 43 2 2"
_symmetry_group_IT_number 95
_symmetry_cell_setting 'tetragonal'
loop_
_space_group_symop_operation_xyz
x,y,z
-y,x,3/4+z
-x,-y,1/2+z
y,-x,1/4+z
x,-y,1/2-z
-x,y,-z
y,x,1/4-z
-y,-x,3/4-z
loop_
_atom_site_type_symbol
_atom_site_label
_atom_site_fract_x
_atom_site_fract_y
_atom_site_fract_z
Si Si1 0.648996 0.975437 0.347394
Si Si2 0.394914 0.500000 0.750000
Si Si3 0.400994 0.246388 0.188721
Si Si4 0.329370 0.866871 0.506355
Si Si5 0.037305 0.895384 0.689856
Si Si6 0.689421 0.310580 0.375000
O O1 0.497112 0.897412 0.327050
O O2 0.681211 0.938286 0.423113
O O3 0.786847 0.900658 0.311475
O O4 0.664415 0.150564 0.342271
O O5 0.491672 0.628760 0.716976
O O6 0.318595 0.573717 0.814183
O O7 0.315693 0.315693 0.125000
O O8 0.275674 0.229032 0.243836
O O9 0.500000 0.823416 0.500000
O O10 0.269799 0.983252 0.453494
O O11 0.989804 0.000000 0.750000
O O12 0.964366 0.964366 0.625000
#
# Coordination Sequence:
#
# PCOD9550696 Si02
#       6
#     8   4   8   8   8   4
#     4  12  28  52  80 119 170 216 286 351 420 513
#     4  12  28  52  84 116 162 216 280 348 416 510
#     4  12  25  51  77 115 166 211 275 344 417 505
#     4  12  26  51  77 115 165 211 276 343 422 505
#     4  12  26  52  77 114 162 210 272 347 410 500
#     4  12  30  54  84 124 164 228 288 356 440 504
#
# _framework density 23.933679999999999
#
# number of rings (size 3 to 8) (size 9 to 14) (size 15 to 20)
#    0.000    0.000    7.000    0.600    7.000    0.000 
#    3.600    0.000    0.000    0.000    0.000    0.000 
#    0.000    0.000    0.000    0.000    0.000    0.000 
#
# Total GULP energy -223939.287975 kJ/mol
# GULP energy per Si atom -5598.482199 kJ/mol
# Density = 2.387921 g / cm^3
# Si number density = 23.933680 Si / 1000 Ang^3
#
#
#
# Elastic Constant Matrix: (Units=GPa)
#
#
# Indices 1 2 3 4 5 6 
#
# 1 105.6919 72.0870 29.5870 0.0000 0.0000 0.0000
# 2 72.0870 105.6926 29.5873 0.0000 0.0000 0.0000
# 3 29.5870 29.5873 115.4499 0.0000 0.0000 0.0000
# 4 0.0000 0.0000 0.0000 34.2738 0.0000 0.0000
# 5 0.0000 0.0000 0.0000 0.0000 34.2735 0.0000
# 6 0.0000 0.0000 0.0000 0.0000 0.0000 37.1497
#
#
#
# Elastic Compliance Matrix: (Units=1/GPa)
#
#
# Indices 1 2 3 4 5 6 
#
# 1 0.017953 -0.011804 -0.001576 0.000000 0.000000 0.000000
# 2 -0.011804 0.017953 -0.001576 0.000000 0.000000 0.000000
# 3 -0.001576 -0.001576 0.009470 0.000000 0.000000 0.000000
# 4 0.000000 0.000000 0.000000 0.029177 0.000000 0.000000
# 5 0.000000 0.000000 0.000000 0.000000 0.029177 0.000000
# 6 0.000000 0.000000 0.000000 0.000000 0.000000 0.026918
#
#
# Mechanical properties :
#
#
# Convention : Reuss Voigt Hill
#
# Bulk Modulus (GPa) = 64.66356 65.48412 65.07384
# Shear Modulus (GPa) = 30.17232 34.17760 32.17496
#
# Velocity S-wave (km/s) = 3.55443 3.78301 3.67050
# Velocity P-wave (km/s) = 6.62735 6.81921 6.72396
#
# Compressibility (1/GPa) = 0.01546466
#
# Stress axis : x y z
#
# Youngs Moduli (GPa) = 55.69972 55.70002 105.60174
#
# Poissons Ratio (x) = 0.65747 0.16642
# Poissons Ratio (y) = 0.65747 0.16643
# Poissons Ratio (z) = 0.08778 0.08778
#
# Static dielectric constant tensor:
#      x y z
#    x 1.924280 0.000000 0.000000 
#    y 0.000000 1.924280 0.000000 
#    z 0.000000 0.000000 1.980260 
# 
# From -- ./inp_files/6892.got.cif
#   From: 2010.05.17/outbox.cif.g08.bks.cpg/sg95_4_cif.got.tgz:6892.got - 2010.06.03 19:46:49.
