data_PCOD9550940
_publ_section_title
;
Structure prediction by ZEFSAII (Michael W. Deem and Ramdas Pophale) SiO2 
 PCOD9550940
Probable space group: P 43 21 2
;
_chemical_formula_sum "Si O2"
_cell_formula_units_Z 40
_cell_length_a 19.937751
_cell_length_b 19.937751
_cell_length_c 4.874094
_cell_angle_alpha 90.000000
_cell_angle_beta 90.000000
_cell_angle_gamma 90.000000
_cell_volume 1937.520188
_symmetry_space_group_name_H-M "P 43 21 2"
_symmetry_group_IT_number 96
_symmetry_cell_setting 'tetragonal'
loop_
_space_group_symop_operation_xyz
x,y,z
1/2-y,1/2+x,3/4+z
-x,-y,1/2+z
1/2+y,1/2-x,1/4+z
1/2+x,1/2-y,1/4-z
1/2-x,1/2+y,3/4-z
y,x,-z
-y,-x,1/2-z
loop_
_atom_site_type_symbol
_atom_site_label
_atom_site_fract_x
_atom_site_fract_y
_atom_site_fract_z
Si Si1 0.239409 0.469104 0.071734
Si Si2 0.412460 0.951446 0.608128
Si Si3 0.089768 0.310204 0.928465
Si Si4 0.716764 0.823479 0.069024
Si Si5 0.288195 0.396453 0.552599
O O1 0.222514 0.529554 0.856391
O O2 0.274194 0.416925 0.864691
O O3 0.166082 0.451268 0.195204
O O4 0.283216 0.460661 0.347831
O O5 0.471531 0.929248 0.411129
O O6 0.419749 0.891072 0.830748
O O7 0.110564 0.288402 0.624625
O O8 0.153498 0.291990 0.118717
O O9 0.657206 0.771180 0.008640
O O10 0.785139 0.785139 0.000000
O O11 0.356755 0.356755 0.500000
#
# Coordination Sequence:
#
# PCOD9550940 Si02
#       5
#     8   8   8   8   8
#     4  11  22  38  55  81 111 146 193 240 276 321
#     4  10  22  34  49  72 108 156 201 234 268 306
#     4  11  22  38  55  81 111 146 193 240 276 321
#     4  11  21  37  57  79 109 147 190 230 288 338
#     4  11  21  37  57  79 109 147 190 230 288 338
#
# _framework density 20.644945
#
# number of rings (size 3 to 8) (size 9 to 14) (size 15 to 20)
#    0.000    1.200    4.000    2.400    0.000    9.600 
#    0.000    0.000    0.000    0.000    0.000    0.000 
#    0.000   44.800    0.000    0.000    0.000    0.000 
#
# Total GULP energy -222784.656499 kJ/mol
# GULP energy per Si atom -5569.616412 kJ/mol
# Density = 2.059796 g / cm^3
# Si number density = 20.644945 Si / 1000 Ang^3
#
#
#
# Elastic Constant Matrix: (Units=GPa)
#
#
# Indices 1 2 3 4 5 6 
#
# 1 34.7979 17.2965 12.1972 0.0000 0.0000 0.0000
# 2 17.2965 34.7979 12.1972 0.0000 0.0000 0.0000
# 3 12.1972 12.1972 81.4835 0.0000 0.0000 0.0000
# 4 0.0000 0.0000 0.0000 14.4612 0.0000 0.0000
# 5 0.0000 0.0000 0.0000 0.0000 14.4612 0.0000
# 6 0.0000 0.0000 0.0000 0.0000 0.0000 29.6875
#
#
#
# Elastic Compliance Matrix: (Units=1/GPa)
#
#
# Indices 1 2 3 4 5 6 
#
# 1 0.038890 -0.018248 -0.003090 0.000000 0.000000 0.000000
# 2 -0.018248 0.038890 -0.003090 0.000000 0.000000 0.000000
# 3 -0.003090 -0.003090 0.013197 0.000000 0.000000 0.000000
# 4 0.000000 0.000000 0.000000 0.069150 0.000000 0.000000
# 5 0.000000 0.000000 0.000000 0.000000 0.069150 0.000000
# 6 0.000000 0.000000 0.000000 0.000000 0.000000 0.033684
#
#
# Mechanical properties :
#
#
# Convention : Reuss Voigt Hill
#
# Bulk Modulus (GPa) = 23.73987 26.05122 24.89554
# Shear Modulus (GPa) = 15.34404 19.01458 17.17931
#
# Velocity S-wave (km/s) = 2.72919 3.03814 2.88780
# Velocity P-wave (km/s) = 4.63200 4.99531 4.81708
#
# Compressibility (1/GPa) = 0.04212324
#
# Stress axis : x y z
#
# Youngs Moduli (GPa) = 25.71327 25.71327 75.77194
#
# Poissons Ratio (x) = 0.46920 0.23414
# Poissons Ratio (y) = 0.46920 0.23414
# Poissons Ratio (z) = 0.07945 0.07945
#
# Static dielectric constant tensor:
#      x y z
#    x 1.799820 0.000000 0.000000 
#    y 0.000000 1.799820 0.000000 
#    z 0.000000 0.000000 1.759330 
# 
# From -- ./inp_files/393.got.cif
#   From: 2010.05.17/outbox.cif.g08.bks.cpg/sg96_1_cif.got.tgz:393.got - 2010.06.03 19:52:08.
