data_PCOD9550083
_publ_section_title
;
Structure prediction by ZEFSAII (Michael W. Deem and Ramdas Pophale) SiO2 
 PCOD9550083
Probable space group: P 42 21 2
;
_chemical_formula_sum "Si O2"
_cell_formula_units_Z 22
_cell_length_a 8.452917
_cell_length_b 8.452917
_cell_length_c 11.369962
_cell_angle_alpha 90.000000
_cell_angle_beta 90.000000
_cell_angle_gamma 90.000000
_cell_volume 812.404317
_symmetry_space_group_name_H-M "P 42 21 2"
_symmetry_group_IT_number 94
_symmetry_cell_setting 'tetragonal'
loop_
_space_group_symop_operation_xyz
x,y,z
1/2-y,1/2+x,1/2+z
-x,-y,z
1/2+y,1/2-x,1/2+z
1/2+x,1/2-y,1/2-z
1/2-x,1/2+y,1/2-z
y,x,-z
-y,-x,-z
loop_
_atom_site_type_symbol
_atom_site_label
_atom_site_fract_x
_atom_site_fract_y
_atom_site_fract_z
Si Si1 0.000000 0.000000 0.000000
Si Si2 0.783367 0.011067 0.409703
Si Si3 0.166481 0.189413 0.813401
Si Si4 0.500000 0.000000 0.573379
O O1 0.045656 0.132460 0.096753
O O2 0.894988 0.105013 0.500000
O O3 0.722004 0.150049 0.325366
O O4 0.850493 0.884123 0.318596
O O5 0.640965 0.943235 0.487273
O O6 0.074182 0.349137 0.857306
#
# Coordination Sequence:
#
# PCOD9550083 Si02
#       4
#     2   8   8   4
#     4  12  24  44  58 108 142 178 232 298 344 412
#     4  10  23  44  66 106 131 185 238 278 352 422
#     4  11  24  41  70  96 143 177 232 291 344 416
#     4  10  20  44  68  96 132 188 230 272 362 412
#
# _framework density 27.080113999999998
#
# number of rings (size 3 to 8) (size 9 to 14) (size 15 to 20)
#    0.000    1.455    5.455    1.091    5.091    5.818 
#    0.000    4.545    0.000    0.000    0.000    0.000 
#    0.000    0.000    0.000    0.000    0.000    0.000 
#
# Total GULP energy -123077.191455 kJ/mol
# GULP energy per Si atom -5594.417793 kJ/mol
# Density = 2.701848 g / cm^3
# Si number density = 27.080114 Si / 1000 Ang^3
#
#
#
# Elastic Constant Matrix: (Units=GPa)
#
#
# Indices 1 2 3 4 5 6 
#
# 1 80.8943 54.5628 48.5117 0.0000 0.0000 0.0000
# 2 54.5628 80.8936 48.5103 0.0000 0.0000 0.0000
# 3 48.5117 48.5103 180.4240 0.0000 0.0000 0.0000
# 4 0.0000 0.0000 0.0000 40.7172 0.0000 0.0000
# 5 0.0000 0.0000 0.0000 0.0000 40.7179 0.0000
# 6 0.0000 0.0000 0.0000 0.0000 0.0000 29.6819
#
#
#
# Elastic Compliance Matrix: (Units=1/GPa)
#
#
# Indices 1 2 3 4 5 6 
#
# 1 0.023561 -0.014417 -0.002459 0.000000 0.000000 0.000000
# 2 -0.014417 0.023561 -0.002458 0.000000 0.000000 0.000000
# 3 -0.002459 -0.002458 0.006864 0.000000 0.000000 0.000000
# 4 0.000000 0.000000 0.000000 0.024560 0.000000 0.000000
# 5 0.000000 0.000000 0.000000 0.000000 0.024559 0.000000
# 6 0.000000 0.000000 0.000000 0.000000 0.000000 0.033691
#
#
# Mechanical properties :
#
#
# Convention : Reuss Voigt Hill
#
# Bulk Modulus (GPa) = 65.28475 71.70908 68.49691
# Shear Modulus (GPa) = 27.69025 34.93186 31.31105
#
# Velocity S-wave (km/s) = 3.20117 3.59548 3.40404
# Velocity P-wave (km/s) = 6.15010 6.61623 6.38741
#
# Compressibility (1/GPa) = 0.01531751
#
# Stress axis : x y z
#
# Youngs Moduli (GPa) = 42.44381 42.44381 145.67758
#
# Poissons Ratio (x) = 0.61193 0.35815
# Poissons Ratio (y) = 0.61193 0.35811
# Poissons Ratio (z) = 0.10435 0.10434
#
# Static dielectric constant tensor:
#      x y z
#    x 2.159910 0.000000 0.000000 
#    y 0.000000 2.159910 0.000000 
#    z 0.000000 0.000000 2.038220 
# 
# From -- ./inp_files/1985.got.cif
#   From: 2010.05.17/outbox.cif.g08.bks.cpg/sg94_1_cif.got.tgz:1985.got - 2010.06.03 19:43:16.
