data_PCOD9550710
_publ_section_title
;
Structure prediction by ZEFSAII (Michael W. Deem and Ramdas Pophale) SiO2 
 PCOD9550710
Probable space group: P 43 21 2
;
_chemical_formula_sum "Si O2"
_cell_formula_units_Z 64
_cell_length_a 14.338926
_cell_length_b 14.338926
_cell_length_c 12.255008
_cell_angle_alpha 90.000000
_cell_angle_beta 90.000000
_cell_angle_gamma 90.000000
_cell_volume 2519.688455
_symmetry_space_group_name_H-M "P 43 21 2"
_symmetry_group_IT_number 96
_symmetry_cell_setting 'tetragonal'
loop_
_space_group_symop_operation_xyz
x,y,z
1/2-y,1/2+x,3/4+z
-x,-y,1/2+z
1/2+y,1/2-x,1/4+z
1/2+x,1/2-y,1/4-z
1/2-x,1/2+y,3/4-z
y,x,-z
-y,-x,1/2-z
loop_
_atom_site_type_symbol
_atom_site_label
_atom_site_fract_x
_atom_site_fract_y
_atom_site_fract_z
Si Si1 0.591248 0.051304 0.764905
Si Si2 0.649763 0.200739 0.113150
Si Si3 0.368996 0.142368 0.284811
Si Si4 0.669375 0.009507 0.182398
Si Si5 0.085341 0.790965 0.200776
Si Si6 0.356142 0.344676 0.230784
Si Si7 0.524184 0.373784 0.849706
Si Si8 0.397547 0.662806 0.957378
O O1 0.617368 0.110791 0.659697
O O2 0.515887 0.086878 0.848691
O O3 0.686980 0.062999 0.832147
O O4 0.582624 0.944988 0.726303
O O5 0.562487 0.178928 0.032668
O O6 0.750430 0.180004 0.056215
O O7 0.646855 0.313557 0.129538
O O8 0.655808 0.120406 0.207141
O O9 0.402116 0.244361 0.249873
O O10 0.259003 0.135000 0.264701
O O11 0.761699 0.988034 0.108881
O O12 0.187396 0.812605 0.250000
O O13 0.090956 0.846891 0.088510
O O14 0.009298 0.818737 0.293023
O O15 0.408153 0.416639 0.151707
O O16 0.585242 0.414759 0.750000
O O17 0.577872 0.396120 0.959461
#
# Coordination Sequence:
#
# PCOD9550710 Si02
#       8
#     8   8   8   8   8   8   8   8
#     4  11  20  30  46  71 100 138 164 198 245 306
#     4   9  18  30  45  69 101 133 161 201 241 299
#     4  10  21  33  47  71 108 134 166 200 253 307
#     4  10  18  27  44  68  97 128 165 196 240 296
#     4  11  19  29  47  71 103 130 157 194 256 306
#     4  10  18  31  44  73 103 130 158 195 251 304
#     4  10  17  26  47  70  99 124 158 198 245 299
#     4   9  19  32  47  75 102 130 157 201 253 304
#
# _framework density 25.399967
#
# number of rings (size 3 to 8) (size 9 to 14) (size 15 to 20)
#    0.000    2.000    3.750    1.500    3.500    0.500 
#    0.000    0.000    0.000    3.000    0.000    0.000 
#    0.000    0.000    0.000    0.000    0.000    0.000 
#
# Total GULP energy -356524.965732 kJ/mol
# GULP energy per Si atom -5570.702590 kJ/mol
# Density = 2.534216 g / cm^3
# Si number density = 25.399967 Si / 1000 Ang^3
#
#
#
# Elastic Constant Matrix: (Units=GPa)
#
#
# Indices 1 2 3 4 5 6 
#
# 1 51.1597 66.2109 12.5908 0.0000 0.0000 0.0000
# 2 66.2109 51.1627 12.5911 0.0000 0.0000 0.0000
# 3 12.5908 12.5911 39.3038 0.0000 0.0000 0.0000
# 4 0.0000 0.0000 0.0000 12.5317 0.0000 0.0000
# 5 0.0000 0.0000 0.0000 0.0000 12.5313 0.0000
# 6 0.0000 0.0000 0.0000 0.0000 0.0000 18.7893
#
#
#
# Elastic Compliance Matrix: (Units=1/GPa)
#
#
# Indices 1 2 3 4 5 6 
#
# 1 -0.028650 0.037798 -0.002931 0.000000 0.000000 0.000000
# 2 0.037798 -0.028648 -0.002931 0.000000 0.000000 0.000000
# 3 -0.002931 -0.002931 0.027321 0.000000 0.000000 0.000000
# 4 0.000000 0.000000 0.000000 0.079798 0.000000 0.000000
# 5 0.000000 0.000000 0.000000 0.000000 0.079800 0.000000
# 6 0.000000 0.000000 0.000000 0.000000 0.000000 0.053222
#
#
# Mechanical properties :
#
#
# Convention : Reuss Voigt Hill
#
# Bulk Modulus (GPa) = 29.50300 36.04577 32.77439
# Shear Modulus (GPa) = 38.38217 12.11933 25.25075
#
# Velocity S-wave (km/s) = 3.89152 2.18672 3.15640
# Velocity P-wave (km/s) = 5.64203 4.53847 5.12007
#
# Compressibility (1/GPa) = 0.03389486
#
# Stress axis : x y z
#
# Youngs Moduli (GPa) = -34.90425 -34.90639 36.60241
#
# Poissons Ratio (x) = 1.31938 0.10727
# Poissons Ratio (y) = 1.31930 0.10728
# Poissons Ratio (z) = -0.10229 -0.10231
#
# Static dielectric constant tensor:
#      x y z
#    x 2.077130 0.000000 0.000000 
#    y 0.000000 2.077130 0.000000 
#    z 0.000000 0.000000 2.280980 
# 
# From -- ./inp_files/3230.got.cif
#   From: 2010.05.17/outbox.cif.g08.bks.cpg/sg96_2_cif.got.tgz:3230.got - 2010.06.03 19:52:08.
