data_PCOD9550201
_publ_section_title
;
Structure prediction by ZEFSAII (Michael W. Deem and Ramdas Pophale) SiO2 
 PCOD9550201
Probable space group: P 42 21 2
;
_chemical_formula_sum "Si O2"
_cell_formula_units_Z 22
_cell_length_a 10.712319
_cell_length_b 10.712319
_cell_length_c 7.739160
_cell_angle_alpha 90.000000
_cell_angle_beta 90.000000
_cell_angle_gamma 90.000000
_cell_volume 888.097851
_symmetry_space_group_name_H-M "P 42 21 2"
_symmetry_group_IT_number 94
_symmetry_cell_setting 'tetragonal'
loop_
_space_group_symop_operation_xyz
x,y,z
1/2-y,1/2+x,1/2+z
-x,-y,z
1/2+y,1/2-x,1/2+z
1/2+x,1/2-y,1/2-z
1/2-x,1/2+y,1/2-z
y,x,-z
-y,-x,-z
loop_
_atom_site_type_symbol
_atom_site_label
_atom_site_fract_x
_atom_site_fract_y
_atom_site_fract_z
Si Si1 0.000000 0.000000 0.000000
Si Si2 0.897749 0.138470 0.703417
Si Si3 0.317243 0.129582 0.252719
Si Si4 0.000000 0.500000 0.997545
O O1 0.968243 0.106361 0.146248
O O2 0.898649 0.101352 0.500000
O O3 0.773246 0.220073 0.736711
O O4 0.025773 0.210800 0.741149
O O5 0.409092 0.096681 0.408703
O O6 0.410568 0.096728 0.098017
#
# Coordination Sequence:
#
# PCOD9550201 Si02
#       4
#     2   8   8   4
#     4  12  30  52  76 122 166 250 282 360 424 542
#     4  12  27  51  83 124 176 226 298 361 448 530
#     4  11  24  47  77 120 162 229 283 370 429 530
#     4  10  22  42  74 108 164 220 294 348 438 506
#
# _framework density 24.772046
#
# number of rings (size 3 to 8) (size 9 to 14) (size 15 to 20)
#    0.000    0.727    3.636    2.727    2.545    5.818 
#   13.091    0.000    0.000    0.000    0.000    0.000 
#    0.000    0.000    0.000    0.000    0.000    0.000 
#
# Total GULP energy -122574.108607 kJ/mol
# GULP energy per Si atom -5571.550391 kJ/mol
# Density = 2.471566 g / cm^3
# Si number density = 24.772046 Si / 1000 Ang^3
#
#
#
# Elastic Constant Matrix: (Units=GPa)
#
#
# Indices 1 2 3 4 5 6 
#
# 1 139.9694 61.5482 39.8811 0.0000 0.0000 0.0000
# 2 61.5482 139.9694 39.8811 0.0000 0.0000 0.0000
# 3 39.8811 39.8811 154.6077 0.0000 0.0000 0.0000
# 4 0.0000 0.0000 0.0000 25.6098 0.0000 0.0000
# 5 0.0000 0.0000 0.0000 0.0000 25.6104 0.0000
# 6 0.0000 0.0000 0.0000 0.0000 0.0000 55.8996
#
#
#
# Elastic Compliance Matrix: (Units=1/GPa)
#
#
# Indices 1 2 3 4 5 6 
#
# 1 0.009139 -0.003613 -0.001426 0.000000 0.000000 0.000000
# 2 -0.003613 0.009139 -0.001426 0.000000 0.000000 0.000000
# 3 -0.001426 -0.001426 0.007203 0.000000 0.000000 0.000000
# 4 0.000000 0.000000 0.000000 0.039048 0.000000 0.000000
# 5 0.000000 0.000000 0.000000 0.000000 0.039047 0.000000
# 6 0.000000 0.000000 0.000000 0.000000 0.000000 0.017889
#
#
# Mechanical properties :
#
#
# Convention : Reuss Voigt Hill
#
# Bulk Modulus (GPa) = 79.65398 79.68524 79.66961
# Shear Modulus (GPa) = 36.08094 40.97303 38.52699
#
# Velocity S-wave (km/s) = 3.82058 4.07136 3.94796
# Velocity P-wave (km/s) = 7.18937 7.37146 7.28098
#
# Compressibility (1/GPa) = 0.01255430
#
# Stress axis : x y z
#
# Youngs Moduli (GPa) = 109.41960 109.41960 138.82248
#
# Poissons Ratio (x) = 0.39528 0.19790
# Poissons Ratio (y) = 0.39528 0.19790
# Poissons Ratio (z) = 0.15599 0.15599
#
# Static dielectric constant tensor:
#      x y z
#    x 1.989830 0.000000 0.000000 
#    y 0.000000 1.989830 0.000000 
#    z 0.000000 0.000000 2.076350 
# 
# From -- ./inp_files/922.got.cif
#   From: 2010.05.17/outbox.cif.g08.bks.cpg/sg94_1_cif.got.tgz:922.got - 2010.06.03 19:43:16.
