data_PCOD9550816
_publ_section_title
;
Structure prediction by ZEFSAII (Michael W. Deem and Ramdas Pophale) SiO2 
 PCOD9550816
Probable space group: P 43 21 2
;
_chemical_formula_sum "Si O2"
_cell_formula_units_Z 44
_cell_length_a 10.214040
_cell_length_b 10.214040
_cell_length_c 16.886518
_cell_angle_alpha 90.000000
_cell_angle_beta 90.000000
_cell_angle_gamma 90.000000
_cell_volume 1761.713230
_symmetry_space_group_name_H-M "P 43 21 2"
_symmetry_group_IT_number 96
_symmetry_cell_setting 'tetragonal'
loop_
_space_group_symop_operation_xyz
x,y,z
1/2-y,1/2+x,3/4+z
-x,-y,1/2+z
1/2+y,1/2-x,1/4+z
1/2+x,1/2-y,1/4-z
1/2-x,1/2+y,3/4-z
y,x,-z
-y,-x,1/2-z
loop_
_atom_site_type_symbol
_atom_site_label
_atom_site_fract_x
_atom_site_fract_y
_atom_site_fract_z
Si Si1 0.489801 0.683660 0.395152
Si Si2 0.321460 0.321460 0.500000
Si Si3 0.643539 0.122826 0.271884
Si Si4 0.186913 0.773231 0.085510
Si Si5 0.052642 0.783501 0.569274
Si Si6 0.017398 0.379314 0.492731
O O1 0.547033 0.737847 0.477318
O O2 0.331299 0.694006 0.398952
O O3 0.570988 0.562211 0.358892
O O4 0.528095 0.797277 0.332914
O O5 0.358635 0.358117 0.411069
O O6 0.168269 0.352920 0.501711
O O7 0.590126 0.236362 0.212314
O O8 0.690976 0.121142 0.363431
O O9 0.518763 0.027710 0.270105
O O10 0.066273 0.678184 0.064466
O O11 0.215695 0.861878 0.010559
#
# Coordination Sequence:
#
# PCOD9550816 Si02
#       6
#     8   4   8   8   8   8
#     4   9  19  42  64  87 127 176 219 269 336 391
#     4  10  20  36  66  96 130 166 222 276 320 394
#     4  11  21  38  66  98 131 172 224 275 324 401
#     4   9  21  38  65  93 127 170 219 273 334 396
#     4  11  23  37  67 103 129 169 233 275 326 403
#     4   9  19  38  63  91 120 176 223 263 335 391
#
# _framework density 24.97569
#
# number of rings (size 3 to 8) (size 9 to 14) (size 15 to 20)
#    0.000    2.182    1.818    0.545    2.545    0.000 
#    0.000    0.000   36.000    2.182    0.000    0.000 
#    0.000    0.000    0.000    0.000    0.000    0.000 
#
# Total GULP energy -245273.686421 kJ/mol
# GULP energy per Si atom -5574.401964 kJ/mol
# Density = 2.491884 g / cm^3
# Si number density = 24.975690 Si / 1000 Ang^3
#
#
#
# Elastic Constant Matrix: (Units=GPa)
#
#
# Indices 1 2 3 4 5 6 
#
# 1 41.8002 57.7488 29.9024 0.0000 0.0000 0.0000
# 2 57.7488 41.8002 29.9024 0.0000 0.0000 0.0000
# 3 29.9024 29.9024 193.0188 0.0000 0.0000 0.0000
# 4 0.0000 0.0000 0.0000 34.7238 0.0000 0.0000
# 5 0.0000 0.0000 0.0000 0.0000 34.7238 0.0000
# 6 0.0000 0.0000 0.0000 0.0000 0.0000 46.5618
#
#
#
# Elastic Compliance Matrix: (Units=1/GPa)
#
#
# Indices 1 2 3 4 5 6 
#
# 1 -0.025813 0.036889 -0.001716 0.000000 0.000000 0.000000
# 2 0.036889 -0.025813 -0.001716 0.000000 0.000000 0.000000
# 3 -0.001716 -0.001716 0.005713 0.000000 0.000000 0.000000
# 4 0.000000 0.000000 0.000000 0.028799 0.000000 0.000000
# 5 0.000000 0.000000 0.000000 0.000000 0.028799 0.000000
# 6 0.000000 0.000000 0.000000 0.000000 0.000000 0.021477
#
#
# Mechanical properties :
#
#
# Convention : Reuss Voigt Hill
#
# Bulk Modulus (GPa) = 47.61644 56.85850 52.23747
# Shear Modulus (GPa) = -186.90459 33.80625 -76.54917
#
# Velocity S-wave (km/s) = -8.66008 3.68308 -5.54220
# Velocity P-wave (km/s) = 8.99386 6.39544 4.47146
#
# Compressibility (1/GPa) = 0.02100115
#
# Stress axis : x y z
#
# Youngs Moduli (GPa) = -38.74092 -38.74092 175.05462
#
# Poissons Ratio (x) = 1.42910 0.30038
# Poissons Ratio (y) = 1.42910 0.30038
# Poissons Ratio (z) = -0.06648 -0.06648
#
# Static dielectric constant tensor:
#      x y z
#    x 2.030710 0.000000 0.000000 
#    y 0.000000 2.030710 0.000000 
#    z 0.000000 0.000000 2.043440 
# 
# From -- ./inp_files/3054.got.cif
#   From: 2010.05.17/outbox.cif.g08.bks.cpg/sg96_2_cif.got.tgz:3054.got - 2010.06.03 19:52:08.
