data_PCOD9550820
_publ_section_title
;
Structure prediction by ZEFSAII (Michael W. Deem and Ramdas Pophale) SiO2 
 PCOD9550820
Probable space group: P 43 21 2
;
_chemical_formula_sum "Si O2"
_cell_formula_units_Z 56
_cell_length_a 14.815691
_cell_length_b 14.815691
_cell_length_c 12.270894
_cell_angle_alpha 90.000000
_cell_angle_beta 90.000000
_cell_angle_gamma 90.000000
_cell_volume 2693.518904
_symmetry_space_group_name_H-M "P 43 21 2"
_symmetry_group_IT_number 96
_symmetry_cell_setting 'tetragonal'
loop_
_space_group_symop_operation_xyz
x,y,z
1/2-y,1/2+x,3/4+z
-x,-y,1/2+z
1/2+y,1/2-x,1/4+z
1/2+x,1/2-y,1/4-z
1/2-x,1/2+y,3/4-z
y,x,-z
-y,-x,1/2-z
loop_
_atom_site_type_symbol
_atom_site_label
_atom_site_fract_x
_atom_site_fract_y
_atom_site_fract_z
Si Si1 0.708328 0.268010 0.875766
Si Si2 0.365710 0.915952 0.367719
Si Si3 0.501703 0.613408 0.667557
Si Si4 0.012020 0.678775 0.566068
Si Si5 0.061350 0.648157 0.807021
Si Si6 0.370454 0.115508 0.370642
Si Si7 0.511365 0.342640 0.911335
O O1 0.737637 0.262364 0.750000
O O2 0.688927 0.167584 0.918237
O O3 0.789636 0.323815 0.927032
O O4 0.612650 0.318811 0.876100
O O5 0.470626 0.903737 0.402284
O O6 0.354445 0.907232 0.237661
O O7 0.334551 0.015512 0.395771
O O8 0.428435 0.571566 0.750000
O O9 0.522632 0.715142 0.707509
O O10 0.478695 0.627889 0.538757
O O11 0.583617 0.541973 0.658654
O O12 0.062976 0.655191 0.676707
O O13 0.050615 0.619254 0.467691
O O14 0.909072 0.648525 0.589632
O O15 0.046894 0.750622 0.844596
#
# Coordination Sequence:
#
# PCOD9550820 Si02
#       7
#     8   8   8   8   8   8   8
#     4   9  20  38  58  88 113 157 212 244 297 384
#     4  10  20  37  61  84 119 161 203 247 307 370
#     4  10  22  41  58  86 122 159 203 256 316 378
#     4  11  22  37  58  94 126 153 201 257 323 371
#     4  10  20  38  61  88 117 161 209 245 303 385
#     4  11  21  36  58  90 127 152 195 265 314 360
#     4   9  20  41  62  82 116 162 213 249 300 378
#
# _framework density 20.790645999999999
#
# number of rings (size 3 to 8) (size 9 to 14) (size 15 to 20)
#    0.000    2.000    0.000    3.857    0.000    2.286 
#   23.143    0.000    0.000    0.000    0.000    0.000 
#    0.000    0.000    0.000    0.000    0.000    0.000 
#
# Total GULP energy -312410.532019 kJ/mol
# GULP energy per Si atom -5578.759500 kJ/mol
# Density = 2.074333 g / cm^3
# Si number density = 20.790646 Si / 1000 Ang^3
#
#
#
# Elastic Constant Matrix: (Units=GPa)
#
#
# Indices 1 2 3 4 5 6 
#
# 1 70.6044 24.4572 9.5608 0.0000 0.0000 0.0000
# 2 24.4572 70.6031 9.5605 0.0000 0.0000 0.0000
# 3 9.5608 9.5605 47.7179 0.0000 0.0000 0.0000
# 4 0.0000 0.0000 0.0000 21.7652 0.0000 0.0000
# 5 0.0000 0.0000 0.0000 0.0000 21.7655 0.0000
# 6 0.0000 0.0000 0.0000 0.0000 0.0000 24.9877
#
#
#
# Elastic Compliance Matrix: (Units=1/GPa)
#
#
# Indices 1 2 3 4 5 6 
#
# 1 0.016316 -0.005354 -0.002196 0.000000 0.000000 0.000000
# 2 -0.005354 0.016316 -0.002196 0.000000 0.000000 0.000000
# 3 -0.002196 -0.002196 0.021837 0.000000 0.000000 0.000000
# 4 0.000000 0.000000 0.000000 0.045945 0.000000 0.000000
# 5 0.000000 0.000000 0.000000 0.000000 0.045944 0.000000
# 6 0.000000 0.000000 0.000000 0.000000 0.000000 0.040020
#
#
# Mechanical properties :
#
#
# Convention : Reuss Voigt Hill
#
# Bulk Modulus (GPa) = 28.59230 30.67581 29.63406
# Shear Modulus (GPa) = 22.98550 23.39348 23.18949
#
# Velocity S-wave (km/s) = 3.32862 3.35803 3.34336
# Velocity P-wave (km/s) = 5.34371 5.46093 5.40264
#
# Compressibility (1/GPa) = 0.03497445
#
# Stress axis : x y z
#
# Youngs Moduli (GPa) = 61.29116 61.29016 45.79485
#
# Poissons Ratio (x) = 0.32817 0.10058
# Poissons Ratio (y) = 0.32818 0.10057
# Poissons Ratio (z) = 0.13461 0.13460
#
# Static dielectric constant tensor:
#      x y z
#    x 1.774360 0.000000 0.000000 
#    y 0.000000 1.774360 0.000000 
#    z 0.000000 0.000000 1.757160 
# 
# From -- ./inp_files/2301.got.cif
#   From: 2010.05.17/outbox.cif.g08.bks.cpg/sg96_2_cif.got.tgz:2301.got - 2010.06.03 19:52:08.
