data_PCOD9550063
_publ_section_title
;
Structure prediction by ZEFSAII (Michael W. Deem and Ramdas Pophale) SiO2 
 PCOD9550063
Probable space group: P 42 21 2
;
_chemical_formula_sum "Si O2"
_cell_formula_units_Z 64
_cell_length_a 11.517583
_cell_length_b 11.517583
_cell_length_c 22.917278
_cell_angle_alpha 90.000000
_cell_angle_beta 90.000000
_cell_angle_gamma 90.000000
_cell_volume 3040.085054
_symmetry_space_group_name_H-M "P 42 21 2"
_symmetry_group_IT_number 94
_symmetry_cell_setting 'tetragonal'
loop_
_space_group_symop_operation_xyz
x,y,z
1/2-y,1/2+x,1/2+z
-x,-y,z
1/2+y,1/2-x,1/2+z
1/2+x,1/2-y,1/2-z
1/2-x,1/2+y,1/2-z
y,x,-z
-y,-x,-z
loop_
_atom_site_type_symbol
_atom_site_label
_atom_site_fract_x
_atom_site_fract_y
_atom_site_fract_z
Si Si1 0.699447 0.130282 0.983665
Si Si2 0.639543 0.984417 0.573863
Si Si3 0.270556 0.621588 0.329012
Si Si4 0.902303 0.912716 0.281786
Si Si5 0.641135 0.913760 0.819216
Si Si6 0.897612 0.668018 0.642670
Si Si7 0.225612 0.613775 0.461609
Si Si8 0.166638 0.497260 0.794924
O O1 0.656276 0.170315 0.921216
O O2 0.826558 0.173443 0.000000
O O3 0.612786 0.184003 0.031118
O O4 0.694382 0.993828 0.996419
O O5 0.500000 0.000000 0.569188
O O6 0.685682 0.109929 0.554991
O O7 0.659073 0.952497 0.640308
O O8 0.346820 0.552690 0.281072
O O9 0.331740 0.748902 0.329628
O O10 0.268700 0.577059 0.396180
O O11 0.138365 0.635733 0.304711
O O12 0.789235 0.889119 0.322353
O O13 0.978025 0.796757 0.274221
O O14 0.000000 0.000000 0.305001
O O15 0.533990 0.866554 0.856922
O O16 0.661382 0.051300 0.830546
O O17 0.599900 0.921724 0.751566
O O18 0.312861 0.687140 0.500000
#
# Coordination Sequence:
#
# PCOD9550063 Si02
#       8
#     8   8   8   8   8   8   8   8
#     4  11  24  42  61  91 124 169 212 261 320 382
#     4   9  21  37  65  87 119 163 207 260 309 380
#     4  10  21  41  61  93 125 165 212 265 331 389
#     4  11  23  41  61  94 131 166 207 264 333 389
#     4  10  22  35  64  92 120 164 207 267 317 389
#     4  11  23  38  64  90 127 161 218 264 322 386
#     4  10  22  40  64  90 124 162 216 264 319 379
#     4  10  20  40  62  89 124 159 210 257 324 386
#
# _framework density 21.052040999999999
#
# number of rings (size 3 to 8) (size 9 to 14) (size 15 to 20)
#    0.000    1.750    1.250    2.250    8.750    1.250 
#    6.750    0.000    0.000    0.000    0.000    0.000 
#    0.000    0.000    0.000    0.000    0.000    0.000 
#
# Total GULP energy -356626.432478 kJ/mol
# GULP energy per Si atom -5572.288007 kJ/mol
# Density = 2.100413 g / cm^3
# Si number density = 21.052041 Si / 1000 Ang^3
#
#
#
# Elastic Constant Matrix: (Units=GPa)
#
#
# Indices 1 2 3 4 5 6 
#
# 1 50.6857 14.6813 17.1603 0.0000 0.0000 0.0000
# 2 14.6813 50.6885 17.1629 0.0000 0.0000 0.0000
# 3 17.1603 17.1629 108.7299 0.0000 0.0000 0.0000
# 4 0.0000 0.0000 0.0000 38.5956 0.0000 0.0000
# 5 0.0000 0.0000 0.0000 0.0000 38.5989 0.0000
# 6 0.0000 0.0000 0.0000 0.0000 0.0000 24.9313
#
#
#
# Elastic Compliance Matrix: (Units=1/GPa)
#
#
# Indices 1 2 3 4 5 6 
#
# 1 0.022227 -0.005546 -0.002633 0.000000 0.000000 0.000000
# 2 -0.005546 0.022226 -0.002633 0.000000 0.000000 0.000000
# 3 -0.002633 -0.002633 0.010028 0.000000 0.000000 0.000000
# 4 0.000000 0.000000 0.000000 0.025910 0.000000 0.000000
# 5 0.000000 0.000000 0.000000 0.000000 0.025907 0.000000
# 6 0.000000 0.000000 0.000000 0.000000 0.000000 0.040110
#
#
# Mechanical properties :
#
#
# Convention : Reuss Voigt Hill
#
# Bulk Modulus (GPa) = 30.43424 34.23480 32.33452
# Shear Modulus (GPa) = 27.93517 31.16513 29.55015
#
# Velocity S-wave (km/s) = 3.64670 3.85175 3.75062
# Velocity P-wave (km/s) = 5.67620 6.00655 5.84371
#
# Compressibility (1/GPa) = 0.03285773
#
# Stress axis : x y z
#
# Youngs Moduli (GPa) = 44.98983 44.99168 99.71876
#
# Poissons Ratio (x) = 0.24954 0.26251
# Poissons Ratio (y) = 0.24953 0.26256
# Poissons Ratio (z) = 0.11844 0.11846
#
# Static dielectric constant tensor:
#      x y z
#    x 1.806860 0.000000 0.000000 
#    y 0.000000 1.806850 0.000000 
#    z 0.000000 0.000000 1.823770 
# 
# From -- ./inp_files/5161.got.cif
#   From: 2010.05.17/outbox.cif.g08.bks.cpg/sg94_3_cif.got.tgz:5161.got - 2010.06.03 19:43:16.
