data_PCOD9550090
_publ_section_title
;
Structure prediction by ZEFSAII (Michael W. Deem and Ramdas Pophale) SiO2 
 PCOD9550090
Probable space group: P 42 21 2
;
_chemical_formula_sum "Si O2"
_cell_formula_units_Z 40
_cell_length_a 8.729735
_cell_length_b 8.729735
_cell_length_c 20.369595
_cell_angle_alpha 90.000000
_cell_angle_beta 90.000000
_cell_angle_gamma 90.000000
_cell_volume 1552.331660
_symmetry_space_group_name_H-M "P 42 21 2"
_symmetry_group_IT_number 94
_symmetry_cell_setting 'tetragonal'
loop_
_space_group_symop_operation_xyz
x,y,z
1/2-y,1/2+x,1/2+z
-x,-y,z
1/2+y,1/2-x,1/2+z
1/2+x,1/2-y,1/2-z
1/2-x,1/2+y,1/2-z
y,x,-z
-y,-x,-z
loop_
_atom_site_type_symbol
_atom_site_label
_atom_site_fract_x
_atom_site_fract_y
_atom_site_fract_z
Si Si1 0.837005 0.073118 0.893001
Si Si2 0.855697 0.101056 0.379050
Si Si3 0.158507 0.579872 0.867938
Si Si4 0.833200 0.418009 0.718365
Si Si5 0.124599 0.381357 0.017064
O O1 0.848042 0.254826 0.899777
O O2 0.789326 0.022552 0.819500
O O3 0.706230 0.996537 0.935723
O O4 0.000000 0.000000 0.909053
O O5 0.742970 0.152105 0.320901
O O6 0.748711 0.031206 0.435596
O O7 0.950621 0.246729 0.406902
O O8 0.000000 0.000000 0.358765
O O9 0.218454 0.605092 0.793189
O O10 0.000000 0.500000 0.853277
O O11 0.000000 0.500000 0.713736
O O12 0.000000 0.500000 0.984406
O O13 0.231529 0.231529 0.000000
#
# Coordination Sequence:
#
# PCOD9550090 Si02
#       5
#     8   8   8   8   8
#     4  11  23  41  63  92 133 175 221 277 342 411
#     4  11  22  39  65  94 129 171 219 279 337 403
#     4  11  22  36  61  96 134 177 222 267 323 399
#     4  10  21  37  58  91 136 181 222 266 321 393
#     4  11  26  49  73  97 128 169 224 292 362 428
#
# _framework density 25.767688
#
# number of rings (size 3 to 8) (size 9 to 14) (size 15 to 20)
#    0.000    1.200    0.000    8.400    0.000    9.600 
#    0.000    2.000    0.000    0.000    0.000    0.000 
#    0.000    0.000    0.000    0.000    0.000    0.000 
#
# Total GULP energy -223450.865434 kJ/mol
# GULP energy per Si atom -5586.271636 kJ/mol
# Density = 2.570904 g / cm^3
# Si number density = 25.767688 Si / 1000 Ang^3
#
#
#
# Elastic Constant Matrix: (Units=GPa)
#
#
# Indices 1 2 3 4 5 6 
#
# 1 160.8280 60.2559 10.0943 0.0000 0.0000 0.0000
# 2 60.2559 160.8280 10.0943 0.0000 0.0000 0.0000
# 3 10.0943 10.0943 40.8207 0.0000 0.0000 0.0000
# 4 0.0000 0.0000 0.0000-2656.6421 0.0000 0.0000
# 5 0.0000 0.0000 0.0000 0.0000-2656.6421 0.0000
# 6 0.0000 0.0000 0.0000 0.0000 0.0000 41.9884
#
#
#
# Elastic Compliance Matrix: (Units=1/GPa)
#
#
# Indices 1 2 3 4 5 6 
#
# 1 0.007285 -0.002658 -0.001144 0.000000 0.000000 0.000000
# 2 -0.002658 0.007285 -0.001144 0.000000 0.000000 0.000000
# 3 -0.001144 -0.001144 0.025063 0.000000 0.000000 0.000000
# 4 0.000000 0.000000 0.000000 -0.000376 0.000000 0.000000
# 5 0.000000 0.000000 0.000000 0.000000 -0.000376 0.000000
# 6 0.000000 0.000000 0.000000 0.000000 0.000000 0.023816
#
#
# Mechanical properties :
#
#
# Convention : Reuss Voigt Hill
#
# Bulk Modulus (GPa) = 33.62327 58.15174 45.88751
# Shear Modulus (GPa) = 60.60313 -1035.45700 -487.42693
#
# Velocity S-wave (km/s) = 4.85490 -20.06777 -13.76854
# Velocity P-wave (km/s) = 6.67111 22.67901 15.32700
#
# Compressibility (1/GPa) = 0.02974131
#
# Stress axis : x y z
#
# Youngs Moduli (GPa) = 137.26107 137.26107 39.89888
#
# Poissons Ratio (x) = 0.36480 0.04566
# Poissons Ratio (y) = 0.36480 0.04566
# Poissons Ratio (z) = 0.15707 0.15707
#
# Static dielectric constant tensor:
#      x y z
#    x 8.291230 0.000000 0.000000 
#    y 0.000000 8.291230 0.000000 
#    z 0.000000 0.000000 2.154180 
# 
# From -- ./inp_files/5259.got.cif
#   From: 2010.05.17/outbox.cif.g08.bks.cpg/sg94_3_cif.got.tgz:5259.got - 2010.06.03 19:43:16.
