data_PCOD9550099
_publ_section_title
;
Structure prediction by ZEFSAII (Michael W. Deem and Ramdas Pophale) SiO2 
 PCOD9550099
Probable space group: P 42 21 2
;
_chemical_formula_sum "Si O2"
_cell_formula_units_Z 56
_cell_length_a 14.650665
_cell_length_b 14.650665
_cell_length_c 13.120620
_cell_angle_alpha 90.000000
_cell_angle_beta 90.000000
_cell_angle_gamma 90.000000
_cell_volume 2816.235920
_symmetry_space_group_name_H-M "P 42 21 2"
_symmetry_group_IT_number 94
_symmetry_cell_setting 'tetragonal'
loop_
_space_group_symop_operation_xyz
x,y,z
1/2-y,1/2+x,1/2+z
-x,-y,z
1/2+y,1/2-x,1/2+z
1/2+x,1/2-y,1/2-z
1/2-x,1/2+y,1/2-z
y,x,-z
-y,-x,-z
loop_
_atom_site_type_symbol
_atom_site_label
_atom_site_fract_x
_atom_site_fract_y
_atom_site_fract_z
Si Si1 0.103373 0.540150 0.577612
Si Si2 0.933602 0.889466 0.383928
Si Si3 0.582924 0.604387 0.794380
Si Si4 0.416293 0.073291 0.154900
Si Si5 0.188430 0.421077 0.247604
Si Si6 0.087267 0.733228 0.194534
Si Si7 0.214320 0.256470 0.382282
O O1 0.109463 0.578671 0.463472
O O2 0.111882 0.616752 0.663956
O O3 0.181313 0.465798 0.603704
O O4 0.000000 0.500000 0.587566
O O5 0.910603 0.910603 0.500000
O O6 0.872097 0.804845 0.353930
O O7 0.041921 0.876565 0.383274
O O8 0.913454 0.973728 0.306397
O O9 0.589050 0.711939 0.799493
O O10 0.656721 0.572911 0.706716
O O11 0.437197 0.170048 0.207456
O O12 0.500000 0.000000 0.162121
O O13 0.337199 0.023130 0.219254
O O14 0.189094 0.358718 0.348964
O O15 0.195665 0.726325 0.178046
O O16 0.240327 0.240327 0.500000
#
# Coordination Sequence:
#
# PCOD9550099 Si02
#       7
#     8   8   8   8   8   8   8
#     4  11  22  36  59  87 120 155 191 239 302 365
#     4  10  21  38  56  83 113 149 204 245 284 336
#     4  10  22  34  58  78 113 156 188 243 286 339
#     4  11  22  36  59  87 120 155 191 239 302 365
#     4  11  20  39  57  87 122 152 195 240 299 359
#     4  11  20  39  57  87 122 152 195 240 299 359
#     4  10  22  37  63  88 115 157 198 248 294 347
#
# _framework density 19.884696999999999
#
# number of rings (size 3 to 8) (size 9 to 14) (size 15 to 20)
#    0.000    1.429    2.857    3.429    0.000    2.286 
#    0.000    2.143    0.000    0.000    0.000   70.000 
#    0.000    0.000    0.000    0.000    0.000    0.000 
#
# Total GULP energy -311794.217416 kJ/mol
# GULP energy per Si atom -5567.753882 kJ/mol
# Density = 1.983944 g / cm^3
# Si number density = 19.884697 Si / 1000 Ang^3
#
#
#
# Elastic Constant Matrix: (Units=GPa)
#
#
# Indices 1 2 3 4 5 6 
#
# 1 77.0683 18.5114 14.9095 0.0000 0.0000 0.0000
# 2 18.5114 77.0683 14.9095 0.0000 0.0000 0.0000
# 3 14.9095 14.9095 71.0673 0.0000 0.0000 0.0000
# 4 0.0000 0.0000 0.0000 31.8188 0.0000 0.0000
# 5 0.0000 0.0000 0.0000 0.0000 31.8188 0.0000
# 6 0.0000 0.0000 0.0000 0.0000 0.0000 27.4872
#
#
#
# Elastic Compliance Matrix: (Units=1/GPa)
#
#
# Indices 1 2 3 4 5 6 
#
# 1 0.014136 -0.002941 -0.002349 0.000000 0.000000 0.000000
# 2 -0.002941 0.014136 -0.002349 0.000000 0.000000 0.000000
# 3 -0.002349 -0.002349 0.015057 0.000000 0.000000 0.000000
# 4 0.000000 0.000000 0.000000 0.031428 0.000000 0.000000
# 5 0.000000 0.000000 0.000000 0.000000 0.031428 0.000000
# 6 0.000000 0.000000 0.000000 0.000000 0.000000 0.036381
#
#
# Mechanical properties :
#
#
# Convention : Reuss Voigt Hill
#
# Bulk Modulus (GPa) = 35.64769 35.76276 35.70523
# Shear Modulus (GPa) = 29.90546 30.01652 29.96099
#
# Velocity S-wave (km/s) = 3.88228 3.88948 3.88588
# Velocity P-wave (km/s) = 6.16946 6.18020 6.17483
#
# Compressibility (1/GPa) = 0.02805231
#
# Stress axis : x y z
#
# Youngs Moduli (GPa) = 70.73979 70.73979 66.41583
#
# Poissons Ratio (x) = 0.20805 0.15599
# Poissons Ratio (y) = 0.20805 0.15599
# Poissons Ratio (z) = 0.16615 0.16615
#
# Static dielectric constant tensor:
#      x y z
#    x 1.710740 0.000000 0.000000 
#    y 0.000000 1.710740 0.000000 
#    z 0.000000 0.000000 1.709200 
# 
# From -- ./inp_files/3537.got.cif
#   From: 2010.05.17/outbox.cif.g08.bks.cpg/sg94_2_cif.got.tgz:3537.got - 2010.06.03 19:43:16.
