data_PCOD9550888
_publ_section_title
;
Structure prediction by ZEFSAII (Michael W. Deem and Ramdas Pophale) SiO2 
 PCOD9550888
Probable space group: P 43 21 2
;
_chemical_formula_sum "Si O2"
_cell_formula_units_Z 64
_cell_length_a 12.410161
_cell_length_b 12.410161
_cell_length_c 23.051909
_cell_angle_alpha 90.000000
_cell_angle_beta 90.000000
_cell_angle_gamma 90.000000
_cell_volume 3550.272823
_symmetry_space_group_name_H-M "P 43 21 2"
_symmetry_group_IT_number 96
_symmetry_cell_setting 'tetragonal'
loop_
_space_group_symop_operation_xyz
x,y,z
1/2-y,1/2+x,3/4+z
-x,-y,1/2+z
1/2+y,1/2-x,1/4+z
1/2+x,1/2-y,1/4-z
1/2-x,1/2+y,3/4-z
y,x,-z
-y,-x,1/2-z
loop_
_atom_site_type_symbol
_atom_site_label
_atom_site_fract_x
_atom_site_fract_y
_atom_site_fract_z
Si Si1 0.375619 0.954864 0.857776
Si Si2 0.778285 0.822394 0.566618
Si Si3 0.315600 0.820806 0.578304
Si Si4 0.805611 0.933378 0.917857
Si Si5 0.227006 0.567594 0.199426
Si Si6 0.698476 0.126704 0.481419
Si Si7 0.523632 0.600477 0.799800
Si Si8 0.984882 0.619642 0.172523
O O1 0.356349 0.844318 0.824373
O O2 0.326147 0.938518 0.922018
O O3 0.504132 0.970965 0.859135
O O4 0.324590 0.055327 0.823355
O O5 0.803044 0.803044 0.500000
O O6 0.796357 0.719441 0.606387
O O7 0.855886 0.921084 0.585393
O O8 0.245091 0.740800 0.538357
O O9 0.276201 0.942523 0.569044
O O10 0.870299 0.821053 0.915137
O O11 0.714399 0.949375 0.870257
O O12 0.888735 0.033163 0.915262
O O13 0.754595 0.933070 0.982336
O O14 0.110927 0.621742 0.189152
O O15 0.795855 0.073766 0.517672
O O16 0.592576 0.125453 0.521330
O O17 0.479658 0.520343 0.750000
#
# Coordination Sequence:
#
# PCOD9550888 Si02
#       8
#     8   8   8   8   8   8   8   8
#     4  10  21  38  59  88 121 159 196 251 313 359
#     4  10  21  36  60  91 119 153 199 250 304 368
#     4  10  21  38  63  87 121 159 197 258 306 365
#     4  11  22  40  62  86 120 166 208 253 300 367
#     4  10  22  41  59  88 121 160 210 254 302 368
#     4  11  21  39  60  89 122 153 206 251 304 373
#     4  11  19  36  62  87 115 158 202 247 294 369
#     4  11  24  37  60  91 119 163 202 255 311 363
#
# _framework density 18.026783999999999
#
# number of rings (size 3 to 8) (size 9 to 14) (size 15 to 20)
#    0.000    1.500    3.750    2.250    1.750    1.000 
#    4.500    0.000    0.000    0.000    0.000    0.000 
#    0.000    0.000    0.000    0.000    0.000    0.000 
#
# Total GULP energy -357175.498941 kJ/mol
# GULP energy per Si atom -5580.867171 kJ/mol
# Density = 1.798575 g / cm^3
# Si number density = 18.026784 Si / 1000 Ang^3
#
#
#
# Elastic Constant Matrix: (Units=GPa)
#
#
# Indices 1 2 3 4 5 6 
#
# 1 101.5986 43.0755 26.7196 0.0000 0.0000 0.0000
# 2 43.0755 101.5994 26.7197 0.0000 0.0000 0.0000
# 3 26.7196 26.7197 42.4660 0.0000 0.0000 0.0000
# 4 0.0000 0.0000 0.0000 18.7679 0.0000 0.0000
# 5 0.0000 0.0000 0.0000 0.0000 18.7680 0.0000
# 6 0.0000 0.0000 0.0000 0.0000 0.0000 25.5734
#
#
#
# Elastic Compliance Matrix: (Units=1/GPa)
#
#
# Indices 1 2 3 4 5 6 
#
# 1 0.013046 -0.004041 -0.005666 0.000000 0.000000 0.000000
# 2 -0.004041 0.013046 -0.005666 0.000000 0.000000 0.000000
# 3 -0.005666 -0.005666 0.030678 0.000000 0.000000 0.000000
# 4 0.000000 0.000000 0.000000 0.053282 0.000000 0.000000
# 5 0.000000 0.000000 0.000000 0.000000 0.053282 0.000000
# 6 0.000000 0.000000 0.000000 0.000000 0.000000 0.039103
#
#
# Mechanical properties :
#
#
# Convention : Reuss Voigt Hill
#
# Bulk Modulus (GPa) = 38.42541 48.74374 43.58457
# Shear Modulus (GPa) = 20.67322 22.56513 21.61917
#
# Velocity S-wave (km/s) = 3.39013 3.54185 3.46682
# Velocity P-wave (km/s) = 6.05689 6.62002 6.34471
#
# Compressibility (1/GPa) = 0.02602445
#
# Stress axis : x y z
#
# Youngs Moduli (GPa) = 76.65132 76.65191 32.59640
#
# Poissons Ratio (x) = 0.30976 0.18469
# Poissons Ratio (y) = 0.30976 0.18469
# Poissons Ratio (z) = 0.43430 0.43430
#
# Static dielectric constant tensor:
#      x y z
#    x 1.631880 0.000000 0.000000 
#    y 0.000000 1.631880 0.000000 
#    z 0.000000 0.000000 1.582370 
# 
# From -- ./inp_files/3966.got.cif
#   From: 2010.05.17/outbox.cif.g08.bks.cpg/sg96_2_cif.got.tgz:3966.got - 2010.06.03 19:52:08.
