data_PCOD9550925
_publ_section_title
;
Structure prediction by ZEFSAII (Michael W. Deem and Ramdas Pophale) SiO2 
 PCOD9550925
Probable space group: P 43 21 2
;
_chemical_formula_sum "Si O2"
_cell_formula_units_Z 60
_cell_length_a 11.933800
_cell_length_b 11.933800
_cell_length_c 20.573740
_cell_angle_alpha 90.000000
_cell_angle_beta 90.000000
_cell_angle_gamma 90.000000
_cell_volume 2930.021165
_symmetry_space_group_name_H-M "P 43 21 2"
_symmetry_group_IT_number 96
_symmetry_cell_setting 'tetragonal'
loop_
_space_group_symop_operation_xyz
x,y,z
1/2-y,1/2+x,3/4+z
-x,-y,1/2+z
1/2+y,1/2-x,1/4+z
1/2+x,1/2-y,1/4-z
1/2-x,1/2+y,3/4-z
y,x,-z
-y,-x,1/2-z
loop_
_atom_site_type_symbol
_atom_site_label
_atom_site_fract_x
_atom_site_fract_y
_atom_site_fract_z
Si Si1 0.901516 0.526901 0.186546
Si Si2 0.096977 0.096977 0.500000
Si Si3 0.133036 0.362872 0.816982
Si Si4 0.481023 0.661640 0.016052
Si Si5 0.561582 0.218105 0.644724
Si Si6 0.389665 0.311941 0.823287
Si Si7 0.912238 0.573337 0.749163
Si Si8 0.701996 0.534233 0.530944
O O1 0.864471 0.538951 0.261724
O O2 0.879063 0.428224 0.135832
O O3 0.859608 0.637221 0.148187
O O4 0.034682 0.519314 0.201271
O O5 0.194362 0.110778 0.446130
O O6 0.974849 0.111470 0.468139
O O7 0.065023 0.260797 0.781158
O O8 0.263222 0.349629 0.832128
O O9 0.497216 0.710821 0.088347
O O10 0.382017 0.568966 0.016564
O O11 0.594672 0.594672 0.000000
O O12 0.484968 0.131443 0.685246
O O13 0.379250 0.196832 0.784598
O O14 0.446860 0.294512 0.892363
O O15 0.999644 0.674190 0.758191
O O16 0.644410 0.644410 0.500000
#
# Coordination Sequence:
#
# PCOD9550925 Si02
#       8
#     8   4   8   8   8   8   8   8
#     4  11  23  44  66  99 141 177 231 288 354 425
#     4  10  22  40  66  98 130 180 230 286 344 408
#     4  11  24  44  66 102 139 184 231 292 354 423
#     4  10  22  43  65  99 136 182 233 294 356 414
#     4  10  21  42  65  97 137 174 231 288 350 418
#     4  11  23  41  67  97 137 176 233 286 346 422
#     4  11  22  41  69  97 131 181 227 290 352 423
#     4  11  22  42  67  91 133 178 229 285 349 428
#
# _framework density 20.477668999999999
#
# number of rings (size 3 to 8) (size 9 to 14) (size 15 to 20)
#    0.000    1.333    4.000    1.600    0.000    2.133 
#    1.200    0.000    1.467    0.000    0.000    0.000 
#    0.000    0.000    0.000    0.000    0.000    0.000 
#
# Total GULP energy -334309.786288 kJ/mol
# GULP energy per Si atom -5571.829771 kJ/mol
# Density = 2.043106 g / cm^3
# Si number density = 20.477669 Si / 1000 Ang^3
#
#
#
# Elastic Constant Matrix: (Units=GPa)
#
#
# Indices 1 2 3 4 5 6 
#
# 1 85.8343 26.5021 32.8751 0.0000 0.0000 0.0000
# 2 26.5021 85.8343 32.8751 0.0000 0.0000 0.0000
# 3 32.8751 32.8751 106.0388 0.0000 0.0000 0.0000
# 4 0.0000 0.0000 0.0000 10.3374 0.0000 0.0000
# 5 0.0000 0.0000 0.0000 0.0000 10.3374 0.0000
# 6 0.0000 0.0000 0.0000 0.0000 0.0000 6.1606
#
#
#
# Elastic Compliance Matrix: (Units=1/GPa)
#
#
# Indices 1 2 3 4 5 6 
#
# 1 0.013865 -0.002989 -0.003372 0.000000 0.000000 0.000000
# 2 -0.002989 0.013865 -0.003372 0.000000 0.000000 0.000000
# 3 -0.003372 -0.003372 0.011521 0.000000 0.000000 0.000000
# 4 0.000000 0.000000 0.000000 0.096736 0.000000 0.000000
# 5 0.000000 0.000000 0.000000 0.000000 0.096736 0.000000
# 6 0.000000 0.000000 0.000000 0.000000 0.000000 0.162323
#
#
# Mechanical properties :
#
#
# Convention : Reuss Voigt Hill
#
# Bulk Modulus (GPa) = 50.54319 51.35687 50.95003
# Shear Modulus (GPa) = 11.87348 17.73074 14.80211
#
# Velocity S-wave (km/s) = 2.41057 2.94574 2.69149
# Velocity P-wave (km/s) = 5.69943 6.05836 5.88163
#
# Compressibility (1/GPa) = 0.01978506
#
# Stress axis : x y z
#
# Youngs Moduli (GPa) = 72.12540 72.12540 86.79711
#
# Poissons Ratio (x) = 0.21562 0.29265
# Poissons Ratio (y) = 0.21562 0.29265
# Poissons Ratio (z) = 0.24318 0.24318
#
# Static dielectric constant tensor:
#      x y z
#    x 1.797650 0.000000 0.000000 
#    y 0.000000 1.797650 0.000000 
#    z 0.000000 0.000000 1.773340 
# 
# From -- ./inp_files/3624.got.cif
#   From: 2010.05.17/outbox.cif.g08.bks.cpg/sg96_2_cif.got.tgz:3624.got - 2010.06.03 19:52:08.
