data_PCOD9550795
_publ_section_title
;
Structure prediction by ZEFSAII (Michael W. Deem and Ramdas Pophale) SiO2 
 PCOD9550795
Probable space group: P 43 21 2
;
_chemical_formula_sum "Si O2"
_cell_formula_units_Z 40
_cell_length_a 15.272047
_cell_length_b 15.272047
_cell_length_c 9.011007
_cell_angle_alpha 90.000000
_cell_angle_beta 90.000000
_cell_angle_gamma 90.000000
_cell_volume 2101.685998
_symmetry_space_group_name_H-M "P 43 21 2"
_symmetry_group_IT_number 96
_symmetry_cell_setting 'tetragonal'
loop_
_space_group_symop_operation_xyz
x,y,z
1/2-y,1/2+x,3/4+z
-x,-y,1/2+z
1/2+y,1/2-x,1/4+z
1/2+x,1/2-y,1/4-z
1/2-x,1/2+y,3/4-z
y,x,-z
-y,-x,1/2-z
loop_
_atom_site_type_symbol
_atom_site_label
_atom_site_fract_x
_atom_site_fract_y
_atom_site_fract_z
Si Si1 0.913683 0.006930 0.620838
Si Si2 0.809920 0.043073 0.029609
Si Si3 0.818246 0.331186 0.979846
Si Si4 0.159661 0.159661 0.500000
Si Si5 0.022123 0.721622 0.265839
Si Si6 0.695728 0.695728 0.500000
O O1 0.986384 0.013617 0.750000
O O2 0.917644 0.101921 0.544007
O O3 0.820111 0.993756 0.691150
O O4 0.935997 0.935997 0.500000
O O5 0.793540 0.101039 0.172958
O O6 0.733221 0.051628 0.905810
O O7 0.827482 0.940175 0.055622
O O8 0.731876 0.326678 0.876711
O O9 0.900099 0.304039 0.875956
O O10 0.832405 0.432599 0.025671
O O11 0.801720 0.268181 0.119885
#
# Coordination Sequence:
#
# PCOD9550795 Si02
#       6
#     8   8   8   4   8   4
#     4  10  20  33  58  90 126 154 191 249 315 375
#     4  10  21  37  61  94 125 160 196 252 328 378
#     4  11  24  41  62  89 125 167 216 254 309 366
#     4  10  22  42  65  93 126 168 204 246 320 394
#     4  10  23  43  61  85 123 174 211 253 308 371
#     4  12  24  36  63  95 128 162 200 268 312 374
#
# _framework density 19.032336999999998
#
# number of rings (size 3 to 8) (size 9 to 14) (size 15 to 20)
#    0.000    1.600    3.000    1.200    4.200    1.600 
#    0.000    4.000    0.000    0.000    0.000    0.000 
#    0.000    0.000    0.000    0.000    0.000    0.000 
#
# Total GULP energy -223311.146444 kJ/mol
# GULP energy per Si atom -5582.778661 kJ/mol
# Density = 1.898902 g / cm^3
# Si number density = 19.032337 Si / 1000 Ang^3
#
#
#
# Elastic Constant Matrix: (Units=GPa)
#
#
# Indices 1 2 3 4 5 6 
#
# 1 87.1804 51.8145 63.5177 0.0000 0.0000 0.0000
# 2 51.8145 87.1798 63.5174 0.0000 0.0000 0.0000
# 3 63.5177 63.5174 115.8378 0.0000 0.0000 0.0000
# 4 0.0000 0.0000 0.0000 26.3356 0.0000 0.0000
# 5 0.0000 0.0000 0.0000 0.0000 26.3358 0.0000
# 6 0.0000 0.0000 0.0000 0.0000 0.0000 21.1128
#
#
#
# Elastic Compliance Matrix: (Units=1/GPa)
#
#
# Indices 1 2 3 4 5 6 
#
# 1 0.021349 -0.006927 -0.007908 0.000000 0.000000 0.000000
# 2 -0.006927 0.021349 -0.007908 0.000000 0.000000 0.000000
# 3 -0.007908 -0.007908 0.017305 0.000000 0.000000 0.000000
# 4 0.000000 0.000000 0.000000 0.037971 0.000000 0.000000
# 5 0.000000 0.000000 0.000000 0.000000 0.037971 0.000000
# 6 0.000000 0.000000 0.000000 0.000000 0.000000 0.047365
#
#
# Mechanical properties :
#
#
# Convention : Reuss Voigt Hill
#
# Bulk Modulus (GPa) = 68.88395 71.98856 70.43626
# Shear Modulus (GPa) = 21.40078 22.18009 21.79043
#
# Velocity S-wave (km/s) = 3.35691 3.41748 3.38733
# Velocity P-wave (km/s) = 7.16218 7.31291 7.23794
#
# Compressibility (1/GPa) = 0.01451717
#
# Stress axis : x y z
#
# Youngs Moduli (GPa) = 46.84032 46.84009 57.78556
#
# Poissons Ratio (x) = 0.32446 0.45698
# Poissons Ratio (y) = 0.32446 0.45698
# Poissons Ratio (z) = 0.37042 0.37042
#
# Static dielectric constant tensor:
#      x y z
#    x 1.663860 0.000000 0.000000 
#    y 0.000000 1.663860 0.000000 
#    z 0.000000 0.000000 2.225150 
# 
# From -- ./inp_files/1361.got.cif
#   From: 2010.05.17/outbox.cif.g08.bks.cpg/sg96_1_cif.got.tgz:1361.got - 2010.06.03 19:52:08.
