data_PCOD9550369
_publ_section_title
;
Structure prediction by ZEFSAII (Michael W. Deem and Ramdas Pophale) SiO2 
 PCOD9550369
Probable space group: P 42 21 2
;
_chemical_formula_sum "Si O2"
_cell_formula_units_Z 28
_cell_length_a 8.612547
_cell_length_b 8.612547
_cell_length_c 18.331596
_cell_angle_alpha 90.000000
_cell_angle_beta 90.000000
_cell_angle_gamma 90.000000
_cell_volume 1359.763838
_symmetry_space_group_name_H-M "P 42 21 2"
_symmetry_group_IT_number 94
_symmetry_cell_setting 'tetragonal'
loop_
_space_group_symop_operation_xyz
x,y,z
1/2-y,1/2+x,1/2+z
-x,-y,z
1/2+y,1/2-x,1/2+z
1/2+x,1/2-y,1/2-z
1/2-x,1/2+y,1/2-z
y,x,-z
-y,-x,-z
loop_
_atom_site_type_symbol
_atom_site_label
_atom_site_fract_x
_atom_site_fract_y
_atom_site_fract_z
Si Si1 0.834508 0.560736 0.671435
Si Si2 0.744908 0.001921 0.993558
Si Si3 0.000000 0.500000 0.379430
Si Si4 0.431021 0.670369 0.197488
O O1 0.826355 0.511400 0.587007
O O2 0.828761 0.746177 0.683449
O O3 0.699346 0.478107 0.718106
O O4 0.000000 0.500000 0.699554
O O5 0.843446 0.156555 0.000000
O O6 0.641229 0.996656 0.064596
O O7 0.856476 0.856476 0.000000
O O8 0.995243 0.669298 0.339540
O O9 0.500000 0.500000 0.174958
#
# Coordination Sequence:
#
# PCOD9550369 Si02
#       4
#     8   8   4   8
#     4  12  26  49  74 109 146 195 249 309 377 450
#     4  11  26  45  74 103 146 191 240 301 374 443
#     4  12  26  50  72 112 150 188 254 308 374 454
#     4  12  29  46  77 108 151 194 251 310 376 452
#
# _framework density 20.591812000000001
#
# number of rings (size 3 to 8) (size 9 to 14) (size 15 to 20)
#    0.000    0.286    5.714    1.714   12.000    0.000 
#    0.000    1.429    0.000    0.000    0.000    0.000 
#    0.000    0.000    0.000    0.000    0.000    0.000 
#
# Total GULP energy -156214.021973 kJ/mol
# GULP energy per Si atom -5579.072213 kJ/mol
# Density = 2.054494 g / cm^3
# Si number density = 20.591812 Si / 1000 Ang^3
#
#
#
# Elastic Constant Matrix: (Units=GPa)
#
#
# Indices 1 2 3 4 5 6 
#
# 1 109.1247 73.9914 48.7800 0.0000 0.0000 0.0000
# 2 73.9914 109.1266 48.7815 0.0000 0.0000 0.0000
# 3 48.7800 48.7815 113.3653 0.0000 0.0000 0.0000
# 4 0.0000 0.0000 0.0000 37.3542 0.0000 0.0000
# 5 0.0000 0.0000 0.0000 0.0000 37.3540 0.0000
# 6 0.0000 0.0000 0.0000 0.0000 0.0000 41.3458
#
#
#
# Elastic Compliance Matrix: (Units=1/GPa)
#
#
# Indices 1 2 3 4 5 6 
#
# 1 0.017774 -0.010688 -0.003049 0.000000 0.000000 0.000000
# 2 -0.010688 0.017774 -0.003049 0.000000 0.000000 0.000000
# 3 -0.003049 -0.003049 0.011445 0.000000 0.000000 0.000000
# 4 0.000000 0.000000 0.000000 0.026771 0.000000 0.000000
# 5 0.000000 0.000000 0.000000 0.000000 0.026771 0.000000
# 6 0.000000 0.000000 0.000000 0.000000 0.000000 0.024186
#
#
# Mechanical properties :
#
#
# Convention : Reuss Voigt Hill
#
# Bulk Modulus (GPa) = 74.51399 74.96913 74.74156
# Shear Modulus (GPa) = 30.71898 33.88172 32.30035
#
# Velocity S-wave (km/s) = 3.86658 4.06075 3.96485
# Velocity P-wave (km/s) = 7.49658 7.64673 7.57203
#
# Compressibility (1/GPa) = 0.01342030
#
# Stress axis : x y z
#
# Youngs Moduli (GPa) = 56.26244 56.26283 87.37581
#
# Poissons Ratio (x) = 0.60136 0.26638
# Poissons Ratio (y) = 0.60136 0.26640
# Poissons Ratio (z) = 0.17152 0.17154
#
# Static dielectric constant tensor:
#      x y z
#    x 1.707000 0.000000 0.000000 
#    y 0.000000 1.707000 0.000000 
#    z 0.000000 0.000000 1.801200 
# 
# From -- ./inp_files/3805.got.cif
#   From: 2010.05.17/outbox.cif.g08.bks.cpg/sg94_2_cif.got.tgz:3805.got - 2010.06.03 19:43:16.
