data_PCOD9550170
_publ_section_title
;
Structure prediction by ZEFSAII (Michael W. Deem and Ramdas Pophale) SiO2 
 PCOD9550170
Probable space group: P 42 21 2
;
_chemical_formula_sum "Si O2"
_cell_formula_units_Z 58
_cell_length_a 18.443129
_cell_length_b 18.443129
_cell_length_c 7.740506
_cell_angle_alpha 90.000000
_cell_angle_beta 90.000000
_cell_angle_gamma 90.000000
_cell_volume 2632.925432
_symmetry_space_group_name_H-M "P 42 21 2"
_symmetry_group_IT_number 94
_symmetry_cell_setting 'tetragonal'
loop_
_space_group_symop_operation_xyz
x,y,z
1/2-y,1/2+x,1/2+z
-x,-y,z
1/2+y,1/2-x,1/2+z
1/2+x,1/2-y,1/2-z
1/2-x,1/2+y,1/2-z
y,x,-z
-y,-x,-z
loop_
_atom_site_type_symbol
_atom_site_label
_atom_site_fract_x
_atom_site_fract_y
_atom_site_fract_z
Si Si1 0.500000 0.500000 0.000000
Si Si2 0.847087 0.187845 0.799063
Si Si3 0.457057 0.775358 0.095464
Si Si4 0.193294 0.550678 0.305974
Si Si5 0.895265 0.343110 0.870685
Si Si6 0.301538 0.881808 0.720702
Si Si7 0.845818 0.996789 0.116838
Si Si8 0.381189 0.543298 0.751183
O O1 0.427550 0.500464 0.889123
O O2 0.862928 0.272845 0.773849
O O3 0.775894 0.158900 0.702628
O O4 0.927732 0.154318 0.780717
O O5 0.826536 0.173465 0.000000
O O6 0.409062 0.841687 0.164356
O O7 0.540255 0.790609 0.137291
O O8 0.437418 0.697574 0.176410
O O9 0.445031 0.776761 0.889780
O O10 0.143343 0.478995 0.320640
O O11 0.158693 0.627494 0.352968
O O12 0.263503 0.528552 0.414810
O O13 0.891842 0.321716 0.075068
O O14 0.887813 0.931642 0.208444
O O15 0.876999 0.002910 0.924334
#
# Coordination Sequence:
#
# PCOD9550170 Si02
#       8
#     2   8   8   8   8   8   8   8
#     4  12  28  42  60 100 136 182 228 276 312 384
#     4   9  18  37  64  90 117 170 222 258 319 408
#     4  11  23  40  62  96 134 166 222 284 332 394
#     4  10  22  42  66  97 129 170 226 281 338 399
#     4   9  21  41  64  89 125 176 218 271 344 400
#     4  10  22  39  66  95 127 171 220 278 337 401
#     4  10  23  42  67  92 130 180 224 265 335 411
#     4  11  25  42  64  95 136 178 221 274 326 398
#
# _framework density 22.028727
#
# number of rings (size 3 to 8) (size 9 to 14) (size 15 to 20)
#    0.000    1.931    0.000    3.310    5.793    3.310 
#    3.724    2.759    0.000    0.000    0.000    0.000 
#    0.000    0.000    0.000    0.000    0.000    0.000 
#
# Total GULP energy -324201.374568 kJ/mol
# GULP energy per Si atom -5589.678872 kJ/mol
# Density = 2.197859 g / cm^3
# Si number density = 22.028727 Si / 1000 Ang^3
#
#
#
# Elastic Constant Matrix: (Units=GPa)
#
#
# Indices 1 2 3 4 5 6 
#
# 1 130.4344 82.1892 17.1047 0.0000 0.0000 0.0000
# 2 82.1892 130.4346 17.1048 0.0000 0.0000 0.0000
# 3 17.1047 17.1048 43.3626 0.0000 0.0000 0.0000
# 4 0.0000 0.0000 0.0000 27.3595 0.0000 0.0000
# 5 0.0000 0.0000 0.0000 0.0000 27.3595 0.0000
# 6 0.0000 0.0000 0.0000 0.0000 0.0000 37.2691
#
#
#
# Elastic Compliance Matrix: (Units=1/GPa)
#
#
# Indices 1 2 3 4 5 6 
#
# 1 0.012875 -0.007853 -0.001981 0.000000 0.000000 0.000000
# 2 -0.007853 0.012875 -0.001981 0.000000 0.000000 0.000000
# 3 -0.001981 -0.001981 0.024624 0.000000 0.000000 0.000000
# 4 0.000000 0.000000 0.000000 0.036550 0.000000 0.000000
# 5 0.000000 0.000000 0.000000 0.000000 0.036550 0.000000
# 6 0.000000 0.000000 0.000000 0.000000 0.000000 0.026832
#
#
# Mechanical properties :
#
#
# Convention : Reuss Voigt Hill
#
# Bulk Modulus (GPa) = 37.39130 59.66988 48.53059
# Shear Modulus (GPa) = 27.34483 30.91982 29.13232
#
# Velocity S-wave (km/s) = 3.52707 3.75055 3.64052
# Velocity P-wave (km/s) = 5.79635 6.77507 6.30473
#
# Compressibility (1/GPa) = 0.02674419
#
# Stress axis : x y z
#
# Youngs Moduli (GPa) = 77.67206 77.67208 40.61059
#
# Poissons Ratio (x) = 0.60994 0.08044
# Poissons Ratio (y) = 0.60994 0.08045
# Poissons Ratio (z) = 0.15386 0.15386
#
# Static dielectric constant tensor:
#      x y z
#    x 1.798350 0.000000 0.000000 
#    y 0.000000 1.798350 0.000000 
#    z 0.000000 0.000000 1.872650 
# 
# From -- ./inp_files/1750.got.cif
#   From: 2010.05.17/outbox.cif.g08.bks.cpg/sg94_1_cif.got.tgz:1750.got - 2010.06.03 19:43:16.
