data_PCOD9550076
_publ_section_title
;
Structure prediction by ZEFSAII (Michael W. Deem and Ramdas Pophale) SiO2 
 PCOD9550076
Probable space group: P 42 21 2
;
_chemical_formula_sum "Si O2"
_cell_formula_units_Z 60
_cell_length_a 11.768492
_cell_length_b 11.768492
_cell_length_c 20.236283
_cell_angle_alpha 90.000000
_cell_angle_beta 90.000000
_cell_angle_gamma 90.000000
_cell_volume 2802.672661
_symmetry_space_group_name_H-M "P 42 21 2"
_symmetry_group_IT_number 94
_symmetry_cell_setting 'tetragonal'
loop_
_space_group_symop_operation_xyz
x,y,z
1/2-y,1/2+x,1/2+z
-x,-y,z
1/2+y,1/2-x,1/2+z
1/2+x,1/2-y,1/2-z
1/2-x,1/2+y,1/2-z
y,x,-z
-y,-x,-z
loop_
_atom_site_type_symbol
_atom_site_label
_atom_site_fract_x
_atom_site_fract_y
_atom_site_fract_z
Si Si1 0.943059 0.754305 0.515551
Si Si2 0.781953 0.382471 0.390186
Si Si3 0.912535 0.662324 0.736826
Si Si4 0.622557 0.120718 0.100037
Si Si5 0.346069 0.092774 0.754375
Si Si6 0.271151 0.833101 0.884046
Si Si7 0.623915 0.455503 0.664976
Si Si8 0.309896 0.309896 0.000000
O O1 0.861188 0.861188 0.500000
O O2 0.960168 0.683946 0.448726
O O3 0.876805 0.670216 0.565476
O O4 0.067000 0.796871 0.534249
O O5 0.817045 0.374498 0.312314
O O6 0.855963 0.489611 0.413118
O O7 0.647205 0.407073 0.383940
O O8 0.792894 0.280044 0.441003
O O9 0.888904 0.530178 0.722324
O O10 0.828260 0.716375 0.683273
O O11 0.049381 0.680128 0.727754
O O12 0.590247 0.144337 0.175374
O O13 0.742796 0.181828 0.089006
O O14 0.217920 0.095652 0.783143
O O15 0.197195 0.945074 0.869858
O O16 0.500000 0.500000 0.690998
#
# Coordination Sequence:
#
# PCOD9550076 Si02
#       8
#     8   8   8   8   8   8   8   4
#     4  10  24  45  69  91 130 171 226 281 338 413
#     4  11  24  40  62  95 135 174 222 277 339 402
#     4   9  19  38  61  92 126 170 217 277 334 405
#     4  10  20  42  63  90 128 181 215 265 344 408
#     4   9  19  35  63  91 128 170 218 272 339 394
#     4  10  21  40  64  90 126 176 217 269 349 397
#     4  11  22  40  61  97 136 170 226 282 334 419
#     4  12  27  44  65 104 126 172 234 288 339 404
#
# _framework density 21.408135999999999
#
# number of rings (size 3 to 8) (size 9 to 14) (size 15 to 20)
#    0.000    1.867    1.333    1.800    3.733    1.600 
#    0.000    8.333    0.000    0.000    0.000    0.000 
#    0.000    0.000    0.000    0.000    0.000    0.000 
#
# Total GULP energy -334116.663098 kJ/mol
# GULP energy per Si atom -5568.611052 kJ/mol
# Density = 2.135941 g / cm^3
# Si number density = 21.408136 Si / 1000 Ang^3
#
#
#
# Elastic Constant Matrix: (Units=GPa)
#
#
# Indices 1 2 3 4 5 6 
#
# 1 114.7473 48.8782 29.7586 0.0000 0.0000 0.0000
# 2 48.8782 114.7473 29.7586 0.0000 0.0000 0.0000
# 3 29.7586 29.7586 39.4893 0.0000 0.0000 0.0000
# 4 0.0000 0.0000 0.0000 26.1443 0.0000 0.0000
# 5 0.0000 0.0000 0.0000 0.0000 26.1443 0.0000
# 6 0.0000 0.0000 0.0000 0.0000 0.0000 9.5292
#
#
#
# Elastic Compliance Matrix: (Units=1/GPa)
#
#
# Indices 1 2 3 4 5 6 
#
# 1 0.011800 -0.003381 -0.006345 0.000000 0.000000 0.000000
# 2 -0.003381 0.011800 -0.006345 0.000000 0.000000 0.000000
# 3 -0.006345 -0.006345 0.034886 0.000000 0.000000 0.000000
# 4 0.000000 0.000000 0.000000 0.038249 0.000000 0.000000
# 5 0.000000 0.000000 0.000000 0.000000 0.038249 0.000000
# 6 0.000000 0.000000 0.000000 0.000000 0.000000 0.104941
#
#
# Mechanical properties :
#
#
# Convention : Reuss Voigt Hill
#
# Bulk Modulus (GPa) = 37.95676 53.97498 45.96587
# Shear Modulus (GPa) = 17.80315 23.06945 20.43630
#
# Velocity S-wave (km/s) = 2.88689 3.28625 3.09302
# Velocity P-wave (km/s) = 5.37408 6.29812 5.85436
#
# Compressibility (1/GPa) = 0.02634577
#
# Stress axis : x y z
#
# Youngs Moduli (GPa) = 84.74227 84.74227 28.66484
#
# Poissons Ratio (x) = 0.28653 0.18187
# Poissons Ratio (y) = 0.28653 0.18187
# Poissons Ratio (z) = 0.53767 0.53767
#
# Static dielectric constant tensor:
#      x y z
#    x 1.841040 0.000000 0.000000 
#    y 0.000000 1.841040 0.000000 
#    z 0.000000 0.000000 1.806010 
# 
# From -- ./inp_files/4810.got.cif
#   From: 2010.05.17/outbox.cif.g08.bks.cpg/sg94_3_cif.got.tgz:4810.got - 2010.06.03 19:43:16.
