data_PCOD9550928
_publ_section_title
;
Structure prediction by ZEFSAII (Michael W. Deem and Ramdas Pophale) SiO2 
 PCOD9550928
Probable space group: P 43 21 2
;
_chemical_formula_sum "Si O2"
_cell_formula_units_Z 40
_cell_length_a 7.685814
_cell_length_b 7.685814
_cell_length_c 23.589453
_cell_angle_alpha 90.000000
_cell_angle_beta 90.000000
_cell_angle_gamma 90.000000
_cell_volume 1393.469960
_symmetry_space_group_name_H-M "P 43 21 2"
_symmetry_group_IT_number 96
_symmetry_cell_setting 'tetragonal'
loop_
_space_group_symop_operation_xyz
x,y,z
1/2-y,1/2+x,3/4+z
-x,-y,1/2+z
1/2+y,1/2-x,1/4+z
1/2+x,1/2-y,1/4-z
1/2-x,1/2+y,3/4-z
y,x,-z
-y,-x,1/2-z
loop_
_atom_site_type_symbol
_atom_site_label
_atom_site_fract_x
_atom_site_fract_y
_atom_site_fract_z
Si Si1 0.912122 0.473831 0.462293
Si Si2 0.503562 0.394631 0.359676
Si Si3 0.314675 0.314675 0.500000
Si Si4 0.711104 0.288897 0.250000
Si Si5 0.344667 0.800653 0.968852
Si Si6 0.856244 0.738981 0.887051
O O1 0.005595 0.592600 0.512271
O O2 0.023053 0.425410 0.406503
O O3 0.760582 0.612797 0.459499
O O4 0.840266 0.286454 0.479611
O O5 0.615045 0.394433 0.302828
O O6 0.598758 0.274571 0.407242
O O7 0.309862 0.314801 0.350116
O O8 0.465752 0.592644 0.378137
O O9 0.515559 0.289744 0.510037
O O10 0.241660 0.215649 0.446339
#
# Coordination Sequence:
#
# PCOD9550928 Si02
#       6
#     8   8   4   4   8   8
#     4  11  24  45  73 111 150 202 261 332 397 474
#     4  11  24  45  72 112 154 203 257 318 393 481
#     4   8  18  40  68 102 137 186 243 306 375 452
#     4  12  26  42  68 110 155 198 259 322 391 460
#     4  10  23  45  73 107 150 197 257 325 397 467
#     4  10  21  42  72 102 145 196 253 312 385 461
#
# _framework density 28.705318999999999
#
# number of rings (size 3 to 8) (size 9 to 14) (size 15 to 20)
#    0.000    1.600    0.000    3.600    0.000    6.400 
#    0.000   20.000    0.000    0.000    0.000    0.000 
#    0.000    0.000    0.000    0.000    0.000    0.000 
#
# Total GULP energy -222693.181520 kJ/mol
# GULP energy per Si atom -5567.329538 kJ/mol
# Density = 2.863998 g / cm^3
# Si number density = 28.705319 Si / 1000 Ang^3
#
#
#
# Elastic Constant Matrix: (Units=GPa)
#
#
# Indices 1 2 3 4 5 6 
#
# 1 127.3827 4.3943 54.2556 0.0000 0.0000 0.0000
# 2 4.3943 127.3835 54.2558 0.0000 0.0000 0.0000
# 3 54.2556 54.2558 143.7745 0.0000 0.0000 0.0000
# 4 0.0000 0.0000 0.0000 45.8391 0.0000 0.0000
# 5 0.0000 0.0000 0.0000 0.0000 45.8391 0.0000
# 6 0.0000 0.0000 0.0000 0.0000 0.0000 -22.2193
#
#
#
# Elastic Compliance Matrix: (Units=1/GPa)
#
#
# Indices 1 2 3 4 5 6 
#
# 1 0.009570 0.001439 -0.004155 0.000000 0.000000 0.000000
# 2 0.001439 0.009570 -0.004155 0.000000 0.000000 0.000000
# 3 -0.004155 -0.004155 0.010091 0.000000 0.000000 0.000000
# 4 0.000000 0.000000 0.000000 0.021815 0.000000 0.000000
# 5 0.000000 0.000000 0.000000 0.000000 0.021815 0.000000
# 6 0.000000 0.000000 0.000000 0.000000 0.000000 -0.045006
#
#
# Mechanical properties :
#
#
# Convention : Reuss Voigt Hill
#
# Bulk Modulus (GPa) = 64.55084 69.37245 66.96164
# Shear Modulus (GPa) = 106.92816 32.93410 69.93113
#
# Velocity S-wave (km/s) = 6.10992 3.39088 4.94112
# Velocity P-wave (km/s) = 8.50359 6.28891 7.47868
#
# Compressibility (1/GPa) = 0.01549167
#
# Stress axis : x y z
#
# Youngs Moduli (GPa) = 104.48992 104.49056 99.09790
#
# Poissons Ratio (x) = -0.15041 0.41172
# Poissons Ratio (y) = -0.15041 0.41172
# Poissons Ratio (z) = 0.43413 0.43413
#
# Static dielectric constant tensor:
#      x y z
#    x 2.078500 0.000000 0.000000 
#    y 0.000000 2.078500 0.000000 
#    z 0.000000 0.000000 2.280910 
# 
# From -- ./inp_files/4172.got.cif
#   From: 2010.05.17/outbox.cif.g08.bks.cpg/sg96_3_cif.got.tgz:4172.got - 2010.06.03 19:52:08.
