data_PCOD9550018
_publ_section_title
;
Structure prediction by ZEFSAII (Michael W. Deem and Ramdas Pophale) SiO2 
 PCOD9550018
Probable space group: P 42 21 2
;
_chemical_formula_sum "Si O2"
_cell_formula_units_Z 48
_cell_length_a 9.269118
_cell_length_b 9.269118
_cell_length_c 29.114824
_cell_angle_alpha 90.000000
_cell_angle_beta 90.000000
_cell_angle_gamma 90.000000
_cell_volume 2501.445188
_symmetry_space_group_name_H-M "P 42 21 2"
_symmetry_group_IT_number 94
_symmetry_cell_setting 'tetragonal'
loop_
_space_group_symop_operation_xyz
x,y,z
1/2-y,1/2+x,1/2+z
-x,-y,z
1/2+y,1/2-x,1/2+z
1/2+x,1/2-y,1/2-z
1/2-x,1/2+y,1/2-z
y,x,-z
-y,-x,-z
loop_
_atom_site_type_symbol
_atom_site_label
_atom_site_fract_x
_atom_site_fract_y
_atom_site_fract_z
Si Si1 0.367900 0.756332 0.068488
Si Si2 0.174971 0.510400 0.370018
Si Si3 0.484887 0.833933 0.971181
Si Si4 0.420674 0.346331 0.801192
Si Si5 0.675266 0.669447 0.901812
Si Si6 0.418013 0.846450 0.728911
O O1 0.246396 0.652967 0.049451
O O2 0.494879 0.672501 0.094994
O O3 0.289983 0.872115 0.100350
O O4 0.458019 0.823634 0.025817
O O5 0.211560 0.657862 0.395510
O O6 0.226721 0.521042 0.317924
O O7 0.000000 0.500000 0.367294
O O8 0.611751 0.742432 0.947256
O O9 0.500000 0.000000 0.958374
O O10 0.500000 0.500000 0.801601
O O11 0.401386 0.291967 0.853720
O O12 0.525361 0.243973 0.771836
O O13 0.256280 0.357208 0.779565
O O14 0.500000 0.000000 0.732325
#
# Coordination Sequence:
#
# PCOD9550018 Si02
#       6
#     8   8   8   8   8   8
#     4  10  20  37  59  80 109 149 186 227 282 336
#     4   8  17  36  59  79 104 144 186 223 273 336
#     4  11  22  34  53  85 116 143 183 232 278 330
#     4  11  22  37  57  84 114 146 188 235 286 343
#     4  10  20  36  59  83 107 141 186 233 275 325
#     4  10  21  37  58  81 109 148 190 233 283 339
#
# _framework density 19.188908999999999
#
# number of rings (size 3 to 8) (size 9 to 14) (size 15 to 20)
#    0.000    2.000    0.000    5.500    0.000    3.333 
#    0.000    4.167    0.000    2.000    0.000    0.000 
#    0.000    0.000    0.000    0.000    0.000    0.000 
#
# Total GULP energy -267554.074858 kJ/mol
# GULP energy per Si atom -5574.043226 kJ/mol
# Density = 1.914523 g / cm^3
# Si number density = 19.188909 Si / 1000 Ang^3
#
#
#
# Elastic Constant Matrix: (Units=GPa)
#
#
# Indices 1 2 3 4 5 6 
#
# 1 62.7213 22.2174 30.0079 0.0000 0.0000 0.0000
# 2 22.2174 62.7213 30.0079 0.0000 0.0000 0.0000
# 3 30.0079 30.0079 89.7387 0.0000 0.0000 0.0000
# 4 0.0000 0.0000 0.0000 26.0663 0.0000 0.0000
# 5 0.0000 0.0000 0.0000 0.0000 26.0663 0.0000
# 6 0.0000 0.0000 0.0000 0.0000 0.0000 9.2932
#
#
#
# Elastic Compliance Matrix: (Units=1/GPa)
#
#
# Indices 1 2 3 4 5 6 
#
# 1 0.020052 -0.004637 -0.005155 0.000000 0.000000 0.000000
# 2 -0.004637 0.020052 -0.005155 0.000000 0.000000 0.000000
# 3 -0.005155 -0.005155 0.014591 0.000000 0.000000 0.000000
# 4 0.000000 0.000000 0.000000 0.038364 0.000000 0.000000
# 5 0.000000 0.000000 0.000000 0.000000 0.038364 0.000000
# 6 0.000000 0.000000 0.000000 0.000000 0.000000 0.107605
#
#
# Mechanical properties :
#
#
# Convention : Reuss Voigt Hill
#
# Bulk Modulus (GPa) = 40.31832 42.18307 41.25070
# Shear Modulus (GPa) = 18.03827 21.14837 19.59332
#
# Velocity S-wave (km/s) = 3.06933 3.32341 3.19889
# Velocity P-wave (km/s) = 5.79809 6.06280 5.93192
#
# Compressibility (1/GPa) = 0.02480262
#
# Stress axis : x y z
#
# Youngs Moduli (GPa) = 49.86984 49.86984 68.53582
#
# Poissons Ratio (x) = 0.23123 0.35329
# Poissons Ratio (y) = 0.23123 0.35329
# Poissons Ratio (z) = 0.25707 0.25707
#
# Static dielectric constant tensor:
#      x y z
#    x 1.681890 0.000000 0.000000 
#    y 0.000000 1.681890 0.000000 
#    z 0.000000 0.000000 1.734660 
# 
# From -- ./inp_files/5565.got.cif
#   From: 2010.05.17/outbox.cif.g08.bks.cpg/sg94_3_cif.got.tgz:5565.got - 2010.06.03 19:43:16.
