data_PCOD9550782
_publ_section_title
;
Structure prediction by ZEFSAII (Michael W. Deem and Ramdas Pophale) SiO2 
 PCOD9550782
Probable space group: P 43 21 2
;
_chemical_formula_sum "Si O2"
_cell_formula_units_Z 40
_cell_length_a 8.898528
_cell_length_b 8.898528
_cell_length_c 20.029454
_cell_angle_alpha 90.000000
_cell_angle_beta 90.000000
_cell_angle_gamma 90.000000
_cell_volume 1586.008291
_symmetry_space_group_name_H-M "P 43 21 2"
_symmetry_group_IT_number 96
_symmetry_cell_setting 'tetragonal'
loop_
_space_group_symop_operation_xyz
x,y,z
1/2-y,1/2+x,3/4+z
-x,-y,1/2+z
1/2+y,1/2-x,1/4+z
1/2+x,1/2-y,1/4-z
1/2-x,1/2+y,3/4-z
y,x,-z
-y,-x,1/2-z
loop_
_atom_site_type_symbol
_atom_site_label
_atom_site_fract_x
_atom_site_fract_y
_atom_site_fract_z
Si Si1 0.615849 0.019394 0.667365
Si Si2 0.662114 0.318597 0.998457
Si Si3 0.523846 0.777796 0.385401
Si Si4 0.498930 0.279848 0.740326
Si Si5 0.202325 0.354620 0.938335
O O1 0.737154 0.945820 0.717583
O O2 0.653662 0.962048 0.593064
O O3 0.439002 0.967270 0.673351
O O4 0.595011 0.193102 0.684754
O O5 0.523317 0.257197 0.044344
O O6 0.762910 0.175769 0.979145
O O7 0.570295 0.342031 0.929381
O O8 0.465299 0.800965 0.311141
O O9 0.688063 0.705149 0.380016
O O10 0.551950 0.448051 0.750000
O O11 0.248704 0.248704 0.000000
#
# Coordination Sequence:
#
# PCOD9550782 Si02
#       5
#     8   8   8   8   8
#     4  11  21  41  69  93 128 173 224 265 338 389
#     4  10  22  41  66  93 123 170 217 270 325 392
#     4  10  22  42  66  95 133 163 217 280 328 389
#     4  11  24  41  60  92 139 175 204 266 334 403
#     4  10  19  39  71  93 123 162 223 283 325 381
#
# _framework density 25.220548999999998
#
# number of rings (size 3 to 8) (size 9 to 14) (size 15 to 20)
#    0.000    1.600    4.000    0.000    0.000    5.600 
#    0.000    7.000    0.000    0.000    0.000    0.000 
#    0.000    0.000    0.000    0.000    0.000    0.000 
#
# Total GULP energy -223205.520472 kJ/mol
# GULP energy per Si atom -5580.138012 kJ/mol
# Density = 2.516315 g / cm^3
# Si number density = 25.220549 Si / 1000 Ang^3
#
#
#
# Elastic Constant Matrix: (Units=GPa)
#
#
# Indices 1 2 3 4 5 6 
#
# 1 50.3393 30.5483 17.4691 0.0000 0.0000 0.0000
# 2 30.5483 50.3374 17.4691 0.0000 0.0000 0.0000
# 3 17.4691 17.4691 65.0796 0.0000 0.0000 0.0000
# 4 0.0000 0.0000 0.0000 39.3402 0.0000 0.0000
# 5 0.0000 0.0000 0.0000 0.0000 39.3408 0.0000
# 6 0.0000 0.0000 0.0000 0.0000 0.0000 38.9031
#
#
#
# Elastic Compliance Matrix: (Units=1/GPa)
#
#
# Indices 1 2 3 4 5 6 
#
# 1 0.032257 -0.018273 -0.003754 0.000000 0.000000 0.000000
# 2 -0.018273 0.032258 -0.003754 0.000000 0.000000 0.000000
# 3 -0.003754 -0.003754 0.017381 0.000000 0.000000 0.000000
# 4 0.000000 0.000000 0.000000 0.025419 0.000000 0.000000
# 5 0.000000 0.000000 0.000000 0.000000 0.025419 0.000000
# 6 0.000000 0.000000 0.000000 0.000000 0.000000 0.025705
#
#
# Mechanical properties :
#
#
# Convention : Reuss Voigt Hill
#
# Bulk Modulus (GPa) = 32.96558 32.96993 32.96775
# Shear Modulus (GPa) = 22.71577 30.20148 26.45862
#
# Velocity S-wave (km/s) = 3.00440 3.46424 3.24248
# Velocity P-wave (km/s) = 5.01343 5.39465 5.20753
#
# Compressibility (1/GPa) = 0.03033467
#
# Stress axis : x y z
#
# Youngs Moduli (GPa) = 31.00134 31.00005 57.53402
#
# Poissons Ratio (x) = 0.56646 0.21596
# Poissons Ratio (y) = 0.56649 0.21598
# Poissons Ratio (z) = 0.11637 0.11637
#
# Static dielectric constant tensor:
#      x y z
#    x 1.990270 0.000000 0.000000 
#    y 0.000000 1.990270 0.000000 
#    z 0.000000 0.000000 2.083560 
# 
# From -- ./inp_files/3769.got.cif
#   From: 2010.05.17/outbox.cif.g08.bks.cpg/sg96_2_cif.got.tgz:3769.got - 2010.06.03 19:52:08.
