data_PCOD9550488
_publ_section_title
;
Structure prediction by ZEFSAII (Michael W. Deem and Ramdas Pophale) SiO2 
 PCOD9550488
Probable space group: P 43 2 2
;
_chemical_formula_sum "Si O2"
_cell_formula_units_Z 44
_cell_length_a 15.404167
_cell_length_b 15.404167
_cell_length_c 10.660242
_cell_angle_alpha 90.000000
_cell_angle_beta 90.000000
_cell_angle_gamma 90.000000
_cell_volume 2529.551352
_symmetry_space_group_name_H-M "P 43 2 2"
_symmetry_group_IT_number 95
_symmetry_cell_setting 'tetragonal'
loop_
_space_group_symop_operation_xyz
x,y,z
-y,x,3/4+z
-x,-y,1/2+z
y,-x,1/4+z
x,-y,1/2-z
-x,y,-z
y,x,1/4-z
-y,-x,3/4-z
loop_
_atom_site_type_symbol
_atom_site_label
_atom_site_fract_x
_atom_site_fract_y
_atom_site_fract_z
Si Si1 0.871164 0.547278 0.377304
Si Si2 0.843046 0.904372 0.761294
Si Si3 0.328652 0.021513 0.018574
Si Si4 0.313734 0.192404 0.197447
Si Si5 0.415564 0.000000 0.750000
Si Si6 0.842044 0.014419 0.384806
O O1 0.838406 0.500000 0.250000
O O2 0.805426 0.602064 0.464105
O O3 0.949029 0.613447 0.337425
O O4 0.918798 0.474519 0.459072
O O5 0.877121 0.877121 0.625000
O O6 0.766939 0.836760 0.786768
O O7 0.928939 0.901104 0.844666
O O8 0.806313 0.000000 0.750000
O O9 0.368203 0.029853 0.878368
O O10 0.231891 0.985999 0.989360
O O11 0.325984 0.111546 0.097966
O O12 0.277186 0.277186 0.125000
O O13 0.901482 0.098519 0.375000
O O14 0.799114 0.000000 0.250000
#
# Coordination Sequence:
#
# PCOD9550488 Si02
#       6
#     8   8   8   8   4   8
#     4  10  21  36  58  77 100 140 199 253 295 348
#     4  11  20  31  45  64  95 147 201 241 274 318
#     4  11  20  35  52  77 104 141 202 248 290 339
#     4  11  21  33  56  77 105 140 191 252 299 345
#     4  10  20  36  56  76 100 138 200 250 288 342
#     4  12  24  33  44  67 106 150 194 243 284 328
#
# _framework density 17.394390000000001
#
# number of rings (size 3 to 8) (size 9 to 14) (size 15 to 20)
#    0.000    1.091    6.364    3.273    2.545    0.000 
#    0.000    0.000    0.000    0.000    0.000    0.000 
#    0.000    0.000    0.000    0.000   27.636    8.364 
#
# Total GULP energy -245301.722167 kJ/mol
# GULP energy per Si atom -5575.039140 kJ/mol
# Density = 1.735480 g / cm^3
# Si number density = 17.394390 Si / 1000 Ang^3
#
#
#
# Elastic Constant Matrix: (Units=GPa)
#
#
# Indices 1 2 3 4 5 6 
#
# 1 70.0671 18.5293 32.5455 0.0000 0.0000 0.0000
# 2 18.5293 70.0663 32.5452 0.0000 0.0000 0.0000
# 3 32.5455 32.5452 96.6600 0.0000 0.0000 0.0000
# 4 0.0000 0.0000 0.0000 30.8546 0.0000 0.0000
# 5 0.0000 0.0000 0.0000 0.0000 30.8548 0.0000
# 6 0.0000 0.0000 0.0000 0.0000 0.0000 14.4022
#
#
#
# Elastic Compliance Matrix: (Units=1/GPa)
#
#
# Indices 1 2 3 4 5 6 
#
# 1 0.017200 -0.002203 -0.005049 0.000000 0.000000 0.000000
# 2 -0.002203 0.017200 -0.005049 0.000000 0.000000 0.000000
# 3 -0.005049 -0.005049 0.013746 0.000000 0.000000 0.000000
# 4 0.000000 0.000000 0.000000 0.032410 0.000000 0.000000
# 5 0.000000 0.000000 0.000000 0.000000 0.032410 0.000000
# 6 0.000000 0.000000 0.000000 0.000000 0.000000 0.069434
#
#
# Mechanical properties :
#
#
# Convention : Reuss Voigt Hill
#
# Bulk Modulus (GPa) = 42.47736 44.89258 43.68497
# Shear Modulus (GPa) = 23.27185 25.43386 24.35286
#
# Velocity S-wave (km/s) = 3.66169 3.82800 3.74577
# Velocity P-wave (km/s) = 6.50772 6.73816 6.62395
#
# Compressibility (1/GPa) = 0.02354196
#
# Stress axis : x y z
#
# Youngs Moduli (GPa) = 58.13917 58.13853 72.74918
#
# Poissons Ratio (x) = 0.12809 0.36735
# Poissons Ratio (y) = 0.12809 0.36735
# Poissons Ratio (z) = 0.29357 0.29357
#
# Static dielectric constant tensor:
#      x y z
#    x 1.610360 0.000000 0.000000 
#    y 0.000000 1.610360 0.000000 
#    z 0.000000 0.000000 1.672400 
# 
# From -- ./inp_files/3759.got.cif
#   From: 2010.05.17/outbox.cif.g08.bks.cpg/sg95_2_cif.got.tgz:3759.got - 2010.06.03 19:46:49.
