data_PCOD9550672
_publ_section_title
;
Structure prediction by ZEFSAII (Michael W. Deem and Ramdas Pophale) SiO2 
 PCOD9550672
Probable space group: P 43 2 2
;
_chemical_formula_sum "Si O2"
_cell_formula_units_Z 36
_cell_length_a 12.207508
_cell_length_b 12.207508
_cell_length_c 10.549935
_cell_angle_alpha 90.000000
_cell_angle_beta 90.000000
_cell_angle_gamma 90.000000
_cell_volume 1572.185618
_symmetry_space_group_name_H-M "P 43 2 2"
_symmetry_group_IT_number 95
_symmetry_cell_setting 'tetragonal'
loop_
_space_group_symop_operation_xyz
x,y,z
-y,x,3/4+z
-x,-y,1/2+z
y,-x,1/4+z
x,-y,1/2-z
-x,y,-z
y,x,1/4-z
-y,-x,3/4-z
loop_
_atom_site_type_symbol
_atom_site_label
_atom_site_fract_x
_atom_site_fract_y
_atom_site_fract_z
Si Si1 0.984436 0.609573 0.819810
Si Si2 0.282379 0.638412 0.597408
Si Si3 0.742432 0.897090 0.663661
Si Si4 0.196073 0.393711 0.537339
Si Si5 0.500000 0.578261 0.500000
O O1 0.020104 0.500000 0.750000
O O2 0.923640 0.681197 0.715884
O O3 0.890886 0.579366 0.923192
O O4 0.101485 0.656850 0.869930
O O5 0.195032 0.694824 0.506852
O O6 0.248327 0.507584 0.593704
O O7 0.316627 0.706817 0.726144
O O8 0.393824 0.648362 0.517752
O O9 0.863231 0.863231 0.625000
O O10 0.736916 0.000000 0.750000
O O11 0.493043 0.506958 0.375000
#
# Coordination Sequence:
#
# PCOD9550672 Si02
#       5
#     8   8   8   8   4
#     4  11  23  45  75 110 153 195 276 326 403 475
#     4  12  24  45  77 110 159 208 262 319 405 493
#     4  12  26  48  77 107 143 203 265 336 405 473
#     4  11  25  43  75 114 155 212 256 333 393 495
#     4  12  26  44  68 110 162 216 262 314 400 510
#
# _framework density 22.898059
#
# number of rings (size 3 to 8) (size 9 to 14) (size 15 to 20)
#    0.000    0.444    6.667    2.000    1.556    0.000 
#    6.000    6.667    0.000    0.000    0.000    0.000 
#    0.000    0.000    0.000    0.000    0.000    0.000 
#
# Total GULP energy -200792.462194 kJ/mol
# GULP energy per Si atom -5577.568394 kJ/mol
# Density = 2.284594 g / cm^3
# Si number density = 22.898059 Si / 1000 Ang^3
#
#
#
# Elastic Constant Matrix: (Units=GPa)
#
#
# Indices 1 2 3 4 5 6 
#
# 1 143.4209 53.3773 49.8032 0.0000 0.0000 0.0000
# 2 53.3773 143.4210 49.8035 0.0000 0.0000 0.0000
# 3 49.8032 49.8035 119.5389 0.0000 0.0000 0.0000
# 4 0.0000 0.0000 0.0000 16.9903 0.0000 0.0000
# 5 0.0000 0.0000 0.0000 0.0000 16.9905 0.0000
# 6 0.0000 0.0000 0.0000 0.0000 0.0000 -12.9383
#
#
#
# Elastic Compliance Matrix: (Units=1/GPa)
#
#
# Indices 1 2 3 4 5 6 
#
# 1 0.008772 -0.002333 -0.002683 0.000000 0.000000 0.000000
# 2 -0.002333 0.008772 -0.002683 0.000000 0.000000 0.000000
# 3 -0.002683 -0.002683 0.010601 0.000000 0.000000 0.000000
# 4 0.000000 0.000000 0.000000 0.058857 0.000000 0.000000
# 5 0.000000 0.000000 0.000000 0.000000 0.058857 0.000000
# 6 0.000000 0.000000 0.000000 0.000000 0.000000 -0.077290
#
#
# Mechanical properties :
#
#
# Convention : Reuss Voigt Hill
#
# Bulk Modulus (GPa) = 78.44204 79.14987 78.79595
# Shear Modulus (GPa) = 56.67894 21.10162 38.89028
#
# Velocity S-wave (km/s) = 4.98061 3.03899 4.12565
# Velocity P-wave (km/s) = 8.21016 6.85239 7.56181
#
# Compressibility (1/GPa) = 0.01274827
#
# Stress axis : x y z
#
# Youngs Moduli (GPa) = 113.99330 113.99306 94.33160
#
# Poissons Ratio (x) = 0.26598 0.25307
# Poissons Ratio (y) = 0.26598 0.25307
# Poissons Ratio (z) = 0.30581 0.30582
#
# Static dielectric constant tensor:
#      x y z
#    x 1.875750 0.000000 0.000000 
#    y 0.000000 1.875750 0.000000 
#    z 0.000000 0.000000 1.935390 
# 
# From -- ./inp_files/3568.got.cif
#   From: 2010.05.17/outbox.cif.g08.bks.cpg/sg95_2_cif.got.tgz:3568.got - 2010.06.03 19:46:49.
