data_PCOD9550656
_publ_section_title
;
Structure prediction by ZEFSAII (Michael W. Deem and Ramdas Pophale) SiO2 
 PCOD9550656
Probable space group: P 43 2 2
;
_chemical_formula_sum "Si O2"
_cell_formula_units_Z 48
_cell_length_a 8.888465
_cell_length_b 8.888465
_cell_length_c 27.439612
_cell_angle_alpha 90.000000
_cell_angle_beta 90.000000
_cell_angle_gamma 90.000000
_cell_volume 2167.861334
_symmetry_space_group_name_H-M "P 43 2 2"
_symmetry_group_IT_number 95
_symmetry_cell_setting 'tetragonal'
loop_
_space_group_symop_operation_xyz
x,y,z
-y,x,3/4+z
-x,-y,1/2+z
y,-x,1/4+z
x,-y,1/2-z
-x,y,-z
y,x,1/4-z
-y,-x,3/4-z
loop_
_atom_site_type_symbol
_atom_site_label
_atom_site_fract_x
_atom_site_fract_y
_atom_site_fract_z
Si Si1 0.735530 0.948052 0.893833
Si Si2 0.781888 0.557788 0.604397
Si Si3 0.718091 0.958401 0.394476
Si Si4 0.318482 0.914714 0.999796
Si Si5 0.463936 0.235493 0.643252
Si Si6 0.420439 0.181607 0.750036
O O1 0.886253 0.867450 0.877141
O O2 0.735574 0.992528 0.950362
O O3 0.604420 0.821232 0.888051
O O4 0.679929 0.083912 0.860297
O O5 0.633622 0.633622 0.625000
O O6 0.839165 0.417032 0.636393
O O7 0.769395 0.503788 0.549085
O O8 0.731094 0.002818 0.450627
O O9 0.660461 0.103684 0.364786
O O10 0.250313 0.746986 0.999679
O O11 0.500000 0.908035 0.000000
O O12 0.387057 0.387057 0.625000
O O13 0.499527 0.235861 0.700376
O O14 0.412957 0.000000 0.750000
#
# Coordination Sequence:
#
# PCOD9550656 Si02
#       6
#     8   8   8   8   8   8
#     4  11  23  43  65  98 140 180 231 288 353 421
#     4  11  25  45  66  97 148 186 228 293 359 421
#     4  11  23  42  69  98 136 187 232 287 354 413
#     4  12  22  43  71 100 139 182 235 298 346 418
#     4  11  21  40  69  96 130 175 236 290 340 412
#     4  12  22  44  71 100 134 181 237 290 353 417
#
# _framework density 22.141638
#
# number of rings (size 3 to 8) (size 9 to 14) (size 15 to 20)
#    0.000    0.667   10.000    0.000    0.000    2.667 
#    6.000    0.000    0.000    0.000    0.000    0.000 
#    0.000    0.000    0.000    0.000    0.000    0.000 
#
# Total GULP energy -268750.051398 kJ/mol
# GULP energy per Si atom -5598.959404 kJ/mol
# Density = 2.209124 g / cm^3
# Si number density = 22.141638 Si / 1000 Ang^3
#
#
#
# Elastic Constant Matrix: (Units=GPa)
#
#
# Indices 1 2 3 4 5 6 
#
# 1 45.7875 75.9128 39.3440 0.0000 0.0000 0.0000
# 2 75.9128 45.7875 39.3440 0.0000 0.0000 0.0000
# 3 39.3440 39.3440 214.3819 0.0000 0.0000 0.0000
# 4 0.0000 0.0000 0.0000 31.2675 0.0000 0.0000
# 5 0.0000 0.0000 0.0000 0.0000 31.2675 0.0000
# 6 0.0000 0.0000 0.0000 0.0000 0.0000 51.7511
#
#
#
# Elastic Compliance Matrix: (Units=1/GPa)
#
#
# Indices 1 2 3 4 5 6 
#
# 1 -0.011936 0.021259 -0.001711 0.000000 0.000000 0.000000
# 2 0.021259 -0.011936 -0.001711 0.000000 0.000000 0.000000
# 3 -0.001711 -0.001711 0.005293 0.000000 0.000000 0.000000
# 4 0.000000 0.000000 0.000000 0.031982 0.000000 0.000000
# 5 0.000000 0.000000 0.000000 0.000000 0.031982 0.000000
# 6 0.000000 0.000000 0.000000 0.000000 0.000000 0.019323
#
#
# Mechanical properties :
#
#
# Convention : Reuss Voigt Hill
#
# Bulk Modulus (GPa) = 58.49690 68.35093 63.42391
# Shear Modulus (GPa) = 143.95590 32.94764 88.45177
#
# Velocity S-wave (km/s) = 8.07199 3.86170 6.32731
# Velocity P-wave (km/s) = 10.64673 7.12885 9.06017
#
# Compressibility (1/GPa) = 0.01709492
#
# Stress axis : x y z
#
# Youngs Moduli (GPa) = -83.78166 -83.78166 188.94327
#
# Poissons Ratio (x) = 1.78111 0.32329
# Poissons Ratio (y) = 1.78111 0.32329
# Poissons Ratio (z) = -0.14335 -0.14335
#
# Static dielectric constant tensor:
#      x y z
#    x 1.829500 0.000000 0.000000 
#    y 0.000000 1.829500 0.000000 
#    z 0.000000 0.000000 1.807380 
# 
# From -- ./inp_files/7957.got.cif
#   From: 2010.05.17/outbox.cif.g08.bks.cpg/sg95_4_cif.got.tgz:7957.got - 2010.06.03 19:46:49.
