data_PCOD9550676
_publ_section_title
;
Structure prediction by ZEFSAII (Michael W. Deem and Ramdas Pophale) SiO2 
 PCOD9550676
Probable space group: P 43 2 2
;
_chemical_formula_sum "Si O2"
_cell_formula_units_Z 28
_cell_length_a 8.251282
_cell_length_b 8.251282
_cell_length_c 16.631306
_cell_angle_alpha 90.000000
_cell_angle_beta 90.000000
_cell_angle_gamma 90.000000
_cell_volume 1132.320094
_symmetry_space_group_name_H-M "P 43 2 2"
_symmetry_group_IT_number 95
_symmetry_cell_setting 'tetragonal'
loop_
_space_group_symop_operation_xyz
x,y,z
-y,x,3/4+z
-x,-y,1/2+z
y,-x,1/4+z
x,-y,1/2-z
-x,y,-z
y,x,1/4-z
-y,-x,3/4-z
loop_
_atom_site_type_symbol
_atom_site_label
_atom_site_fract_x
_atom_site_fract_y
_atom_site_fract_z
Si Si1 0.486856 0.000000 0.250000
Si Si2 0.027306 0.169044 0.699634
Si Si3 0.154061 0.689757 0.642325
Si Si4 0.644348 0.508545 0.940908
O O1 0.391425 0.970101 0.167979
O O2 0.553140 0.818320 0.268671
O O3 0.858551 0.195791 0.653814
O O4 0.077694 0.290637 0.769388
O O5 0.018257 0.000000 0.750000
O O6 0.150954 0.150954 0.625000
O O7 0.321494 0.595979 0.650386
O O8 0.635867 0.364134 0.875000
O O9 0.500000 0.464385 0.000000
#
# Coordination Sequence:
#
# PCOD9550676 Si02
#       4
#     4   8   8   8
#     4  12  28  46  80 112 148 228 262 324 424 462
#     4   9  20  38  70 111 150 198 265 337 391 483
#     4  11  24  44  76 109 160 206 271 329 408 483
#     4  12  29  52  76 115 163 208 271 341 399 491
#
# _framework density 24.727989000000001
#
# number of rings (size 3 to 8) (size 9 to 14) (size 15 to 20)
#    0.000    1.143    4.286    0.000   10.000    3.429 
#    0.000    0.000    0.000    0.000    0.000    0.000 
#    0.000    0.000    0.000    0.000    0.000    0.000 
#
# Total GULP energy -156259.469353 kJ/mol
# GULP energy per Si atom -5580.695334 kJ/mol
# Density = 2.467171 g / cm^3
# Si number density = 24.727989 Si / 1000 Ang^3
#
#
#
# Elastic Constant Matrix: (Units=GPa)
#
#
# Indices 1 2 3 4 5 6 
#
# 1 62.8117 9.2478 36.9470 0.0000 0.0000 0.0000
# 2 9.2478 62.8123 36.9472 0.0000 0.0000 0.0000
# 3 36.9470 36.9472 188.5176 0.0000 0.0000 0.0000
# 4 0.0000 0.0000 0.0000 130.2615 0.0000 0.0000
# 5 0.0000 0.0000 0.0000 0.0000 130.2623 0.0000
# 6 0.0000 0.0000 0.0000 0.0000 0.0000 21.6964
#
#
#
# Elastic Compliance Matrix: (Units=1/GPa)
#
#
# Indices 1 2 3 4 5 6 
#
# 1 0.018019 -0.000651 -0.003404 0.000000 0.000000 0.000000
# 2 -0.000651 0.018018 -0.003404 0.000000 0.000000 0.000000
# 3 -0.003404 -0.003404 0.006639 0.000000 0.000000 0.000000
# 4 0.000000 0.000000 0.000000 0.007677 0.000000 0.000000
# 5 0.000000 0.000000 0.000000 0.000000 0.007677 0.000000
# 6 0.000000 0.000000 0.000000 0.000000 0.000000 0.046091
#
#
# Mechanical properties :
#
#
# Convention : Reuss Voigt Hill
#
# Bulk Modulus (GPa) = 36.02434 53.38063 44.70248
# Shear Modulus (GPa) = 38.97418 71.84401 55.40910
#
# Velocity S-wave (km/s) = 3.97434 5.39600 4.73879
# Velocity P-wave (km/s) = 5.97163 7.77537 6.93242
#
# Compressibility (1/GPa) = 0.02775901
#
# Stress axis : x y z
#
# Youngs Moduli (GPa) = 55.49811 55.49862 150.63003
#
# Poissons Ratio (x) = 0.03611 0.51273
# Poissons Ratio (y) = 0.03611 0.51273
# Poissons Ratio (z) = 0.18891 0.18891
#
# Static dielectric constant tensor:
#      x y z
#    x 2.019770 0.000000 0.000000 
#    y 0.000000 2.019770 0.000000 
#    z 0.000000 0.000000 1.938570 
# 
# From -- ./inp_files/5325.got.cif
#   From: 2010.05.17/outbox.cif.g08.bks.cpg/sg95_3_cif.got.tgz:5325.got - 2010.06.03 19:46:49.
