data_PCOD9550818
_publ_section_title
;
Structure prediction by ZEFSAII (Michael W. Deem and Ramdas Pophale) SiO2 
 PCOD9550818
Probable space group: P 43 21 2
;
_chemical_formula_sum "Si O2"
_cell_formula_units_Z 40
_cell_length_a 14.250202
_cell_length_b 14.250202
_cell_length_c 7.318646
_cell_angle_alpha 90.000000
_cell_angle_beta 90.000000
_cell_angle_gamma 90.000000
_cell_volume 1486.184687
_symmetry_space_group_name_H-M "P 43 21 2"
_symmetry_group_IT_number 96
_symmetry_cell_setting 'tetragonal'
loop_
_space_group_symop_operation_xyz
x,y,z
1/2-y,1/2+x,3/4+z
-x,-y,1/2+z
1/2+y,1/2-x,1/4+z
1/2+x,1/2-y,1/4-z
1/2-x,1/2+y,3/4-z
y,x,-z
-y,-x,1/2-z
loop_
_atom_site_type_symbol
_atom_site_label
_atom_site_fract_x
_atom_site_fract_y
_atom_site_fract_z
Si Si1 0.763428 0.519578 0.749336
Si Si2 0.106962 0.572928 0.868176
Si Si3 0.114593 0.026614 0.215191
Si Si4 0.209710 0.629095 0.525264
Si Si5 0.571902 0.701499 0.623603
O O1 0.831445 0.608865 0.735275
O O2 0.735649 0.502246 0.539613
O O3 0.673416 0.530275 0.878244
O O4 0.816960 0.434758 0.851191
O O5 0.185005 0.572112 0.711272
O O6 0.014247 0.585454 0.743357
O O7 0.007418 0.992583 0.250000
O O8 0.175343 0.124689 0.232213
O O9 0.142790 0.985405 0.019896
O O10 0.142345 0.719606 0.539001
O O11 0.642020 0.642020 0.500000
#
# Coordination Sequence:
#
# PCOD9550818 Si02
#       5
#     8   8   8   8   8
#     4   9  21  32  49  73 104 146 180 225 270 330
#     4  11  20  29  46  72 110 149 175 211 270 338
#     4  10  20  37  55  76 108 148 192 230 275 337
#     4   9  20  33  49  77 107 139 187 228 274 333
#     4  11  19  35  56  80 110 146 188 240 283 335
#
# _framework density 26.914555
#
# number of rings (size 3 to 8) (size 9 to 14) (size 15 to 20)
#    1.200    0.800    2.000    3.600    2.800    0.000 
#    0.000    0.000    0.000    0.000    0.000    2.800 
#    0.000    0.000    0.000    0.000    0.000    0.000 
#
# Total GULP energy -222871.627944 kJ/mol
# GULP energy per Si atom -5571.790699 kJ/mol
# Density = 2.685330 g / cm^3
# Si number density = 26.914555 Si / 1000 Ang^3
#
#
#
# Elastic Constant Matrix: (Units=GPa)
#
#
# Indices 1 2 3 4 5 6 
#
# 1 95.5822 33.7938 20.4563 0.0000 0.0000 0.0000
# 2 33.7938 95.5791 20.4567 0.0000 0.0000 0.0000
# 3 20.4563 20.4567 153.7052 0.0000 0.0000 0.0000
# 4 0.0000 0.0000 0.0000 44.4401 0.0000 0.0000
# 5 0.0000 0.0000 0.0000 0.0000 44.4403 0.0000
# 6 0.0000 0.0000 0.0000 0.0000 0.0000 40.3931
#
#
#
# Elastic Compliance Matrix: (Units=1/GPa)
#
#
# Indices 1 2 3 4 5 6 
#
# 1 0.012127 -0.004058 -0.001074 0.000000 0.000000 0.000000
# 2 -0.004058 0.012127 -0.001074 0.000000 0.000000 0.000000
# 3 -0.001074 -0.001074 0.006792 0.000000 0.000000 0.000000
# 4 0.000000 0.000000 0.000000 0.022502 0.000000 0.000000
# 5 0.000000 0.000000 0.000000 0.000000 0.022502 0.000000
# 6 0.000000 0.000000 0.000000 0.000000 0.000000 0.024757
#
#
# Mechanical properties :
#
#
# Convention : Reuss Voigt Hill
#
# Bulk Modulus (GPa) = 53.66421 54.92001 54.29211
# Shear Modulus (GPa) = 41.86579 43.86535 42.86557
#
# Velocity S-wave (km/s) = 3.94827 4.04146 3.99514
# Velocity P-wave (km/s) = 6.38492 6.49827 6.44184
#
# Compressibility (1/GPa) = 0.01863439
#
# Stress axis : x y z
#
# Youngs Moduli (GPa) = 82.46282 82.45997 147.23606
#
# Poissons Ratio (x) = 0.33460 0.15811
# Poissons Ratio (y) = 0.33462 0.15813
# Poissons Ratio (z) = 0.08855 0.08856
#
# Static dielectric constant tensor:
#      x y z
#    x 2.347250 0.000000 0.000000 
#    y 0.000000 2.347260 0.000000 
#    z 0.000000 0.000000 2.055170 
# 
# From -- ./inp_files/522.got.cif
#   From: 2010.05.17/outbox.cif.g08.bks.cpg/sg96_1_cif.got.tgz:522.got - 2010.06.03 19:52:08.
