data_PCOD9550719
_publ_section_title
;
Structure prediction by ZEFSAII (Michael W. Deem and Ramdas Pophale) SiO2 
 PCOD9550719
Probable space group: P 43 21 2
;
_chemical_formula_sum "Si O2"
_cell_formula_units_Z 40
_cell_length_a 16.916204
_cell_length_b 16.916204
_cell_length_c 5.672804
_cell_angle_alpha 90.000000
_cell_angle_beta 90.000000
_cell_angle_gamma 90.000000
_cell_volume 1623.318007
_symmetry_space_group_name_H-M "P 43 21 2"
_symmetry_group_IT_number 96
_symmetry_cell_setting 'tetragonal'
loop_
_space_group_symop_operation_xyz
x,y,z
1/2-y,1/2+x,3/4+z
-x,-y,1/2+z
1/2+y,1/2-x,1/4+z
1/2+x,1/2-y,1/4-z
1/2-x,1/2+y,3/4-z
y,x,-z
-y,-x,1/2-z
loop_
_atom_site_type_symbol
_atom_site_label
_atom_site_fract_x
_atom_site_fract_y
_atom_site_fract_z
Si Si1 0.427869 0.090714 0.016109
Si Si2 0.120766 0.120766 0.500000
Si Si3 0.445031 0.554970 0.750000
Si Si4 0.089944 0.729456 0.046760
Si Si5 0.146912 0.290143 0.648057
Si Si6 0.403324 0.403324 0.500000
Si Si7 0.776162 0.223839 0.250000
O O1 0.456422 0.155722 0.819042
O O2 0.413358 0.002977 0.929851
O O3 0.345621 0.109609 0.150761
O O4 0.083661 0.094783 0.247070
O O5 0.102873 0.214782 0.539474
O O6 0.427865 0.462388 0.709794
O O7 0.149875 0.679676 0.207523
O O8 0.077469 0.811374 0.190130
O O9 0.133931 0.763120 0.815626
O O10 0.222072 0.252727 0.782440
#
# Coordination Sequence:
#
# PCOD9550719 Si02
#       7
#     8   4   4   8   8   4   4
#     4  11  30  53  76 120 169 212 273 346 414 500
#     4  12  26  54  80 125 171 214 282 334 426 488
#     4  12  32  50  84 118 178 218 267 381 400 494
#     4  11  24  48  87 110 154 224 267 332 416 503
#     4  11  23  47  81 118 159 214 269 341 401 503
#     4  12  27  61  74 118 164 216 288 340 432 488
#     4  10  17  41  74 119 153 204 265 341 386 472
#
# _framework density 24.640889999999999
#
# number of rings (size 3 to 8) (size 9 to 14) (size 15 to 20)
#    0.000    0.800    4.000    1.200    5.600    5.600 
#    3.600    0.000    0.000    0.000    0.000    0.000 
#    0.000    0.000    0.000    0.000    0.000    0.000 
#
# Total GULP energy -223135.965927 kJ/mol
# GULP energy per Si atom -5578.399148 kJ/mol
# Density = 2.458481 g / cm^3
# Si number density = 24.640890 Si / 1000 Ang^3
#
#
#
# Elastic Constant Matrix: (Units=GPa)
#
#
# Indices 1 2 3 4 5 6 
#
# 1 76.5453 32.1928 32.4927 0.0000 0.0000 0.0000
# 2 32.1928 76.5441 32.4930 0.0000 0.0000 0.0000
# 3 32.4927 32.4930 110.6826 0.0000 0.0000 0.0000
# 4 0.0000 0.0000 0.0000 51.4578 0.0000 0.0000
# 5 0.0000 0.0000 0.0000 0.0000 51.4580 0.0000
# 6 0.0000 0.0000 0.0000 0.0000 0.0000 29.7414
#
#
#
# Elastic Compliance Matrix: (Units=1/GPa)
#
#
# Indices 1 2 3 4 5 6 
#
# 1 0.016850 -0.005697 -0.003274 0.000000 0.000000 0.000000
# 2 -0.005697 0.016850 -0.003274 0.000000 0.000000 0.000000
# 3 -0.003274 -0.003274 0.010957 0.000000 0.000000 0.000000
# 4 0.000000 0.000000 0.000000 0.019433 0.000000 0.000000
# 5 0.000000 0.000000 0.000000 0.000000 0.019433 0.000000
# 6 0.000000 0.000000 0.000000 0.000000 0.000000 0.033623
#
#
# Mechanical properties :
#
#
# Convention : Reuss Voigt Hill
#
# Bulk Modulus (GPa) = 49.58636 50.90323 50.24479
# Shear Modulus (GPa) = 33.70172 37.63765 35.66968
#
# Velocity S-wave (km/s) = 3.70228 3.91250 3.80884
# Velocity P-wave (km/s) = 6.20025 6.41195 6.30699
#
# Compressibility (1/GPa) = 0.02016684
#
# Stress axis : x y z
#
# Youngs Moduli (GPa) = 59.34735 59.34617 91.26364
#
# Poissons Ratio (x) = 0.33809 0.29881
# Poissons Ratio (y) = 0.33809 0.29883
# Poissons Ratio (z) = 0.19431 0.19432
#
# Static dielectric constant tensor:
#      x y z
#    x 2.064650 0.000000 0.000000 
#    y 0.000000 2.064670 0.000000 
#    z 0.000000 0.000000 2.025140 
# 
# From -- ./inp_files/483.got.cif
#   From: 2010.05.17/outbox.cif.g08.bks.cpg/sg96_1_cif.got.tgz:483.got - 2010.06.03 19:52:08.
