data_PCOD9550505
_publ_section_title
;
Structure prediction by ZEFSAII (Michael W. Deem and Ramdas Pophale) SiO2 
 PCOD9550505
Probable space group: P 43 2 2
;
_chemical_formula_sum "Si O2"
_cell_formula_units_Z 36
_cell_length_a 15.995324
_cell_length_b 15.995324
_cell_length_c 7.392345
_cell_angle_alpha 90.000000
_cell_angle_beta 90.000000
_cell_angle_gamma 90.000000
_cell_volume 1891.334350
_symmetry_space_group_name_H-M "P 43 2 2"
_symmetry_group_IT_number 95
_symmetry_cell_setting 'tetragonal'
loop_
_space_group_symop_operation_xyz
x,y,z
-y,x,3/4+z
-x,-y,1/2+z
y,-x,1/4+z
x,-y,1/2-z
-x,y,-z
y,x,1/4-z
-y,-x,3/4-z
loop_
_atom_site_type_symbol
_atom_site_label
_atom_site_fract_x
_atom_site_fract_y
_atom_site_fract_z
Si Si1 0.779841 0.088779 0.922397
Si Si2 0.736683 0.736683 0.125000
Si Si3 0.285878 0.923036 0.023862
Si Si4 0.000000 0.421074 0.500000
Si Si5 0.500000 0.864802 0.500000
Si Si6 0.231568 0.332969 0.272459
O O1 0.867058 0.132943 0.875000
O O2 0.720516 0.086519 0.742497
O O3 0.783806 0.996070 0.001731
O O4 0.729919 0.152409 0.048945
O O5 0.830182 0.727301 0.203190
O O6 0.669691 0.725022 0.283835
O O7 0.364280 0.963020 0.915001
O O8 0.925668 0.475889 0.584166
O O9 0.420648 0.806278 0.465596
O O10 0.290453 0.290453 0.125000
#
# Coordination Sequence:
#
# PCOD9550505 Si02
#       6
#     8   4   8   4   4   8
#     4  10  20  38  59  82 122 172 213 267 309 355
#     4  12  20  38  66  88 120 178 216 250 312 386
#     4  11  21  37  60  86 122 170 218 257 314 371
#     4  12  26  36  60  98 134 162 210 266 330 382
#     4  12  26  40  60 100 132 164 206 270 330 382
#     4  11  23  42  63  91 127 166 209 256 319 392
#
# _framework density 19.034179999999999
#
# number of rings (size 3 to 8) (size 9 to 14) (size 15 to 20)
#    0.000    0.889    8.889    0.000    3.111    0.000 
#    0.000    0.000    9.778    0.000    2.889    0.000 
#    0.000    0.000    0.000    0.000    0.000    0.000 
#
# Total GULP energy -200662.468112 kJ/mol
# GULP energy per Si atom -5573.957448 kJ/mol
# Density = 1.899086 g / cm^3
# Si number density = 19.034180 Si / 1000 Ang^3
#
#
#
# Elastic Constant Matrix: (Units=GPa)
#
#
# Indices 1 2 3 4 5 6 
#
# 1 79.5805 48.9251 15.3816 0.0000 0.0000 0.0000
# 2 48.9251 79.5803 15.3804 0.0000 0.0000 0.0000
# 3 15.3816 15.3804 93.4796 0.0000 0.0000 0.0000
# 4 0.0000 0.0000 0.0000 21.9517 0.0000 0.0000
# 5 0.0000 0.0000 0.0000 0.0000 21.9516 0.0000
# 6 0.0000 0.0000 0.0000 0.0000 0.0000 28.4789
#
#
#
# Elastic Compliance Matrix: (Units=1/GPa)
#
#
# Indices 1 2 3 4 5 6 
#
# 1 0.020361 -0.012260 -0.001333 0.000000 0.000000 0.000000
# 2 -0.012260 0.020361 -0.001333 0.000000 0.000000 0.000000
# 3 -0.001333 -0.001333 0.011136 0.000000 0.000000 0.000000
# 4 0.000000 0.000000 0.000000 0.045554 0.000000 0.000000
# 5 0.000000 0.000000 0.000000 0.000000 0.045555 0.000000
# 6 0.000000 0.000000 0.000000 0.000000 0.000000 0.035114
#
#
# Mechanical properties :
#
#
# Convention : Reuss Voigt Hill
#
# Bulk Modulus (GPa) = 45.44168 45.77940 45.61054
# Shear Modulus (GPa) = 23.22689 26.00666 24.61677
#
# Velocity S-wave (km/s) = 3.49703 3.70038 3.60014
# Velocity P-wave (km/s) = 6.34281 6.50849 6.42618
#
# Compressibility (1/GPa) = 0.02200623
#
# Stress axis : x y z
#
# Youngs Moduli (GPa) = 49.11390 49.11404 89.79761
#
# Poissons Ratio (x) = 0.60214 0.11971
# Poissons Ratio (y) = 0.60213 0.11967
# Poissons Ratio (z) = 0.06547 0.06545
#
# Static dielectric constant tensor:
#      x y z
#    x 1.675260 0.000000 0.000000 
#    y 0.000000 1.675260 0.000000 
#    z 0.000000 0.000000 1.768850 
# 
# From -- ./inp_files/2285.got.cif
#   From: 2010.05.17/outbox.cif.g08.bks.cpg/sg95_2_cif.got.tgz:2285.got - 2010.06.03 19:46:49.
