data_PCOD9550084
_publ_section_title
;
Structure prediction by ZEFSAII (Michael W. Deem and Ramdas Pophale) SiO2 
 PCOD9550084
Probable space group: P 42 21 2
;
_chemical_formula_sum "Si O2"
_cell_formula_units_Z 40
_cell_length_a 15.261194
_cell_length_b 15.261194
_cell_length_c 7.111683
_cell_angle_alpha 90.000000
_cell_angle_beta 90.000000
_cell_angle_gamma 90.000000
_cell_volume 1656.339718
_symmetry_space_group_name_H-M "P 42 21 2"
_symmetry_group_IT_number 94
_symmetry_cell_setting 'tetragonal'
loop_
_space_group_symop_operation_xyz
x,y,z
1/2-y,1/2+x,1/2+z
-x,-y,z
1/2+y,1/2-x,1/2+z
1/2+x,1/2-y,1/2-z
1/2-x,1/2+y,1/2-z
y,x,-z
-y,-x,-z
loop_
_atom_site_type_symbol
_atom_site_label
_atom_site_fract_x
_atom_site_fract_y
_atom_site_fract_z
Si Si1 0.336699 0.540467 0.621245
Si Si2 0.033377 0.719097 0.784365
Si Si3 0.866336 0.622563 0.805871
Si Si4 0.161369 0.581485 0.734698
Si Si5 0.832542 0.147020 0.776175
O O1 0.408533 0.591468 0.500000
O O2 0.274244 0.502998 0.457907
O O3 0.266582 0.595297 0.744645
O O4 0.364139 0.454264 0.736017
O O5 0.099864 0.644476 0.855694
O O6 0.096684 0.788686 0.679766
O O7 0.946242 0.673720 0.701768
O O8 0.861145 0.519561 0.764653
O O9 0.768229 0.659107 0.780961
O O10 0.890944 0.631219 0.025358
O O11 0.833274 0.166727 0.000000
#
# Coordination Sequence:
#
# PCOD9550084 Si02
#       5
#     8   8   8   8   8
#     4   9  20  39  63  90 123 174 216 264 326 399
#     4  10  21  33  60  90 122 161 211 271 315 381
#     4  10  22  40  61  94 132 174 215 271 334 397
#     4  10  22  36  62  90 132 168 221 265 337 393
#     4   9  20  38  60  94 126 167 220 266 318 393
#
# _framework density 24.149633999999999
#
# number of rings (size 3 to 8) (size 9 to 14) (size 15 to 20)
#    0.000    2.400    0.000    1.800    5.600   13.200 
#    0.000    0.000    0.000    0.000    0.000    0.000 
#    0.000    0.000    0.000    0.000    0.000    0.000 
#
# Total GULP energy -223210.171654 kJ/mol
# GULP energy per Si atom -5580.254291 kJ/mol
# Density = 2.409467 g / cm^3
# Si number density = 24.149634 Si / 1000 Ang^3
#
#
#
# Elastic Constant Matrix: (Units=GPa)
#
#
# Indices 1 2 3 4 5 6 
#
# 1 118.5129 91.6802 10.5780 0.0000 0.0000 0.0000
# 2 91.6802 118.5138 10.5787 0.0000 0.0000 0.0000
# 3 10.5780 10.5787 39.7108 0.0000 0.0000 0.0000
# 4 0.0000 0.0000 0.0000 33.9714 0.0000 0.0000
# 5 0.0000 0.0000 0.0000 0.0000 33.9715 0.0000
# 6 0.0000 0.0000 0.0000 0.0000 0.0000 62.3290
#
#
#
# Elastic Compliance Matrix: (Units=1/GPa)
#
#
# Indices 1 2 3 4 5 6 
#
# 1 0.021078 -0.016189 -0.001302 0.000000 0.000000 0.000000
# 2 -0.016189 0.021078 -0.001303 0.000000 0.000000 0.000000
# 3 -0.001302 -0.001303 0.025876 0.000000 0.000000 0.000000
# 4 0.000000 0.000000 0.000000 0.029437 0.000000 0.000000
# 5 0.000000 0.000000 0.000000 0.000000 0.029436 0.000000
# 6 0.000000 0.000000 0.000000 0.000000 0.000000 0.016044
#
#
# Mechanical properties :
#
#
# Convention : Reuss Voigt Hill
#
# Bulk Modulus (GPa) = 32.84712 55.82349 44.33531
# Shear Modulus (GPa) = 26.22132 36.98108 31.60120
#
# Velocity S-wave (km/s) = 3.29870 3.91747 3.62132
# Velocity P-wave (km/s) = 5.30468 6.60514 5.99031
#
# Compressibility (1/GPa) = 0.03044407
#
# Stress axis : x y z
#
# Youngs Moduli (GPa) = 47.44274 47.44297 38.64605
#
# Poissons Ratio (x) = 0.76807 0.05032
# Poissons Ratio (y) = 0.76807 0.05034
# Poissons Ratio (z) = 0.06177 0.06180
#
# Static dielectric constant tensor:
#      x y z
#    x 2.028100 0.000000 0.000000 
#    y 0.000000 2.028100 0.000000 
#    z 0.000000 0.000000 2.169270 
# 
# From -- ./inp_files/1396.got.cif
#   From: 2010.05.17/outbox.cif.g08.bks.cpg/sg94_1_cif.got.tgz:1396.got - 2010.06.03 19:43:16.
