data_PCOD9550831
_publ_section_title
;
Structure prediction by ZEFSAII (Michael W. Deem and Ramdas Pophale) SiO2 
 PCOD9550831
Probable space group: P 43 21 2
;
_chemical_formula_sum "Si O2"
_cell_formula_units_Z 36
_cell_length_a 14.027404
_cell_length_b 14.027404
_cell_length_c 7.094275
_cell_angle_alpha 90.000000
_cell_angle_beta 90.000000
_cell_angle_gamma 90.000000
_cell_volume 1395.926750
_symmetry_space_group_name_H-M "P 43 21 2"
_symmetry_group_IT_number 96
_symmetry_cell_setting 'tetragonal'
loop_
_space_group_symop_operation_xyz
x,y,z
1/2-y,1/2+x,3/4+z
-x,-y,1/2+z
1/2+y,1/2-x,1/4+z
1/2+x,1/2-y,1/4-z
1/2-x,1/2+y,3/4-z
y,x,-z
-y,-x,1/2-z
loop_
_atom_site_type_symbol
_atom_site_label
_atom_site_fract_x
_atom_site_fract_y
_atom_site_fract_z
Si Si1 0.798829 0.083888 0.394583
Si Si2 0.587562 0.068392 0.957275
Si Si3 0.150227 0.118191 0.780272
Si Si4 0.366267 0.827677 0.129595
Si Si5 0.938451 0.061550 0.750000
O O1 0.836919 0.163081 0.250000
O O2 0.703612 0.112319 0.501129
O O3 0.876062 0.081740 0.564948
O O4 0.790044 0.980951 0.291016
O O5 0.476305 0.088167 0.912283
O O6 0.646604 0.151783 0.856094
O O7 0.632954 0.974197 0.852541
O O8 0.151439 0.218951 0.672991
O O9 0.048637 0.078009 0.714407
O O10 0.147717 0.147717 0.000000
#
# Coordination Sequence:
#
# PCOD9550831 Si02
#       5
#     8   8   8   8   4
#     4  11  23  41  65  95 131 171 223 271 337 403
#     4   8  18  36  59  86 120 169 212 261 326 386
#     4  10  20  38  65  90 129 171 217 273 336 390
#     4  10  20  40  65  95 129 180 218 275 342 393
#     4  10  22  42  64  90 134 172 206 284 336 380
#
# _framework density 25.78932
#
# number of rings (size 3 to 8) (size 9 to 14) (size 15 to 20)
#    1.333    0.889    1.111    3.333    0.000    0.000 
#    4.000    2.222    0.000    0.000    0.000    0.000 
#    0.000    0.000    0.000    0.000    0.000    0.000 
#
# Total GULP energy -200796.413141 kJ/mol
# GULP energy per Si atom -5577.678143 kJ/mol
# Density = 2.573062 g / cm^3
# Si number density = 25.789320 Si / 1000 Ang^3
#
#
#
# Elastic Constant Matrix: (Units=GPa)
#
#
# Indices 1 2 3 4 5 6 
#
# 1 94.0617 30.3932 20.1687 0.0000 0.0000 0.0000
# 2 30.3932 94.0585 20.1698 0.0000 0.0000 0.0000
# 3 20.1687 20.1698 83.9987 0.0000 0.0000 0.0000
# 4 0.0000 0.0000 0.0000 40.4582 0.0000 0.0000
# 5 0.0000 0.0000 0.0000 0.0000 40.4576 0.0000
# 6 0.0000 0.0000 0.0000 0.0000 0.0000 25.3412
#
#
#
# Elastic Compliance Matrix: (Units=1/GPa)
#
#
# Indices 1 2 3 4 5 6 
#
# 1 0.012210 -0.003497 -0.002092 0.000000 0.000000 0.000000
# 2 -0.003497 0.012210 -0.002092 0.000000 0.000000 0.000000
# 3 -0.002092 -0.002092 0.012910 0.000000 0.000000 0.000000
# 4 0.000000 0.000000 0.000000 0.024717 0.000000 0.000000
# 5 0.000000 0.000000 0.000000 0.000000 0.024717 0.000000
# 6 0.000000 0.000000 0.000000 0.000000 0.000000 0.039461
#
#
# Mechanical properties :
#
#
# Convention : Reuss Voigt Hill
#
# Bulk Modulus (GPa) = 45.52178 45.95358 45.73768
# Shear Modulus (GPa) = 33.57734 34.67720 34.12727
#
# Velocity S-wave (km/s) = 3.61222 3.67090 3.64168
# Velocity P-wave (km/s) = 5.92345 5.98539 5.95450
#
# Compressibility (1/GPa) = 0.02196751
#
# Stress axis : x y z
#
# Youngs Moduli (GPa) = 81.90171 81.89835 77.46132
#
# Poissons Ratio (x) = 0.28638 0.16205
# Poissons Ratio (y) = 0.28639 0.16208
# Poissons Ratio (z) = 0.17134 0.17136
#
# Static dielectric constant tensor:
#      x y z
#    x 2.029050 0.000000 0.000000 
#    y 0.000000 2.029060 0.000000 
#    z 0.000000 0.000000 2.210180 
# 
# From -- ./inp_files/1235.got.cif
#   From: 2010.05.17/outbox.cif.g08.bks.cpg/sg96_1_cif.got.tgz:1235.got - 2010.06.03 19:52:08.
