data_PCOD9550595
_publ_section_title
;
Structure prediction by ZEFSAII (Michael W. Deem and Ramdas Pophale) SiO2 
 PCOD9550595
Probable space group: P 43 2 2
;
_chemical_formula_sum "Si O2"
_cell_formula_units_Z 48
_cell_length_a 10.953132
_cell_length_b 10.953132
_cell_length_c 18.109943
_cell_angle_alpha 90.000000
_cell_angle_beta 90.000000
_cell_angle_gamma 90.000000
_cell_volume 2172.669794
_symmetry_space_group_name_H-M "P 43 2 2"
_symmetry_group_IT_number 95
_symmetry_cell_setting 'tetragonal'
loop_
_space_group_symop_operation_xyz
x,y,z
-y,x,3/4+z
-x,-y,1/2+z
y,-x,1/4+z
x,-y,1/2-z
-x,y,-z
y,x,1/4-z
-y,-x,3/4-z
loop_
_atom_site_type_symbol
_atom_site_label
_atom_site_fract_x
_atom_site_fract_y
_atom_site_fract_z
Si Si1 0.618190 0.648225 0.375510
Si Si2 0.760188 0.000000 0.750000
Si Si3 0.907255 0.570226 0.862277
Si Si4 0.514892 0.500000 0.750000
Si Si5 0.100832 0.899169 0.875000
Si Si6 0.351795 0.907837 0.102892
Si Si7 0.000000 0.278893 0.500000
Si Si8 0.204487 0.934652 0.508030
O O1 0.530459 0.767885 0.377289
O O2 0.601775 0.592153 0.456723
O O3 0.565335 0.561425 0.312774
O O4 0.761369 0.657592 0.354350
O O5 0.680806 0.949746 0.815647
O O6 0.837755 0.883918 0.721332
O O7 0.892269 0.672905 0.798723
O O8 0.017427 0.479263 0.840228
O O9 0.934232 0.636015 0.940251
O O10 0.086895 0.799843 0.942868
O O11 0.981911 0.878271 0.826438
O O12 0.250828 0.961056 0.046849
#
# Coordination Sequence:
#
# PCOD9550595 Si02
#       8
#     8   4   8   4   4   8   4   8
#     4  11  26  51  75 105 147 191 257 310 373 454
#     4  12  26  44  70 106 148 197 241 312 388 466
#     4  11  25  44  73 106 147 188 249 309 380 444
#     4  10  28  50  76 100 142 202 244 312 366 430
#     4  10  22  40  70  92 148 186 238 292 378 454
#     4  12  27  46  74 111 147 195 255 307 383 459
#     4  10  22  42  64 110 134 195 231 308 370 444
#     4  11  25  43  68 107 145 193 236 310 382 459
#
# _framework density 22.092635999999999
#
# number of rings (size 3 to 8) (size 9 to 14) (size 15 to 20)
#    0.000    1.000    1.667    3.000   14.000    0.000 
#    3.000    0.000    0.000    0.000    0.000    0.000 
#    0.000    0.000    0.000    0.000    0.000    0.000 
#
# Total GULP energy -267476.027560 kJ/mol
# GULP energy per Si atom -5572.417241 kJ/mol
# Density = 2.204235 g / cm^3
# Si number density = 22.092636 Si / 1000 Ang^3
#
#
#
# Elastic Constant Matrix: (Units=GPa)
#
#
# Indices 1 2 3 4 5 6 
#
# 1 68.3712 18.0091 12.0249 0.0000 0.0000 0.0000
# 2 18.0091 68.3712 12.0248 0.0000 0.0000 0.0000
# 3 12.0249 12.0248 105.7804 0.0000 0.0000 0.0000
# 4 0.0000 0.0000 0.0000 28.8372 0.0000 0.0000
# 5 0.0000 0.0000 0.0000 0.0000 28.8372 0.0000
# 6 0.0000 0.0000 0.0000 0.0000 0.0000 25.7600
#
#
#
# Elastic Compliance Matrix: (Units=1/GPa)
#
#
# Indices 1 2 3 4 5 6 
#
# 1 0.015906 -0.003951 -0.001359 0.000000 0.000000 0.000000
# 2 -0.003951 0.015906 -0.001359 0.000000 0.000000 0.000000
# 3 -0.001359 -0.001359 0.009763 0.000000 0.000000 0.000000
# 4 0.000000 0.000000 0.000000 0.034677 0.000000 0.000000
# 5 0.000000 0.000000 0.000000 0.000000 0.034677 0.000000
# 6 0.000000 0.000000 0.000000 0.000000 0.000000 0.038820
#
#
# Mechanical properties :
#
#
# Convention : Reuss Voigt Hill
#
# Bulk Modulus (GPa) = 35.41502 36.29337 35.85420
# Shear Modulus (GPa) = 28.98587 30.05117 29.51852
#
# Velocity S-wave (km/s) = 3.62610 3.69214 3.65927
# Velocity P-wave (km/s) = 5.79625 5.88552 5.84106
#
# Compressibility (1/GPa) = 0.02823661
#
# Stress axis : x y z
#
# Youngs Moduli (GPa) = 62.87072 62.87079 102.43253
#
# Poissons Ratio (x) = 0.24837 0.13921
# Poissons Ratio (y) = 0.24837 0.13921
# Poissons Ratio (z) = 0.08544 0.08544
#
# Static dielectric constant tensor:
#      x y z
#    x 1.891140 0.000000 0.000000 
#    y 0.000000 1.891140 0.000000 
#    z 0.000000 0.000000 1.937520 
# 
# From -- ./inp_files/5749.got.cif
#   From: 2010.05.17/outbox.cif.g08.bks.cpg/sg95_3_cif.got.tgz:5749.got - 2010.06.03 19:46:49.
