data_PCOD9550669
_publ_section_title
;
Structure prediction by ZEFSAII (Michael W. Deem and Ramdas Pophale) SiO2 
 PCOD9550669
Probable space group: P 43 2 2
;
_chemical_formula_sum "Si O2"
_cell_formula_units_Z 40
_cell_length_a 7.809757
_cell_length_b 7.809757
_cell_length_c 27.453519
_cell_angle_alpha 90.000000
_cell_angle_beta 90.000000
_cell_angle_gamma 90.000000
_cell_volume 1674.453388
_symmetry_space_group_name_H-M "P 43 2 2"
_symmetry_group_IT_number 95
_symmetry_cell_setting 'tetragonal'
loop_
_space_group_symop_operation_xyz
x,y,z
-y,x,3/4+z
-x,-y,1/2+z
y,-x,1/4+z
x,-y,1/2-z
-x,y,-z
y,x,1/4-z
-y,-x,3/4-z
loop_
_atom_site_type_symbol
_atom_site_label
_atom_site_fract_x
_atom_site_fract_y
_atom_site_fract_z
Si Si1 0.118862 0.806485 0.927074
Si Si2 0.303637 0.251300 0.822466
Si Si3 0.319067 0.004319 0.488043
Si Si4 0.800440 0.643775 0.514946
Si Si5 0.453922 0.677154 0.161628
O O1 0.105266 0.894735 0.875000
O O2 0.200211 0.619651 0.916378
O O3 0.929432 0.770483 0.944883
O O4 0.225412 0.917625 0.964917
O O5 0.498117 0.253464 0.803648
O O6 0.275845 0.289356 0.879089
O O7 0.167812 0.371913 0.795319
O O8 0.500000 0.923188 0.500000
O O9 0.215308 0.840838 0.467559
O O10 0.681789 0.608974 0.467253
O O11 0.000000 0.616715 0.500000
O O12 0.530003 0.530003 0.125000
#
# Coordination Sequence:
#
# PCOD9550669 Si02
#       5
#     8   8   8   8   8
#     4  11  22  47  72 104 147 195 244 309 385 450
#     4  12  25  46  75 109 151 195 252 321 380 465
#     4  12  26  43  76 107 147 197 253 313 390 462
#     4  12  25  49  75 110 150 200 257 319 388 465
#     4  11  25  43  74 103 149 197 244 309 387 455
#
# _framework density 23.888390999999999
#
# number of rings (size 3 to 8) (size 9 to 14) (size 15 to 20)
#    0.000    0.400    4.000    5.400    2.800    0.000 
#    0.000    0.000    0.000    0.000    0.000    0.000 
#    0.000    0.000    0.000    0.000    0.000    0.000 
#
# Total GULP energy -223121.385438 kJ/mol
# GULP energy per Si atom -5578.034636 kJ/mol
# Density = 2.383402 g / cm^3
# Si number density = 23.888391 Si / 1000 Ang^3
#
#
#
# Elastic Constant Matrix: (Units=GPa)
#
#
# Indices 1 2 3 4 5 6 
#
# 1 91.5312 24.5889 11.1610 0.0000 0.0000 0.0000
# 2 24.5889 91.5312 11.1610 0.0000 0.0000 0.0000
# 3 11.1610 11.1610 78.8440 0.0000 0.0000 0.0000
# 4 0.0000 0.0000 0.0000 25.5344 0.0000 0.0000
# 5 0.0000 0.0000 0.0000 0.0000 25.5345 0.0000
# 6 0.0000 0.0000 0.0000 0.0000 0.0000 30.2023
#
#
#
# Elastic Compliance Matrix: (Units=1/GPa)
#
#
# Indices 1 2 3 4 5 6 
#
# 1 0.011895 -0.003043 -0.001253 0.000000 0.000000 0.000000
# 2 -0.003043 0.011895 -0.001253 0.000000 0.000000 0.000000
# 3 -0.001253 -0.001253 0.013038 0.000000 0.000000 0.000000
# 4 0.000000 0.000000 0.000000 0.039163 0.000000 0.000000
# 5 0.000000 0.000000 0.000000 0.000000 0.039163 0.000000
# 6 0.000000 0.000000 0.000000 0.000000 0.000000 0.033110
#
#
# Mechanical properties :
#
#
# Convention : Reuss Voigt Hill
#
# Bulk Modulus (GPa) = 38.86401 39.52535 39.19468
# Shear Modulus (GPa) = 29.77261 30.58729 30.17995
#
# Velocity S-wave (km/s) = 3.53416 3.58218 3.55825
# Velocity P-wave (km/s) = 5.74091 5.80441 5.77274
#
# Compressibility (1/GPa) = 0.02573075
#
# Stress axis : x y z
#
# Youngs Moduli (GPa) = 84.06572 84.06572 76.69851
#
# Poissons Ratio (x) = 0.25579 0.09612
# Poissons Ratio (y) = 0.25579 0.09612
# Poissons Ratio (z) = 0.10535 0.10535
#
# Static dielectric constant tensor:
#      x y z
#    x 2.006920 0.000000 0.000000 
#    y 0.000000 2.006920 0.000000 
#    z 0.000000 0.000000 2.012370 
# 
# From -- ./inp_files/7390.got.cif
#   From: 2010.05.17/outbox.cif.g08.bks.cpg/sg95_4_cif.got.tgz:7390.got - 2010.06.03 19:46:49.
