data_PCOD9550709
_publ_section_title
;
Structure prediction by ZEFSAII (Michael W. Deem and Ramdas Pophale) SiO2 
 PCOD9550709
Probable space group: P 43 21 2
;
_chemical_formula_sum "Si O2"
_cell_formula_units_Z 52
_cell_length_a 21.395974
_cell_length_b 21.395974
_cell_length_c 5.765394
_cell_angle_alpha 90.000000
_cell_angle_beta 90.000000
_cell_angle_gamma 90.000000
_cell_volume 2639.326479
_symmetry_space_group_name_H-M "P 43 21 2"
_symmetry_group_IT_number 96
_symmetry_cell_setting 'tetragonal'
loop_
_space_group_symop_operation_xyz
x,y,z
1/2-y,1/2+x,3/4+z
-x,-y,1/2+z
1/2+y,1/2-x,1/4+z
1/2+x,1/2-y,1/4-z
1/2-x,1/2+y,3/4-z
y,x,-z
-y,-x,1/2-z
loop_
_atom_site_type_symbol
_atom_site_label
_atom_site_fract_x
_atom_site_fract_y
_atom_site_fract_z
Si Si1 0.537358 0.217747 0.967407
Si Si2 0.235552 0.345638 0.184000
Si Si3 0.830166 0.784370 0.747296
Si Si4 0.045475 0.671109 0.167852
Si Si5 0.222356 0.927251 0.957352
Si Si6 0.357646 0.357646 0.500000
Si Si7 0.909994 0.493293 0.282456
O O1 0.516730 0.189989 0.720499
O O2 0.601711 0.253491 0.986022
O O3 0.483589 0.268697 0.028710
O O4 0.533619 0.156250 0.130546
O O5 0.215002 0.275415 0.222017
O O6 0.179650 0.393891 0.254098
O O7 0.295699 0.358379 0.342868
O O8 0.256035 0.364708 0.926005
O O9 0.821601 0.821601 0.500000
O O10 0.816217 0.816217 0.000000
O O11 0.057521 0.724631 0.356746
O O12 0.033982 0.606944 0.302620
O O13 0.155600 0.915081 0.076689
O O14 0.959579 0.440305 0.216879
#
# Coordination Sequence:
#
# PCOD9550709 Si02
#       7
#     8   8   8   8   8   4   8
#     4  10  25  43  61  87 131 169 228 271 348 399
#     4  10  20  35  59  93 126 164 214 275 332 392
#     4  12  28  42  67  95 131 177 225 279 344 417
#     4   9  22  39  61  84 123 171 210 277 326 384
#     4   9  19  36  59  89 123 162 202 268 330 393
#     4  10  16  32  58  88 128 148 210 262 338 390
#     4  11  27  39  59  87 121 174 238 280 325 381
#
# _framework density 19.701993999999999
#
# number of rings (size 3 to 8) (size 9 to 14) (size 15 to 20)
#    0.000    1.846    0.769    1.385   17.231    0.000 
#    0.000    0.000    0.000    0.000    0.000    0.000 
#   13.846    0.000    0.000    0.000    0.000    0.000 
#
# Total GULP energy -289902.832360 kJ/mol
# GULP energy per Si atom -5575.054468 kJ/mol
# Density = 1.965715 g / cm^3
# Si number density = 19.701994 Si / 1000 Ang^3
#
#
#
# Elastic Constant Matrix: (Units=GPa)
#
#
# Indices 1 2 3 4 5 6 
#
# 1 75.0000 50.5925 34.4890 0.0000 0.0000 0.0000
# 2 50.5925 75.0000 34.4890 0.0000 0.0000 0.0000
# 3 34.4890 34.4890 98.7283 0.0000 0.0000 0.0000
# 4 0.0000 0.0000 0.0000 25.6589 0.0000 0.0000
# 5 0.0000 0.0000 0.0000 0.0000 25.6589 0.0000
# 6 0.0000 0.0000 0.0000 0.0000 0.0000 26.9531
#
#
#
# Elastic Compliance Matrix: (Units=1/GPa)
#
#
# Indices 1 2 3 4 5 6 
#
# 1 0.025412 -0.015559 -0.003442 0.000000 0.000000 0.000000
# 2 -0.015559 0.025412 -0.003442 0.000000 0.000000 0.000000
# 3 -0.003442 -0.003442 0.012534 0.000000 0.000000 0.000000
# 4 0.000000 0.000000 0.000000 0.038973 0.000000 0.000000
# 5 0.000000 0.000000 0.000000 0.000000 0.038973 0.000000
# 6 0.000000 0.000000 0.000000 0.000000 0.000000 0.037102
#
#
# Mechanical properties :
#
#
# Convention : Reuss Voigt Hill
#
# Bulk Modulus (GPa) = 54.13792 54.20772 54.17282
# Shear Modulus (GPa) = 21.79150 24.26469 23.02809
#
# Velocity S-wave (km/s) = 3.32935 3.51320 3.42251
# Velocity P-wave (km/s) = 6.50519 6.63554 6.57069
#
# Compressibility (1/GPa) = 0.01847134
#
# Stress axis : x y z
#
# Youngs Moduli (GPa) = 39.35173 39.35173 79.78616
#
# Poissons Ratio (x) = 0.61228 0.27461
# Poissons Ratio (y) = 0.61228 0.27461
# Poissons Ratio (z) = 0.13544 0.13544
#
# Static dielectric constant tensor:
#      x y z
#    x 1.709710 0.000000 0.000000 
#    y 0.000000 1.709710 0.000000 
#    z 0.000000 0.000000 1.811490 
# 
# From -- ./inp_files/704.got.cif
#   From: 2010.05.17/outbox.cif.g08.bks.cpg/sg96_1_cif.got.tgz:704.got - 2010.06.03 19:52:08.
