data_PCOD9550559
_publ_section_title
;
Structure prediction by ZEFSAII (Michael W. Deem and Ramdas Pophale) SiO2 
 PCOD9550559
Probable space group: P 43 2 2
;
_chemical_formula_sum "Si O2"
_cell_formula_units_Z 48
_cell_length_a 20.139398
_cell_length_b 20.139398
_cell_length_c 5.697415
_cell_angle_alpha 90.000000
_cell_angle_beta 90.000000
_cell_angle_gamma 90.000000
_cell_volume 2310.845041
_symmetry_space_group_name_H-M "P 43 2 2"
_symmetry_group_IT_number 95
_symmetry_cell_setting 'tetragonal'
loop_
_space_group_symop_operation_xyz
x,y,z
-y,x,3/4+z
-x,-y,1/2+z
y,-x,1/4+z
x,-y,1/2-z
-x,y,-z
y,x,1/4-z
-y,-x,3/4-z
loop_
_atom_site_type_symbol
_atom_site_label
_atom_site_fract_x
_atom_site_fract_y
_atom_site_fract_z
Si Si1 0.724474 0.819767 0.727613
Si Si2 0.836196 0.836196 0.125000
Si Si3 0.042532 0.500000 0.750000
Si Si4 0.564569 0.265326 0.135327
Si Si5 0.619680 0.853326 0.059828
Si Si6 0.392729 0.607272 0.375000
Si Si7 0.365572 0.500000 0.750000
Si Si8 0.075871 0.741037 0.067578
O O1 0.749447 0.749447 0.625000
O O2 0.731849 0.885814 0.565777
O O3 0.780358 0.826268 0.928109
O O4 0.650139 0.819749 0.826648
O O5 0.815759 0.904701 0.239874
O O6 0.092636 0.562910 0.760869
O O7 0.000000 0.501439 0.500000
O O8 0.600184 0.203994 0.257737
O O9 0.541987 0.315814 0.338692
O O10 0.500000 0.238707 0.000000
O O11 0.599257 0.317381 0.962035
O O12 0.682377 0.890668 0.168807
O O13 0.403352 0.552251 0.580854
O O14 0.000000 0.732716 0.000000
#
# Coordination Sequence:
#
# PCOD9550559 Si02
#       8
#     8   4   4   8   8   4   4   8
#     4   9  20  41  64  97 140 172 230 292 358 431
#     4   8  18  38  56  94 128 170 218 278 344 410
#     4  12  31  50  76 108 151 204 264 308 372 455
#     4  10  23  44  69  94 135 180 230 294 370 443
#     4  11  25  42  69  99 139 185 240 299 367 433
#     4  10  22  44  74  96 140 174 236 292 372 456
#     4  10  21  44  68  96 129 174 226 288 364 445
#     4  10  21  38  65  96 135 178 228 287 350 415
#
# _framework density 20.771621
#
# number of rings (size 3 to 8) (size 9 to 14) (size 15 to 20)
#    0.000    2.000    0.000    1.500    5.833    4.667 
#   27.000    0.000   66.000    0.000    6.500    0.000 
#    0.000    0.000    0.000    0.000    0.000    0.000 
#
# Total GULP energy -267382.632670 kJ/mol
# GULP energy per Si atom -5570.471514 kJ/mol
# Density = 2.072434 g / cm^3
# Si number density = 20.771621 Si / 1000 Ang^3
#
#
#
# Elastic Constant Matrix: (Units=GPa)
#
#
# Indices 1 2 3 4 5 6 
#
# 1 123.0860 82.5640 54.4755 0.0000 0.0000 0.0000
# 2 82.5640 123.0863 54.4755 0.0000 0.0000 0.0000
# 3 54.4755 54.4755 97.3869 0.0000 0.0000 0.0000
# 4 0.0000 0.0000 0.0000 17.2677 0.0000 0.0000
# 5 0.0000 0.0000 0.0000 0.0000 17.2677 0.0000
# 6 0.0000 0.0000 0.0000 0.0000 0.0000 25.7394
#
#
#
# Elastic Compliance Matrix: (Units=1/GPa)
#
#
# Indices 1 2 3 4 5 6 
#
# 1 0.015794 -0.008884 -0.003866 0.000000 0.000000 0.000000
# 2 -0.008884 0.015794 -0.003866 0.000000 0.000000 0.000000
# 3 -0.003866 -0.003866 0.014593 0.000000 0.000000 0.000000
# 4 0.000000 0.000000 0.000000 0.057912 0.000000 0.000000
# 5 0.000000 0.000000 0.000000 0.000000 0.057912 0.000000
# 6 0.000000 0.000000 0.000000 0.000000 0.000000 0.038851
#
#
# Mechanical properties :
#
#
# Convention : Reuss Voigt Hill
#
# Bulk Modulus (GPa) = 77.20974 80.73213 78.97094
# Shear Modulus (GPa) = 20.97294 22.19123 21.58208
#
# Velocity S-wave (km/s) = 3.18101 3.27210 3.22688
# Velocity P-wave (km/s) = 7.12343 7.29565 7.21005
#
# Compressibility (1/GPa) = 0.01295173
#
# Stress axis : x y z
#
# Youngs Moduli (GPa) = 63.31420 63.31443 68.52644
#
# Poissons Ratio (x) = 0.56246 0.26490
# Poissons Ratio (y) = 0.56246 0.26489
# Poissons Ratio (z) = 0.24475 0.24475
#
# Static dielectric constant tensor:
#      x y z
#    x 1.760360 0.000000 0.000000 
#    y 0.000000 1.760360 0.000000 
#    z 0.000000 0.000000 2.038210 
# 
# From -- ./inp_files/1339.got.cif
#   From: 2010.05.17/outbox.cif.g08.bks.cpg/sg95_1_cif.got.tgz:1339.got - 2010.06.03 19:46:49.
