data_PCOD9550133
_publ_section_title
;
Structure prediction by ZEFSAII (Michael W. Deem and Ramdas Pophale) SiO2 
 PCOD9550133
Probable space group: P 42 21 2
;
_chemical_formula_sum "Si O2"
_cell_formula_units_Z 38
_cell_length_a 14.817012
_cell_length_b 14.817012
_cell_length_c 7.833140
_cell_angle_alpha 90.000000
_cell_angle_beta 90.000000
_cell_angle_gamma 90.000000
_cell_volume 1719.717671
_symmetry_space_group_name_H-M "P 42 21 2"
_symmetry_group_IT_number 94
_symmetry_cell_setting 'tetragonal'
loop_
_space_group_symop_operation_xyz
x,y,z
1/2-y,1/2+x,1/2+z
-x,-y,z
1/2+y,1/2-x,1/2+z
1/2+x,1/2-y,1/2-z
1/2-x,1/2+y,1/2-z
y,x,-z
-y,-x,-z
loop_
_atom_site_type_symbol
_atom_site_label
_atom_site_fract_x
_atom_site_fract_y
_atom_site_fract_z
Si Si1 0.425993 0.355306 0.772935
Si Si2 0.500000 0.500000 0.000000
Si Si3 0.179708 0.179708 0.000000
Si Si4 0.393227 0.012006 0.745357
Si Si5 0.119434 0.675637 0.541741
Si Si6 0.789375 0.012346 0.905202
O O1 0.275493 0.397410 0.103954
O O2 0.466139 0.316472 0.598517
O O3 0.344118 0.420770 0.717118
O O4 0.496381 0.414640 0.877215
O O5 0.170997 0.284724 0.941229
O O6 0.091569 0.177831 0.121383
O O7 0.364680 0.961605 0.571925
O O8 0.500000 0.000000 0.770892
O O9 0.317764 0.974299 0.877993
O O10 0.376116 0.117345 0.783010
#
# Coordination Sequence:
#
# PCOD9550133 Si02
#       6
#     8   2   4   8   8   8
#     4  11  24  44  70 107 146 195 245 315 366 448
#     4  12  22  38  72 100 146 186 244 298 368 436
#     4  10  21  41  66 101 137 192 232 306 354 434
#     4  11  25  44  69 102 141 196 242 300 358 441
#     4  11  25  43  71 101 150 188 249 303 373 435
#     4  10  23  44  72 100 143 191 249 298 377 431
#
# _framework density 22.096651000000001
#
# number of rings (size 3 to 8) (size 9 to 14) (size 15 to 20)
#    0.000    1.263    0.000    5.053    8.842    3.368 
#    0.000    0.000    0.000    0.000    0.000    0.000 
#    0.000    0.000    0.000    0.000    0.000    0.000 
#
# Total GULP energy -211895.691817 kJ/mol
# GULP energy per Si atom -5576.202416 kJ/mol
# Density = 2.204636 g / cm^3
# Si number density = 22.096651 Si / 1000 Ang^3
#
#
#
# Elastic Constant Matrix: (Units=GPa)
#
#
# Indices 1 2 3 4 5 6 
#
# 1 152.2173 91.2374 63.3798 0.0000 0.0000 0.0000
# 2 91.2374 152.2173 63.3798 0.0000 0.0000 0.0000
# 3 63.3798 63.3798 118.8548 0.0000 0.0000 0.0000
# 4 0.0000 0.0000 0.0000 10.8379 0.0000 0.0000
# 5 0.0000 0.0000 0.0000 0.0000 10.8379 0.0000
# 6 0.0000 0.0000 0.0000 0.0000 0.0000 33.8815
#
#
#
# Elastic Compliance Matrix: (Units=1/GPa)
#
#
# Indices 1 2 3 4 5 6 
#
# 1 0.011043 -0.005356 -0.003032 0.000000 0.000000 0.000000
# 2 -0.005356 0.011043 -0.003032 0.000000 0.000000 0.000000
# 3 -0.003032 -0.003032 0.011648 0.000000 0.000000 0.000000
# 4 0.000000 0.000000 0.000000 0.092269 0.000000 0.000000
# 5 0.000000 0.000000 0.000000 0.000000 0.092269 0.000000
# 6 0.000000 0.000000 0.000000 0.000000 0.000000 0.029515
#
#
# Mechanical properties :
#
#
# Convention : Reuss Voigt Hill
#
# Bulk Modulus (GPa) = 91.81731 95.47593 93.64662
# Shear Modulus (GPa) = 18.23107 24.79761 21.51434
#
# Velocity S-wave (km/s) = 2.87550 3.35361 3.12372
# Velocity P-wave (km/s) = 7.25724 7.63530 7.44866
#
# Compressibility (1/GPa) = 0.01089119
#
# Stress axis : x y z
#
# Youngs Moduli (GPa) = 90.55840 90.55840 85.85482
#
# Poissons Ratio (x) = 0.48505 0.26034
# Poissons Ratio (y) = 0.48505 0.26034
# Poissons Ratio (z) = 0.27460 0.27460
#
# Static dielectric constant tensor:
#      x y z
#    x 1.846120 0.000000 0.000000 
#    y 0.000000 1.846120 0.000000 
#    z 0.000000 0.000000 1.807620 
# 
# From -- ./inp_files/1378.got.cif
#   From: 2010.05.17/outbox.cif.g08.bks.cpg/sg94_1_cif.got.tgz:1378.got - 2010.06.03 19:43:16.
