data_PCOD9550988
_publ_section_title
;
Structure prediction by ZEFSAII (Michael W. Deem and Ramdas Pophale) SiO2 
 PCOD9550988
Probable space group: P 43 21 2
;
_chemical_formula_sum "Si O2"
_cell_formula_units_Z 60
_cell_length_a 11.904066
_cell_length_b 11.904066
_cell_length_c 20.223700
_cell_angle_alpha 90.000000
_cell_angle_beta 90.000000
_cell_angle_gamma 90.000000
_cell_volume 2865.835555
_symmetry_space_group_name_H-M "P 43 21 2"
_symmetry_group_IT_number 96
_symmetry_cell_setting 'tetragonal'
loop_
_space_group_symop_operation_xyz
x,y,z
1/2-y,1/2+x,3/4+z
-x,-y,1/2+z
1/2+y,1/2-x,1/4+z
1/2+x,1/2-y,1/4-z
1/2-x,1/2+y,3/4-z
y,x,-z
-y,-x,1/2-z
loop_
_atom_site_type_symbol
_atom_site_label
_atom_site_fract_x
_atom_site_fract_y
_atom_site_fract_z
Si Si1 0.967612 0.489572 0.153008
Si Si2 0.102098 0.102098 0.500000
Si Si3 0.128803 0.412104 0.773439
Si Si4 0.514998 0.689260 0.017840
Si Si5 0.508273 0.223285 0.661554
Si Si6 0.362893 0.384801 0.821778
Si Si7 0.849921 0.627962 0.714465
Si Si8 0.654514 0.500931 0.461639
O O1 0.900916 0.491888 0.221114
O O2 0.941424 0.396033 0.099362
O O3 0.948029 0.605270 0.115043
O O4 0.094174 0.478968 0.179025
O O5 0.099729 0.207871 0.547742
O O6 0.986116 0.104622 0.459252
O O7 0.046167 0.305953 0.756532
O O8 0.262685 0.403168 0.769621
O O9 0.429339 0.595886 0.988693
O O10 0.638262 0.638262 0.000000
O O11 0.519763 0.703559 0.097128
O O12 0.408509 0.195807 0.713550
O O13 0.340173 0.252157 0.833839
O O14 0.357543 0.465055 0.884956
O O15 0.944724 0.723284 0.721517
O O16 0.613386 0.613386 0.500000
#
# Coordination Sequence:
#
# PCOD9550988 Si02
#       8
#     8   4   8   8   8   8   8   8
#     4  11  23  43  67  98 141 185 237 296 361 438
#     4  10  22  44  66  98 134 180 240 290 364 426
#     4  11  23  42  66 100 140 182 234 287 366 425
#     4  10  22  44  67 101 138 183 236 298 357 427
#     4  10  23  44  68  99 137 184 233 303 358 431
#     4  11  24  43  67  99 138 182 231 297 363 434
#     4  11  23  43  68 100 141 183 240 301 367 438
#     4  11  23  40  68  97 137 184 234 293 355 435
#
# _framework density 20.936301
#
# number of rings (size 3 to 8) (size 9 to 14) (size 15 to 20)
#    0.000    1.333    4.000    1.600    1.867    3.200 
#    1.200    0.000    0.000    0.000    0.000    0.000 
#    0.000    0.000    0.000    0.000    0.000    0.000 
#
# Total GULP energy -334071.955873 kJ/mol
# GULP energy per Si atom -5567.865931 kJ/mol
# Density = 2.088865 g / cm^3
# Si number density = 20.936301 Si / 1000 Ang^3
#
#
#
# Elastic Constant Matrix: (Units=GPa)
#
#
# Indices 1 2 3 4 5 6 
#
# 1 41.8641 36.7846 37.0600 0.0000 0.0000 0.0000
# 2 36.7846 41.8641 37.0600 0.0000 0.0000 0.0000
# 3 37.0600 37.0600 79.8798 0.0000 0.0000 0.0000
# 4 0.0000 0.0000 0.0000 23.0217 0.0000 0.0000
# 5 0.0000 0.0000 0.0000 0.0000 23.0217 0.0000
# 6 0.0000 0.0000 0.0000 0.0000 0.0000 44.7253
#
#
#
# Elastic Compliance Matrix: (Units=1/GPa)
#
#
# Indices 1 2 3 4 5 6 
#
# 1 0.109731 -0.087138 -0.010482 0.000000 0.000000 0.000000
# 2 -0.087138 0.109731 -0.010482 0.000000 0.000000 0.000000
# 3 -0.010482 -0.010482 0.022245 0.000000 0.000000 0.000000
# 4 0.000000 0.000000 0.000000 0.043437 0.000000 0.000000
# 5 0.000000 0.000000 0.000000 0.000000 0.043437 0.000000
# 6 0.000000 0.000000 0.000000 0.000000 0.000000 0.022359
#
#
# Mechanical properties :
#
#
# Convention : Reuss Voigt Hill
#
# Bulk Modulus (GPa) = 39.21062 42.82413 41.01738
# Shear Modulus (GPa) = 8.68588 21.66731 15.17660
#
# Velocity S-wave (km/s) = 2.03905 3.22050 2.69531
# Velocity P-wave (km/s) = 4.93080 5.85899 5.41482
#
# Compressibility (1/GPa) = 0.02550329
#
# Stress axis : x y z
#
# Youngs Moduli (GPa) = 9.11316 9.11316 44.95385
#
# Poissons Ratio (x) = 0.79410 0.47121
# Poissons Ratio (y) = 0.79410 0.47121
# Poissons Ratio (z) = 0.09552 0.09552
#
# Static dielectric constant tensor:
#      x y z
#    x 1.845600 0.000000 0.000000 
#    y 0.000000 1.845600 0.000000 
#    z 0.000000 0.000000 1.629370 
# 
# From -- ./inp_files/3626.got.cif
#   From: 2010.05.17/outbox.cif.g08.bks.cpg/sg96_2_cif.got.tgz:3626.got - 2010.06.03 19:52:08.
