data_PCOD9550342
_publ_section_title
;
Structure prediction by ZEFSAII (Michael W. Deem and Ramdas Pophale) SiO2 
 PCOD9550342
Probable space group: P 42 21 2
;
_chemical_formula_sum "Si O2"
_cell_formula_units_Z 44
_cell_length_a 8.870408
_cell_length_b 8.870408
_cell_length_c 28.029323
_cell_angle_alpha 90.000000
_cell_angle_beta 90.000000
_cell_angle_gamma 90.000000
_cell_volume 2205.463121
_symmetry_space_group_name_H-M "P 42 21 2"
_symmetry_group_IT_number 94
_symmetry_cell_setting 'tetragonal'
loop_
_space_group_symop_operation_xyz
x,y,z
1/2-y,1/2+x,1/2+z
-x,-y,z
1/2+y,1/2-x,1/2+z
1/2+x,1/2-y,1/2-z
1/2-x,1/2+y,1/2-z
y,x,-z
-y,-x,-z
loop_
_atom_site_type_symbol
_atom_site_label
_atom_site_fract_x
_atom_site_fract_y
_atom_site_fract_z
Si Si1 0.323218 0.491635 0.223668
Si Si2 0.825100 0.202687 0.185227
Si Si3 0.655876 0.210849 0.350732
Si Si4 0.248602 0.004284 0.002873
Si Si5 0.494911 0.171900 0.611447
Si Si6 0.500000 0.000000 0.424177
O O1 0.500000 0.500000 0.214333
O O2 0.245524 0.648995 0.209564
O O3 0.304784 0.435908 0.278006
O O4 0.254077 0.362437 0.190592
O O5 0.997762 0.237048 0.172271
O O6 0.747759 0.149196 0.136417
O O7 0.736563 0.354758 0.373951
O O8 0.621596 0.077234 0.388866
O O9 0.322896 0.986454 0.054457
O O10 0.114479 0.885522 0.000000
O O11 0.362971 0.966116 0.960248
O O12 0.169570 0.169570 0.000000
O O13 0.500000 0.000000 0.628313
#
# Coordination Sequence:
#
# PCOD9550342 Si02
#       6
#     8   8   8   8   8   4
#     4  12  25  43  67 100 139 177 226 287 349 414
#     4  12  25  44  69 100 135 183 230 283 347 430
#     4  12  25  45  71  99 139 189 235 285 350 430
#     4  11  24  41  70  99 134 180 231 284 344 418
#     4  12  25  43  68 101 135 177 231 290 346 411
#     4  12  22  46  70 100 140 178 234 290 350 418
#
# _framework density 19.95046
#
# number of rings (size 3 to 8) (size 9 to 14) (size 15 to 20)
#    0.000    0.182    4.545    6.000    2.545    1.455 
#    0.000    0.000    0.000    1.091    0.000    0.000 
#    0.000    0.000    0.000    0.000    0.000    0.000 
#
# Total GULP energy -246025.268925 kJ/mol
# GULP energy per Si atom -5591.483385 kJ/mol
# Density = 1.990505 g / cm^3
# Si number density = 19.950460 Si / 1000 Ang^3
#
#
#
# Elastic Constant Matrix: (Units=GPa)
#
#
# Indices 1 2 3 4 5 6 
#
# 1 76.1278 8.8536 16.3108 0.0000 0.0000 0.0000
# 2 8.8536 76.1274 16.3109 0.0000 0.0000 0.0000
# 3 16.3108 16.3109 112.5808 0.0000 0.0000 0.0000
# 4 0.0000 0.0000 0.0000 35.6869 0.0000 0.0000
# 5 0.0000 0.0000 0.0000 0.0000 35.6865 0.0000
# 6 0.0000 0.0000 0.0000 0.0000 0.0000 42.0660
#
#
#
# Elastic Compliance Matrix: (Units=1/GPa)
#
#
# Indices 1 2 3 4 5 6 
#
# 1 0.013662 -0.001202 -0.001805 0.000000 0.000000 0.000000
# 2 -0.001202 0.013662 -0.001805 0.000000 0.000000 0.000000
# 3 -0.001805 -0.001805 0.009406 0.000000 0.000000 0.000000
# 4 0.000000 0.000000 0.000000 0.028021 0.000000 0.000000
# 5 0.000000 0.000000 0.000000 0.000000 0.028022 0.000000
# 6 0.000000 0.000000 0.000000 0.000000 0.000000 0.023772
#
#
# Mechanical properties :
#
#
# Convention : Reuss Voigt Hill
#
# Bulk Modulus (GPa) = 36.89337 38.64296 37.76816
# Shear Modulus (GPa) = 36.98052 37.57860 37.27956
#
# Velocity S-wave (km/s) = 4.31004 4.34475 4.32743
# Velocity P-wave (km/s) = 6.58036 6.67687 6.62879
#
# Compressibility (1/GPa) = 0.02710514
#
# Stress axis : x y z
#
# Youngs Moduli (GPa) = 73.19363 73.19315 106.31961
#
# Poissons Ratio (x) = 0.08799 0.19193
# Poissons Ratio (y) = 0.08799 0.19194
# Poissons Ratio (z) = 0.13213 0.13213
#
# Static dielectric constant tensor:
#      x y z
#    x 1.625820 0.000000 0.000000 
#    y 0.000000 1.625840 0.000000 
#    z 0.000000 0.000000 1.718510 
# 
# From -- ./inp_files/5503.got.cif
#   From: 2010.05.17/outbox.cif.g08.bks.cpg/sg94_3_cif.got.tgz:5503.got - 2010.06.03 19:43:16.
