data_PCOD9550920
_publ_section_title
;
Structure prediction by ZEFSAII (Michael W. Deem and Ramdas Pophale) SiO2 
 PCOD9550920
Probable space group: P 43 21 2
;
_chemical_formula_sum "Si O2"
_cell_formula_units_Z 48
_cell_length_a 14.820077
_cell_length_b 14.820077
_cell_length_c 9.532040
_cell_angle_alpha 90.000000
_cell_angle_beta 90.000000
_cell_angle_gamma 90.000000
_cell_volume 2093.566577
_symmetry_space_group_name_H-M "P 43 21 2"
_symmetry_group_IT_number 96
_symmetry_cell_setting 'tetragonal'
loop_
_space_group_symop_operation_xyz
x,y,z
1/2-y,1/2+x,3/4+z
-x,-y,1/2+z
1/2+y,1/2-x,1/4+z
1/2+x,1/2-y,1/4-z
1/2-x,1/2+y,3/4-z
y,x,-z
-y,-x,1/2-z
loop_
_atom_site_type_symbol
_atom_site_label
_atom_site_fract_x
_atom_site_fract_y
_atom_site_fract_z
Si Si1 0.621913 0.378088 0.250000
Si Si2 0.865970 0.076760 0.489661
Si Si3 0.074868 0.074868 0.500000
Si Si4 0.767583 0.627859 0.738581
Si Si5 0.818408 0.815775 0.225449
Si Si6 0.988327 0.586553 0.949349
Si Si7 0.206620 0.373118 0.561620
O O1 0.523536 0.368283 0.178123
O O2 0.630864 0.308463 0.376940
O O3 0.855836 0.172879 0.412304
O O4 0.779468 0.077449 0.592092
O O5 0.970048 0.086452 0.542998
O O6 0.136853 0.108459 0.628350
O O7 0.832239 0.714734 0.727775
O O8 0.816196 0.535746 0.700562
O O9 0.749390 0.629011 0.906583
O O10 0.816334 0.723163 0.135079
O O11 0.891382 0.585823 0.026572
O O12 0.052095 0.524495 0.043341
#
# Coordination Sequence:
#
# PCOD9550920 Si02
#       7
#     4   8   4   8   8   8   8
#     4  11  28  38  62 102 136 177 206 276 346 397
#     4  10  23  38  61  98 129 168 222 267 330 382
#     4  11  22  38  72  92 130 173 214 284 304 405
#     4  10  21  41  69  98 124 176 229 276 313 395
#     4  11  22  42  63  96 132 168 219 266 329 386
#     4  10  23  40  67 100 126 170 221 273 330 383
#     4  10  21  41  69  97 119 177 232 267 315 390
#
# _framework density 22.927381
#
# number of rings (size 3 to 8) (size 9 to 14) (size 15 to 20)
#    0.000    1.667    1.667    2.500   11.667    3.333 
#    0.000    6.667    0.000    0.000    0.000    0.000 
#    0.000    0.000    0.000    0.000    0.000    0.000 
#
# Total GULP energy -267538.805705 kJ/mol
# GULP energy per Si atom -5573.725119 kJ/mol
# Density = 2.287520 g / cm^3
# Si number density = 22.927381 Si / 1000 Ang^3
#
#
#
# Elastic Constant Matrix: (Units=GPa)
#
#
# Indices 1 2 3 4 5 6 
#
# 1 69.6965 8.3939 10.2546 0.0000 0.0000 0.0000
# 2 8.3939 69.6962 10.2545 0.0000 0.0000 0.0000
# 3 10.2546 10.2545 70.8515 0.0000 0.0000 0.0000
# 4 0.0000 0.0000 0.0000 18.2231 0.0000 0.0000
# 5 0.0000 0.0000 0.0000 0.0000 18.2232 0.0000
# 6 0.0000 0.0000 0.0000 0.0000 0.0000 27.0758
#
#
#
# Elastic Compliance Matrix: (Units=1/GPa)
#
#
# Indices 1 2 3 4 5 6 
#
# 1 0.014812 -0.001500 -0.001927 0.000000 0.000000 0.000000
# 2 -0.001500 0.014812 -0.001927 0.000000 0.000000 0.000000
# 3 -0.001927 -0.001927 0.014672 0.000000 0.000000 0.000000
# 4 0.000000 0.000000 0.000000 0.054875 0.000000 0.000000
# 5 0.000000 0.000000 0.000000 0.000000 0.054875 0.000000
# 6 0.000000 0.000000 0.000000 0.000000 0.000000 0.036933
#
#
# Mechanical properties :
#
#
# Convention : Reuss Voigt Hill
#
# Bulk Modulus (GPa) = 29.77205 29.78335 29.77770
# Shear Modulus (GPa) = 23.48705 24.79385 24.14045
#
# Velocity S-wave (km/s) = 3.20411 3.29204 3.24838
# Velocity P-wave (km/s) = 5.16740 5.24105 5.20435
#
# Compressibility (1/GPa) = 0.03358855
#
# Stress axis : x y z
#
# Youngs Moduli (GPa) = 67.51239 67.51212 68.15836
#
# Poissons Ratio (x) = 0.10130 0.13132
# Poissons Ratio (y) = 0.10130 0.13132
# Poissons Ratio (z) = 0.13007 0.13007
#
# Static dielectric constant tensor:
#      x y z
#    x 1.923990 0.000000 0.000000 
#    y 0.000000 1.923990 0.000000 
#    z 0.000000 0.000000 1.832550 
# 
# From -- ./inp_files/2222.got.cif
#   From: 2010.05.17/outbox.cif.g08.bks.cpg/sg96_2_cif.got.tgz:2222.got - 2010.06.03 19:52:08.
