data_PCOD9550921
_publ_section_title
;
Structure prediction by ZEFSAII (Michael W. Deem and Ramdas Pophale) SiO2 
 PCOD9550921
Probable space group: P 43 21 2
;
_chemical_formula_sum "Si O2"
_cell_formula_units_Z 36
_cell_length_a 16.979776
_cell_length_b 16.979776
_cell_length_c 4.886032
_cell_angle_alpha 90.000000
_cell_angle_beta 90.000000
_cell_angle_gamma 90.000000
_cell_volume 1408.705533
_symmetry_space_group_name_H-M "P 43 21 2"
_symmetry_group_IT_number 96
_symmetry_cell_setting 'tetragonal'
loop_
_space_group_symop_operation_xyz
x,y,z
1/2-y,1/2+x,3/4+z
-x,-y,1/2+z
1/2+y,1/2-x,1/4+z
1/2+x,1/2-y,1/4-z
1/2-x,1/2+y,3/4-z
y,x,-z
-y,-x,1/2-z
loop_
_atom_site_type_symbol
_atom_site_label
_atom_site_fract_x
_atom_site_fract_y
_atom_site_fract_z
Si Si1 0.339598 0.339598 0.500000
Si Si2 0.837152 0.328986 0.463018
Si Si3 0.910514 0.910514 0.000000
Si Si4 0.244487 0.599637 0.479594
Si Si5 0.014684 0.618400 0.212279
Si Si6 0.416696 0.416696 0.000000
O O1 0.255534 0.344732 0.352304
O O2 0.118816 0.285074 0.422345
O O3 0.792985 0.334330 0.175943
O O4 0.925999 0.362982 0.461976
O O5 0.899261 0.141128 0.996390
O O6 0.837516 0.904029 0.790648
O O7 0.994647 0.905398 0.854394
O O8 0.200937 0.519187 0.569470
O O9 0.067872 0.562201 0.394782
#
# Coordination Sequence:
#
# PCOD9550921 Si02
#       6
#     4   8   4   8   8   4
#     4  12  26  50  78 112 156 204 272 334 412 494
#     4  11  25  45  73 110 147 195 247 315 397 476
#     4  12  29  52  76 112 156 210 283 336 410 494
#     4  11  26  45  74 107 149 199 248 319 393 470
#     4  10  21  41  72 107 147 190 244 306 383 471
#     4  12  29  50  80 108 150 214 271 348 404 474
#
# _framework density 25.55538
#
# number of rings (size 3 to 8) (size 9 to 14) (size 15 to 20)
#    0.000    0.889    0.000    5.333    0.000   15.111 
#    0.000    2.222    0.000    0.000    0.000    0.000 
#    0.000    0.000    0.000    0.000    0.000    0.000 
#
# Total GULP energy -201780.073644 kJ/mol
# GULP energy per Si atom -5605.002046 kJ/mol
# Density = 2.549721 g / cm^3
# Si number density = 25.555380 Si / 1000 Ang^3
#
#
#
# Elastic Constant Matrix: (Units=GPa)
#
#
# Indices 1 2 3 4 5 6 
#
# 1 44.9574 182.9988 51.4063 0.0000 0.0000 0.0000
# 2 182.9988 44.9574 51.4063 0.0000 0.0000 0.0000
# 3 51.4063 51.4063 123.3936 0.0000 0.0000 0.0000
# 4 0.0000 0.0000 0.0000 35.1318 0.0000 0.0000
# 5 0.0000 0.0000 0.0000 0.0000 35.1318 0.0000
# 6 0.0000 0.0000 0.0000 0.0000 0.0000 40.5533
#
#
#
# Elastic Compliance Matrix: (Units=1/GPa)
#
#
# Indices 1 2 3 4 5 6 
#
# 1 -0.000921 0.006323 -0.002250 0.000000 0.000000 0.000000
# 2 0.006323 -0.000921 -0.002250 0.000000 0.000000 0.000000
# 3 -0.002250 -0.002250 0.009979 0.000000 0.000000 0.000000
# 4 0.000000 0.000000 0.000000 0.028464 0.000000 0.000000
# 5 0.000000 0.000000 0.000000 0.000000 0.028464 0.000000
# 6 0.000000 0.000000 0.000000 0.000000 0.000000 0.024659
#
#
# Mechanical properties :
#
#
# Convention : Reuss Voigt Hill
#
# Bulk Modulus (GPa) = 84.88137 87.21458 86.04797
# Shear Modulus (GPa) = 55.55133 17.32985 36.44059
#
# Velocity S-wave (km/s) = 4.66742 2.60692 3.78027
# Velocity P-wave (km/s) = 7.89514 6.57747 7.26623
#
# Compressibility (1/GPa) = 0.01178115
#
# Stress axis : x y z
#
# Youngs Moduli (GPa) = -1085.52930 -1085.52930 100.20834
#
# Poissons Ratio (x) = 6.86380 0.22551
# Poissons Ratio (y) = 6.86380 0.22551
# Poissons Ratio (z) = -2.44288 -2.44288
#
# Static dielectric constant tensor:
#      x y z
#    x 2.049170 0.000000 0.000000 
#    y 0.000000 2.049170 0.000000 
#    z 0.000000 0.000000 1.993890 
# 
# From -- ./inp_files/1253.got.cif
#   From: 2010.05.17/outbox.cif.g08.bks.cpg/sg96_1_cif.got.tgz:1253.got - 2010.06.03 19:52:08.
