data_PCOD9550274
_publ_section_title
;
Structure prediction by ZEFSAII (Michael W. Deem and Ramdas Pophale) SiO2 
 PCOD9550274
Probable space group: P 42 21 2
;
_chemical_formula_sum "Si O2"
_cell_formula_units_Z 46
_cell_length_a 11.895434
_cell_length_b 11.895434
_cell_length_c 15.830130
_cell_angle_alpha 90.000000
_cell_angle_beta 90.000000
_cell_angle_gamma 90.000000
_cell_volume 2239.984766
_symmetry_space_group_name_H-M "P 42 21 2"
_symmetry_group_IT_number 94
_symmetry_cell_setting 'tetragonal'
loop_
_space_group_symop_operation_xyz
x,y,z
1/2-y,1/2+x,1/2+z
-x,-y,z
1/2+y,1/2-x,1/2+z
1/2+x,1/2-y,1/2-z
1/2-x,1/2+y,1/2-z
y,x,-z
-y,-x,-z
loop_
_atom_site_type_symbol
_atom_site_label
_atom_site_fract_x
_atom_site_fract_y
_atom_site_fract_z
Si Si1 0.895885 0.085585 0.901722
Si Si2 0.000000 0.000000 0.500000
Si Si3 0.500000 0.000000 0.753480
Si Si4 0.272561 0.533335 0.886906
Si Si5 0.739558 0.924189 0.806666
Si Si6 0.712578 0.810975 0.083648
Si Si7 0.676691 0.053460 0.114429
O O1 0.909669 0.201924 0.852635
O O2 0.794605 0.019396 0.863019
O O3 0.883114 0.116887 0.000000
O O4 0.000000 0.000000 0.894993
O O5 0.981733 0.888487 0.440016
O O6 0.609073 0.961343 0.804625
O O7 0.496345 0.895544 0.688531
O O8 0.285320 0.573092 0.789837
O O9 0.225457 0.408042 0.884364
O O10 0.165160 0.611042 0.918787
O O11 0.777217 0.807190 0.848523
O O12 0.706908 0.943509 0.058835
O O13 0.743351 0.743351 0.000000
#
# Coordination Sequence:
#
# PCOD9550274 Si02
#       7
#     8   2   4   8   8   8   8
#     4  11  24  43  69 105 142 181 241 306 365 429
#     4  12  28  56  64 116 152 194 252 292 408 460
#     4  10  24  44  66 102 142 186 244 296 358 450
#     4  11  27  48  74 102 150 197 243 306 375 458
#     4  11  25  46  72 108 136 196 246 301 371 444
#     4  12  23  48  75 104 148 190 248 311 373 436
#     4  11  22  45  71 100 144 185 237 308 354 438
#
# _framework density 20.535852999999999
#
# number of rings (size 3 to 8) (size 9 to 14) (size 15 to 20)
#    0.000    0.870    6.087    1.043    7.304    0.000 
#    9.391    0.000    0.000    0.000    0.000    0.000 
#    0.000    0.000    0.000    0.000    0.000    0.000 
#
# Total GULP energy -256172.443662 kJ/mol
# GULP energy per Si atom -5568.966167 kJ/mol
# Density = 2.048911 g / cm^3
# Si number density = 20.535853 Si / 1000 Ang^3
#
#
#
# Elastic Constant Matrix: (Units=GPa)
#
#
# Indices 1 2 3 4 5 6 
#
# 1 147.1953 64.4923 40.7688 0.0000 0.0000 0.0000
# 2 64.4923 147.1946 40.7690 0.0000 0.0000 0.0000
# 3 40.7688 40.7690 81.0393 0.0000 0.0000 0.0000
# 4 0.0000 0.0000 0.0000 -27.9649 0.0000 0.0000
# 5 0.0000 0.0000 0.0000 0.0000 -27.9750 0.0000
# 6 0.0000 0.0000 0.0000 0.0000 0.0000 20.4929
#
#
#
# Elastic Compliance Matrix: (Units=1/GPa)
#
#
# Indices 1 2 3 4 5 6 
#
# 1 0.008975 -0.003116 -0.002948 0.000000 0.000000 0.000000
# 2 -0.003116 0.008975 -0.002948 0.000000 0.000000 0.000000
# 3 -0.002948 -0.002948 0.015306 0.000000 0.000000 0.000000
# 4 0.000000 0.000000 0.000000 -0.035759 0.000000 0.000000
# 5 0.000000 0.000000 0.000000 0.000000 -0.035746 0.000000
# 6 0.000000 0.000000 0.000000 0.000000 0.000000 0.048798
#
#
# Mechanical properties :
#
#
# Convention : Reuss Voigt Hill
#
# Bulk Modulus (GPa) = 65.64506 74.16548 69.90527
# Shear Modulus (GPa) = 148.59127 8.20386 78.39757
#
# Velocity S-wave (km/s) = 8.51552 2.00089 6.18537
# Velocity P-wave (km/s) = 11.34552 6.44450 9.22639
#
# Compressibility (1/GPa) = 0.01523344
#
# Stress axis : x y z
#
# Youngs Moduli (GPa) = 111.41573 111.41495 65.33592
#
# Poissons Ratio (x) = 0.34718 0.19259
# Poissons Ratio (y) = 0.34718 0.19259
# Poissons Ratio (z) = 0.32842 0.32842
#
# Static dielectric constant tensor:
#      x y z
#    x 1.954340 0.000000 0.000000 
#    y 0.000000 1.954330 0.000000 
#    z 0.000000 0.000000 1.752420 
# 
# From -- ./inp_files/4152.got.cif
#   From: 2010.05.17/outbox.cif.g08.bks.cpg/sg94_3_cif.got.tgz:4152.got - 2010.06.03 19:43:16.
