data_PCOD9550716
_publ_section_title
;
Structure prediction by ZEFSAII (Michael W. Deem and Ramdas Pophale) SiO2 
 PCOD9550716
Probable space group: P 43 21 2
;
_chemical_formula_sum "Si O2"
_cell_formula_units_Z 40
_cell_length_a 14.804266
_cell_length_b 14.804266
_cell_length_c 7.668280
_cell_angle_alpha 90.000000
_cell_angle_beta 90.000000
_cell_angle_gamma 90.000000
_cell_volume 1680.628492
_symmetry_space_group_name_H-M "P 43 21 2"
_symmetry_group_IT_number 96
_symmetry_cell_setting 'tetragonal'
loop_
_space_group_symop_operation_xyz
x,y,z
1/2-y,1/2+x,3/4+z
-x,-y,1/2+z
1/2+y,1/2-x,1/4+z
1/2+x,1/2-y,1/4-z
1/2-x,1/2+y,3/4-z
y,x,-z
-y,-x,1/2-z
loop_
_atom_site_type_symbol
_atom_site_label
_atom_site_fract_x
_atom_site_fract_y
_atom_site_fract_z
Si Si1 0.380471 0.767824 0.794062
Si Si2 0.472401 0.745187 0.179426
Si Si3 0.428453 0.432265 0.290777
Si Si4 0.846560 0.307218 0.721038
Si Si5 0.767380 0.571473 0.335826
O O1 0.313697 0.686304 0.750000
O O2 0.319809 0.858818 0.791846
O O3 0.464112 0.777309 0.662577
O O4 0.425292 0.745627 0.985858
O O5 0.493791 0.646677 0.253674
O O6 0.402047 0.797643 0.298059
O O7 0.573320 0.785460 0.161773
O O8 0.418245 0.418245 0.500000
O O9 0.525723 0.474278 0.250000
O O10 0.412077 0.339596 0.189211
O O11 0.770613 0.229388 0.750000
O O12 0.899938 0.311379 0.902040
#
# Coordination Sequence:
#
# PCOD9550716 Si02
#       5
#     8   8   8   8   8
#     4  10  21  39  66  91 127 179 217 274 343 398
#     4  10  20  35  62  87 121 168 209 269 324 392
#     4  12  22  38  62 103 132 171 223 276 335 398
#     4  10  17  35  60  82 120 158 207 258 326 378
#     4  10  20  38  65  86 131 168 217 271 331 396
#
# _framework density 23.800619999999999
#
# number of rings (size 3 to 8) (size 9 to 14) (size 15 to 20)
#    0.000    1.600    6.000    1.200    0.000    0.800 
#    0.000    0.000   30.800    0.000    0.000    0.000 
#    0.000    0.000    0.000    0.000    0.000    0.000 
#
# Total GULP energy -223520.664076 kJ/mol
# GULP energy per Si atom -5588.016602 kJ/mol
# Density = 2.374645 g / cm^3
# Si number density = 23.800620 Si / 1000 Ang^3
#
#
#
# Elastic Constant Matrix: (Units=GPa)
#
#
# Indices 1 2 3 4 5 6 
#
# 1 1832.1496-1504.4471 29.9788 0.0000 0.0000 0.0000
# 2 -1504.4471 1832.3541 30.0105 0.0000 0.0000 0.0000
# 3 29.9788 30.0105 79.9386 0.0000 0.0000 0.0000
# 4 0.0000 0.0000 0.0000 1.1750 0.0000 0.0000
# 5 0.0000 0.0000 0.0000 0.0000 1.1693 0.0000
# 6 0.0000 0.0000 0.0000 0.0000 0.0000 66.0408
#
#
#
# Elastic Compliance Matrix: (Units=1/GPa)
#
#
# Indices 1 2 3 4 5 6 
#
# 1 0.001788 0.001488 -0.001229 0.000000 0.000000 0.000000
# 2 0.001488 0.001788 -0.001229 0.000000 0.000000 0.000000
# 3 -0.001229 -0.001229 0.013432 0.000000 0.000000 0.000000
# 4 0.000000 0.000000 0.000000 0.851037 0.000000 0.000000
# 5 0.000000 0.000000 0.000000 0.000000 0.855222 0.000000
# 6 0.000000 0.000000 0.000000 0.000000 0.000000 0.015142
#
#
# Mechanical properties :
#
#
# Convention : Reuss Voigt Hill
#
# Bulk Modulus (GPa) = 66.37114 95.05853 80.71483
# Shear Modulus (GPa) = 2.86472 359.60370 181.23421
#
# Velocity S-wave (km/s) = 1.09829 12.30520 8.73568
# Velocity P-wave (km/s) = 5.43647 15.55368 11.65058
#
# Compressibility (1/GPa) = 0.01506679
#
# Stress axis : x y z
#
# Youngs Moduli (GPa) = 559.37959 559.43510 74.44946
#
# Poissons Ratio (x) = -0.83239 0.09150
# Poissons Ratio (y) = -0.83231 0.09150
# Poissons Ratio (z) = 0.68749 0.68758
#
# Static dielectric constant tensor:
#      x y z
#    x 1.933530 0.000000 0.000000 
#    y 0.000000 1.933520 0.000000 
#    z 0.000000 0.000000 1.476430 
# 
# From -- ./inp_files/2039.got.cif
#   From: 2010.05.17/outbox.cif.g08.bks.cpg/sg96_2_cif.got.tgz:2039.got - 2010.06.03 19:52:08.
