data_PCOD9550827
_publ_section_title
;
Structure prediction by ZEFSAII (Michael W. Deem and Ramdas Pophale) SiO2 
 PCOD9550827
Probable space group: P 43 21 2
;
_chemical_formula_sum "Si O2"
_cell_formula_units_Z 44
_cell_length_a 19.212361
_cell_length_b 19.212361
_cell_length_c 6.680794
_cell_angle_alpha 90.000000
_cell_angle_beta 90.000000
_cell_angle_gamma 90.000000
_cell_volume 2465.980043
_symmetry_space_group_name_H-M "P 43 21 2"
_symmetry_group_IT_number 96
_symmetry_cell_setting 'tetragonal'
loop_
_space_group_symop_operation_xyz
x,y,z
1/2-y,1/2+x,3/4+z
-x,-y,1/2+z
1/2+y,1/2-x,1/4+z
1/2+x,1/2-y,1/4-z
1/2-x,1/2+y,3/4-z
y,x,-z
-y,-x,1/2-z
loop_
_atom_site_type_symbol
_atom_site_label
_atom_site_fract_x
_atom_site_fract_y
_atom_site_fract_z
Si Si1 0.288481 0.385455 0.389060
Si Si2 0.239229 0.239229 0.500000
Si Si3 0.790953 0.501699 0.151675
Si Si4 0.255649 0.156702 0.120025
Si Si5 0.704229 0.095343 0.211824
Si Si6 0.594849 0.029042 0.917278
O O1 0.358163 0.358163 0.500000
O O2 0.257978 0.446027 0.526435
O O3 0.191382 0.329778 0.937991
O O4 0.277812 0.407653 0.158502
O O5 0.175537 0.240925 0.650103
O O6 0.241646 0.314490 0.391985
O O7 0.760739 0.424743 0.169858
O O8 0.801655 0.537829 0.365219
O O9 0.860752 0.497626 0.017343
O O10 0.195383 0.195383 0.000000
O O11 0.644904 0.078774 0.047223
O O12 0.568524 0.969240 0.065916
#
# Coordination Sequence:
#
# PCOD9550827 Si02
#       6
#     8   4   8   8   8   8
#     4   9  19  37  62  88 110 159 209 255 308 376
#     4  10  20  38  62  84 118 156 210 252 304 370
#     4  11  24  37  59  90 123 157 210 266 316 377
#     4  12  23  37  63  91 125 165 209 264 316 373
#     4  11  21  39  61  87 123 162 210 254 322 379
#     4  11  26  37  54  82 124 174 211 247 310 385
#
# _framework density 17.842806
#
# number of rings (size 3 to 8) (size 9 to 14) (size 15 to 20)
#    0.545    0.727    3.636    2.182    7.636    2.909 
#    0.000    0.000    0.000    0.000    7.091    0.000 
#    0.000    0.000    0.000    0.000    0.000    0.000 
#
# Total GULP energy -245352.990762 kJ/mol
# GULP energy per Si atom -5576.204335 kJ/mol
# Density = 1.780220 g / cm^3
# Si number density = 17.842806 Si / 1000 Ang^3
#
#
#
# Elastic Constant Matrix: (Units=GPa)
#
#
# Indices 1 2 3 4 5 6 
#
# 1 4.3242 118.1821 34.3105 0.0000 0.0000 0.0000
# 2 118.1821 4.3242 34.3105 0.0000 0.0000 0.0000
# 3 34.3105 34.3105 112.3953 0.0000 0.0000 0.0000
# 4 0.0000 0.0000 0.0000 24.4671 0.0000 0.0000
# 5 0.0000 0.0000 0.0000 0.0000 24.4671 0.0000
# 6 0.0000 0.0000 0.0000 0.0000 0.0000 20.5022
#
#
#
# Elastic Compliance Matrix: (Units=1/GPa)
#
#
# Indices 1 2 3 4 5 6 
#
# 1 0.000532 0.009315 -0.003006 0.000000 0.000000 0.000000
# 2 0.009315 0.000532 -0.003006 0.000000 0.000000 0.000000
# 3 -0.003006 -0.003006 0.010732 0.000000 0.000000 0.000000
# 4 0.000000 0.000000 0.000000 0.040871 0.000000 0.000000
# 5 0.000000 0.000000 0.000000 0.000000 0.040871 0.000000
# 6 0.000000 0.000000 0.000000 0.000000 0.000000 0.048775
#
#
# Mechanical properties :
#
#
# Convention : Reuss Voigt Hill
#
# Bulk Modulus (GPa) = 54.34156 54.96111 54.65133
# Shear Modulus (GPa) = 35.25063 9.50333 22.37698
#
# Velocity S-wave (km/s) = 4.44962 2.31035 3.54519
# Velocity P-wave (km/s) = 7.54458 6.16334 6.88866
#
# Compressibility (1/GPa) = 0.01840212
#
# Stress axis : x y z
#
# Youngs Moduli (GPa) = 1880.29718 1880.29718 93.17646
#
# Poissons Ratio (x) = -17.51442 0.28007
# Poissons Ratio (y) = -17.51442 0.28007
# Poissons Ratio (z) = 5.65184 5.65184
#
# Static dielectric constant tensor:
#      x y z
#    x 1.615600 0.000000 0.000000 
#    y 0.000000 1.615600 0.000000 
#    z 0.000000 0.000000 1.690070 
# 
# From -- ./inp_files/581.got.cif
#   From: 2010.05.17/outbox.cif.g08.bks.cpg/sg96_1_cif.got.tgz:581.got - 2010.06.03 19:52:08.
