data_PCOD9550692
_publ_section_title
;
Structure prediction by ZEFSAII (Michael W. Deem and Ramdas Pophale) SiO2 
 PCOD9550692
Probable space group: P 43 2 2
;
_chemical_formula_sum "Si O2"
_cell_formula_units_Z 44
_cell_length_a 8.979427
_cell_length_b 8.979427
_cell_length_c 26.820958
_cell_angle_alpha 90.000000
_cell_angle_beta 90.000000
_cell_angle_gamma 90.000000
_cell_volume 2162.576774
_symmetry_space_group_name_H-M "P 43 2 2"
_symmetry_group_IT_number 95
_symmetry_cell_setting 'tetragonal'
loop_
_space_group_symop_operation_xyz
x,y,z
-y,x,3/4+z
-x,-y,1/2+z
y,-x,1/4+z
x,-y,1/2-z
-x,y,-z
y,x,1/4-z
-y,-x,3/4-z
loop_
_atom_site_type_symbol
_atom_site_label
_atom_site_fract_x
_atom_site_fract_y
_atom_site_fract_z
Si Si1 0.027157 0.972844 0.875000
Si Si2 0.177207 0.533625 0.663795
Si Si3 0.241025 0.413542 0.946945
Si Si4 0.716738 0.946093 0.440229
Si Si5 0.391069 0.000000 0.750000
Si Si6 0.832895 0.103475 0.541212
Si Si7 0.419669 0.500000 0.750000
O O1 0.194262 0.004370 0.890855
O O2 0.000078 0.055707 0.822896
O O3 0.247842 0.521305 0.609135
O O4 0.122980 0.700814 0.670247
O O5 0.308123 0.513683 0.703635
O O6 0.032332 0.437918 0.679896
O O7 0.264333 0.233255 0.945320
O O8 0.362477 0.476533 0.985457
O O9 0.090050 0.494210 0.965455
O O10 0.780657 0.025224 0.490282
O O11 0.268406 0.104942 0.777769
#
# Coordination Sequence:
#
# PCOD9550692 Si02
#       7
#     4   8   8   8   4   8   4
#     4  12  24  44  72 102 140 182 246 290 358 444
#     4  12  25  47  73 104 141 196 249 293 374 454
#     4  12  29  44  73 108 147 190 244 310 384 431
#     4  12  26  44  74 104 145 189 245 308 367 444
#     4  12  24  48  70 102 146 180 244 304 362 450
#     4  12  24  45  71 105 138 191 236 302 367 441
#     4  12  26  46  70 104 146 192 246 308 360 446
#
# _framework density 20.346098999999999
#
# number of rings (size 3 to 8) (size 9 to 14) (size 15 to 20)
#    0.000    0.000    7.273    1.636    7.636    0.000 
#    0.000    0.000    0.000    0.000    0.000    0.000 
#    0.000    0.000    0.000    0.000    0.000    0.000 
#
# Total GULP energy -245094.918799 kJ/mol
# GULP energy per Si atom -5570.339064 kJ/mol
# Density = 2.029979 g / cm^3
# Si number density = 20.346099 Si / 1000 Ang^3
#
#
#
# Elastic Constant Matrix: (Units=GPa)
#
#
# Indices 1 2 3 4 5 6 
#
# 1 86.4607 59.4995 25.7406 0.0000 0.0000 0.0000
# 2 59.4995 86.4607 25.7400 0.0000 0.0000 0.0000
# 3 25.7406 25.7400 102.7255 0.0000 0.0000 0.0000
# 4 0.0000 0.0000 0.0000 27.3945 0.0000 0.0000
# 5 0.0000 0.0000 0.0000 0.0000 27.3945 0.0000
# 6 0.0000 0.0000 0.0000 0.0000 0.0000 12.1724
#
#
#
# Elastic Compliance Matrix: (Units=1/GPa)
#
#
# Indices 1 2 3 4 5 6 
#
# 1 0.022303 -0.014787 -0.001883 0.000000 0.000000 0.000000
# 2 -0.014787 0.022303 -0.001883 0.000000 0.000000 0.000000
# 3 -0.001883 -0.001883 0.010678 0.000000 0.000000 0.000000
# 4 0.000000 0.000000 0.000000 0.036504 0.000000 0.000000
# 5 0.000000 0.000000 0.000000 0.000000 0.036504 0.000000
# 6 0.000000 0.000000 0.000000 0.000000 0.000000 0.082153
#
#
# Mechanical properties :
#
#
# Convention : Reuss Voigt Hill
#
# Bulk Modulus (GPa) = 55.01593 55.28967 55.15280
# Shear Modulus (GPa) = 19.71523 24.37005 22.04264
#
# Velocity S-wave (km/s) = 3.11624 3.46464 3.29505
# Velocity P-wave (km/s) = 6.32825 6.57560 6.45311
#
# Compressibility (1/GPa) = 0.01817655
#
# Stress axis : x y z
#
# Youngs Moduli (GPa) = 44.83727 44.83742 93.64679
#
# Poissons Ratio (x) = 0.66303 0.17636
# Poissons Ratio (y) = 0.66303 0.17634
# Poissons Ratio (z) = 0.08444 0.08443
#
# Static dielectric constant tensor:
#      x y z
#    x 1.818510 0.000000 0.000000 
#    y 0.000000 1.818510 0.000000 
#    z 0.000000 0.000000 1.766930 
# 
# From -- ./inp_files/7856.got.cif
#   From: 2010.05.17/outbox.cif.g08.bks.cpg/sg95_4_cif.got.tgz:7856.got - 2010.06.03 19:46:49.
