data_PCOD9550167
_publ_section_title
;
Structure prediction by ZEFSAII (Michael W. Deem and Ramdas Pophale) SiO2 
 PCOD9550167
Probable space group: P 42 21 2
;
_chemical_formula_sum "Si O2"
_cell_formula_units_Z 44
_cell_length_a 8.312854
_cell_length_b 8.312854
_cell_length_c 32.961276
_cell_angle_alpha 90.000000
_cell_angle_beta 90.000000
_cell_angle_gamma 90.000000
_cell_volume 2277.740908
_symmetry_space_group_name_H-M "P 42 21 2"
_symmetry_group_IT_number 94
_symmetry_cell_setting 'tetragonal'
loop_
_space_group_symop_operation_xyz
x,y,z
1/2-y,1/2+x,1/2+z
-x,-y,z
1/2+y,1/2-x,1/2+z
1/2+x,1/2-y,1/2-z
1/2-x,1/2+y,1/2-z
y,x,-z
-y,-x,-z
loop_
_atom_site_type_symbol
_atom_site_label
_atom_site_fract_x
_atom_site_fract_y
_atom_site_fract_z
Si Si1 0.500000 0.000000 0.917010
Si Si2 0.180569 0.944493 0.703583
Si Si3 0.825365 0.958879 0.865325
Si Si4 0.891040 0.160342 0.545031
Si Si5 0.676472 0.938233 0.785487
Si Si6 0.415173 0.170061 0.120967
O O1 0.665716 0.009291 0.890517
O O2 0.524373 0.829554 0.941247
O O3 0.182817 0.752906 0.709497
O O4 0.235577 0.996985 0.658462
O O5 0.286534 0.017637 0.739421
O O6 0.000000 0.000000 0.709863
O O7 0.797513 0.014245 0.818843
O O8 0.839935 0.767268 0.864217
O O9 0.000000 0.000000 0.882917
O O10 0.818694 0.181306 0.500000
O O11 0.762676 0.106856 0.578879
O O12 0.000000 0.000000 0.543309
O O13 0.500000 0.000000 0.796431
O O14 0.500000 0.000000 0.115676
#
# Coordination Sequence:
#
# PCOD9550167 Si02
#       6
#     4   8   8   8   8   8
#     4  10  22  44  64  96 132 162 216 274 310 398
#     4  11  23  38  57  87 122 170 213 262 322 378
#     4  10  22  39  63  90 124 173 210 259 325 376
#     4  10  23  43  68  97 127 170 209 264 338 387
#     4  11  22  38  57  84 126 166 216 266 313 375
#     4  10  23  39  61  93 125 159 214 264 320 387
#
# _framework density 19.317388000000001
#
# number of rings (size 3 to 8) (size 9 to 14) (size 15 to 20)
#    0.000    1.636    0.909    2.727    3.818    5.818 
#    0.000    0.000    0.000    4.909    0.000    0.000 
#    0.000    0.000    0.000    0.000    0.000    0.000 
#
# Total GULP energy -245130.558310 kJ/mol
# GULP energy per Si atom -5571.149053 kJ/mol
# Density = 1.927342 g / cm^3
# Si number density = 19.317388 Si / 1000 Ang^3
#
#
#
# Elastic Constant Matrix: (Units=GPa)
#
#
# Indices 1 2 3 4 5 6 
#
# 1 97.6521 41.2896 47.0337 0.0000 0.0000 0.0000
# 2 41.2896 97.6521 47.0337 0.0000 0.0000 0.0000
# 3 47.0337 47.0337 122.2013 0.0000 0.0000 0.0000
# 4 0.0000 0.0000 0.0000 45.9417 0.0000 0.0000
# 5 0.0000 0.0000 0.0000 0.0000 45.9417 0.0000
# 6 0.0000 0.0000 0.0000 0.0000 0.0000 37.2793
#
#
#
# Elastic Compliance Matrix: (Units=1/GPa)
#
#
# Indices 1 2 3 4 5 6 
#
# 1 0.013738 -0.004004 -0.003746 0.000000 0.000000 0.000000
# 2 -0.004004 0.013738 -0.003746 0.000000 0.000000 0.000000
# 3 -0.003746 -0.003746 0.011067 0.000000 0.000000 0.000000
# 4 0.000000 0.000000 0.000000 0.021767 0.000000 0.000000
# 5 0.000000 0.000000 0.000000 0.000000 0.021767 0.000000
# 6 0.000000 0.000000 0.000000 0.000000 0.000000 0.026825
#
#
# Mechanical properties :
#
#
# Convention : Reuss Voigt Hill
#
# Bulk Modulus (GPa) = 64.31307 65.35774 64.83540
# Shear Modulus (GPa) = 36.47557 37.97577 37.22567
#
# Velocity S-wave (km/s) = 4.35009 4.43864 4.39459
# Velocity P-wave (km/s) = 7.65481 7.75731 7.70623
#
# Compressibility (1/GPa) = 0.01554894
#
# Stress axis : x y z
#
# Youngs Moduli (GPa) = 72.79097 72.79097 90.35817
#
# Poissons Ratio (x) = 0.29148 0.33851
# Poissons Ratio (y) = 0.29148 0.33851
# Poissons Ratio (z) = 0.27270 0.27270
#
# Static dielectric constant tensor:
#      x y z
#    x 0.104700 0.000000 0.000000 
#    y 0.000000 0.104700 0.000000 
#    z 0.000000 0.000000 1.719730 
# 
# From -- ./inp_files/5490.got.cif
#   From: 2010.05.17/outbox.cif.g08.bks.cpg/sg94_3_cif.got.tgz:5490.got - 2010.06.03 19:43:16.
