data_PCOD9550844
_publ_section_title
;
Structure prediction by ZEFSAII (Michael W. Deem and Ramdas Pophale) SiO2 
 PCOD9550844
Probable space group: P 43 21 2
;
_chemical_formula_sum "Si O2"
_cell_formula_units_Z 56
_cell_length_a 10.723304
_cell_length_b 10.723304
_cell_length_c 21.999744
_cell_angle_alpha 90.000000
_cell_angle_beta 90.000000
_cell_angle_gamma 90.000000
_cell_volume 2529.734034
_symmetry_space_group_name_H-M "P 43 21 2"
_symmetry_group_IT_number 96
_symmetry_cell_setting 'tetragonal'
loop_
_space_group_symop_operation_xyz
x,y,z
1/2-y,1/2+x,3/4+z
-x,-y,1/2+z
1/2+y,1/2-x,1/4+z
1/2+x,1/2-y,1/4-z
1/2-x,1/2+y,3/4-z
y,x,-z
-y,-x,1/2-z
loop_
_atom_site_type_symbol
_atom_site_label
_atom_site_fract_x
_atom_site_fract_y
_atom_site_fract_z
Si Si1 0.913381 0.440900 0.031006
Si Si2 0.769201 0.977636 0.824664
Si Si3 0.949054 0.787094 0.461899
Si Si4 0.086025 0.351918 0.264145
Si Si5 0.698373 0.707885 0.845999
Si Si6 0.626185 0.540549 0.566567
Si Si7 0.911516 0.296437 0.153444
O O1 0.906239 0.394870 0.099450
O O2 0.004351 0.558056 0.024434
O O3 0.789405 0.469519 0.992810
O O4 0.983585 0.324351 0.998801
O O5 0.714375 0.854996 0.859153
O O6 0.916077 0.952788 0.823802
O O7 0.744586 0.109529 0.856584
O O8 0.904442 0.904442 0.500000
O O9 0.825808 0.718743 0.437298
O O10 0.053211 0.821032 0.412797
O O11 0.225920 0.315363 0.282518
O O12 0.003039 0.269513 0.311360
O O13 0.030537 0.318885 0.197622
O O14 0.594548 0.594548 0.500000
O O15 0.594613 0.650820 0.612935
#
# Coordination Sequence:
#
# PCOD9550844 Si02
#       7
#     8   8   8   8   8   8   8
#     4  10  22  38  65  96 125 173 222 270 336 402
#     4  10  23  44  63  97 138 179 226 278 344 416
#     4  10  22  42  61  96 129 163 223 282 334 398
#     4   9  20  40  62  91 124 170 220 261 334 405
#     4  10  23  43  66  89 144 179 221 283 331 424
#     4   9  19  40  61  93 127 162 220 281 333 395
#     4  10  20  39  70  93 126 172 220 286 335 391
#
# _framework density 22.136714000000001
#
# number of rings (size 3 to 8) (size 9 to 14) (size 15 to 20)
#    0.000    2.286    0.000    2.143    8.000    1.143 
#   20.571    0.000    0.000    0.000    0.000    0.000 
#    0.000    0.000    0.000    0.000    0.000    0.000 
#
# Total GULP energy -312446.160986 kJ/mol
# GULP energy per Si atom -5579.395732 kJ/mol
# Density = 2.208633 g / cm^3
# Si number density = 22.136714 Si / 1000 Ang^3
#
#
#
# Elastic Constant Matrix: (Units=GPa)
#
#
# Indices 1 2 3 4 5 6 
#
# 1 78.8055 13.1656 4.9337 0.0000 0.0000 0.0000
# 2 13.1656 78.8055 4.9337 0.0000 0.0000 0.0000
# 3 4.9337 4.9337 38.8021 0.0000 0.0000 0.0000
# 4 0.0000 0.0000 0.0000 19.5276 0.0000 0.0000
# 5 0.0000 0.0000 0.0000 0.0000 19.5276 0.0000
# 6 0.0000 0.0000 0.0000 0.0000 0.0000 23.8061
#
#
#
# Elastic Compliance Matrix: (Units=1/GPa)
#
#
# Indices 1 2 3 4 5 6 
#
# 1 0.013129 -0.002106 -0.001402 0.000000 0.000000 0.000000
# 2 -0.002106 0.013129 -0.001402 0.000000 0.000000 0.000000
# 3 -0.001402 -0.001402 0.026128 0.000000 0.000000 0.000000
# 4 0.000000 0.000000 0.000000 0.051210 0.000000 0.000000
# 5 0.000000 0.000000 0.000000 0.000000 0.051210 0.000000
# 6 0.000000 0.000000 0.000000 0.000000 0.000000 0.042006
#
#
# Mechanical properties :
#
#
# Convention : Reuss Voigt Hill
#
# Bulk Modulus (GPa) = 23.49156 26.94212 25.21684
# Shear Modulus (GPa) = 22.64298 24.13091 23.38695
#
# Velocity S-wave (km/s) = 3.20170 3.30523 3.25388
# Velocity P-wave (km/s) = 4.92980 5.17332 5.05303
#
# Compressibility (1/GPa) = 0.04256847
#
# Stress axis : x y z
#
# Youngs Moduli (GPa) = 76.16727 76.16727 38.27273
#
# Poissons Ratio (x) = 0.16038 0.05364
# Poissons Ratio (y) = 0.16038 0.05364
# Poissons Ratio (z) = 0.10676 0.10676
#
# Static dielectric constant tensor:
#      x y z
#    x 1.830180 0.000000 0.000000 
#    y 0.000000 1.830180 0.000000 
#    z 0.000000 0.000000 1.862290 
# 
# From -- ./inp_files/3941.got.cif
#   From: 2010.05.17/outbox.cif.g08.bks.cpg/sg96_2_cif.got.tgz:3941.got - 2010.06.03 19:52:08.
