data_PCOD9550870
_publ_section_title
;
Structure prediction by ZEFSAII (Michael W. Deem and Ramdas Pophale) SiO2 
 PCOD9550870
Probable space group: P 43 21 2
;
_chemical_formula_sum "Si O2"
_cell_formula_units_Z 36
_cell_length_a 7.967943
_cell_length_b 7.967943
_cell_length_c 25.281469
_cell_angle_alpha 90.000000
_cell_angle_beta 90.000000
_cell_angle_gamma 90.000000
_cell_volume 1605.072828
_symmetry_space_group_name_H-M "P 43 21 2"
_symmetry_group_IT_number 96
_symmetry_cell_setting 'tetragonal'
loop_
_space_group_symop_operation_xyz
x,y,z
1/2-y,1/2+x,3/4+z
-x,-y,1/2+z
1/2+y,1/2-x,1/4+z
1/2+x,1/2-y,1/4-z
1/2-x,1/2+y,3/4-z
y,x,-z
-y,-x,1/2-z
loop_
_atom_site_type_symbol
_atom_site_label
_atom_site_fract_x
_atom_site_fract_y
_atom_site_fract_z
Si Si1 0.574879 0.574879 0.000000
Si Si2 0.974817 0.240729 0.561772
Si Si3 0.415203 0.822586 0.295180
Si Si4 0.126128 0.053969 0.137394
Si Si5 0.514929 0.089677 0.141803
O O1 0.772633 0.563808 0.983017
O O2 0.476956 0.539427 0.945079
O O3 0.172363 0.192783 0.571865
O O4 0.968329 0.232529 0.498445
O O5 0.920995 0.431709 0.573816
O O6 0.886755 0.107127 0.599181
O O7 0.527519 0.928246 0.333984
O O8 0.318365 0.085137 0.149660
O O9 0.066982 0.217440 0.105212
#
# Coordination Sequence:
#
# PCOD9550870 Si02
#       5
#     4   8   8   8   8
#     4  10  20  44  68  94 130 198 228 276 368 424
#     4  10  21  46  71  94 138 183 228 289 351 414
#     4  10  21  44  72  96 130 191 228 284 366 413
#     4  12  25  43  71 101 142 183 234 291 351 426
#     4  12  23  42  67 102 134 178 234 282 344 422
#
# _framework density 22.428888000000001
#
# number of rings (size 3 to 8) (size 9 to 14) (size 15 to 20)
#    0.000    1.333    6.667    1.333    0.000    1.778 
#   16.000    0.000    0.000    0.000    0.000    0.000 
#    0.000    0.000    0.000    0.000    0.000    0.000 
#
# Total GULP energy -200620.556167 kJ/mol
# GULP energy per Si atom -5572.793227 kJ/mol
# Density = 2.237784 g / cm^3
# Si number density = 22.428888 Si / 1000 Ang^3
#
#
#
# Elastic Constant Matrix: (Units=GPa)
#
#
# Indices 1 2 3 4 5 6 
#
# 1 29.9628 -18.9559 -5.3870 0.0000 0.0000 0.0000
# 2 -18.9559 29.9628 -5.3870 0.0000 0.0000 0.0000
# 3 -5.3870 -5.3870 54.6110 0.0000 0.0000 0.0000
# 4 0.0000 0.0000 0.0000 25.5075 0.0000 0.0000
# 5 0.0000 0.0000 0.0000 0.0000 25.5075 0.0000
# 6 0.0000 0.0000 0.0000 0.0000 0.0000 36.4121
#
#
#
# Elastic Compliance Matrix: (Units=1/GPa)
#
#
# Indices 1 2 3 4 5 6 
#
# 1 0.060502 0.040060 0.009920 0.000000 0.000000 0.000000
# 2 0.040060 0.060502 0.009920 0.000000 0.000000 0.000000
# 3 0.009920 0.009920 0.020268 0.000000 0.000000 0.000000
# 4 0.000000 0.000000 0.000000 0.039204 0.000000 0.000000
# 5 0.000000 0.000000 0.000000 0.000000 0.039204 0.000000
# 6 0.000000 0.000000 0.000000 0.000000 0.000000 0.027463
#
#
# Mechanical properties :
#
#
# Convention : Reuss Voigt Hill
#
# Bulk Modulus (GPa) = 3.83037 6.11964 4.97501
# Shear Modulus (GPa) = 23.32426 27.10318 25.21372
#
# Velocity S-wave (km/s) = 3.22828 3.47998 3.35649
# Velocity P-wave (km/s) = 3.95060 4.34528 4.15263
#
# Compressibility (1/GPa) = 0.26107135
#
# Stress axis : x y z
#
# Youngs Moduli (GPa) = 16.52838 16.52838 49.33801
#
# Poissons Ratio (x) = -0.66213 -0.48942
# Poissons Ratio (y) = -0.66213 -0.48942
# Poissons Ratio (z) = -0.16396 -0.16396
#
# Static dielectric constant tensor:
#      x y z
#    x 1.884400 0.000000 0.000000 
#    y 0.000000 1.884400 0.000000 
#    z 0.000000 0.000000 1.886720 
# 
# From -- ./inp_files/4078.got.cif
#   From: 2010.05.17/outbox.cif.g08.bks.cpg/sg96_3_cif.got.tgz:4078.got - 2010.06.03 19:52:08.
