data_PCOD9550293
_publ_section_title
;
Structure prediction by ZEFSAII (Michael W. Deem and Ramdas Pophale) SiO2 
 PCOD9550293
Probable space group: P 42 21 2
;
_chemical_formula_sum "Si O2"
_cell_formula_units_Z 56
_cell_length_a 14.649079
_cell_length_b 14.649079
_cell_length_c 11.754623
_cell_angle_alpha 90.000000
_cell_angle_beta 90.000000
_cell_angle_gamma 90.000000
_cell_volume 2522.489383
_symmetry_space_group_name_H-M "P 42 21 2"
_symmetry_group_IT_number 94
_symmetry_cell_setting 'tetragonal'
loop_
_space_group_symop_operation_xyz
x,y,z
1/2-y,1/2+x,1/2+z
-x,-y,z
1/2+y,1/2-x,1/2+z
1/2+x,1/2-y,1/2-z
1/2-x,1/2+y,1/2-z
y,x,-z
-y,-x,-z
loop_
_atom_site_type_symbol
_atom_site_label
_atom_site_fract_x
_atom_site_fract_y
_atom_site_fract_z
Si Si1 0.665933 0.814471 0.462047
Si Si2 0.225915 0.010975 0.039318
Si Si3 0.683092 0.962811 0.638291
Si Si4 0.506150 0.647592 0.977352
Si Si5 0.330168 0.139027 0.200847
Si Si6 0.026444 0.103929 0.763301
Si Si7 0.146635 0.228487 0.168752
O O1 0.756367 0.756367 0.500000
O O2 0.578927 0.748726 0.469108
O O3 0.636847 0.895140 0.547918
O O4 0.678231 0.854803 0.336978
O O5 0.293599 0.048136 0.138418
O O6 0.135288 0.992584 0.113067
O O7 0.227047 0.094486 0.950740
O O8 0.696688 0.899419 0.749793
O O9 0.773846 0.985448 0.565547
O O10 0.647786 0.063124 0.670303
O O11 0.505194 0.665321 0.842540
O O12 0.603156 0.603156 0.000000
O O13 0.428392 0.571608 0.000000
O O14 0.256718 0.218682 0.162542
O O15 0.134421 0.116079 0.771294
O O16 0.000000 0.000000 0.739494
#
# Coordination Sequence:
#
# PCOD9550293 Si02
#       7
#     8   8   8   8   8   8   8
#     4  12  26  47  77 106 145 189 250 306 360 445
#     4  11  27  45  66 108 146 191 245 301 370 436
#     4  12  23  43  74  99 139 192 242 299 364 432
#     4  11  20  36  60  98 136 173 232 297 363 432
#     4  11  25  48  71 103 144 188 245 301 376 438
#     4  11  21  37  64  98 143 185 232 301 377 442
#     4  11  22  44  67  99 146 183 230 309 361 431
#
# _framework density 22.200292000000001
#
# number of rings (size 3 to 8) (size 9 to 14) (size 15 to 20)
#    0.000    0.714    5.714    3.857    2.000    3.429 
#    5.143    1.429    0.000    0.000    0.000    0.000 
#    0.000    0.000    0.000    0.000    0.000    0.000 
#
# Total GULP energy -312413.288326 kJ/mol
# GULP energy per Si atom -5578.808720 kJ/mol
# Density = 2.214976 g / cm^3
# Si number density = 22.200292 Si / 1000 Ang^3
#
#
#
# Elastic Constant Matrix: (Units=GPa)
#
#
# Indices 1 2 3 4 5 6 
#
# 1 61.3324 8.5474 17.0470 0.0000 0.0000 0.0000
# 2 8.5474 61.3325 17.0464 0.0000 0.0000 0.0000
# 3 17.0470 17.0464 156.8096 0.0000 0.0000 0.0000
# 4 0.0000 0.0000 0.0000 27.3809 0.0000 0.0000
# 5 0.0000 0.0000 0.0000 0.0000 27.3809 0.0000
# 6 0.0000 0.0000 0.0000 0.0000 0.0000 30.8212
#
#
#
# Elastic Compliance Matrix: (Units=1/GPa)
#
#
# Indices 1 2 3 4 5 6 
#
# 1 0.017028 -0.001916 -0.001643 0.000000 0.000000 0.000000
# 2 -0.001916 0.017028 -0.001643 0.000000 0.000000 0.000000
# 3 -0.001643 -0.001643 0.006734 0.000000 0.000000 0.000000
# 4 0.000000 0.000000 0.000000 0.036522 0.000000 0.000000
# 5 0.000000 0.000000 0.000000 0.000000 0.036522 0.000000
# 6 0.000000 0.000000 0.000000 0.000000 0.000000 0.032445
#
#
# Mechanical properties :
#
#
# Convention : Reuss Voigt Hill
#
# Bulk Modulus (GPa) = 32.90913 40.52845 36.71879
# Shear Modulus (GPa) = 29.97373 32.90551 31.43962
#
# Velocity S-wave (km/s) = 3.67843 3.85413 3.76730
# Velocity P-wave (km/s) = 5.73559 6.17261 5.95811
#
# Compressibility (1/GPa) = 0.03038670
#
# Stress axis : x y z
#
# Youngs Moduli (GPa) = 58.72577 58.72597 148.49270
#
# Poissons Ratio (x) = 0.11255 0.24395
# Poissons Ratio (y) = 0.11255 0.24394
# Poissons Ratio (z) = 0.09648 0.09647
#
# Static dielectric constant tensor:
#      x y z
#    x 1.911350 0.000000 0.000000 
#    y 0.000000 1.911350 0.000000 
#    z 0.000000 0.000000 1.861810 
# 
# From -- ./inp_files/2739.got.cif
#   From: 2010.05.17/outbox.cif.g08.bks.cpg/sg94_2_cif.got.tgz:2739.got - 2010.06.03 19:43:16.
