data_PCOD9550641
_publ_section_title
;
Structure prediction by ZEFSAII (Michael W. Deem and Ramdas Pophale) SiO2 
 PCOD9550641
Probable space group: P 43 2 2
;
_chemical_formula_sum "Si O2"
_cell_formula_units_Z 20
_cell_length_a 6.920633
_cell_length_b 6.920633
_cell_length_c 18.991129
_cell_angle_alpha 90.000000
_cell_angle_beta 90.000000
_cell_angle_gamma 90.000000
_cell_volume 909.583183
_symmetry_space_group_name_H-M "P 43 2 2"
_symmetry_group_IT_number 95
_symmetry_cell_setting 'tetragonal'
loop_
_space_group_symop_operation_xyz
x,y,z
-y,x,3/4+z
-x,-y,1/2+z
y,-x,1/4+z
x,-y,1/2-z
-x,y,-z
y,x,1/4-z
-y,-x,3/4-z
loop_
_atom_site_type_symbol
_atom_site_label
_atom_site_fract_x
_atom_site_fract_y
_atom_site_fract_z
Si Si1 0.046187 0.211762 0.755500
Si Si2 0.000000 0.330374 0.000000
Si Si3 0.825801 0.520705 0.136359
O O1 0.160540 0.661505 0.688512
O O2 0.822716 0.166797 0.774708
O O3 0.134472 0.000000 0.750000
O O4 0.056447 0.317244 0.680373
O O5 0.080974 0.454166 0.936158
O O6 0.616097 0.616097 0.125000
#
# Coordination Sequence:
#
# PCOD9550641 Si02
#       3
#     8   4   8
#     4   9  24  47  76 104 156 206 238 320 400 447
#     4  10  24  44  76 112 154 204 250 320 394 460
#     4  11  24  42  77 117 147 196 266 313 379 471
#
# _framework density 21.988092000000002
#
# number of rings (size 3 to 8) (size 9 to 14) (size 15 to 20)
#    1.200    0.800    0.000    1.200    8.400    3.200 
#    0.000   16.000    0.000    0.000    0.000    0.000 
#    0.000    0.000    0.000    0.000    0.000    0.000 
#
# Total GULP energy -111644.438265 kJ/mol
# GULP energy per Si atom -5582.221913 kJ/mol
# Density = 2.193805 g / cm^3
# Si number density = 21.988092 Si / 1000 Ang^3
#
#
#
# Elastic Constant Matrix: (Units=GPa)
#
#
# Indices 1 2 3 4 5 6 
#
# 1 153.6927 72.8276 87.1337 0.0000 0.0000 0.0000
# 2 72.8276 153.6927 87.1337 0.0000 0.0000 0.0000
# 3 87.1337 87.1337 166.6887 0.0000 0.0000 0.0000
# 4 0.0000 0.0000 0.0000 31.7360 0.0000 0.0000
# 5 0.0000 0.0000 0.0000 0.0000 31.7360 0.0000
# 6 0.0000 0.0000 0.0000 0.0000 0.0000 37.7916
#
#
#
# Elastic Compliance Matrix: (Units=1/GPa)
#
#
# Indices 1 2 3 4 5 6 
#
# 1 0.009875 -0.002491 -0.003860 0.000000 0.000000 0.000000
# 2 -0.002491 0.009875 -0.003860 0.000000 0.000000 0.000000
# 3 -0.003860 -0.003860 0.010035 0.000000 0.000000 0.000000
# 4 0.000000 0.000000 0.000000 0.031510 0.000000 0.000000
# 5 0.000000 0.000000 0.000000 0.000000 0.031510 0.000000
# 6 0.000000 0.000000 0.000000 0.000000 0.000000 0.026461
#
#
# Mechanical properties :
#
#
# Convention : Reuss Voigt Hill
#
# Bulk Modulus (GPa) = 106.80120 107.58490 107.19305
# Shear Modulus (GPa) = 35.01184 35.38466 35.19825
#
# Velocity S-wave (km/s) = 3.99470 4.01592 4.00532
# Velocity P-wave (km/s) = 8.36389 8.39871 8.38132
#
# Compressibility (1/GPa) = 0.00936319
#
# Stress axis : x y z
#
# Youngs Moduli (GPa) = 101.26357 101.26357 99.65471
#
# Poissons Ratio (x) = 0.25225 0.38466
# Poissons Ratio (y) = 0.25225 0.38466
# Poissons Ratio (z) = 0.39087 0.39087
#
# Static dielectric constant tensor:
#      x y z
#    x 1.835230 0.000000 0.000000 
#    y 0.000000 1.835230 0.000000 
#    z 0.000000 0.000000 1.841960 
# 
# From -- ./inp_files/7543.got.cif
#   From: 2010.05.17/outbox.cif.g08.bks.cpg/sg95_4_cif.got.tgz:7543.got - 2010.06.03 19:46:49.
