data_PCOD9550014
_publ_section_title
;
Structure prediction by ZEFSAII (Michael W. Deem and Ramdas Pophale) SiO2 
 PCOD9550014
Probable space group: P 42 21 2
;
_chemical_formula_sum "Si O2"
_cell_formula_units_Z 56
_cell_length_a 10.812318
_cell_length_b 10.812318
_cell_length_c 20.557862
_cell_angle_alpha 90.000000
_cell_angle_beta 90.000000
_cell_angle_gamma 90.000000
_cell_volume 2403.341949
_symmetry_space_group_name_H-M "P 42 21 2"
_symmetry_group_IT_number 94
_symmetry_cell_setting 'tetragonal'
loop_
_space_group_symop_operation_xyz
x,y,z
1/2-y,1/2+x,1/2+z
-x,-y,z
1/2+y,1/2-x,1/2+z
1/2+x,1/2-y,1/2-z
1/2-x,1/2+y,1/2-z
y,x,-z
-y,-x,-z
loop_
_atom_site_type_symbol
_atom_site_label
_atom_site_fract_x
_atom_site_fract_y
_atom_site_fract_z
Si Si1 0.616999 0.549210 0.797949
Si Si2 0.143458 0.046093 0.058926
Si Si3 0.171451 0.336196 0.637184
Si Si4 0.147325 0.653234 0.992988
Si Si5 0.579192 0.174559 0.140998
Si Si6 0.673475 0.055883 0.267440
Si Si7 0.697379 0.426910 0.671950
O O1 0.500000 0.500000 0.838785
O O2 0.745643 0.536209 0.834618
O O3 0.591669 0.682896 0.769622
O O4 0.629996 0.451322 0.739462
O O5 0.161121 0.117506 0.126234
O O6 0.238013 0.941919 0.035395
O O7 0.143281 0.143281 0.000000
O O8 0.000000 0.000000 0.063941
O O9 0.111122 0.371327 0.567205
O O10 0.233669 0.200330 0.639806
O O11 0.281005 0.436510 0.642465
O O12 0.074472 0.346529 0.696474
O O13 0.139390 0.557882 0.933859
O O14 0.280808 0.719193 0.000000
O O15 0.617275 0.073556 0.195258
O O16 0.616827 0.165093 0.311813
#
# Coordination Sequence:
#
# PCOD9550014 Si02
#       7
#     8   8   8   8   8   8   8
#     4  11  22  39  61  89 119 160 215 263 310 381
#     4  11  18  33  60  95 121 151 200 259 318 380
#     4  11  20  40  63  89 128 166 209 266 331 387
#     4  10  20  35  62  93 126 159 206 263 327 376
#     4  10  22  38  62  94 122 159 216 270 316 385
#     4  11  24  39  63  89 125 170 213 261 328 390
#     4  11  23  37  60  91 128 159 205 268 327 379
#
# _framework density 23.300886999999999
#
# number of rings (size 3 to 8) (size 9 to 14) (size 15 to 20)
#    0.000    1.286    5.714    1.714    2.000    0.000 
#    0.000    2.143    0.000    0.000    0.000    0.000 
#    0.000    0.000    0.000    0.000    0.000    0.000 
#
# Total GULP energy -312623.894134 kJ/mol
# GULP energy per Si atom -5582.569538 kJ/mol
# Density = 2.324785 g / cm^3
# Si number density = 23.300887 Si / 1000 Ang^3
#
#
#
# Elastic Constant Matrix: (Units=GPa)
#
#
# Indices 1 2 3 4 5 6 
#
# 1 57.8951 18.8447 19.1502 0.0000 0.0000 0.0000
# 2 18.8447 57.8956 19.1502 0.0000 0.0000 0.0000
# 3 19.1502 19.1502 163.3297 0.0000 0.0000 0.0000
# 4 0.0000 0.0000 0.0000 18.0744 0.0000 0.0000
# 5 0.0000 0.0000 0.0000 0.0000 18.0742 0.0000
# 6 0.0000 0.0000 0.0000 0.0000 0.0000 33.9595
#
#
#
# Elastic Compliance Matrix: (Units=1/GPa)
#
#
# Indices 1 2 3 4 5 6 
#
# 1 0.019724 -0.005883 -0.001623 0.000000 0.000000 0.000000
# 2 -0.005883 0.019724 -0.001623 0.000000 0.000000 0.000000
# 3 -0.001623 -0.001623 0.006503 0.000000 0.000000 0.000000
# 4 0.000000 0.000000 0.000000 0.055327 0.000000 0.000000
# 5 0.000000 0.000000 0.000000 0.000000 0.055328 0.000000
# 6 0.000000 0.000000 0.000000 0.000000 0.000000 0.029447
#
#
# Mechanical properties :
#
#
# Convention : Reuss Voigt Hill
#
# Bulk Modulus (GPa) = 36.10932 43.71230 39.91081
# Shear Modulus (GPa) = 23.41453 28.81997 26.11725
#
# Velocity S-wave (km/s) = 3.17342 3.52072 3.35157
# Velocity P-wave (km/s) = 5.38127 5.94373 5.66948
#
# Compressibility (1/GPa) = 0.02769368
#
# Stress axis : x y z
#
# Youngs Moduli (GPa) = 50.69849 50.69897 153.77204
#
# Poissons Ratio (x) = 0.29828 0.24955
# Poissons Ratio (y) = 0.29828 0.24954
# Poissons Ratio (z) = 0.08228 0.08228
#
# Static dielectric constant tensor:
#      x y z
#    x 1.947990 0.000000 0.000000 
#    y 0.000000 1.947980 0.000000 
#    z 0.000000 0.000000 1.955480 
# 
# From -- ./inp_files/4728.got.cif
#   From: 2010.05.17/outbox.cif.g08.bks.cpg/sg94_3_cif.got.tgz:4728.got - 2010.06.03 19:43:16.
