data_PCOD9550301
_publ_section_title
;
Structure prediction by ZEFSAII (Michael W. Deem and Ramdas Pophale) SiO2 
 PCOD9550301
Probable space group: P 42 21 2
;
_chemical_formula_sum "Si O2"
_cell_formula_units_Z 40
_cell_length_a 16.516224
_cell_length_b 16.516224
_cell_length_c 6.741249
_cell_angle_alpha 90.000000
_cell_angle_beta 90.000000
_cell_angle_gamma 90.000000
_cell_volume 1838.916025
_symmetry_space_group_name_H-M "P 42 21 2"
_symmetry_group_IT_number 94
_symmetry_cell_setting 'tetragonal'
loop_
_space_group_symop_operation_xyz
x,y,z
1/2-y,1/2+x,1/2+z
-x,-y,z
1/2+y,1/2-x,1/2+z
1/2+x,1/2-y,1/2-z
1/2-x,1/2+y,1/2-z
y,x,-z
-y,-x,-z
loop_
_atom_site_type_symbol
_atom_site_label
_atom_site_fract_x
_atom_site_fract_y
_atom_site_fract_z
Si Si1 0.307273 0.953949 0.625010
Si Si2 0.295552 0.590669 0.377246
Si Si3 0.306566 0.807457 0.922352
Si Si4 0.854465 0.400836 0.681531
Si Si5 0.364467 0.499107 0.042257
O O1 0.295938 0.878681 0.768386
O O2 0.348294 0.922820 0.423668
O O3 0.371860 0.010602 0.736128
O O4 0.218980 0.993022 0.583832
O O5 0.365259 0.634742 0.500000
O O6 0.263948 0.648614 0.199160
O O7 0.218649 0.584508 0.524029
O O8 0.331515 0.512126 0.267166
O O9 0.220931 0.779070 0.000000
O O10 0.355695 0.828028 0.118940
O O11 0.420057 0.420057 0.000000
O O12 0.423901 0.576100 0.000000
#
# Coordination Sequence:
#
# PCOD9550301 Si02
#       5
#     8   8   8   8   8
#     4  11  27  44  75 102 144 194 245 304 369 441
#     4  11  21  41  76 102 143 195 244 295 366 437
#     4  11  23  42  74 109 141 186 252 309 357 441
#     4  11  25  45  69 106 140 190 245 305 372 431
#     4  11  25  46  71 109 157 192 239 302 378 456
#
# _framework density 21.751943000000001
#
# number of rings (size 3 to 8) (size 9 to 14) (size 15 to 20)
#    0.000    1.000    4.000    1.800    5.600    0.000 
#    0.000    9.000    0.000    0.000    0.000    0.000 
#    0.000    0.000    0.000    0.000    0.000    0.000 
#
# Total GULP energy -223326.414471 kJ/mol
# GULP energy per Si atom -5583.160362 kJ/mol
# Density = 2.170243 g / cm^3
# Si number density = 21.751943 Si / 1000 Ang^3
#
#
#
# Elastic Constant Matrix: (Units=GPa)
#
#
# Indices 1 2 3 4 5 6 
#
# 1 66.9058 52.2423 30.8294 0.0000 0.0000 0.0000
# 2 52.2423 66.9017 30.8284 0.0000 0.0000 0.0000
# 3 30.8294 30.8284 122.7853 0.0000 0.0000 0.0000
# 4 0.0000 0.0000 0.0000-3104.3169 0.0000 0.0000
# 5 0.0000 0.0000 0.0000 0.0000-2651.4718 0.0000
# 6 0.0000 0.0000 0.0000 0.0000 0.0000 30.6109
#
#
#
# Elastic Compliance Matrix: (Units=1/GPa)
#
#
# Indices 1 2 3 4 5 6 
#
# 1 0.038925 -0.029280 -0.002422 0.000000 0.000000 0.000000
# 2 -0.029280 0.038927 -0.002422 0.000000 0.000000 0.000000
# 3 -0.002422 -0.002422 0.009361 0.000000 0.000000 0.000000
# 4 0.000000 0.000000 0.000000 -0.000322 0.000000 0.000000
# 5 0.000000 0.000000 0.000000 0.000000 -0.000377 0.000000
# 6 0.000000 0.000000 0.000000 0.000000 0.000000 0.032668
#
#
# Mechanical properties :
#
#
# Convention : Reuss Voigt Hill
#
# Bulk Modulus (GPa) = 52.72778 53.82144 53.27461
# Shear Modulus (GPa) = 25.80632 -1135.52272 -554.85820
#
# Velocity S-wave (km/s) = 3.44814 -22.87282 -15.98869
# Velocity P-wave (km/s) = 6.33609 25.93757 17.78499
#
# Compressibility (1/GPa) = 0.01896534
#
# Stress axis : x y z
#
# Youngs Moduli (GPa) = 25.69045 25.68889 106.83142
#
# Poissons Ratio (x) = 0.75216 0.25874
# Poissons Ratio (y) = 0.75221 0.25875
# Poissons Ratio (z) = 0.06222 0.06222
#
# Static dielectric constant tensor:
#      x y z
#    x 25.364220 0.000000 0.000000 
#    y 0.000000 21.965840 0.000000 
#    z 0.000000 0.000000 1.737710 
# 
# From -- ./inp_files/336.got.cif
#   From: 2010.05.17/outbox.cif.g08.bks.cpg/sg94_1_cif.got.tgz:336.got - 2010.06.03 19:43:16.
