data_PCOD9550190
_publ_section_title
;
Structure prediction by ZEFSAII (Michael W. Deem and Ramdas Pophale) SiO2 
 PCOD9550190
Probable space group: P 42 21 2
;
_chemical_formula_sum "Si O2"
_cell_formula_units_Z 48
_cell_length_a 8.665937
_cell_length_b 8.665937
_cell_length_c 32.341408
_cell_angle_alpha 90.000000
_cell_angle_beta 90.000000
_cell_angle_gamma 90.000000
_cell_volume 2428.790067
_symmetry_space_group_name_H-M "P 42 21 2"
_symmetry_group_IT_number 94
_symmetry_cell_setting 'tetragonal'
loop_
_space_group_symop_operation_xyz
x,y,z
1/2-y,1/2+x,1/2+z
-x,-y,z
1/2+y,1/2-x,1/2+z
1/2+x,1/2-y,1/2-z
1/2-x,1/2+y,1/2-z
y,x,-z
-y,-x,-z
loop_
_atom_site_type_symbol
_atom_site_label
_atom_site_fract_x
_atom_site_fract_y
_atom_site_fract_z
Si Si1 0.236155 0.811823 0.366793
Si Si2 0.757465 0.279617 0.046952
Si Si3 0.966301 0.181541 0.884171
Si Si4 0.500000 0.500000 0.922672
Si Si5 0.121618 0.727134 0.794158
Si Si6 0.500000 0.000000 0.408425
Si Si7 0.616273 0.772312 0.218979
O O1 0.237772 0.632269 0.379558
O O2 0.198189 0.818806 0.318363
O O3 0.109532 0.900743 0.393182
O O4 0.395845 0.891191 0.379616
O O5 0.756041 0.135979 0.078381
O O6 0.603491 0.382042 0.051335
O O7 0.894249 0.391049 0.063025
O O8 0.774590 0.225411 0.000000
O O9 0.878521 0.211761 0.840951
O O10 0.000000 0.000000 0.889393
O O11 0.192742 0.848384 0.762348
O O12 0.211855 0.565158 0.790308
O O13 0.944801 0.687637 0.782128
#
# Coordination Sequence:
#
# PCOD9550190 Si02
#       7
#     8   8   8   4   8   4   8
#     4  10  22  42  66  93 130 171 217 258 327 386
#     4  11  24  42  67  98 131 170 223 268 335 391
#     4  11  23  43  67  93 130 175 211 277 327 384
#     4  10  23  42  66  96 134 172 210 274 327 394
#     4  10  24  39  61  89 127 163 214 259 325 376
#     4  10  22  42  64  96 130 172 216 268 324 392
#     4  10  23  40  60  93 123 168 212 264 311 391
#
# _framework density 19.762926
#
# number of rings (size 3 to 8) (size 9 to 14) (size 15 to 20)
#    0.000    1.667    1.667    1.250    4.667    9.000 
#    0.000    1.667    0.000    0.000    0.000    0.000 
#    0.000    0.000    0.000    0.000    0.000    0.000 
#
# Total GULP energy -268426.244189 kJ/mol
# GULP energy per Si atom -5592.213421 kJ/mol
# Density = 1.971794 g / cm^3
# Si number density = 19.762926 Si / 1000 Ang^3
#
#
#
# Elastic Constant Matrix: (Units=GPa)
#
#
# Indices 1 2 3 4 5 6 
#
# 1 72.6226 29.1709 49.8486 0.0000 0.0000 0.0000
# 2 29.1709 72.6228 49.8488 0.0000 0.0000 0.0000
# 3 49.8486 49.8488 159.3218 0.0000 0.0000 0.0000
# 4 0.0000 0.0000 0.0000 13.8902 0.0000 0.0000
# 5 0.0000 0.0000 0.0000 0.0000 13.8901 0.0000
# 6 0.0000 0.0000 0.0000 0.0000 0.0000 27.3076
#
#
#
# Elastic Compliance Matrix: (Units=1/GPa)
#
#
# Indices 1 2 3 4 5 6 
#
# 1 0.018589 -0.004425 -0.004432 0.000000 0.000000 0.000000
# 2 -0.004425 0.018589 -0.004432 0.000000 0.000000 0.000000
# 3 -0.004432 -0.004432 0.009050 0.000000 0.000000 0.000000
# 4 0.000000 0.000000 0.000000 0.071993 0.000000 0.000000
# 5 0.000000 0.000000 0.000000 0.000000 0.071994 0.000000
# 6 0.000000 0.000000 0.000000 0.000000 0.000000 0.036620
#
#
# Mechanical properties :
#
#
# Convention : Reuss Voigt Hill
#
# Bulk Modulus (GPa) = 50.88686 62.47821 56.68254
# Shear Modulus (GPa) = 19.23359 22.73083 20.98221
#
# Velocity S-wave (km/s) = 3.12302 3.39510 3.26190
# Velocity P-wave (km/s) = 6.22968 6.85941 6.55211
#
# Compressibility (1/GPa) = 0.01965144
#
# Stress axis : x y z
#
# Youngs Moduli (GPa) = 53.79477 53.79486 110.49963
#
# Poissons Ratio (x) = 0.23804 0.48970
# Poissons Ratio (y) = 0.23804 0.48970
# Poissons Ratio (z) = 0.23840 0.23840
#
# Static dielectric constant tensor:
#      x y z
#    x 1.696900 0.000000 0.000000 
#    y 0.000000 1.696900 0.000000 
#    z 0.000000 0.000000 1.644510 
# 
# From -- ./inp_files/5640.got.cif
#   From: 2010.05.17/outbox.cif.g08.bks.cpg/sg94_3_cif.got.tgz:5640.got - 2010.06.03 19:43:16.
