data_PCOD9550856
_publ_section_title
;
Structure prediction by ZEFSAII (Michael W. Deem and Ramdas Pophale) SiO2 
 PCOD9550856
Probable space group: P 43 21 2
;
_chemical_formula_sum "Si O2"
_cell_formula_units_Z 52
_cell_length_a 16.978248
_cell_length_b 16.978248
_cell_length_c 7.731493
_cell_angle_alpha 90.000000
_cell_angle_beta 90.000000
_cell_angle_gamma 90.000000
_cell_volume 2228.687170
_symmetry_space_group_name_H-M "P 43 21 2"
_symmetry_group_IT_number 96
_symmetry_cell_setting 'tetragonal'
loop_
_space_group_symop_operation_xyz
x,y,z
1/2-y,1/2+x,3/4+z
-x,-y,1/2+z
1/2+y,1/2-x,1/4+z
1/2+x,1/2-y,1/4-z
1/2-x,1/2+y,3/4-z
y,x,-z
-y,-x,1/2-z
loop_
_atom_site_type_symbol
_atom_site_label
_atom_site_fract_x
_atom_site_fract_y
_atom_site_fract_z
Si Si1 0.620039 0.825598 0.125089
Si Si2 0.097534 0.534109 0.871000
Si Si3 0.336804 0.336804 0.500000
Si Si4 0.477741 0.661107 0.915545
Si Si5 0.008607 0.008607 0.000000
Si Si6 0.594902 0.594902 0.500000
Si Si7 0.262319 0.499294 0.917980
Si Si8 0.054512 0.277337 0.554204
O O1 0.625981 0.883783 0.290430
O O2 0.525466 0.815267 0.118486
O O3 0.662678 0.740107 0.125990
O O4 0.660043 0.875697 0.970350
O O5 0.029108 0.557405 0.744418
O O6 0.178369 0.490370 0.825266
O O7 0.426871 0.327892 0.431688
O O8 0.469597 0.568173 0.906396
O O9 0.451959 0.691379 0.727242
O O10 0.432261 0.704158 0.068526
O O11 0.927116 0.039753 0.081823
O O12 0.683962 0.576739 0.450777
O O13 0.250707 0.534529 0.109162
#
# Coordination Sequence:
#
# PCOD9550856 Si02
#       8
#     8   8   4   8   4   4   8   8
#     4  10  20  41  67  96 128 177 219 274 341 401
#     4  11  23  43  68  97 135 169 224 283 333 399
#     4  10  23  40  67  96 134 179 223 272 348 416
#     4  10  23  43  64  96 138 172 229 274 336 404
#     4  10  22  38  65 103 130 176 230 278 322 404
#     4  10  23  38  68  95 132 177 223 264 344 394
#     4  10  23  41  62  97 128 175 218 269 335 399
#     4  10  22  43  68  94 136 172 222 281 330 406
#
# _framework density 23.332121999999998
#
# number of rings (size 3 to 8) (size 9 to 14) (size 15 to 20)
#    0.000    1.846    3.077    0.462   10.769    2.462 
#   16.615    0.000    0.000    3.692    0.000    0.000 
#    0.000    0.000    0.000    0.000    0.000    0.000 
#
# Total GULP energy -289585.342333 kJ/mol
# GULP energy per Si atom -5568.948891 kJ/mol
# Density = 2.327902 g / cm^3
# Si number density = 23.332122 Si / 1000 Ang^3
#
#
#
# Elastic Constant Matrix: (Units=GPa)
#
#
# Indices 1 2 3 4 5 6 
#
# 1 71.3510 26.1464 19.8930 0.0000 0.0000 0.0000
# 2 26.1464 71.3510 19.8930 0.0000 0.0000 0.0000
# 3 19.8930 19.8930 79.1444 0.0000 0.0000 0.0000
# 4 0.0000 0.0000 0.0000 22.0531 0.0000 0.0000
# 5 0.0000 0.0000 0.0000 0.0000 22.0531 0.0000
# 6 0.0000 0.0000 0.0000 0.0000 0.0000 29.2742
#
#
#
# Elastic Compliance Matrix: (Units=1/GPa)
#
#
# Indices 1 2 3 4 5 6 
#
# 1 0.016775 -0.005346 -0.002873 0.000000 0.000000 0.000000
# 2 -0.005346 0.016775 -0.002873 0.000000 0.000000 0.000000
# 3 -0.002873 -0.002873 0.014079 0.000000 0.000000 0.000000
# 4 0.000000 0.000000 0.000000 0.045345 0.000000 0.000000
# 5 0.000000 0.000000 0.000000 0.000000 0.045345 0.000000
# 6 0.000000 0.000000 0.000000 0.000000 0.000000 0.034160
#
#
# Mechanical properties :
#
#
# Convention : Reuss Voigt Hill
#
# Bulk Modulus (GPa) = 39.29822 39.30121 39.29972
# Shear Modulus (GPa) = 24.61294 25.07036 24.84165
#
# Velocity S-wave (km/s) = 3.25144 3.28151 3.26651
# Velocity P-wave (km/s) = 5.56555 5.58915 5.57736
#
# Compressibility (1/GPa) = 0.02544645
#
# Stress axis : x y z
#
# Youngs Moduli (GPa) = 59.61146 59.61146 71.02661
#
# Poissons Ratio (x) = 0.31870 0.20404
# Poissons Ratio (y) = 0.31870 0.20404
# Poissons Ratio (z) = 0.17124 0.17124
#
# Static dielectric constant tensor:
#      x y z
#    x 2.026170 0.000000 0.000000 
#    y 0.000000 2.026170 0.000000 
#    z 0.000000 0.000000 1.980220 
# 
# From -- ./inp_files/1601.got.cif
#   From: 2010.05.17/outbox.cif.g08.bks.cpg/sg96_1_cif.got.tgz:1601.got - 2010.06.03 19:52:08.
