data_PCOD9550544
_publ_section_title
;
Structure prediction by ZEFSAII (Michael W. Deem and Ramdas Pophale) SiO2 
 PCOD9550544
Probable space group: P 43 2 2
;
_chemical_formula_sum "Si O2"
_cell_formula_units_Z 56
_cell_length_a 11.080276
_cell_length_b 11.080276
_cell_length_c 19.542097
_cell_angle_alpha 90.000000
_cell_angle_beta 90.000000
_cell_angle_gamma 90.000000
_cell_volume 2399.232421
_symmetry_space_group_name_H-M "P 43 2 2"
_symmetry_group_IT_number 95
_symmetry_cell_setting 'tetragonal'
loop_
_space_group_symop_operation_xyz
x,y,z
-y,x,3/4+z
-x,-y,1/2+z
y,-x,1/4+z
x,-y,1/2-z
-x,y,-z
y,x,1/4-z
-y,-x,3/4-z
loop_
_atom_site_type_symbol
_atom_site_label
_atom_site_fract_x
_atom_site_fract_y
_atom_site_fract_z
Si Si1 0.741106 0.679301 0.528939
Si Si2 0.366188 0.467734 0.827636
Si Si3 0.556500 0.191479 0.147612
Si Si4 0.952302 0.846924 0.355312
Si Si5 0.588876 0.866179 0.854861
Si Si6 0.500000 0.769586 0.500000
Si Si7 0.416256 0.000000 0.750000
Si Si8 0.864421 0.090130 0.012062
O O1 0.805669 0.584376 0.577701
O O2 0.776610 0.640570 0.452999
O O3 0.598850 0.683191 0.534317
O O4 0.779920 0.818968 0.529539
O O5 0.393192 0.500000 0.750000
O O6 0.439886 0.560115 0.875000
O O7 0.402080 0.329463 0.843108
O O8 0.221732 0.472488 0.840867
O O9 0.631954 0.112389 0.203831
O O10 0.555472 0.160279 0.066065
O O11 0.942225 0.704139 0.369578
O O12 0.852055 0.903529 0.406243
O O13 0.960119 0.859189 0.273367
O O14 0.069202 0.930799 0.375000
O O15 0.495211 0.942682 0.811245
O O16 0.000000 0.142438 0.000000
#
# Coordination Sequence:
#
# PCOD9550544 Si02
#       8
#     8   8   8   8   8   4   4   8
#     4  10  21  35  57  92 135 164 215 288 366 425
#     4  12  25  46  76 106 145 202 257 310 382 465
#     4  11  25  38  66  97 143 182 235 303 371 459
#     4   9  19  32  59  89 128 166 227 282 350 421
#     4  10  22  41  65  97 137 183 236 289 365 459
#     4  12  22  36  56 102 132 166 224 304 372 414
#     4  10  24  44  64  96 140 192 222 296 396 438
#     4   9  19  33  57  90 123 164 216 269 350 421
#
# _framework density 23.340800000000002
#
# number of rings (size 3 to 8) (size 9 to 14) (size 15 to 20)
#    0.000    1.714    1.429    3.000   19.000    1.143 
#    1.286    0.000    4.714    4.286    0.000    0.000 
#    0.000    0.000    0.000    0.000    0.000    0.000 
#
# Total GULP energy -311875.019930 kJ/mol
# GULP energy per Si atom -5569.196784 kJ/mol
# Density = 2.328767 g / cm^3
# Si number density = 23.340800 Si / 1000 Ang^3
#
#
#
# Elastic Constant Matrix: (Units=GPa)
#
#
# Indices 1 2 3 4 5 6 
#
# 1 65.2650 19.0610 22.6627 0.0000 0.0000 0.0000
# 2 19.0610 65.2644 22.6621 0.0000 0.0000 0.0000
# 3 22.6627 22.6621 151.8881 0.0000 0.0000 0.0000
# 4 0.0000 0.0000 0.0000 27.9190 0.0000 0.0000
# 5 0.0000 0.0000 0.0000 0.0000 27.9185 0.0000
# 6 0.0000 0.0000 0.0000 0.0000 0.0000 15.2289
#
#
#
# Elastic Compliance Matrix: (Units=1/GPa)
#
#
# Indices 1 2 3 4 5 6 
#
# 1 0.017268 -0.004375 -0.001924 0.000000 0.000000 0.000000
# 2 -0.004375 0.017268 -0.001924 0.000000 0.000000 0.000000
# 3 -0.001924 -0.001924 0.007158 0.000000 0.000000 0.000000
# 4 0.000000 0.000000 0.000000 0.035818 0.000000 0.000000
# 5 0.000000 0.000000 0.000000 0.000000 0.035819 0.000000
# 6 0.000000 0.000000 0.000000 0.000000 0.000000 0.065665
#
#
# Mechanical properties :
#
#
# Convention : Reuss Voigt Hill
#
# Bulk Modulus (GPa) = 39.60602 45.68768 42.64685
# Shear Modulus (GPa) = 24.52708 28.74873 26.63790
#
# Velocity S-wave (km/s) = 3.24516 3.51336 3.38192
# Velocity P-wave (km/s) = 5.57197 6.00624 5.79317
#
# Compressibility (1/GPa) = 0.02524869
#
# Stress axis : x y z
#
# Youngs Moduli (GPa) = 57.91073 57.91036 139.70711
#
# Poissons Ratio (x) = 0.25337 0.26875
# Poissons Ratio (y) = 0.25338 0.26874
# Poissons Ratio (z) = 0.11140 0.11140
#
# Static dielectric constant tensor:
#      x y z
#    x 1.952360 0.000000 0.000000 
#    y 0.000000 1.952360 0.000000 
#    z 0.000000 0.000000 2.022420 
# 
# From -- ./inp_files/6487.got.cif
#   From: 2010.05.17/outbox.cif.g08.bks.cpg/sg95_4_cif.got.tgz:6487.got - 2010.06.03 19:46:49.
