data_PCOD9550448
_publ_section_title
;
Structure prediction by ZEFSAII (Michael W. Deem and Ramdas Pophale) SiO2 
 PCOD9550448
Probable space group: P 43 2 2
;
_chemical_formula_sum "Si O2"
_cell_formula_units_Z 64
_cell_length_a 19.186486
_cell_length_b 19.186486
_cell_length_c 9.909929
_cell_angle_alpha 90.000000
_cell_angle_beta 90.000000
_cell_angle_gamma 90.000000
_cell_volume 3648.055402
_symmetry_space_group_name_H-M "P 43 2 2"
_symmetry_group_IT_number 95
_symmetry_cell_setting 'tetragonal'
loop_
_space_group_symop_operation_xyz
x,y,z
-y,x,3/4+z
-x,-y,1/2+z
y,-x,1/4+z
x,-y,1/2-z
-x,y,-z
y,x,1/4-z
-y,-x,3/4-z
loop_
_atom_site_type_symbol
_atom_site_label
_atom_site_fract_x
_atom_site_fract_y
_atom_site_fract_z
Si Si1 0.564127 0.117202 0.393755
Si Si2 0.734719 0.839351 0.321354
Si Si3 0.520975 0.938562 0.652471
Si Si4 0.825414 0.938635 0.170208
Si Si5 0.823721 0.280852 0.071763
Si Si6 0.697578 0.962569 0.977489
Si Si7 0.341540 0.759998 0.916305
Si Si8 0.122814 0.342818 0.180592
O O1 0.500000 0.111103 0.500000
O O2 0.539904 0.090890 0.247144
O O3 0.630795 0.069489 0.439334
O O4 0.587167 0.198451 0.389390
O O5 0.770652 0.910243 0.280147
O O6 0.794027 0.794850 0.395946
O O7 0.710323 0.803517 0.183035
O O8 0.669941 0.849751 0.419348
O O9 0.500000 0.960918 0.500000
O O10 0.579384 0.881015 0.625849
O O11 0.549837 0.000000 0.750000
O O12 0.877578 0.877578 0.125000
O O13 0.772465 0.960217 0.051902
O O14 0.864199 0.000000 0.250000
O O15 0.904003 0.293265 0.113078
O O16 0.777168 0.325841 0.177052
O O17 0.825505 0.300918 0.916848
O O18 0.681208 0.041524 0.935087
O O19 0.318785 0.681216 0.875000
#
# Coordination Sequence:
#
# PCOD9550448 Si02
#       8
#     8   8   8   8   8   8   8   8
#     4  11  21  35  55  81 113 150 179 224 284 321
#     4  11  19  35  56  79  97 133 184 230 274 335
#     4  12  24  36  48  70 111 151 186 218 262 335
#     4  12  22  40  66  83  98 135 194 250 294 354
#     4  10  19  33  52  74 102 125 170 240 274 315
#     4  11  21  35  57  76 103 141 187 219 272 353
#     4   9  18  34  56  75 101 141 192 223 254 316
#     4  12  23  33  48  79 107 140 176 222 283 337
#
# _framework density 17.543593999999999
#
# number of rings (size 3 to 8) (size 9 to 14) (size 15 to 20)
#    0.000    1.000    5.000    6.000    0.000    0.500 
#    0.000    0.000    2.750    0.000    0.000    0.000 
#    0.000    0.000    0.000   10.125    0.000    0.000 
#
# Total GULP energy -356395.897151 kJ/mol
# GULP energy per Si atom -5568.685893 kJ/mol
# Density = 1.750366 g / cm^3
# Si number density = 17.543594 Si / 1000 Ang^3
#
#
#
# Elastic Constant Matrix: (Units=GPa)
#
#
# Indices 1 2 3 4 5 6 
#
# 1 42.9995 12.7983 20.7139 0.0000 0.0000 0.0000
# 2 12.7983 43.0002 20.7138 0.0000 0.0000 0.0000
# 3 20.7139 20.7138 96.4364 0.0000 0.0000 0.0000
# 4 0.0000 0.0000 0.0000 25.1293 0.0000 0.0000
# 5 0.0000 0.0000 0.0000 0.0000 25.1293 0.0000
# 6 0.0000 0.0000 0.0000 0.0000 0.0000 16.3091
#
#
#
# Elastic Compliance Matrix: (Units=1/GPa)
#
#
# Indices 1 2 3 4 5 6 
#
# 1 0.027217 -0.005894 -0.004580 0.000000 0.000000 0.000000
# 2 -0.005894 0.027216 -0.004580 0.000000 0.000000 0.000000
# 3 -0.004580 -0.004580 0.012337 0.000000 0.000000 0.000000
# 4 0.000000 0.000000 0.000000 0.039794 0.000000 0.000000
# 5 0.000000 0.000000 0.000000 0.000000 0.039794 0.000000
# 6 0.000000 0.000000 0.000000 0.000000 0.000000 0.061315
#
#
# Mechanical properties :
#
#
# Convention : Reuss Voigt Hill
#
# Bulk Modulus (GPa) = 27.27638 32.32091 29.79864
# Shear Modulus (GPa) = 19.99980 21.86087 20.93034
#
# Velocity S-wave (km/s) = 3.38006 3.53383 3.45780
# Velocity P-wave (km/s) = 5.55109 5.92569 5.74144
#
# Compressibility (1/GPa) = 0.03666175
#
# Stress axis : x y z
#
# Youngs Moduli (GPa) = 36.74203 36.74285 81.05724
#
# Poissons Ratio (x) = 0.21658 0.37124
# Poissons Ratio (y) = 0.21657 0.37122
# Poissons Ratio (z) = 0.16828 0.16827
#
# Static dielectric constant tensor:
#      x y z
#    x 1.638240 0.000000 0.000000 
#    y 0.000000 1.638240 0.000000 
#    z 0.000000 0.000000 1.655930 
# 
# From -- ./inp_files/2950.got.cif
#   From: 2010.05.17/outbox.cif.g08.bks.cpg/sg95_2_cif.got.tgz:2950.got - 2010.06.03 19:46:49.
