data_PCOD9550998
_publ_section_title
;
Structure prediction by ZEFSAII (Michael W. Deem and Ramdas Pophale) SiO2 
 PCOD9550998
Probable space group: P 43 21 2
;
_chemical_formula_sum "Si O2"
_cell_formula_units_Z 56
_cell_length_a 10.981540
_cell_length_b 10.981540
_cell_length_c 19.429929
_cell_angle_alpha 90.000000
_cell_angle_beta 90.000000
_cell_angle_gamma 90.000000
_cell_volume 2343.137147
_symmetry_space_group_name_H-M "P 43 21 2"
_symmetry_group_IT_number 96
_symmetry_cell_setting 'tetragonal'
loop_
_space_group_symop_operation_xyz
x,y,z
1/2-y,1/2+x,3/4+z
-x,-y,1/2+z
1/2+y,1/2-x,1/4+z
1/2+x,1/2-y,1/4-z
1/2-x,1/2+y,3/4-z
y,x,-z
-y,-x,1/2-z
loop_
_atom_site_type_symbol
_atom_site_label
_atom_site_fract_x
_atom_site_fract_y
_atom_site_fract_z
Si Si1 0.196526 0.519117 0.635235
Si Si2 0.796094 0.016197 0.879688
Si Si3 0.959233 0.056381 0.425847
Si Si4 0.809406 0.592511 0.727468
Si Si5 0.271104 0.246730 0.425822
Si Si6 0.761128 0.877491 0.389654
Si Si7 0.426841 0.007332 0.975216
O O1 0.258382 0.414733 0.589292
O O2 0.281228 0.632869 0.653450
O O3 0.150238 0.468197 0.708372
O O4 0.085739 0.563089 0.587775
O O5 0.753906 0.876399 0.883176
O O6 0.939829 0.995756 0.874634
O O7 0.762807 0.089619 0.950358
O O8 0.731935 0.111145 0.829492
O O9 0.964375 0.203026 0.429466
O O10 0.828305 0.006584 0.403278
O O11 0.998337 0.998337 0.500000
O O12 0.850352 0.713358 0.687124
O O13 0.937092 0.530970 0.747235
O O14 0.216844 0.216844 0.500000
O O15 0.645014 0.878934 0.440651
#
# Coordination Sequence:
#
# PCOD9550998 Si02
#       7
#     8   8   8   8   8   8   8
#     4  12  27  47  80 113 159 213 267 338 406 496
#     4  11  26  48  79 108 159 208 268 346 408 484
#     4  10  22  46  73 107 151 208 263 322 410 474
#     4  11  25  43  75 117 151 209 259 333 394 492
#     4  12  28  48  79 116 158 212 278 337 415 497
#     4  12  25  46  77 114 158 203 271 321 420 485
#     4  12  26  48  75 118 156 207 271 330 406 486
#
# _framework density 23.899581000000001
#
# number of rings (size 3 to 8) (size 9 to 14) (size 15 to 20)
#    0.000    0.571    4.286    3.429    6.000    2.286 
#    0.000    0.000    0.000    0.000    0.000    0.000 
#    0.000    0.000    0.000    0.000    0.000    0.000 
#
# Total GULP energy -312219.252537 kJ/mol
# GULP energy per Si atom -5575.343795 kJ/mol
# Density = 2.384518 g / cm^3
# Si number density = 23.899581 Si / 1000 Ang^3
#
#
#
# Elastic Constant Matrix: (Units=GPa)
#
#
# Indices 1 2 3 4 5 6 
#
# 1 106.3064 45.5309 7.5613 0.0000 0.0000 0.0000
# 2 45.5309 106.3064 7.5613 0.0000 0.0000 0.0000
# 3 7.5613 7.5613 32.9125 0.0000 0.0000 0.0000
# 4 0.0000 0.0000 0.0000 35.3923 0.0000 0.0000
# 5 0.0000 0.0000 0.0000 0.0000 35.3923 0.0000
# 6 0.0000 0.0000 0.0000 0.0000 0.0000 34.0632
#
#
#
# Elastic Compliance Matrix: (Units=1/GPa)
#
#
# Indices 1 2 3 4 5 6 
#
# 1 0.011597 -0.004857 -0.001548 0.000000 0.000000 0.000000
# 2 -0.004857 0.011597 -0.001548 0.000000 0.000000 0.000000
# 3 -0.001548 -0.001548 0.031095 0.000000 0.000000 0.000000
# 4 0.000000 0.000000 0.000000 0.028255 0.000000 0.000000
# 5 0.000000 0.000000 0.000000 0.000000 0.028255 0.000000
# 6 0.000000 0.000000 0.000000 0.000000 0.000000 0.029357
#
#
# Mechanical properties :
#
#
# Convention : Reuss Voigt Hill
#
# Bulk Modulus (GPa) = 26.05417 40.75914 33.40665
# Shear Modulus (GPa) = 29.61074 33.29433 31.45254
#
# Velocity S-wave (km/s) = 3.52371 3.73646 3.63165
# Velocity P-wave (km/s) = 5.24219 5.97547 5.62080
#
# Compressibility (1/GPa) = 0.03838158
#
# Stress axis : x y z
#
# Youngs Moduli (GPa) = 86.22835 86.22835 32.15943
#
# Poissons Ratio (x) = 0.41880 0.04980
# Poissons Ratio (y) = 0.41880 0.04980
# Poissons Ratio (z) = 0.13352 0.13352
#
# Static dielectric constant tensor:
#      x y z
#    x 1.995520 0.000000 0.000000 
#    y 0.000000 1.995520 0.000000 
#    z 0.000000 0.000000 2.026410 
# 
# From -- ./inp_files/3546.got.cif
#   From: 2010.05.17/outbox.cif.g08.bks.cpg/sg96_2_cif.got.tgz:3546.got - 2010.06.03 19:52:08.
