data_PCOD9550331
_publ_section_title
;
Structure prediction by ZEFSAII (Michael W. Deem and Ramdas Pophale) SiO2 
 PCOD9550331
Probable space group: P 42 21 2
;
_chemical_formula_sum "Si O2"
_cell_formula_units_Z 24
_cell_length_a 7.713046
_cell_length_b 7.713046
_cell_length_c 18.129056
_cell_angle_alpha 90.000000
_cell_angle_beta 90.000000
_cell_angle_gamma 90.000000
_cell_volume 1078.517095
_symmetry_space_group_name_H-M "P 42 21 2"
_symmetry_group_IT_number 94
_symmetry_cell_setting 'tetragonal'
loop_
_space_group_symop_operation_xyz
x,y,z
1/2-y,1/2+x,1/2+z
-x,-y,z
1/2+y,1/2-x,1/2+z
1/2+x,1/2-y,1/2-z
1/2-x,1/2+y,1/2-z
y,x,-z
-y,-x,-z
loop_
_atom_site_type_symbol
_atom_site_label
_atom_site_fract_x
_atom_site_fract_y
_atom_site_fract_z
Si Si1 0.105909 0.776045 0.178219
Si Si2 0.726077 0.839913 0.162867
Si Si3 0.922717 0.828511 0.416104
O O1 0.131135 0.710831 0.261410
O O2 0.241503 0.693191 0.123383
O O3 0.908271 0.738430 0.153606
O O4 0.185383 0.971844 0.174034
O O5 0.578178 0.810053 0.100283
O O6 0.873441 0.873441 0.500000
O O7 0.000000 0.000000 0.379846
#
# Coordination Sequence:
#
# PCOD9550331 Si02
#       3
#     8   8   8
#     4  11  23  42  74 107 141 182 243 298 359 424
#     4  11  23  42  73 108 139 184 242 300 353 434
#     4  11  25  46  65 101 147 190 236 293 367 429
#
# _framework density 22.252773999999999
#
# number of rings (size 3 to 8) (size 9 to 14) (size 15 to 20)
#    0.000    1.000    3.333    3.000    0.000    4.000 
#   24.000    1.667    0.000    0.000    0.000    0.000 
#    0.000    0.000    0.000    0.000    0.000    0.000 
#
# Total GULP energy -133674.183926 kJ/mol
# GULP energy per Si atom -5569.757664 kJ/mol
# Density = 2.220213 g / cm^3
# Si number density = 22.252774 Si / 1000 Ang^3
#
#
#
# Elastic Constant Matrix: (Units=GPa)
#
#
# Indices 1 2 3 4 5 6 
#
# 1 104.9946 19.2827 51.1591 0.0000 0.0000 0.0000
# 2 19.2827 104.9946 51.1591 0.0000 0.0000 0.0000
# 3 51.1591 51.1591 116.2640 0.0000 0.0000 0.0000
# 4 0.0000 0.0000 0.0000 32.1606 0.0000 0.0000
# 5 0.0000 0.0000 0.0000 0.0000 32.1606 0.0000
# 6 0.0000 0.0000 0.0000 0.0000 0.0000 39.5554
#
#
#
# Elastic Compliance Matrix: (Units=1/GPa)
#
#
# Indices 1 2 3 4 5 6 
#
# 1 0.012142 0.000475 -0.005552 0.000000 0.000000 0.000000
# 2 0.000475 0.012142 -0.005552 0.000000 0.000000 0.000000
# 3 -0.005552 -0.005552 0.013487 0.000000 0.000000 0.000000
# 4 0.000000 0.000000 0.000000 0.031094 0.000000 0.000000
# 5 0.000000 0.000000 0.000000 0.000000 0.031094 0.000000
# 6 0.000000 0.000000 0.000000 0.000000 0.000000 0.025281
#
#
# Mechanical properties :
#
#
# Convention : Reuss Voigt Hill
#
# Bulk Modulus (GPa) = 60.55424 63.27280 61.91352
# Shear Modulus (GPa) = 32.89410 34.41880 33.65645
#
# Velocity S-wave (km/s) = 3.84891 3.93710 3.89326
# Velocity P-wave (km/s) = 6.85735 7.01164 6.93492
#
# Compressibility (1/GPa) = 0.01651412
#
# Stress axis : x y z
#
# Youngs Moduli (GPa) = 82.35692 82.35692 74.14436
#
# Poissons Ratio (x) = -0.03914 0.41165
# Poissons Ratio (y) = -0.03914 0.41165
# Poissons Ratio (z) = 0.45725 0.45725
#
# Static dielectric constant tensor:
#      x y z
#    x 1.936490 0.000000 0.000000 
#    y 0.000000 1.936490 0.000000 
#    z 0.000000 0.000000 1.840420 
# 
# From -- ./inp_files/3714.got.cif
#   From: 2010.05.17/outbox.cif.g08.bks.cpg/sg94_2_cif.got.tgz:3714.got - 2010.06.03 19:43:16.
