data_PCOD9550746
_publ_section_title
;
Structure prediction by ZEFSAII (Michael W. Deem and Ramdas Pophale) SiO2 
 PCOD9550746
Probable space group: P 43 21 2
;
_chemical_formula_sum "Si O2"
_cell_formula_units_Z 48
_cell_length_a 16.282561
_cell_length_b 16.282561
_cell_length_c 8.873321
_cell_angle_alpha 90.000000
_cell_angle_beta 90.000000
_cell_angle_gamma 90.000000
_cell_volume 2352.510771
_symmetry_space_group_name_H-M "P 43 21 2"
_symmetry_group_IT_number 96
_symmetry_cell_setting 'tetragonal'
loop_
_space_group_symop_operation_xyz
x,y,z
1/2-y,1/2+x,3/4+z
-x,-y,1/2+z
1/2+y,1/2-x,1/4+z
1/2+x,1/2-y,1/4-z
1/2-x,1/2+y,3/4-z
y,x,-z
-y,-x,1/2-z
loop_
_atom_site_type_symbol
_atom_site_label
_atom_site_fract_x
_atom_site_fract_y
_atom_site_fract_z
Si Si1 0.968059 0.669258 0.848272
Si Si2 0.175916 0.048897 0.435254
Si Si3 0.569702 0.865816 0.948463
Si Si4 0.713797 0.626996 0.862329
Si Si5 0.892623 0.698466 0.304939
Si Si6 0.826094 0.658873 0.604906
O O1 0.906668 0.668700 0.708728
O O2 0.062902 0.675049 0.807304
O O3 0.945971 0.749692 0.945458
O O4 0.949217 0.593409 0.963220
O O5 0.101911 0.101911 0.500000
O O6 0.217104 0.084938 0.282059
O O7 0.156732 0.951888 0.418811
O O8 0.477234 0.849156 0.899338
O O9 0.635281 0.854254 0.815769
O O10 0.586162 0.796908 0.074030
O O11 0.746022 0.671726 0.711697
O O12 0.680076 0.680076 0.000000
O O13 0.839340 0.709343 0.453331
#
# Coordination Sequence:
#
# PCOD9550746 Si02
#       6
#     8   8   8   8   8   8
#     4   9  18  30  47  77 113 150 183 208 249 310
#     4   9  19  37  58  77 101 135 177 225 276 329
#     4   9  18  30  47  77 113 150 183 208 249 310
#     4   9  19  37  58  77 101 135 177 225 276 329
#     4  10  19  30  49  79 113 146 180 217 256 307
#     4  10  19  30  49  79 113 146 180 217 256 307
#
# _framework density 20.403732999999999
#
# number of rings (size 3 to 8) (size 9 to 14) (size 15 to 20)
#    0.000    2.667    0.000    4.000    0.000   10.000 
#    0.000    3.333    0.000    8.000    0.000    0.000 
#    0.000    0.000    0.000    0.000    0.000    0.000 
#
# Total GULP energy -267726.370946 kJ/mol
# GULP energy per Si atom -5577.632728 kJ/mol
# Density = 2.035729 g / cm^3
# Si number density = 20.403733 Si / 1000 Ang^3
#
#
#
# Elastic Constant Matrix: (Units=GPa)
#
#
# Indices 1 2 3 4 5 6 
#
# 1 27.3871 7.9958 8.5723 0.0000 0.0000 0.0000
# 2 7.9958 27.3871 8.5723 0.0000 0.0000 0.0000
# 3 8.5723 8.5723 102.4209 0.0000 0.0000 0.0000
# 4 0.0000 0.0000 0.0000 31.2098 0.0000 0.0000
# 5 0.0000 0.0000 0.0000 0.0000 31.2098 0.0000
# 6 0.0000 0.0000 0.0000 0.0000 0.0000 25.8934
#
#
#
# Elastic Compliance Matrix: (Units=1/GPa)
#
#
# Indices 1 2 3 4 5 6 
#
# 1 0.040513 -0.011056 -0.002465 0.000000 0.000000 0.000000
# 2 -0.011056 0.040513 -0.002465 0.000000 0.000000 0.000000
# 3 -0.002465 -0.002465 0.010176 0.000000 0.000000 0.000000
# 4 0.000000 0.000000 0.000000 0.032041 0.000000 0.000000
# 5 0.000000 0.000000 0.000000 0.000000 0.032041 0.000000
# 6 0.000000 0.000000 0.000000 0.000000 0.000000 0.038620
#
#
# Mechanical properties :
#
#
# Convention : Reuss Voigt Hill
#
# Bulk Modulus (GPa) = 16.88381 23.05286 19.96833
# Shear Modulus (GPa) = 20.35651 26.46628 23.41139
#
# Velocity S-wave (km/s) = 3.16204 3.60548 3.39101
# Velocity P-wave (km/s) = 4.65018 5.35308 5.01396
#
# Compressibility (1/GPa) = 0.05922832
#
# Stress axis : x y z
#
# Youngs Moduli (GPa) = 24.68338 24.68338 98.26727
#
# Poissons Ratio (x) = 0.27291 0.24227
# Poissons Ratio (y) = 0.27291 0.24227
# Poissons Ratio (z) = 0.06086 0.06086
#
# Static dielectric constant tensor:
#      x y z
#    x 1.764130 0.000000 0.000000 
#    y 0.000000 1.764130 0.000000 
#    z 0.000000 0.000000 1.761930 
# 
# From -- ./inp_files/1494.got.cif
#   From: 2010.05.17/outbox.cif.g08.bks.cpg/sg96_1_cif.got.tgz:1494.got - 2010.06.03 19:52:08.
