data_PCOD9550824
_publ_section_title
;
Structure prediction by ZEFSAII (Michael W. Deem and Ramdas Pophale) SiO2 
 PCOD9550824
Probable space group: P 43 21 2
;
_chemical_formula_sum "Si O2"
_cell_formula_units_Z 56
_cell_length_a 12.303902
_cell_length_b 12.303902
_cell_length_c 17.904273
_cell_angle_alpha 90.000000
_cell_angle_beta 90.000000
_cell_angle_gamma 90.000000
_cell_volume 2710.456352
_symmetry_space_group_name_H-M "P 43 21 2"
_symmetry_group_IT_number 96
_symmetry_cell_setting 'tetragonal'
loop_
_space_group_symop_operation_xyz
x,y,z
1/2-y,1/2+x,3/4+z
-x,-y,1/2+z
1/2+y,1/2-x,1/4+z
1/2+x,1/2-y,1/4-z
1/2-x,1/2+y,3/4-z
y,x,-z
-y,-x,1/2-z
loop_
_atom_site_type_symbol
_atom_site_label
_atom_site_fract_x
_atom_site_fract_y
_atom_site_fract_z
Si Si1 0.862024 0.178823 0.164477
Si Si2 0.997297 0.277552 0.421536
Si Si3 0.065271 0.065271 0.500000
Si Si4 0.143513 0.349353 0.292781
Si Si5 0.586148 0.352574 0.052302
Si Si6 0.338449 0.390056 0.665544
Si Si7 0.419233 0.419233 0.500000
Si Si8 0.744811 0.385134 0.184832
O O1 0.858759 0.141242 0.250000
O O2 0.848892 0.308457 0.172405
O O3 0.982231 0.143522 0.142371
O O4 0.771183 0.112345 0.118699
O O5 0.063649 0.170521 0.446488
O O6 0.069144 0.349752 0.366101
O O7 0.958552 0.342017 0.494838
O O8 0.953130 0.075442 0.546237
O O9 0.088899 0.259611 0.240376
O O10 0.267527 0.312819 0.310159
O O11 0.593056 0.450699 0.993656
O O12 0.685276 0.366422 0.106916
O O13 0.358241 0.388517 0.576118
O O14 0.254808 0.484418 0.692038
O O15 0.674849 0.325152 0.250000
#
# Coordination Sequence:
#
# PCOD9550824 Si02
#       8
#     8   8   4   8   8   8   4   8
#     4  11  20  34  62  93 128 164 207 266 329 391
#     4  11  22  41  65  96 127 176 221 274 327 398
#     4  10  20  37  65  90 120 164 228 270 306 381
#     4  11  23  39  66  92 127 169 220 265 328 399
#     4  11  19  35  63  90 124 160 213 265 322 391
#     4  10  21  37  61  91 125 161 216 269 315 377
#     4  10  20  37  63  92 118 164 216 276 308 371
#     4  10  21  33  55  91 127 156 203 266 324 369
#
# _framework density 20.660727000000001
#
# number of rings (size 3 to 8) (size 9 to 14) (size 15 to 20)
#    0.000    1.429    4.286    2.571    2.000    0.571 
#    0.000    0.000   15.714    0.000    0.000    0.000 
#    0.000    0.000    0.000    0.000    0.000    0.000 
#
# Total GULP energy -312209.525212 kJ/mol
# GULP energy per Si atom -5575.170093 kJ/mol
# Density = 2.061370 g / cm^3
# Si number density = 20.660727 Si / 1000 Ang^3
#
#
#
# Elastic Constant Matrix: (Units=GPa)
#
#
# Indices 1 2 3 4 5 6 
#
# 1 76.2989 18.5717 15.4720 0.0000 0.0000 0.0000
# 2 18.5717 76.2990 15.4698 0.0000 0.0000 0.0000
# 3 15.4720 15.4698 68.8628 0.0000 0.0000 0.0000
# 4 0.0000 0.0000 0.0000 26.8266 0.0000 0.0000
# 5 0.0000 0.0000 0.0000 0.0000 26.8265 0.0000
# 6 0.0000 0.0000 0.0000 0.0000 0.0000 24.9289
#
#
#
# Elastic Compliance Matrix: (Units=1/GPa)
#
#
# Indices 1 2 3 4 5 6 
#
# 1 0.014349 -0.002974 -0.002556 0.000000 0.000000 0.000000
# 2 -0.002974 0.014348 -0.002555 0.000000 0.000000 0.000000
# 3 -0.002556 -0.002555 0.015670 0.000000 0.000000 0.000000
# 4 0.000000 0.000000 0.000000 0.037276 0.000000 0.000000
# 5 0.000000 0.000000 0.000000 0.000000 0.037277 0.000000
# 6 0.000000 0.000000 0.000000 0.000000 0.000000 0.040114
#
#
# Mechanical properties :
#
#
# Convention : Reuss Voigt Hill
#
# Bulk Modulus (GPa) = 35.46521 35.60974 35.53748
# Shear Modulus (GPa) = 27.08519 27.17955 27.13237
#
# Velocity S-wave (km/s) = 3.62463 3.63094 3.62779
# Velocity P-wave (km/s) = 5.89237 5.90349 5.89793
#
# Compressibility (1/GPa) = 0.02819664
#
# Stress axis : x y z
#
# Youngs Moduli (GPa) = 69.69339 69.69435 63.81696
#
# Poissons Ratio (x) = 0.20730 0.16309
# Poissons Ratio (y) = 0.20729 0.16305
# Poissons Ratio (z) = 0.17811 0.17807
#
# Static dielectric constant tensor:
#      x y z
#    x 1.791920 0.000000 0.000000 
#    y 0.000000 1.791910 0.000000 
#    z 0.000000 0.000000 1.765630 
# 
# From -- ./inp_files/3587.got.cif
#   From: 2010.05.17/outbox.cif.g08.bks.cpg/sg96_2_cif.got.tgz:3587.got - 2010.06.03 19:52:08.
