data_PCOD9550480
_publ_section_title
;
Structure prediction by ZEFSAII (Michael W. Deem and Ramdas Pophale) SiO2 
 PCOD9550480
Probable space group: P 43 2 2
;
_chemical_formula_sum "Si O2"
_cell_formula_units_Z 56
_cell_length_a 15.528077
_cell_length_b 15.528077
_cell_length_c 11.349283
_cell_angle_alpha 90.000000
_cell_angle_beta 90.000000
_cell_angle_gamma 90.000000
_cell_volume 2736.552456
_symmetry_space_group_name_H-M "P 43 2 2"
_symmetry_group_IT_number 95
_symmetry_cell_setting 'tetragonal'
loop_
_space_group_symop_operation_xyz
x,y,z
-y,x,3/4+z
-x,-y,1/2+z
y,-x,1/4+z
x,-y,1/2-z
-x,y,-z
y,x,1/4-z
-y,-x,3/4-z
loop_
_atom_site_type_symbol
_atom_site_label
_atom_site_fract_x
_atom_site_fract_y
_atom_site_fract_z
Si Si1 0.181301 0.290922 0.707241
Si Si2 0.869666 0.604437 0.992396
Si Si3 0.928641 0.282641 0.084722
Si Si4 0.450138 0.633799 0.271435
Si Si5 0.596424 0.963372 0.489675
Si Si6 0.330244 0.363840 0.453706
Si Si7 0.828743 0.416722 0.929719
O O1 0.216460 0.216460 0.625000
O O2 0.125546 0.353145 0.621934
O O3 0.133919 0.245038 0.815994
O O4 0.267052 0.344425 0.746924
O O5 0.940366 0.625823 0.892717
O O6 0.773664 0.630751 0.947552
O O7 0.867708 0.500848 0.994728
O O8 0.984624 0.345097 0.169123
O O9 0.863115 0.335597 0.002476
O O10 0.000000 0.238413 0.000000
O O11 0.435189 0.564811 0.375000
O O12 0.381747 0.625345 0.167178
O O13 0.549057 0.640414 0.228771
O O14 0.428240 0.727316 0.325983
O O15 0.500000 0.000643 0.500000
O O16 0.588614 0.869533 0.551423
#
# Coordination Sequence:
#
# PCOD9550480 Si02
#       7
#     8   8   8   8   8   8   8
#     4  10  21  38  54  75 108 149 192 231 300 353
#     4   9  19  34  52  74 102 141 184 229 298 357
#     4  10  20  34  55  80 108 139 181 232 296 356
#     4  11  20  35  57  73 100 142 205 266 304 336
#     4   9  18  31  51  79 107 130 179 235 289 355
#     4  10  21  38  52  74 103 149 197 254 307 340
#     4   9  18  33  50  74 102 138 177 244 301 350
#
# _framework density 20.463705000000001
#
# number of rings (size 3 to 8) (size 9 to 14) (size 15 to 20)
#    0.000    2.286    1.429    1.286    2.000    2.857 
#    2.571   12.857    0.000    0.000    0.000    0.000 
#    0.000    0.000    0.000    0.000  152.000   25.000 
#
# Total GULP energy -312007.964248 kJ/mol
# GULP energy per Si atom -5571.570790 kJ/mol
# Density = 2.041713 g / cm^3
# Si number density = 20.463705 Si / 1000 Ang^3
#
#
#
# Elastic Constant Matrix: (Units=GPa)
#
#
# Indices 1 2 3 4 5 6 
#
# 1 56.6860 6.4673 21.4817 0.0000 0.0000 0.0000
# 2 6.4673 56.6867 21.4821 0.0000 0.0000 0.0000
# 3 21.4817 21.4821 109.7619 0.0000 0.0000 0.0000
# 4 0.0000 0.0000 0.0000 36.0946 0.0000 0.0000
# 5 0.0000 0.0000 0.0000 0.0000 36.0947 0.0000
# 6 0.0000 0.0000 0.0000 0.0000 0.0000 5.3357
#
#
#
# Elastic Compliance Matrix: (Units=1/GPa)
#
#
# Indices 1 2 3 4 5 6 
#
# 1 0.019090 -0.000823 -0.003575 0.000000 0.000000 0.000000
# 2 -0.000823 0.019090 -0.003575 0.000000 0.000000 0.000000
# 3 -0.003575 -0.003575 0.010510 0.000000 0.000000 0.000000
# 4 0.000000 0.000000 0.000000 0.027705 0.000000 0.000000
# 5 0.000000 0.000000 0.000000 0.000000 0.027705 0.000000
# 6 0.000000 0.000000 0.000000 0.000000 0.000000 0.187416
#
#
# Mechanical properties :
#
#
# Convention : Reuss Voigt Hill
#
# Bulk Modulus (GPa) = 30.54090 35.77741 33.15916
# Shear Modulus (GPa) = 15.70471 27.08524 21.39497
#
# Velocity S-wave (km/s) = 2.77328 3.64204 3.23694
# Velocity P-wave (km/s) = 5.02112 5.93357 5.49631
#
# Compressibility (1/GPa) = 0.03274298
#
# Stress axis : x y z
#
# Youngs Moduli (GPa) = 52.38418 52.38472 95.14766
#
# Poissons Ratio (x) = 0.04312 0.34015
# Poissons Ratio (y) = 0.04312 0.34015
# Poissons Ratio (z) = 0.18727 0.18728
#
# Static dielectric constant tensor:
#      x y z
#    x 1.776720 0.000000 0.000000 
#    y 0.000000 1.776720 0.000000 
#    z 0.000000 0.000000 1.783880 
# 
# From -- ./inp_files/3980.got.cif
#   From: 2010.05.17/outbox.cif.g08.bks.cpg/sg95_2_cif.got.tgz:3980.got - 2010.06.03 19:46:49.
