data_PCOD9550771
_publ_section_title
;
Structure prediction by ZEFSAII (Michael W. Deem and Ramdas Pophale) SiO2 
 PCOD9550771
Probable space group: P 43 21 2
;
_chemical_formula_sum "Si O2"
_cell_formula_units_Z 48
_cell_length_a 12.480525
_cell_length_b 12.480525
_cell_length_c 16.470371
_cell_angle_alpha 90.000000
_cell_angle_beta 90.000000
_cell_angle_gamma 90.000000
_cell_volume 2565.482704
_symmetry_space_group_name_H-M "P 43 21 2"
_symmetry_group_IT_number 96
_symmetry_cell_setting 'tetragonal'
loop_
_space_group_symop_operation_xyz
x,y,z
1/2-y,1/2+x,3/4+z
-x,-y,1/2+z
1/2+y,1/2-x,1/4+z
1/2+x,1/2-y,1/4-z
1/2-x,1/2+y,3/4-z
y,x,-z
-y,-x,1/2-z
loop_
_atom_site_type_symbol
_atom_site_label
_atom_site_fract_x
_atom_site_fract_y
_atom_site_fract_z
Si Si1 0.022571 0.891313 0.325693
Si Si2 0.325405 0.692277 0.504859
Si Si3 0.355505 0.189078 0.991904
Si Si4 0.993706 0.140724 0.360815
Si Si5 0.346314 0.377789 0.749154
Si Si6 0.988983 0.705823 0.617617
O O1 0.103643 0.896358 0.250000
O O2 0.076347 0.861700 0.409975
O O3 0.923711 0.817636 0.297786
O O4 0.984126 0.015350 0.337125
O O5 0.388308 0.674516 0.419776
O O6 0.219261 0.761773 0.497463
O O7 0.405460 0.754575 0.564946
O O8 0.413860 0.284960 0.942202
O O9 0.369461 0.081594 0.939850
O O10 0.233587 0.233587 0.000000
O O11 0.408862 0.171267 0.079380
O O12 0.955919 0.154167 0.453747
O O13 0.296400 0.468420 0.807084
#
# Coordination Sequence:
#
# PCOD9550771 Si02
#       6
#     8   8   8   8   8   8
#     4  10  22  40  61  87 122 157 203 259 300 361
#     4  10  21  38  58  93 127 150 198 264 300 355
#     4  11  20  37  58  94 122 154 197 255 315 350
#     4  10  19  37  62  91 122 150 203 256 298 355
#     4  12  22  35  65  96 115 163 206 246 319 362
#     4  11  22  33  61  88 128 152 194 256 300 365
#
# _framework density 18.709928000000001
#
# number of rings (size 3 to 8) (size 9 to 14) (size 15 to 20)
#    0.000    1.333    5.000    2.000    4.667    0.000 
#    0.000    3.333   14.667    0.000    0.000    0.000 
#    0.000    0.000    0.000    0.000    0.000    0.000 
#
# Total GULP energy -267576.970330 kJ/mol
# GULP energy per Si atom -5574.520215 kJ/mol
# Density = 1.866734 g / cm^3
# Si number density = 18.709928 Si / 1000 Ang^3
#
#
#
# Elastic Constant Matrix: (Units=GPa)
#
#
# Indices 1 2 3 4 5 6 
#
# 1 59.5757 46.2380 48.4769 0.0000 0.0000 0.0000
# 2 46.2380 59.5764 48.4772 0.0000 0.0000 0.0000
# 3 48.4769 48.4772 161.1094 0.0000 0.0000 0.0000
# 4 0.0000 0.0000 0.0000 17.6443 0.0000 0.0000
# 5 0.0000 0.0000 0.0000 0.0000 17.6443 0.0000
# 6 0.0000 0.0000 0.0000 0.0000 0.0000 20.5528
#
#
#
# Elastic Compliance Matrix: (Units=1/GPa)
#
#
# Indices 1 2 3 4 5 6 
#
# 1 0.044011 -0.030963 -0.003926 0.000000 0.000000 0.000000
# 2 -0.030963 0.044010 -0.003926 0.000000 0.000000 0.000000
# 3 -0.003926 -0.003926 0.008570 0.000000 0.000000 0.000000
# 4 0.000000 0.000000 0.000000 0.056676 0.000000 0.000000
# 5 0.000000 0.000000 0.000000 0.000000 0.056676 0.000000
# 6 0.000000 0.000000 0.000000 0.000000 0.000000 0.048655
#
#
# Mechanical properties :
#
#
# Convention : Reuss Voigt Hill
#
# Bulk Modulus (GPa) = 52.73942 62.96067 57.85005
# Shear Modulus (GPa) = 14.59651 20.30621 17.45136
#
# Velocity S-wave (km/s) = 2.79614 3.29799 3.05738
# Velocity P-wave (km/s) = 6.21882 6.94452 6.59166
#
# Compressibility (1/GPa) = 0.01896115
#
# Stress axis : x y z
#
# Youngs Moduli (GPa) = 22.72164 22.72190 116.69139
#
# Poissons Ratio (x) = 0.70353 0.45813
# Poissons Ratio (y) = 0.70353 0.45813
# Poissons Ratio (z) = 0.08921 0.08921
#
# Static dielectric constant tensor:
#      x y z
#    x 1.682020 0.000000 0.000000 
#    y 0.000000 1.682020 0.000000 
#    z 0.000000 0.000000 1.679190 
# 
# From -- ./inp_files/3129.got.cif
#   From: 2010.05.17/outbox.cif.g08.bks.cpg/sg96_2_cif.got.tgz:3129.got - 2010.06.03 19:52:08.
