data_PCOD9550913
_publ_section_title
;
Structure prediction by ZEFSAII (Michael W. Deem and Ramdas Pophale) SiO2 
 PCOD9550913
Probable space group: P 43 21 2
;
_chemical_formula_sum "Si O2"
_cell_formula_units_Z 40
_cell_length_a 15.090985
_cell_length_b 15.090985
_cell_length_c 7.639464
_cell_angle_alpha 90.000000
_cell_angle_beta 90.000000
_cell_angle_gamma 90.000000
_cell_volume 1739.794941
_symmetry_space_group_name_H-M "P 43 21 2"
_symmetry_group_IT_number 96
_symmetry_cell_setting 'tetragonal'
loop_
_space_group_symop_operation_xyz
x,y,z
1/2-y,1/2+x,3/4+z
-x,-y,1/2+z
1/2+y,1/2-x,1/4+z
1/2+x,1/2-y,1/4-z
1/2-x,1/2+y,3/4-z
y,x,-z
-y,-x,1/2-z
loop_
_atom_site_type_symbol
_atom_site_label
_atom_site_fract_x
_atom_site_fract_y
_atom_site_fract_z
Si Si1 0.241640 0.474694 0.171375
Si Si2 0.416707 0.416707 0.000000
Si Si3 0.583293 0.416708 0.250000
Si Si4 0.337967 0.192162 0.292467
Si Si5 0.474694 0.758360 0.921375
Si Si6 0.662033 0.192162 0.957533
O O1 0.327566 0.423410 0.107931
O O2 0.256473 0.500000 0.375000
O O3 0.165498 0.399996 0.185909
O O4 0.230522 0.561974 0.049901
O O5 0.500000 0.421382 0.125000
O O6 0.576590 0.327566 0.357931
O O7 0.438026 0.230522 0.299901
O O8 0.334502 0.100004 0.185908
O O9 0.325328 0.174672 0.500000
O O10 0.250000 0.250000 0.242850
#
# Coordination Sequence:
#
# PCOD9550913 Si02
#       6
#     8   4   4   8   8   8
#     4  10  21  40  67  94 127 170 216 267 324 387
#     4  12  24  38  61  96 133 170 212 266 328 390
#     4  12  24  38  61  96 133 170 212 266 328 390
#     4   9  18  36  65  93 121 163 212 261 314 375
#     4  10  21  40  67  94 127 170 216 267 324 387
#     4   9  18  36  65  93 121 163 212 261 314 375
#
# _framework density 22.991215
#
# number of rings (size 3 to 8) (size 9 to 14) (size 15 to 20)
#    0.000    2.000    0.000    3.600    0.000    6.400 
#    0.000    9.000    0.000   69.600    0.000    0.000 
#    0.000    0.000    0.000    0.000    0.000    0.000 
#
# Total GULP energy -223252.967688 kJ/mol
# GULP energy per Si atom -5581.324192 kJ/mol
# Density = 2.293889 g / cm^3
# Si number density = 22.991215 Si / 1000 Ang^3
#
#
#
# Elastic Constant Matrix: (Units=GPa)
#
#
# Indices 1 2 3 4 5 6 
#
# 1 152.9004 89.5370 47.5540 0.0000 0.0000 0.0000
# 2 89.5370 152.8992 47.5549 0.0000 0.0000 0.0000
# 3 47.5540 47.5549 74.2510 0.0000 0.0000 0.0000
# 4 0.0000 0.0000 0.0000 27.6881 0.0000 0.0000
# 5 0.0000 0.0000 0.0000 0.0000 27.6878 0.0000
# 6 0.0000 0.0000 0.0000 0.0000 0.0000 82.5524
#
#
#
# Elastic Compliance Matrix: (Units=1/GPa)
#
#
# Indices 1 2 3 4 5 6 
#
# 1 0.010645 -0.005137 -0.003528 0.000000 0.000000 0.000000
# 2 -0.005137 0.010646 -0.003528 0.000000 0.000000 0.000000
# 3 -0.003528 -0.003528 0.017987 0.000000 0.000000 0.000000
# 4 0.000000 0.000000 0.000000 0.036117 0.000000 0.000000
# 5 0.000000 0.000000 0.000000 0.000000 0.036117 0.000000
# 6 0.000000 0.000000 0.000000 0.000000 0.000000 0.012114
#
#
# Mechanical properties :
#
#
# Convention : Reuss Voigt Hill
#
# Bulk Modulus (GPa) = 67.14952 83.26026 75.20489
# Shear Modulus (GPa) = 32.68500 40.61264 36.64882
#
# Velocity S-wave (km/s) = 3.77454 4.20747 3.99687
# Velocity P-wave (km/s) = 6.94739 7.73927 7.35399
#
# Compressibility (1/GPa) = 0.01489214
#
# Stress axis : x y z
#
# Youngs Moduli (GPa) = 93.93704 93.93523 55.59518
#
# Poissons Ratio (x) = 0.48251 0.19614
# Poissons Ratio (y) = 0.48252 0.19616
# Poissons Ratio (z) = 0.33142 0.33144
#
# Static dielectric constant tensor:
#      x y z
#    x 1.872220 0.000000 0.000000 
#    y 0.000000 1.872220 0.000000 
#    z 0.000000 0.000000 1.595880 
# 
# From -- ./inp_files/1390.got.cif
#   From: 2010.05.17/outbox.cif.g08.bks.cpg/sg96_1_cif.got.tgz:1390.got - 2010.06.03 19:52:08.
