data_PCOD9550302
_publ_section_title
;
Structure prediction by ZEFSAII (Michael W. Deem and Ramdas Pophale) SiO2 
 PCOD9550302
Probable space group: P 42 21 2
;
_chemical_formula_sum "Si O2"
_cell_formula_units_Z 48
_cell_length_a 14.013949
_cell_length_b 14.013949
_cell_length_c 11.853732
_cell_angle_alpha 90.000000
_cell_angle_beta 90.000000
_cell_angle_gamma 90.000000
_cell_volume 2327.963514
_symmetry_space_group_name_H-M "P 42 21 2"
_symmetry_group_IT_number 94
_symmetry_cell_setting 'tetragonal'
loop_
_space_group_symop_operation_xyz
x,y,z
1/2-y,1/2+x,1/2+z
-x,-y,z
1/2+y,1/2-x,1/2+z
1/2+x,1/2-y,1/2-z
1/2-x,1/2+y,1/2-z
y,x,-z
-y,-x,-z
loop_
_atom_site_type_symbol
_atom_site_label
_atom_site_fract_x
_atom_site_fract_y
_atom_site_fract_z
Si Si1 0.654382 0.345618 0.000000
Si Si2 0.363496 0.363496 0.000000
Si Si3 0.943677 0.825005 0.911391
Si Si4 0.401881 0.534597 0.178339
Si Si5 0.359657 0.152957 0.381729
Si Si6 0.652683 0.129927 0.610580
Si Si7 0.500000 0.000000 0.495297
Si Si8 0.354616 0.354616 0.500000
O O1 0.582258 0.373619 0.099157
O O2 0.757641 0.367589 0.054513
O O3 0.447802 0.369793 0.904425
O O4 0.259597 0.371588 0.939810
O O5 0.926973 0.838479 0.779087
O O6 0.902698 0.721740 0.939482
O O7 0.895495 0.895495 0.000000
O O8 0.055158 0.844983 0.920567
O O9 0.500000 0.500000 0.231276
O O10 0.361075 0.152870 0.246263
O O11 0.368487 0.261707 0.423007
O O12 0.443539 0.081623 0.423656
O O13 0.584922 0.043776 0.571009
#
# Coordination Sequence:
#
# PCOD9550302 Si02
#       8
#     4   4   8   8   8   8   4   4
#     4  11  21  42  70 100 141 181 236 288 348 420
#     4  12  25  46  72 109 144 182 244 292 356 421
#     4  12  25  47  70 105 143 181 233 295 356 420
#     4  12  23  43  73 105 141 184 232 290 350 424
#     4  11  25  46  71  99 142 186 237 289 361 426
#     4  12  26  45  70 106 138 189 235 297 349 428
#     4  12  26  50  72  98 144 186 244 298 360 436
#     4  11  23  48  68 104 137 185 232 286 360 430
#
# _framework density 20.618880999999998
#
# number of rings (size 3 to 8) (size 9 to 14) (size 15 to 20)
#    0.000    0.333    5.833    3.750    0.000    0.000 
#    0.000    1.667    0.000    0.000    0.000    0.000 
#    0.000    0.000    0.000    0.000    0.000    0.000 
#
# Total GULP energy -267514.522640 kJ/mol
# GULP energy per Si atom -5573.219222 kJ/mol
# Density = 2.057195 g / cm^3
# Si number density = 20.618881 Si / 1000 Ang^3
#
#
#
# Elastic Constant Matrix: (Units=GPa)
#
#
# Indices 1 2 3 4 5 6 
#
# 1 60.1838 101.3776 60.8464 0.0000 0.0000 0.0000
# 2 101.3776 60.1842 60.8463 0.0000 0.0000 0.0000
# 3 60.8464 60.8463 121.6420 0.0000 0.0000 0.0000
# 4 0.0000 0.0000 0.0000 78.4719 0.0000 0.0000
# 5 0.0000 0.0000 0.0000 0.0000 78.4749 0.0000
# 6 0.0000 0.0000 0.0000 0.0000 0.0000 39.5737
#
#
#
# Elastic Compliance Matrix: (Units=1/GPa)
#
#
# Indices 1 2 3 4 5 6 
#
# 1 -0.007172 0.017104 -0.004968 0.000000 0.000000 0.000000
# 2 0.017104 -0.007172 -0.004968 0.000000 0.000000 0.000000
# 3 -0.004968 -0.004968 0.013191 0.000000 0.000000 0.000000
# 4 0.000000 0.000000 0.000000 0.012743 0.000000 0.000000
# 5 0.000000 0.000000 0.000000 0.000000 0.012743 0.000000
# 6 0.000000 0.000000 0.000000 0.000000 0.000000 0.025269
#
#
# Mechanical properties :
#
#
# Convention : Reuss Voigt Hill
#
# Bulk Modulus (GPa) = 75.85842 76.46115 76.15978
# Shear Modulus (GPa) = 126.06978 40.56673 83.31826
#
# Velocity S-wave (km/s) = 7.82787 4.44041 6.36368
# Velocity P-wave (km/s) = 10.88905 7.96576 9.54004
#
# Compressibility (1/GPa) = 0.01318245
#
# Stress axis : x y z
#
# Youngs Moduli (GPa) = -139.42886 -139.43082 75.81080
#
# Poissons Ratio (x) = 2.38476 0.37661
# Poissons Ratio (y) = 2.38473 0.37662
# Poissons Ratio (z) = -0.69265 -0.69267
#
# Static dielectric constant tensor:
#      x y z
#    x 1.763860 0.000000 0.000000 
#    y 0.000000 1.763860 0.000000 
#    z 0.000000 0.000000 1.660830 
# 
# From -- ./inp_files/2694.got.cif
#   From: 2010.05.17/outbox.cif.g08.bks.cpg/sg94_2_cif.got.tgz:2694.got - 2010.06.03 19:43:16.
