data_PCOD9550323
_publ_section_title
;
Structure prediction by ZEFSAII (Michael W. Deem and Ramdas Pophale) SiO2 
 PCOD9550323
Probable space group: P 42 21 2
;
_chemical_formula_sum "Si O2"
_cell_formula_units_Z 40
_cell_length_a 7.783992
_cell_length_b 7.783992
_cell_length_c 32.242612
_cell_angle_alpha 90.000000
_cell_angle_beta 90.000000
_cell_angle_gamma 90.000000
_cell_volume 1953.596997
_symmetry_space_group_name_H-M "P 42 21 2"
_symmetry_group_IT_number 94
_symmetry_cell_setting 'tetragonal'
loop_
_space_group_symop_operation_xyz
x,y,z
1/2-y,1/2+x,1/2+z
-x,-y,z
1/2+y,1/2-x,1/2+z
1/2+x,1/2-y,1/2-z
1/2-x,1/2+y,1/2-z
y,x,-z
-y,-x,-z
loop_
_atom_site_type_symbol
_atom_site_label
_atom_site_fract_x
_atom_site_fract_y
_atom_site_fract_z
Si Si1 0.857347 0.729431 0.791121
Si Si2 0.830971 0.753455 0.301030
Si Si3 0.554546 0.185744 0.001760
Si Si4 0.180672 0.425820 0.149125
Si Si5 0.121721 0.858325 0.427646
O O1 0.789305 0.534851 0.799850
O O2 0.834917 0.771762 0.742734
O O3 0.716040 0.842925 0.815015
O O4 0.058262 0.747402 0.804318
O O5 0.782414 0.904284 0.333758
O O6 0.482836 0.213468 0.048284
O O7 0.500000 0.000000 0.989142
O O8 0.750582 0.249419 0.000000
O O9 0.460746 0.298016 0.966587
O O10 0.255377 0.319387 0.110047
O O11 0.000000 0.500000 0.135191
O O12 0.000000 0.000000 0.407791
#
# Coordination Sequence:
#
# PCOD9550323 Si02
#       5
#     8   8   8   8   8
#     4  11  23  39  60  86 114 159 210 249 312 363
#     4  11  23  39  61  84 116 159 205 258 304 371
#     4   9  18  37  65  91 120 161 199 246 309 376
#     4  12  24  39  61  87 122 160 203 259 304 361
#     4   9  19  38  61  86 119 157 201 241 298 372
#
# _framework density 20.475051000000001
#
# number of rings (size 3 to 8) (size 9 to 14) (size 15 to 20)
#    0.000    1.600    2.000    4.800    0.000    2.400 
#   10.800    2.000    4.400    0.000    0.000    0.000 
#    0.000    0.000    0.000    0.000    0.000    0.000 
#
# Total GULP energy -222671.445270 kJ/mol
# GULP energy per Si atom -5566.786132 kJ/mol
# Density = 2.042845 g / cm^3
# Si number density = 20.475051 Si / 1000 Ang^3
#
#
#
# Elastic Constant Matrix: (Units=GPa)
#
#
# Indices 1 2 3 4 5 6 
#
# 1 74.9311 7.9722 11.4257 0.0000 0.0000 0.0000
# 2 7.9722 74.9321 11.4260 0.0000 0.0000 0.0000
# 3 11.4257 11.4260 94.5334 0.0000 0.0000 0.0000
# 4 0.0000 0.0000 0.0000 32.9093 0.0000 0.0000
# 5 0.0000 0.0000 0.0000 0.0000 32.9100 0.0000
# 6 0.0000 0.0000 0.0000 0.0000 0.0000 21.5549
#
#
#
# Elastic Compliance Matrix: (Units=1/GPa)
#
#
# Indices 1 2 3 4 5 6 
#
# 1 0.013706 -0.001228 -0.001508 0.000000 0.000000 0.000000
# 2 -0.001228 0.013706 -0.001508 0.000000 0.000000 0.000000
# 3 -0.001508 -0.001508 0.010943 0.000000 0.000000 0.000000
# 4 0.000000 0.000000 0.000000 0.030387 0.000000 0.000000
# 5 0.000000 0.000000 0.000000 0.000000 0.030386 0.000000
# 6 0.000000 0.000000 0.000000 0.000000 0.000000 0.046393
#
#
# Mechanical properties :
#
#
# Convention : Reuss Voigt Hill
#
# Bulk Modulus (GPa) = 33.48287 34.00492 33.74389
# Shear Modulus (GPa) = 30.49428 31.71303 31.10365
#
# Velocity S-wave (km/s) = 3.86338 3.93983 3.90179
# Velocity P-wave (km/s) = 6.02407 6.11068 6.06753
#
# Compressibility (1/GPa) = 0.02986602
#
# Stress axis : x y z
#
# Youngs Moduli (GPa) = 72.95953 72.96040 91.38403
#
# Poissons Ratio (x) = 0.08962 0.13782
# Poissons Ratio (y) = 0.08961 0.13782
# Poissons Ratio (z) = 0.11003 0.11004
#
# Static dielectric constant tensor:
#      x y z
#    x 1.382560 0.000000 0.000000 
#    y 0.000000 1.382520 0.000000 
#    z 0.000000 0.000000 1.698960 
# 
# From -- ./inp_files/5443.got.cif
#   From: 2010.05.17/outbox.cif.g08.bks.cpg/sg94_3_cif.got.tgz:5443.got - 2010.06.03 19:43:16.
