data_PCOD9550117
_publ_section_title
;
Structure prediction by ZEFSAII (Michael W. Deem and Ramdas Pophale) SiO2 
 PCOD9550117
Probable space group: P 42 21 2
;
_chemical_formula_sum "Si O2"
_cell_formula_units_Z 52
_cell_length_a 19.893957
_cell_length_b 19.893957
_cell_length_c 5.926919
_cell_angle_alpha 90.000000
_cell_angle_beta 90.000000
_cell_angle_gamma 90.000000
_cell_volume 2345.693918
_symmetry_space_group_name_H-M "P 42 21 2"
_symmetry_group_IT_number 94
_symmetry_cell_setting 'tetragonal'
loop_
_space_group_symop_operation_xyz
x,y,z
1/2-y,1/2+x,1/2+z
-x,-y,z
1/2+y,1/2-x,1/2+z
1/2+x,1/2-y,1/2-z
1/2-x,1/2+y,1/2-z
y,x,-z
-y,-x,-z
loop_
_atom_site_type_symbol
_atom_site_label
_atom_site_fract_x
_atom_site_fract_y
_atom_site_fract_z
Si Si1 0.211708 0.788293 0.500000
Si Si2 0.445941 0.655731 0.947846
Si Si3 0.252621 0.171151 0.323237
Si Si4 0.293070 0.419233 0.281990
Si Si5 0.928925 0.655889 0.810536
Si Si6 0.048852 0.654958 0.540122
Si Si7 0.502753 0.252058 0.339874
O O1 0.285409 0.784013 0.617538
O O2 0.155549 0.805673 0.690045
O O3 0.455664 0.698190 0.179109
O O4 0.418693 0.581308 0.000000
O O5 0.383375 0.691056 0.811573
O O6 0.519050 0.663923 0.829601
O O7 0.225454 0.225454 0.500000
O O8 0.314670 0.122233 0.376890
O O9 0.290111 0.439491 0.544526
O O10 0.217032 0.428020 0.192809
O O11 0.988763 0.622140 0.676744
O O12 0.895059 0.606305 0.980457
O O13 0.954153 0.718942 0.960178
O O14 0.023317 0.691426 0.313959
#
# Coordination Sequence:
#
# PCOD9550117 Si02
#       7
#     4   8   8   8   8   8   8
#     4  12  26  38  65 104 140 168 229 294 360 414
#     4  10  22  40  61  93 129 168 228 275 337 415
#     4  11  24  35  61  99 128 161 220 289 341 406
#     4  10  22  40  59  93 130 174 211 273 353 413
#     4  11  22  42  59  91 128 168 226 270 344 407
#     4  10  22  39  60  85 124 174 215 273 331 405
#     4  10  21  40  63  85 128 174 209 274 342 397
#
# _framework density 22.168279999999999
#
# number of rings (size 3 to 8) (size 9 to 14) (size 15 to 20)
#    0.000    1.538    6.154    0.000    6.462    3.077 
#    0.000    2.692    0.000    0.000    0.000    4.308 
#    0.000    0.000    0.000    0.000    0.000    0.000 
#
# Total GULP energy -289661.074988 kJ/mol
# GULP energy per Si atom -5570.405288 kJ/mol
# Density = 2.211782 g / cm^3
# Si number density = 22.168280 Si / 1000 Ang^3
#
#
#
# Elastic Constant Matrix: (Units=GPa)
#
#
# Indices 1 2 3 4 5 6 
#
# 1 163.9709 -106.6719 16.6293 0.0000 0.0000 0.0000
# 2 -106.6719 163.9809 16.6160 0.0000 0.0000 0.0000
# 3 16.6293 16.6160 65.4255 0.0000 0.0000 0.0000
# 4 0.0000 0.0000 0.0000 4.2090 0.0000 0.0000
# 5 0.0000 0.0000 0.0000 0.0000 4.2124 0.0000
# 6 0.0000 0.0000 0.0000 0.0000 0.0000 18.9893
#
#
#
# Elastic Compliance Matrix: (Units=1/GPa)
#
#
# Indices 1 2 3 4 5 6 
#
# 1 0.012082 0.008386 -0.005201 0.000000 0.000000 0.000000
# 2 0.008386 0.012081 -0.005200 0.000000 0.000000 0.000000
# 3 -0.005201 -0.005200 0.017927 0.000000 0.000000 0.000000
# 4 0.000000 0.000000 0.000000 0.237584 0.000000 0.000000
# 5 0.000000 0.000000 0.000000 0.000000 0.237393 0.000000
# 6 0.000000 0.000000 0.000000 0.000000 0.000000 0.052661
#
#
# Mechanical properties :
#
#
# Convention : Reuss Voigt Hill
#
# Bulk Modulus (GPa) = 26.27326 27.39159 26.83243
# Shear Modulus (GPa) = 8.52598 36.60241 22.56420
#
# Velocity S-wave (km/s) = 1.96326 4.06780 3.19385
# Velocity P-wave (km/s) = 4.12512 5.86905 5.07259
#
# Compressibility (1/GPa) = 0.03806151
#
# Stress axis : x y z
#
# Youngs Moduli (GPa) = 82.76825 82.77696 55.78173
#
# Poissons Ratio (x) = -0.69421 0.29011
# Poissons Ratio (y) = -0.69413 0.29005
# Poissons Ratio (z) = 0.43046 0.43042
#
# Static dielectric constant tensor:
#      x y z
#    x 1.875720 0.000000 0.000000 
#    y 0.000000 1.875720 0.000000 
#    z 0.000000 0.000000 1.876670 
# 
# From -- ./inp_files/556.got.cif
#   From: 2010.05.17/outbox.cif.g08.bks.cpg/sg94_1_cif.got.tgz:556.got - 2010.06.03 19:43:16.
