data_PCOD9550871
_publ_section_title
;
Structure prediction by ZEFSAII (Michael W. Deem and Ramdas Pophale) SiO2 
 PCOD9550871
Probable space group: P 43 21 2
;
_chemical_formula_sum "Si O2"
_cell_formula_units_Z 40
_cell_length_a 14.036446
_cell_length_b 14.036446
_cell_length_c 8.969633
_cell_angle_alpha 90.000000
_cell_angle_beta 90.000000
_cell_angle_gamma 90.000000
_cell_volume 1767.213385
_symmetry_space_group_name_H-M "P 43 21 2"
_symmetry_group_IT_number 96
_symmetry_cell_setting 'tetragonal'
loop_
_space_group_symop_operation_xyz
x,y,z
1/2-y,1/2+x,3/4+z
-x,-y,1/2+z
1/2+y,1/2-x,1/4+z
1/2+x,1/2-y,1/4-z
1/2-x,1/2+y,3/4-z
y,x,-z
-y,-x,1/2-z
loop_
_atom_site_type_symbol
_atom_site_label
_atom_site_fract_x
_atom_site_fract_y
_atom_site_fract_z
Si Si1 0.104247 0.515386 0.351787
Si Si2 0.303368 0.696633 0.250000
Si Si3 0.191192 0.808809 0.750000
Si Si4 0.027132 0.904147 0.410628
Si Si5 0.630794 0.789128 0.784967
Si Si6 0.792510 0.008585 0.070837
O O1 0.047793 0.434255 0.439952
O O2 0.092129 0.603717 0.468445
O O3 0.211905 0.483814 0.308429
O O4 0.303206 0.795279 0.167376
O O5 0.396985 0.694926 0.353761
O O6 0.196968 0.746539 0.601296
O O7 0.082286 0.780623 0.794858
O O8 0.046695 0.953306 0.250000
O O9 0.054339 0.792138 0.420154
O O10 0.109032 0.953672 0.506942
O O11 0.931246 0.931246 0.500000
#
# Coordination Sequence:
#
# PCOD9550871 Si02
#       6
#     8   4   4   8   8   8
#     4  11  26  46  71  99 139 190 246 297 360 439
#     4  10  20  44  69  91 140 194 230 274 376 438
#     4  10  24  42  69 103 138 176 236 302 356 418
#     4  11  22  38  67 100 141 177 231 294 362 432
#     4  10  23  44  68  98 142 185 234 297 358 433
#     4  10  23  40  69 100 134 182 232 289 364 429
#
# _framework density 22.634502999999999
#
# number of rings (size 3 to 8) (size 9 to 14) (size 15 to 20)
#    0.000    1.600    2.000    1.200   16.800    0.000 
#    3.600    0.000    8.800    0.000    0.000    0.000 
#    0.000    0.000    0.000    0.000    0.000    0.000 
#
# Total GULP energy -222854.637075 kJ/mol
# GULP energy per Si atom -5571.365927 kJ/mol
# Density = 2.258299 g / cm^3
# Si number density = 22.634503 Si / 1000 Ang^3
#
#
#
# Elastic Constant Matrix: (Units=GPa)
#
#
# Indices 1 2 3 4 5 6 
#
# 1 63.9531 22.5050 -4.5161 0.0000 0.0000 0.0000
# 2 22.5050 63.9511 -4.5129 0.0000 0.0000 0.0000
# 3 -4.5161 -4.5129 23.1947 0.0000 0.0000 0.0000
# 4 0.0000 0.0000 0.0000 26.4604 0.0000 0.0000
# 5 0.0000 0.0000 0.0000 0.0000 26.4593 0.0000
# 6 0.0000 0.0000 0.0000 0.0000 0.0000 33.1811
#
#
#
# Elastic Compliance Matrix: (Units=1/GPa)
#
#
# Indices 1 2 3 4 5 6 
#
# 1 0.017967 -0.006160 0.002300 0.000000 0.000000 0.000000
# 2 -0.006160 0.017967 0.002296 0.000000 0.000000 0.000000
# 3 0.002300 0.002296 0.044008 0.000000 0.000000 0.000000
# 4 0.000000 0.000000 0.000000 0.037792 0.000000 0.000000
# 5 0.000000 0.000000 0.000000 0.000000 0.037794 0.000000
# 6 0.000000 0.000000 0.000000 0.000000 0.000000 0.030138
#
#
# Mechanical properties :
#
#
# Convention : Reuss Voigt Hill
#
# Bulk Modulus (GPa) = 13.01872 19.78343 16.40107
# Shear Modulus (GPa) = 23.32107 26.39502 24.85805
#
# Velocity S-wave (km/s) = 3.21336 3.41859 3.31756
# Velocity P-wave (km/s) = 4.41948 4.93373 4.68367
#
# Compressibility (1/GPa) = 0.07681249
#
# Stress axis : x y z
#
# Youngs Moduli (GPa) = 55.65864 55.65789 22.72321
#
# Poissons Ratio (x) = 0.34287 -0.05225
# Poissons Ratio (y) = 0.34288 -0.05218
# Poissons Ratio (z) = -0.12799 -0.12781
#
# Static dielectric constant tensor:
#      x y z
#    x 1.969940 0.000000 0.000000 
#    y 0.000000 1.969930 0.000000 
#    z 0.000000 0.000000 1.835140 
# 
# From -- ./inp_files/1351.got.cif
#   From: 2010.05.17/outbox.cif.g08.bks.cpg/sg96_1_cif.got.tgz:1351.got - 2010.06.03 19:52:08.
