data_PCOD9550051
_publ_section_title
;
Structure prediction by ZEFSAII (Michael W. Deem and Ramdas Pophale) SiO2 
 PCOD9550051
Probable space group: P 42 21 2
;
_chemical_formula_sum "Si O2"
_cell_formula_units_Z 40
_cell_length_a 12.239829
_cell_length_b 12.239829
_cell_length_c 13.917321
_cell_angle_alpha 90.000000
_cell_angle_beta 90.000000
_cell_angle_gamma 90.000000
_cell_volume 2085.001372
_symmetry_space_group_name_H-M "P 42 21 2"
_symmetry_group_IT_number 94
_symmetry_cell_setting 'tetragonal'
loop_
_space_group_symop_operation_xyz
x,y,z
1/2-y,1/2+x,1/2+z
-x,-y,z
1/2+y,1/2-x,1/2+z
1/2+x,1/2-y,1/2-z
1/2-x,1/2+y,1/2-z
y,x,-z
-y,-x,-z
loop_
_atom_site_type_symbol
_atom_site_label
_atom_site_fract_x
_atom_site_fract_y
_atom_site_fract_z
Si Si1 0.948028 0.686404 0.674992
Si Si2 0.526642 0.626604 0.707498
Si Si3 0.331554 0.118248 0.912694
Si Si4 0.718902 0.858520 0.126322
Si Si5 0.623227 0.733376 0.408590
O O1 0.893731 0.652913 0.778148
O O2 0.848591 0.684362 0.601495
O O3 0.991792 0.807953 0.697631
O O4 0.052473 0.618727 0.640566
O O5 0.500000 0.500000 0.711633
O O6 0.451508 0.685919 0.626756
O O7 0.651777 0.643837 0.679882
O O8 0.254318 0.213854 0.870341
O O9 0.267598 0.003809 0.906401
O O10 0.345801 0.139095 0.026836
O O11 0.666712 0.666712 0.500000
#
# Coordination Sequence:
#
# PCOD9550051 Si02
#       5
#     8   8   8   8   8
#     4  10  23  39  56  94 131 163 205 271 345 392
#     4  10  20  38  65  90 121 163 222 271 322 382
#     4  11  20  39  64  94 127 166 219 277 333 393
#     4   9  21  37  63  92 120 162 221 262 324 392
#     4  12  21  37  63  90 122 167 217 269 319 398
#
# _framework density 19.184639000000001
#
# number of rings (size 3 to 8) (size 9 to 14) (size 15 to 20)
#    1.200    0.400    4.000    1.800    0.000    0.400 
#    0.000   16.000    0.000    0.000    0.000    0.000 
#    0.000    0.000    0.000    0.000    0.000    0.000 
#
# Total GULP energy -222670.009834 kJ/mol
# GULP energy per Si atom -5566.750246 kJ/mol
# Density = 1.914097 g / cm^3
# Si number density = 19.184639 Si / 1000 Ang^3
#
#
#
# Elastic Constant Matrix: (Units=GPa)
#
#
# Indices 1 2 3 4 5 6 
#
# 1 85.5534 20.7698 32.8929 0.0000 0.0000 0.0000
# 2 20.7698 85.5534 32.8929 0.0000 0.0000 0.0000
# 3 32.8929 32.8929 69.8153 0.0000 0.0000 0.0000
# 4 0.0000 0.0000 0.0000 27.4059 0.0000 0.0000
# 5 0.0000 0.0000 0.0000 0.0000 27.4059 0.0000
# 6 0.0000 0.0000 0.0000 0.0000 0.0000 26.4305
#
#
#
# Elastic Compliance Matrix: (Units=1/GPa)
#
#
# Indices 1 2 3 4 5 6 
#
# 1 0.014356 -0.001080 -0.006254 0.000000 0.000000 0.000000
# 2 -0.001080 0.014356 -0.006254 0.000000 0.000000 0.000000
# 3 -0.006254 -0.006254 0.020217 0.000000 0.000000 0.000000
# 4 0.000000 0.000000 0.000000 0.036489 0.000000 0.000000
# 5 0.000000 0.000000 0.000000 0.000000 0.036489 0.000000
# 6 0.000000 0.000000 0.000000 0.000000 0.000000 0.037835
#
#
# Mechanical properties :
#
#
# Convention : Reuss Voigt Hill
#
# Bulk Modulus (GPa) = 45.97832 46.00371 45.99101
# Shear Modulus (GPa) = 25.75080 26.53956 26.14518
#
# Velocity S-wave (km/s) = 3.66766 3.72341 3.69564
# Velocity P-wave (km/s) = 6.47718 6.52047 6.49886
#
# Compressibility (1/GPa) = 0.02174938
#
# Stress axis : x y z
#
# Youngs Moduli (GPa) = 69.65942 69.65942 49.46338
#
# Poissons Ratio (x) = 0.07526 0.30937
# Poissons Ratio (y) = 0.07526 0.30937
# Poissons Ratio (z) = 0.43568 0.43568
#
# Static dielectric constant tensor:
#      x y z
#    x 1.668990 0.000000 0.000000 
#    y 0.000000 1.668990 0.000000 
#    z 0.000000 0.000000 1.696950 
# 
# From -- ./inp_files/3420.got.cif
#   From: 2010.05.17/outbox.cif.g08.bks.cpg/sg94_2_cif.got.tgz:3420.got - 2010.06.03 19:43:16.
