data_PCOD9550808
_publ_section_title
;
Structure prediction by ZEFSAII (Michael W. Deem and Ramdas Pophale) SiO2 
 PCOD9550808
Probable space group: P 43 21 2
;
_chemical_formula_sum "Si O2"
_cell_formula_units_Z 32
_cell_length_a 13.418146
_cell_length_b 13.418146
_cell_length_c 7.414570
_cell_angle_alpha 90.000000
_cell_angle_beta 90.000000
_cell_angle_gamma 90.000000
_cell_volume 1334.968431
_symmetry_space_group_name_H-M "P 43 21 2"
_symmetry_group_IT_number 96
_symmetry_cell_setting 'tetragonal'
loop_
_space_group_symop_operation_xyz
x,y,z
1/2-y,1/2+x,3/4+z
-x,-y,1/2+z
1/2+y,1/2-x,1/4+z
1/2+x,1/2-y,1/4-z
1/2-x,1/2+y,3/4-z
y,x,-z
-y,-x,1/2-z
loop_
_atom_site_type_symbol
_atom_site_label
_atom_site_fract_x
_atom_site_fract_y
_atom_site_fract_z
Si Si1 0.814930 0.348866 0.712870
Si Si2 0.374290 0.971410 0.962023
Si Si3 0.288529 0.458574 0.294397
Si Si4 0.153773 0.989090 0.033620
O O1 0.747334 0.252667 0.750000
O O2 0.741519 0.441439 0.693072
O O3 0.884519 0.375233 0.884359
O O4 0.888081 0.308944 0.557801
O O5 0.434325 0.930769 0.793921
O O6 0.259069 0.995543 0.934826
O O7 0.386452 0.401185 0.228476
O O8 0.317568 0.484772 0.503162
O O9 0.080433 0.080433 0.000000
#
# Coordination Sequence:
#
# PCOD9550808 Si02
#       4
#     8   8   8   8
#     4  11  18  34  61  88 121 170 206 253 320 386
#     4  11  22  42  65  91 131 173 219 272 328 392
#     4  10  20  35  61  90 119 167 210 255 320 398
#     4  10  20  39  61  87 128 165 203 275 331 373
#
# _framework density 23.970604000000002
#
# number of rings (size 3 to 8) (size 9 to 14) (size 15 to 20)
#    0.000    1.500   10.000    0.750    0.000    0.000 
#    4.500    2.500    5.500    0.000    0.000    0.000 
#    0.000    0.000    0.000    0.000    0.000    0.000 
#
# Total GULP energy -179252.985382 kJ/mol
# GULP energy per Si atom -5601.655793 kJ/mol
# Density = 2.391605 g / cm^3
# Si number density = 23.970604 Si / 1000 Ang^3
#
#
#
# Elastic Constant Matrix: (Units=GPa)
#
#
# Indices 1 2 3 4 5 6 
#
# 1 176.6616 94.1369 43.0995 0.0000 0.0000 0.0000
# 2 94.1369 176.6635 43.1005 0.0000 0.0000 0.0000
# 3 43.0995 43.1005 77.6762 0.0000 0.0000 0.0000
# 4 0.0000 0.0000 0.0000 -3.1112 0.0000 0.0000
# 5 0.0000 0.0000 0.0000 0.0000 -3.1132 0.0000
# 6 0.0000 0.0000 0.0000 0.0000 0.0000 64.7250
#
#
#
# Elastic Compliance Matrix: (Units=1/GPa)
#
#
# Indices 1 2 3 4 5 6 
#
# 1 0.008301 -0.003816 -0.002488 0.000000 0.000000 0.000000
# 2 -0.003816 0.008301 -0.002489 0.000000 0.000000 0.000000
# 3 -0.002488 -0.002489 0.015636 0.000000 0.000000 0.000000
# 4 0.000000 0.000000 0.000000 -0.321424 0.000000 0.000000
# 5 0.000000 0.000000 0.000000 0.000000 -0.321209 0.000000
# 6 0.000000 0.000000 0.000000 0.000000 0.000000 0.015450
#
#
# Mechanical properties :
#
#
# Convention : Reuss Voigt Hill
#
# Bulk Modulus (GPa) = 68.25348 87.96388 78.10868
# Shear Modulus (GPa) = -8.73402 28.41109 9.83854
#
# Velocity S-wave (km/s) = -1.91090 3.44648 2.02813
# Velocity P-wave (km/s) = 4.86486 7.25354 6.17579
#
# Compressibility (1/GPa) = 0.01465127
#
# Stress axis : x y z
#
# Youngs Moduli (GPa) = 120.46449 120.46514 63.95675
#
# Poissons Ratio (x) = 0.45973 0.15915
# Poissons Ratio (y) = 0.45972 0.15916
# Poissons Ratio (z) = 0.29977 0.29979
#
# Static dielectric constant tensor:
#      x y z
#    x 1.880450 0.000000 0.000000 
#    y 0.000000 1.880450 0.000000 
#    z 0.000000 0.000000 1.954260 
# 
# From -- ./inp_files/1937.got.cif
#   From: 2010.05.17/outbox.cif.g08.bks.cpg/sg96_1_cif.got.tgz:1937.got - 2010.06.03 19:52:08.
