data_PCOD9550639
_publ_section_title
;
Structure prediction by ZEFSAII (Michael W. Deem and Ramdas Pophale) SiO2 
 PCOD9550639
Probable space group: P 43 2 2
;
_chemical_formula_sum "Si O2"
_cell_formula_units_Z 40
_cell_length_a 17.739753
_cell_length_b 17.739753
_cell_length_c 6.334623
_cell_angle_alpha 90.000000
_cell_angle_beta 90.000000
_cell_angle_gamma 90.000000
_cell_volume 1993.498488
_symmetry_space_group_name_H-M "P 43 2 2"
_symmetry_group_IT_number 95
_symmetry_cell_setting 'tetragonal'
loop_
_space_group_symop_operation_xyz
x,y,z
-y,x,3/4+z
-x,-y,1/2+z
y,-x,1/4+z
x,-y,1/2-z
-x,y,-z
y,x,1/4-z
-y,-x,3/4-z
loop_
_atom_site_type_symbol
_atom_site_label
_atom_site_fract_x
_atom_site_fract_y
_atom_site_fract_z
Si Si1 0.175174 0.662564 0.199888
Si Si2 0.577706 0.925429 0.112735
Si Si3 0.572443 0.697225 0.646576
Si Si4 0.273204 0.920036 0.169868
Si Si5 0.500000 0.612248 0.000000
Si Si6 0.787907 0.212094 0.375000
O O1 0.222802 0.605766 0.342693
O O2 0.124820 0.709097 0.364627
O O3 0.132724 0.610270 0.032293
O O4 0.218891 0.722954 0.053187
O O5 0.562329 0.000000 0.250000
O O6 0.500000 0.902569 0.000000
O O7 0.646577 0.936854 0.947226
O O8 0.500000 0.680829 0.500000
O O9 0.641436 0.641436 0.625000
O O10 0.547858 0.672383 0.873463
O O11 0.239856 0.000000 0.250000
O O12 0.226199 0.866882 0.004295
O O13 0.556009 0.556009 0.125000
#
# Coordination Sequence:
#
# PCOD9550639 Si02
#       6
#     8   8   8   8   4   4
#     4  11  26  46  63 100 138 181 222 283 347 414
#     4  11  24  40  65  98 138 183 231 278 331 411
#     4  12  26  43  65  88 125 168 227 289 353 408
#     4  11  22  43  72  99 142 180 225 280 341 412
#     4  12  24  46  68  88 114 164 234 306 360 420
#     4  10  24  44  72  98 146 174 230 278 330 422
#
# _framework density 20.065227
#
# number of rings (size 3 to 8) (size 9 to 14) (size 15 to 20)
#    0.000    0.800    4.000    3.000    2.800    4.800 
#    1.800    0.000    0.000    0.000    0.000    0.000 
#   42.000    0.000    0.000    0.000    0.000    0.000 
#
# Total GULP energy -223105.236566 kJ/mol
# GULP energy per Si atom -5577.630914 kJ/mol
# Density = 2.001956 g / cm^3
# Si number density = 20.065227 Si / 1000 Ang^3
#
#
#
# Elastic Constant Matrix: (Units=GPa)
#
#
# Indices 1 2 3 4 5 6 
#
# 1 73.8657 41.2498 44.5991 0.0000 0.0000 0.0000
# 2 41.2498 73.8649 44.5991 0.0000 0.0000 0.0000
# 3 44.5991 44.5991 107.5544 0.0000 0.0000 0.0000
# 4 0.0000 0.0000 0.0000 46.3057 0.0000 0.0000
# 5 0.0000 0.0000 0.0000 0.0000 46.3057 0.0000
# 6 0.0000 0.0000 0.0000 0.0000 0.0000 21.3446
#
#
#
# Elastic Compliance Matrix: (Units=1/GPa)
#
#
# Indices 1 2 3 4 5 6 
#
# 1 0.021730 -0.008930 -0.005307 0.000000 0.000000 0.000000
# 2 -0.008930 0.021730 -0.005308 0.000000 0.000000 0.000000
# 3 -0.005307 -0.005308 0.013699 0.000000 0.000000 0.000000
# 4 0.000000 0.000000 0.000000 0.021596 0.000000 0.000000
# 5 0.000000 0.000000 0.000000 0.000000 0.021596 0.000000
# 6 0.000000 0.000000 0.000000 0.000000 0.000000 0.046850
#
#
# Mechanical properties :
#
#
# Convention : Reuss Voigt Hill
#
# Bulk Modulus (GPa) = 55.34555 57.35345 56.34950
# Shear Modulus (GPa) = 25.99910 31.11367 28.55638
#
# Velocity S-wave (km/s) = 3.60353 3.94207 3.77660
# Velocity P-wave (km/s) = 6.70497 7.02606 6.86739
#
# Compressibility (1/GPa) = 0.01806830
#
# Stress axis : x y z
#
# Youngs Moduli (GPa) = 46.01975 46.01913 72.99635
#
# Poissons Ratio (x) = 0.41097 0.38743
# Poissons Ratio (y) = 0.41097 0.38743
# Poissons Ratio (z) = 0.24425 0.24425
#
# Static dielectric constant tensor:
#      x y z
#    x 1.697580 0.000000 0.000000 
#    y 0.000000 1.697580 0.000000 
#    z 0.000000 0.000000 1.799400 
# 
# From -- ./inp_files/861.got.cif
#   From: 2010.05.17/outbox.cif.g08.bks.cpg/sg95_1_cif.got.tgz:861.got - 2010.06.03 19:46:49.
