data_PCOD9550168
_publ_section_title
;
Structure prediction by ZEFSAII (Michael W. Deem and Ramdas Pophale) SiO2 
 PCOD9550168
Probable space group: P 42 21 2
;
_chemical_formula_sum "Si O2"
_cell_formula_units_Z 64
_cell_length_a 11.576862
_cell_length_b 11.576862
_cell_length_c 23.252612
_cell_angle_alpha 90.000000
_cell_angle_beta 90.000000
_cell_angle_gamma 90.000000
_cell_volume 3116.401880
_symmetry_space_group_name_H-M "P 42 21 2"
_symmetry_group_IT_number 94
_symmetry_cell_setting 'tetragonal'
loop_
_space_group_symop_operation_xyz
x,y,z
1/2-y,1/2+x,1/2+z
-x,-y,z
1/2+y,1/2-x,1/2+z
1/2+x,1/2-y,1/2-z
1/2-x,1/2+y,1/2-z
y,x,-z
-y,-x,-z
loop_
_atom_site_type_symbol
_atom_site_label
_atom_site_fract_x
_atom_site_fract_y
_atom_site_fract_z
Si Si1 0.710511 0.250890 0.191058
Si Si2 0.232273 0.135932 0.142875
Si Si3 0.442219 0.597826 0.748436
Si Si4 0.130906 0.546288 0.138374
Si Si5 0.458321 0.633046 0.443662
Si Si6 0.359876 0.296893 0.808809
Si Si7 0.617499 0.061897 0.101987
Si Si8 0.826226 0.645834 0.520257
O O1 0.602780 0.324861 0.215698
O O2 0.811798 0.342186 0.172161
O O3 0.753985 0.178816 0.245689
O O4 0.665853 0.166898 0.140903
O O5 0.202736 0.079650 0.204462
O O6 0.114539 0.174332 0.111406
O O7 0.314817 0.244179 0.155162
O O8 0.287182 0.037997 0.104553
O O9 0.500000 0.500000 0.708760
O O10 0.547096 0.607583 0.793355
O O11 0.204454 0.436623 0.157877
O O12 0.150713 0.584734 0.072721
O O13 0.000000 0.500000 0.147576
O O14 0.500000 0.500000 0.434530
O O15 0.377142 0.622859 0.500000
O O16 0.561401 0.721549 0.458321
O O17 0.500000 0.000000 0.123062
O O18 0.609641 0.099993 0.036233
O O19 0.763593 0.763593 0.500000
#
# Coordination Sequence:
#
# PCOD9550168 Si02
#       8
#     8   8   8   8   8   8   8   8
#     4  10  23  42  63  97 132 171 225 281 336 416
#     4  11  22  40  61  92 130 163 220 279 336 418
#     4  10  22  39  64  88 125 173 217 271 340 401
#     4  11  24  43  69  98 136 180 227 283 347 416
#     4  11  20  34  60  93 126 162 208 273 345 396
#     4  10  23  42  60  96 129 171 222 274 335 414
#     4  12  25  40  62  95 133 178 223 278 347 399
#     4  12  22  41  65  97 136 176 227 282 342 412
#
# _framework density 20.536504999999998
#
# number of rings (size 3 to 8) (size 9 to 14) (size 15 to 20)
#    0.000    1.125    5.000    1.500    1.750    3.500 
#    0.000    0.000    0.000    0.000    0.000    1.750 
#    0.000    0.000    0.000    0.000    0.000    0.000 
#
# Total GULP energy -356564.292665 kJ/mol
# GULP energy per Si atom -5571.317073 kJ/mol
# Density = 2.048976 g / cm^3
# Si number density = 20.536505 Si / 1000 Ang^3
#
#
#
# Elastic Constant Matrix: (Units=GPa)
#
#
# Indices 1 2 3 4 5 6 
#
# 1 78.3336 31.2053 22.4058 0.0000 0.0000 0.0000
# 2 31.2053 78.3335 22.4058 0.0000 0.0000 0.0000
# 3 22.4058 22.4058 101.7849 0.0000 0.0000 0.0000
# 4 0.0000 0.0000 0.0000 5.6147 0.0000 0.0000
# 5 0.0000 0.0000 0.0000 0.0000 5.6151 0.0000
# 6 0.0000 0.0000 0.0000 0.0000 0.0000 23.4273
#
#
#
# Elastic Compliance Matrix: (Units=1/GPa)
#
#
# Indices 1 2 3 4 5 6 
#
# 1 0.015626 -0.005593 -0.002208 0.000000 0.000000 0.000000
# 2 -0.005593 0.015626 -0.002208 0.000000 0.000000 0.000000
# 3 -0.002208 -0.002208 0.010797 0.000000 0.000000 0.000000
# 4 0.000000 0.000000 0.000000 0.178103 0.000000 0.000000
# 5 0.000000 0.000000 0.000000 0.000000 0.178092 0.000000
# 6 0.000000 0.000000 0.000000 0.000000 0.000000 0.042685
#
#
# Mechanical properties :
#
#
# Convention : Reuss Voigt Hill
#
# Bulk Modulus (GPa) = 45.39606 45.60953 45.50280
# Shear Modulus (GPa) = 10.67711 19.09376 14.88544
#
# Velocity S-wave (km/s) = 2.28262 3.05248 2.69518
# Velocity P-wave (km/s) = 5.39446 5.88904 5.64717
#
# Compressibility (1/GPa) = 0.02202834
#
# Stress axis : x y z
#
# Youngs Moduli (GPa) = 63.99734 63.99725 92.61883
#
# Poissons Ratio (x) = 0.35794 0.20455
# Poissons Ratio (y) = 0.35794 0.20455
# Poissons Ratio (z) = 0.14134 0.14134
#
# Static dielectric constant tensor:
#      x y z
#    x 2.022530 0.000000 0.000000 
#    y 0.000000 2.022520 0.000000 
#    z 0.000000 0.000000 1.729660 
# 
# From -- ./inp_files/5183.got.cif
#   From: 2010.05.17/outbox.cif.g08.bks.cpg/sg94_3_cif.got.tgz:5183.got - 2010.06.03 19:43:16.
