data_PCOD9550980
_publ_section_title
;
Structure prediction by ZEFSAII (Michael W. Deem and Ramdas Pophale) SiO2 
 PCOD9550980
Probable space group: P 43 21 2
;
_chemical_formula_sum "Si O2"
_cell_formula_units_Z 40
_cell_length_a 8.639953
_cell_length_b 8.639953
_cell_length_c 25.359575
_cell_angle_alpha 90.000000
_cell_angle_beta 90.000000
_cell_angle_gamma 90.000000
_cell_volume 1893.061534
_symmetry_space_group_name_H-M "P 43 21 2"
_symmetry_group_IT_number 96
_symmetry_cell_setting 'tetragonal'
loop_
_space_group_symop_operation_xyz
x,y,z
1/2-y,1/2+x,3/4+z
-x,-y,1/2+z
1/2+y,1/2-x,1/4+z
1/2+x,1/2-y,1/4-z
1/2-x,1/2+y,3/4-z
y,x,-z
-y,-x,1/2-z
loop_
_atom_site_type_symbol
_atom_site_label
_atom_site_fract_x
_atom_site_fract_y
_atom_site_fract_z
Si Si1 0.778888 0.679841 0.558221
Si Si2 0.517662 0.268251 0.497032
Si Si3 0.616069 0.848875 0.653066
Si Si4 0.318171 0.746911 0.415713
Si Si5 0.810405 0.414573 0.823774
O O1 0.733434 0.733434 0.500000
O O2 0.673681 0.761241 0.602167
O O3 0.758215 0.495326 0.565278
O O4 0.958567 0.715740 0.571623
O O5 0.432366 0.432366 0.500000
O O6 0.636901 0.248333 0.448312
O O7 0.610777 0.243088 0.549993
O O8 0.382683 0.146241 0.481039
O O9 0.582042 0.030184 0.641846
O O10 0.299842 0.702988 0.354457
O O11 0.244272 0.913833 0.427263
#
# Coordination Sequence:
#
# PCOD9550980 Si02
#       5
#     8   8   8   8   8
#     4  11  25  44  68  98 135 181 224 288 346 404
#     4  10  22  43  67  97 132 180 220 279 343 404
#     4   9  25  43  63  99 133 172 225 284 329 420
#     4  11  22  42  68  96 132 179 220 279 345 403
#     4   9  23  42  64  98 129 175 224 283 331 415
#
# _framework density 21.129795000000001
#
# number of rings (size 3 to 8) (size 9 to 14) (size 15 to 20)
#    1.200    0.800    0.000    1.800    8.400    0.000 
#    7.200    0.000    0.000    0.000    0.000    0.000 
#    0.000    0.000    0.000    0.000    0.000    0.000 
#
# Total GULP energy -222901.755679 kJ/mol
# GULP energy per Si atom -5572.543892 kJ/mol
# Density = 2.108170 g / cm^3
# Si number density = 21.129795 Si / 1000 Ang^3
#
#
#
# Elastic Constant Matrix: (Units=GPa)
#
#
# Indices 1 2 3 4 5 6 
#
# 1 35.0853 59.3485 43.2743 0.0000 0.0000 0.0000
# 2 59.3485 35.0853 43.2743 0.0000 0.0000 0.0000
# 3 43.2743 43.2743 99.9637 0.0000 0.0000 0.0000
# 4 0.0000 0.0000 0.0000 34.5512 0.0000 0.0000
# 5 0.0000 0.0000 0.0000 0.0000 34.5512 0.0000
# 6 0.0000 0.0000 0.0000 0.0000 0.0000 19.0321
#
#
#
# Elastic Compliance Matrix: (Units=1/GPa)
#
#
# Indices 1 2 3 4 5 6 
#
# 1 -0.011830 0.029384 -0.007599 0.000000 0.000000 0.000000
# 2 0.029384 -0.011830 -0.007599 0.000000 0.000000 0.000000
# 3 -0.007599 -0.007599 0.016583 0.000000 0.000000 0.000000
# 4 0.000000 0.000000 0.000000 0.028943 0.000000 0.000000
# 5 0.000000 0.000000 0.000000 0.000000 0.028943 0.000000
# 6 0.000000 0.000000 0.000000 0.000000 0.000000 0.052543
#
#
# Mechanical properties :
#
#
# Convention : Reuss Voigt Hill
#
# Bulk Modulus (GPa) = 46.96052 51.32536 49.14294
# Shear Modulus (GPa) = 60.91906 19.24271 40.08088
#
# Velocity S-wave (km/s) = 5.37526 3.02104 4.36005
# Velocity P-wave (km/s) = 7.79729 6.04253 6.97531
#
# Compressibility (1/GPa) = 0.02129448
#
# Stress axis : x y z
#
# Youngs Moduli (GPa) = -84.52820 -84.52820 60.30286
#
# Poissons Ratio (x) = 2.48381 0.45825
# Poissons Ratio (y) = 2.48381 0.45825
# Poissons Ratio (z) = -0.64234 -0.64234
#
# Static dielectric constant tensor:
#      x y z
#    x 1.801500 0.000000 0.000000 
#    y 0.000000 1.801500 0.000000 
#    z 0.000000 0.000000 1.785720 
# 
# From -- ./inp_files/4139.got.cif
#   From: 2010.05.17/outbox.cif.g08.bks.cpg/sg96_3_cif.got.tgz:4139.got - 2010.06.03 19:52:08.
