data_PCOD9550474
_publ_section_title
;
Structure prediction by ZEFSAII (Michael W. Deem and Ramdas Pophale) SiO2 
 PCOD9550474
Probable space group: P 43 2 2
;
_chemical_formula_sum "Si O2"
_cell_formula_units_Z 40
_cell_length_a 12.222196
_cell_length_b 12.222196
_cell_length_c 13.724077
_cell_angle_alpha 90.000000
_cell_angle_beta 90.000000
_cell_angle_gamma 90.000000
_cell_volume 2050.131101
_symmetry_space_group_name_H-M "P 43 2 2"
_symmetry_group_IT_number 95
_symmetry_cell_setting 'tetragonal'
loop_
_space_group_symop_operation_xyz
x,y,z
-y,x,3/4+z
-x,-y,1/2+z
y,-x,1/4+z
x,-y,1/2-z
-x,y,-z
y,x,1/4-z
-y,-x,3/4-z
loop_
_atom_site_type_symbol
_atom_site_label
_atom_site_fract_x
_atom_site_fract_y
_atom_site_fract_z
Si Si1 0.376328 0.126560 0.220263
Si Si2 0.620535 0.887034 0.305386
Si Si3 0.174016 0.256943 0.842294
Si Si4 0.096863 0.951530 0.573646
Si Si5 0.039698 0.663664 0.262484
O O1 0.504059 0.152535 0.234731
O O2 0.303402 0.191729 0.298071
O O3 0.348128 0.118854 0.105843
O O4 0.360712 0.000000 0.250000
O O5 0.712717 0.792200 0.300588
O O6 0.595734 0.924302 0.417465
O O7 0.654601 0.000000 0.250000
O O8 0.100366 0.147278 0.850010
O O9 0.090452 0.342169 0.789849
O O10 0.215164 0.946581 0.529668
O O11 0.000000 0.925533 0.500000
O O12 0.064305 0.064305 0.625000
#
# Coordination Sequence:
#
# PCOD9550474 Si02
#       5
#     8   8   8   8   8
#     4   9  19  38  52  74 110 153 197 230 281 350
#     4  10  22  34  52  78 114 150 193 241 278 345
#     4  10  21  32  53  77 109 154 189 231 282 334
#     4  11  20  27  43  74 112 143 175 210 261 332
#     4  10  20  32  52  71 112 152 187 218 286 335
#
# _framework density 19.510947000000002
#
# number of rings (size 3 to 8) (size 9 to 14) (size 15 to 20)
#    0.000    2.000    2.000    2.400    5.600    2.400 
#    0.000    0.000    0.000    0.000    0.000    0.000 
#    0.000  140.800    0.000    0.000    0.000    0.000 
#
# Total GULP energy -222706.827179 kJ/mol
# GULP energy per Si atom -5567.670679 kJ/mol
# Density = 1.946654 g / cm^3
# Si number density = 19.510947 Si / 1000 Ang^3
#
#
#
# Elastic Constant Matrix: (Units=GPa)
#
#
# Indices 1 2 3 4 5 6 
#
# 1 66.7337 20.5657 5.0390 0.0000 0.0000 0.0000
# 2 20.5657 66.7337 5.0390 0.0000 0.0000 0.0000
# 3 5.0390 5.0390 45.3208 0.0000 0.0000 0.0000
# 4 0.0000 0.0000 0.0000 26.7380 0.0000 0.0000
# 5 0.0000 0.0000 0.0000 0.0000 26.7380 0.0000
# 6 0.0000 0.0000 0.0000 0.0000 0.0000 15.6407
#
#
#
# Elastic Compliance Matrix: (Units=1/GPa)
#
#
# Indices 1 2 3 4 5 6 
#
# 1 0.016632 -0.005028 -0.001290 0.000000 0.000000 0.000000
# 2 -0.005028 0.016632 -0.001290 0.000000 0.000000 0.000000
# 3 -0.001290 -0.001290 0.022352 0.000000 0.000000 0.000000
# 4 0.000000 0.000000 0.000000 0.037400 0.000000 0.000000
# 5 0.000000 0.000000 0.000000 0.000000 0.037400 0.000000
# 6 0.000000 0.000000 0.000000 0.000000 0.000000 0.063936
#
#
# Mechanical properties :
#
#
# Convention : Reuss Voigt Hill
#
# Bulk Modulus (GPa) = 24.75328 26.67507 25.71417
# Shear Modulus (GPa) = 22.41806 23.69963 23.05884
#
# Velocity S-wave (km/s) = 3.39337 3.48901 3.44152
# Velocity P-wave (km/s) = 5.29789 5.47106 5.38517
#
# Compressibility (1/GPa) = 0.04039869
#
# Stress axis : x y z
#
# Youngs Moduli (GPa) = 60.12545 60.12545 44.73904
#
# Poissons Ratio (x) = 0.30232 0.05772
# Poissons Ratio (y) = 0.30232 0.05772
# Poissons Ratio (z) = 0.07757 0.07757
#
# Static dielectric constant tensor:
#      x y z
#    x 1.712540 0.000000 0.000000 
#    y 0.000000 1.712540 0.000000 
#    z 0.000000 0.000000 1.827450 
# 
# From -- ./inp_files/4815.got.cif
#   From: 2010.05.17/outbox.cif.g08.bks.cpg/sg95_3_cif.got.tgz:4815.got - 2010.06.03 19:46:49.
