data_PCOD9550683
_publ_section_title
;
Structure prediction by ZEFSAII (Michael W. Deem and Ramdas Pophale) SiO2 
 PCOD9550683
Probable space group: P 43 2 2
;
_chemical_formula_sum "Si O2"
_cell_formula_units_Z 60
_cell_length_a 16.791196
_cell_length_b 16.791196
_cell_length_c 9.250035
_cell_angle_alpha 90.000000
_cell_angle_beta 90.000000
_cell_angle_gamma 90.000000
_cell_volume 2607.994302
_symmetry_space_group_name_H-M "P 43 2 2"
_symmetry_group_IT_number 95
_symmetry_cell_setting 'tetragonal'
loop_
_space_group_symop_operation_xyz
x,y,z
-y,x,3/4+z
-x,-y,1/2+z
y,-x,1/4+z
x,-y,1/2-z
-x,y,-z
y,x,1/4-z
-y,-x,3/4-z
loop_
_atom_site_type_symbol
_atom_site_label
_atom_site_fract_x
_atom_site_fract_y
_atom_site_fract_z
Si Si1 0.613970 0.738524 0.631455
Si Si2 0.313832 0.313832 0.625000
Si Si3 0.576662 0.969499 0.911412
Si Si4 0.434262 0.228309 0.803327
Si Si5 0.924066 0.656394 0.896578
Si Si6 0.302190 0.176638 0.383637
Si Si7 0.177914 0.906923 0.503420
Si Si8 0.916933 0.852224 0.277437
O O1 0.648481 0.648481 0.625000
O O2 0.598504 0.762314 0.466543
O O3 0.528654 0.759597 0.702749
O O4 0.677963 0.786451 0.727191
O O5 0.395162 0.296423 0.706703
O O6 0.310269 0.245362 0.503347
O O7 0.638355 0.897300 0.904344
O O8 0.557817 0.000000 0.750000
O O9 0.500000 0.942265 0.000000
O O10 0.611094 0.042800 0.005670
O O11 0.397298 0.141100 0.769645
O O12 0.890109 0.740499 0.840548
O O13 0.000000 0.671835 0.000000
O O14 0.215278 0.142284 0.411200
O O15 0.150855 0.849146 0.375000
O O16 0.100982 0.920050 0.606946
O O17 0.187665 0.997873 0.452921
O O18 0.884145 0.884145 0.125000
#
# Coordination Sequence:
#
# PCOD9550683 Si02
#       8
#     8   4   8   8   8   8   8   8
#     4  11  26  51  76 112 156 202 246 309 382 472
#     4  12  24  46  78 114 144 194 260 316 376 464
#     4  12  29  47  75 115 160 198 245 312 399 480
#     4  11  27  47  80 113 155 200 253 311 385 472
#     4  12  26  49  75 111 160 204 252 325 407 471
#     4  12  26  46  76 109 151 197 257 314 385 473
#     4  12  29  46  74 103 149 199 264 328 383 457
#     4  12  26  49  73 106 144 200 260 326 392 445
#
# _framework density 23.006187000000001
#
# number of rings (size 3 to 8) (size 9 to 14) (size 15 to 20)
#    0.000    0.267    3.333    4.400   11.200    1.600 
#    0.000    0.000    5.867    0.000    0.000    0.000 
#    0.000    0.000    0.000    0.000    0.000    0.000 
#
# Total GULP energy -335585.650166 kJ/mol
# GULP energy per Si atom -5593.094169 kJ/mol
# Density = 2.295382 g / cm^3
# Si number density = 23.006187 Si / 1000 Ang^3
#
#
#
# Elastic Constant Matrix: (Units=GPa)
#
#
# Indices 1 2 3 4 5 6 
#
# 1 100.2179 55.7669 22.6917 0.0000 0.0000 0.0000
# 2 55.7669 100.2214 22.6919 0.0000 0.0000 0.0000
# 3 22.6917 22.6919 101.8557 0.0000 0.0000 0.0000
# 4 0.0000 0.0000 0.0000 33.4296 0.0000 0.0000
# 5 0.0000 0.0000 0.0000 0.0000 33.4297 0.0000
# 6 0.0000 0.0000 0.0000 0.0000 0.0000 31.4466
#
#
#
# Elastic Compliance Matrix: (Units=1/GPa)
#
#
# Indices 1 2 3 4 5 6 
#
# 1 0.014676 -0.007820 -0.001527 0.000000 0.000000 0.000000
# 2 -0.007820 0.014675 -0.001527 0.000000 0.000000 0.000000
# 3 -0.001527 -0.001527 0.010498 0.000000 0.000000 0.000000
# 4 0.000000 0.000000 0.000000 0.029914 0.000000 0.000000
# 5 0.000000 0.000000 0.000000 0.000000 0.029913 0.000000
# 6 0.000000 0.000000 0.000000 0.000000 0.000000 0.031800
#
#
# Mechanical properties :
#
#
# Convention : Reuss Voigt Hill
#
# Bulk Modulus (GPa) = 55.24949 56.06623 55.65786
# Shear Modulus (GPa) = 31.39540 33.07083 32.23311
#
# Velocity S-wave (km/s) = 3.69813 3.79552 3.74714
# Velocity P-wave (km/s) = 6.50400 6.60537 6.55488
#
# Compressibility (1/GPa) = 0.01809972
#
# Stress axis : x y z
#
# Youngs Moduli (GPa) = 68.13971 68.14217 95.25366
#
# Poissons Ratio (x) = 0.53289 0.14548
# Poissons Ratio (y) = 0.53287 0.14547
# Poissons Ratio (z) = 0.10407 0.10406
#
# Static dielectric constant tensor:
#      x y z
#    x 2.029990 0.000000 0.000000 
#    y 0.000000 2.029980 0.000000 
#    z 0.000000 0.000000 2.078050 
# 
# From -- ./inp_files/2802.got.cif
#   From: 2010.05.17/outbox.cif.g08.bks.cpg/sg95_2_cif.got.tgz:2802.got - 2010.06.03 19:46:49.
