data_PCOD9550883
_publ_section_title
;
Structure prediction by ZEFSAII (Michael W. Deem and Ramdas Pophale) SiO2 
 PCOD9550883
Probable space group: P 43 21 2
;
_chemical_formula_sum "Si O2"
_cell_formula_units_Z 64
_cell_length_a 11.913088
_cell_length_b 11.913088
_cell_length_c 27.074370
_cell_angle_alpha 90.000000
_cell_angle_beta 90.000000
_cell_angle_gamma 90.000000
_cell_volume 3842.439688
_symmetry_space_group_name_H-M "P 43 21 2"
_symmetry_group_IT_number 96
_symmetry_cell_setting 'tetragonal'
loop_
_space_group_symop_operation_xyz
x,y,z
1/2-y,1/2+x,3/4+z
-x,-y,1/2+z
1/2+y,1/2-x,1/4+z
1/2+x,1/2-y,1/4-z
1/2-x,1/2+y,3/4-z
y,x,-z
-y,-x,1/2-z
loop_
_atom_site_type_symbol
_atom_site_label
_atom_site_fract_x
_atom_site_fract_y
_atom_site_fract_z
Si Si1 0.949675 0.105157 0.642457
Si Si2 0.368163 0.896766 0.343974
Si Si3 0.177006 0.638014 0.262970
Si Si4 0.465643 0.366346 0.721870
Si Si5 0.198295 0.724156 0.502505
Si Si6 0.197158 0.161725 0.661161
Si Si7 0.026533 0.252865 0.823737
Si Si8 0.355198 0.913641 0.091355
O O1 0.917991 0.233050 0.657858
O O2 0.929777 0.096110 0.583311
O O3 0.875295 0.017743 0.673382
O O4 0.082247 0.097288 0.651998
O O5 0.407202 0.858401 0.290399
O O6 0.390794 0.802506 0.384219
O O7 0.422705 0.015383 0.354390
O O8 0.256005 0.743996 0.250000
O O9 0.256631 0.543741 0.286876
O O10 0.068432 0.678627 0.292809
O O11 0.542513 0.457487 0.750000
O O12 0.354748 0.335890 0.753450
O O13 0.310121 0.716881 0.468332
O O14 0.221588 0.646477 0.549533
O O15 0.103755 0.665688 0.466968
O O16 0.184375 0.289603 0.639243
O O17 0.011054 0.292478 0.880106
#
# Coordination Sequence:
#
# PCOD9550883 Si02
#       8
#     8   8   8   8   8   8   8   8
#     4  11  18  31  51  80 115 145 162 220 287 340
#     4  11  16  30  49  79 114 135 168 213 282 335
#     4  11  19  27  51  87 111 133 167 223 277 344
#     4  11  22  35  53  77 109 145 188 221 280 341
#     4  10  21  33  48  78 104 146 185 226 269 340
#     4   9  17  29  46  75 117 138 163 207 284 343
#     4  12  19  31  55  78 111 141 182 219 280 343
#     4   9  18  29  47  72 104 139 170 222 273 317
#
# _framework density 16.656085000000001
#
# number of rings (size 3 to 8) (size 9 to 14) (size 15 to 20)
#    0.750    0.750    6.250    3.000    0.000    0.000 
#    0.000    0.000    2.750    0.000    0.000    0.000 
#    0.000    0.000    0.000    0.000    0.000    0.000 
#
# Total GULP energy -356304.485154 kJ/mol
# GULP energy per Si atom -5567.257581 kJ/mol
# Density = 1.661818 g / cm^3
# Si number density = 16.656085 Si / 1000 Ang^3
#
#
#
# Elastic Constant Matrix: (Units=GPa)
#
#
# Indices 1 2 3 4 5 6 
#
# 1 59.2282 16.0677 2.6069 0.0000 0.0000 0.0000
# 2 16.0677 59.2292 2.6075 0.0000 0.0000 0.0000
# 3 2.6069 2.6075 42.1952 0.0000 0.0000 0.0000
# 4 0.0000 0.0000 0.0000 22.2254 0.0000 0.0000
# 5 0.0000 0.0000 0.0000 0.0000 22.2254 0.0000
# 6 0.0000 0.0000 0.0000 0.0000 0.0000 10.4299
#
#
#
# Elastic Compliance Matrix: (Units=1/GPa)
#
#
# Indices 1 2 3 4 5 6 
#
# 1 0.018254 -0.004916 -0.000824 0.000000 0.000000 0.000000
# 2 -0.004916 0.018253 -0.000824 0.000000 0.000000 0.000000
# 3 -0.000824 -0.000824 0.023801 0.000000 0.000000 0.000000
# 4 0.000000 0.000000 0.000000 0.044994 0.000000 0.000000
# 5 0.000000 0.000000 0.000000 0.000000 0.044994 0.000000
# 6 0.000000 0.000000 0.000000 0.000000 0.000000 0.095878
#
#
# Mechanical properties :
#
#
# Convention : Reuss Voigt Hill
#
# Bulk Modulus (GPa) = 21.19521 22.57966 21.88743
# Shear Modulus (GPa) = 18.17997 20.26750 19.22374
#
# Velocity S-wave (km/s) = 3.30736 3.49208 3.40097
# Velocity P-wave (km/s) = 5.22854 5.46309 5.34710
#
# Compressibility (1/GPa) = 0.04718047
#
# Stress axis : x y z
#
# Youngs Moduli (GPa) = 54.78361 54.78445 42.01469
#
# Poissons Ratio (x) = 0.26930 0.03462
# Poissons Ratio (y) = 0.26929 0.03463
# Poissons Ratio (z) = 0.04514 0.04516
#
# Static dielectric constant tensor:
#      x y z
#    x 1.574960 0.000000 0.000000 
#    y 0.000000 1.574960 0.000000 
#    z 0.000000 0.000000 1.620150 
# 
# From -- ./inp_files/4223.got.cif
#   From: 2010.05.17/outbox.cif.g08.bks.cpg/sg96_3_cif.got.tgz:4223.got - 2010.06.03 19:52:08.
