data_PCOD9550250
_publ_section_title
;
Structure prediction by ZEFSAII (Michael W. Deem and Ramdas Pophale) SiO2 
 PCOD9550250
Probable space group: P 42 21 2
;
_chemical_formula_sum "Si O2"
_cell_formula_units_Z 38
_cell_length_a 8.336948
_cell_length_b 8.336948
_cell_length_c 24.402831
_cell_angle_alpha 90.000000
_cell_angle_beta 90.000000
_cell_angle_gamma 90.000000
_cell_volume 1696.111496
_symmetry_space_group_name_H-M "P 42 21 2"
_symmetry_group_IT_number 94
_symmetry_cell_setting 'tetragonal'
loop_
_space_group_symop_operation_xyz
x,y,z
1/2-y,1/2+x,1/2+z
-x,-y,z
1/2+y,1/2-x,1/2+z
1/2+x,1/2-y,1/2-z
1/2-x,1/2+y,1/2-z
y,x,-z
-y,-x,-z
loop_
_atom_site_type_symbol
_atom_site_label
_atom_site_fract_x
_atom_site_fract_y
_atom_site_fract_z
Si Si1 0.500000 0.000000 0.500274
Si Si2 0.826464 0.436786 0.690457
Si Si3 0.055540 0.820718 0.300604
Si Si4 0.903973 0.773673 0.078084
Si Si5 0.313668 0.459447 0.923681
Si Si6 0.500000 0.500000 0.500000
O O1 0.491828 0.156605 0.460490
O O2 0.664900 0.997353 0.536398
O O3 0.786632 0.506861 0.749509
O O4 0.821185 0.246484 0.696385
O O5 0.712543 0.474516 0.638721
O O6 0.000000 0.500000 0.673205
O O7 0.985302 0.779041 0.360839
O O8 0.000000 0.000000 0.288027
O O9 0.732979 0.688759 0.079532
O O10 0.875318 0.941218 0.046755
O O11 0.500000 0.500000 0.937522
#
# Coordination Sequence:
#
# PCOD9550250 Si02
#       6
#     4   8   8   8   8   2
#     4  12  22  46  72 104 134 192 230 282 378 412
#     4  11  23  44  70  97 137 176 232 287 360 427
#     4  10  23  44  68 102 135 179 229 294 356 422
#     4  11  25  44  67 102 140 184 232 296 357 435
#     4  10  24  47  73 104 145 182 247 303 353 444
#     4  12  24  48  58  96 146 172 240 282 346 444
#
# _framework density 22.404184999999998
#
# number of rings (size 3 to 8) (size 9 to 14) (size 15 to 20)
#    0.000    1.263    3.158    1.263    2.947    3.368 
#    7.579    0.000    0.000    0.000    0.000    0.000 
#    0.000    0.000    0.000    0.000    0.000    0.000 
#
# Total GULP energy -211654.901203 kJ/mol
# GULP energy per Si atom -5569.865821 kJ/mol
# Density = 2.235319 g / cm^3
# Si number density = 22.404185 Si / 1000 Ang^3
#
#
#
# Elastic Constant Matrix: (Units=GPa)
#
#
# Indices 1 2 3 4 5 6 
#
# 1 51.3109 25.8343 44.9854 0.0000 0.0000 0.0000
# 2 25.8343 51.3109 44.9854 0.0000 0.0000 0.0000
# 3 44.9854 44.9854 163.9528 0.0000 0.0000 0.0000
# 4 0.0000 0.0000 0.0000 35.7762 0.0000 0.0000
# 5 0.0000 0.0000 0.0000 0.0000 35.7762 0.0000
# 6 0.0000 0.0000 0.0000 0.0000 0.0000 41.1337
#
#
#
# Elastic Compliance Matrix: (Units=1/GPa)
#
#
# Indices 1 2 3 4 5 6 
#
# 1 0.029157 -0.010095 -0.005230 0.000000 0.000000 0.000000
# 2 -0.010095 0.029157 -0.005230 0.000000 0.000000 0.000000
# 3 -0.005230 -0.005230 0.008970 0.000000 0.000000 0.000000
# 4 0.000000 0.000000 0.000000 0.027952 0.000000 0.000000
# 5 0.000000 0.000000 0.000000 0.000000 0.027952 0.000000
# 6 0.000000 0.000000 0.000000 0.000000 0.000000 0.024311
#
#
# Mechanical properties :
#
#
# Convention : Reuss Voigt Hill
#
# Bulk Modulus (GPa) = 38.20718 55.35387 46.78052
# Shear Modulus (GPa) = 25.33789 32.58854 28.96321
#
# Velocity S-wave (km/s) = 3.36660 3.81802 3.59940
# Velocity P-wave (km/s) = 5.67473 6.64808 6.18060
#
# Compressibility (1/GPa) = 0.02617309
#
# Stress axis : x y z
#
# Youngs Moduli (GPa) = 34.29692 34.29692 111.48835
#
# Poissons Ratio (x) = 0.34621 0.58313
# Poissons Ratio (y) = 0.34621 0.58313
# Poissons Ratio (z) = 0.17939 0.17939
#
# Static dielectric constant tensor:
#      x y z
#    x 1.866050 0.000000 0.000000 
#    y 0.000000 1.866050 0.000000 
#    z 0.000000 0.000000 1.893060 
# 
# From -- ./inp_files/5010.got.cif
#   From: 2010.05.17/outbox.cif.g08.bks.cpg/sg94_3_cif.got.tgz:5010.got - 2010.06.03 19:43:16.
