data_PCOD9550467
_publ_section_title
;
Structure prediction by ZEFSAII (Michael W. Deem and Ramdas Pophale) SiO2 
 PCOD9550467
Probable space group: P 43 2 2
;
_chemical_formula_sum "Si O2"
_cell_formula_units_Z 40
_cell_length_a 14.017887
_cell_length_b 14.017887
_cell_length_c 10.588280
_cell_angle_alpha 90.000000
_cell_angle_beta 90.000000
_cell_angle_gamma 90.000000
_cell_volume 2080.609259
_symmetry_space_group_name_H-M "P 43 2 2"
_symmetry_group_IT_number 95
_symmetry_cell_setting 'tetragonal'
loop_
_space_group_symop_operation_xyz
x,y,z
-y,x,3/4+z
-x,-y,1/2+z
y,-x,1/4+z
x,-y,1/2-z
-x,y,-z
y,x,1/4-z
-y,-x,3/4-z
loop_
_atom_site_type_symbol
_atom_site_label
_atom_site_fract_x
_atom_site_fract_y
_atom_site_fract_z
Si Si1 0.122072 0.877929 0.875000
Si Si2 0.268114 0.184790 0.844596
Si Si3 0.000000 0.333685 0.000000
Si Si4 0.753861 0.592979 0.102516
Si Si5 0.049747 0.185566 0.208030
Si Si6 0.188115 0.610312 0.621170
O O1 0.198917 0.855086 0.766073
O O2 0.021490 0.866732 0.804448
O O3 0.367613 0.198551 0.774140
O O4 0.234802 0.286975 0.897263
O O5 0.254984 0.114864 0.959354
O O6 0.001801 0.258592 0.884639
O O7 0.093732 0.395101 0.965476
O O8 0.659861 0.659861 0.125000
O O9 0.742928 0.479500 0.094641
O O10 0.822447 0.608227 0.225089
O O11 0.111501 0.111501 0.125000
#
# Coordination Sequence:
#
# PCOD9550467 Si02
#       6
#     4   8   4   8   8   8
#     4  12  22  42  58  86 126 164 232 264 310 400
#     4  11  20  41  62  89 126 165 210 273 329 379
#     4  12  22  42  56  88 128 172 218 258 334 386
#     4   9  19  39  65  93 118 163 209 265 332 394
#     4  12  24  41  59  85 131 182 217 272 325 384
#     4  10  19  38  63  91 129 160 212 272 323 391
#
# _framework density 19.225138000000001
#
# number of rings (size 3 to 8) (size 9 to 14) (size 15 to 20)
#    0.000    1.200    7.000    0.600    0.000    0.000 
#   27.000    0.000    0.000    0.000   78.000    0.000 
#    0.000    0.000    0.000    0.000    0.000    0.000 
#
# Total GULP energy -222911.826701 kJ/mol
# GULP energy per Si atom -5572.795668 kJ/mol
# Density = 1.918138 g / cm^3
# Si number density = 19.225138 Si / 1000 Ang^3
#
#
#
# Elastic Constant Matrix: (Units=GPa)
#
#
# Indices 1 2 3 4 5 6 
#
# 1 73.6461 25.9459 37.9957 0.0000 0.0000 0.0000
# 2 25.9459 73.6450 37.9968 0.0000 0.0000 0.0000
# 3 37.9957 37.9968 62.4906 0.0000 0.0000 0.0000
# 4 0.0000 0.0000 0.0000 30.3018 0.0000 0.0000
# 5 0.0000 0.0000 0.0000 0.0000 30.3017 0.0000
# 6 0.0000 0.0000 0.0000 0.0000 0.0000 16.9812
#
#
#
# Elastic Compliance Matrix: (Units=1/GPa)
#
#
# Indices 1 2 3 4 5 6 
#
# 1 0.019848 -0.001116 -0.011389 0.000000 0.000000 0.000000
# 2 -0.001116 0.019849 -0.011390 0.000000 0.000000 0.000000
# 3 -0.011389 -0.011390 0.029853 0.000000 0.000000 0.000000
# 4 0.000000 0.000000 0.000000 0.033001 0.000000 0.000000
# 5 0.000000 0.000000 0.000000 0.000000 0.033001 0.000000
# 6 0.000000 0.000000 0.000000 0.000000 0.000000 0.058888
#
#
# Mechanical properties :
#
#
# Convention : Reuss Voigt Hill
#
# Bulk Modulus (GPa) = 45.95958 45.96204 45.96081
# Shear Modulus (GPa) = 20.04142 22.70650 21.37396
#
# Velocity S-wave (km/s) = 3.23222 3.44042 3.33794
# Velocity P-wave (km/s) = 6.15528 6.30406 6.23011
#
# Compressibility (1/GPa) = 0.02175825
#
# Stress axis : x y z
#
# Youngs Moduli (GPa) = 50.38397 50.38151 33.49789
#
# Poissons Ratio (x) = 0.05625 0.38150
# Poissons Ratio (y) = 0.05625 0.38154
# Poissons Ratio (z) = 0.57382 0.57384
#
# Static dielectric constant tensor:
#      x y z
#    x 1.697640 0.000000 0.000000 
#    y 0.000000 1.697640 0.000000 
#    z 0.000000 0.000000 1.711540 
# 
# From -- ./inp_files/2440.got.cif
#   From: 2010.05.17/outbox.cif.g08.bks.cpg/sg95_2_cif.got.tgz:2440.got - 2010.06.03 19:46:49.
