data_PCOD9550054
_publ_section_title
;
Structure prediction by ZEFSAII (Michael W. Deem and Ramdas Pophale) SiO2 
 PCOD9550054
Probable space group: P 42 21 2
;
_chemical_formula_sum "Si O2"
_cell_formula_units_Z 56
_cell_length_a 13.489005
_cell_length_b 13.489005
_cell_length_c 17.329044
_cell_angle_alpha 90.000000
_cell_angle_beta 90.000000
_cell_angle_gamma 90.000000
_cell_volume 3153.075977
_symmetry_space_group_name_H-M "P 42 21 2"
_symmetry_group_IT_number 94
_symmetry_cell_setting 'tetragonal'
loop_
_space_group_symop_operation_xyz
x,y,z
1/2-y,1/2+x,1/2+z
-x,-y,z
1/2+y,1/2-x,1/2+z
1/2+x,1/2-y,1/2-z
1/2-x,1/2+y,1/2-z
y,x,-z
-y,-x,-z
loop_
_atom_site_type_symbol
_atom_site_label
_atom_site_fract_x
_atom_site_fract_y
_atom_site_fract_z
Si Si1 0.828067 0.221199 0.643495
Si Si2 0.000000 0.257222 0.528308
Si Si3 0.613182 0.782760 0.684188
Si Si4 0.828067 0.778801 0.643495
Si Si5 0.000000 0.389696 0.376212
Si Si6 0.116010 0.000000 0.599806
Si Si7 0.886818 0.717240 0.815812
O O1 0.867657 0.251494 0.727711
O O2 0.840068 0.102147 0.634578
O O3 0.712134 0.251761 0.637914
O O4 0.901697 0.266927 0.579744
O O5 0.098303 0.266927 0.579744
O O6 1.000000 0.323208 0.452209
O O7 0.000000 0.148769 0.489671
O O8 0.712134 0.748239 0.637914
O O9 0.619524 0.901480 0.674516
O O10 0.500000 0.753224 0.661540
O O11 0.867657 0.748506 0.727711
O O12 0.840068 0.897853 0.634578
O O13 0.000000 0.500000 0.408546
O O14 0.901480 0.380476 0.325484
O O15 0.000000 0.000000 0.616215
#
# Coordination Sequence:
#
# PCOD9550054 Si02
#       7
#     8   8   8   8   8   8   8
#     4  11  22  33  57  84 117 151 195 240 300 358
#     4  12  22  36  54  96 110 154 188 252 302 361
#     4  10  20  39  54  79 114 161 191 233 292 364
#     4  11  22  33  57  84 117 151 195 240 300 358
#     4  10  22  38  60  78 114 154 192 237 298 354
#     4  12  22  32  54  88 122 144 186 252 309 350
#     4  10  20  39  54  79 114 161 191 233 292 364
#
# _framework density 17.760435000000001
#
# number of rings (size 3 to 8) (size 9 to 14) (size 15 to 20)
#    0.000    1.143    5.714    0.857    2.000    0.000 
#    2.571    0.000    0.000    0.000    3.714    0.000 
#    0.000    0.000    0.000    0.000    0.000    0.000 
#
# Total GULP energy -311920.966482 kJ/mol
# GULP energy per Si atom -5570.017259 kJ/mol
# Density = 1.772001 g / cm^3
# Si number density = 17.760435 Si / 1000 Ang^3
#
#
#
# Elastic Constant Matrix: (Units=GPa)
#
#
# Indices 1 2 3 4 5 6 
#
# 1 117.5037 8.5087 42.6245 0.0000 0.0000 0.0000
# 2 8.5087 117.5037 42.6245 0.0000 0.0000 0.0000
# 3 42.6245 42.6245 90.5605 0.0000 0.0000 0.0000
# 4 0.0000 0.0000 0.0000 33.7238 0.0000 0.0000
# 5 0.0000 0.0000 0.0000 0.0000 33.7238 0.0000
# 6 0.0000 0.0000 0.0000 0.0000 0.0000 18.9500
#
#
#
# Elastic Compliance Matrix: (Units=1/GPa)
#
#
# Indices 1 2 3 4 5 6 
#
# 1 0.010409 0.001234 -0.005480 0.000000 0.000000 0.000000
# 2 0.001234 0.010409 -0.005480 0.000000 0.000000 0.000000
# 3 -0.005480 -0.005480 0.016201 0.000000 0.000000 0.000000
# 4 0.000000 0.000000 0.000000 0.029653 0.000000 0.000000
# 5 0.000000 0.000000 0.000000 0.000000 0.029653 0.000000
# 6 0.000000 0.000000 0.000000 0.000000 0.000000 0.052770
#
#
# Mechanical properties :
#
#
# Convention : Reuss Voigt Hill
#
# Bulk Modulus (GPa) = 56.92558 57.00925 56.96742
# Shear Modulus (GPa) = 28.66936 32.73354 30.70145
#
# Velocity S-wave (km/s) = 4.02210 4.29774 4.16221
# Velocity P-wave (km/s) = 7.32743 7.53632 7.43261
#
# Compressibility (1/GPa) = 0.01756679
#
# Stress axis : x y z
#
# Youngs Moduli (GPa) = 96.07156 96.07156 61.72452
#
# Poissons Ratio (x) = -0.11857 0.33826
# Poissons Ratio (y) = -0.11857 0.33826
# Poissons Ratio (z) = 0.52648 0.52648
#
# Static dielectric constant tensor:
#      x y z
#    x 1.699540 0.000000 0.000000 
#    y 0.000000 1.699540 0.000000 
#    z 0.000000 0.000000 1.568480 
# 
# From -- ./inp_files/3536.got.cif
#   From: 2010.05.17/outbox.cif.g08.bks.cpg/sg94_2_cif.got.tgz:3536.got - 2010.06.03 19:43:16.
