data_PCOD9550849
_publ_section_title
;
Structure prediction by ZEFSAII (Michael W. Deem and Ramdas Pophale) SiO2 
 PCOD9550849
Probable space group: P 43 21 2
;
_chemical_formula_sum "Si O2"
_cell_formula_units_Z 44
_cell_length_a 8.444113
_cell_length_b 8.444113
_cell_length_c 27.727181
_cell_angle_alpha 90.000000
_cell_angle_beta 90.000000
_cell_angle_gamma 90.000000
_cell_volume 1977.032417
_symmetry_space_group_name_H-M "P 43 21 2"
_symmetry_group_IT_number 96
_symmetry_cell_setting 'tetragonal'
loop_
_space_group_symop_operation_xyz
x,y,z
1/2-y,1/2+x,3/4+z
-x,-y,1/2+z
1/2+y,1/2-x,1/4+z
1/2+x,1/2-y,1/4-z
1/2-x,1/2+y,3/4-z
y,x,-z
-y,-x,1/2-z
loop_
_atom_site_type_symbol
_atom_site_label
_atom_site_fract_x
_atom_site_fract_y
_atom_site_fract_z
Si Si1 0.027566 0.930942 0.849476
Si Si2 0.097981 0.526549 0.533861
Si Si3 0.708228 0.249332 0.385824
Si Si4 0.443758 0.443758 0.500000
Si Si5 0.428216 0.231567 0.650437
Si Si6 0.424056 0.117883 0.323097
O O1 0.119046 0.773345 0.864146
O O2 0.157795 0.072818 0.851641
O O3 0.968040 0.935892 0.794301
O O4 0.893724 0.975964 0.888485
O O5 0.135850 0.676208 0.568179
O O6 0.272511 0.457452 0.523675
O O7 0.039705 0.583453 0.482190
O O8 0.999948 0.388380 0.560132
O O9 0.579558 0.185465 0.348122
O O10 0.459934 0.139929 0.599830
O O11 0.255483 0.293208 0.665808
#
# Coordination Sequence:
#
# PCOD9550849 Si02
#       6
#     8   8   8   4   8   8
#     4  10  20  42  61  93 127 169 217 273 335 394
#     4  10  21  40  64  95 130 167 221 274 328 401
#     4   9  22  39  60  90 133 163 210 274 321 395
#     4  10  20  40  68  90 120 172 228 268 316 418
#     4  10  22  40  69  93 130 173 220 279 328 404
#     4  10  21  42  61  98 132 168 226 269 336 405
#
# _framework density 22.255576999999999
#
# number of rings (size 3 to 8) (size 9 to 14) (size 15 to 20)
#    0.000    2.182    1.818    1.091    0.000    5.818 
#    6.545    1.818    0.000    0.000    0.000    0.000 
#    0.000    0.000    0.000    0.000    0.000    0.000 
#
# Total GULP energy -245698.261350 kJ/mol
# GULP energy per Si atom -5584.051394 kJ/mol
# Density = 2.220492 g / cm^3
# Si number density = 22.255577 Si / 1000 Ang^3
#
#
#
# Elastic Constant Matrix: (Units=GPa)
#
#
# Indices 1 2 3 4 5 6 
#
# 1 66.2505 41.9790 32.3284 0.0000 0.0000 0.0000
# 2 41.9790 66.2505 32.3284 0.0000 0.0000 0.0000
# 3 32.3284 32.3284 147.4333 0.0000 0.0000 0.0000
# 4 0.0000 0.0000 0.0000 24.7096 0.0000 0.0000
# 5 0.0000 0.0000 0.0000 0.0000 24.7096 0.0000
# 6 0.0000 0.0000 0.0000 0.0000 0.0000 54.4681
#
#
#
# Elastic Compliance Matrix: (Units=1/GPa)
#
#
# Indices 1 2 3 4 5 6 
#
# 1 0.025917 -0.015284 -0.002331 0.000000 0.000000 0.000000
# 2 -0.015284 0.025917 -0.002331 0.000000 0.000000 0.000000
# 3 -0.002331 -0.002331 0.007805 0.000000 0.000000 0.000000
# 4 0.000000 0.000000 0.000000 0.040470 0.000000 0.000000
# 5 0.000000 0.000000 0.000000 0.000000 0.040470 0.000000
# 6 0.000000 0.000000 0.000000 0.000000 0.000000 0.018359
#
#
# Mechanical properties :
#
#
# Convention : Reuss Voigt Hill
#
# Bulk Modulus (GPa) = 50.64747 54.80069 52.72408
# Shear Modulus (GPa) = 24.34120 32.33070 28.33595
#
# Velocity S-wave (km/s) = 3.31072 3.81557 3.57207
# Velocity P-wave (km/s) = 6.11728 6.63989 6.38394
#
# Compressibility (1/GPa) = 0.01974432
#
# Stress axis : x y z
#
# Youngs Moduli (GPa) = 38.58542 38.58542 128.12016
#
# Poissons Ratio (x) = 0.58974 0.29870
# Poissons Ratio (y) = 0.58974 0.29870
# Poissons Ratio (z) = 0.08996 0.08996
#
# Static dielectric constant tensor:
#      x y z
#    x 1.874680 0.000000 0.000000 
#    y 0.000000 1.874680 0.000000 
#    z 0.000000 0.000000 1.862630 
# 
# From -- ./inp_files/4385.got.cif
#   From: 2010.05.17/outbox.cif.g08.bks.cpg/sg96_3_cif.got.tgz:4385.got - 2010.06.03 19:52:08.
