data_PCOD9550608
_publ_section_title
;
Structure prediction by ZEFSAII (Michael W. Deem and Ramdas Pophale) SiO2 
 PCOD9550608
Probable space group: P 43 2 2
;
_chemical_formula_sum "Si O2"
_cell_formula_units_Z 40
_cell_length_a 8.611827
_cell_length_b 8.611827
_cell_length_c 22.724013
_cell_angle_alpha 90.000000
_cell_angle_beta 90.000000
_cell_angle_gamma 90.000000
_cell_volume 1685.293799
_symmetry_space_group_name_H-M "P 43 2 2"
_symmetry_group_IT_number 95
_symmetry_cell_setting 'tetragonal'
loop_
_space_group_symop_operation_xyz
x,y,z
-y,x,3/4+z
-x,-y,1/2+z
y,-x,1/4+z
x,-y,1/2-z
-x,y,-z
y,x,1/4-z
-y,-x,3/4-z
loop_
_atom_site_type_symbol
_atom_site_label
_atom_site_fract_x
_atom_site_fract_y
_atom_site_fract_z
Si Si1 0.451889 0.500000 0.750000
Si Si2 0.163839 0.913269 0.603743
Si Si3 0.566591 0.433410 0.375000
Si Si4 0.159194 0.629062 0.034512
Si Si5 0.095871 0.546223 0.816547
Si Si6 0.919114 0.677425 0.598590
O O1 0.525896 0.517002 0.815727
O O2 0.371080 0.327134 0.753557
O O3 0.258237 0.841214 0.658993
O O4 0.062478 0.779270 0.574046
O O5 0.289290 0.008916 0.567428
O O6 0.039347 0.039347 0.625000
O O7 0.746004 0.452610 0.355330
O O8 0.139733 0.450765 0.053731
O O9 0.000000 0.670486 0.000000
O O10 0.118399 0.500000 0.750000
O O11 0.986290 0.422272 0.847631
O O12 0.789798 0.789798 0.625000
#
# Coordination Sequence:
#
# PCOD9550608 Si02
#       6
#     4   8   4   8   8   8
#     4  12  26  46  82 114 168 214 280 352 434 502
#     4  10  22  43  74 101 152 202 261 332 413 487
#     4  12  24  44  74 122 152 206 278 344 406 520
#     4  11  26  47  74 117 159 212 282 346 416 527
#     4  11  23  43  73 113 153 208 277 337 422 515
#     4  10  24  47  67 102 157 202 264 335 421 505
#
# _framework density 23.734735000000001
#
# number of rings (size 3 to 8) (size 9 to 14) (size 15 to 20)
#    0.000    1.200    2.000    3.600    1.400    1.600 
#    5.400    4.000    0.000    0.000    0.000    0.000 
#    0.000    0.000    0.000    0.000    0.000    0.000 
#
# Total GULP energy -223529.869949 kJ/mol
# GULP energy per Si atom -5588.246749 kJ/mol
# Density = 2.368071 g / cm^3
# Si number density = 23.734735 Si / 1000 Ang^3
#
#
#
# Elastic Constant Matrix: (Units=GPa)
#
#
# Indices 1 2 3 4 5 6 
#
# 1 135.9225 44.8980 28.7385 0.0000 0.0000 0.0000
# 2 44.8980 135.9220 28.7382 0.0000 0.0000 0.0000
# 3 28.7385 28.7382 117.0114 0.0000 0.0000 0.0000
# 4 0.0000 0.0000 0.0000 20.3625 0.0000 0.0000
# 5 0.0000 0.0000 0.0000 0.0000 20.3625 0.0000
# 6 0.0000 0.0000 0.0000 0.0000 0.0000 50.8797
#
#
#
# Elastic Compliance Matrix: (Units=1/GPa)
#
#
# Indices 1 2 3 4 5 6 
#
# 1 0.008492 -0.002494 -0.001473 0.000000 0.000000 0.000000
# 2 -0.002494 0.008492 -0.001473 0.000000 0.000000 0.000000
# 3 -0.001473 -0.001473 0.009270 0.000000 0.000000 0.000000
# 4 0.000000 0.000000 0.000000 0.049110 0.000000 0.000000
# 5 0.000000 0.000000 0.000000 0.000000 0.049110 0.000000
# 6 0.000000 0.000000 0.000000 0.000000 0.000000 0.019654
#
#
# Mechanical properties :
#
#
# Convention : Reuss Voigt Hill
#
# Bulk Modulus (GPa) = 65.04476 65.95616 65.50046
# Shear Modulus (GPa) = 31.22387 37.41968 34.32178
#
# Velocity S-wave (km/s) = 3.63097 3.97492 3.80683
# Velocity P-wave (km/s) = 6.71140 6.99399 6.85415
#
# Compressibility (1/GPa) = 0.01537403
#
# Stress axis : x y z
#
# Youngs Moduli (GPa) = 117.75287 117.75255 107.87642
#
# Poissons Ratio (x) = 0.29364 0.15893
# Poissons Ratio (y) = 0.29364 0.15893
# Poissons Ratio (z) = 0.17349 0.17348
#
# Static dielectric constant tensor:
#      x y z
#    x 1.949230 0.000000 0.000000 
#    y 0.000000 1.949230 0.000000 
#    z 0.000000 0.000000 1.820480 
# 
# From -- ./inp_files/6891.got.cif
#   From: 2010.05.17/outbox.cif.g08.bks.cpg/sg95_4_cif.got.tgz:6891.got - 2010.06.03 19:46:49.
