data_PCOD9550055
_publ_section_title
;
Structure prediction by ZEFSAII (Michael W. Deem and Ramdas Pophale) SiO2 
 PCOD9550055
Probable space group: P 42 21 2
;
_chemical_formula_sum "Si O2"
_cell_formula_units_Z 48
_cell_length_a 8.033144
_cell_length_b 8.033144
_cell_length_c 34.692775
_cell_angle_alpha 90.000000
_cell_angle_beta 90.000000
_cell_angle_gamma 90.000000
_cell_volume 2238.773428
_symmetry_space_group_name_H-M "P 42 21 2"
_symmetry_group_IT_number 94
_symmetry_cell_setting 'tetragonal'
loop_
_space_group_symop_operation_xyz
x,y,z
1/2-y,1/2+x,1/2+z
-x,-y,z
1/2+y,1/2-x,1/2+z
1/2+x,1/2-y,1/2-z
1/2-x,1/2+y,1/2-z
y,x,-z
-y,-x,-z
loop_
_atom_site_type_symbol
_atom_site_label
_atom_site_fract_x
_atom_site_fract_y
_atom_site_fract_z
Si Si1 0.228288 0.597651 0.205772
Si Si2 0.000000 0.500000 0.840656
Si Si3 0.500000 0.000000 0.030167
Si Si4 0.223125 0.223125 0.000000
Si Si5 0.899371 0.268099 0.902197
Si Si6 0.404333 0.249037 0.217124
Si Si7 0.087346 0.228143 0.085964
Si Si8 0.000000 0.500000 0.137650
O O1 0.281419 0.404767 0.211718
O O2 0.406411 0.691482 0.208659
O O3 0.120341 0.672865 0.240625
O O4 0.117974 0.604675 0.166988
O O5 0.125679 0.598602 0.868764
O O6 0.101261 0.375952 0.813268
O O7 0.366433 0.913816 0.057945
O O8 0.592211 0.848586 0.008504
O O9 0.196950 0.128031 0.959142
O O10 0.080094 0.187258 0.893943
O O11 0.785557 0.110036 0.908284
O O12 0.121622 0.396463 0.109059
#
# Coordination Sequence:
#
# PCOD9550055 Si02
#       8
#     8   4   4   4   8   8   8   4
#     4  11  24  40  61  90 126 169 216 262 319 378
#     4  11  19  36  59  83 120 156 204 259 311 362
#     4   9  19  34  59  85 114 148 198 249 303 374
#     4  10  20  39  62  87 118 160 202 253 316 389
#     4   9  20  36  56  85 114 153 199 249 306 370
#     4  11  23  40  62  88 124 173 215 261 313 373
#     4  10  21  36  59  86 117 156 202 252 313 382
#     4  12  22  38  60  92 126 156 208 272 324 378
#
# _framework density 21.440313
#
# number of rings (size 3 to 8) (size 9 to 14) (size 15 to 20)
#    0.000    1.667    0.000    5.000    0.000    5.333 
#    0.000    3.333    0.000   13.000    0.000    0.000 
#    0.000    0.000    0.000    0.000    0.000    0.000 
#
# Total GULP energy -267421.087777 kJ/mol
# GULP energy per Si atom -5571.272662 kJ/mol
# Density = 2.139151 g / cm^3
# Si number density = 21.440313 Si / 1000 Ang^3
#
#
#
# Elastic Constant Matrix: (Units=GPa)
#
#
# Indices 1 2 3 4 5 6 
#
# 1 79.0433 12.4997 32.5376 0.0000 0.0000 0.0000
# 2 12.4997 79.0433 32.5376 0.0000 0.0000 0.0000
# 3 32.5376 32.5376 133.3342 0.0000 0.0000 0.0000
# 4 0.0000 0.0000 0.0000 86.2891 0.0000 0.0000
# 5 0.0000 0.0000 0.0000 0.0000 86.2891 0.0000
# 6 0.0000 0.0000 0.0000 0.0000 0.0000 27.1619
#
#
#
# Elastic Compliance Matrix: (Units=1/GPa)
#
#
# Indices 1 2 3 4 5 6 
#
# 1 0.014122 -0.000906 -0.003225 0.000000 0.000000 0.000000
# 2 -0.000906 0.014122 -0.003225 0.000000 0.000000 0.000000
# 3 -0.003225 -0.003225 0.009074 0.000000 0.000000 0.000000
# 4 0.000000 0.000000 0.000000 0.011589 0.000000 0.000000
# 5 0.000000 0.000000 0.000000 0.000000 0.011589 0.000000
# 6 0.000000 0.000000 0.000000 0.000000 0.000000 0.036816
#
#
# Mechanical properties :
#
#
# Convention : Reuss Voigt Hill
#
# Bulk Modulus (GPa) = 44.23562 49.61894 46.92728
# Shear Modulus (GPa) = 41.81998 54.20443 48.01220
#
# Velocity S-wave (km/s) = 4.42127 5.03353 4.73730
# Velocity P-wave (km/s) = 6.83669 7.54818 7.20122
#
# Compressibility (1/GPa) = 0.02260622
#
# Stress axis : x y z
#
# Youngs Moduli (GPa) = 70.81082 70.81082 110.20426
#
# Poissons Ratio (x) = 0.06413 0.35543
# Poissons Ratio (y) = 0.06413 0.35543
# Poissons Ratio (z) = 0.22838 0.22838
#
# Static dielectric constant tensor:
#      x y z
#    x 1.804890 0.000000 0.000000 
#    y 0.000000 1.804890 0.000000 
#    z 0.000000 0.000000 1.778220 
# 
# From -- ./inp_files/5682.got.cif
#   From: 2010.05.17/outbox.cif.g08.bks.cpg/sg94_3_cif.got.tgz:5682.got - 2010.06.03 19:43:16.
