data_PCOD9550717
_publ_section_title
;
Structure prediction by ZEFSAII (Michael W. Deem and Ramdas Pophale) SiO2 
 PCOD9550717
Probable space group: P 43 21 2
;
_chemical_formula_sum "Si O2"
_cell_formula_units_Z 48
_cell_length_a 12.346562
_cell_length_b 12.346562
_cell_length_c 17.319526
_cell_angle_alpha 90.000000
_cell_angle_beta 90.000000
_cell_angle_gamma 90.000000
_cell_volume 2640.146859
_symmetry_space_group_name_H-M "P 43 21 2"
_symmetry_group_IT_number 96
_symmetry_cell_setting 'tetragonal'
loop_
_space_group_symop_operation_xyz
x,y,z
1/2-y,1/2+x,3/4+z
-x,-y,1/2+z
1/2+y,1/2-x,1/4+z
1/2+x,1/2-y,1/4-z
1/2-x,1/2+y,3/4-z
y,x,-z
-y,-x,1/2-z
loop_
_atom_site_type_symbol
_atom_site_label
_atom_site_fract_x
_atom_site_fract_y
_atom_site_fract_z
Si Si1 0.801574 0.806697 0.227859
Si Si2 0.036124 0.716699 0.231019
Si Si3 0.017263 0.881146 0.683731
Si Si4 0.144961 0.875718 0.533911
Si Si5 0.244745 0.610209 0.193328
Si Si6 0.083018 0.880965 0.362669
O O1 0.707752 0.740508 0.268649
O O2 0.765928 0.848246 0.143574
O O3 0.906722 0.727042 0.221136
O O4 0.826179 0.911738 0.280137
O O5 0.116844 0.615473 0.217438
O O6 0.057506 0.771923 0.314876
O O7 0.081718 0.800354 0.167001
O O8 0.106944 0.893057 0.750000
O O9 0.070814 0.840364 0.605512
O O10 0.974362 0.001651 0.664202
O O11 0.078397 0.874665 0.454061
O O12 0.197962 0.993810 0.547535
O O13 0.306501 0.693500 0.250000
#
# Coordination Sequence:
#
# PCOD9550717 Si02
#       6
#     8   8   8   8   8   8
#     4  11  23  39  61  89 124 167 210 261 313 368
#     4  10  18  36  59  91 126 149 185 264 320 359
#     4  11  20  39  61  83 118 164 209 254 297 373
#     4  12  23  36  62  94 121 164 216 250 315 390
#     4  12  21  35  64  99 122 150 203 270 326 372
#     4  10  17  35  62  91 117 146 201 254 310 368
#
# _framework density 18.180807000000001
#
# number of rings (size 3 to 8) (size 9 to 14) (size 15 to 20)
#    0.000    1.000    8.333    2.500    0.000    0.000 
#    0.000    5.000    3.667    0.000    0.000    0.000 
#    0.000    0.000    0.000    0.000    0.000    0.000 
#
# Total GULP energy -267666.769306 kJ/mol
# GULP energy per Si atom -5576.391027 kJ/mol
# Density = 1.813943 g / cm^3
# Si number density = 18.180807 Si / 1000 Ang^3
#
#
#
# Elastic Constant Matrix: (Units=GPa)
#
#
# Indices 1 2 3 4 5 6 
#
# 1 42.2927 45.9409 34.9436 0.0000 0.0000 0.0000
# 2 45.9409 42.2909 34.9429 0.0000 0.0000 0.0000
# 3 34.9436 34.9429 160.5118 0.0000 0.0000 0.0000
# 4 0.0000 0.0000 0.0000 19.0558 0.0000 0.0000
# 5 0.0000 0.0000 0.0000 0.0000 19.0557 0.0000
# 6 0.0000 0.0000 0.0000 0.0000 0.0000 20.3269
#
#
#
# Elastic Compliance Matrix: (Units=1/GPa)
#
#
# Indices 1 2 3 4 5 6 
#
# 1 -0.130170 0.143868 -0.002981 0.000000 0.000000 0.000000
# 2 0.143868 -0.130176 -0.002981 0.000000 0.000000 0.000000
# 3 -0.002981 -0.002981 0.007528 0.000000 0.000000 0.000000
# 4 0.000000 0.000000 0.000000 0.052477 0.000000 0.000000
# 5 0.000000 0.000000 0.000000 0.000000 0.052478 0.000000
# 6 0.000000 0.000000 0.000000 0.000000 0.000000 0.049196
#
#
# Mechanical properties :
#
#
# Convention : Reuss Voigt Hill
#
# Bulk Modulus (GPa) = 43.49185 52.97223 48.23204
# Shear Modulus (GPa) = -13.63091 20.30556 3.33733
#
# Velocity S-wave (km/s) = -2.74111 3.34558 1.35632
# Velocity P-wave (km/s) = 3.73571 6.64255 5.38883
#
# Compressibility (1/GPa) = 0.02299281
#
# Stress axis : x y z
#
# Youngs Moduli (GPa) = -7.68224 -7.68192 132.83435
#
# Poissons Ratio (x) = 1.10518 0.39603
# Poissons Ratio (y) = 1.10523 0.39604
# Poissons Ratio (z) = -0.02290 -0.02290
#
# Static dielectric constant tensor:
#      x y z
#    x 1.654610 0.000000 0.000000 
#    y 0.000000 1.654610 0.000000 
#    z 0.000000 0.000000 1.679380 
# 
# From -- ./inp_files/3144.got.cif
#   From: 2010.05.17/outbox.cif.g08.bks.cpg/sg96_2_cif.got.tgz:3144.got - 2010.06.03 19:52:08.
