data_PCOD9550432
_publ_section_title
;
Structure prediction by ZEFSAII (Michael W. Deem and Ramdas Pophale) SiO2 
 PCOD9550432
Probable space group: P 43 2 2
;
_chemical_formula_sum "Si O2"
_cell_formula_units_Z 44
_cell_length_a 8.442917
_cell_length_b 8.442917
_cell_length_c 25.108370
_cell_angle_alpha 90.000000
_cell_angle_beta 90.000000
_cell_angle_gamma 90.000000
_cell_volume 1789.796109
_symmetry_space_group_name_H-M "P 43 2 2"
_symmetry_group_IT_number 95
_symmetry_cell_setting 'tetragonal'
loop_
_space_group_symop_operation_xyz
x,y,z
-y,x,3/4+z
-x,-y,1/2+z
y,-x,1/4+z
x,-y,1/2-z
-x,y,-z
y,x,1/4-z
-y,-x,3/4-z
loop_
_atom_site_type_symbol
_atom_site_label
_atom_site_fract_x
_atom_site_fract_y
_atom_site_fract_z
Si Si1 0.088267 0.125412 0.069308
Si Si2 0.251303 0.838985 0.543285
Si Si3 0.197221 0.672159 0.815683
Si Si4 0.986907 0.749424 0.937411
Si Si5 0.654234 0.332987 0.554165
Si Si6 0.620444 0.500000 0.750000
O O1 0.166141 0.166141 0.125000
O O2 0.918555 0.213126 0.066781
O O3 0.039659 0.938639 0.068418
O O4 0.199813 0.144032 0.018974
O O5 0.396359 0.721107 0.540876
O O6 0.303187 0.008305 0.566800
O O7 0.263811 0.501336 0.832858
O O8 0.232655 0.670881 0.750975
O O9 0.284758 0.836344 0.833633
O O10 0.823318 0.675086 0.917183
O O11 0.000000 0.708922 0.000000
O O12 0.614402 0.507164 0.533763
#
# Coordination Sequence:
#
# PCOD9550432 Si02
#       6
#     8   8   8   8   8   4
#     4  10  19  34  59  84 110 145 197 249 292 342
#     4  10  18  35  56  85 111 146 192 240 286 357
#     4   8  14  27  51  75 102 135 190 234 269 342
#     4   9  14  30  53  80 104 138 193 243 280 337
#     4   9  16  28  49  86  99 152 191 223 293 354
#     4  10  20  30  54  84 118 152 182 230 302 366
#
# _framework density 24.583808000000001
#
# number of rings (size 3 to 8) (size 9 to 14) (size 15 to 20)
#    0.000    2.909    5.455    1.091    0.000    0.000 
#   16.364    0.000    4.000    0.000    0.000    1.273 
#    0.000    0.000    0.000    0.000    0.000    0.000 
#
# Total GULP energy -245721.945839 kJ/mol
# GULP energy per Si atom -5584.589678 kJ/mol
# Density = 2.452785 g / cm^3
# Si number density = 24.583808 Si / 1000 Ang^3
#
#
#
# Elastic Constant Matrix: (Units=GPa)
#
#
# Indices 1 2 3 4 5 6 
#
# 1 147.7878 56.9882 12.4874 0.0000 0.0000 0.0000
# 2 56.9882 147.7878 12.4874 0.0000 0.0000 0.0000
# 3 12.4874 12.4874 68.8664 0.0000 0.0000 0.0000
# 4 0.0000 0.0000 0.0000 18.2224 0.0000 0.0000
# 5 0.0000 0.0000 0.0000 0.0000 18.2224 0.0000
# 6 0.0000 0.0000 0.0000 0.0000 0.0000 30.5904
#
#
#
# Elastic Compliance Matrix: (Units=1/GPa)
#
#
# Indices 1 2 3 4 5 6 
#
# 1 0.008004 -0.003010 -0.000906 0.000000 0.000000 0.000000
# 2 -0.003010 0.008004 -0.000906 0.000000 0.000000 0.000000
# 3 -0.000906 -0.000906 0.014849 0.000000 0.000000 0.000000
# 4 0.000000 0.000000 0.000000 0.054877 0.000000 0.000000
# 5 0.000000 0.000000 0.000000 0.000000 0.054877 0.000000
# 6 0.000000 0.000000 0.000000 0.000000 0.000000 0.032690
#
#
# Mechanical properties :
#
#
# Convention : Reuss Voigt Hill
#
# Bulk Modulus (GPa) = 47.13687 58.70757 52.92222
# Shear Modulus (GPa) = 26.31382 32.23900 29.27641
#
# Velocity S-wave (km/s) = 3.27520 3.62524 3.45466
# Velocity P-wave (km/s) = 5.78949 6.43860 6.12265
#
# Compressibility (1/GPa) = 0.02121482
#
# Stress axis : x y z
#
# Youngs Moduli (GPa) = 124.94469 124.94469 67.34346
#
# Poissons Ratio (x) = 0.37605 0.06098
# Poissons Ratio (y) = 0.37605 0.06098
# Poissons Ratio (z) = 0.11314 0.11314
#
# Static dielectric constant tensor:
#      x y z
#    x 1.960090 0.000000 0.000000 
#    y 0.000000 1.960090 0.000000 
#    z 0.000000 0.000000 2.396540 
# 
# From -- ./inp_files/7819.got.cif
#   From: 2010.05.17/outbox.cif.g08.bks.cpg/sg95_4_cif.got.tgz:7819.got - 2010.06.03 19:46:49.
