data_PCOD9550424
_publ_section_title
;
Structure prediction by ZEFSAII (Michael W. Deem and Ramdas Pophale) SiO2 
 PCOD9550424
Probable space group: P 43 2 2
;
_chemical_formula_sum "Si O2"
_cell_formula_units_Z 40
_cell_length_a 19.661482
_cell_length_b 19.661482
_cell_length_c 5.301924
_cell_angle_alpha 90.000000
_cell_angle_beta 90.000000
_cell_angle_gamma 90.000000
_cell_volume 2049.585303
_symmetry_space_group_name_H-M "P 43 2 2"
_symmetry_group_IT_number 95
_symmetry_cell_setting 'tetragonal'
loop_
_space_group_symop_operation_xyz
x,y,z
-y,x,3/4+z
-x,-y,1/2+z
y,-x,1/4+z
x,-y,1/2-z
-x,y,-z
y,x,1/4-z
-y,-x,3/4-z
loop_
_atom_site_type_symbol
_atom_site_label
_atom_site_fract_x
_atom_site_fract_y
_atom_site_fract_z
Si Si1 0.743411 0.352404 0.747698
Si Si2 0.834116 0.778066 0.865545
Si Si3 0.773205 0.983763 0.496627
Si Si4 0.418923 0.802766 0.996150
Si Si5 0.623348 0.960372 0.001090
O O1 0.780583 0.282619 0.664269
O O2 0.754848 0.395047 0.489249
O O3 0.671920 0.328081 0.875000
O O4 0.779671 0.388637 0.984227
O O5 0.826034 0.826034 0.625000
O O6 0.908069 0.747722 0.809692
O O7 0.817204 0.817204 0.125000
O O8 0.811391 0.000000 0.750000
O O9 0.705596 0.030786 0.511443
O O10 0.815621 0.000000 0.250000
O O11 0.500000 0.801638 0.000000
O O12 0.394830 0.881357 0.970821
O O13 0.597849 0.000000 0.750000
O O14 0.599735 0.000000 0.250000
#
# Coordination Sequence:
#
# PCOD9550424 Si02
#       5
#     8   8   8   8   8
#     4  11  22  39  60  82 112 155 200 248 307 358
#     4  11  21  34  55  82 111 147 197 252 298 343
#     4  10  18  31  50  73 106 146 184 229 288 342
#     4  12  24  39  58  86 122 158 203 249 291 354
#     4  10  20  33  52  75 111 160 205 238 278 333
#
# _framework density 19.516141999999999
#
# number of rings (size 3 to 8) (size 9 to 14) (size 15 to 20)
#    0.000    1.200    0.000   10.800    0.000    0.800 
#    0.000    0.000    0.000    0.000    0.000    0.000 
#    0.000   44.800    0.000    0.000    0.000    0.000 
#
# Total GULP energy -222756.937120 kJ/mol
# GULP energy per Si atom -5568.923428 kJ/mol
# Density = 1.947172 g / cm^3
# Si number density = 19.516142 Si / 1000 Ang^3
#
#
#
# Elastic Constant Matrix: (Units=GPa)
#
#
# Indices 1 2 3 4 5 6 
#
# 1 31.3746 28.5155 28.2062 0.0000 0.0000 0.0000
# 2 28.5155 31.3742 28.2064 0.0000 0.0000 0.0000
# 3 28.2062 28.2064 210.3682 0.0000 0.0000 0.0000
# 4 0.0000 0.0000 0.0000 23.9192 0.0000 0.0000
# 5 0.0000 0.0000 0.0000 0.0000 23.9459 0.0000
# 6 0.0000 0.0000 0.0000 0.0000 0.0000 7.6668
#
#
#
# Elastic Compliance Matrix: (Units=1/GPa)
#
#
# Indices 1 2 3 4 5 6 
#
# 1 0.184450 -0.165341 -0.002562 0.000000 0.000000 0.000000
# 2 -0.165341 0.184453 -0.002563 0.000000 0.000000 0.000000
# 3 -0.002562 -0.002563 0.005441 0.000000 0.000000 0.000000
# 4 0.000000 0.000000 0.000000 0.041807 0.000000 0.000000
# 5 0.000000 0.000000 0.000000 0.000000 0.041761 0.000000
# 6 0.000000 0.000000 0.000000 0.000000 0.000000 0.130433
#
#
# Mechanical properties :
#
#
# Convention : Reuss Voigt Hill
#
# Bulk Modulus (GPa) = 29.92851 49.21926 39.57388
# Shear Modulus (GPa) = 5.31681 23.65230 14.48456
#
# Velocity S-wave (km/s) = 1.65234 3.48506 2.72726
# Velocity P-wave (km/s) = 4.35991 6.43962 5.49898
#
# Compressibility (1/GPa) = 0.03341296
#
# Stress axis : x y z
#
# Youngs Moduli (GPa) = 5.42152 5.42144 183.79954
#
# Poissons Ratio (x) = 0.89638 0.47090
# Poissons Ratio (y) = 0.89640 0.47104
# Poissons Ratio (z) = 0.01389 0.01389
#
# Static dielectric constant tensor:
#      x y z
#    x 1.542450 0.000000 0.000000 
#    y 0.000000 1.542430 0.000000 
#    z 0.000000 0.000000 1.846160 
# 
# From -- ./inp_files/795.got.cif
#   From: 2010.05.17/outbox.cif.g08.bks.cpg/sg95_1_cif.got.tgz:795.got - 2010.06.03 19:46:49.
