data_PCOD9550073
_publ_section_title
;
Structure prediction by ZEFSAII (Michael W. Deem and Ramdas Pophale) SiO2 
 PCOD9550073
Probable space group: P 42 21 2
;
_chemical_formula_sum "Si O2"
_cell_formula_units_Z 48
_cell_length_a 8.140486
_cell_length_b 8.140486
_cell_length_c 31.981281
_cell_angle_alpha 90.000000
_cell_angle_beta 90.000000
_cell_angle_gamma 90.000000
_cell_volume 2119.319933
_symmetry_space_group_name_H-M "P 42 21 2"
_symmetry_group_IT_number 94
_symmetry_cell_setting 'tetragonal'
loop_
_space_group_symop_operation_xyz
x,y,z
1/2-y,1/2+x,1/2+z
-x,-y,z
1/2+y,1/2-x,1/2+z
1/2+x,1/2-y,1/2-z
1/2-x,1/2+y,1/2-z
y,x,-z
-y,-x,-z
loop_
_atom_site_type_symbol
_atom_site_label
_atom_site_fract_x
_atom_site_fract_y
_atom_site_fract_z
Si Si1 0.308523 0.365679 0.548664
Si Si2 0.184141 0.057533 0.591224
Si Si3 0.368384 0.793732 0.185830
Si Si4 0.690186 0.041270 0.765597
Si Si5 0.329210 0.716408 0.580434
Si Si6 0.837684 0.892734 0.170975
O O1 0.348549 0.348549 0.500000
O O2 0.188540 0.224057 0.564299
O O3 0.255602 0.553269 0.558481
O O4 0.477019 0.315500 0.572860
O O5 0.243308 0.097484 0.638366
O O6 0.283124 0.904449 0.570148
O O7 0.000000 0.000000 0.594510
O O8 0.517122 0.753110 0.217546
O O9 0.208789 0.716815 0.209006
O O10 0.308202 0.982906 0.182096
O O11 0.785763 0.900305 0.790912
O O12 0.500000 0.000000 0.765917
O O13 0.291919 0.704256 0.629731
O O14 0.000000 0.000000 0.159759
#
# Coordination Sequence:
#
# PCOD9550073 Si02
#       6
#     8   8   8   8   8   8
#     4  11  24  51  81 114 143 189 255 308 383 470
#     4  12  29  47  72 113 153 200 246 316 381 453
#     4  11  25  44  64  98 144 195 251 302 376 443
#     4  11  25  39  65 101 136 190 252 314 366 432
#     4  11  22  47  80 103 144 198 244 301 381 454
#     4  10  20  41  68  94 139 184 247 301 366 442
#
# _framework density 22.648778
#
# number of rings (size 3 to 8) (size 9 to 14) (size 15 to 20)
#    0.000    1.000    3.333    3.500    7.000    3.000 
#    9.000    0.000    0.000    0.000    0.000    0.000 
#    0.000    0.000    0.000    0.000    0.000    0.000 
#
# Total GULP energy -268209.167833 kJ/mol
# GULP energy per Si atom -5587.690997 kJ/mol
# Density = 2.259723 g / cm^3
# Si number density = 22.648778 Si / 1000 Ang^3
#
#
#
# Elastic Constant Matrix: (Units=GPa)
#
#
# Indices 1 2 3 4 5 6 
#
# 1 98.0533 17.6295 28.5517 0.0000 0.0000 0.0000
# 2 17.6295 98.0533 28.5517 0.0000 0.0000 0.0000
# 3 28.5517 28.5517 124.7168 0.0000 0.0000 0.0000
# 4 0.0000 0.0000 0.0000 31.6619 0.0000 0.0000
# 5 0.0000 0.0000 0.0000 0.0000 31.6619 0.0000
# 6 0.0000 0.0000 0.0000 0.0000 0.0000 37.9462
#
#
#
# Elastic Compliance Matrix: (Units=1/GPa)
#
#
# Indices 1 2 3 4 5 6 
#
# 1 0.011090 -0.001344 -0.002231 0.000000 0.000000 0.000000
# 2 -0.001344 0.011090 -0.002231 0.000000 0.000000 0.000000
# 3 -0.002231 -0.002231 0.009040 0.000000 0.000000 0.000000
# 4 0.000000 0.000000 0.000000 0.031584 0.000000 0.000000
# 5 0.000000 0.000000 0.000000 0.000000 0.031584 0.000000
# 6 0.000000 0.000000 0.000000 0.000000 0.000000 0.026353
#
#
# Mechanical properties :
#
#
# Convention : Reuss Voigt Hill
#
# Bulk Modulus (GPa) = 51.00319 52.25435 51.62877
# Shear Modulus (GPa) = 36.00013 36.66003 36.33008
#
# Velocity S-wave (km/s) = 3.99117 4.02759 4.00942
# Velocity P-wave (km/s) = 6.61871 6.68957 6.65423
#
# Compressibility (1/GPa) = 0.01960662
#
# Stress axis : x y z
#
# Youngs Moduli (GPa) = 90.17223 90.17223 110.62311
#
# Poissons Ratio (x) = 0.12121 0.24681
# Poissons Ratio (y) = 0.12121 0.24681
# Poissons Ratio (z) = 0.20118 0.20118
#
# Static dielectric constant tensor:
#      x y z
#    x 1.894140 0.000000 0.000000 
#    y 0.000000 1.894140 0.000000 
#    z 0.000000 0.000000 1.841660 
# 
# From -- ./inp_files/5567.got.cif
#   From: 2010.05.17/outbox.cif.g08.bks.cpg/sg94_3_cif.got.tgz:5567.got - 2010.06.03 19:43:16.
