data_PCOD9550141
_publ_section_title
;
Structure prediction by ZEFSAII (Michael W. Deem and Ramdas Pophale) SiO2 
 PCOD9550141
Probable space group: P 42 21 2
;
_chemical_formula_sum "Si O2"
_cell_formula_units_Z 48
_cell_length_a 9.133805
_cell_length_b 9.133805
_cell_length_c 30.256946
_cell_angle_alpha 90.000000
_cell_angle_beta 90.000000
_cell_angle_gamma 90.000000
_cell_volume 2524.227892
_symmetry_space_group_name_H-M "P 42 21 2"
_symmetry_group_IT_number 94
_symmetry_cell_setting 'tetragonal'
loop_
_space_group_symop_operation_xyz
x,y,z
1/2-y,1/2+x,1/2+z
-x,-y,z
1/2+y,1/2-x,1/2+z
1/2+x,1/2-y,1/2-z
1/2-x,1/2+y,1/2-z
y,x,-z
-y,-x,-z
loop_
_atom_site_type_symbol
_atom_site_label
_atom_site_fract_x
_atom_site_fract_y
_atom_site_fract_z
Si Si1 0.306108 0.162196 0.143706
Si Si2 0.675431 0.196677 0.805692
Si Si3 0.342833 0.124846 0.625380
Si Si4 0.830835 0.540230 0.120056
Si Si5 0.129313 0.119087 0.449226
Si Si6 0.085014 0.153691 0.225005
O O1 0.477703 0.193444 0.153982
O O2 0.226569 0.293932 0.118410
O O3 0.203109 0.135653 0.185711
O O4 0.332842 0.010709 0.118062
O O5 0.780149 0.240898 0.846307
O O6 0.519012 0.209433 0.830511
O O7 0.689327 0.316436 0.767446
O O8 0.724426 0.037664 0.787616
O O9 0.261538 0.094316 0.579667
O O10 0.755797 0.455867 0.079651
O O11 0.000000 0.500000 0.116944
O O12 0.157833 0.157833 0.500000
O O13 0.000000 0.000000 0.448316
O O14 0.000000 0.000000 0.231181
#
# Coordination Sequence:
#
# PCOD9550141 Si02
#       6
#     8   8   8   8   8   8
#     4  11  22  40  62  91 123 165 217 258 320 375
#     4  11  25  39  61  85 125 172 215 265 318 376
#     4  10  22  41  65  90 124 168 203 265 325 390
#     4  11  23  41  65  94 127 170 212 267 324 392
#     4  10  21  42  68  97 128 161 207 258 325 399
#     4  12  25  40  58  91 128 170 221 271 314 378
#
# _framework density 19.015716000000001
#
# number of rings (size 3 to 8) (size 9 to 14) (size 15 to 20)
#    0.000    1.167    5.000    1.000    4.667    0.000 
#    6.000    0.000    0.000    1.000    0.000    0.000 
#    0.000    0.000    0.000    0.000    0.000    0.000 
#
# Total GULP energy -267526.114178 kJ/mol
# GULP energy per Si atom -5573.460712 kJ/mol
# Density = 1.897244 g / cm^3
# Si number density = 19.015716 Si / 1000 Ang^3
#
#
#
# Elastic Constant Matrix: (Units=GPa)
#
#
# Indices 1 2 3 4 5 6 
#
# 1 104.0700 41.5606 51.7601 0.0000 0.0000 0.0000
# 2 41.5606 104.0700 51.7601 0.0000 0.0000 0.0000
# 3 51.7601 51.7601 126.9012 0.0000 0.0000 0.0000
# 4 0.0000 0.0000 0.0000 171.3618 0.0000 0.0000
# 5 0.0000 0.0000 0.0000 0.0000 171.3618 0.0000
# 6 0.0000 0.0000 0.0000 0.0000 0.0000 31.9129
#
#
#
# Elastic Compliance Matrix: (Units=1/GPa)
#
#
# Indices 1 2 3 4 5 6 
#
# 1 0.012834 -0.003164 -0.003944 0.000000 0.000000 0.000000
# 2 -0.003164 0.012834 -0.003944 0.000000 0.000000 0.000000
# 3 -0.003944 -0.003944 0.011098 0.000000 0.000000 0.000000
# 4 0.000000 0.000000 0.000000 0.005836 0.000000 0.000000
# 5 0.000000 0.000000 0.000000 0.000000 0.005836 0.000000
# 6 0.000000 0.000000 0.000000 0.000000 0.000000 0.031335
#
#
# Mechanical properties :
#
#
# Convention : Reuss Voigt Hill
#
# Bulk Modulus (GPa) = 68.20676 69.46695 68.83686
# Shear Modulus (GPa) = 46.83223 87.59134 67.21178
#
# Velocity S-wave (km/s) = 4.96806 6.79431 5.95165
# Velocity P-wave (km/s) = 8.29791 9.90761 9.13827
#
# Compressibility (1/GPa) = 0.01466130
#
# Stress axis : x y z
#
# Youngs Moduli (GPa) = 77.91769 77.91769 90.10807
#
# Poissons Ratio (x) = 0.24650 0.35542
# Poissons Ratio (y) = 0.24650 0.35542
# Poissons Ratio (z) = 0.30734 0.30734
#
# Static dielectric constant tensor:
#      x y z
#    x 1.566070 0.000000 0.000000 
#    y 0.000000 1.566070 0.000000 
#    z 0.000000 0.000000 1.630960 
# 
# From -- ./inp_files/5564.got.cif
#   From: 2010.05.17/outbox.cif.g08.bks.cpg/sg94_3_cif.got.tgz:5564.got - 2010.06.03 19:43:16.
