data_PCOD9550174
_publ_section_title
;
Structure prediction by ZEFSAII (Michael W. Deem and Ramdas Pophale) SiO2 
 PCOD9550174
Probable space group: P 42 21 2
;
_chemical_formula_sum "Si O2"
_cell_formula_units_Z 32
_cell_length_a 9.216241
_cell_length_b 9.216241
_cell_length_c 18.581348
_cell_angle_alpha 90.000000
_cell_angle_beta 90.000000
_cell_angle_gamma 90.000000
_cell_volume 1578.282942
_symmetry_space_group_name_H-M "P 42 21 2"
_symmetry_group_IT_number 94
_symmetry_cell_setting 'tetragonal'
loop_
_space_group_symop_operation_xyz
x,y,z
1/2-y,1/2+x,1/2+z
-x,-y,z
1/2+y,1/2-x,1/2+z
1/2+x,1/2-y,1/2-z
1/2-x,1/2+y,1/2-z
y,x,-z
-y,-x,-z
loop_
_atom_site_type_symbol
_atom_site_label
_atom_site_fract_x
_atom_site_fract_y
_atom_site_fract_z
Si Si1 0.491359 0.833084 0.715091
Si Si2 0.015780 0.329083 0.553630
Si Si3 0.334036 0.331935 0.834175
Si Si4 0.377819 0.758068 0.105030
O O1 0.558123 0.725418 0.773188
O O2 0.328757 0.795338 0.691988
O O3 0.595343 0.836220 0.645539
O O4 0.500000 0.000000 0.743695
O O5 0.158835 0.261079 0.590798
O O6 0.040734 0.292947 0.469799
O O7 0.000000 0.500000 0.563173
O O8 0.883176 0.246893 0.592293
O O9 0.328194 0.503860 0.847955
#
# Coordination Sequence:
#
# PCOD9550174 Si02
#       4
#     8   8   8   8
#     4  10  22  40  60  90 127 163 205 258 317 373
#     4  11  22  40  64  92 125 163 210 260 313 370
#     4  11  21  37  63  90 121 162 209 256 313 375
#     4  10  23  42  64  90 124 166 210 258 311 374
#
# _framework density 20.275200000000002
#
# number of rings (size 3 to 8) (size 9 to 14) (size 15 to 20)
#    0.000    1.500    0.000    6.000    0.000    6.000 
#    0.000    6.250    0.000    3.000    0.000    0.000 
#    0.000    0.000    0.000    0.000    0.000    0.000 
#
# Total GULP energy -178926.790789 kJ/mol
# GULP energy per Si atom -5591.462212 kJ/mol
# Density = 2.022905 g / cm^3
# Si number density = 20.275200 Si / 1000 Ang^3
#
#
#
# Elastic Constant Matrix: (Units=GPa)
#
#
# Indices 1 2 3 4 5 6 
#
# 1 125.3220 62.7012 52.9232 0.0000 0.0000 0.0000
# 2 62.7012 125.3220 52.9232 0.0000 0.0000 0.0000
# 3 52.9232 52.9232 115.1488 0.0000 0.0000 0.0000
# 4 0.0000 0.0000 0.0000 36.5959 0.0000 0.0000
# 5 0.0000 0.0000 0.0000 0.0000 36.5959 0.0000
# 6 0.0000 0.0000 0.0000 0.0000 0.0000 30.9156
#
#
#
# Elastic Compliance Matrix: (Units=1/GPa)
#
#
# Indices 1 2 3 4 5 6 
#
# 1 0.011572 -0.004397 -0.003298 0.000000 0.000000 0.000000
# 2 -0.004397 0.011572 -0.003298 0.000000 0.000000 0.000000
# 3 -0.003298 -0.003298 0.011716 0.000000 0.000000 0.000000
# 4 0.000000 0.000000 0.000000 0.027325 0.000000 0.000000
# 5 0.000000 0.000000 0.000000 0.000000 0.027325 0.000000
# 6 0.000000 0.000000 0.000000 0.000000 0.000000 0.032346
#
#
# Mechanical properties :
#
#
# Convention : Reuss Voigt Hill
#
# Bulk Modulus (GPa) = 77.67056 78.09865 77.88460
# Shear Modulus (GPa) = 33.75346 33.97118 33.86232
#
# Velocity S-wave (km/s) = 4.08458 4.09773 4.09116
# Velocity P-wave (km/s) = 7.78694 7.80970 7.79833
#
# Compressibility (1/GPa) = 0.01287489
#
# Stress axis : x y z
#
# Youngs Moduli (GPa) = 86.41546 86.41546 85.35607
#
# Poissons Ratio (x) = 0.37998 0.28147
# Poissons Ratio (y) = 0.37998 0.28147
# Poissons Ratio (z) = 0.28496 0.28496
#
# Static dielectric constant tensor:
#      x y z
#    x 1.703740 0.000000 0.000000 
#    y 0.000000 1.703740 0.000000 
#    z 0.000000 0.000000 1.747070 
# 
# From -- ./inp_files/4379.got.cif
#   From: 2010.05.17/outbox.cif.g08.bks.cpg/sg94_3_cif.got.tgz:4379.got - 2010.06.03 19:43:16.
