data_PCOD9550975
_publ_section_title
;
Structure prediction by ZEFSAII (Michael W. Deem and Ramdas Pophale) SiO2 
 PCOD9550975
Probable space group: P 43 21 2
;
_chemical_formula_sum "Si O2"
_cell_formula_units_Z 40
_cell_length_a 9.447940
_cell_length_b 9.447940
_cell_length_c 20.230752
_cell_angle_alpha 90.000000
_cell_angle_beta 90.000000
_cell_angle_gamma 90.000000
_cell_volume 1805.869152
_symmetry_space_group_name_H-M "P 43 21 2"
_symmetry_group_IT_number 96
_symmetry_cell_setting 'tetragonal'
loop_
_space_group_symop_operation_xyz
x,y,z
1/2-y,1/2+x,3/4+z
-x,-y,1/2+z
1/2+y,1/2-x,1/4+z
1/2+x,1/2-y,1/4-z
1/2-x,1/2+y,3/4-z
y,x,-z
-y,-x,1/2-z
loop_
_atom_site_type_symbol
_atom_site_label
_atom_site_fract_x
_atom_site_fract_y
_atom_site_fract_z
Si Si1 0.105377 0.826718 0.060823
Si Si2 0.345295 0.654010 0.818422
Si Si3 0.377804 0.917154 0.899689
Si Si4 0.972559 0.422750 0.479239
Si Si5 0.731006 0.289991 0.678942
O O1 0.936911 0.810869 0.074516
O O2 0.132628 0.692378 0.012641
O O3 0.208387 0.800795 0.121345
O O4 0.129208 0.991250 0.048209
O O5 0.281136 0.718865 0.750000
O O6 0.342025 0.754647 0.882912
O O7 0.259071 0.512116 0.834601
O O8 0.427069 0.967502 0.826550
O O9 0.490889 0.951664 0.959306
O O10 0.065190 0.315980 0.433897
O O11 0.772466 0.227535 0.750000
#
# Coordination Sequence:
#
# PCOD9550975 Si02
#       5
#     8   8   8   8   8
#     4  11  24  44  73 102 147 185 248 296 361 441
#     4  12  27  47  70 109 147 193 241 310 375 443
#     4  12  27  47  73 105 149 189 243 305 379 444
#     4  11  23  47  73 101 142 192 239 300 364 444
#     4  10  22  42  68 104 137 190 240 290 360 434
#
# _framework density 22.149996999999999
#
# number of rings (size 3 to 8) (size 9 to 14) (size 15 to 20)
#    0.000    0.800    4.000    4.200    5.600    0.000 
#    3.600    0.000    0.000    0.000    0.000    0.000 
#    0.000    0.000    0.000    0.000    0.000    0.000 
#
# Total GULP energy -222789.956500 kJ/mol
# GULP energy per Si atom -5569.748913 kJ/mol
# Density = 2.209958 g / cm^3
# Si number density = 22.149997 Si / 1000 Ang^3
#
#
#
# Elastic Constant Matrix: (Units=GPa)
#
#
# Indices 1 2 3 4 5 6 
#
# 1 160.7283 -54.6168 44.4104 0.0000 0.0000 0.0000
# 2 -54.6168 160.7344 44.4023 0.0000 0.0000 0.0000
# 3 44.4104 44.4023 96.9305 0.0000 0.0000 0.0000
# 4 0.0000 0.0000 0.0000 4.5573 0.0000 0.0000
# 5 0.0000 0.0000 0.0000 0.0000 4.5557 0.0000
# 6 0.0000 0.0000 0.0000 0.0000 0.0000 37.5551
#
#
#
# Elastic Compliance Matrix: (Units=1/GPa)
#
#
# Indices 1 2 3 4 5 6 
#
# 1 0.009964 0.005320 -0.007002 0.000000 0.000000 0.000000
# 2 0.005320 0.009963 -0.007002 0.000000 0.000000 0.000000
# 3 -0.007002 -0.007002 0.016732 0.000000 0.000000 0.000000
# 4 0.000000 0.000000 0.000000 0.219429 0.000000 0.000000
# 5 0.000000 0.000000 0.000000 0.000000 0.219505 0.000000
# 6 0.000000 0.000000 0.000000 0.000000 0.000000 0.026628
#
#
# Mechanical properties :
#
#
# Convention : Reuss Voigt Hill
#
# Bulk Modulus (GPa) = 51.83393 54.08722 52.96057
# Shear Modulus (GPa) = 9.50534 34.94677 22.22606
#
# Velocity S-wave (km/s) = 2.07381 3.97638 3.17114
# Velocity P-wave (km/s) = 5.40244 6.74935 6.11310
#
# Compressibility (1/GPa) = 0.01929238
#
# Stress axis : x y z
#
# Youngs Moduli (GPa) = 100.35743 100.36707 59.76454
#
# Poissons Ratio (x) = -0.53398 0.41850
# Poissons Ratio (y) = -0.53393 0.41845
# Poissons Ratio (z) = 0.70275 0.70274
#
# Static dielectric constant tensor:
#      x y z
#    x 2.008430 0.000000 0.000000 
#    y 0.000000 2.008440 0.000000 
#    z 0.000000 0.000000 1.868600 
# 
# From -- ./inp_files/3794.got.cif
#   From: 2010.05.17/outbox.cif.g08.bks.cpg/sg96_2_cif.got.tgz:3794.got - 2010.06.03 19:52:08.
