data_PCOD9550634
_publ_section_title
;
Structure prediction by ZEFSAII (Michael W. Deem and Ramdas Pophale) SiO2 
 PCOD9550634
Probable space group: P 43 2 2
;
_chemical_formula_sum "Si O2"
_cell_formula_units_Z 44
_cell_length_a 20.622513
_cell_length_b 20.622513
_cell_length_c 5.497138
_cell_angle_alpha 90.000000
_cell_angle_beta 90.000000
_cell_angle_gamma 90.000000
_cell_volume 2337.867059
_symmetry_space_group_name_H-M "P 43 2 2"
_symmetry_group_IT_number 95
_symmetry_cell_setting 'tetragonal'
loop_
_space_group_symop_operation_xyz
x,y,z
-y,x,3/4+z
-x,-y,1/2+z
y,-x,1/4+z
x,-y,1/2-z
-x,y,-z
y,x,1/4-z
-y,-x,3/4-z
loop_
_atom_site_type_symbol
_atom_site_label
_atom_site_fract_x
_atom_site_fract_y
_atom_site_fract_z
Si Si1 0.569909 0.153144 0.538323
Si Si2 0.903029 0.000000 0.750000
Si Si3 0.815005 0.288595 0.359925
Si Si4 0.568192 0.927986 0.463957
Si Si5 0.708449 0.056876 0.072240
Si Si6 0.810429 0.898708 0.800557
O O1 0.500000 0.188356 0.500000
O O2 0.639666 0.187812 0.507485
O O3 0.568811 0.123048 0.810319
O O4 0.569012 0.102394 0.309053
O O5 0.857429 0.046785 0.586788
O O6 0.949848 0.949848 0.625000
O O7 0.743505 0.256496 0.375000
O O8 0.868313 0.296692 0.578079
O O9 0.852707 0.232388 0.214393
O O10 0.500000 0.964169 0.500000
O O11 0.635656 0.964432 0.494517
O O12 0.731848 0.000000 0.250000
O O13 0.757848 0.063716 0.856798
O O14 0.853683 0.853683 0.625000
#
# Coordination Sequence:
#
# PCOD9550634 Si02
#       6
#     8   4   8   8   8   8
#     4   9  18  34  57  82 113 151 186 230 283 342
#     4  10  24  42  56  74  96 130 176 234 302 354
#     4  11  21  35  57  81 107 145 187 237 284 349
#     4   9  18  35  55  78 111 148 185 224 275 336
#     4  11  22  36  55  79 105 140 184 228 284 339
#     4  11  21  39  57  76 104 136 177 234 292 351
#
# _framework density 18.820575000000002
#
# number of rings (size 3 to 8) (size 9 to 14) (size 15 to 20)
#    0.000    1.818    3.636    1.091    0.000    0.727 
#    6.545    7.273    0.000    0.000    0.000    0.000 
#    0.000    0.000    0.000   14.727    0.000    0.000 
#
# Total GULP energy -244950.522677 kJ/mol
# GULP energy per Si atom -5567.057334 kJ/mol
# Density = 1.877774 g / cm^3
# Si number density = 18.820575 Si / 1000 Ang^3
#
#
#
# Elastic Constant Matrix: (Units=GPa)
#
#
# Indices 1 2 3 4 5 6 
#
# 1 114.8901 50.5328 19.5826 0.0000 0.0000 0.0000
# 2 50.5328 114.8877 19.5824 0.0000 0.0000 0.0000
# 3 19.5826 19.5824 52.9681 0.0000 0.0000 0.0000
# 4 0.0000 0.0000 0.0000 24.6025 0.0000 0.0000
# 5 0.0000 0.0000 0.0000 0.0000 24.6031 0.0000
# 6 0.0000 0.0000 0.0000 0.0000 0.0000 10.7110
#
#
#
# Elastic Compliance Matrix: (Units=1/GPa)
#
#
# Indices 1 2 3 4 5 6 
#
# 1 0.011082 -0.004457 -0.002449 0.000000 0.000000 0.000000
# 2 -0.004457 0.011082 -0.002449 0.000000 0.000000 0.000000
# 3 -0.002449 -0.002449 0.020690 0.000000 0.000000 0.000000
# 4 0.000000 0.000000 0.000000 0.040646 0.000000 0.000000
# 5 0.000000 0.000000 0.000000 0.000000 0.040645 0.000000
# 6 0.000000 0.000000 0.000000 0.000000 0.000000 0.093362
#
#
# Mechanical properties :
#
#
# Convention : Reuss Voigt Hill
#
# Bulk Modulus (GPa) = 41.41955 51.34907 46.38431
# Shear Modulus (GPa) = 20.46948 24.85319 22.66133
#
# Velocity S-wave (km/s) = 3.30147 3.63786 3.47374
# Velocity P-wave (km/s) = 6.04883 6.70731 6.38656
#
# Compressibility (1/GPa) = 0.02414319
#
# Stress axis : x y z
#
# Youngs Moduli (GPa) = 90.23905 90.23708 48.33179
#
# Poissons Ratio (x) = 0.40216 0.11838
# Poissons Ratio (y) = 0.40217 0.11838
# Poissons Ratio (z) = 0.22102 0.22102
#
# Static dielectric constant tensor:
#      x y z
#    x 1.705910 0.000000 0.000000 
#    y 0.000000 1.705910 0.000000 
#    z 0.000000 0.000000 1.754530 
# 
# From -- ./inp_files/1154.got.cif
#   From: 2010.05.17/outbox.cif.g08.bks.cpg/sg95_1_cif.got.tgz:1154.got - 2010.06.03 19:46:49.
