data_PCOD9550387
_publ_section_title
;
Structure prediction by ZEFSAII (Michael W. Deem and Ramdas Pophale) SiO2 
 PCOD9550387
Probable space group: P 42 21 2
;
_chemical_formula_sum "Si O2"
_cell_formula_units_Z 48
_cell_length_a 8.194308
_cell_length_b 8.194308
_cell_length_c 30.396846
_cell_angle_alpha 90.000000
_cell_angle_beta 90.000000
_cell_angle_gamma 90.000000
_cell_volume 2041.047401
_symmetry_space_group_name_H-M "P 42 21 2"
_symmetry_group_IT_number 94
_symmetry_cell_setting 'tetragonal'
loop_
_space_group_symop_operation_xyz
x,y,z
1/2-y,1/2+x,1/2+z
-x,-y,z
1/2+y,1/2-x,1/2+z
1/2+x,1/2-y,1/2-z
1/2-x,1/2+y,1/2-z
y,x,-z
-y,-x,-z
loop_
_atom_site_type_symbol
_atom_site_label
_atom_site_fract_x
_atom_site_fract_y
_atom_site_fract_z
Si Si1 0.300146 0.291421 0.548013
Si Si2 0.163082 0.108299 0.630100
Si Si3 0.202599 0.851680 0.194094
Si Si4 0.658150 0.899921 0.782184
Si Si5 0.316818 0.684972 0.548849
Si Si6 0.708949 0.824339 0.144184
O O1 0.240345 0.240345 0.500000
O O2 0.196362 0.203153 0.584967
O O3 0.298574 0.488787 0.548520
O O4 0.493895 0.257136 0.551928
O O5 0.190166 0.238800 0.668305
O O6 0.312896 0.983885 0.639189
O O7 0.000000 0.000000 0.630291
O O8 0.324706 0.876269 0.234546
O O9 0.027126 0.809122 0.214775
O O10 0.214488 0.001589 0.159210
O O11 0.705354 0.761070 0.816558
O O12 0.500000 0.000000 0.794864
O O13 0.258206 0.741795 0.500000
O O14 0.254223 0.732888 0.596960
#
# Coordination Sequence:
#
# PCOD9550387 Si02
#       6
#     8   8   8   8   8   8
#     4   9  19  39  67  97 132 176 228 284 345 414
#     4  12  25  42  65  96 141 183 227 291 358 425
#     4  12  25  45  71  98 137 185 239 288 354 432
#     4  12  26  44  68 103 141 179 232 295 356 425
#     4   9  19  40  71 101 128 173 239 293 337 414
#     4  12  25  43  72 102 136 188 239 287 358 428
#
# _framework density 23.517334999999999
#
# number of rings (size 3 to 8) (size 9 to 14) (size 15 to 20)
#    0.000    1.000    1.667    7.000    2.333    1.667 
#    3.000    0.000    0.000    0.000    0.000    0.000 
#    0.000    0.000    0.000    0.000    0.000    0.000 
#
# Total GULP energy -268128.806796 kJ/mol
# GULP energy per Si atom -5586.016808 kJ/mol
# Density = 2.346381 g / cm^3
# Si number density = 23.517335 Si / 1000 Ang^3
#
#
#
# Elastic Constant Matrix: (Units=GPa)
#
#
# Indices 1 2 3 4 5 6 
#
# 1 59.6887 10.6240 12.4555 0.0000 0.0000 0.0000
# 2 10.6240 59.6887 12.4556 0.0000 0.0000 0.0000
# 3 12.4555 12.4556 121.8236 0.0000 0.0000 0.0000
# 4 0.0000 0.0000 0.0000 -23.3971 0.0000 0.0000
# 5 0.0000 0.0000 0.0000 0.0000 -23.3970 0.0000
# 6 0.0000 0.0000 0.0000 0.0000 0.0000 35.1572
#
#
#
# Elastic Compliance Matrix: (Units=1/GPa)
#
#
# Indices 1 2 3 4 5 6 
#
# 1 0.017569 -0.002812 -0.001509 0.000000 0.000000 0.000000
# 2 -0.002812 0.017569 -0.001509 0.000000 0.000000 0.000000
# 3 -0.001509 -0.001509 0.008517 0.000000 0.000000 0.000000
# 4 0.000000 0.000000 0.000000 -0.042740 0.000000 0.000000
# 5 0.000000 0.000000 0.000000 0.000000 -0.042741 0.000000
# 6 0.000000 0.000000 0.000000 0.000000 0.000000 0.028444
#
#
# Mechanical properties :
#
#
# Convention : Reuss Voigt Hill
#
# Bulk Modulus (GPa) = 31.25441 34.69681 32.97561
# Shear Modulus (GPa) = 559.11897 11.38368 285.25132
#
# Velocity S-wave (km/s) = 15.43579 2.20251 11.02531
# Velocity P-wave (km/s) = 18.19351 4.61019 13.27135
#
# Compressibility (1/GPa) = 0.03199548
#
# Stress axis : x y z
#
# Youngs Moduli (GPa) = 56.91843 56.91846 117.41069
#
# Poissons Ratio (x) = 0.16007 0.17714
# Poissons Ratio (y) = 0.16007 0.17715
# Poissons Ratio (z) = 0.08588 0.08588
#
# Static dielectric constant tensor:
#      x y z
#    x 1.949360 0.000000 0.000000 
#    y 0.000000 1.949360 0.000000 
#    z 0.000000 0.000000 1.897330 
# 
# From -- ./inp_files/5568.got.cif
#   From: 2010.05.17/outbox.cif.g08.bks.cpg/sg94_3_cif.got.tgz:5568.got - 2010.06.03 19:43:16.
