data_PCOD9550655
_publ_section_title
;
Structure prediction by ZEFSAII (Michael W. Deem and Ramdas Pophale) SiO2 
 PCOD9550655
Probable space group: P 43 2 2
;
_chemical_formula_sum "Si O2"
_cell_formula_units_Z 56
_cell_length_a 15.565616
_cell_length_b 15.565616
_cell_length_c 13.518760
_cell_angle_alpha 90.000000
_cell_angle_beta 90.000000
_cell_angle_gamma 90.000000
_cell_volume 3275.438750
_symmetry_space_group_name_H-M "P 43 2 2"
_symmetry_group_IT_number 95
_symmetry_cell_setting 'tetragonal'
loop_
_space_group_symop_operation_xyz
x,y,z
-y,x,3/4+z
-x,-y,1/2+z
y,-x,1/4+z
x,-y,1/2-z
-x,y,-z
y,x,1/4-z
-y,-x,3/4-z
loop_
_atom_site_type_symbol
_atom_site_label
_atom_site_fract_x
_atom_site_fract_y
_atom_site_fract_z
Si Si1 0.697232 0.310872 0.993843
Si Si2 0.191886 0.611401 0.639169
Si Si3 0.150744 0.586434 0.186782
Si Si4 0.600781 0.035990 0.472272
Si Si5 0.474600 0.403889 0.222761
Si Si6 0.353542 0.332979 0.731538
Si Si7 0.843882 0.423801 0.454853
O O1 0.700825 0.299176 0.875000
O O2 0.648080 0.399640 0.027031
O O3 0.788401 0.327514 0.045931
O O4 0.647989 0.231352 0.042923
O O5 0.104745 0.633903 0.697809
O O6 0.270122 0.627813 0.717119
O O7 0.186021 0.512934 0.598970
O O8 0.166233 0.500000 0.250000
O O9 0.062081 0.630916 0.221857
O O10 0.138267 0.561916 0.071088
O O11 0.500000 0.028914 0.500000
O O12 0.607422 0.078087 0.363507
O O13 0.502885 0.500000 0.250000
O O14 0.423357 0.423357 0.125000
O O15 0.558232 0.347350 0.209599
O O16 0.374605 0.374605 0.625000
O O17 0.352990 0.232164 0.706370
#
# Coordination Sequence:
#
# PCOD9550655 Si02
#       7
#     8   8   8   8   8   8   8
#     4  11  22  36  53  76 109 149 184 238 281 330
#     4  11  21  36  53  80 111 141 189 244 283 333
#     4  11  22  37  57  76 104 151 198 239 293 338
#     4   9  21  37  56  78 103 141 193 247 288 341
#     4  11  23  31  42  66 101 145 193 224 255 318
#     4  12  23  33  51  76 107 153 183 229 288 329
#     4  11  21  36  54  76 107 142 192 236 289 339
#
# _framework density 17.096945999999999
#
# number of rings (size 3 to 8) (size 9 to 14) (size 15 to 20)
#    0.000    1.143    4.286    3.000    4.000    0.000 
#    0.000    2.143    0.000    0.000    0.000    0.000 
#    0.000    0.000   14.571    0.000    0.000    0.000 
#
# Total GULP energy -311920.761594 kJ/mol
# GULP energy per Si atom -5570.013600 kJ/mol
# Density = 1.705803 g / cm^3
# Si number density = 17.096946 Si / 1000 Ang^3
#
#
#
# Elastic Constant Matrix: (Units=GPa)
#
#
# Indices 1 2 3 4 5 6 
#
# 1 86.2760 8.6726 5.2037 0.0000 0.0000 0.0000
# 2 8.6726 86.2761 5.2038 0.0000 0.0000 0.0000
# 3 5.2037 5.2038 82.3883 0.0000 0.0000 0.0000
# 4 0.0000 0.0000 0.0000 19.1681 0.0000 0.0000
# 5 0.0000 0.0000 0.0000 0.0000 19.1681 0.0000
# 6 0.0000 0.0000 0.0000 0.0000 0.0000 10.4260
#
#
#
# Elastic Compliance Matrix: (Units=1/GPa)
#
#
# Indices 1 2 3 4 5 6 
#
# 1 0.011746 -0.001140 -0.000670 0.000000 0.000000 0.000000
# 2 -0.001140 0.011746 -0.000670 0.000000 0.000000 0.000000
# 3 -0.000670 -0.000670 0.012222 0.000000 0.000000 0.000000
# 4 0.000000 0.000000 0.000000 0.052170 0.000000 0.000000
# 5 0.000000 0.000000 0.000000 0.000000 0.052170 0.000000
# 6 0.000000 0.000000 0.000000 0.000000 0.000000 0.095914
#
#
# Mechanical properties :
#
#
# Convention : Reuss Voigt Hill
#
# Bulk Modulus (GPa) = 32.51639 32.56673 32.54156
# Shear Modulus (GPa) = 19.90613 25.47646 22.69129
#
# Velocity S-wave (km/s) = 3.41590 3.86439 3.64705
# Velocity P-wave (km/s) = 5.88370 6.24508 6.06708
#
# Compressibility (1/GPa) = 0.03075372
#
# Stress axis : x y z
#
# Youngs Moduli (GPa) = 85.13727 85.13737 81.81787
#
# Poissons Ratio (x) = 0.09708 0.05481
# Poissons Ratio (y) = 0.09708 0.05481
# Poissons Ratio (z) = 0.05703 0.05703
#
# Static dielectric constant tensor:
#      x y z
#    x 1.600910 0.000000 0.000000 
#    y 0.000000 1.600910 0.000000 
#    z 0.000000 0.000000 1.673430 
# 
# From -- ./inp_files/5002.got.cif
#   From: 2010.05.17/outbox.cif.g08.bks.cpg/sg95_3_cif.got.tgz:5002.got - 2010.06.03 19:46:49.
