data_PCOD9550017
_publ_section_title
;
Structure prediction by ZEFSAII (Michael W. Deem and Ramdas Pophale) SiO2 
 PCOD9550017
Probable space group: P 42 21 2
;
_chemical_formula_sum "Si O2"
_cell_formula_units_Z 56
_cell_length_a 12.428570
_cell_length_b 12.428570
_cell_length_c 19.862059
_cell_angle_alpha 90.000000
_cell_angle_beta 90.000000
_cell_angle_gamma 90.000000
_cell_volume 3068.079388
_symmetry_space_group_name_H-M "P 42 21 2"
_symmetry_group_IT_number 94
_symmetry_cell_setting 'tetragonal'
loop_
_space_group_symop_operation_xyz
x,y,z
1/2-y,1/2+x,1/2+z
-x,-y,z
1/2+y,1/2-x,1/2+z
1/2+x,1/2-y,1/2-z
1/2-x,1/2+y,1/2-z
y,x,-z
-y,-x,-z
loop_
_atom_site_type_symbol
_atom_site_label
_atom_site_fract_x
_atom_site_fract_y
_atom_site_fract_z
Si Si1 0.820575 0.681611 0.585003
Si Si2 0.470886 0.617776 0.927951
Si Si3 0.505091 0.129966 0.171111
Si Si4 0.882082 0.311531 0.934603
Si Si5 0.367882 0.818588 0.572239
Si Si6 0.874264 0.482209 0.678593
Si Si7 0.650720 0.797183 0.929126
O O1 0.888211 0.791144 0.600389
O O2 0.853238 0.640296 0.510360
O O3 0.834420 0.586030 0.637593
O O4 0.081285 0.812764 0.569677
O O5 0.500000 0.500000 0.896243
O O6 0.195910 0.788071 0.921916
O O7 0.417839 0.582162 0.000000
O O8 0.599894 0.154023 0.119336
O O9 0.395588 0.162473 0.134208
O O10 0.523191 0.173615 0.246096
O O11 0.500000 0.000000 0.173260
O O12 0.007560 0.286547 0.923959
O O13 0.354936 0.876585 0.499772
O O14 0.277563 0.727782 0.571649
O O15 0.867276 0.375249 0.633587
O O16 0.000000 0.500000 0.688143
#
# Coordination Sequence:
#
# PCOD9550017 Si02
#       7
#     8   8   8   8   8   8   8
#     4  11  21  35  63  88 115 161 202 247 302 352
#     4  11  21  33  53  91 127 143 185 253 313 363
#     4   9  21  36  59  86 120 157 197 246 306 354
#     4  10  20  36  58  86 115 153 204 247 292 356
#     4  10  20  36  57  87 117 153 201 251 295 356
#     4  11  22  39  58  89 118 158 205 246 296 366
#     4  11  22  35  64  88 117 160 203 249 305 355
#
# _framework density 18.252459999999999
#
# number of rings (size 3 to 8) (size 9 to 14) (size 15 to 20)
#    0.000    1.571    4.286    2.571    2.000    1.143 
#    0.000    0.714    0.000    0.000    0.000    0.000 
#    0.000    0.000    0.000    0.000    0.000    0.000 
#
# Total GULP energy -311869.412162 kJ/mol
# GULP energy per Si atom -5569.096646 kJ/mol
# Density = 1.821092 g / cm^3
# Si number density = 18.252460 Si / 1000 Ang^3
#
#
#
# Elastic Constant Matrix: (Units=GPa)
#
#
# Indices 1 2 3 4 5 6 
#
# 1 90.8806 32.8514 28.2463 0.0000 0.0000 0.0000
# 2 32.8514 90.8806 28.2463 0.0000 0.0000 0.0000
# 3 28.2463 28.2463 132.0441 0.0000 0.0000 0.0000
# 4 0.0000 0.0000 0.0000 39.2835 0.0000 0.0000
# 5 0.0000 0.0000 0.0000 0.0000 39.2836 0.0000
# 6 0.0000 0.0000 0.0000 0.0000 0.0000 24.2736
#
#
#
# Elastic Compliance Matrix: (Units=1/GPa)
#
#
# Indices 1 2 3 4 5 6 
#
# 1 0.013095 -0.004138 -0.001916 0.000000 0.000000 0.000000
# 2 -0.004138 0.013095 -0.001916 0.000000 0.000000 0.000000
# 3 -0.001916 -0.001916 0.008393 0.000000 0.000000 0.000000
# 4 0.000000 0.000000 0.000000 0.025456 0.000000 0.000000
# 5 0.000000 0.000000 0.000000 0.000000 0.025456 0.000000
# 6 0.000000 0.000000 0.000000 0.000000 0.000000 0.041197
#
#
# Mechanical properties :
#
#
# Convention : Reuss Voigt Hill
#
# Bulk Modulus (GPa) = 53.64081 54.72148 54.18115
# Shear Modulus (GPa) = 33.59192 35.53224 34.56208
#
# Velocity S-wave (km/s) = 4.29465 4.41694 4.35622
# Velocity P-wave (km/s) = 7.35147 7.48718 7.41963
#
# Compressibility (1/GPa) = 0.01864252
#
# Stress axis : x y z
#
# Youngs Moduli (GPa) = 76.36654 76.36654 119.14761
#
# Poissons Ratio (x) = 0.31600 0.22829
# Poissons Ratio (y) = 0.31600 0.22829
# Poissons Ratio (z) = 0.14632 0.14632
#
# Static dielectric constant tensor:
#      x y z
#    x 1.637780 0.000000 0.000000 
#    y 0.000000 1.637780 0.000000 
#    z 0.000000 0.000000 1.684010 
# 
# From -- ./inp_files/4751.got.cif
#   From: 2010.05.17/outbox.cif.g08.bks.cpg/sg94_3_cif.got.tgz:4751.got - 2010.06.03 19:43:16.
