data_PCOD9550041
_publ_section_title
;
Structure prediction by ZEFSAII (Michael W. Deem and Ramdas Pophale) SiO2 
 PCOD9550041
Probable space group: P 42 21 2
;
_chemical_formula_sum "Si O2"
_cell_formula_units_Z 64
_cell_length_a 12.980662
_cell_length_b 12.980662
_cell_length_c 21.892643
_cell_angle_alpha 90.000000
_cell_angle_beta 90.000000
_cell_angle_gamma 90.000000
_cell_volume 3688.857496
_symmetry_space_group_name_H-M "P 42 21 2"
_symmetry_group_IT_number 94
_symmetry_cell_setting 'tetragonal'
loop_
_space_group_symop_operation_xyz
x,y,z
1/2-y,1/2+x,1/2+z
-x,-y,z
1/2+y,1/2-x,1/2+z
1/2+x,1/2-y,1/2-z
1/2-x,1/2+y,1/2-z
y,x,-z
-y,-x,-z
loop_
_atom_site_type_symbol
_atom_site_label
_atom_site_fract_x
_atom_site_fract_y
_atom_site_fract_z
Si Si1 0.887913 0.044870 0.067181
Si Si2 0.384818 0.041968 0.924836
Si Si3 0.277526 0.130456 0.039378
Si Si4 0.115395 0.701835 0.683753
Si Si5 0.894271 0.235208 0.148894
Si Si6 0.259935 0.552999 0.758634
Si Si7 0.750111 0.885287 0.276846
Si Si8 0.290524 0.863467 0.665345
O O1 0.858046 0.132119 0.115529
O O2 0.807759 0.951633 0.062278
O O3 0.904904 0.095097 0.000000
O O4 0.000000 0.000000 0.084515
O O5 0.377935 0.139399 0.879530
O O6 0.500000 0.000000 0.921288
O O7 0.304636 0.957923 0.899114
O O8 0.352665 0.073822 0.992329
O O9 0.338619 0.176128 0.096732
O O10 0.216274 0.216274 0.000000
O O11 0.167878 0.625768 0.733427
O O12 0.184148 0.803409 0.678401
O O13 0.999518 0.729451 0.700218
O O14 0.804005 0.303721 0.177621
O O15 0.973864 0.212772 0.204052
O O16 0.353164 0.630939 0.771374
O O17 0.223730 0.481594 0.814607
O O18 0.692258 0.869349 0.212144
#
# Coordination Sequence:
#
# PCOD9550041 Si02
#       8
#     8   8   8   8   8   8   8   8
#     4  11  21  34  57  88 118 152 185 244 307 354
#     4  11  20  36  62  87 108 160 204 232 280 364
#     4  12  22  39  61  87 121 155 201 244 298 361
#     4  10  20  38  65  84 114 157 202 237 295 358
#     4  10  20  38  57  83 121 150 194 243 291 360
#     4   9  22  39  57  88 118 150 200 246 296 351
#     4  10  21  39  62  84 116 159 195 245 299 351
#     4  10  23  39  58  89 120 153 194 254 297 347
#
# _framework density 17.349544000000002
#
# number of rings (size 3 to 8) (size 9 to 14) (size 15 to 20)
#    0.000    1.625    5.000    0.000    3.500    3.500 
#    4.500    0.000    0.000    0.000    0.000    0.000 
#    0.000    0.000    0.000    0.000    0.000    0.000 
#
# Total GULP energy -357352.066689 kJ/mol
# GULP energy per Si atom -5583.626042 kJ/mol
# Density = 1.731006 g / cm^3
# Si number density = 17.349544 Si / 1000 Ang^3
#
#
#
# Elastic Constant Matrix: (Units=GPa)
#
#
# Indices 1 2 3 4 5 6 
#
# 1 62.8073 25.5082 29.6189 0.0000 0.0000 0.0000
# 2 25.5082 62.8070 29.6187 0.0000 0.0000 0.0000
# 3 29.6189 29.6187 91.5409 0.0000 0.0000 0.0000
# 4 0.0000 0.0000 0.0000 -10.7824 0.0000 0.0000
# 5 0.0000 0.0000 0.0000 0.0000 -10.7775 0.0000
# 6 0.0000 0.0000 0.0000 0.0000 0.0000 22.9353
#
#
#
# Elastic Compliance Matrix: (Units=1/GPa)
#
#
# Indices 1 2 3 4 5 6 
#
# 1 0.020636 -0.006174 -0.004679 0.000000 0.000000 0.000000
# 2 -0.006174 0.020636 -0.004679 0.000000 0.000000 0.000000
# 3 -0.004679 -0.004679 0.013952 0.000000 0.000000 0.000000
# 4 0.000000 0.000000 0.000000 -0.092744 0.000000 0.000000
# 5 0.000000 0.000000 0.000000 0.000000 -0.092786 0.000000
# 6 0.000000 0.000000 0.000000 0.000000 0.000000 0.043601
#
#
# Mechanical properties :
#
#
# Convention : Reuss Voigt Hill
#
# Bulk Modulus (GPa) = 41.39314 42.96075 42.17695
# Shear Modulus (GPa) = -105.07222 9.10238 -47.98492
#
# Velocity S-wave (km/s) = -7.79060 2.29300 -5.26477
# Velocity P-wave (km/s) = 7.55079 5.64146 3.54882
#
# Compressibility (1/GPa) = 0.02415859
#
# Stress axis : x y z
#
# Youngs Moduli (GPa) = 48.45908 48.45895 71.67410
#
# Poissons Ratio (x) = 0.29920 0.33538
# Poissons Ratio (y) = 0.29920 0.33537
# Poissons Ratio (z) = 0.22675 0.22675
#
# Static dielectric constant tensor:
#      x y z
#    x 1.579490 0.000000 0.000000 
#    y 0.000000 1.579490 0.000000 
#    z 0.000000 0.000000 1.591710 
# 
# From -- ./inp_files/5178.got.cif
#   From: 2010.05.17/outbox.cif.g08.bks.cpg/sg94_3_cif.got.tgz:5178.got - 2010.06.03 19:43:16.
