data_PCOD9550984
_publ_section_title
;
Structure prediction by ZEFSAII (Michael W. Deem and Ramdas Pophale) SiO2 
 PCOD9550984
Probable space group: P 43 21 2
;
_chemical_formula_sum "Si O2"
_cell_formula_units_Z 48
_cell_length_a 8.089501
_cell_length_b 8.089501
_cell_length_c 30.735561
_cell_angle_alpha 90.000000
_cell_angle_beta 90.000000
_cell_angle_gamma 90.000000
_cell_volume 2011.335924
_symmetry_space_group_name_H-M "P 43 21 2"
_symmetry_group_IT_number 96
_symmetry_cell_setting 'tetragonal'
loop_
_space_group_symop_operation_xyz
x,y,z
1/2-y,1/2+x,3/4+z
-x,-y,1/2+z
1/2+y,1/2-x,1/4+z
1/2+x,1/2-y,1/4-z
1/2-x,1/2+y,3/4-z
y,x,-z
-y,-x,1/2-z
loop_
_atom_site_type_symbol
_atom_site_label
_atom_site_fract_x
_atom_site_fract_y
_atom_site_fract_z
Si Si1 0.324042 0.112847 0.217408
Si Si2 0.261704 0.370867 0.688174
Si Si3 0.059683 0.919578 0.917118
Si Si4 0.018461 0.895795 0.684954
Si Si5 0.433494 0.966049 0.588653
Si Si6 0.638472 0.982163 0.183270
O O1 0.324805 0.198944 0.263923
O O2 0.365300 0.258580 0.182956
O O3 0.149130 0.032922 0.205209
O O4 0.480583 0.993154 0.213916
O O5 0.412280 0.500370 0.689926
O O6 0.335448 0.204749 0.668264
O O7 0.096935 0.423630 0.662766
O O8 0.054355 0.963766 0.865907
O O9 0.964905 0.745206 0.926835
O O10 0.990378 0.698953 0.686472
O O11 0.049089 0.806771 0.795462
O O12 0.393431 0.919126 0.638587
#
# Coordination Sequence:
#
# PCOD9550984 Si02
#       6
#     8   8   8   8   8   8
#     4  11  24  44  67 102 137 175 230 288 344 412
#     4  12  27  41  66 104 142 178 218 292 360 410
#     4  10  22  43  70  98 131 183 232 279 335 412
#     4  10  22  45  72  96 128 183 242 276 331 413
#     4  10  23  43  70  96 132 178 238 281 333 414
#     4  11  25  42  70  98 134 186 223 283 350 412
#
# _framework density 23.864733999999999
#
# number of rings (size 3 to 8) (size 9 to 14) (size 15 to 20)
#    0.000    1.333    1.667    2.500   11.667    2.000 
#    0.000    0.000    0.000    0.000    0.000    0.000 
#    0.000    0.000    0.000    0.000    0.000    0.000 
#
# Total GULP energy -268193.887379 kJ/mol
# GULP energy per Si atom -5587.372654 kJ/mol
# Density = 2.381042 g / cm^3
# Si number density = 23.864734 Si / 1000 Ang^3
#
#
#
# Elastic Constant Matrix: (Units=GPa)
#
#
# Indices 1 2 3 4 5 6 
#
# 1 119.0515 53.8844 12.6503 0.0000 0.0000 0.0000
# 2 53.8844 119.0515 12.6503 0.0000 0.0000 0.0000
# 3 12.6503 12.6503 39.5201 0.0000 0.0000 0.0000
# 4 0.0000 0.0000 0.0000 23.7630 0.0000 0.0000
# 5 0.0000 0.0000 0.0000 0.0000 23.7630 0.0000
# 6 0.0000 0.0000 0.0000 0.0000 0.0000 25.1203
#
#
#
# Elastic Compliance Matrix: (Units=1/GPa)
#
#
# Indices 1 2 3 4 5 6 
#
# 1 0.010706 -0.004639 -0.001942 0.000000 0.000000 0.000000
# 2 -0.004639 0.010706 -0.001942 0.000000 0.000000 0.000000
# 3 -0.001942 -0.001942 0.026547 0.000000 0.000000 0.000000
# 4 0.000000 0.000000 0.000000 0.042082 0.000000 0.000000
# 5 0.000000 0.000000 0.000000 0.000000 0.042082 0.000000
# 6 0.000000 0.000000 0.000000 0.000000 0.000000 0.039808
#
#
# Mechanical properties :
#
#
# Convention : Reuss Voigt Hill
#
# Bulk Modulus (GPa) = 32.34956 48.44369 40.39663
# Shear Modulus (GPa) = 25.09009 27.75845 26.42427
#
# Velocity S-wave (km/s) = 3.24596 3.41421 3.33115
# Velocity P-wave (km/s) = 5.25673 5.99047 5.63556
#
# Compressibility (1/GPa) = 0.03091232
#
# Stress axis : x y z
#
# Youngs Moduli (GPa) = 93.40657 93.40657 37.66938
#
# Poissons Ratio (x) = 0.43334 0.07315
# Poissons Ratio (y) = 0.43334 0.07315
# Poissons Ratio (z) = 0.18139 0.18139
#
# Static dielectric constant tensor:
#      x y z
#    x 1.983500 0.000000 0.000000 
#    y 0.000000 1.983500 0.000000 
#    z 0.000000 0.000000 1.897680 
# 
# From -- ./inp_files/4475.got.cif
#   From: 2010.05.17/outbox.cif.g08.bks.cpg/sg96_3_cif.got.tgz:4475.got - 2010.06.03 19:52:08.
