data_PCOD9550830
_publ_section_title
;
Structure prediction by ZEFSAII (Michael W. Deem and Ramdas Pophale) SiO2 
 PCOD9550830
Probable space group: P 43 21 2
;
_chemical_formula_sum "Si O2"
_cell_formula_units_Z 60
_cell_length_a 18.386923
_cell_length_b 18.386923
_cell_length_c 9.553257
_cell_angle_alpha 90.000000
_cell_angle_beta 90.000000
_cell_angle_gamma 90.000000
_cell_volume 3229.754975
_symmetry_space_group_name_H-M "P 43 21 2"
_symmetry_group_IT_number 96
_symmetry_cell_setting 'tetragonal'
loop_
_space_group_symop_operation_xyz
x,y,z
1/2-y,1/2+x,3/4+z
-x,-y,1/2+z
1/2+y,1/2-x,1/4+z
1/2+x,1/2-y,1/4-z
1/2-x,1/2+y,3/4-z
y,x,-z
-y,-x,1/2-z
loop_
_atom_site_type_symbol
_atom_site_label
_atom_site_fract_x
_atom_site_fract_y
_atom_site_fract_z
Si Si1 0.134938 0.048985 0.883654
Si Si2 0.073348 0.301336 0.574061
Si Si3 0.820273 0.344870 0.540256
Si Si4 0.594450 0.594450 0.500000
Si Si5 0.936944 0.544450 0.215890
Si Si6 0.247888 0.936633 0.602313
Si Si7 0.990913 0.698379 0.626384
Si Si8 0.156218 0.171288 0.666587
O O1 0.218996 0.029224 0.917755
O O2 0.131872 0.098304 0.743875
O O3 0.094713 0.973889 0.853390
O O4 0.097007 0.097007 0.000000
O O5 0.129429 0.325837 0.451415
O O6 0.052147 0.374974 0.652641
O O7 0.108570 0.243598 0.680802
O O8 0.009786 0.258460 0.490086
O O9 0.874370 0.283462 0.490328
O O10 0.832059 0.416091 0.443525
O O11 0.737596 0.317515 0.526660
O O12 0.585099 0.668146 0.408529
O O13 0.854458 0.525029 0.261500
O O14 0.986262 0.538107 0.352403
O O15 0.292903 0.953310 0.744095
O O16 0.159006 0.159006 0.500000
#
# Coordination Sequence:
#
# PCOD9550830 Si02
#       8
#     8   8   8   4   8   8   8   8
#     4  10  22  40  65  88 123 154 208 258 323 368
#     4  10  22  38  62  88 125 168 205 253 310 384
#     4   9  18  37  62  84 117 161 202 253 309 363
#     4  10  22  38  60  96 118 162 202 262 314 384
#     4  12  27  38  60  91 129 167 211 250 309 374
#     4  10  20  38  63  87 124 163 208 253 316 365
#     4   9  21  39  59  88 121 158 206 262 295 374
#     4   9  19  38  62  88 115 158 205 250 308 376
#
# _framework density 18.577259999999999
#
# number of rings (size 3 to 8) (size 9 to 14) (size 15 to 20)
#    0.000    2.133    0.000    4.000    7.467    3.733 
#    4.800    0.000    0.000    0.000    0.000    0.000 
#    0.000    0.000    0.000    0.000    0.000    0.000 
#
# Total GULP energy -334634.029476 kJ/mol
# GULP energy per Si atom -5577.233825 kJ/mol
# Density = 1.853498 g / cm^3
# Si number density = 18.577260 Si / 1000 Ang^3
#
#
#
# Elastic Constant Matrix: (Units=GPa)
#
#
# Indices 1 2 3 4 5 6 
#
# 1 65.8645 56.0200 44.0982 0.0000 0.0000 0.0000
# 2 56.0200 65.8645 44.0982 0.0000 0.0000 0.0000
# 3 44.0982 44.0982 63.1028 0.0000 0.0000 0.0000
# 4 0.0000 0.0000 0.0000 26.2439 0.0000 0.0000
# 5 0.0000 0.0000 0.0000 0.0000 26.2439 0.0000
# 6 0.0000 0.0000 0.0000 0.0000 0.0000 28.4136
#
#
#
# Elastic Compliance Matrix: (Units=1/GPa)
#
#
# Indices 1 2 3 4 5 6 
#
# 1 0.059089 -0.042491 -0.011599 0.000000 0.000000 0.000000
# 2 -0.042491 0.059089 -0.011599 0.000000 0.000000 0.000000
# 3 -0.011599 -0.011599 0.032058 0.000000 0.000000 0.000000
# 4 0.000000 0.000000 0.000000 0.038104 0.000000 0.000000
# 5 0.000000 0.000000 0.000000 0.000000 0.038104 0.000000
# 6 0.000000 0.000000 0.000000 0.000000 0.000000 0.035194
#
#
# Mechanical properties :
#
#
# Convention : Reuss Voigt Hill
#
# Bulk Modulus (GPa) = 53.02782 53.69608 53.36195
# Shear Modulus (GPa) = 12.52180 19.55460 16.03820
#
# Velocity S-wave (km/s) = 2.59904 3.24791 2.94143
# Velocity P-wave (km/s) = 6.13296 6.55989 6.35001
#
# Compressibility (1/GPa) = 0.01885802
#
# Stress axis : x y z
#
# Youngs Moduli (GPa) = 16.92364 16.92364 31.19298
#
# Poissons Ratio (x) = 0.71911 0.36180
# Poissons Ratio (y) = 0.71911 0.36180
# Poissons Ratio (z) = 0.19630 0.19630
#
# Static dielectric constant tensor:
#      x y z
#    x 1.654280 0.000000 0.000000 
#    y 0.000000 1.654280 0.000000 
#    z 0.000000 0.000000 1.632760 
# 
# From -- ./inp_files/1604.got.cif
#   From: 2010.05.17/outbox.cif.g08.bks.cpg/sg96_1_cif.got.tgz:1604.got - 2010.06.03 19:52:08.
