data_PCOD9550381
_publ_section_title
;
Structure prediction by ZEFSAII (Michael W. Deem and Ramdas Pophale) SiO2 
 PCOD9550381
Probable space group: P 42 21 2
;
_chemical_formula_sum "Si O2"
_cell_formula_units_Z 36
_cell_length_a 8.568080
_cell_length_b 8.568080
_cell_length_c 21.577705
_cell_angle_alpha 90.000000
_cell_angle_beta 90.000000
_cell_angle_gamma 90.000000
_cell_volume 1584.062369
_symmetry_space_group_name_H-M "P 42 21 2"
_symmetry_group_IT_number 94
_symmetry_cell_setting 'tetragonal'
loop_
_space_group_symop_operation_xyz
x,y,z
1/2-y,1/2+x,1/2+z
-x,-y,z
1/2+y,1/2-x,1/2+z
1/2+x,1/2-y,1/2-z
1/2-x,1/2+y,1/2-z
y,x,-z
-y,-x,-z
loop_
_atom_site_type_symbol
_atom_site_label
_atom_site_fract_x
_atom_site_fract_y
_atom_site_fract_z
Si Si1 0.360677 0.108028 0.731523
Si Si2 0.556451 0.320512 0.107598
Si Si3 0.727582 0.727582 0.500000
Si Si4 0.904421 0.848720 0.824558
Si Si5 0.380602 0.788284 0.548599
O O1 0.230820 0.062838 0.679810
O O2 0.256073 0.170994 0.787492
O O3 0.471419 0.217354 0.691253
O O4 0.500000 0.000000 0.758667
O O5 0.500000 0.500000 0.103790
O O6 0.446119 0.181777 0.080195
O O7 0.708607 0.310598 0.062892
O O8 0.546388 0.767710 0.514320
O O9 0.876611 0.840367 0.897256
O O10 0.000000 0.000000 0.805743
O O11 0.247855 0.752146 0.500000
#
# Coordination Sequence:
#
# PCOD9550381 Si02
#       5
#     8   8   4   8   8
#     4  12  25  50  76 108 150 202 251 321 388 461
#     4  12  26  47  75 109 154 203 256 315 394 470
#     4  12  22  46  76 104 154 196 256 320 382 462
#     4  12  26  46  75 110 148 197 255 316 387 457
#     4  12  26  48  74 111 149 199 253 320 386 467
#
# _framework density 22.726379000000001
#
# number of rings (size 3 to 8) (size 9 to 14) (size 15 to 20)
#    0.000    0.000    4.444    6.000    3.111    0.000 
#    0.000    0.000    0.000    0.000    0.000    0.000 
#    0.000    0.000    0.000    0.000    0.000    0.000 
#
# Total GULP energy -200750.427595 kJ/mol
# GULP energy per Si atom -5576.400767 kJ/mol
# Density = 2.267465 g / cm^3
# Si number density = 22.726379 Si / 1000 Ang^3
#
#
#
# Elastic Constant Matrix: (Units=GPa)
#
#
# Indices 1 2 3 4 5 6 
#
# 1 78.3311 23.3973 36.9060 0.0000 0.0000 0.0000
# 2 23.3973 78.3295 36.9062 0.0000 0.0000 0.0000
# 3 36.9060 36.9062 108.2129 0.0000 0.0000 0.0000
# 4 0.0000 0.0000 0.0000 93.3324 0.0000 0.0000
# 5 0.0000 0.0000 0.0000 0.0000 93.3324 0.0000
# 6 0.0000 0.0000 0.0000 0.0000 0.0000 35.3921
#
#
#
# Elastic Compliance Matrix: (Units=1/GPa)
#
#
# Indices 1 2 3 4 5 6 
#
# 1 0.015633 -0.002571 -0.004455 0.000000 0.000000 0.000000
# 2 -0.002571 0.015634 -0.004455 0.000000 0.000000 0.000000
# 3 -0.004455 -0.004455 0.012280 0.000000 0.000000 0.000000
# 4 0.000000 0.000000 0.000000 0.010714 0.000000 0.000000
# 5 0.000000 0.000000 0.000000 0.000000 0.010714 0.000000
# 6 0.000000 0.000000 0.000000 0.000000 0.000000 0.028255
#
#
# Mechanical properties :
#
#
# Convention : Reuss Voigt Hill
#
# Bulk Modulus (GPa) = 48.57897 51.03252 49.80574
# Shear Modulus (GPa) = 40.63278 55.58898 48.11088
#
# Velocity S-wave (km/s) = 4.23296 4.95108 4.60604
# Velocity P-wave (km/s) = 6.73146 7.42888 7.08875
#
# Compressibility (1/GPa) = 0.02058504
#
# Stress axis : x y z
#
# Youngs Moduli (GPa) = 63.96667 63.96500 81.43433
#
# Poissons Ratio (x) = 0.16443 0.36279
# Poissons Ratio (y) = 0.16444 0.36280
# Poissons Ratio (z) = 0.28497 0.28497
#
# Static dielectric constant tensor:
#      x y z
#    x 1.797450 0.000000 0.000000 
#    y 0.000000 1.797450 0.000000 
#    z 0.000000 0.000000 1.787010 
# 
# From -- ./inp_files/4528.got.cif
#   From: 2010.05.17/outbox.cif.g08.bks.cpg/sg94_3_cif.got.tgz:4528.got - 2010.06.03 19:43:16.
