data_PCOD9550096
_publ_section_title
;
Structure prediction by ZEFSAII (Michael W. Deem and Ramdas Pophale) SiO2 
 PCOD9550096
Probable space group: P 42 21 2
;
_chemical_formula_sum "Si O2"
_cell_formula_units_Z 60
_cell_length_a 11.862273
_cell_length_b 11.862273
_cell_length_c 20.545922
_cell_angle_alpha 90.000000
_cell_angle_beta 90.000000
_cell_angle_gamma 90.000000
_cell_volume 2891.089021
_symmetry_space_group_name_H-M "P 42 21 2"
_symmetry_group_IT_number 94
_symmetry_cell_setting 'tetragonal'
loop_
_space_group_symop_operation_xyz
x,y,z
1/2-y,1/2+x,1/2+z
-x,-y,z
1/2+y,1/2-x,1/2+z
1/2+x,1/2-y,1/2-z
1/2-x,1/2+y,1/2-z
y,x,-z
-y,-x,-z
loop_
_atom_site_type_symbol
_atom_site_label
_atom_site_fract_x
_atom_site_fract_y
_atom_site_fract_z
Si Si1 0.315219 0.740420 0.425116
Si Si2 0.753677 0.246324 0.000000
Si Si3 0.862957 0.067092 0.776974
Si Si4 0.954605 0.378049 0.071953
Si Si5 0.678277 0.866681 0.296787
Si Si6 0.380284 0.656659 0.114118
Si Si7 0.625938 0.602530 0.132725
Si Si8 0.820583 0.943653 0.181297
O O1 0.283638 0.716363 0.500000
O O2 0.437258 0.798220 0.416714
O O3 0.229982 0.828121 0.392205
O O4 0.301829 0.625990 0.383929
O O5 0.705926 0.128893 0.968906
O O6 0.730210 0.334577 0.943277
O O7 0.733655 0.097534 0.774839
O O8 0.915612 0.115131 0.710059
O O9 0.927861 0.141299 0.830994
O O10 0.889200 0.936729 0.789029
O O11 0.886163 0.412623 0.138672
O O12 0.000000 0.500000 0.044832
O O13 0.797661 0.821962 0.325303
O O14 0.717379 0.933900 0.232431
O O15 0.512519 0.672478 0.120815
O O16 0.371243 0.521483 0.101572
#
# Coordination Sequence:
#
# PCOD9550096 Si02
#       8
#     8   4   8   8   8   8   8   8
#     4  12  27  42  64  96 144 189 232 279 345 434
#     4  10  24  43  69  92 138 186 234 284 370 441
#     4  11  21  39  68  96 130 169 227 292 352 413
#     4  11  26  46  69 102 141 190 244 299 362 443
#     4  11  20  39  68  95 131 171 224 295 368 406
#     4  10  21  37  62  97 125 168 224 291 358 421
#     4  11  21  37  66  98 133 165 225 300 357 409
#     4  11  22  42  64  99 129 177 228 287 342 427
#
# _framework density 20.753423999999999
#
# number of rings (size 3 to 8) (size 9 to 14) (size 15 to 20)
#    0.000    1.067    5.333    2.400    3.733    2.667 
#    0.000    0.000    0.000    0.000    0.000    0.000 
#    0.000    0.000    0.000    0.000    0.000    0.000 
#
# Total GULP energy -334241.603011 kJ/mol
# GULP energy per Si atom -5570.693384 kJ/mol
# Density = 2.070619 g / cm^3
# Si number density = 20.753424 Si / 1000 Ang^3
#
#
#
# Elastic Constant Matrix: (Units=GPa)
#
#
# Indices 1 2 3 4 5 6 
#
# 1 70.2851 8.4631 2.5393 0.0000 0.0000 0.0000
# 2 8.4631 70.2846 2.5389 0.0000 0.0000 0.0000
# 3 2.5393 2.5389 46.9135 0.0000 0.0000 0.0000
# 4 0.0000 0.0000 0.0000 40.5928 0.0000 0.0000
# 5 0.0000 0.0000 0.0000 0.0000 40.5930 0.0000
# 6 0.0000 0.0000 0.0000 0.0000 0.0000 31.3038
#
#
#
# Elastic Compliance Matrix: (Units=1/GPa)
#
#
# Indices 1 2 3 4 5 6 
#
# 1 0.014459 -0.001716 -0.000690 0.000000 0.000000 0.000000
# 2 -0.001716 0.014459 -0.000690 0.000000 0.000000 0.000000
# 3 -0.000690 -0.000690 0.021390 0.000000 0.000000 0.000000
# 4 0.000000 0.000000 0.000000 0.024635 0.000000 0.000000
# 5 0.000000 0.000000 0.000000 0.000000 0.024635 0.000000
# 6 0.000000 0.000000 0.000000 0.000000 0.000000 0.031945
#
#
# Mechanical properties :
#
#
# Convention : Reuss Voigt Hill
#
# Bulk Modulus (GPa) = 22.66645 23.84067 23.25356
# Shear Modulus (GPa) = 32.80385 34.09404 33.44895
#
# Velocity S-wave (km/s) = 3.98005 4.05756 4.01899
# Velocity P-wave (km/s) = 5.66273 5.78483 5.72411
#
# Compressibility (1/GPa) = 0.04411806
#
# Stress axis : x y z
#
# Youngs Moduli (GPa) = 69.15950 69.15905 46.74978
#
# Poissons Ratio (x) = 0.11869 0.03225
# Poissons Ratio (y) = 0.11869 0.03224
# Poissons Ratio (z) = 0.04770 0.04769
#
# Static dielectric constant tensor:
#      x y z
#    x 1.755560 0.000000 0.000000 
#    y 0.000000 1.755560 0.000000 
#    z 0.000000 0.000000 1.814090 
# 
# From -- ./inp_files/4822.got.cif
#   From: 2010.05.17/outbox.cif.g08.bks.cpg/sg94_3_cif.got.tgz:4822.got - 2010.06.03 19:43:16.
