data_PCOD9550867
_publ_section_title
;
Structure prediction by ZEFSAII (Michael W. Deem and Ramdas Pophale) SiO2 
 PCOD9550867
Probable space group: P 43 21 2
;
_chemical_formula_sum "Si O2"
_cell_formula_units_Z 60
_cell_length_a 11.126782
_cell_length_b 11.126782
_cell_length_c 21.154470
_cell_angle_alpha 90.000000
_cell_angle_beta 90.000000
_cell_angle_gamma 90.000000
_cell_volume 2619.035032
_symmetry_space_group_name_H-M "P 43 21 2"
_symmetry_group_IT_number 96
_symmetry_cell_setting 'tetragonal'
loop_
_space_group_symop_operation_xyz
x,y,z
1/2-y,1/2+x,3/4+z
-x,-y,1/2+z
1/2+y,1/2-x,1/4+z
1/2+x,1/2-y,1/4-z
1/2-x,1/2+y,3/4-z
y,x,-z
-y,-x,1/2-z
loop_
_atom_site_type_symbol
_atom_site_label
_atom_site_fract_x
_atom_site_fract_y
_atom_site_fract_z
Si Si1 0.142673 0.779922 0.572005
Si Si2 0.949432 0.638683 0.123610
Si Si3 0.826219 0.198073 0.613196
Si Si4 0.617122 0.617122 0.000000
Si Si5 0.036721 0.547937 0.511105
Si Si6 0.130640 0.151616 0.204322
Si Si7 0.276150 0.892416 0.782274
Si Si8 0.556045 0.433939 0.320336
O O1 0.073601 0.682967 0.529679
O O2 0.275521 0.761633 0.543252
O O3 0.131389 0.726179 0.642754
O O4 0.077442 0.909786 0.573558
O O5 0.820735 0.706138 0.140623
O O6 0.985695 0.586607 0.192082
O O7 0.924913 0.538333 0.069192
O O8 0.068805 0.705991 0.097190
O O9 0.842894 0.183212 0.687885
O O10 0.880042 0.076590 0.581074
O O11 0.651596 0.476863 0.012639
O O12 0.896479 0.561114 0.498924
O O13 0.118966 0.127458 0.129364
O O14 0.002291 0.187250 0.229549
O O15 0.223831 0.776170 0.750000
O O16 0.595863 0.404138 0.250000
#
# Coordination Sequence:
#
# PCOD9550867 Si02
#       8
#     8   8   8   4   8   8   8   8
#     4  11  24  41  70 102 137 192 243 306 372 457
#     4  12  27  51  77 111 150 206 255 323 390 473
#     4  11  25  48  75 106 146 194 257 312 386 462
#     4  10  20  42  76  98 138 202 242 300 380 466
#     4  12  26  46  74 107 150 196 246 306 393 459
#     4  10  22  43  66  99 143 185 246 298 376 453
#     4  11  26  42  67 107 145 186 241 313 376 454
#     4  10  23  41  67 102 139 188 241 307 379 449
#
# _framework density 22.909199999999998
#
# number of rings (size 3 to 8) (size 9 to 14) (size 15 to 20)
#    0.000    1.067    2.000    4.000    5.600    3.200 
#    6.000    0.000    0.000    0.000    0.000    0.000 
#    0.000    0.000    0.000    0.000    0.000    0.000 
#
# Total GULP energy -334441.899361 kJ/mol
# GULP energy per Si atom -5574.031656 kJ/mol
# Density = 2.285706 g / cm^3
# Si number density = 22.909200 Si / 1000 Ang^3
#
#
#
# Elastic Constant Matrix: (Units=GPa)
#
#
# Indices 1 2 3 4 5 6 
#
# 1 92.0080 42.0898 13.8883 0.0000 0.0000 0.0000
# 2 42.0898 92.0100 13.8919 0.0000 0.0000 0.0000
# 3 13.8883 13.8919 107.9313 0.0000 0.0000 0.0000
# 4 0.0000 0.0000 0.0000 196.5402 0.0000 0.0000
# 5 0.0000 0.0000 0.0000 0.0000 196.6606 0.0000
# 6 0.0000 0.0000 0.0000 0.0000 0.0000 20.1075
#
#
#
# Elastic Compliance Matrix: (Units=1/GPa)
#
#
# Indices 1 2 3 4 5 6 
#
# 1 0.013847 -0.006185 -0.000986 0.000000 0.000000 0.000000
# 2 -0.006185 0.013847 -0.000986 0.000000 0.000000 0.000000
# 3 -0.000986 -0.000986 0.009519 0.000000 0.000000 0.000000
# 4 0.000000 0.000000 0.000000 0.005088 0.000000 0.000000
# 5 0.000000 0.000000 0.000000 0.000000 0.005085 0.000000
# 6 0.000000 0.000000 0.000000 0.000000 0.000000 0.049733
#
#
# Mechanical properties :
#
#
# Convention : Reuss Voigt Hill
#
# Bulk Modulus (GPa) = 47.85172 47.96550 47.90861
# Shear Modulus (GPa) = 41.52853 97.46694 69.49773
#
# Velocity S-wave (km/s) = 4.26225 6.52972 5.51380
# Velocity P-wave (km/s) = 6.71977 8.82226 7.84180
#
# Compressibility (1/GPa) = 0.02089789
#
# Stress axis : x y z
#
# Youngs Moduli (GPa) = 72.21788 72.21873 105.05378
#
# Poissons Ratio (x) = 0.44671 0.10355
# Poissons Ratio (y) = 0.44670 0.10362
# Poissons Ratio (z) = 0.07118 0.07123
#
# Static dielectric constant tensor:
#      x y z
#    x 0.042620 0.000000 0.000000 
#    y 0.000000 0.040940 0.000000 
#    z 0.000000 0.000000 1.966650 
# 
# From -- ./inp_files/3620.got.cif
#   From: 2010.05.17/outbox.cif.g08.bks.cpg/sg96_2_cif.got.tgz:3620.got - 2010.06.03 19:52:08.
