data_PCOD9550527
_publ_section_title
;
Structure prediction by ZEFSAII (Michael W. Deem and Ramdas Pophale) SiO2 
 PCOD9550527
Probable space group: P 43 2 2
;
_chemical_formula_sum "Si O2"
_cell_formula_units_Z 36
_cell_length_a 9.516601
_cell_length_b 9.516601
_cell_length_c 19.879112
_cell_angle_alpha 90.000000
_cell_angle_beta 90.000000
_cell_angle_gamma 90.000000
_cell_volume 1800.365586
_symmetry_space_group_name_H-M "P 43 2 2"
_symmetry_group_IT_number 95
_symmetry_cell_setting 'tetragonal'
loop_
_space_group_symop_operation_xyz
x,y,z
-y,x,3/4+z
-x,-y,1/2+z
y,-x,1/4+z
x,-y,1/2-z
-x,y,-z
y,x,1/4-z
-y,-x,3/4-z
loop_
_atom_site_type_symbol
_atom_site_label
_atom_site_fract_x
_atom_site_fract_y
_atom_site_fract_z
Si Si1 0.339921 0.534014 0.025039
Si Si2 0.167835 0.901350 0.497711
Si Si3 0.374579 0.123537 0.306830
Si Si4 0.640049 0.137077 0.541836
Si Si5 0.715252 0.284749 0.875000
O O1 0.329841 0.696754 0.044382
O O2 0.289400 0.434364 0.086350
O O3 0.500000 0.504864 0.000000
O O4 0.236785 0.490211 0.964322
O O5 0.191551 0.781900 0.553750
O O6 0.237596 0.822649 0.433497
O O7 0.000000 0.921386 0.500000
O O8 0.240092 0.051245 0.496741
O O9 0.388387 0.078148 0.383331
O O10 0.377775 0.000000 0.250000
O O11 0.500000 0.117485 0.500000
#
# Coordination Sequence:
#
# PCOD9550527 Si02
#       5
#     8   8   8   8   4
#     4  10  21  37  61  91 123 159 208 265 321 381
#     4  10  21  39  61  87 121 160 208 260 315 381
#     4  10  22  40  61  88 124 169 219 266 321 392
#     4  11  24  40  61  94 132 169 217 273 329 393
#     4  10  20  40  66  86 116 164 208 256 310 378
#
# _framework density 19.995937999999999
#
# number of rings (size 3 to 8) (size 9 to 14) (size 15 to 20)
#    0.000    1.778    0.000    5.333    0.000   10.667 
#    0.000    4.444    0.000    0.000    0.000    0.000 
#    0.000    0.000    0.000    0.000    0.000    0.000 
#
# Total GULP energy -200535.069518 kJ/mol
# GULP energy per Si atom -5570.418598 kJ/mol
# Density = 1.995043 g / cm^3
# Si number density = 19.995938 Si / 1000 Ang^3
#
#
#
# Elastic Constant Matrix: (Units=GPa)
#
#
# Indices 1 2 3 4 5 6 
#
# 1 110.6026 79.0309 41.0599 0.0000 0.0000 0.0000
# 2 79.0309 110.6029 41.0601 0.0000 0.0000 0.0000
# 3 41.0599 41.0601 100.8873 0.0000 0.0000 0.0000
# 4 0.0000 0.0000 0.0000 10.5712 0.0000 0.0000
# 5 0.0000 0.0000 0.0000 0.0000 10.5687 0.0000
# 6 0.0000 0.0000 0.0000 0.0000 0.0000 44.2510
#
#
#
# Elastic Compliance Matrix: (Units=1/GPa)
#
#
# Indices 1 2 3 4 5 6 
#
# 1 0.019038 -0.012636 -0.002605 0.000000 0.000000 0.000000
# 2 -0.012636 0.019038 -0.002605 0.000000 0.000000 0.000000
# 3 -0.002605 -0.002605 0.012033 0.000000 0.000000 0.000000
# 4 0.000000 0.000000 0.000000 0.094597 0.000000 0.000000
# 5 0.000000 0.000000 0.000000 0.000000 0.094619 0.000000
# 6 0.000000 0.000000 0.000000 0.000000 0.000000 0.022598
#
#
# Mechanical properties :
#
#
# Convention : Reuss Voigt Hill
#
# Bulk Modulus (GPa) = 69.37493 71.59940 70.48716
# Shear Modulus (GPa) = 16.53328 23.80764 20.17046
#
# Velocity S-wave (km/s) = 2.87859 3.45428 3.17949
# Velocity P-wave (km/s) = 6.76891 7.19682 6.98614
#
# Compressibility (1/GPa) = 0.01441443
#
# Stress axis : x y z
#
# Youngs Moduli (GPa) = 52.52741 52.52748 83.10642
#
# Poissons Ratio (x) = 0.66374 0.21652
# Poissons Ratio (y) = 0.66374 0.21653
# Poissons Ratio (z) = 0.13685 0.13685
#
# Static dielectric constant tensor:
#      x y z
#    x 1.678640 0.000000 0.000000 
#    y 0.000000 1.678640 0.000000 
#    z 0.000000 0.000000 1.729160 
# 
# From -- ./inp_files/6218.got.cif
#   From: 2010.05.17/outbox.cif.g08.bks.cpg/sg95_4_cif.got.tgz:6218.got - 2010.06.03 19:46:49.
