data_PCOD9550223
_publ_section_title
;
Structure prediction by ZEFSAII (Michael W. Deem and Ramdas Pophale) SiO2 
 PCOD9550223
Probable space group: P 42 21 2
;
_chemical_formula_sum "Si O2"
_cell_formula_units_Z 28
_cell_length_a 8.681058
_cell_length_b 8.681058
_cell_length_c 18.046323
_cell_angle_alpha 90.000000
_cell_angle_beta 90.000000
_cell_angle_gamma 90.000000
_cell_volume 1359.984761
_symmetry_space_group_name_H-M "P 42 21 2"
_symmetry_group_IT_number 94
_symmetry_cell_setting 'tetragonal'
loop_
_space_group_symop_operation_xyz
x,y,z
1/2-y,1/2+x,1/2+z
-x,-y,z
1/2+y,1/2-x,1/2+z
1/2+x,1/2-y,1/2-z
1/2-x,1/2+y,1/2-z
y,x,-z
-y,-x,-z
loop_
_atom_site_type_symbol
_atom_site_label
_atom_site_fract_x
_atom_site_fract_y
_atom_site_fract_z
Si Si1 0.495085 0.825260 0.096476
Si Si2 0.182393 0.688161 0.650480
Si Si3 0.500000 0.000000 0.954124
Si Si4 0.895097 0.848601 0.708022
O O1 0.658912 0.740628 0.107706
O O2 0.372903 0.725020 0.141278
O O3 0.500000 0.000000 0.128522
O O4 0.464043 0.858530 0.010073
O O5 0.303548 0.664590 0.715812
O O6 0.146679 0.550869 0.593983
O O7 0.016252 0.716912 0.688587
O O8 0.000000 0.000000 0.712563
#
# Coordination Sequence:
#
# PCOD9550223 Si02
#       4
#     8   8   4   8
#     4   9  21  42  60  92 129 167 212 273 330 402
#     4  11  22  40  64  97 126 174 222 269 341 387
#     4  10  24  36  66  86 140 164 212 272 336 402
#     4  10  23  38  66  92 127 169 220 277 321 402
#
# _framework density 20.588463999999998
#
# number of rings (size 3 to 8) (size 9 to 14) (size 15 to 20)
#    0.857    1.143    0.000    2.571   10.000    1.143 
#    0.000    4.286    0.000    1.714    0.000    0.000 
#    0.000    0.000    0.000    0.000    0.000    0.000 
#
# Total GULP energy -156154.104164 kJ/mol
# GULP energy per Si atom -5576.932292 kJ/mol
# Density = 2.054160 g / cm^3
# Si number density = 20.588464 Si / 1000 Ang^3
#
#
#
# Elastic Constant Matrix: (Units=GPa)
#
#
# Indices 1 2 3 4 5 6 
#
# 1 81.6561 22.9342 52.0950 0.0000 0.0000 0.0000
# 2 22.9342 81.6561 52.0950 0.0000 0.0000 0.0000
# 3 52.0950 52.0950 131.8780 0.0000 0.0000 0.0000
# 4 0.0000 0.0000 0.0000 10.8739 0.0000 0.0000
# 5 0.0000 0.0000 0.0000 0.0000 10.8739 0.0000
# 6 0.0000 0.0000 0.0000 0.0000 0.0000 17.4349
#
#
#
# Elastic Compliance Matrix: (Units=1/GPa)
#
#
# Indices 1 2 3 4 5 6 
#
# 1 0.016397 -0.000632 -0.006227 0.000000 0.000000 0.000000
# 2 -0.000632 0.016397 -0.006227 0.000000 0.000000 0.000000
# 3 -0.006227 -0.006227 0.012503 0.000000 0.000000 0.000000
# 4 0.000000 0.000000 0.000000 0.091963 0.000000 0.000000
# 5 0.000000 0.000000 0.000000 0.000000 0.091963 0.000000
# 6 0.000000 0.000000 0.000000 0.000000 0.000000 0.057356
#
#
# Mechanical properties :
#
#
# Convention : Reuss Voigt Hill
#
# Bulk Modulus (GPa) = 52.29462 61.04872 56.67167
# Shear Modulus (GPa) = 15.66771 19.04096 17.35434
#
# Velocity S-wave (km/s) = 2.76161 3.04441 2.90645
# Velocity P-wave (km/s) = 5.96856 6.48646 6.23289
#
# Compressibility (1/GPa) = 0.01912242
#
# Stress axis : x y z
#
# Youngs Moduli (GPa) = 60.98648 60.98648 79.98239
#
# Poissons Ratio (x) = 0.03856 0.49809
# Poissons Ratio (y) = 0.03856 0.49809
# Poissons Ratio (z) = 0.37979 0.37979
#
# Static dielectric constant tensor:
#      x y z
#    x 1.754330 0.000000 0.000000 
#    y 0.000000 1.754330 0.000000 
#    z 0.000000 0.000000 1.762000 
# 
# From -- ./inp_files/3797.got.cif
#   From: 2010.05.17/outbox.cif.g08.bks.cpg/sg94_2_cif.got.tgz:3797.got - 2010.06.03 19:43:16.
