data_PCOD9550556
_publ_section_title
;
Structure prediction by ZEFSAII (Michael W. Deem and Ramdas Pophale) SiO2 
 PCOD9550556
Probable space group: P 43 2 2
;
_chemical_formula_sum "Si O2"
_cell_formula_units_Z 36
_cell_length_a 8.685669
_cell_length_b 8.685669
_cell_length_c 19.584771
_cell_angle_alpha 90.000000
_cell_angle_beta 90.000000
_cell_angle_gamma 90.000000
_cell_volume 1477.491693
_symmetry_space_group_name_H-M "P 43 2 2"
_symmetry_group_IT_number 95
_symmetry_cell_setting 'tetragonal'
loop_
_space_group_symop_operation_xyz
x,y,z
-y,x,3/4+z
-x,-y,1/2+z
y,-x,1/4+z
x,-y,1/2-z
-x,y,-z
y,x,1/4-z
-y,-x,3/4-z
loop_
_atom_site_type_symbol
_atom_site_label
_atom_site_fract_x
_atom_site_fract_y
_atom_site_fract_z
Si Si1 0.316836 0.119127 0.032998
Si Si2 0.818261 0.785004 0.996533
Si Si3 0.723049 0.304442 0.643975
Si Si4 0.961099 0.660572 0.571699
Si Si5 0.639949 0.639949 0.125000
O O1 0.162295 0.210887 0.052234
O O2 0.404314 0.101487 0.106282
O O3 0.274543 0.945992 0.010685
O O4 0.369113 0.212149 0.965359
O O5 0.800563 0.677274 0.929750
O O6 0.735325 0.704538 0.060499
O O7 0.000000 0.819387 0.000000
O O8 0.543743 0.337952 0.629686
O O9 0.736672 0.121179 0.656736
O O10 0.000000 0.573701 0.500000
#
# Coordination Sequence:
#
# PCOD9550556 Si02
#       5
#     8   8   8   8   4
#     4   9  17  34  64 101 134 168 223 292 354 412
#     4  11  22  39  68 100 127 169 233 298 355 415
#     4  10  21  38  60  90 134 180 223 275 348 436
#     4   8  15  30  61  99 134 165 210 281 346 406
#     4  12  26  40  60  90 138 194 230 282 368 446
#
# _framework density 24.36562
#
# number of rings (size 3 to 8) (size 9 to 14) (size 15 to 20)
#    0.000    2.222    0.000    4.000    0.000    6.222 
#    0.000    0.000    0.000   42.667    0.000    7.778 
#    0.000    0.000    0.000    0.000    0.000    0.000 
#
# Total GULP energy -200741.848652 kJ/mol
# GULP energy per Si atom -5576.162463 kJ/mol
# Density = 2.431016 g / cm^3
# Si number density = 24.365620 Si / 1000 Ang^3
#
#
#
# Elastic Constant Matrix: (Units=GPa)
#
#
# Indices 1 2 3 4 5 6 
#
# 1 82.9664 10.2618 82.0955 0.0000 0.0000 0.0000
# 2 10.2618 82.9664 82.0955 0.0000 0.0000 0.0000
# 3 82.0955 82.0955 252.3591 0.0000 0.0000 0.0000
# 4 0.0000 0.0000 0.0000 13.9378 0.0000 0.0000
# 5 0.0000 0.0000 0.0000 0.0000 13.9378 0.0000
# 6 0.0000 0.0000 0.0000 0.0000 0.0000 -60.5993
#
#
#
# Elastic Compliance Matrix: (Units=1/GPa)
#
#
# Indices 1 2 3 4 5 6 
#
# 1 0.019435 0.005681 -0.008171 0.000000 0.000000 0.000000
# 2 0.005681 0.019435 -0.008171 0.000000 0.000000 0.000000
# 3 -0.008171 -0.008171 0.009279 0.000000 0.000000 0.000000
# 4 0.000000 0.000000 0.000000 0.071747 0.000000 0.000000
# 5 0.000000 0.000000 0.000000 0.000000 0.071747 0.000000
# 6 0.000000 0.000000 0.000000 0.000000 0.000000 -0.016502
#
#
# Mechanical properties :
#
#
# Convention : Reuss Voigt Hill
#
# Bulk Modulus (GPa) = 37.27365 85.24417 61.25891
# Shear Modulus (GPa) = 24.34217 9.71123 17.02670
#
# Velocity S-wave (km/s) = 3.16418 1.99857 2.64635
# Velocity P-wave (km/s) = 5.35540 6.35508 5.87654
#
# Compressibility (1/GPa) = 0.02682861
#
# Stress axis : x y z
#
# Youngs Moduli (GPa) = 51.45287 51.45287 107.77475
#
# Poissons Ratio (x) = -0.29230 0.88059
# Poissons Ratio (y) = -0.29230 0.88059
# Poissons Ratio (z) = 0.42040 0.42040
#
# Static dielectric constant tensor:
#      x y z
#    x 1.980530 0.000000 0.000000 
#    y 0.000000 1.980530 0.000000 
#    z 0.000000 0.000000 1.994490 
# 
# From -- ./inp_files/6217.got.cif
#   From: 2010.05.17/outbox.cif.g08.bks.cpg/sg95_4_cif.got.tgz:6217.got - 2010.06.03 19:46:49.
