data_PCOD9550950
_publ_section_title
;
Structure prediction by ZEFSAII (Michael W. Deem and Ramdas Pophale) SiO2 
 PCOD9550950
Probable space group: P 43 21 2
;
_chemical_formula_sum "Si O2"
_cell_formula_units_Z 48
_cell_length_a 8.526323
_cell_length_b 8.526323
_cell_length_c 29.379867
_cell_angle_alpha 90.000000
_cell_angle_beta 90.000000
_cell_angle_gamma 90.000000
_cell_volume 2135.862974
_symmetry_space_group_name_H-M "P 43 21 2"
_symmetry_group_IT_number 96
_symmetry_cell_setting 'tetragonal'
loop_
_space_group_symop_operation_xyz
x,y,z
1/2-y,1/2+x,3/4+z
-x,-y,1/2+z
1/2+y,1/2-x,1/4+z
1/2+x,1/2-y,1/4-z
1/2-x,1/2+y,3/4-z
y,x,-z
-y,-x,1/2-z
loop_
_atom_site_type_symbol
_atom_site_label
_atom_site_fract_x
_atom_site_fract_y
_atom_site_fract_z
Si Si1 0.155437 0.243209 0.701745
Si Si2 0.471639 0.172662 0.683481
Si Si3 0.728784 0.715454 0.343138
Si Si4 0.491779 0.264557 0.460695
Si Si5 0.006686 0.046841 0.627858
Si Si6 0.048475 0.459293 0.903145
O O1 0.324032 0.173853 0.717285
O O2 0.025051 0.187870 0.737818
O O3 0.135547 0.151154 0.654080
O O4 0.104596 0.422164 0.689611
O O5 0.438430 0.338664 0.659715
O O6 0.639954 0.148791 0.706938
O O7 0.484733 0.049832 0.641620
O O8 0.842657 0.675484 0.301130
O O9 0.594086 0.589497 0.352361
O O10 0.838082 0.683365 0.387830
O O11 0.652359 0.886769 0.336025
O O12 0.488984 0.384820 0.418379
#
# Coordination Sequence:
#
# PCOD9550950 Si02
#       6
#     8   8   8   8   8   8
#     4  11  24  41  64  97 135 166 217 285 340 387
#     4  10  22  41  65  90 123 174 219 262 319 402
#     4  11  21  39  67  93 126 173 228 264 324 409
#     4  11  25  40  64  99 131 170 216 284 344 381
#     4  11  21  42  66  91 124 178 226 262 322 414
#     4  10  22  39  66  94 127 176 218 271 322 403
#
# _framework density 22.47335
#
# number of rings (size 3 to 8) (size 9 to 14) (size 15 to 20)
#    0.000    1.333    3.333    3.500    4.667    0.000 
#    0.000    0.833    0.000    0.000    0.000    0.000 
#    0.000    0.000    0.000    0.000    0.000    0.000 
#
# Total GULP energy -267259.801026 kJ/mol
# GULP energy per Si atom -5567.912521 kJ/mol
# Density = 2.242220 g / cm^3
# Si number density = 22.473350 Si / 1000 Ang^3
#
#
#
# Elastic Constant Matrix: (Units=GPa)
#
#
# Indices 1 2 3 4 5 6 
#
# 1 85.9015 16.7597 -0.4072 0.0000 0.0000 0.0000
# 2 16.7597 85.9015 -0.4072 0.0000 0.0000 0.0000
# 3 -0.4072 -0.4072 30.5126 0.0000 0.0000 0.0000
# 4 0.0000 0.0000 0.0000 25.7425 0.0000 0.0000
# 5 0.0000 0.0000 0.0000 0.0000 25.7425 0.0000
# 6 0.0000 0.0000 0.0000 0.0000 0.0000 45.3586
#
#
#
# Elastic Compliance Matrix: (Units=1/GPa)
#
#
# Indices 1 2 3 4 5 6 
#
# 1 0.012102 -0.002361 0.000130 0.000000 0.000000 0.000000
# 2 -0.002361 0.012102 0.000130 0.000000 0.000000 0.000000
# 3 0.000130 0.000130 0.032777 0.000000 0.000000 0.000000
# 4 0.000000 0.000000 0.000000 0.038846 0.000000 0.000000
# 5 0.000000 0.000000 0.000000 0.000000 0.038846 0.000000
# 6 0.000000 0.000000 0.000000 0.000000 0.000000 0.022047
#
#
# Mechanical properties :
#
#
# Convention : Reuss Voigt Hill
#
# Bulk Modulus (GPa) = 18.94637 26.02288 22.48463
# Shear Modulus (GPa) = 28.00880 31.79342 29.90111
#
# Velocity S-wave (km/s) = 3.53414 3.76535 3.65158
# Velocity P-wave (km/s) = 5.01024 5.52344 5.27309
#
# Compressibility (1/GPa) = 0.05278055
#
# Stress axis : x y z
#
# Youngs Moduli (GPa) = 82.62809 82.62809 30.50934
#
# Poissons Ratio (x) = 0.19505 -0.00397
# Poissons Ratio (y) = 0.19505 -0.00397
# Poissons Ratio (z) = -0.01074 -0.01074
#
# Static dielectric constant tensor:
#      x y z
#    x 1.990990 0.000000 0.000000 
#    y 0.000000 1.990990 0.000000 
#    z 0.000000 0.000000 1.851110 
# 
# From -- ./inp_files/4450.got.cif
#   From: 2010.05.17/outbox.cif.g08.bks.cpg/sg96_3_cif.got.tgz:4450.got - 2010.06.03 19:52:08.
