data_PCOD9550739
_publ_section_title
;
Structure prediction by ZEFSAII (Michael W. Deem and Ramdas Pophale) SiO2 
 PCOD9550739
Probable space group: P 43 21 2
;
_chemical_formula_sum "Si O2"
_cell_formula_units_Z 44
_cell_length_a 8.114110
_cell_length_b 8.114110
_cell_length_c 29.240200
_cell_angle_alpha 90.000000
_cell_angle_beta 90.000000
_cell_angle_gamma 90.000000
_cell_volume 1925.139127
_symmetry_space_group_name_H-M "P 43 21 2"
_symmetry_group_IT_number 96
_symmetry_cell_setting 'tetragonal'
loop_
_space_group_symop_operation_xyz
x,y,z
1/2-y,1/2+x,3/4+z
-x,-y,1/2+z
1/2+y,1/2-x,1/4+z
1/2+x,1/2-y,1/4-z
1/2-x,1/2+y,3/4-z
y,x,-z
-y,-x,1/2-z
loop_
_atom_site_type_symbol
_atom_site_label
_atom_site_fract_x
_atom_site_fract_y
_atom_site_fract_z
Si Si1 0.211590 0.418107 0.423118
Si Si2 0.707472 0.598912 0.676137
Si Si3 0.213151 0.170631 0.905476
Si Si4 0.549618 0.857585 0.900829
Si Si5 0.717545 0.282456 0.250000
Si Si6 0.366273 0.142293 0.242371
O O1 0.376260 0.318788 0.414830
O O2 0.167603 0.519132 0.376849
O O3 0.209078 0.539879 0.466331
O O4 0.083886 0.269199 0.434705
O O5 0.511838 0.633443 0.664941
O O6 0.824452 0.654272 0.634531
O O7 0.745909 0.718092 0.718888
O O8 0.084492 0.302375 0.886341
O O9 0.296253 0.245754 0.951104
O O10 0.471436 0.918627 0.948704
O O11 0.526605 0.240815 0.259839
#
# Coordination Sequence:
#
# PCOD9550739 Si02
#       6
#     8   8   8   8   4   8
#     4  12  23  43  66  98 135 180 221 280 344 415
#     4  10  22  40  68  93 129 175 225 277 334 401
#     4  10  20  40  64  93 128 172 222 278 326 397
#     4  11  24  42  66  97 139 173 224 279 347 402
#     4  10  18  38  70  88 124 170 228 260 328 406
#     4  10  23  41  64  99 129 173 222 280 327 403
#
# _framework density 22.855491000000001
#
# number of rings (size 3 to 8) (size 9 to 14) (size 15 to 20)
#    0.000    1.455    1.818    4.909    0.000    1.455 
#   13.091    3.636    0.000    0.000    0.000    0.000 
#    0.000    0.000    0.000    0.000    0.000    0.000 
#
# Total GULP energy -245255.288058 kJ/mol
# GULP energy per Si atom -5573.983820 kJ/mol
# Density = 2.280347 g / cm^3
# Si number density = 22.855491 Si / 1000 Ang^3
#
#
#
# Elastic Constant Matrix: (Units=GPa)
#
#
# Indices 1 2 3 4 5 6 
#
# 1 38.4536 11.2407 19.2561 0.0000 0.0000 0.0000
# 2 11.2407 38.4545 19.2568 0.0000 0.0000 0.0000
# 3 19.2561 19.2568 95.5003 0.0000 0.0000 0.0000
# 4 0.0000 0.0000 0.0000 22.7242 0.0000 0.0000
# 5 0.0000 0.0000 0.0000 0.0000 22.7239 0.0000
# 6 0.0000 0.0000 0.0000 0.0000 0.0000 48.3415
#
#
#
# Elastic Compliance Matrix: (Units=1/GPa)
#
#
# Indices 1 2 3 4 5 6 
#
# 1 0.030299 -0.006448 -0.004809 0.000000 0.000000 0.000000
# 2 -0.006448 0.030298 -0.004809 0.000000 0.000000 0.000000
# 3 -0.004809 -0.004809 0.012411 0.000000 0.000000 0.000000
# 4 0.000000 0.000000 0.000000 0.044006 0.000000 0.000000
# 5 0.000000 0.000000 0.000000 0.000000 0.044006 0.000000
# 6 0.000000 0.000000 0.000000 0.000000 0.000000 0.020686
#
#
# Mechanical properties :
#
#
# Convention : Reuss Voigt Hill
#
# Bulk Modulus (GPa) = 24.46543 30.21285 27.33914
# Shear Modulus (GPa) = 21.98158 26.93492 24.45825
#
# Velocity S-wave (km/s) = 3.10460 3.43664 3.27483
# Velocity P-wave (km/s) = 4.85582 5.38471 5.12709
#
# Compressibility (1/GPa) = 0.04087401
#
# Stress axis : x y z
#
# Youngs Moduli (GPa) = 33.00493 33.00550 80.57675
#
# Poissons Ratio (x) = 0.21284 0.38749
# Poissons Ratio (y) = 0.21283 0.38750
# Poissons Ratio (z) = 0.15872 0.15873
#
# Static dielectric constant tensor:
#      x y z
#    x 1.899820 0.000000 0.000000 
#    y 0.000000 1.899820 0.000000 
#    z 0.000000 0.000000 1.896970 
# 
# From -- ./inp_files/4393.got.cif
#   From: 2010.05.17/outbox.cif.g08.bks.cpg/sg96_3_cif.got.tgz:4393.got - 2010.06.03 19:52:08.
