data_PCOD9550375
_publ_section_title
;
Structure prediction by ZEFSAII (Michael W. Deem and Ramdas Pophale) SiO2 
 PCOD9550375
Probable space group: P 42 21 2
;
_chemical_formula_sum "Si O2"
_cell_formula_units_Z 24
_cell_length_a 10.525054
_cell_length_b 10.525054
_cell_length_c 8.627889
_cell_angle_alpha 90.000000
_cell_angle_beta 90.000000
_cell_angle_gamma 90.000000
_cell_volume 955.769604
_symmetry_space_group_name_H-M "P 42 21 2"
_symmetry_group_IT_number 94
_symmetry_cell_setting 'tetragonal'
loop_
_space_group_symop_operation_xyz
x,y,z
1/2-y,1/2+x,1/2+z
-x,-y,z
1/2+y,1/2-x,1/2+z
1/2+x,1/2-y,1/2-z
1/2-x,1/2+y,1/2-z
y,x,-z
-y,-x,-z
loop_
_atom_site_type_symbol
_atom_site_label
_atom_site_fract_x
_atom_site_fract_y
_atom_site_fract_z
Si Si1 0.062401 0.365940 0.201033
Si Si2 0.625802 0.417599 0.836148
Si Si3 0.776975 0.032253 0.094340
O O1 0.004513 0.251649 0.302093
O O2 0.203718 0.383964 0.274344
O O3 0.000000 0.500000 0.225075
O O4 0.027781 0.321048 0.028536
O O5 0.500000 0.500000 0.849483
O O6 0.587742 0.333841 0.688385
O O7 0.649161 0.350840 0.000000
O O8 0.883020 0.116981 0.000000
#
# Coordination Sequence:
#
# PCOD9550375 Si02
#       3
#     8   8   8
#     4  12  29  50  82 122 167 216 286 356 427 509
#     4  11  26  52  86 118 163 222 284 350 433 516
#     4  12  28  54  85 124 169 229 284 361 433 523
#
# _framework density 25.110654
#
# number of rings (size 3 to 8) (size 9 to 14) (size 15 to 20)
#    0.000    0.333    3.333    3.000   14.000    0.000 
#   12.000    0.000    0.000    0.000    0.000    0.000 
#    0.000    0.000    0.000    0.000    0.000    0.000 
#
# Total GULP energy -134061.708714 kJ/mol
# GULP energy per Si atom -5585.904530 kJ/mol
# Density = 2.505350 g / cm^3
# Si number density = 25.110654 Si / 1000 Ang^3
#
#
#
# Elastic Constant Matrix: (Units=GPa)
#
#
# Indices 1 2 3 4 5 6 
#
# 1 142.0813 45.5900 70.5102 0.0000 0.0000 0.0000
# 2 45.5900 142.0822 70.5104 0.0000 0.0000 0.0000
# 3 70.5102 70.5104 183.2807 0.0000 0.0000 0.0000
# 4 0.0000 0.0000 0.0000 106.7234 0.0000 0.0000
# 5 0.0000 0.0000 0.0000 0.0000 106.7275 0.0000
# 6 0.0000 0.0000 0.0000 0.0000 0.0000 32.8593
#
#
#
# Elastic Compliance Matrix: (Units=1/GPa)
#
#
# Indices 1 2 3 4 5 6 
#
# 1 0.008929 -0.001434 -0.002883 0.000000 0.000000 0.000000
# 2 -0.001434 0.008929 -0.002883 0.000000 0.000000 0.000000
# 3 -0.002883 -0.002883 0.007675 0.000000 0.000000 0.000000
# 4 0.000000 0.000000 0.000000 0.009370 0.000000 0.000000
# 5 0.000000 0.000000 0.000000 0.000000 0.009370 0.000000
# 6 0.000000 0.000000 0.000000 0.000000 0.000000 0.030433
#
#
# Mechanical properties :
#
#
# Convention : Reuss Voigt Hill
#
# Bulk Modulus (GPa) = 89.83810 93.40727 91.62269
# Shear Modulus (GPa) = 53.86851 67.98428 60.92640
#
# Velocity S-wave (km/s) = 4.63670 5.20890 4.93111
# Velocity P-wave (km/s) = 8.03243 8.57064 8.30590
#
# Compressibility (1/GPa) = 0.01113113
#
# Stress axis : x y z
#
# Youngs Moduli (GPa) = 111.98960 111.99038 130.29780
#
# Poissons Ratio (x) = 0.16062 0.37571
# Poissons Ratio (y) = 0.16062 0.37571
# Poissons Ratio (z) = 0.32292 0.32292
#
# Static dielectric constant tensor:
#      x y z
#    x 2.022790 0.000000 0.000000 
#    y 0.000000 2.022790 0.000000 
#    z 0.000000 0.000000 2.102830 
# 
# From -- ./inp_files/982.got.cif
#   From: 2010.05.17/outbox.cif.g08.bks.cpg/sg94_1_cif.got.tgz:982.got - 2010.06.03 19:43:16.
