data_PCOD9550967
_publ_section_title
;
Structure prediction by ZEFSAII (Michael W. Deem and Ramdas Pophale) SiO2 
 PCOD9550967
Probable space group: P 43 21 2
;
_chemical_formula_sum "Si O2"
_cell_formula_units_Z 48
_cell_length_a 19.116775
_cell_length_b 19.116775
_cell_length_c 5.427892
_cell_angle_alpha 90.000000
_cell_angle_beta 90.000000
_cell_angle_gamma 90.000000
_cell_volume 1983.629028
_symmetry_space_group_name_H-M "P 43 21 2"
_symmetry_group_IT_number 96
_symmetry_cell_setting 'tetragonal'
loop_
_space_group_symop_operation_xyz
x,y,z
1/2-y,1/2+x,3/4+z
-x,-y,1/2+z
1/2+y,1/2-x,1/4+z
1/2+x,1/2-y,1/4-z
1/2-x,1/2+y,3/4-z
y,x,-z
-y,-x,1/2-z
loop_
_atom_site_type_symbol
_atom_site_label
_atom_site_fract_x
_atom_site_fract_y
_atom_site_fract_z
Si Si1 0.328533 0.172762 0.981588
Si Si2 0.866443 0.974856 0.991301
Si Si3 0.075096 0.436011 0.266448
Si Si4 0.550843 0.817199 0.862721
Si Si5 0.201873 0.884573 0.447482
Si Si6 0.213314 0.065588 0.981797
O O1 0.368298 0.120266 0.794227
O O2 0.338709 0.250714 0.878811
O O3 0.253152 0.139041 0.021838
O O4 0.377053 0.170533 0.221689
O O5 0.833534 0.953467 0.723055
O O6 0.854405 0.057852 0.035627
O O7 0.945137 0.945137 0.000000
O O8 0.827203 0.937979 0.222688
O O9 0.081569 0.495107 0.061516
O O10 0.111268 0.470952 0.506443
O O11 0.492811 0.775062 0.712067
O O12 0.567103 0.761097 0.075271
O O13 0.164500 0.835501 0.250000
#
# Coordination Sequence:
#
# PCOD9550967 Si02
#       6
#     8   8   8   8   8   8
#     4  11  23  41  66  93 140 186 231 285 355 421
#     4  11  25  50  73 104 139 184 234 298 358 431
#     4  11  25  35  56  94 134 183 244 289 341 412
#     4  10  22  42  62  91 138 184 228 289 351 419
#     4  10  24  46  72 103 138 180 232 301 366 428
#     4  11  24  42  73 100 140 188 234 280 354 422
#
# _framework density 24.198070999999999
#
# number of rings (size 3 to 8) (size 9 to 14) (size 15 to 20)
#    0.000    1.333    1.667    2.500   14.000    1.333 
#    3.000    3.333    0.000    0.000    0.000    0.000 
#    0.000    0.000    0.000    0.000    0.000    0.000 
#
# Total GULP energy -268279.934152 kJ/mol
# GULP energy per Si atom -5589.165295 kJ/mol
# Density = 2.414300 g / cm^3
# Si number density = 24.198071 Si / 1000 Ang^3
#
#
#
# Elastic Constant Matrix: (Units=GPa)
#
#
# Indices 1 2 3 4 5 6 
#
# 1 691.0966 -619.9211 5.5986 0.0000 0.0000 0.0000
# 2 -619.9211 691.3640 5.5560 0.0000 0.0000 0.0000
# 3 5.5986 5.5560 92.8180 0.0000 0.0000 0.0000
# 4 0.0000 0.0000 0.0000 29.3241 0.0000 0.0000
# 5 0.0000 0.0000 0.0000 0.0000 29.3241 0.0000
# 6 0.0000 0.0000 0.0000 0.0000 0.0000 43.7792
#
#
#
# Elastic Compliance Matrix: (Units=1/GPa)
#
#
# Indices 1 2 3 4 5 6 
#
# 1 0.007461 0.006697 -0.000851 0.000000 0.000000 0.000000
# 2 0.006697 0.007458 -0.000850 0.000000 0.000000 0.000000
# 3 -0.000851 -0.000850 0.010876 0.000000 0.000000 0.000000
# 4 0.000000 0.000000 0.000000 0.034102 0.000000 0.000000
# 5 0.000000 0.000000 0.000000 0.000000 0.034102 0.000000
# 6 0.000000 0.000000 0.000000 0.000000 0.000000 0.022842
#
#
# Mechanical properties :
#
#
# Convention : Reuss Voigt Hill
#
# Bulk Modulus (GPa) = 27.94357 28.63841 28.29099
# Shear Modulus (GPa) = 42.09538 159.42182 100.75860
#
# Velocity S-wave (km/s) = 4.17540 8.12558 6.45984
# Velocity P-wave (km/s) = 5.90069 9.99470 8.20708
#
# Compressibility (1/GPa) = 0.03578641
#
# Stress axis : x y z
#
# Youngs Moduli (GPa) = 134.02917 134.08205 91.94556
#
# Poissons Ratio (x) = -0.89793 0.07824
# Poissons Ratio (y) = -0.89758 0.07819
# Poissons Ratio (z) = 0.11405 0.11402
#
# Static dielectric constant tensor:
#      x y z
#    x 1.957960 0.000000 0.000000 
#    y 0.000000 1.957970 0.000000 
#    z 0.000000 0.000000 2.349380 
# 
# From -- ./inp_files/631.got.cif
#   From: 2010.05.17/outbox.cif.g08.bks.cpg/sg96_1_cif.got.tgz:631.got - 2010.06.03 19:52:08.
