data_PCOD9550869
_publ_section_title
;
Structure prediction by ZEFSAII (Michael W. Deem and Ramdas Pophale) SiO2 
 PCOD9550869
Probable space group: P 43 21 2
;
_chemical_formula_sum "Si O2"
_cell_formula_units_Z 56
_cell_length_a 14.470846
_cell_length_b 14.470846
_cell_length_c 11.971785
_cell_angle_alpha 90.000000
_cell_angle_beta 90.000000
_cell_angle_gamma 90.000000
_cell_volume 2506.956235
_symmetry_space_group_name_H-M "P 43 21 2"
_symmetry_group_IT_number 96
_symmetry_cell_setting 'tetragonal'
loop_
_space_group_symop_operation_xyz
x,y,z
1/2-y,1/2+x,3/4+z
-x,-y,1/2+z
1/2+y,1/2-x,1/4+z
1/2+x,1/2-y,1/4-z
1/2-x,1/2+y,3/4-z
y,x,-z
-y,-x,1/2-z
loop_
_atom_site_type_symbol
_atom_site_label
_atom_site_fract_x
_atom_site_fract_y
_atom_site_fract_z
Si Si1 0.911413 0.587060 0.096253
Si Si2 0.609033 0.844119 0.145534
Si Si3 0.174461 0.021428 0.016073
Si Si4 0.647784 0.270184 0.075092
Si Si5 0.908463 0.967927 0.176964
Si Si6 0.802687 0.406821 0.071882
Si Si7 0.143523 0.941744 0.462219
O O1 0.881094 0.480177 0.116986
O O2 0.890251 0.656129 0.199137
O O3 0.020947 0.592091 0.078737
O O4 0.865820 0.628517 0.984018
O O5 0.684526 0.852786 0.242002
O O6 0.578890 0.738012 0.152933
O O7 0.240686 0.078177 0.931038
O O8 0.147235 0.916140 0.000190
O O9 0.080685 0.080685 0.000000
O O10 0.217153 0.028398 0.138923
O O11 0.600019 0.350680 0.002983
O O12 0.751101 0.309091 0.105334
O O13 0.843591 0.002103 0.076542
O O14 0.948203 0.051798 0.250000
O O15 0.995670 0.918528 0.119347
#
# Coordination Sequence:
#
# PCOD9550869 Si02
#       7
#     8   8   8   8   8   8   8
#     4  10  23  49  65 103 140 198 237 302 374 459
#     4  11  25  45  70 102 154 183 251 303 377 443
#     4  10  20  44  68 101 142 182 248 305 374 442
#     4  11  23  42  69 110 143 190 242 317 362 453
#     4  11  19  38  70  99 140 188 237 301 374 439
#     4  10  23  44  73  97 142 188 251 295 371 449
#     4  11  22  39  67 108 141 190 242 309 374 450
#
# _framework density 22.337844
#
# number of rings (size 3 to 8) (size 9 to 14) (size 15 to 20)
#    0.000    1.429    2.857    3.429    2.000    1.714 
#   12.857    3.571    0.000    0.000    0.000    0.000 
#    0.000    0.000    0.000    0.000    0.000    0.000 
#
# Total GULP energy -311769.792370 kJ/mol
# GULP energy per Si atom -5567.317721 kJ/mol
# Density = 2.228700 g / cm^3
# Si number density = 22.337844 Si / 1000 Ang^3
#
#
#
# Elastic Constant Matrix: (Units=GPa)
#
#
# Indices 1 2 3 4 5 6 
#
# 1 57.0513 54.0326 29.9239 0.0000 0.0000 0.0000
# 2 54.0326 57.0503 29.9208 0.0000 0.0000 0.0000
# 3 29.9239 29.9208 117.6487 0.0000 0.0000 0.0000
# 4 0.0000 0.0000 0.0000 35.0247 0.0000 0.0000
# 5 0.0000 0.0000 0.0000 0.0000 35.0250 0.0000
# 6 0.0000 0.0000 0.0000 0.0000 0.0000 20.6547
#
#
#
# Elastic Compliance Matrix: (Units=1/GPa)
#
#
# Indices 1 2 3 4 5 6 
#
# 1 0.170875 -0.160443 -0.002658 0.000000 0.000000 0.000000
# 2 -0.160443 0.170873 -0.002649 0.000000 0.000000 0.000000
# 3 -0.002658 -0.002649 0.009849 0.000000 0.000000 0.000000
# 4 0.000000 0.000000 0.000000 0.028551 0.000000 0.000000
# 5 0.000000 0.000000 0.000000 0.000000 0.028551 0.000000
# 6 0.000000 0.000000 0.000000 0.000000 0.000000 0.048415
#
#
# Mechanical properties :
#
#
# Convention : Reuss Voigt Hill
#
# Bulk Modulus (GPa) = 49.75098 51.05608 50.40353
# Shear Modulus (GPa) = 6.28683 25.99908 16.14296
#
# Velocity S-wave (km/s) = 1.67945 3.41530 2.69117
# Velocity P-wave (km/s) = 5.10697 6.20148 5.68065
#
# Compressibility (1/GPa) = 0.02010011
#
# Stress axis : x y z
#
# Youngs Moduli (GPa) = 5.85223 5.85229 101.52841
#
# Poissons Ratio (x) = 0.93896 0.26983
# Poissons Ratio (y) = 0.93895 0.26891
# Poissons Ratio (z) = 0.01555 0.01550
#
# Static dielectric constant tensor:
#      x y z
#    x 1.880940 0.000000 0.000000 
#    y 0.000000 1.880940 0.000000 
#    z 0.000000 0.000000 1.914660 
# 
# From -- ./inp_files/2269.got.cif
#   From: 2010.05.17/outbox.cif.g08.bks.cpg/sg96_2_cif.got.tgz:2269.got - 2010.06.03 19:52:08.
