data_PCOD9550115
_publ_section_title
;
Structure prediction by ZEFSAII (Michael W. Deem and Ramdas Pophale) SiO2 
 PCOD9550115
Probable space group: P 42 21 2
;
_chemical_formula_sum "Si O2"
_cell_formula_units_Z 48
_cell_length_a 11.786117
_cell_length_b 11.786117
_cell_length_c 16.216394
_cell_angle_alpha 90.000000
_cell_angle_beta 90.000000
_cell_angle_gamma 90.000000
_cell_volume 2252.660706
_symmetry_space_group_name_H-M "P 42 21 2"
_symmetry_group_IT_number 94
_symmetry_cell_setting 'tetragonal'
loop_
_space_group_symop_operation_xyz
x,y,z
1/2-y,1/2+x,1/2+z
-x,-y,z
1/2+y,1/2-x,1/2+z
1/2+x,1/2-y,1/2-z
1/2-x,1/2+y,1/2-z
y,x,-z
-y,-x,-z
loop_
_atom_site_type_symbol
_atom_site_label
_atom_site_fract_x
_atom_site_fract_y
_atom_site_fract_z
Si Si1 0.265660 0.461802 0.287075
Si Si2 0.041833 0.881081 0.340577
Si Si3 0.248949 0.315116 0.080612
Si Si4 0.413138 0.670769 0.318137
Si Si5 0.206507 0.846217 0.905738
Si Si6 0.470377 0.867891 0.866766
O O1 0.358597 0.417838 0.222065
O O2 0.333627 0.562229 0.332079
O O3 0.252462 0.360533 0.351463
O O4 0.165802 0.509560 0.229737
O O5 0.115968 0.807263 0.402149
O O6 0.949566 0.828063 0.278521
O O7 0.000000 0.000000 0.378119
O O8 0.167579 0.271450 0.153282
O O9 0.208273 0.445415 0.077287
O O10 0.237306 0.237306 0.000000
O O11 0.528452 0.671109 0.371541
O O12 0.340903 0.841760 0.889924
O O13 0.173081 0.826920 0.000000
O O14 0.500000 0.000000 0.878592
#
# Coordination Sequence:
#
# PCOD9550115 Si02
#       6
#     8   8   8   8   8   8
#     4   9  22  39  68 100 125 179 232 273 344 418
#     4   8  18  41  59  90 125 169 228 269 318 415
#     4  11  24  40  64  99 137 181 221 287 361 409
#     4  10  21  39  68  96 134 170 234 284 329 426
#     4  11  24  43  67 100 141 184 229 292 354 411
#     4  11  24  45  67  98 143 177 231 295 353 420
#
# _framework density 21.308136000000001
#
# number of rings (size 3 to 8) (size 9 to 14) (size 15 to 20)
#    0.000    2.000    1.667    1.500    9.333    1.000 
#    9.000    2.500    0.000    0.000    0.000    0.000 
#    0.000    0.000    0.000    0.000    0.000    0.000 
#
# Total GULP energy -267469.585028 kJ/mol
# GULP energy per Si atom -5572.283021 kJ/mol
# Density = 2.125964 g / cm^3
# Si number density = 21.308136 Si / 1000 Ang^3
#
#
#
# Elastic Constant Matrix: (Units=GPa)
#
#
# Indices 1 2 3 4 5 6 
#
# 1 91.2902 33.7756 43.3328 0.0000 0.0000 0.0000
# 2 33.7756 91.2898 43.3323 0.0000 0.0000 0.0000
# 3 43.3328 43.3323 59.6764 0.0000 0.0000 0.0000
# 4 0.0000 0.0000 0.0000 17.2076 0.0000 0.0000
# 5 0.0000 0.0000 0.0000 0.0000 17.2076 0.0000
# 6 0.0000 0.0000 0.0000 0.0000 0.0000 30.0768
#
#
#
# Elastic Compliance Matrix: (Units=1/GPa)
#
#
# Indices 1 2 3 4 5 6 
#
# 1 0.016740 -0.000647 -0.011686 0.000000 0.000000 0.000000
# 2 -0.000647 0.016740 -0.011686 0.000000 0.000000 0.000000
# 3 -0.011686 -0.011686 0.033728 0.000000 0.000000 0.000000
# 4 0.000000 0.000000 0.000000 0.058114 0.000000 0.000000
# 5 0.000000 0.000000 0.000000 0.000000 0.058114 0.000000
# 6 0.000000 0.000000 0.000000 0.000000 0.000000 0.033248
#
#
# Mechanical properties :
#
#
# Convention : Reuss Voigt Hill
#
# Bulk Modulus (GPa) = 52.16119 53.68197 52.92158
# Shear Modulus (GPa) = 18.44250 21.01944 19.73097
#
# Velocity S-wave (km/s) = 2.94515 3.14419 3.04630
# Velocity P-wave (km/s) = 6.00815 6.19912 6.10438
#
# Compressibility (1/GPa) = 0.01917134
#
# Stress axis : x y z
#
# Youngs Moduli (GPa) = 59.73574 59.73602 29.64882
#
# Poissons Ratio (x) = 0.03863 0.34648
# Poissons Ratio (y) = 0.03863 0.34648
# Poissons Ratio (z) = 0.69808 0.69807
#
# Static dielectric constant tensor:
#      x y z
#    x 1.849620 0.000000 0.000000 
#    y 0.000000 1.849620 0.000000 
#    z 0.000000 0.000000 1.848150 
# 
# From -- ./inp_files/4132.got.cif
#   From: 2010.05.17/outbox.cif.g08.bks.cpg/sg94_3_cif.got.tgz:4132.got - 2010.06.03 19:43:16.
