data_PCOD9550101
_publ_section_title
;
Structure prediction by ZEFSAII (Michael W. Deem and Ramdas Pophale) SiO2 
 PCOD9550101
Probable space group: P 42 21 2
;
_chemical_formula_sum "Si O2"
_cell_formula_units_Z 36
_cell_length_a 8.976576
_cell_length_b 8.976576
_cell_length_c 20.303712
_cell_angle_alpha 90.000000
_cell_angle_beta 90.000000
_cell_angle_gamma 90.000000
_cell_volume 1636.051118
_symmetry_space_group_name_H-M "P 42 21 2"
_symmetry_group_IT_number 94
_symmetry_cell_setting 'tetragonal'
loop_
_space_group_symop_operation_xyz
x,y,z
1/2-y,1/2+x,1/2+z
-x,-y,z
1/2+y,1/2-x,1/2+z
1/2+x,1/2-y,1/2-z
1/2-x,1/2+y,1/2-z
y,x,-z
-y,-x,-z
loop_
_atom_site_type_symbol
_atom_site_label
_atom_site_fract_x
_atom_site_fract_y
_atom_site_fract_z
Si Si1 0.321059 0.321059 0.000000
Si Si2 0.729127 0.831901 0.794493
Si Si3 0.842398 0.175841 0.164966
Si Si4 0.517977 0.163416 0.907833
Si Si5 0.662224 0.924567 0.113088
O O1 0.466876 0.293049 0.956570
O O2 0.185842 0.316167 0.948056
O O3 0.679322 0.782625 0.722355
O O4 0.590784 0.840157 0.844496
O O5 0.828778 0.694982 0.821182
O O6 0.813306 0.991325 0.803307
O O7 0.821103 0.319562 0.120089
O O8 0.797970 0.040813 0.117687
O O9 0.500000 0.000000 0.940394
O O10 0.500000 0.000000 0.112268
#
# Coordination Sequence:
#
# PCOD9550101 Si02
#       5
#     4   8   8   8   8
#     4  10  22  44  62  82 124 168 216 268 314 372
#     4  10  21  38  63  96 130 159 201 258 322 392
#     4  11  21  39  67  97 125 161 205 258 324 389
#     4   9  20  39  61  87 121 160 202 255 311 369
#     4  11  23  41  63  89 124 170 214 262 319 380
#
# _framework density 22.004203
#
# number of rings (size 3 to 8) (size 9 to 14) (size 15 to 20)
#    0.000    1.778    0.000    4.000    0.000    1.778 
#    0.000   40.000    0.000    2.667    0.000    0.000 
#    0.000    0.000    0.000    0.000    0.000    0.000 
#
# Total GULP energy -201043.628892 kJ/mol
# GULP energy per Si atom -5584.545247 kJ/mol
# Density = 2.195412 g / cm^3
# Si number density = 22.004203 Si / 1000 Ang^3
#
#
#
# Elastic Constant Matrix: (Units=GPa)
#
#
# Indices 1 2 3 4 5 6 
#
# 1 70.2099 9.9732 20.7519 0.0000 0.0000 0.0000
# 2 9.9732 70.2099 20.7519 0.0000 0.0000 0.0000
# 3 20.7519 20.7519 66.6289 0.0000 0.0000 0.0000
# 4 0.0000 0.0000 0.0000 -13.6584 0.0000 0.0000
# 5 0.0000 0.0000 0.0000 0.0000 -13.6584 0.0000
# 6 0.0000 0.0000 0.0000 0.0000 0.0000 34.6292
#
#
#
# Elastic Compliance Matrix: (Units=1/GPa)
#
#
# Indices 1 2 3 4 5 6 
#
# 1 0.015735 -0.000866 -0.004631 0.000000 0.000000 0.000000
# 2 -0.000866 0.015735 -0.004631 0.000000 0.000000 0.000000
# 3 -0.004631 -0.004631 0.017893 0.000000 0.000000 0.000000
# 4 0.000000 0.000000 0.000000 -0.073215 0.000000 0.000000
# 5 0.000000 0.000000 0.000000 0.000000 -0.073215 0.000000
# 6 0.000000 0.000000 0.000000 0.000000 0.000000 0.028877
#
#
# Mechanical properties :
#
#
# Convention : Reuss Voigt Hill
#
# Bulk Modulus (GPa) = 34.35646 34.44472 34.40059
# Shear Modulus (GPa) = -130.78366 11.83390 -59.47488
#
# Velocity S-wave (km/s) = -7.71782 2.32157 -5.20457
# Velocity P-wave (km/s) = 7.98575 4.78267 4.52207
#
# Compressibility (1/GPa) = 0.02910661
#
# Stress axis : x y z
#
# Youngs Moduli (GPa) = 63.55335 63.55335 55.88743
#
# Poissons Ratio (x) = 0.05506 0.25881
# Poissons Ratio (y) = 0.05506 0.25881
# Poissons Ratio (z) = 0.29431 0.29431
#
# Static dielectric constant tensor:
#      x y z
#    x 1.835790 0.000000 0.000000 
#    y 0.000000 1.835790 0.000000 
#    z 0.000000 0.000000 1.796520 
# 
# From -- ./inp_files/4530.got.cif
#   From: 2010.05.17/outbox.cif.g08.bks.cpg/sg94_3_cif.got.tgz:4530.got - 2010.06.03 19:43:16.
