data_PCOD9550682
_publ_section_title
;
Structure prediction by ZEFSAII (Michael W. Deem and Ramdas Pophale) SiO2 
 PCOD9550682
Probable space group: P 43 2 2
;
_chemical_formula_sum "Si O2"
_cell_formula_units_Z 24
_cell_length_a 7.037696
_cell_length_b 7.037696
_cell_length_c 18.253119
_cell_angle_alpha 90.000000
_cell_angle_beta 90.000000
_cell_angle_gamma 90.000000
_cell_volume 904.061743
_symmetry_space_group_name_H-M "P 43 2 2"
_symmetry_group_IT_number 95
_symmetry_cell_setting 'tetragonal'
loop_
_space_group_symop_operation_xyz
x,y,z
-y,x,3/4+z
-x,-y,1/2+z
y,-x,1/4+z
x,-y,1/2-z
-x,y,-z
y,x,1/4-z
-y,-x,3/4-z
loop_
_atom_site_type_symbol
_atom_site_label
_atom_site_fract_x
_atom_site_fract_y
_atom_site_fract_z
Si Si1 0.727787 0.772335 0.992518
Si Si2 0.245828 0.345848 0.046356
Si Si3 0.154813 0.132168 0.921343
O O1 0.772806 0.548564 0.993564
O O2 0.805272 0.813595 0.911341
O O3 0.500000 0.792496 0.000000
O O4 0.824979 0.913165 0.051573
O O5 0.351984 0.351984 0.125000
O O6 0.048509 0.236725 0.065988
O O7 0.308809 0.221155 0.976823
#
# Coordination Sequence:
#
# PCOD9550682 Si02
#       3
#     8   8   8
#     4  12  28  50  91 131 179 245 312 392 478 558
#     4  11  26  49  82 123 179 236 296 381 458 562
#     4  11  26  53  83 125 181 236 302 378 471 553
#
# _framework density 26.546862000000001
#
# number of rings (size 3 to 8) (size 9 to 14) (size 15 to 20)
#    0.000    0.667    3.333    2.000    4.667    5.333 
#    6.000    0.000    0.000    0.000    0.000    0.000 
#    0.000    0.000    0.000    0.000    0.000    0.000 
#
# Total GULP energy -133777.461562 kJ/mol
# GULP energy per Si atom -5574.060898 kJ/mol
# Density = 2.648644 g / cm^3
# Si number density = 26.546862 Si / 1000 Ang^3
#
#
#
# Elastic Constant Matrix: (Units=GPa)
#
#
# Indices 1 2 3 4 5 6 
#
# 1 203.7422 60.3427 67.0376 0.0000 0.0000 0.0000
# 2 60.3427 203.7422 67.0376 0.0000 0.0000 0.0000
# 3 67.0376 67.0376 232.4455 0.0000 0.0000 0.0000
# 4 0.0000 0.0000 0.0000 -704.2660 0.0000 0.0000
# 5 0.0000 0.0000 0.0000 0.0000 -704.2660 0.0000
# 6 0.0000 0.0000 0.0000 0.0000 0.0000 14.7480
#
#
#
# Elastic Compliance Matrix: (Units=1/GPa)
#
#
# Indices 1 2 3 4 5 6 
#
# 1 0.005705 -0.001269 -0.001279 0.000000 0.000000 0.000000
# 2 -0.001269 0.005705 -0.001279 0.000000 0.000000 0.000000
# 3 -0.001279 -0.001279 0.005040 0.000000 0.000000 0.000000
# 4 0.000000 0.000000 0.000000 -0.001420 0.000000 0.000000
# 5 0.000000 0.000000 0.000000 0.000000 -0.001420 0.000000
# 6 0.000000 0.000000 0.000000 0.000000 0.000000 0.067806
#
#
# Mechanical properties :
#
#
# Convention : Reuss Voigt Hill
#
# Bulk Modulus (GPa) = 113.70302 114.30727 114.00515
# Shear Modulus (GPa) = 54.34634 -249.05601 -97.35483
#
# Velocity S-wave (km/s) = 4.52949 -9.69645 -6.06238
# Velocity P-wave (km/s) = 8.38326 9.06694 2.44237
#
# Compressibility (1/GPa) = 0.00879484
#
# Stress axis : x y z
#
# Youngs Moduli (GPa) = 175.28885 175.28885 198.41070
#
# Poissons Ratio (x) = 0.22238 0.25385
# Poissons Ratio (y) = 0.22238 0.25385
# Poissons Ratio (z) = 0.22427 0.22427
#
# Static dielectric constant tensor:
#      x y z
#    x 2.770020 0.000000 0.000000 
#    y 0.000000 2.770020 0.000000 
#    z 0.000000 0.000000 2.417520 
# 
# From -- ./inp_files/5198.got.cif
#   From: 2010.05.17/outbox.cif.g08.bks.cpg/sg95_3_cif.got.tgz:5198.got - 2010.06.03 19:46:49.
