data_PCOD9550800
_publ_section_title
;
Structure prediction by ZEFSAII (Michael W. Deem and Ramdas Pophale) SiO2 
 PCOD9550800
Probable space group: P 43 21 2
;
_chemical_formula_sum "Si O2"
_cell_formula_units_Z 32
_cell_length_a 13.692379
_cell_length_b 13.692379
_cell_length_c 5.861259
_cell_angle_alpha 90.000000
_cell_angle_beta 90.000000
_cell_angle_gamma 90.000000
_cell_volume 1098.876121
_symmetry_space_group_name_H-M "P 43 21 2"
_symmetry_group_IT_number 96
_symmetry_cell_setting 'tetragonal'
loop_
_space_group_symop_operation_xyz
x,y,z
1/2-y,1/2+x,3/4+z
-x,-y,1/2+z
1/2+y,1/2-x,1/4+z
1/2+x,1/2-y,1/4-z
1/2-x,1/2+y,3/4-z
y,x,-z
-y,-x,1/2-z
loop_
_atom_site_type_symbol
_atom_site_label
_atom_site_fract_x
_atom_site_fract_y
_atom_site_fract_z
Si Si1 0.540839 0.382783 0.500182
Si Si2 0.086939 0.348416 0.746989
Si Si3 0.142842 0.584388 0.994856
Si Si4 0.237186 0.907196 0.754014
O O1 0.432828 0.432828 0.500000
O O2 0.584419 0.415582 0.250000
O O3 0.553561 0.264584 0.501633
O O4 0.584100 0.415901 0.750000
O O5 0.062751 0.391069 0.499895
O O6 0.203893 0.359597 0.783962
O O7 0.056071 0.394435 0.991316
O O8 0.242271 0.521547 0.996036
O O9 0.139438 0.700493 0.956422
O O10 0.127934 0.872067 0.750000
#
# Coordination Sequence:
#
# PCOD9550800 Si02
#       4
#     8   8   8   8
#     4  10  20  34  57  89 128 171 216 275 339 412
#     4  10  23  40  63  97 131 179 228 277 346 407
#     4  10  25  42  66 103 133 185 228 290 345 413
#     4  10  25  47  73 104 144 182 238 291 354 422
#
# _framework density 29.120660999999998
#
# number of rings (size 3 to 8) (size 9 to 14) (size 15 to 20)
#    1.500    0.500    0.000    2.250    7.000    2.000 
#    4.500    0.000    0.000    0.000    0.000    0.000 
#    0.000    0.000    0.000    0.000    0.000    0.000 
#
# Total GULP energy -178274.104408 kJ/mol
# GULP energy per Si atom -5571.065763 kJ/mol
# Density = 2.905438 g / cm^3
# Si number density = 29.120661 Si / 1000 Ang^3
#
#
#
# Elastic Constant Matrix: (Units=GPa)
#
#
# Indices 1 2 3 4 5 6 
#
# 1 91.0548 13.3669 86.0945 0.0000 0.0000 0.0000
# 2 13.3669 91.0531 86.0950 0.0000 0.0000 0.0000
# 3 86.0945 86.0950 387.9605 0.0000 0.0000 0.0000
# 4 0.0000 0.0000 0.0000 55.2355 0.0000 0.0000
# 5 0.0000 0.0000 0.0000 0.0000 55.2354 0.0000
# 6 0.0000 0.0000 0.0000 0.0000 0.0000 44.1485
#
#
#
# Elastic Compliance Matrix: (Units=1/GPa)
#
#
# Indices 1 2 3 4 5 6 
#
# 1 0.013988 0.001116 -0.003352 0.000000 0.000000 0.000000
# 2 0.001116 0.013988 -0.003352 0.000000 0.000000 0.000000
# 3 -0.003352 -0.003352 0.004065 0.000000 0.000000 0.000000
# 4 0.000000 0.000000 0.000000 0.018104 0.000000 0.000000
# 5 0.000000 0.000000 0.000000 0.000000 0.018104 0.000000
# 6 0.000000 0.000000 0.000000 0.000000 0.000000 0.022651
#
#
# Mechanical properties :
#
#
# Convention : Reuss Voigt Hill
#
# Bulk Modulus (GPa) = 47.92597 104.57567 76.25082
# Shear Modulus (GPa) = 45.85845 56.55799 51.20822
#
# Velocity S-wave (km/s) = 3.97265 4.41181 4.19798
# Velocity P-wave (km/s) = 6.12666 7.87028 7.05256
#
# Compressibility (1/GPa) = 0.02086551
#
# Stress axis : x y z
#
# Youngs Moduli (GPa) = 71.49126 71.48938 245.99059
#
# Poissons Ratio (x) = -0.07976 0.82449
# Poissons Ratio (y) = -0.07977 0.82451
# Poissons Ratio (z) = 0.23962 0.23962
#
# Static dielectric constant tensor:
#      x y z
#    x 2.300700 0.000000 0.000000 
#    y 0.000000 2.300710 0.000000 
#    z 0.000000 0.000000 2.217610 
# 
# From -- ./inp_files/339.got.cif
#   From: 2010.05.17/outbox.cif.g08.bks.cpg/sg96_1_cif.got.tgz:339.got - 2010.06.03 19:52:08.
