data_PCOD9550466
_publ_section_title
;
Structure prediction by ZEFSAII (Michael W. Deem and Ramdas Pophale) SiO2 
 PCOD9550466
Probable space group: P 43 2 2
;
_chemical_formula_sum "Si O2"
_cell_formula_units_Z 36
_cell_length_a 13.502138
_cell_length_b 13.502138
_cell_length_c 9.644953
_cell_angle_alpha 90.000000
_cell_angle_beta 90.000000
_cell_angle_gamma 90.000000
_cell_volume 1758.349493
_symmetry_space_group_name_H-M "P 43 2 2"
_symmetry_group_IT_number 95
_symmetry_cell_setting 'tetragonal'
loop_
_space_group_symop_operation_xyz
x,y,z
-y,x,3/4+z
-x,-y,1/2+z
y,-x,1/4+z
x,-y,1/2-z
-x,y,-z
y,x,1/4-z
-y,-x,3/4-z
loop_
_atom_site_type_symbol
_atom_site_label
_atom_site_fract_x
_atom_site_fract_y
_atom_site_fract_z
Si Si1 0.394432 0.605568 0.375000
Si Si2 0.524027 0.265489 0.285930
Si Si3 0.206003 0.339652 0.789602
Si Si4 0.604681 0.993381 0.582698
Si Si5 0.796759 0.650288 0.808840
O O1 0.371903 0.506480 0.466030
O O2 0.384107 0.701468 0.471716
O O3 0.395213 0.256552 0.591825
O O4 0.421955 0.225282 0.343563
O O5 0.562690 0.191029 0.169300
O O6 0.257824 0.240915 0.847202
O O7 0.088531 0.333880 0.777485
O O8 0.000000 0.405178 0.000000
O O9 0.500000 0.999630 0.500000
O O10 0.658471 0.892158 0.535873
#
# Coordination Sequence:
#
# PCOD9550466 Si02
#       5
#     4   8   8   8   8
#     4  10  20  34  56  82 122 164 212 256 304 386
#     4  10  19  38  57  83 123 171 209 264 317 384
#     4  10  22  38  59  89 133 161 217 274 327 388
#     4  12  23  37  62  92 126 167 217 271 327 395
#     4  11  22  36  61  85 126 166 210 263 328 384
#
# _framework density 20.473744
#
# number of rings (size 3 to 8) (size 9 to 14) (size 15 to 20)
#    0.000    1.333    2.222    6.667    0.000    0.000 
#    0.000    0.000   63.556    0.000    0.000    0.000 
#   53.333    0.000    0.000    0.000    0.000    0.000 
#
# Total GULP energy -200762.842427 kJ/mol
# GULP energy per Si atom -5576.745623 kJ/mol
# Density = 2.042714 g / cm^3
# Si number density = 20.473744 Si / 1000 Ang^3
#
#
#
# Elastic Constant Matrix: (Units=GPa)
#
#
# Indices 1 2 3 4 5 6 
#
# 1 94.8245 59.6876 53.4344 0.0000 0.0000 0.0000
# 2 59.6876 94.8245 53.4344 0.0000 0.0000 0.0000
# 3 53.4344 53.4344 123.0461 0.0000 0.0000 0.0000
# 4 0.0000 0.0000 0.0000 34.2142 0.0000 0.0000
# 5 0.0000 0.0000 0.0000 0.0000 34.2143 0.0000
# 6 0.0000 0.0000 0.0000 0.0000 0.0000 16.9203
#
#
#
# Elastic Compliance Matrix: (Units=1/GPa)
#
#
# Indices 1 2 3 4 5 6 
#
# 1 0.018855 -0.009605 -0.004017 0.000000 0.000000 0.000000
# 2 -0.009605 0.018855 -0.004017 0.000000 0.000000 0.000000
# 3 -0.004017 -0.004017 0.011616 0.000000 0.000000 0.000000
# 4 0.000000 0.000000 0.000000 0.029228 0.000000 0.000000
# 5 0.000000 0.000000 0.000000 0.000000 0.029228 0.000000
# 6 0.000000 0.000000 0.000000 0.000000 0.000000 0.059101
#
#
# Mechanical properties :
#
#
# Convention : Reuss Voigt Hill
#
# Bulk Modulus (GPa) = 71.18249 71.75642 71.46945
# Shear Modulus (GPa) = 24.17289 26.81234 25.49261
#
# Velocity S-wave (km/s) = 3.43983 3.62276 3.53248
# Velocity P-wave (km/s) = 7.11475 7.25419 7.18481
#
# Compressibility (1/GPa) = 0.01404840
#
# Stress axis : x y z
#
# Youngs Moduli (GPa) = 53.03555 53.03559 86.08800
#
# Poissons Ratio (x) = 0.50940 0.34583
# Poissons Ratio (y) = 0.50940 0.34583
# Poissons Ratio (z) = 0.21305 0.21305
#
# Static dielectric constant tensor:
#      x y z
#    x 1.775180 0.000000 0.000000 
#    y 0.000000 1.775180 0.000000 
#    z 0.000000 0.000000 1.876140 
# 
# From -- ./inp_files/4677.got.cif
#   From: 2010.05.17/outbox.cif.g08.bks.cpg/sg95_3_cif.got.tgz:4677.got - 2010.06.03 19:46:49.
