data_PCOD9550939
_publ_section_title
;
Structure prediction by ZEFSAII (Michael W. Deem and Ramdas Pophale) SiO2 
 PCOD9550939
Probable space group: P 43 21 2
;
_chemical_formula_sum "Si O2"
_cell_formula_units_Z 40
_cell_length_a 16.933322
_cell_length_b 16.933322
_cell_length_c 5.297265
_cell_angle_alpha 90.000000
_cell_angle_beta 90.000000
_cell_angle_gamma 90.000000
_cell_volume 1518.923961
_symmetry_space_group_name_H-M "P 43 21 2"
_symmetry_group_IT_number 96
_symmetry_cell_setting 'tetragonal'
loop_
_space_group_symop_operation_xyz
x,y,z
1/2-y,1/2+x,3/4+z
-x,-y,1/2+z
1/2+y,1/2-x,1/4+z
1/2+x,1/2-y,1/4-z
1/2-x,1/2+y,3/4-z
y,x,-z
-y,-x,1/2-z
loop_
_atom_site_type_symbol
_atom_site_label
_atom_site_fract_x
_atom_site_fract_y
_atom_site_fract_z
Si Si1 0.317554 0.877176 0.437398
Si Si2 0.101627 0.248952 0.642060
Si Si3 0.672839 0.540065 0.029964
Si Si4 0.961742 0.961742 0.500000
Si Si5 0.985538 0.613364 0.287675
Si Si6 0.758763 0.758763 0.500000
O O1 0.373799 0.811130 0.318939
O O2 0.251142 0.905935 0.234533
O O3 0.366912 0.958160 0.456502
O O4 0.272836 0.831426 0.660356
O O5 0.181182 0.220060 0.773370
O O6 0.030451 0.190068 0.576354
O O7 0.058914 0.305915 0.851153
O O8 0.630965 0.484039 0.237930
O O9 0.605682 0.605682 0.000000
O O10 0.995563 0.004437 0.250000
O O11 0.047463 0.578557 0.481056
#
# Coordination Sequence:
#
# PCOD9550939 Si02
#       6
#     8   8   8   4   8   4
#     4  10  23  45  65 102 141 186 239 301 365 442
#     4  10  22  42  62  99 139 179 236 294 358 434
#     4  10  21  46  70 100 142 193 243 301 374 443
#     4  10  23  48  74 108 146 192 249 308 378 437
#     4   9  20  38  66  95 137 172 224 294 355 428
#     4  12  23  40  70  96 142 188 243 292 368 443
#
# _framework density 26.334433000000001
#
# number of rings (size 3 to 8) (size 9 to 14) (size 15 to 20)
#    0.000    2.000    0.000    2.400    2.800    0.000 
#   37.800    4.000    0.000    0.000    0.000    0.000 
#    0.000    0.000    0.000    0.000    0.000    0.000 
#
# Total GULP energy -222854.356296 kJ/mol
# GULP energy per Si atom -5571.358907 kJ/mol
# Density = 2.627449 g / cm^3
# Si number density = 26.334433 Si / 1000 Ang^3
#
#
#
# Elastic Constant Matrix: (Units=GPa)
#
#
# Indices 1 2 3 4 5 6 
#
# 1 129.6051 49.0425 29.8003 0.0000 0.0000 0.0000
# 2 49.0425 129.6051 29.8003 0.0000 0.0000 0.0000
# 3 29.8003 29.8003 89.2899 0.0000 0.0000 0.0000
# 4 0.0000 0.0000 0.0000 18.1935 0.0000 0.0000
# 5 0.0000 0.0000 0.0000 0.0000 18.1935 0.0000
# 6 0.0000 0.0000 0.0000 0.0000 0.0000 81.4149
#
#
#
# Elastic Compliance Matrix: (Units=1/GPa)
#
#
# Indices 1 2 3 4 5 6 
#
# 1 0.009356 -0.003057 -0.002102 0.000000 0.000000 0.000000
# 2 -0.003057 0.009356 -0.002102 0.000000 0.000000 0.000000
# 3 -0.002102 -0.002102 0.012603 0.000000 0.000000 0.000000
# 4 0.000000 0.000000 0.000000 0.054965 0.000000 0.000000
# 5 0.000000 0.000000 0.000000 0.000000 0.054965 0.000000
# 6 0.000000 0.000000 0.000000 0.000000 0.000000 0.012283
#
#
# Mechanical properties :
#
#
# Convention : Reuss Voigt Hill
#
# Bulk Modulus (GPa) = 59.55355 62.86513 61.20934
# Shear Modulus (GPa) = 28.79417 39.55087 34.17252
#
# Velocity S-wave (km/s) = 3.31025 3.87960 3.60618
# Velocity P-wave (km/s) = 6.10523 6.63265 6.37440
#
# Compressibility (1/GPa) = 0.01679161
#
# Stress axis : x y z
#
# Youngs Moduli (GPa) = 106.88520 106.88520 79.34788
#
# Poissons Ratio (x) = 0.32673 0.16681
# Poissons Ratio (y) = 0.32673 0.16681
# Poissons Ratio (z) = 0.22470 0.22470
#
# Static dielectric constant tensor:
#      x y z
#    x 2.167070 0.000000 0.000000 
#    y 0.000000 2.167070 0.000000 
#    z 0.000000 0.000000 2.089810 
# 
# From -- ./inp_files/450.got.cif
#   From: 2010.05.17/outbox.cif.g08.bks.cpg/sg96_1_cif.got.tgz:450.got - 2010.06.03 19:52:08.
