data_PCOD9550953
_publ_section_title
;
Structure prediction by ZEFSAII (Michael W. Deem and Ramdas Pophale) SiO2 
 PCOD9550953
Probable space group: P 43 21 2
;
_chemical_formula_sum "Si O2"
_cell_formula_units_Z 56
_cell_length_a 13.999916
_cell_length_b 13.999916
_cell_length_c 12.239686
_cell_angle_alpha 90.000000
_cell_angle_beta 90.000000
_cell_angle_gamma 90.000000
_cell_volume 2398.949668
_symmetry_space_group_name_H-M "P 43 21 2"
_symmetry_group_IT_number 96
_symmetry_cell_setting 'tetragonal'
loop_
_space_group_symop_operation_xyz
x,y,z
1/2-y,1/2+x,3/4+z
-x,-y,1/2+z
1/2+y,1/2-x,1/4+z
1/2+x,1/2-y,1/4-z
1/2-x,1/2+y,3/4-z
y,x,-z
-y,-x,1/2-z
loop_
_atom_site_type_symbol
_atom_site_label
_atom_site_fract_x
_atom_site_fract_y
_atom_site_fract_z
Si Si1 0.014640 0.268078 0.159216
Si Si2 0.374450 0.671553 0.870453
Si Si3 0.041881 0.623969 0.866950
Si Si4 0.701092 0.156027 0.506129
Si Si5 0.983348 0.623392 0.099223
Si Si6 0.529239 0.536145 0.873294
Si Si7 0.221372 0.873587 0.353649
O O1 0.077310 0.173990 0.172480
O O2 0.966051 0.300823 0.270846
O O3 0.091585 0.350741 0.134809
O O4 0.935604 0.267423 0.064565
O O5 0.330857 0.669144 0.750000
O O6 0.352852 0.768915 0.928665
O O7 0.485079 0.643283 0.868236
O O8 0.983433 0.526501 0.838947
O O9 0.994623 0.664303 0.976998
O O10 0.619592 0.128832 0.595285
O O11 0.793779 0.212416 0.551863
O O12 0.067045 0.682027 0.161414
O O13 0.503286 0.496715 0.750000
O O14 0.642566 0.545041 0.875547
O O15 0.502963 0.502963 0.000000
O O16 0.186521 0.813480 0.250000
#
# Coordination Sequence:
#
# PCOD9550953 Si02
#       7
#     8   8   8   8   8   8   8
#     4  11  23  40  64  91 123 160 202 254 309 368
#     4  11  24  41  60  89 125 158 204 260 306 366
#     4  10  22  40  60  92 128 152 196 264 312 354
#     4  12  22  38  68  92 116 168 210 240 316 386
#     4  11  23  40  64  91 123 160 202 254 309 368
#     4  10  22  42  64  88 126 168 208 254 304 366
#     4  11  24  41  60  89 125 158 204 260 306 366
#
# _framework density 23.343551000000001
#
# number of rings (size 3 to 8) (size 9 to 14) (size 15 to 20)
#    0.000    1.143    0.000    8.571    0.000    4.571 
#    0.000    5.714    0.000    0.000    0.000    0.000 
#    0.000    0.000    0.000    0.000    0.000    0.000 
#
# Total GULP energy -312652.224858 kJ/mol
# GULP energy per Si atom -5583.075444 kJ/mol
# Density = 2.329042 g / cm^3
# Si number density = 23.343551 Si / 1000 Ang^3
#
#
#
# Elastic Constant Matrix: (Units=GPa)
#
#
# Indices 1 2 3 4 5 6 
#
# 1 83.8600 -13.4771 4.9645 0.0000 0.0000 0.0000
# 2 -13.4771 83.8608 4.9652 0.0000 0.0000 0.0000
# 3 4.9645 4.9652 124.8772 0.0000 0.0000 0.0000
# 4 0.0000 0.0000 0.0000 25.4372 0.0000 0.0000
# 5 0.0000 0.0000 0.0000 0.0000 25.4376 0.0000
# 6 0.0000 0.0000 0.0000 0.0000 0.0000 16.2510
#
#
#
# Elastic Compliance Matrix: (Units=1/GPa)
#
#
# Indices 1 2 3 4 5 6 
#
# 1 0.012281 0.002007 -0.000568 0.000000 0.000000 0.000000
# 2 0.002007 0.012281 -0.000568 0.000000 0.000000 0.000000
# 3 -0.000568 -0.000568 0.008053 0.000000 0.000000 0.000000
# 4 0.000000 0.000000 0.000000 0.039313 0.000000 0.000000
# 5 0.000000 0.000000 0.000000 0.000000 0.039312 0.000000
# 6 0.000000 0.000000 0.000000 0.000000 0.000000 0.061535
#
#
# Mechanical properties :
#
#
# Convention : Reuss Voigt Hill
#
# Bulk Modulus (GPa) = 29.10624 31.72259 30.41441
# Shear Modulus (GPa) = 27.39972 33.16819 30.28396
#
# Velocity S-wave (km/s) = 3.42973 3.77353 3.60573
# Velocity P-wave (km/s) = 5.30847 5.71008 5.51293
#
# Compressibility (1/GPa) = 0.03435689
#
# Stress axis : x y z
#
# Youngs Moduli (GPa) = 81.42757 81.42833 124.17675
#
# Poissons Ratio (x) = -0.16345 0.07054
# Poissons Ratio (y) = -0.16345 0.07054
# Poissons Ratio (z) = 0.04625 0.04626
#
# Static dielectric constant tensor:
#      x y z
#    x 1.880410 0.000000 0.000000 
#    y 0.000000 1.880410 0.000000 
#    z 0.000000 0.000000 1.990580 
# 
# From -- ./inp_files/2304.got.cif
#   From: 2010.05.17/outbox.cif.g08.bks.cpg/sg96_2_cif.got.tgz:2304.got - 2010.06.03 19:52:08.
