data_PCOD9550082
_publ_section_title
;
Structure prediction by ZEFSAII (Michael W. Deem and Ramdas Pophale) SiO2 
 PCOD9550082
Probable space group: P 42 21 2
;
_chemical_formula_sum "Si O2"
_cell_formula_units_Z 40
_cell_length_a 8.678194
_cell_length_b 8.678194
_cell_length_c 27.116584
_cell_angle_alpha 90.000000
_cell_angle_beta 90.000000
_cell_angle_gamma 90.000000
_cell_volume 2042.178443
_symmetry_space_group_name_H-M "P 42 21 2"
_symmetry_group_IT_number 94
_symmetry_cell_setting 'tetragonal'
loop_
_space_group_symop_operation_xyz
x,y,z
1/2-y,1/2+x,1/2+z
-x,-y,z
1/2+y,1/2-x,1/2+z
1/2+x,1/2-y,1/2-z
1/2-x,1/2+y,1/2-z
y,x,-z
-y,-x,-z
loop_
_atom_site_type_symbol
_atom_site_label
_atom_site_fract_x
_atom_site_fract_y
_atom_site_fract_z
Si Si1 0.838431 0.074689 0.804775
Si Si2 0.000000 0.000000 0.500000
Si Si3 0.250975 0.481982 0.084797
Si Si4 0.936005 0.670567 0.279527
Si Si5 0.500000 0.500000 0.168904
Si Si6 0.504481 0.748032 0.414724
Si Si7 0.000000 0.000000 0.000000
O O1 0.831176 0.253272 0.789203
O O2 0.829690 0.053168 0.863411
O O3 0.701070 0.983445 0.777326
O O4 0.000000 0.000000 0.788611
O O5 0.007823 0.855854 0.536549
O O6 0.352327 0.507390 0.133287
O O7 0.124638 0.613865 0.079786
O O8 0.164934 0.319945 0.089663
O O9 0.000000 0.500000 0.294546
O O10 0.000831 0.830174 0.304612
O O11 0.506617 0.642756 0.462722
#
# Coordination Sequence:
#
# PCOD9550082 Si02
#       7
#     8   2   8   8   4   8   2
#     4  12  26  47  69 102 145 189 240 291 363 436
#     4  10  20  44  68  94 124 176 232 286 348 418
#     4  10  23  42  69  93 135 180 229 286 353 421
#     4  12  28  44  73 105 145 189 240 298 360 439
#     4  11  24  46  68 102 144 186 242 289 352 440
#     4  11  24  41  68  99 137 183 231 291 358 418
#     4  12  24  42  68 102 140 174 244 300 350 424
#
# _framework density 19.586925000000001
#
# number of rings (size 3 to 8) (size 9 to 14) (size 15 to 20)
#    0.000    0.800    4.000    2.400    8.400    0.000 
#    0.000    0.000    0.000    0.000    0.000    0.000 
#    0.000    0.000    0.000    0.000    0.000    0.000 
#
# Total GULP energy -223244.498547 kJ/mol
# GULP energy per Si atom -5581.112464 kJ/mol
# Density = 1.954234 g / cm^3
# Si number density = 19.586925 Si / 1000 Ang^3
#
#
#
# Elastic Constant Matrix: (Units=GPa)
#
#
# Indices 1 2 3 4 5 6 
#
# 1 164.9665 -0.2459 50.2198 0.0000 0.0000 0.0000
# 2 -0.2459 164.9665 50.2198 0.0000 0.0000 0.0000
# 3 50.2198 50.2198 117.0182 0.0000 0.0000 0.0000
# 4 0.0000 0.0000 0.0000 23.3552 0.0000 0.0000
# 5 0.0000 0.0000 0.0000 0.0000 23.3552 0.0000
# 6 0.0000 0.0000 0.0000 0.0000 0.0000 30.1782
#
#
#
# Elastic Compliance Matrix: (Units=1/GPa)
#
#
# Indices 1 2 3 4 5 6 
#
# 1 0.007138 0.001085 -0.003529 0.000000 0.000000 0.000000
# 2 0.001085 0.007138 -0.003529 0.000000 0.000000 0.000000
# 3 -0.003529 -0.003529 0.011575 0.000000 0.000000 0.000000
# 4 0.000000 0.000000 0.000000 0.042817 0.000000 0.000000
# 5 0.000000 0.000000 0.000000 0.000000 0.042817 0.000000
# 6 0.000000 0.000000 0.000000 0.000000 0.000000 0.033136
#
#
# Mechanical properties :
#
#
# Convention : Reuss Voigt Hill
#
# Bulk Modulus (GPa) = 71.91939 71.92651 71.92295
# Shear Modulus (GPa) = 31.01723 38.49491 34.75607
#
# Velocity S-wave (km/s) = 3.98372 4.43802 4.21700
# Velocity P-wave (km/s) = 7.61301 7.94121 7.77884
#
# Compressibility (1/GPa) = 0.01390446
#
# Stress axis : x y z
#
# Youngs Moduli (GPa) = 140.10080 140.10080 86.39635
#
# Poissons Ratio (x) = -0.15200 0.30488
# Poissons Ratio (y) = -0.15200 0.30488
# Poissons Ratio (z) = 0.49439 0.49439
#
# Static dielectric constant tensor:
#      x y z
#    x 1.779810 0.000000 0.000000 
#    y 0.000000 1.779810 0.000000 
#    z 0.000000 0.000000 1.704720 
# 
# From -- ./inp_files/5342.got.cif
#   From: 2010.05.17/outbox.cif.g08.bks.cpg/sg94_3_cif.got.tgz:5342.got - 2010.06.03 19:43:16.
