data_PCOD9550751
_publ_section_title
;
Structure prediction by ZEFSAII (Michael W. Deem and Ramdas Pophale) SiO2 
 PCOD9550751
Probable space group: P 43 21 2
;
_chemical_formula_sum "Si O2"
_cell_formula_units_Z 44
_cell_length_a 22.057513
_cell_length_b 22.057513
_cell_length_c 5.261981
_cell_angle_alpha 90.000000
_cell_angle_beta 90.000000
_cell_angle_gamma 90.000000
_cell_volume 2560.132031
_symmetry_space_group_name_H-M "P 43 21 2"
_symmetry_group_IT_number 96
_symmetry_cell_setting 'tetragonal'
loop_
_space_group_symop_operation_xyz
x,y,z
1/2-y,1/2+x,3/4+z
-x,-y,1/2+z
1/2+y,1/2-x,1/4+z
1/2+x,1/2-y,1/4-z
1/2-x,1/2+y,3/4-z
y,x,-z
-y,-x,1/2-z
loop_
_atom_site_type_symbol
_atom_site_label
_atom_site_fract_x
_atom_site_fract_y
_atom_site_fract_z
Si Si1 0.881166 0.881166 0.000000
Si Si2 0.008710 0.902933 0.827280
Si Si3 0.891130 0.793567 0.388634
Si Si4 0.669435 0.527442 0.099457
Si Si5 0.856775 0.247210 0.752107
Si Si6 0.200476 0.304589 0.001404
O O1 0.886723 0.812272 0.091374
O O2 0.895160 0.936182 0.194907
O O3 0.029850 0.970151 0.750000
O O4 0.043940 0.864601 0.611295
O O5 0.021222 0.877202 0.110742
O O6 0.845570 0.845570 0.500000
O O7 0.863025 0.730433 0.473340
O O8 0.962629 0.801336 0.422248
O O9 0.717827 0.577151 0.016723
O O10 0.808856 0.191145 0.750000
O O11 0.842400 0.287198 0.504935
O O12 0.843851 0.285699 0.003686
O O13 0.250747 0.250747 0.000000
#
# Coordination Sequence:
#
# PCOD9550751 Si02
#       6
#     4   8   8   8   8   8
#     4  10  22  32  50  70 104 132 192 220 266 306
#     4  11  22  34  48  70  98 146 179 224 255 303
#     4  10  20  35  52  75 103 136 177 219 275 304
#     4  11  22  35  54  72 104 137 179 227 264 315
#     4  10  19  34  49  76  97 134 171 212 262 311
#     4   9  20  31  54  71  98 127 172 216 260 319
#
# _framework density 17.186613999999999
#
# number of rings (size 3 to 8) (size 9 to 14) (size 15 to 20)
#    0.000    1.818    1.818    2.727    6.364    4.364 
#    0.000    0.000    0.000    0.000    0.000    0.000 
#    0.000    2.909    0.000    0.000    0.000    0.000 
#
# Total GULP energy -245017.714118 kJ/mol
# GULP energy per Si atom -5568.584412 kJ/mol
# Density = 1.714750 g / cm^3
# Si number density = 17.186614 Si / 1000 Ang^3
#
#
#
# Elastic Constant Matrix: (Units=GPa)
#
#
# Indices 1 2 3 4 5 6 
#
# 1 71.3775 53.2455 45.1688 0.0000 0.0000 0.0000
# 2 53.2455 71.3753 45.1678 0.0000 0.0000 0.0000
# 3 45.1688 45.1678 116.6141 0.0000 0.0000 0.0000
# 4 0.0000 0.0000 0.0000 21.0791 0.0000 0.0000
# 5 0.0000 0.0000 0.0000 0.0000 21.0794 0.0000
# 6 0.0000 0.0000 0.0000 0.0000 0.0000 38.2197
#
#
#
# Elastic Compliance Matrix: (Units=1/GPa)
#
#
# Indices 1 2 3 4 5 6 
#
# 1 0.033155 -0.021999 -0.004321 0.000000 0.000000 0.000000
# 2 -0.021999 0.033156 -0.004321 0.000000 0.000000 0.000000
# 3 -0.004321 -0.004321 0.011923 0.000000 0.000000 0.000000
# 4 0.000000 0.000000 0.000000 0.047440 0.000000 0.000000
# 5 0.000000 0.000000 0.000000 0.000000 0.047440 0.000000
# 6 0.000000 0.000000 0.000000 0.000000 0.000000 0.026165
#
#
# Mechanical properties :
#
#
# Convention : Reuss Voigt Hill
#
# Bulk Modulus (GPa) = 58.99367 60.72565 59.85966
# Shear Modulus (GPa) = 18.78201 23.79462 21.28832
#
# Velocity S-wave (km/s) = 3.30938 3.72490 3.52327
# Velocity P-wave (km/s) = 7.00018 7.34232 7.17329
#
# Compressibility (1/GPa) = 0.01695097
#
# Stress axis : x y z
#
# Youngs Moduli (GPa) = 30.16122 30.16039 83.87228
#
# Poissons Ratio (x) = 0.66349 0.36245
# Poissons Ratio (y) = 0.66351 0.36244
# Poissons Ratio (z) = 0.13034 0.13033
#
# Static dielectric constant tensor:
#      x y z
#    x 1.594190 0.000000 0.000000 
#    y 0.000000 1.594200 0.000000 
#    z 0.000000 0.000000 1.775350 
# 
# From -- ./inp_files/591.got.cif
#   From: 2010.05.17/outbox.cif.g08.bks.cpg/sg96_1_cif.got.tgz:591.got - 2010.06.03 19:52:08.
