data_PCOD9550437
_publ_section_title
;
Structure prediction by ZEFSAII (Michael W. Deem and Ramdas Pophale) SiO2 
 PCOD9550437
Probable space group: P 43 2 2
;
_chemical_formula_sum "Si O2"
_cell_formula_units_Z 48
_cell_length_a 18.659745
_cell_length_b 18.659745
_cell_length_c 8.250063
_cell_angle_alpha 90.000000
_cell_angle_beta 90.000000
_cell_angle_gamma 90.000000
_cell_volume 2872.557124
_symmetry_space_group_name_H-M "P 43 2 2"
_symmetry_group_IT_number 95
_symmetry_cell_setting 'tetragonal'
loop_
_space_group_symop_operation_xyz
x,y,z
-y,x,3/4+z
-x,-y,1/2+z
y,-x,1/4+z
x,-y,1/2-z
-x,y,-z
y,x,1/4-z
-y,-x,3/4-z
loop_
_atom_site_type_symbol
_atom_site_label
_atom_site_fract_x
_atom_site_fract_y
_atom_site_fract_z
Si Si1 0.418710 0.106979 0.986517
Si Si2 0.000000 0.640164 0.500000
Si Si3 0.063886 0.253718 0.772822
Si Si4 0.166125 0.927842 0.488118
Si Si5 0.000000 0.088383 0.500000
Si Si6 0.000000 0.643807 0.000000
Si Si7 0.782416 0.782416 0.125000
Si Si8 0.800282 0.720087 0.770314
O O1 0.402538 0.065340 0.818571
O O2 0.360419 0.170170 0.002064
O O3 0.500000 0.132046 0.000000
O O4 0.405418 0.043911 0.119480
O O5 0.060719 0.693127 0.574449
O O6 0.139675 0.229264 0.706238
O O7 0.007353 0.191135 0.810600
O O8 0.027649 0.302838 0.636954
O O9 0.105544 0.894457 0.375000
O O10 0.230165 0.871106 0.496527
O O11 0.136829 0.940254 0.667178
O O12 0.037998 0.037998 0.625000
O O13 0.733083 0.775625 0.290301
O O14 0.746782 0.746782 0.625000
#
# Coordination Sequence:
#
# PCOD9550437 Si02
#       8
#     8   4   8   8   4   4   4   8
#     4  11  21  38  58  82 113 149 183 232 286 343
#     4  10  21  36  54  80 109 140 186 250 281 346
#     4  11  21  36  54  76 101 138 192 238 292 335
#     4  11  24  38  52  69  95 136 185 239 291 340
#     4  12  27  42  46  62  93 130 186 250 303 340
#     4  10  18  38  52  78 110 134 188 232 276 338
#     4  12  22  34  64  78 102 152 188 244 292 338
#     4  11  23  40  58  86 111 142 188 231 281 344
#
# _framework density 16.709852000000001
#
# number of rings (size 3 to 8) (size 9 to 14) (size 15 to 20)
#    0.000    1.000    5.000    3.500    7.000    0.000 
#    0.000    0.000    0.000    0.000    0.000    0.000 
#    0.000    0.000    2.833    0.000    0.000    0.000 
#
# Total GULP energy -268003.950419 kJ/mol
# GULP energy per Si atom -5583.415634 kJ/mol
# Density = 1.667182 g / cm^3
# Si number density = 16.709852 Si / 1000 Ang^3
#
#
#
# Elastic Constant Matrix: (Units=GPa)
#
#
# Indices 1 2 3 4 5 6 
#
# 1 91.0715 40.8462 32.3985 0.0000 0.0000 0.0000
# 2 40.8462 91.0709 32.3986 0.0000 0.0000 0.0000
# 3 32.3985 32.3986 90.0037 0.0000 0.0000 0.0000
# 4 0.0000 0.0000 0.0000 12.1353 0.0000 0.0000
# 5 0.0000 0.0000 0.0000 0.0000 12.1354 0.0000
# 6 0.0000 0.0000 0.0000 0.0000 0.0000 14.8592
#
#
#
# Elastic Compliance Matrix: (Units=1/GPa)
#
#
# Indices 1 2 3 4 5 6 
#
# 1 0.014560 -0.005351 -0.003315 0.000000 0.000000 0.000000
# 2 -0.005351 0.014560 -0.003315 0.000000 0.000000 0.000000
# 3 -0.003315 -0.003315 0.013497 0.000000 0.000000 0.000000
# 4 0.000000 0.000000 0.000000 0.082404 0.000000 0.000000
# 5 0.000000 0.000000 0.000000 0.000000 0.082404 0.000000
# 6 0.000000 0.000000 0.000000 0.000000 0.000000 0.067299
#
#
# Mechanical properties :
#
#
# Convention : Reuss Voigt Hill
#
# Bulk Modulus (GPa) = 53.60440 53.71474 53.65957
# Shear Modulus (GPa) = 16.39870 18.92616 17.66243
#
# Velocity S-wave (km/s) = 3.13610 3.36911 3.25469
# Velocity P-wave (km/s) = 6.72775 6.88113 6.80487
#
# Compressibility (1/GPa) = 0.01865519
#
# Stress axis : x y z
#
# Youngs Moduli (GPa) = 68.68365 68.68299 74.08973
#
# Poissons Ratio (x) = 0.36751 0.24559
# Poissons Ratio (y) = 0.36752 0.24560
# Poissons Ratio (z) = 0.22767 0.22768
#
# Static dielectric constant tensor:
#      x y z
#    x 1.570500 0.000000 0.000000 
#    y 0.000000 1.570500 0.000000 
#    z 0.000000 0.000000 1.678540 
# 
# From -- ./inp_files/2708.got.cif
#   From: 2010.05.17/outbox.cif.g08.bks.cpg/sg95_2_cif.got.tgz:2708.got - 2010.06.03 19:46:49.
