data_PCOD9550615
_publ_section_title
;
Structure prediction by ZEFSAII (Michael W. Deem and Ramdas Pophale) SiO2 
 PCOD9550615
Probable space group: P 43 2 2
;
_chemical_formula_sum "Si O2"
_cell_formula_units_Z 48
_cell_length_a 9.724630
_cell_length_b 9.724630
_cell_length_c 23.606914
_cell_angle_alpha 90.000000
_cell_angle_beta 90.000000
_cell_angle_gamma 90.000000
_cell_volume 2232.468762
_symmetry_space_group_name_H-M "P 43 2 2"
_symmetry_group_IT_number 95
_symmetry_cell_setting 'tetragonal'
loop_
_space_group_symop_operation_xyz
x,y,z
-y,x,3/4+z
-x,-y,1/2+z
y,-x,1/4+z
x,-y,1/2-z
-x,y,-z
y,x,1/4-z
-y,-x,3/4-z
loop_
_atom_site_type_symbol
_atom_site_label
_atom_site_fract_x
_atom_site_fract_y
_atom_site_fract_z
Si Si1 0.153634 0.434653 0.022468
Si Si2 0.916472 0.254847 0.180445
Si Si3 0.159596 0.457496 0.159094
Si Si4 0.000000 0.997799 0.000000
Si Si5 0.808150 0.775661 0.810227
Si Si6 0.443177 0.556824 0.375000
Si Si7 0.628186 0.351293 0.535788
O O1 0.147000 0.430995 0.091074
O O2 0.238439 0.572857 0.012560
O O3 0.223324 0.312735 0.986512
O O4 0.000000 0.441923 0.000000
O O5 0.848702 0.244035 0.118094
O O6 0.808315 0.344279 0.215325
O O7 0.057983 0.341154 0.183011
O O8 0.923253 0.100899 0.205510
O O9 0.138714 0.618895 0.176314
O O10 0.320574 0.427913 0.170472
O O11 0.886501 0.083905 0.035268
O O12 0.588977 0.588431 0.347469
O O13 0.500000 0.394108 0.500000
#
# Coordination Sequence:
#
# PCOD9550615 Si02
#       7
#     8   8   8   4   8   4   8
#     4  11  22  43  75 104 137 196 243 300 374 438
#     4  12  27  49  70 108 151 190 253 303 387 448
#     4  11  25  42  75 108 144 187 250 311 365 456
#     4  12  30  44  74 102 150 202 242 312 376 458
#     4  12  24  49  73 108 145 198 251 312 376 453
#     4  10  22  46  68 104 128 190 236 304 352 434
#     4  11  26  43  67 102 146 182 233 299 369 436
#
# _framework density 21.500862999999999
#
# number of rings (size 3 to 8) (size 9 to 14) (size 15 to 20)
#    0.000    0.667    5.833    1.500   10.500    0.000 
#    0.000    0.000    0.000    0.000    0.000    0.000 
#    0.000    0.000    0.000    0.000    0.000    0.000 
#
# Total GULP energy -267760.485625 kJ/mol
# GULP energy per Si atom -5578.343451 kJ/mol
# Density = 2.145193 g / cm^3
# Si number density = 21.500863 Si / 1000 Ang^3
#
#
#
# Elastic Constant Matrix: (Units=GPa)
#
#
# Indices 1 2 3 4 5 6 
#
# 1 114.2154 27.0945 34.9491 0.0000 0.0000 0.0000
# 2 27.0945 114.2156 34.9490 0.0000 0.0000 0.0000
# 3 34.9491 34.9490 89.7905 0.0000 0.0000 0.0000
# 4 0.0000 0.0000 0.0000 16.7193 0.0000 0.0000
# 5 0.0000 0.0000 0.0000 0.0000 16.7196 0.0000
# 6 0.0000 0.0000 0.0000 0.0000 0.0000 -32.0966
#
#
#
# Elastic Compliance Matrix: (Units=1/GPa)
#
#
# Indices 1 2 3 4 5 6 
#
# 1 0.010121 -0.001357 -0.003411 0.000000 0.000000 0.000000
# 2 -0.001357 0.010121 -0.003411 0.000000 0.000000 0.000000
# 3 -0.003411 -0.003411 0.013792 0.000000 0.000000 0.000000
# 4 0.000000 0.000000 0.000000 0.059811 0.000000 0.000000
# 5 0.000000 0.000000 0.000000 0.000000 0.059810 0.000000
# 6 0.000000 0.000000 0.000000 0.000000 0.000000 -0.031156
#
#
# Mechanical properties :
#
#
# Convention : Reuss Voigt Hill
#
# Bulk Modulus (GPa) = 56.57493 56.91187 56.74340
# Shear Modulus (GPa) = 34.54204 15.01704 24.77954
#
# Velocity S-wave (km/s) = 4.01252 2.64567 3.39852
# Velocity P-wave (km/s) = 6.91643 5.98830 6.46903
#
# Compressibility (1/GPa) = 0.01767568
#
# Stress axis : x y z
#
# Youngs Moduli (GPa) = 98.80318 98.80338 72.50320
#
# Poissons Ratio (x) = 0.13409 0.24732
# Poissons Ratio (y) = 0.13409 0.24732
# Poissons Ratio (z) = 0.33704 0.33704
#
# Static dielectric constant tensor:
#      x y z
#    x 1.817300 0.000000 0.000000 
#    y 0.000000 1.817300 0.000000 
#    z 0.000000 0.000000 1.796570 
# 
# From -- ./inp_files/8032.got.cif
#   From: 2010.05.17/outbox.cif.g08.bks.cpg/sg95_5_cif.got.tgz:8032.got - 2010.06.03 19:46:49.
