data_PCOD9550439
_publ_section_title
;
Structure prediction by ZEFSAII (Michael W. Deem and Ramdas Pophale) SiO2 
 PCOD9550439
Probable space group: P 43 2 2
;
_chemical_formula_sum "Si O2"
_cell_formula_units_Z 44
_cell_length_a 20.546480
_cell_length_b 20.546480
_cell_length_c 5.168327
_cell_angle_alpha 90.000000
_cell_angle_beta 90.000000
_cell_angle_gamma 90.000000
_cell_volume 2181.849765
_symmetry_space_group_name_H-M "P 43 2 2"
_symmetry_group_IT_number 95
_symmetry_cell_setting 'tetragonal'
loop_
_space_group_symop_operation_xyz
x,y,z
-y,x,3/4+z
-x,-y,1/2+z
y,-x,1/4+z
x,-y,1/2-z
-x,y,-z
y,x,1/4-z
-y,-x,3/4-z
loop_
_atom_site_type_symbol
_atom_site_label
_atom_site_fract_x
_atom_site_fract_y
_atom_site_fract_z
Si Si1 0.663269 0.172835 0.041827
Si Si2 0.936414 0.608266 0.162167
Si Si3 0.761206 0.761206 0.125000
Si Si4 0.120923 0.066032 0.362739
Si Si5 0.260609 0.901557 0.146116
Si Si6 0.458221 0.161343 0.260921
O O1 0.620484 0.127733 0.233610
O O2 0.701276 0.232539 0.173803
O O3 0.717487 0.123044 0.928890
O O4 0.612611 0.191118 0.813112
O O5 0.942501 0.679114 0.288502
O O6 0.911419 0.560622 0.388643
O O7 0.000000 0.590142 0.000000
O O8 0.831513 0.753924 0.261001
O O9 0.087659 0.087659 0.625000
O O10 0.196819 0.057901 0.408633
O O11 0.092815 0.000000 0.250000
O O12 0.116163 0.116163 0.125000
O O13 0.500000 0.190366 0.500000
O O14 0.500000 0.162223 0.000000
#
# Coordination Sequence:
#
# PCOD9550439 Si02
#       6
#     8   8   4   8   8   8
#     4  10  21  37  59  87 116 156 189 256 309 362
#     4  10  23  39  60  86 119 152 201 248 311 368
#     4  10  18  38  60  86 120 142 196 250 326 362
#     4  12  27  45  65  86 110 144 186 235 309 393
#     4  10  22  37  61  89 119 143 190 253 321 378
#     4  11  22  43  59  82 120 162 205 241 297 364
#
# _framework density 20.166374999999999
#
# number of rings (size 3 to 8) (size 9 to 14) (size 15 to 20)
#    0.000    1.455    2.727    2.182    5.091    2.909 
#    3.273    0.000    0.000    0.000    0.000    0.000 
#    0.000    0.000    0.000    0.000    0.000    0.000 
#
# Total GULP energy -245419.622415 kJ/mol
# GULP energy per Si atom -5577.718691 kJ/mol
# Density = 2.012048 g / cm^3
# Si number density = 20.166375 Si / 1000 Ang^3
#
#
#
# Elastic Constant Matrix: (Units=GPa)
#
#
# Indices 1 2 3 4 5 6 
#
# 1 14.0087 75.2778 32.3507 0.0000 0.0000 0.0000
# 2 75.2778 14.0087 32.3507 0.0000 0.0000 0.0000
# 3 32.3507 32.3507 121.9279 0.0000 0.0000 0.0000
# 4 0.0000 0.0000 0.0000 30.1485 0.0000 0.0000
# 5 0.0000 0.0000 0.0000 0.0000 30.1485 0.0000
# 6 0.0000 0.0000 0.0000 0.0000 0.0000 7.7182
#
#
#
# Elastic Compliance Matrix: (Units=1/GPa)
#
#
# Indices 1 2 3 4 5 6 
#
# 1 -0.001228 0.015094 -0.003679 0.000000 0.000000 0.000000
# 2 0.015094 -0.001228 -0.003679 0.000000 0.000000 0.000000
# 3 -0.003679 -0.003679 0.010154 0.000000 0.000000 0.000000
# 4 0.000000 0.000000 0.000000 0.033169 0.000000 0.000000
# 5 0.000000 0.000000 0.000000 0.000000 0.033169 0.000000
# 6 0.000000 0.000000 0.000000 0.000000 0.000000 0.129563
#
#
# Mechanical properties :
#
#
# Convention : Reuss Voigt Hill
#
# Bulk Modulus (GPa) = 43.15992 47.76708 45.46350
# Shear Modulus (GPa) = 25.52951 14.26746 19.89848
#
# Velocity S-wave (km/s) = 3.56187 2.66275 3.14461
# Velocity P-wave (km/s) = 6.19389 5.76121 5.98147
#
# Compressibility (1/GPa) = 0.02316964
#
# Stress axis : x y z
#
# Youngs Moduli (GPa) = -814.47115 -814.47115 98.48504
#
# Poissons Ratio (x) = 12.29335 0.36232
# Poissons Ratio (y) = 12.29335 0.36232
# Poissons Ratio (z) = -2.99642 -2.99642
#
# Static dielectric constant tensor:
#      x y z
#    x 1.759880 0.000000 0.000000 
#    y 0.000000 1.759880 0.000000 
#    z 0.000000 0.000000 1.883940 
# 
# From -- ./inp_files/1175.got.cif
#   From: 2010.05.17/outbox.cif.g08.bks.cpg/sg95_1_cif.got.tgz:1175.got - 2010.06.03 19:46:49.
