data_PCOD9550845
_publ_section_title
;
Structure prediction by ZEFSAII (Michael W. Deem and Ramdas Pophale) SiO2 
 PCOD9550845
Probable space group: P 43 21 2
;
_chemical_formula_sum "Si O2"
_cell_formula_units_Z 60
_cell_length_a 17.370663
_cell_length_b 17.370663
_cell_length_c 9.407662
_cell_angle_alpha 90.000000
_cell_angle_beta 90.000000
_cell_angle_gamma 90.000000
_cell_volume 2838.667302
_symmetry_space_group_name_H-M "P 43 21 2"
_symmetry_group_IT_number 96
_symmetry_cell_setting 'tetragonal'
loop_
_space_group_symop_operation_xyz
x,y,z
1/2-y,1/2+x,3/4+z
-x,-y,1/2+z
1/2+y,1/2-x,1/4+z
1/2+x,1/2-y,1/4-z
1/2-x,1/2+y,3/4-z
y,x,-z
-y,-x,1/2-z
loop_
_atom_site_type_symbol
_atom_site_label
_atom_site_fract_x
_atom_site_fract_y
_atom_site_fract_z
Si Si1 0.345601 0.965702 0.735098
Si Si2 0.041602 0.911171 0.977468
Si Si3 0.428378 0.841605 0.929935
Si Si4 0.635700 0.635700 0.000000
Si Si5 0.187355 0.389923 0.568251
Si Si6 0.135750 0.372518 0.266758
Si Si7 0.765063 0.871868 0.449738
Si Si8 0.327170 0.496060 0.947442
O O1 0.325977 0.938877 0.575743
O O2 0.263336 0.973170 0.814355
O O3 0.389561 0.045591 0.722952
O O4 0.401028 0.907732 0.818964
O O5 0.005931 0.852292 0.861714
O O6 0.116744 0.943439 0.894890
O O7 0.071367 0.875967 0.126304
O O8 0.980084 0.980084 0.000000
O O9 0.369296 0.854437 0.061235
O O10 0.520159 0.838717 0.953835
O O11 0.413858 0.764197 0.840452
O O12 0.623051 0.719851 0.924136
O O13 0.168800 0.352629 0.417092
O O14 0.139146 0.299723 0.165608
O O15 0.789103 0.789103 0.500000
O O16 0.831410 0.919597 0.372225
#
# Coordination Sequence:
#
# PCOD9550845 Si02
#       8
#     8   8   8   4   8   8   8   8
#     4  10  20  40  61  89 128 165 227 271 336 406
#     4  11  23  40  67  98 128 179 237 283 351 410
#     4  11  24  42  68  98 132 181 229 286 352 429
#     4  12  26  44  66 100 152 186 232 308 366 426
#     4  12  26  42  66  99 144 179 231 287 365 420
#     4  10  22  38  62  92 127 171 217 267 336 416
#     4  10  22  41  65  89 126 170 227 270 341 409
#     4  10  21  41  64  93 127 172 225 291 336 412
#
# _framework density 21.136678
#
# number of rings (size 3 to 8) (size 9 to 14) (size 15 to 20)
#    0.000    1.333    0.000    6.800    1.867    5.333 
#    9.600    0.000    1.467    0.000    0.000    0.000 
#    0.000    0.000    0.000    0.000    0.000    0.000 
#
# Total GULP energy -334535.918322 kJ/mol
# GULP energy per Si atom -5575.598639 kJ/mol
# Density = 2.108857 g / cm^3
# Si number density = 21.136678 Si / 1000 Ang^3
#
#
#
# Elastic Constant Matrix: (Units=GPa)
#
#
# Indices 1 2 3 4 5 6 
#
# 1 -47.9275 143.3914 26.2942 0.0000 0.0000 0.0000
# 2 143.3914 -47.9275 26.2942 0.0000 0.0000 0.0000
# 3 26.2942 26.2942 135.7231 0.0000 0.0000 0.0000
# 4 0.0000 0.0000 0.0000 2.9853 0.0000 0.0000
# 5 0.0000 0.0000 0.0000 0.0000 2.9853 0.0000
# 6 0.0000 0.0000 0.0000 0.0000 0.0000 19.6357
#
#
#
# Elastic Compliance Matrix: (Units=1/GPa)
#
#
# Indices 1 2 3 4 5 6 
#
# 1 0.003250 0.008477 -0.002272 0.000000 0.000000 0.000000
# 2 0.008477 0.003250 -0.002272 0.000000 0.000000 0.000000
# 3 -0.002272 -0.002272 0.008248 0.000000 0.000000 0.000000
# 4 0.000000 0.000000 0.000000 0.334970 0.000000 0.000000
# 5 0.000000 0.000000 0.000000 0.000000 0.334970 0.000000
# 6 0.000000 0.000000 0.000000 0.000000 0.000000 0.050928
#
#
# Mechanical properties :
#
#
# Convention : Reuss Voigt Hill
#
# Bulk Modulus (GPa) = 44.22019 47.98089 46.10054
# Shear Modulus (GPa) = 6.80006 -5.28616 0.75695
#
# Velocity S-wave (km/s) = 1.79560 -1.58315 0.59908
# Velocity P-wave (km/s) = 5.02647 4.40542 4.72616
#
# Compressibility (1/GPa) = 0.02261410
#
# Stress axis : x y z
#
# Youngs Moduli (GPa) = 307.70264 307.70264 121.23832
#
# Poissons Ratio (x) = -2.60832 0.27544
# Poissons Ratio (y) = -2.60832 0.27544
# Poissons Ratio (z) = 0.69906 0.69906
#
# Static dielectric constant tensor:
#      x y z
#    x 1.888560 0.000000 0.000000 
#    y 0.000000 1.888560 0.000000 
#    z 0.000000 0.000000 1.818700 
# 
# From -- ./inp_files/1609.got.cif
#   From: 2010.05.17/outbox.cif.g08.bks.cpg/sg96_1_cif.got.tgz:1609.got - 2010.06.03 19:52:08.
