data_PCOD9550684
_publ_section_title
;
Structure prediction by ZEFSAII (Michael W. Deem and Ramdas Pophale) SiO2 
 PCOD9550684
Probable space group: P 43 2 2
;
_chemical_formula_sum "Si O2"
_cell_formula_units_Z 36
_cell_length_a 12.203957
_cell_length_b 12.203957
_cell_length_c 10.581060
_cell_angle_alpha 90.000000
_cell_angle_beta 90.000000
_cell_angle_gamma 90.000000
_cell_volume 1575.906746
_symmetry_space_group_name_H-M "P 43 2 2"
_symmetry_group_IT_number 95
_symmetry_cell_setting 'tetragonal'
loop_
_space_group_symop_operation_xyz
x,y,z
-y,x,3/4+z
-x,-y,1/2+z
y,-x,1/4+z
x,-y,1/2-z
-x,y,-z
y,x,1/4-z
-y,-x,3/4-z
loop_
_atom_site_type_symbol
_atom_site_label
_atom_site_fract_x
_atom_site_fract_y
_atom_site_fract_z
Si Si1 0.618872 0.719883 0.961260
Si Si2 0.754764 0.894312 0.525907
Si Si3 0.142676 0.500000 0.250000
Si Si4 0.522670 0.674429 0.704683
Si Si5 0.176801 0.867417 0.016896
O O1 0.610335 0.706530 0.810063
O O2 0.638815 0.595345 0.004469
O O3 0.500000 0.759851 0.000000
O O4 0.708309 0.805188 0.003435
O O5 0.801841 0.801841 0.625000
O O6 0.621861 0.908382 0.516711
O O7 0.797503 0.874925 0.381952
O O8 0.804773 0.010406 0.567030
O O9 0.221674 0.495084 0.370475
O O10 0.576848 0.576848 0.625000
O O11 0.126120 0.873881 0.875000
#
# Coordination Sequence:
#
# PCOD9550684 Si02
#       5
#     8   8   4   8   8
#     4  12  24  38  64 104 146 190 243 296 366 450
#     4  12  28  52  80 110 149 201 257 315 382 458
#     4  12  24  44  72 108 152 190 240 310 380 456
#     4  12  20  39  66  98 148 199 238 289 364 459
#     4  12  27  51  75 111 148 196 259 321 382 440
#
# _framework density 22.843992
#
# number of rings (size 3 to 8) (size 9 to 14) (size 15 to 20)
#    0.000    0.000    4.444    6.667    1.556    2.667 
#    0.000    2.222    0.000    0.000    0.000    0.000 
#    0.000    0.000    0.000    0.000    0.000    0.000 
#
# Total GULP energy -201129.979189 kJ/mol
# GULP energy per Si atom -5586.943866 kJ/mol
# Density = 2.279200 g / cm^3
# Si number density = 22.843992 Si / 1000 Ang^3
#
#
#
# Elastic Constant Matrix: (Units=GPa)
#
#
# Indices 1 2 3 4 5 6 
#
# 1 62.9715 44.8483 10.4410 0.0000 0.0000 0.0000
# 2 44.8483 62.9711 10.4401 0.0000 0.0000 0.0000
# 3 10.4410 10.4401 113.2271 0.0000 0.0000 0.0000
# 4 0.0000 0.0000 0.0000 21.2910 0.0000 0.0000
# 5 0.0000 0.0000 0.0000 0.0000 21.2909 0.0000
# 6 0.0000 0.0000 0.0000 0.0000 0.0000 14.6159
#
#
#
# Elastic Compliance Matrix: (Units=1/GPa)
#
#
# Indices 1 2 3 4 5 6 
#
# 1 0.032311 -0.022868 -0.000871 0.000000 0.000000 0.000000
# 2 -0.022868 0.032311 -0.000871 0.000000 0.000000 0.000000
# 3 -0.000871 -0.000871 0.008992 0.000000 0.000000 0.000000
# 4 0.000000 0.000000 0.000000 0.046968 0.000000 0.000000
# 5 0.000000 0.000000 0.000000 0.000000 0.046968 0.000000
# 6 0.000000 0.000000 0.000000 0.000000 0.000000 0.068419
#
#
# Mechanical properties :
#
#
# Convention : Reuss Voigt Hill
#
# Bulk Modulus (GPa) = 40.99014 41.18095 41.08555
# Shear Modulus (GPa) = 17.04625 23.00227 20.02426
#
# Velocity S-wave (km/s) = 2.73463 3.17666 2.96390
# Velocity P-wave (km/s) = 5.28710 5.61436 5.45319
#
# Compressibility (1/GPa) = 0.02439611
#
# Stress axis : x y z
#
# Youngs Moduli (GPa) = 30.94930 30.94919 111.20512
#
# Poissons Ratio (x) = 0.70773 0.09686
# Poissons Ratio (y) = 0.70774 0.09681
# Poissons Ratio (z) = 0.02696 0.02694
#
# Static dielectric constant tensor:
#      x y z
#    x 1.855340 0.000000 0.000000 
#    y 0.000000 1.855340 0.000000 
#    z 0.000000 0.000000 1.935930 
# 
# From -- ./inp_files/3581.got.cif
#   From: 2010.05.17/outbox.cif.g08.bks.cpg/sg95_2_cif.got.tgz:3581.got - 2010.06.03 19:46:49.
