data_PCOD9550507
_publ_section_title
;
Structure prediction by ZEFSAII (Michael W. Deem and Ramdas Pophale) SiO2 
 PCOD9550507
Probable space group: P 43 2 2
;
_chemical_formula_sum "Si O2"
_cell_formula_units_Z 60
_cell_length_a 17.024004
_cell_length_b 17.024004
_cell_length_c 9.697848
_cell_angle_alpha 90.000000
_cell_angle_beta 90.000000
_cell_angle_gamma 90.000000
_cell_volume 2810.598423
_symmetry_space_group_name_H-M "P 43 2 2"
_symmetry_group_IT_number 95
_symmetry_cell_setting 'tetragonal'
loop_
_space_group_symop_operation_xyz
x,y,z
-y,x,3/4+z
-x,-y,1/2+z
y,-x,1/4+z
x,-y,1/2-z
-x,y,-z
y,x,1/4-z
-y,-x,3/4-z
loop_
_atom_site_type_symbol
_atom_site_label
_atom_site_fract_x
_atom_site_fract_y
_atom_site_fract_z
Si Si1 0.692496 0.950329 0.387277
Si Si2 0.594188 0.325801 0.505837
Si Si3 0.845179 0.818933 0.970337
Si Si4 0.148567 0.581955 0.328616
Si Si5 0.052870 0.732781 0.637380
Si Si6 0.406664 0.321471 0.009364
Si Si7 0.424495 0.855236 0.090379
Si Si8 0.000000 0.075853 0.500000
O O1 0.735017 0.872112 0.333352
O O2 0.632038 0.919607 0.504131
O O3 0.667179 0.000000 0.250000
O O4 0.754171 0.002379 0.476846
O O5 0.500000 0.344754 0.500000
O O6 0.640206 0.359795 0.375000
O O7 0.641884 0.367700 0.626289
O O8 0.596796 0.232040 0.534822
O O9 0.786507 0.869966 0.877368
O O10 0.924503 0.869965 0.977664
O O11 0.812066 0.812066 0.125000
O O12 0.146818 0.500000 0.250000
O O13 0.233663 0.620544 0.298922
O O14 0.144849 0.565166 0.492879
O O15 0.085762 0.647305 0.676521
O O16 0.000000 0.734351 0.500000
O O17 0.381812 0.381812 0.125000
O O18 0.500000 0.317912 0.000000
O O19 0.500000 0.879879 0.000000
O O20 0.019697 0.019697 0.625000
#
# Coordination Sequence:
#
# PCOD9550507 Si02
#       8
#     8   8   8   8   8   8   8   4
#     4  12  25  48  75 108 147 191 247 305 371 448
#     4  11  25  43  70 106 147 196 254 305 374 453
#     4  11  23  44  71 101 146 188 240 298 354 446
#     4  11  27  47  73 107 142 192 248 308 377 444
#     4  12  27  48  72 112 148 187 249 309 372 443
#     4  11  23  41  68 101 148 194 244 307 373 445
#     4  11  27  50  73 104 148 192 250 312 374 449
#     4  10  20  38  60  96 138 184 236 278 354 426
#
# _framework density 21.347764999999999
#
# number of rings (size 3 to 8) (size 9 to 14) (size 15 to 20)
#    0.000    0.800    4.667    1.600   10.267    3.200 
#    0.000    0.000    0.000    0.000    0.000    0.000 
#    0.000    0.000    0.000    0.000    0.000    0.000 
#
# Total GULP energy -335044.666242 kJ/mol
# GULP energy per Si atom -5584.077771 kJ/mol
# Density = 2.129918 g / cm^3
# Si number density = 21.347765 Si / 1000 Ang^3
#
#
#
# Elastic Constant Matrix: (Units=GPa)
#
#
# Indices 1 2 3 4 5 6 
#
# 1 82.0470 45.3197 42.3858 0.0000 0.0000 0.0000
# 2 45.3197 82.0476 42.3856 0.0000 0.0000 0.0000
# 3 42.3858 42.3856 168.5897 0.0000 0.0000 0.0000
# 4 0.0000 0.0000 0.0000 42.4077 0.0000 0.0000
# 5 0.0000 0.0000 0.0000 0.0000 42.4075 0.0000
# 6 0.0000 0.0000 0.0000 0.0000 0.0000 21.3254
#
#
#
# Elastic Compliance Matrix: (Units=1/GPa)
#
#
# Indices 1 2 3 4 5 6 
#
# 1 0.018328 -0.008899 -0.002371 0.000000 0.000000 0.000000
# 2 -0.008899 0.018328 -0.002371 0.000000 0.000000 0.000000
# 3 -0.002371 -0.002371 0.007124 0.000000 0.000000 0.000000
# 4 0.000000 0.000000 0.000000 0.023581 0.000000 0.000000
# 5 0.000000 0.000000 0.000000 0.000000 0.023581 0.000000
# 6 0.000000 0.000000 0.000000 0.000000 0.000000 0.046892
#
#
# Mechanical properties :
#
#
# Convention : Reuss Voigt Hill
#
# Bulk Modulus (GPa) = 60.60832 65.87406 63.24119
# Shear Modulus (GPa) = 29.30583 34.73433 32.02008
#
# Velocity S-wave (km/s) = 3.70913 4.03807 3.87709
# Velocity P-wave (km/s) = 6.84077 7.25713 7.05202
#
# Compressibility (1/GPa) = 0.01649938
#
# Stress axis : x y z
#
# Youngs Moduli (GPa) = 54.56014 54.56066 140.37912
#
# Poissons Ratio (x) = 0.48555 0.33279
# Poissons Ratio (y) = 0.48554 0.33278
# Poissons Ratio (z) = 0.12934 0.12934
#
# Static dielectric constant tensor:
#      x y z
#    x 1.801060 0.000000 0.000000 
#    y 0.000000 1.801060 0.000000 
#    z 0.000000 0.000000 1.700570 
# 
# From -- ./inp_files/2836.got.cif
#   From: 2010.05.17/outbox.cif.g08.bks.cpg/sg95_2_cif.got.tgz:2836.got - 2010.06.03 19:46:49.
