data_PCOD9550825
_publ_section_title
;
Structure prediction by ZEFSAII (Michael W. Deem and Ramdas Pophale) SiO2 
 PCOD9550825
Probable space group: P 43 21 2
;
_chemical_formula_sum "Si O2"
_cell_formula_units_Z 44
_cell_length_a 9.449828
_cell_length_b 9.449828
_cell_length_c 27.736855
_cell_angle_alpha 90.000000
_cell_angle_beta 90.000000
_cell_angle_gamma 90.000000
_cell_volume 2476.880327
_symmetry_space_group_name_H-M "P 43 21 2"
_symmetry_group_IT_number 96
_symmetry_cell_setting 'tetragonal'
loop_
_space_group_symop_operation_xyz
x,y,z
1/2-y,1/2+x,3/4+z
-x,-y,1/2+z
1/2+y,1/2-x,1/4+z
1/2+x,1/2-y,1/4-z
1/2-x,1/2+y,3/4-z
y,x,-z
-y,-x,1/2-z
loop_
_atom_site_type_symbol
_atom_site_label
_atom_site_fract_x
_atom_site_fract_y
_atom_site_fract_z
Si Si1 0.071661 0.928340 0.750000
Si Si2 0.136613 0.493142 0.962479
Si Si3 0.220148 0.378058 0.128972
Si Si4 0.014183 0.173321 0.071229
Si Si5 0.554869 0.726791 0.790795
Si Si6 0.383159 0.754244 0.444574
O O1 0.075992 0.794077 0.714109
O O2 0.932373 0.895172 0.780626
O O3 0.125073 0.623399 0.926563
O O4 0.026258 0.373045 0.948862
O O5 0.131083 0.553432 0.017191
O O6 0.376260 0.328566 0.145008
O O7 0.231051 0.532403 0.104826
O O8 0.132399 0.280445 0.091630
O O9 0.963988 0.209343 0.017005
O O10 0.096557 0.024654 0.066400
O O11 0.716609 0.733870 0.806340
#
# Coordination Sequence:
#
# PCOD9550825 Si02
#       6
#     4   8   8   8   8   8
#     4   8  16  38  58  82 114 148 196 254 284 340
#     4  10  20  38  60  88 116 156 201 252 290 359
#     4  12  22  37  63  91 114 153 210 245 294 363
#     4  11  22  36  62  89 112 156 201 244 293 359
#     4  11  21  39  59  83 124 157 189 245 311 348
#     4  10  21  36  61  86 119 150 197 251 292 351
#
# _framework density 17.764281
#
# number of rings (size 3 to 8) (size 9 to 14) (size 15 to 20)
#    1.091    0.364    3.636    4.364    0.000    1.455 
#    0.000    0.000    4.000    0.000    0.000    0.000 
#    0.000    0.000    0.000    0.000    0.000    0.000 
#
# Total GULP energy -245063.329758 kJ/mol
# GULP energy per Si atom -5569.621131 kJ/mol
# Density = 1.772385 g / cm^3
# Si number density = 17.764281 Si / 1000 Ang^3
#
#
#
# Elastic Constant Matrix: (Units=GPa)
#
#
# Indices 1 2 3 4 5 6 
#
# 1 108.5607 43.0812 13.7071 0.0000 0.0000 0.0000
# 2 43.0812 108.5609 13.7067 0.0000 0.0000 0.0000
# 3 13.7071 13.7067 49.9382 0.0000 0.0000 0.0000
# 4 0.0000 0.0000 0.0000 26.0476 0.0000 0.0000
# 5 0.0000 0.0000 0.0000 0.0000 26.0477 0.0000
# 6 0.0000 0.0000 0.0000 0.0000 0.0000 6.0934
#
#
#
# Elastic Compliance Matrix: (Units=1/GPa)
#
#
# Indices 1 2 3 4 5 6 
#
# 1 0.011105 -0.004167 -0.001905 0.000000 0.000000 0.000000
# 2 -0.004167 0.011105 -0.001904 0.000000 0.000000 0.000000
# 3 -0.001905 -0.001904 0.021070 0.000000 0.000000 0.000000
# 4 0.000000 0.000000 0.000000 0.038391 0.000000 0.000000
# 5 0.000000 0.000000 0.000000 0.000000 0.038391 0.000000
# 6 0.000000 0.000000 0.000000 0.000000 0.000000 0.164112
#
#
# Mechanical properties :
#
#
# Convention : Reuss Voigt Hill
#
# Bulk Modulus (GPa) = 36.59029 45.33888 40.96458
# Shear Modulus (GPa) = 16.16883 24.74206 20.45544
#
# Velocity S-wave (km/s) = 3.02020 3.73607 3.39705
# Velocity P-wave (km/s) = 5.72753 6.64747 6.20457
#
# Compressibility (1/GPa) = 0.02732966
#
# Stress axis : x y z
#
# Youngs Moduli (GPa) = 90.04644 90.04682 47.46030
#
# Poissons Ratio (x) = 0.37519 0.09039
# Poissons Ratio (y) = 0.37519 0.09039
# Poissons Ratio (z) = 0.17150 0.17149
#
# Static dielectric constant tensor:
#      x y z
#    x 1.589540 0.000000 0.000000 
#    y 0.000000 1.589540 0.000000 
#    z 0.000000 0.000000 1.648720 
# 
# From -- ./inp_files/4369.got.cif
#   From: 2010.05.17/outbox.cif.g08.bks.cpg/sg96_3_cif.got.tgz:4369.got - 2010.06.03 19:52:08.
