data_PCOD9550052
_publ_section_title
;
Structure prediction by ZEFSAII (Michael W. Deem and Ramdas Pophale) SiO2 
 PCOD9550052
Probable space group: P 42 21 2
;
_chemical_formula_sum "Si O2"
_cell_formula_units_Z 40
_cell_length_a 7.930609
_cell_length_b 7.930609
_cell_length_c 27.104254
_cell_angle_alpha 90.000000
_cell_angle_beta 90.000000
_cell_angle_gamma 90.000000
_cell_volume 1704.710105
_symmetry_space_group_name_H-M "P 42 21 2"
_symmetry_group_IT_number 94
_symmetry_cell_setting 'tetragonal'
loop_
_space_group_symop_operation_xyz
x,y,z
1/2-y,1/2+x,1/2+z
-x,-y,z
1/2+y,1/2-x,1/2+z
1/2+x,1/2-y,1/2-z
1/2-x,1/2+y,1/2-z
y,x,-z
-y,-x,-z
loop_
_atom_site_type_symbol
_atom_site_label
_atom_site_fract_x
_atom_site_fract_y
_atom_site_fract_z
Si Si1 0.322485 0.659985 0.915087
Si Si2 0.171045 0.905168 0.771620
Si Si3 0.786318 0.188870 0.554289
Si Si4 0.176223 0.545461 0.819316
Si Si5 0.011177 0.296075 0.122626
O O1 0.232158 0.507108 0.943384
O O2 0.509274 0.681052 0.937383
O O3 0.319039 0.584499 0.859357
O O4 0.240237 0.843571 0.907750
O O5 0.148927 0.715069 0.788499
O O6 0.244590 0.995513 0.820471
O O7 0.278867 0.910158 0.721950
O O8 0.000000 0.000000 0.758806
O O9 0.745820 0.254181 0.500000
O O10 0.731280 0.318662 0.596779
O O11 0.000000 0.500000 0.844734
O O12 0.000000 0.500000 0.121150
#
# Coordination Sequence:
#
# PCOD9550052 Si02
#       5
#     8   8   8   8   8
#     4   9  20  37  61  91 127 159 217 261 320 395
#     4  11  24  38  63  88 132 170 214 269 321 400
#     4  10  20  38  69  94 122 171 217 268 338 391
#     4  11  24  40  59  96 126 175 217 261 335 397
#     4   9  20  39  63  89 126 167 208 270 325 390
#
# _framework density 23.464400000000001
#
# number of rings (size 3 to 8) (size 9 to 14) (size 15 to 20)
#    0.000    2.000    0.000    3.000    8.400    1.600 
#    0.000    5.000    4.400    0.000    0.000    0.000 
#    0.000    0.000    0.000    0.000    0.000    0.000 
#
# Total GULP energy -223344.291967 kJ/mol
# GULP energy per Si atom -5583.607299 kJ/mol
# Density = 2.341099 g / cm^3
# Si number density = 23.464400 Si / 1000 Ang^3
#
#
#
# Elastic Constant Matrix: (Units=GPa)
#
#
# Indices 1 2 3 4 5 6 
#
# 1 60.6855 4.0807 4.8323 0.0000 0.0000 0.0000
# 2 4.0807 60.6855 4.8324 0.0000 0.0000 0.0000
# 3 4.8323 4.8324 60.5912 0.0000 0.0000 0.0000
# 4 0.0000 0.0000 0.0000 24.7585 0.0000 0.0000
# 5 0.0000 0.0000 0.0000 0.0000 24.7587 0.0000
# 6 0.0000 0.0000 0.0000 0.0000 0.0000 14.9278
#
#
#
# Elastic Compliance Matrix: (Units=1/GPa)
#
#
# Indices 1 2 3 4 5 6 
#
# 1 0.016646 -0.001020 -0.001246 0.000000 0.000000 0.000000
# 2 -0.001020 0.016646 -0.001246 0.000000 0.000000 0.000000
# 3 -0.001246 -0.001246 0.016703 0.000000 0.000000 0.000000
# 4 0.000000 0.000000 0.000000 0.040390 0.000000 0.000000
# 5 0.000000 0.000000 0.000000 0.000000 0.040390 0.000000
# 6 0.000000 0.000000 0.000000 0.000000 0.000000 0.066989
#
#
# Mechanical properties :
#
#
# Convention : Reuss Voigt Hill
#
# Bulk Modulus (GPa) = 23.27198 23.27255 23.27227
# Shear Modulus (GPa) = 22.81928 24.10346 23.46137
#
# Velocity S-wave (km/s) = 3.12189 3.20853 3.16550
# Velocity P-wave (km/s) = 4.78899 4.86477 4.82703
#
# Compressibility (1/GPa) = 0.04297013
#
# Stress axis : x y z
#
# Youngs Moduli (GPa) = 60.07365 60.07361 59.87011
#
# Poissons Ratio (x) = 0.06128 0.07461
# Poissons Ratio (y) = 0.06128 0.07461
# Poissons Ratio (z) = 0.07487 0.07487
#
# Static dielectric constant tensor:
#      x y z
#    x 1.912320 0.000000 0.000000 
#    y 0.000000 1.912320 0.000000 
#    z 0.000000 0.000000 1.870560 
# 
# From -- ./inp_files/4959.got.cif
#   From: 2010.05.17/outbox.cif.g08.bks.cpg/sg94_3_cif.got.tgz:4959.got - 2010.06.03 19:43:16.
