data_PCOD9550532
_publ_section_title
;
Structure prediction by ZEFSAII (Michael W. Deem and Ramdas Pophale) SiO2 
 PCOD9550532
Probable space group: P 43 2 2
;
_chemical_formula_sum "Si O2"
_cell_formula_units_Z 60
_cell_length_a 12.592850
_cell_length_b 12.592850
_cell_length_c 18.403224
_cell_angle_alpha 90.000000
_cell_angle_beta 90.000000
_cell_angle_gamma 90.000000
_cell_volume 2918.380890
_symmetry_space_group_name_H-M "P 43 2 2"
_symmetry_group_IT_number 95
_symmetry_cell_setting 'tetragonal'
loop_
_space_group_symop_operation_xyz
x,y,z
-y,x,3/4+z
-x,-y,1/2+z
y,-x,1/4+z
x,-y,1/2-z
-x,y,-z
y,x,1/4-z
-y,-x,3/4-z
loop_
_atom_site_type_symbol
_atom_site_label
_atom_site_fract_x
_atom_site_fract_y
_atom_site_fract_z
Si Si1 0.378701 0.075180 0.818615
Si Si2 0.435431 0.944577 0.427376
Si Si3 0.964621 0.887393 0.421068
Si Si4 0.626584 0.747319 0.510711
Si Si5 0.060055 0.787517 0.833499
Si Si6 0.579157 0.579157 0.625000
Si Si7 0.297093 0.128434 0.427568
Si Si8 0.352468 0.692847 0.649572
O O1 0.480792 0.093236 0.869021
O O2 0.355598 0.199193 0.801681
O O3 0.398188 0.000000 0.750000
O O4 0.289855 0.011737 0.865857
O O5 0.500000 0.974747 0.500000
O O6 0.347709 0.854841 0.446970
O O7 0.379528 0.045552 0.395939
O O8 0.895653 0.807785 0.370688
O O9 0.000000 0.842892 0.500000
O O10 0.887197 0.986473 0.437964
O O11 0.063349 0.936652 0.375000
O O12 0.500000 0.763007 0.500000
O O13 0.629846 0.641494 0.557133
O O14 0.673065 0.735118 0.431859
O O15 0.160782 0.839219 0.875000
O O16 0.096763 0.729463 0.760358
O O17 0.456152 0.616573 0.638798
O O18 0.354507 0.242184 0.425396
#
# Coordination Sequence:
#
# PCOD9550532 Si02
#       8
#     8   8   8   8   8   4   8   8
#     4  12  23  41  71  96 132 176 234 285 333 428
#     4  11  21  43  65  91 127 176 225 277 352 411
#     4  11  23  39  60  96 139 177 225 276 336 417
#     4   9  18  39  68  88 119 176 219 275 343 411
#     4  11  23  39  65  96 133 186 229 266 336 418
#     4  10  20  40  72  98 120 170 240 284 332 408
#     4  12  24  40  66  96 140 182 222 290 354 412
#     4  11  22  41  66 102 133 176 228 283 347 411
#
# _framework density 20.559345
#
# number of rings (size 3 to 8) (size 9 to 14) (size 15 to 20)
#    0.000    1.067    8.000    0.800    0.000    1.600 
#    3.600    2.000    1.467    0.000    0.000    0.000 
#    0.000    0.000    0.000    0.000    0.000    0.000 
#
# Total GULP energy -334141.422487 kJ/mol
# GULP energy per Si atom -5569.023708 kJ/mol
# Density = 2.051255 g / cm^3
# Si number density = 20.559345 Si / 1000 Ang^3
#
#
#
# Elastic Constant Matrix: (Units=GPa)
#
#
# Indices 1 2 3 4 5 6 
#
# 1 71.6333 23.0444 3.9771 0.0000 0.0000 0.0000
# 2 23.0444 71.6340 3.9768 0.0000 0.0000 0.0000
# 3 3.9771 3.9768 65.0207 0.0000 0.0000 0.0000
# 4 0.0000 0.0000 0.0000 16.1064 0.0000 0.0000
# 5 0.0000 0.0000 0.0000 0.0000 16.1064 0.0000
# 6 0.0000 0.0000 0.0000 0.0000 0.0000 27.6405
#
#
#
# Elastic Compliance Matrix: (Units=1/GPa)
#
#
# Indices 1 2 3 4 5 6 
#
# 1 0.015599 -0.004982 -0.000649 0.000000 0.000000 0.000000
# 2 -0.004982 0.015599 -0.000649 0.000000 0.000000 0.000000
# 3 -0.000649 -0.000649 0.015459 0.000000 0.000000 0.000000
# 4 0.000000 0.000000 0.000000 0.062087 0.000000 0.000000
# 5 0.000000 0.000000 0.000000 0.000000 0.062087 0.000000
# 6 0.000000 0.000000 0.000000 0.000000 0.000000 0.036179
#
#
# Mechanical properties :
#
#
# Convention : Reuss Voigt Hill
#
# Bulk Modulus (GPa) = 29.32981 30.03164 29.68072
# Shear Modulus (GPa) = 21.65104 23.78998 22.72051
#
# Velocity S-wave (km/s) = 3.24867 3.40536 3.32794
# Velocity P-wave (km/s) = 5.32623 5.48644 5.40693
#
# Compressibility (1/GPa) = 0.03409501
#
# Stress axis : x y z
#
# Youngs Moduli (GPa) = 64.10769 64.10835 64.68664
#
# Poissons Ratio (x) = 0.31939 0.04201
# Poissons Ratio (y) = 0.31939 0.04200
# Poissons Ratio (z) = 0.04163 0.04163
#
# Static dielectric constant tensor:
#      x y z
#    x 1.871540 0.000000 0.000000 
#    y 0.000000 1.871530 0.000000 
#    z 0.000000 0.000000 1.774800 
# 
# From -- ./inp_files/6513.got.cif
#   From: 2010.05.17/outbox.cif.g08.bks.cpg/sg95_4_cif.got.tgz:6513.got - 2010.06.03 19:46:49.
