data_PCOD9550884
_publ_section_title
;
Structure prediction by ZEFSAII (Michael W. Deem and Ramdas Pophale) SiO2 
 PCOD9550884
Probable space group: P 43 21 2
;
_chemical_formula_sum "Si O2"
_cell_formula_units_Z 48
_cell_length_a 10.557558
_cell_length_b 10.557558
_cell_length_c 17.766015
_cell_angle_alpha 90.000000
_cell_angle_beta 90.000000
_cell_angle_gamma 90.000000
_cell_volume 1980.236113
_symmetry_space_group_name_H-M "P 43 21 2"
_symmetry_group_IT_number 96
_symmetry_cell_setting 'tetragonal'
loop_
_space_group_symop_operation_xyz
x,y,z
1/2-y,1/2+x,3/4+z
-x,-y,1/2+z
1/2+y,1/2-x,1/4+z
1/2+x,1/2-y,1/4-z
1/2-x,1/2+y,3/4-z
y,x,-z
-y,-x,1/2-z
loop_
_atom_site_type_symbol
_atom_site_label
_atom_site_fract_x
_atom_site_fract_y
_atom_site_fract_z
Si Si1 0.565838 0.425839 0.662164
Si Si2 0.524665 0.080119 0.349465
Si Si3 0.323283 0.296123 0.148406
Si Si4 0.067127 0.631294 0.803497
Si Si5 0.683141 0.576074 0.069496
Si Si6 0.189319 0.154741 0.731101
O O1 0.590813 0.409188 0.750000
O O2 0.598581 0.574238 0.646400
O O3 0.423749 0.402441 0.632571
O O4 0.651488 0.341440 0.606377
O O5 0.670014 0.105549 0.374265
O O6 0.527511 0.095974 0.260117
O O7 0.440781 0.182297 0.391721
O O8 0.495634 0.939525 0.378262
O O9 0.207004 0.316942 0.089654
O O10 0.262531 0.272636 0.230182
O O11 0.974431 0.731500 0.764551
O O12 0.672776 0.672776 0.000000
O O13 0.651431 0.440667 0.028708
#
# Coordination Sequence:
#
# PCOD9550884 Si02
#       6
#     8   8   8   8   8   8
#     4  10  21  35  65  92 121 166 210 253 316 386
#     4  11  23  35  66  95 124 164 212 263 317 375
#     4  10  21  38  64  92 126 161 207 271 321 365
#     4  11  21  39  61  96 124 160 205 264 325 367
#     4   9  20  39  62  91 130 160 204 263 311 369
#     4   9  19  40  61  87 124 161 199 258 319 369
#
# _framework density 24.239533999999999
#
# number of rings (size 3 to 8) (size 9 to 14) (size 15 to 20)
#    0.000    2.000    1.667    1.500    4.667    2.667 
#    0.000    5.000    0.000    0.000    0.000    0.000 
#    0.000    0.000    0.000    0.000    0.000    0.000 
#
# Total GULP energy -268548.341767 kJ/mol
# GULP energy per Si atom -5594.757120 kJ/mol
# Density = 2.418436 g / cm^3
# Si number density = 24.239534 Si / 1000 Ang^3
#
#
#
# Elastic Constant Matrix: (Units=GPa)
#
#
# Indices 1 2 3 4 5 6 
#
# 1 49.2573 4.8028 15.5772 0.0000 0.0000 0.0000
# 2 4.8028 49.2574 15.5773 0.0000 0.0000 0.0000
# 3 15.5772 15.5773 152.4485 0.0000 0.0000 0.0000
# 4 0.0000 0.0000 0.0000 30.1486 0.0000 0.0000
# 5 0.0000 0.0000 0.0000 0.0000 30.1485 0.0000
# 6 0.0000 0.0000 0.0000 0.0000 0.0000 14.4494
#
#
#
# Elastic Compliance Matrix: (Units=1/GPa)
#
#
# Indices 1 2 3 4 5 6 
#
# 1 0.021075 -0.001420 -0.002008 0.000000 0.000000 0.000000
# 2 -0.001420 0.021075 -0.002008 0.000000 0.000000 0.000000
# 3 -0.002008 -0.002008 0.006970 0.000000 0.000000 0.000000
# 4 0.000000 0.000000 0.000000 0.033169 0.000000 0.000000
# 5 0.000000 0.000000 0.000000 0.000000 0.033169 0.000000
# 6 0.000000 0.000000 0.000000 0.000000 0.000000 0.069207
#
#
# Mechanical properties :
#
#
# Convention : Reuss Voigt Hill
#
# Bulk Modulus (GPa) = 26.14574 35.87529 31.01052
# Shear Modulus (GPa) = 24.00524 29.28301 26.64413
#
# Velocity S-wave (km/s) = 3.15037 3.47950 3.31902
# Velocity P-wave (km/s) = 4.90336 5.56552 5.24490
#
# Compressibility (1/GPa) = 0.03824714
#
# Stress axis : x y z
#
# Youngs Moduli (GPa) = 47.44929 47.44938 143.47144
#
# Poissons Ratio (x) = 0.06737 0.28815
# Poissons Ratio (y) = 0.06737 0.28815
# Poissons Ratio (z) = 0.09530 0.09530
#
# Static dielectric constant tensor:
#      x y z
#    x 1.927320 0.000000 0.000000 
#    y 0.000000 1.927320 0.000000 
#    z 0.000000 0.000000 1.935760 
# 
# From -- ./inp_files/3104.got.cif
#   From: 2010.05.17/outbox.cif.g08.bks.cpg/sg96_2_cif.got.tgz:3104.got - 2010.06.03 19:52:08.
