data_PCOD9550617
_publ_section_title
;
Structure prediction by ZEFSAII (Michael W. Deem and Ramdas Pophale) SiO2 
 PCOD9550617
Probable space group: P 43 2 2
;
_chemical_formula_sum "Si O2"
_cell_formula_units_Z 32
_cell_length_a 12.762278
_cell_length_b 12.762278
_cell_length_c 8.478273
_cell_angle_alpha 90.000000
_cell_angle_beta 90.000000
_cell_angle_gamma 90.000000
_cell_volume 1380.904987
_symmetry_space_group_name_H-M "P 43 2 2"
_symmetry_group_IT_number 95
_symmetry_cell_setting 'tetragonal'
loop_
_space_group_symop_operation_xyz
x,y,z
-y,x,3/4+z
-x,-y,1/2+z
y,-x,1/4+z
x,-y,1/2-z
-x,y,-z
y,x,1/4-z
-y,-x,3/4-z
loop_
_atom_site_type_symbol
_atom_site_label
_atom_site_fract_x
_atom_site_fract_y
_atom_site_fract_z
Si Si1 0.207105 0.411431 0.863226
Si Si2 0.088216 0.911785 0.375000
Si Si3 0.687957 0.312043 0.875000
Si Si4 0.000000 0.520401 0.000000
Si Si5 0.212893 0.787108 0.875000
Si Si6 0.711318 0.102569 0.079572
O O1 0.245703 0.500000 0.750000
O O2 0.201630 0.310571 0.747661
O O3 0.095141 0.448606 0.935941
O O4 0.288892 0.403788 0.005781
O O5 0.201048 0.934356 0.455958
O O6 0.000000 0.924522 0.500000
O O7 0.786974 0.314836 0.755252
O O8 0.956756 0.602942 0.867732
O O9 0.230962 0.879183 0.748507
#
# Coordination Sequence:
#
# PCOD9550617 Si02
#       6
#     8   4   4   4   4   8
#     4  11  24  45  72 113 151 198 255 318 393 472
#     4  11  28  45  68  98 155 223 264 292 381 485
#     4   9  24  44  64 102 162 193 226 316 413 448
#     4  12  26  40  84 118 144 182 282 330 368 448
#     4  10  22  47  66 102 159 194 230 320 412 457
#     4  10  24  42  66 106 150 196 245 327 379 443
#
# _framework density 23.173207999999999
#
# number of rings (size 3 to 8) (size 9 to 14) (size 15 to 20)
#    0.000    1.500    2.500    0.000    8.750    2.000 
#    9.000    0.000    0.000    1.500    0.000    0.000 
#    0.000    0.000    0.000    0.000    0.000    0.000 
#
# Total GULP energy -178496.381136 kJ/mol
# GULP energy per Si atom -5578.011910 kJ/mol
# Density = 2.312046 g / cm^3
# Si number density = 23.173208 Si / 1000 Ang^3
#
#
#
# Elastic Constant Matrix: (Units=GPa)
#
#
# Indices 1 2 3 4 5 6 
#
# 1 86.7790 62.3061 60.5489 0.0000 0.0000 0.0000
# 2 62.3061 86.7776 60.5505 0.0000 0.0000 0.0000
# 3 60.5489 60.5505 180.5773 0.0000 0.0000 0.0000
# 4 0.0000 0.0000 0.0000 -10.9097 0.0000 0.0000
# 5 0.0000 0.0000 0.0000 0.0000 -10.9119 0.0000
# 6 0.0000 0.0000 0.0000 0.0000 0.0000 36.2682
#
#
#
# Elastic Compliance Matrix: (Units=1/GPa)
#
#
# Indices 1 2 3 4 5 6 
#
# 1 0.025040 -0.015822 -0.003091 0.000000 0.000000 0.000000
# 2 -0.015822 0.025041 -0.003091 0.000000 0.000000 0.000000
# 3 -0.003091 -0.003091 0.007611 0.000000 0.000000 0.000000
# 4 0.000000 0.000000 0.000000 -0.091661 0.000000 0.000000
# 5 0.000000 0.000000 0.000000 0.000000 -0.091643 0.000000
# 6 0.000000 0.000000 0.000000 0.000000 0.000000 0.027572
#
#
# Mechanical properties :
#
#
# Convention : Reuss Voigt Hill
#
# Bulk Modulus (GPa) = 73.08130 80.10500 76.59315
# Shear Modulus (GPa) = -101.07034 14.27120 -43.39957
#
# Velocity S-wave (km/s) = -6.61134 2.48432 -4.33232
# Velocity P-wave (km/s) = 5.16472 6.54768 2.84585
#
# Compressibility (1/GPa) = 0.01368339
#
# Stress axis : x y z
#
# Youngs Moduli (GPa) = 39.93592 39.93449 131.39353
#
# Poissons Ratio (x) = 0.63185 0.40610
# Poissons Ratio (y) = 0.63187 0.40619
# Poissons Ratio (z) = 0.12343 0.12345
#
# Static dielectric constant tensor:
#      x y z
#    x 1.964680 0.000000 0.000000 
#    y 0.000000 1.964690 0.000000 
#    z 0.000000 0.000000 1.892840 
# 
# From -- ./inp_files/2171.got.cif
#   From: 2010.05.17/outbox.cif.g08.bks.cpg/sg95_2_cif.got.tgz:2171.got - 2010.06.03 19:46:49.
