data_PCOD9550610
_publ_section_title
;
Structure prediction by ZEFSAII (Michael W. Deem and Ramdas Pophale) SiO2 
 PCOD9550610
Probable space group: P 43 2 2
;
_chemical_formula_sum "Si O2"
_cell_formula_units_Z 60
_cell_length_a 11.100263
_cell_length_b 11.100263
_cell_length_c 21.847606
_cell_angle_alpha 90.000000
_cell_angle_beta 90.000000
_cell_angle_gamma 90.000000
_cell_volume 2691.971096
_symmetry_space_group_name_H-M "P 43 2 2"
_symmetry_group_IT_number 95
_symmetry_cell_setting 'tetragonal'
loop_
_space_group_symop_operation_xyz
x,y,z
-y,x,3/4+z
-x,-y,1/2+z
y,-x,1/4+z
x,-y,1/2-z
-x,y,-z
y,x,1/4-z
-y,-x,3/4-z
loop_
_atom_site_type_symbol
_atom_site_label
_atom_site_fract_x
_atom_site_fract_y
_atom_site_fract_z
Si Si1 0.624137 0.676418 0.036146
Si Si2 0.296268 0.093506 0.194573
Si Si3 0.514673 0.238483 0.656193
Si Si4 0.923400 0.894436 0.384033
Si Si5 0.500000 0.082591 0.000000
Si Si6 0.129190 0.743624 0.034592
Si Si7 0.030075 0.525957 0.115625
Si Si8 0.270919 0.772030 0.542125
O O1 0.574031 0.736902 0.098556
O O2 0.665644 0.538824 0.046452
O O3 0.500000 0.680655 0.000000
O O4 0.748646 0.726393 0.005489
O O5 0.411069 0.107530 0.152750
O O6 0.268792 0.215821 0.228022
O O7 0.321222 0.000000 0.250000
O O8 0.189098 0.031056 0.157702
O O9 0.659210 0.258815 0.660110
O O10 0.487141 0.098394 0.668977
O O11 0.868535 0.852621 0.320234
O O12 0.818541 0.876400 0.433480
O O13 0.971598 0.028402 0.375000
O O14 0.499925 0.002510 0.937842
O O15 0.396802 0.172047 0.975453
O O16 0.101233 0.640339 0.086866
O O17 0.000000 0.749072 0.000000
#
# Coordination Sequence:
#
# PCOD9550610 Si02
#       8
#     8   8   8   8   4   8   8   8
#     4  11  26  43  74 114 146 207 256 319 393 469
#     4  10  22  43  75  96 139 196 246 298 372 444
#     4  11  24  47  71 106 157 196 256 318 393 463
#     4  11  25  44  71 106 148 191 249 309 373 452
#     4  12  30  42  76 108 152 194 258 320 384 464
#     4  12  25  47  76 108 155 206 255 320 399 468
#     4  12  24  47  72 107 143 201 256 311 384 468
#     4  11  24  50  70 107 149 197 247 319 379 456
#
# _framework density 22.288499999999999
#
# number of rings (size 3 to 8) (size 9 to 14) (size 15 to 20)
#    0.000    0.800    5.333    2.000    3.733    2.667 
#    0.000    0.000    0.000    0.000    0.000    0.000 
#    0.000    0.000    0.000    0.000    0.000    0.000 
#
# Total GULP energy -334059.186526 kJ/mol
# GULP energy per Si atom -5567.653109 kJ/mol
# Density = 2.223777 g / cm^3
# Si number density = 22.288500 Si / 1000 Ang^3
#
#
#
# Elastic Constant Matrix: (Units=GPa)
#
#
# Indices 1 2 3 4 5 6 
#
# 1 24.3240 102.6092 26.4557 0.0000 0.0000 0.0000
# 2 102.6092 24.3222 26.4548 0.0000 0.0000 0.0000
# 3 26.4557 26.4548 77.2487 0.0000 0.0000 0.0000
# 4 0.0000 0.0000 0.0000 21.0158 0.0000 0.0000
# 5 0.0000 0.0000 0.0000 0.0000 21.0178 0.0000
# 6 0.0000 0.0000 0.0000 0.0000 0.0000 22.8351
#
#
#
# Elastic Compliance Matrix: (Units=1/GPa)
#
#
# Indices 1 2 3 4 5 6 
#
# 1 -0.001792 0.010982 -0.003147 0.000000 0.000000 0.000000
# 2 0.010982 -0.001792 -0.003147 0.000000 0.000000 0.000000
# 3 -0.003147 -0.003147 0.015101 0.000000 0.000000 0.000000
# 4 0.000000 0.000000 0.000000 0.047583 0.000000 0.000000
# 5 0.000000 0.000000 0.000000 0.000000 0.047579 0.000000
# 6 0.000000 0.000000 0.000000 0.000000 0.000000 0.043792
#
#
# Mechanical properties :
#
#
# Convention : Reuss Voigt Hill
#
# Bulk Modulus (GPa) = 47.86550 48.54828 48.20689
# Shear Modulus (GPa) = 33.76982 10.99874 22.38428
#
# Velocity S-wave (km/s) = 3.89668 2.22383 3.17250
# Velocity P-wave (km/s) = 6.46278 5.33132 5.92412
#
# Compressibility (1/GPa) = 0.02089187
#
# Stress axis : x y z
#
# Youngs Moduli (GPa) = -558.13410 -558.09243 66.22105
#
# Poissons Ratio (x) = 6.12892 0.20842
# Poissons Ratio (y) = 6.12938 0.20842
# Poissons Ratio (z) = -1.75661 -1.75654
#
# Static dielectric constant tensor:
#      x y z
#    x 1.863940 0.000000 0.000000 
#    y 0.000000 1.863940 0.000000 
#    z 0.000000 0.000000 1.747140 
# 
# From -- ./inp_files/7085.got.cif
#   From: 2010.05.17/outbox.cif.g08.bks.cpg/sg95_4_cif.got.tgz:7085.got - 2010.06.03 19:46:49.
