data_PCOD9550534
_publ_section_title
;
Structure prediction by ZEFSAII (Michael W. Deem and Ramdas Pophale) SiO2 
 PCOD9550534
Probable space group: P 43 2 2
;
_chemical_formula_sum "Si O2"
_cell_formula_units_Z 40
_cell_length_a 14.604628
_cell_length_b 14.604628
_cell_length_c 9.430424
_cell_angle_alpha 90.000000
_cell_angle_beta 90.000000
_cell_angle_gamma 90.000000
_cell_volume 2011.463787
_symmetry_space_group_name_H-M "P 43 2 2"
_symmetry_group_IT_number 95
_symmetry_cell_setting 'tetragonal'
loop_
_space_group_symop_operation_xyz
x,y,z
-y,x,3/4+z
-x,-y,1/2+z
y,-x,1/4+z
x,-y,1/2-z
-x,y,-z
y,x,1/4-z
-y,-x,3/4-z
loop_
_atom_site_type_symbol
_atom_site_label
_atom_site_fract_x
_atom_site_fract_y
_atom_site_fract_z
Si Si1 0.692660 0.139876 0.533966
Si Si2 0.465363 0.156072 0.853083
Si Si3 0.106021 0.000000 0.750000
Si Si4 0.741786 0.134648 0.201628
Si Si5 0.428692 0.280767 0.592936
Si Si6 0.000000 0.606373 0.500000
O O1 0.726230 0.120606 0.372271
O O2 0.767175 0.214034 0.587033
O O3 0.600304 0.196334 0.507723
O O4 0.669166 0.054379 0.634680
O O5 0.359447 0.121397 0.861504
O O6 0.463235 0.235125 0.736073
O O7 0.536635 0.075177 0.815549
O O8 0.500000 0.195187 0.000000
O O9 0.175297 0.932442 0.668228
O O10 0.048501 0.951500 0.875000
O O11 0.500000 0.337113 0.500000
O O12 0.339688 0.339688 0.625000
#
# Coordination Sequence:
#
# PCOD9550534 Si02
#       6
#     8   8   4   8   8   4
#     4  10  20  41  68  96 130 181 226 277 353 420
#     4  11  25  38  66 107 137 167 232 297 342 406
#     4  12  25  43  66  92 128 186 242 281 325 420
#     4  10  22  45  66  88 136 191 217 268 367 427
#     4  11  21  45  72  97 136 190 226 266 347 437
#     4  12  25  35  66 116 136 164 240 315 339 394
#
# _framework density 19.886015
#
# number of rings (size 3 to 8) (size 9 to 14) (size 15 to 20)
#    0.000    1.200    8.000    0.600    8.400    0.800 
#    0.000    5.000    0.000    0.000    0.000    0.000 
#    0.000    0.000    0.000    0.000    0.000    0.000 
#
# Total GULP energy -222873.953832 kJ/mol
# GULP energy per Si atom -5571.848846 kJ/mol
# Density = 1.984075 g / cm^3
# Si number density = 19.886015 Si / 1000 Ang^3
#
#
#
# Elastic Constant Matrix: (Units=GPa)
#
#
# Indices 1 2 3 4 5 6 
#
# 1 98.8583 59.1352 61.7059 0.0000 0.0000 0.0000
# 2 59.1352 98.8580 61.7064 0.0000 0.0000 0.0000
# 3 61.7059 61.7064 100.6890 0.0000 0.0000 0.0000
# 4 0.0000 0.0000 0.0000 25.1308 0.0000 0.0000
# 5 0.0000 0.0000 0.0000 0.0000 25.1301 0.0000
# 6 0.0000 0.0000 0.0000 0.0000 0.0000 22.1393
#
#
#
# Elastic Compliance Matrix: (Units=1/GPa)
#
#
# Indices 1 2 3 4 5 6 
#
# 1 0.018658 -0.006516 -0.007441 0.000000 0.000000 0.000000
# 2 -0.006516 0.018658 -0.007441 0.000000 0.000000 0.000000
# 3 -0.007441 -0.007441 0.019052 0.000000 0.000000 0.000000
# 4 0.000000 0.000000 0.000000 0.039792 0.000000 0.000000
# 5 0.000000 0.000000 0.000000 0.000000 0.039793 0.000000
# 6 0.000000 0.000000 0.000000 0.000000 0.000000 0.045168
#
#
# Mechanical properties :
#
#
# Convention : Reuss Voigt Hill
#
# Bulk Modulus (GPa) = 73.68398 73.72224 73.70311
# Shear Modulus (GPa) = 21.88752 22.20391 22.04571
#
# Velocity S-wave (km/s) = 3.32120 3.34512 3.33318
# Velocity P-wave (km/s) = 7.20005 7.21614 7.20810
#
# Compressibility (1/GPa) = 0.01357147
#
# Stress axis : x y z
#
# Youngs Moduli (GPa) = 53.59679 53.59596 52.48890
#
# Poissons Ratio (x) = 0.34925 0.39055
# Poissons Ratio (y) = 0.34926 0.39057
# Poissons Ratio (z) = 0.39880 0.39881
#
# Static dielectric constant tensor:
#      x y z
#    x 1.779290 0.000000 0.000000 
#    y 0.000000 1.779300 0.000000 
#    z 0.000000 0.000000 1.835110 
# 
# From -- ./inp_files/2418.got.cif
#   From: 2010.05.17/outbox.cif.g08.bks.cpg/sg95_2_cif.got.tgz:2418.got - 2010.06.03 19:46:49.
