data_PCOD9550179
_publ_section_title
;
Structure prediction by ZEFSAII (Michael W. Deem and Ramdas Pophale) SiO2 
 PCOD9550179
Probable space group: P 42 21 2
;
_chemical_formula_sum "Si O2"
_cell_formula_units_Z 26
_cell_length_a 16.024320
_cell_length_b 16.024320
_cell_length_c 5.260754
_cell_angle_alpha 90.000000
_cell_angle_beta 90.000000
_cell_angle_gamma 90.000000
_cell_volume 1350.850265
_symmetry_space_group_name_H-M "P 42 21 2"
_symmetry_group_IT_number 94
_symmetry_cell_setting 'tetragonal'
loop_
_space_group_symop_operation_xyz
x,y,z
1/2-y,1/2+x,1/2+z
-x,-y,z
1/2+y,1/2-x,1/2+z
1/2+x,1/2-y,1/2-z
1/2-x,1/2+y,1/2-z
y,x,-z
-y,-x,-z
loop_
_atom_site_type_symbol
_atom_site_label
_atom_site_fract_x
_atom_site_fract_y
_atom_site_fract_z
Si Si1 0.677348 0.071861 0.065663
Si Si2 0.500000 0.500000 0.500000
Si Si3 0.529516 0.189371 0.049416
Si Si4 0.546006 0.656552 0.823247
O O1 0.622561 0.154766 0.058000
O O2 0.670018 0.019845 0.807249
O O3 0.775035 0.084104 0.130072
O O4 0.647373 0.016873 0.307538
O O5 0.502734 0.581931 0.673720
O O6 0.517779 0.287622 0.989572
O O7 0.616155 0.616155 0.000000
#
# Coordination Sequence:
#
# PCOD9550179 Si02
#       4
#     8   2   8   8
#     4  10  22  40  70 105 138 177 230 280 354 411
#     4  12  22  48  76  94 128 202 238 284 352 414
#     4  10  22  40  70 103 138 181 222 287 347 417
#     4  10  24  41  76  94 137 184 241 284 343 411
#
# _framework density 19.247138
#
# number of rings (size 3 to 8) (size 9 to 14) (size 15 to 20)
#    1.846    0.000    0.000    4.154    0.000    3.692 
#    0.000    0.000   71.077    0.000    0.000    0.000 
#    0.000    0.000    0.000    0.000    0.000    0.000 
#
# Total GULP energy -144855.662012 kJ/mol
# GULP energy per Si atom -5571.371616 kJ/mol
# Density = 1.920333 g / cm^3
# Si number density = 19.247138 Si / 1000 Ang^3
#
#
#
# Elastic Constant Matrix: (Units=GPa)
#
#
# Indices 1 2 3 4 5 6 
#
# 1 121.4656 90.9232 54.9641 0.0000 0.0000 0.0000
# 2 90.9232 121.4656 54.9641 0.0000 0.0000 0.0000
# 3 54.9641 54.9641 154.3378 0.0000 0.0000 0.0000
# 4 0.0000 0.0000 0.0000 6.4303 0.0000 0.0000
# 5 0.0000 0.0000 0.0000 0.0000 6.4303 0.0000
# 6 0.0000 0.0000 0.0000 0.0000 0.0000 2.4044
#
#
#
# Elastic Compliance Matrix: (Units=1/GPa)
#
#
# Indices 1 2 3 4 5 6 
#
# 1 0.019257 -0.013485 -0.002056 0.000000 0.000000 0.000000
# 2 -0.013485 0.019257 -0.002056 0.000000 0.000000 0.000000
# 3 -0.002056 -0.002056 0.007943 0.000000 0.000000 0.000000
# 4 0.000000 0.000000 0.000000 0.155515 0.000000 0.000000
# 5 0.000000 0.000000 0.000000 0.000000 0.155515 0.000000
# 6 0.000000 0.000000 0.000000 0.000000 0.000000 0.415908
#
#
# Mechanical properties :
#
#
# Convention : Reuss Voigt Hill
#
# Bulk Modulus (GPa) = 88.76763 88.77466 88.77114
# Shear Modulus (GPa) = 6.15505 16.14748 11.15127
#
# Velocity S-wave (km/s) = 1.79021 2.89961 2.40963
# Velocity P-wave (km/s) = 7.10585 7.57853 7.34599
#
# Compressibility (1/GPa) = 0.01126537
#
# Stress axis : x y z
#
# Youngs Moduli (GPa) = 51.92960 51.92960 125.88943
#
# Poissons Ratio (x) = 0.70025 0.25879
# Poissons Ratio (y) = 0.70025 0.25879
# Poissons Ratio (z) = 0.10675 0.10675
#
# Static dielectric constant tensor:
#      x y z
#    x 1.656320 0.000000 0.000000 
#    y 0.000000 1.656320 0.000000 
#    z 0.000000 0.000000 1.703220 
# 
# From -- ./inp_files/216.got.cif
#   From: 2010.05.17/outbox.cif.g08.bks.cpg/sg94_1_cif.got.tgz:216.got - 2010.06.03 19:43:16.
