data_PCOD9550142
_publ_section_title
;
Structure prediction by ZEFSAII (Michael W. Deem and Ramdas Pophale) SiO2 
 PCOD9550142
Probable space group: P 42 21 2
;
_chemical_formula_sum "Si O2"
_cell_formula_units_Z 24
_cell_length_a 11.381644
_cell_length_b 11.381644
_cell_length_c 7.978895
_cell_angle_alpha 90.000000
_cell_angle_beta 90.000000
_cell_angle_gamma 90.000000
_cell_volume 1033.600581
_symmetry_space_group_name_H-M "P 42 21 2"
_symmetry_group_IT_number 94
_symmetry_cell_setting 'tetragonal'
loop_
_space_group_symop_operation_xyz
x,y,z
1/2-y,1/2+x,1/2+z
-x,-y,z
1/2+y,1/2-x,1/2+z
1/2+x,1/2-y,1/2-z
1/2-x,1/2+y,1/2-z
y,x,-z
-y,-x,-z
loop_
_atom_site_type_symbol
_atom_site_label
_atom_site_fract_x
_atom_site_fract_y
_atom_site_fract_z
Si Si1 0.750018 0.420215 0.099969
Si Si2 0.489736 0.320273 0.563091
Si Si3 0.356419 0.170019 0.074774
O O1 0.681705 0.502530 0.235645
O O2 0.830079 0.345219 0.227978
O O3 0.661896 0.338105 0.000000
O O4 0.813181 0.509858 0.975580
O O5 0.365847 0.365847 0.500000
O O6 0.585348 0.414653 0.500000
O O7 0.546418 0.197240 0.506464
O O8 0.274278 0.274278 0.000000
#
# Coordination Sequence:
#
# PCOD9550142 Si02
#       3
#     8   8   8
#     4  10  21  42  75 109 152 197 252 314 377 455
#     4   8  17  37  67 102 143 193 254 302 374 440
#     4   9  21  42  69 111 150 193 255 307 382 441
#
# _framework density 23.219801
#
# number of rings (size 3 to 8) (size 9 to 14) (size 15 to 20)
#    2.000    1.000    0.000    0.000    0.000    6.000 
#    0.000   10.000    7.333    2.000    0.000    0.000 
#    0.000    0.000    0.000    0.000    0.000    0.000 
#
# Total GULP energy -133747.863731 kJ/mol
# GULP energy per Si atom -5572.827655 kJ/mol
# Density = 2.316695 g / cm^3
# Si number density = 23.219801 Si / 1000 Ang^3
#
#
#
# Elastic Constant Matrix: (Units=GPa)
#
#
# Indices 1 2 3 4 5 6 
#
# 1 99.5246 113.8104 75.5762 0.0000 0.0000 0.0000
# 2 113.8104 99.5224 75.5665 0.0000 0.0000 0.0000
# 3 75.5762 75.5665 142.6863 0.0000 0.0000 0.0000
# 4 0.0000 0.0000 0.0000 37.4188 0.0000 0.0000
# 5 0.0000 0.0000 0.0000 0.0000 37.4194 0.0000
# 6 0.0000 0.0000 0.0000 0.0000 0.0000 57.5835
#
#
#
# Elastic Compliance Matrix: (Units=1/GPa)
#
#
# Indices 1 2 3 4 5 6 
#
# 1 -0.031248 0.038748 -0.003970 0.000000 0.000000 0.000000
# 2 0.038748 -0.031244 -0.003977 0.000000 0.000000 0.000000
# 3 -0.003970 -0.003977 0.011218 0.000000 0.000000 0.000000
# 4 0.000000 0.000000 0.000000 0.026725 0.000000 0.000000
# 5 0.000000 0.000000 0.000000 0.000000 0.026724 0.000000
# 6 0.000000 0.000000 0.000000 0.000000 0.000000 0.017366
#
#
# Mechanical properties :
#
#
# Convention : Reuss Voigt Hill
#
# Bulk Modulus (GPa) = 96.82140 96.84882 96.83511
# Shear Modulus (GPa) = -129.47193 31.60303 -48.93445
#
# Velocity S-wave (km/s) = -7.47531 3.69323 -4.59567
# Velocity P-wave (km/s) = 5.72004 7.74511 3.69242
#
# Compressibility (1/GPa) = 0.01032830
#
# Stress axis : x y z
#
# Youngs Moduli (GPa) = -32.00226 -32.00655 89.14547
#
# Poissons Ratio (x) = 1.24021 0.35393
# Poissons Ratio (y) = 1.24004 0.35455
# Poissons Ratio (z) = -0.12706 -0.12730
#
# Static dielectric constant tensor:
#      x y z
#    x 1.901090 0.000000 0.000000 
#    y 0.000000 1.901090 0.000000 
#    z 0.000000 0.000000 1.897060 
# 
# From -- ./inp_files/976.got.cif
#   From: 2010.05.17/outbox.cif.g08.bks.cpg/sg94_1_cif.got.tgz:976.got - 2010.06.03 19:43:16.
