data_PCOD9550267
_publ_section_title
;
Structure prediction by ZEFSAII (Michael W. Deem and Ramdas Pophale) SiO2 
 PCOD9550267
Probable space group: P 42 21 2
;
_chemical_formula_sum "Si O2"
_cell_formula_units_Z 38
_cell_length_a 8.279306
_cell_length_b 8.279306
_cell_length_c 27.054141
_cell_angle_alpha 90.000000
_cell_angle_beta 90.000000
_cell_angle_gamma 90.000000
_cell_volume 1854.477710
_symmetry_space_group_name_H-M "P 42 21 2"
_symmetry_group_IT_number 94
_symmetry_cell_setting 'tetragonal'
loop_
_space_group_symop_operation_xyz
x,y,z
1/2-y,1/2+x,1/2+z
-x,-y,z
1/2+y,1/2-x,1/2+z
1/2+x,1/2-y,1/2-z
1/2-x,1/2+y,1/2-z
y,x,-z
-y,-x,-z
loop_
_atom_site_type_symbol
_atom_site_label
_atom_site_fract_x
_atom_site_fract_y
_atom_site_fract_z
Si Si1 0.000000 0.500000 0.619618
Si Si2 0.588731 0.170576 0.640466
Si Si3 0.186303 0.741317 0.552264
Si Si4 0.000000 0.000000 0.500000
Si Si5 0.834157 0.212454 0.179985
Si Si6 0.815632 0.015539 0.715050
O O1 0.117878 0.594840 0.583001
O O2 0.124710 0.392123 0.652049
O O3 0.690470 0.178995 0.590374
O O4 0.452335 0.308117 0.648271
O O5 0.500000 0.000000 0.639176
O O6 0.716236 0.153654 0.685671
O O7 0.277785 0.722216 0.500000
O O8 0.029854 0.848785 0.536166
O O9 0.656363 0.238312 0.202806
O O10 0.948810 0.187639 0.226931
O O11 0.000000 0.000000 0.697755
#
# Coordination Sequence:
#
# PCOD9550267 Si02
#       6
#     4   8   8   2   8   8
#     4  12  28  46  68 106 142 182 234 302 354 430
#     4  10  24  42  70 103 135 183 236 292 352 416
#     4  10  25  45  72 101 132 176 233 289 359 422
#     4   8  24  44  80  90 126 180 232 288 346 430
#     4  11  27  42  69 102 146 186 239 285 357 420
#     4  11  24  41  69  98 140 192 234 291 342 430
#
# _framework density 20.490945
#
# number of rings (size 3 to 8) (size 9 to 14) (size 15 to 20)
#    0.632    0.842    0.000    2.526   22.105    0.000 
#    0.000    1.053    0.000    0.000    0.000    0.000 
#    0.000    0.000    0.000    0.000    0.000    0.000 
#
# Total GULP energy -211784.296988 kJ/mol
# GULP energy per Si atom -5573.270973 kJ/mol
# Density = 2.044431 g / cm^3
# Si number density = 20.490945 Si / 1000 Ang^3
#
#
#
# Elastic Constant Matrix: (Units=GPa)
#
#
# Indices 1 2 3 4 5 6 
#
# 1 62.2422 52.1238 42.7172 0.0000 0.0000 0.0000
# 2 52.1238 62.2436 42.7175 0.0000 0.0000 0.0000
# 3 42.7172 42.7175 130.4822 0.0000 0.0000 0.0000
# 4 0.0000 0.0000 0.0000 347.8846 0.0000 0.0000
# 5 0.0000 0.0000 0.0000 0.0000 347.6618 0.0000
# 6 0.0000 0.0000 0.0000 0.0000 0.0000 31.7645
#
#
#
# Elastic Compliance Matrix: (Units=1/GPa)
#
#
# Indices 1 2 3 4 5 6 
#
# 1 0.055199 -0.043624 -0.003789 0.000000 0.000000 0.000000
# 2 -0.043624 0.055198 -0.003789 0.000000 0.000000 0.000000
# 3 -0.003789 -0.003789 0.010145 0.000000 0.000000 0.000000
# 4 0.000000 0.000000 0.000000 0.002875 0.000000 0.000000
# 5 0.000000 0.000000 0.000000 0.000000 0.002876 0.000000
# 6 0.000000 0.000000 0.000000 0.000000 0.000000 0.031482
#
#
# Mechanical properties :
#
#
# Convention : Reuss Voigt Hill
#
# Bulk Modulus (GPa) = 55.13639 58.89836 57.01737
# Shear Modulus (GPa) = 18.78106 153.28947 86.03526
#
# Velocity S-wave (km/s) = 3.03075 8.65857 6.48676
# Velocity P-wave (km/s) = 6.26206 11.34756 9.16462
#
# Compressibility (1/GPa) = 0.01813684
#
# Stress axis : x y z
#
# Youngs Moduli (GPa) = 18.11617 18.11662 98.57124
#
# Poissons Ratio (x) = 0.79032 0.37352
# Poissons Ratio (y) = 0.79030 0.37350
# Poissons Ratio (z) = 0.06865 0.06865
#
# Static dielectric constant tensor:
#      x y z
#    x -0.373590 0.000000 0.000000 
#    y 0.000000 -0.372050 0.000000 
#    z 0.000000 0.000000 1.711390 
# 
# From -- ./inp_files/5005.got.cif
#   From: 2010.05.17/outbox.cif.g08.bks.cpg/sg94_3_cif.got.tgz:5005.got - 2010.06.03 19:43:16.
