data_PCOD9550602
_publ_section_title
;
Structure prediction by ZEFSAII (Michael W. Deem and Ramdas Pophale) SiO2 
 PCOD9550602
Probable space group: P 43 2 2
;
_chemical_formula_sum "Si O2"
_cell_formula_units_Z 40
_cell_length_a 11.672883
_cell_length_b 11.672883
_cell_length_c 14.333173
_cell_angle_alpha 90.000000
_cell_angle_beta 90.000000
_cell_angle_gamma 90.000000
_cell_volume 1952.983652
_symmetry_space_group_name_H-M "P 43 2 2"
_symmetry_group_IT_number 95
_symmetry_cell_setting 'tetragonal'
loop_
_space_group_symop_operation_xyz
x,y,z
-y,x,3/4+z
-x,-y,1/2+z
y,-x,1/4+z
x,-y,1/2-z
-x,y,-z
y,x,1/4-z
-y,-x,3/4-z
loop_
_atom_site_type_symbol
_atom_site_label
_atom_site_fract_x
_atom_site_fract_y
_atom_site_fract_z
Si Si1 0.635130 0.079417 0.008289
Si Si2 0.603775 0.603775 0.125000
Si Si3 0.746446 0.746446 0.625000
Si Si4 0.435001 0.742515 0.210151
Si Si5 0.665587 0.810380 0.989455
Si Si6 0.129391 0.664503 0.032104
O O1 0.713785 0.133467 0.926384
O O2 0.645075 0.941673 0.014655
O O3 0.500000 0.106496 0.000000
O O4 0.668930 0.132968 0.106662
O O5 0.488488 0.620177 0.181971
O O6 0.714939 0.607773 0.193267
O O7 0.734158 0.653593 0.543457
O O8 0.376919 0.793793 0.117012
O O9 0.546311 0.814887 0.244215
O O10 0.796984 0.772514 0.000650
O O11 0.000000 0.668380 0.000000
#
# Coordination Sequence:
#
# PCOD9550602 Si02
#       6
#     8   4   4   8   8   8
#     4  12  23  44  68  96 138 180 224 276 341 411
#     4  10  22  42  69 101 132 174 228 278 336 403
#     4  12  26  42  67 103 136 180 224 274 344 413
#     4  11  23  43  66 100 137 174 226 274 342 404
#     4  11  23  43  69 100 132 175 234 277 334 401
#     4  11  23  42  70  98 132 181 229 279 335 404
#
# _framework density 20.481483999999998
#
# number of rings (size 3 to 8) (size 9 to 14) (size 15 to 20)
#    0.000    0.800    4.000    5.400    0.000    0.000 
#    0.000   20.000    0.000    0.000    0.000    0.000 
#    0.000    0.000    0.000    0.000    0.000    0.000 
#
# Total GULP energy -223446.887033 kJ/mol
# GULP energy per Si atom -5586.172176 kJ/mol
# Density = 2.043487 g / cm^3
# Si number density = 20.481484 Si / 1000 Ang^3
#
#
#
# Elastic Constant Matrix: (Units=GPa)
#
#
# Indices 1 2 3 4 5 6 
#
# 1 46.7186 37.5530 11.5372 0.0000 0.0000 0.0000
# 2 37.5530 46.7186 11.5372 0.0000 0.0000 0.0000
# 3 11.5372 11.5372 114.1974 0.0000 0.0000 0.0000
# 4 0.0000 0.0000 0.0000 28.3576 0.0000 0.0000
# 5 0.0000 0.0000 0.0000 0.0000 28.3576 0.0000
# 6 0.0000 0.0000 0.0000 0.0000 0.0000 16.3987
#
#
#
# Elastic Compliance Matrix: (Units=1/GPa)
#
#
# Indices 1 2 3 4 5 6 
#
# 1 0.060654 -0.048450 -0.001233 0.000000 0.000000 0.000000
# 2 -0.048450 0.060654 -0.001233 0.000000 0.000000 0.000000
# 3 -0.001233 -0.001233 0.009006 0.000000 0.000000 0.000000
# 4 0.000000 0.000000 0.000000 0.035264 0.000000 0.000000
# 5 0.000000 0.000000 0.000000 0.000000 0.035264 0.000000
# 6 0.000000 0.000000 0.000000 0.000000 0.000000 0.060980
#
#
# Mechanical properties :
#
#
# Convention : Reuss Voigt Hill
#
# Bulk Modulus (GPa) = 35.10980 36.54325 35.82653
# Shear Modulus (GPa) = 13.39951 24.42324 18.91138
#
# Velocity S-wave (km/s) = 2.56056 3.45694 3.04195
# Velocity P-wave (km/s) = 5.09130 5.81504 5.46517
#
# Compressibility (1/GPa) = 0.02848208
#
# Stress axis : x y z
#
# Youngs Moduli (GPa) = 16.48697 16.48697 111.03835
#
# Poissons Ratio (x) = 0.79879 0.13691
# Poissons Ratio (y) = 0.79879 0.13691
# Poissons Ratio (z) = 0.02033 0.02033
#
# Static dielectric constant tensor:
#      x y z
#    x 1.735500 0.000000 0.000000 
#    y 0.000000 1.735500 0.000000 
#    z 0.000000 0.000000 1.805020 
# 
# From -- ./inp_files/4850.got.cif
#   From: 2010.05.17/outbox.cif.g08.bks.cpg/sg95_3_cif.got.tgz:4850.got - 2010.06.03 19:46:49.
