data_PCOD9550464
_publ_section_title
;
Structure prediction by ZEFSAII (Michael W. Deem and Ramdas Pophale) SiO2 
 PCOD9550464
Probable space group: P 43 2 2
;
_chemical_formula_sum "Si O2"
_cell_formula_units_Z 64
_cell_length_a 11.848826
_cell_length_b 11.848826
_cell_length_c 22.245973
_cell_angle_alpha 90.000000
_cell_angle_beta 90.000000
_cell_angle_gamma 90.000000
_cell_volume 3123.216207
_symmetry_space_group_name_H-M "P 43 2 2"
_symmetry_group_IT_number 95
_symmetry_cell_setting 'tetragonal'
loop_
_space_group_symop_operation_xyz
x,y,z
-y,x,3/4+z
-x,-y,1/2+z
y,-x,1/4+z
x,-y,1/2-z
-x,y,-z
y,x,1/4-z
-y,-x,3/4-z
loop_
_atom_site_type_symbol
_atom_site_label
_atom_site_fract_x
_atom_site_fract_y
_atom_site_fract_z
Si Si1 0.141937 0.891237 0.065708
Si Si2 0.632952 0.397969 0.015304
Si Si3 0.281181 0.178594 0.915649
Si Si4 0.944695 0.522157 0.902387
Si Si5 0.837655 0.547961 0.036190
Si Si6 0.121356 0.877958 0.475968
Si Si7 0.880830 0.809303 0.060373
Si Si8 0.811811 0.670665 0.582866
O O1 0.203785 0.813918 0.114756
O O2 0.011456 0.847639 0.066505
O O3 0.175416 0.871179 0.996311
O O4 0.149896 0.025360 0.072998
O O5 0.654509 0.290112 0.059266
O O6 0.710157 0.501756 0.041002
O O7 0.500000 0.415565 0.000000
O O8 0.703188 0.372880 0.954210
O O9 0.368460 0.091352 0.884718
O O10 0.214873 0.124349 0.971508
O O11 0.878217 0.416831 0.876341
O O12 0.075199 0.497272 0.915007
O O13 0.885839 0.524996 0.968969
O O14 0.861813 0.679331 0.044805
O O15 0.110053 0.745434 0.460137
O O16 0.000000 0.916223 0.500000
O O17 0.829871 0.829871 0.125000
O O18 0.764080 0.764080 0.625000
#
# Coordination Sequence:
#
# PCOD9550464 Si02
#       8
#     8   8   8   8   8   8   8   8
#     4  11  21  36  60  94 129 172 212 257 340 417
#     4  10  23  42  63  91 125 165 223 276 341 395
#     4  11  22  39  64  92 132 181 219 273 340 416
#     4  10  19  37  64  87 120 165 220 266 321 396
#     4  10  20  37  61  93 114 160 221 270 314 388
#     4  11  25  35  55  98 137 171 211 279 341 411
#     4  11  20  36  60  90 125 167 216 264 322 398
#     4  10  23  37  60  89 121 167 214 273 323 398
#
# _framework density 20.491696000000001
#
# number of rings (size 3 to 8) (size 9 to 14) (size 15 to 20)
#    0.000    1.500    3.750    2.250    7.000    0.000 
#    0.000    3.125    0.000    0.000    0.000    0.000 
#    0.000    0.000    0.000    0.000    0.000    0.000 
#
# Total GULP energy -356510.356183 kJ/mol
# GULP energy per Si atom -5570.474315 kJ/mol
# Density = 2.044506 g / cm^3
# Si number density = 20.491696 Si / 1000 Ang^3
#
#
#
# Elastic Constant Matrix: (Units=GPa)
#
#
# Indices 1 2 3 4 5 6 
#
# 1 66.9768 78.5147 9.8489 0.0000 0.0000 0.0000
# 2 78.5147 66.9768 9.8489 0.0000 0.0000 0.0000
# 3 9.8489 9.8489 19.0700 0.0000 0.0000 0.0000
# 4 0.0000 0.0000 0.0000 19.5743 0.0000 0.0000
# 5 0.0000 0.0000 0.0000 0.0000 19.5743 0.0000
# 6 0.0000 0.0000 0.0000 0.0000 0.0000 16.7591
#
#
#
# Elastic Compliance Matrix: (Units=1/GPa)
#
#
# Indices 1 2 3 4 5 6 
#
# 1 -0.039640 0.047030 -0.003817 0.000000 0.000000 0.000000
# 2 0.047030 -0.039640 -0.003817 0.000000 0.000000 0.000000
# 3 -0.003817 -0.003817 0.056381 0.000000 0.000000 0.000000
# 4 0.000000 0.000000 0.000000 0.051087 0.000000 0.000000
# 5 0.000000 0.000000 0.000000 0.000000 0.051087 0.000000
# 6 0.000000 0.000000 0.000000 0.000000 0.000000 0.059669
#
#
# Mechanical properties :
#
#
# Convention : Reuss Voigt Hill
#
# Bulk Modulus (GPa) = 17.89100 38.82764 28.35932
# Shear Modulus (GPa) = 63.46681 14.83560 39.15121
#
# Velocity S-wave (km/s) = 5.57128 2.69361 4.37577
# Velocity P-wave (km/s) = 7.08064 5.35380 6.27688
#
# Compressibility (1/GPa) = 0.05589403
#
# Stress axis : x y z
#
# Youngs Moduli (GPa) = -25.22686 -25.22686 17.73658
#
# Poissons Ratio (x) = 1.18643 0.06769
# Poissons Ratio (y) = 1.18643 0.06769
# Poissons Ratio (z) = -0.09628 -0.09628
#
# Static dielectric constant tensor:
#      x y z
#    x 2.001390 0.000000 0.000000 
#    y 0.000000 2.001390 0.000000 
#    z 0.000000 0.000000 1.876540 
# 
# From -- ./inp_files/7078.got.cif
#   From: 2010.05.17/outbox.cif.g08.bks.cpg/sg95_4_cif.got.tgz:7078.got - 2010.06.03 19:46:49.
