data_PCOD9550248
_publ_section_title
;
Structure prediction by ZEFSAII (Michael W. Deem and Ramdas Pophale) SiO2 
 PCOD9550248
Probable space group: P 42 21 2
;
_chemical_formula_sum "Si O2"
_cell_formula_units_Z 44
_cell_length_a 8.299261
_cell_length_b 8.299261
_cell_length_c 23.086781
_cell_angle_alpha 90.000000
_cell_angle_beta 90.000000
_cell_angle_gamma 90.000000
_cell_volume 1590.165141
_symmetry_space_group_name_H-M "P 42 21 2"
_symmetry_group_IT_number 94
_symmetry_cell_setting 'tetragonal'
loop_
_space_group_symop_operation_xyz
x,y,z
1/2-y,1/2+x,1/2+z
-x,-y,z
1/2+y,1/2-x,1/2+z
1/2+x,1/2-y,1/2-z
1/2-x,1/2+y,1/2-z
y,x,-z
-y,-x,-z
loop_
_atom_site_type_symbol
_atom_site_label
_atom_site_fract_x
_atom_site_fract_y
_atom_site_fract_z
Si Si1 0.315620 0.997704 0.917814
Si Si2 0.310450 0.689551 0.000000
Si Si3 0.076540 0.830480 0.864913
Si Si4 0.193751 0.806250 0.500000
Si Si5 0.500000 0.000000 0.107420
Si Si6 0.356480 0.875403 0.251591
Si Si7 0.945723 0.167802 0.325119
O O1 0.249523 0.914329 0.859216
O O2 0.500000 0.000000 0.907520
O O3 0.289263 0.844003 0.959140
O O4 0.279233 0.168487 0.950285
O O5 0.502685 0.707343 0.017900
O O6 0.052036 0.749607 0.802412
O O7 0.035619 0.686103 0.909988
O O8 0.000000 0.000000 0.885520
O O9 0.530666 0.827990 0.138279
O O10 0.236277 0.848144 0.304099
O O11 0.435305 0.708678 0.228558
O O12 0.500000 0.000000 0.260583
O O13 0.000000 0.000000 0.353198
#
# Coordination Sequence:
#
# PCOD9550248 Si02
#       7
#     8   4   8   4   4   8   8
#     4  10  23  43  68 104 134 178 233 272 343 419
#     4   9  20  41  72  96 136 171 216 287 324 398
#     4  11  24  44  65  94 146 179 217 288 349 420
#     4   9  20  41  68 104 130 171 223 276 334 394
#     4  10  26  52  60 108 138 180 238 284 362 406
#     4  11  23  45  64  98 136 176 239 289 357 409
#     4  11  22  40  70  92 126 178 232 293 337 411
#
# _framework density 27.670083999999999
#
# number of rings (size 3 to 8) (size 9 to 14) (size 15 to 20)
#    0.000    1.636    3.636    1.636    5.091    1.455 
#    9.818    0.000    4.000    0.000    0.000    0.000 
#    0.000    0.000    0.000    0.000    0.000    0.000 
#
# Total GULP energy -245207.134655 kJ/mol
# GULP energy per Si atom -5572.889424 kJ/mol
# Density = 2.760711 g / cm^3
# Si number density = 27.670084 Si / 1000 Ang^3
#
#
#
# Elastic Constant Matrix: (Units=GPa)
#
#
# Indices 1 2 3 4 5 6 
#
# 1 149.7519 139.0350 29.5820 0.0000 0.0000 0.0000
# 2 139.0350 149.7518 29.5823 0.0000 0.0000 0.0000
# 3 29.5820 29.5823 51.0078 0.0000 0.0000 0.0000
# 4 0.0000 0.0000 0.0000 29.0883 0.0000 0.0000
# 5 0.0000 0.0000 0.0000 0.0000 29.0882 0.0000
# 6 0.0000 0.0000 0.0000 0.0000 0.0000 68.3341
#
#
#
# Elastic Compliance Matrix: (Units=1/GPa)
#
#
# Indices 1 2 3 4 5 6 
#
# 1 0.048620 -0.044691 -0.002279 0.000000 0.000000 0.000000
# 2 -0.044691 0.048621 -0.002279 0.000000 0.000000 0.000000
# 3 -0.002279 -0.002279 0.022248 0.000000 0.000000 0.000000
# 4 0.000000 0.000000 0.000000 0.034378 0.000000 0.000000
# 5 0.000000 0.000000 0.000000 0.000000 0.034378 0.000000
# 6 0.000000 0.000000 0.000000 0.000000 0.000000 0.014634
#
#
# Mechanical properties :
#
#
# Convention : Reuss Voigt Hill
#
# Bulk Modulus (GPa) = 47.63825 82.99000 65.31413
# Shear Modulus (GPa) = 16.21404 35.45627 25.83516
#
# Velocity S-wave (km/s) = 2.42332 3.58354 3.05894
# Velocity P-wave (km/s) = 5.00838 6.86878 6.01099
#
# Compressibility (1/GPa) = 0.02099153
#
# Stress axis : x y z
#
# Youngs Moduli (GPa) = 20.56747 20.56741 44.94726
#
# Poissons Ratio (x) = 0.91918 0.10243
# Poissons Ratio (y) = 0.91918 0.10245
# Poissons Ratio (z) = 0.04687 0.04688
#
# Static dielectric constant tensor:
#      x y z
#    x 1.883380 0.000000 0.000000 
#    y 0.000000 1.883380 0.000000 
#    z 0.000000 0.000000 2.547460 
# 
# From -- ./inp_files/5525.got.cif
#   From: 2010.05.17/outbox.cif.g08.bks.cpg/sg94_3_cif.got.tgz:5525.got - 2010.06.03 19:43:16.
