data_PCOD9550565
_publ_section_title
;
Structure prediction by ZEFSAII (Michael W. Deem and Ramdas Pophale) SiO2 
 PCOD9550565
Probable space group: P 43 2 2
;
_chemical_formula_sum "Si O2"
_cell_formula_units_Z 56
_cell_length_a 14.370368
_cell_length_b 14.370368
_cell_length_c 12.105964
_cell_angle_alpha 90.000000
_cell_angle_beta 90.000000
_cell_angle_gamma 90.000000
_cell_volume 2499.972076
_symmetry_space_group_name_H-M "P 43 2 2"
_symmetry_group_IT_number 95
_symmetry_cell_setting 'tetragonal'
loop_
_space_group_symop_operation_xyz
x,y,z
-y,x,3/4+z
-x,-y,1/2+z
y,-x,1/4+z
x,-y,1/2-z
-x,y,-z
y,x,1/4-z
-y,-x,3/4-z
loop_
_atom_site_type_symbol
_atom_site_label
_atom_site_fract_x
_atom_site_fract_y
_atom_site_fract_z
Si Si1 0.302491 0.171336 0.904828
Si Si2 0.681689 0.165801 0.346328
Si Si3 0.521758 0.769312 0.802474
Si Si4 0.383353 0.891344 0.371427
Si Si5 0.083864 0.398511 0.796640
Si Si6 0.890328 0.187075 0.977899
Si Si7 0.612356 0.643270 0.498463
O O1 0.310620 0.134233 0.780525
O O2 0.343369 0.276205 0.921596
O O3 0.367115 0.122625 0.997542
O O4 0.192548 0.164206 0.936270
O O5 0.763756 0.236245 0.375000
O O6 0.581395 0.216375 0.346720
O O7 0.673238 0.091713 0.445938
O O8 0.538061 0.830264 0.689435
O O9 0.591339 0.819270 0.888968
O O10 0.548393 0.662287 0.789195
O O11 0.287788 0.859551 0.316412
O O12 0.385121 0.002557 0.365939
O O13 0.063023 0.500000 0.750000
O O14 0.881243 0.118758 0.875000
O O15 0.000000 0.189765 0.000000
O O16 0.500000 0.644141 0.500000
O O17 0.649956 0.649956 0.625000
#
# Coordination Sequence:
#
# PCOD9550565 Si02
#       7
#     8   8   8   8   8   8   8
#     4  11  23  42  65  98 137 171 224 289 347 414
#     4  11  26  42  62  91 142 188 219 283 352 427
#     4  11  22  43  65  95 134 182 239 287 346 405
#     4  11  22  39  71 100 128 170 229 301 347 409
#     4  10  24  41  65  98 134 181 231 280 357 436
#     4  10  21  40  72  99 125 170 218 279 349 414
#     4  12  23  39  62  95 131 177 237 293 341 392
#
# _framework density 22.40025
#
# number of rings (size 3 to 8) (size 9 to 14) (size 15 to 20)
#    0.000    1.143    2.857    3.429    4.000    1.143 
#    0.000    1.429    6.286    0.000    0.000    0.000 
#    0.000    0.000    0.000    0.000    0.000    0.000 
#
# Total GULP energy -312521.196982 kJ/mol
# GULP energy per Si atom -5580.735660 kJ/mol
# Density = 2.234927 g / cm^3
# Si number density = 22.400250 Si / 1000 Ang^3
#
#
#
# Elastic Constant Matrix: (Units=GPa)
#
#
# Indices 1 2 3 4 5 6 
#
# 1 74.6622 27.3637 20.8237 0.0000 0.0000 0.0000
# 2 27.3637 74.6663 20.8231 0.0000 0.0000 0.0000
# 3 20.8237 20.8231 141.4697 0.0000 0.0000 0.0000
# 4 0.0000 0.0000 0.0000 32.3524 0.0000 0.0000
# 5 0.0000 0.0000 0.0000 0.0000 32.3522 0.0000
# 6 0.0000 0.0000 0.0000 0.0000 0.0000 15.4021
#
#
#
# Elastic Compliance Matrix: (Units=1/GPa)
#
#
# Indices 1 2 3 4 5 6 
#
# 1 0.015785 -0.005357 -0.001535 0.000000 0.000000 0.000000
# 2 -0.005357 0.015784 -0.001535 0.000000 0.000000 0.000000
# 3 -0.001535 -0.001535 0.007521 0.000000 0.000000 0.000000
# 4 0.000000 0.000000 0.000000 0.030910 0.000000 0.000000
# 5 0.000000 0.000000 0.000000 0.000000 0.030910 0.000000
# 6 0.000000 0.000000 0.000000 0.000000 0.000000 0.064926
#
#
# Mechanical properties :
#
#
# Convention : Reuss Voigt Hill
#
# Bulk Modulus (GPa) = 44.97121 47.64658 46.30890
# Shear Modulus (GPa) = 26.30188 30.80718 28.55453
#
# Velocity S-wave (km/s) = 3.43035 3.71253 3.57423
# Velocity P-wave (km/s) = 5.98410 6.30031 6.14424
#
# Compressibility (1/GPa) = 0.02223645
#
# Stress axis : x y z
#
# Youngs Moduli (GPa) = 63.35105 63.35483 132.96972
#
# Poissons Ratio (x) = 0.33938 0.20411
# Poissons Ratio (y) = 0.33936 0.20408
# Poissons Ratio (z) = 0.09724 0.09724
#
# Static dielectric constant tensor:
#      x y z
#    x 1.870800 0.000000 0.000000 
#    y 0.000000 1.870800 0.000000 
#    z 0.000000 0.000000 1.982890 
# 
# From -- ./inp_files/3992.got.cif
#   From: 2010.05.17/outbox.cif.g08.bks.cpg/sg95_2_cif.got.tgz:3992.got - 2010.06.03 19:46:49.
