data_PCOD9550647
_publ_section_title
;
Structure prediction by ZEFSAII (Michael W. Deem and Ramdas Pophale) SiO2 
 PCOD9550647
Probable space group: P 43 2 2
;
_chemical_formula_sum "Si O2"
_cell_formula_units_Z 56
_cell_length_a 19.780058
_cell_length_b 19.780058
_cell_length_c 9.989566
_cell_angle_alpha 90.000000
_cell_angle_beta 90.000000
_cell_angle_gamma 90.000000
_cell_volume 3908.424635
_symmetry_space_group_name_H-M "P 43 2 2"
_symmetry_group_IT_number 95
_symmetry_cell_setting 'tetragonal'
loop_
_space_group_symop_operation_xyz
x,y,z
-y,x,3/4+z
-x,-y,1/2+z
y,-x,1/4+z
x,-y,1/2-z
-x,y,-z
y,x,1/4-z
-y,-x,3/4-z
loop_
_atom_site_type_symbol
_atom_site_label
_atom_site_fract_x
_atom_site_fract_y
_atom_site_fract_z
Si Si1 0.338004 0.551589 0.878274
Si Si2 0.820146 0.555391 0.071009
Si Si3 0.649635 0.461826 0.887094
Si Si4 0.558457 0.006701 0.601323
Si Si5 0.578085 0.861482 0.472081
Si Si6 0.349668 0.761188 0.334599
Si Si7 0.146516 0.398767 0.861515
O O1 0.338505 0.500000 0.750000
O O2 0.377222 0.622779 0.875000
O O3 0.260980 0.559463 0.928031
O O4 0.372405 0.513294 0.000011
O O5 0.838747 0.596058 0.204709
O O6 0.839776 0.475782 0.084689
O O7 0.854840 0.583934 0.937554
O O8 0.666344 0.500000 0.750000
O O9 0.588225 0.411776 0.875000
O O10 0.711310 0.413912 0.931633
O O11 0.500000 0.030607 0.500000
O O12 0.612593 0.066160 0.621714
O O13 0.527861 0.000000 0.750000
O O14 0.583284 0.936183 0.537962
O O15 0.500000 0.840408 0.500000
O O16 0.629423 0.811907 0.546500
O O17 0.285399 0.714602 0.375000
O O18 0.349604 0.806491 0.199323
#
# Coordination Sequence:
#
# PCOD9550647 Si02
#       7
#     8   8   8   8   8   8   8
#     4  12  23  36  51  65  86 122 166 215 271 313
#     4  11  20  34  50  66  96 119 149 197 258 316
#     4  11  22  34  47  61  79 108 150 203 260 304
#     4  11  20  30  51  78 101 121 147 190 258 304
#     4  11  20  32  50  74  97 118 156 197 248 300
#     4  11  21  35  51  65  88 126 162 196 242 300
#     4  11  19  34  50  69  95 122 149 196 248 309
#
# _framework density 14.328023
#
# number of rings (size 3 to 8) (size 9 to 14) (size 15 to 20)
#    0.000    0.857    7.143    3.000    0.000    5.143 
#    0.000    0.000    0.000    0.000    0.000    0.000 
#    0.000    0.000    0.000    0.000    0.000    0.000 
#
# Total GULP energy -312080.107098 kJ/mol
# GULP energy per Si atom -5572.859055 kJ/mol
# Density = 1.429541 g / cm^3
# Si number density = 14.328023 Si / 1000 Ang^3
#
#
#
# Elastic Constant Matrix: (Units=GPa)
#
#
# Indices 1 2 3 4 5 6 
#
# 1 69.1816 32.6859 23.2819 0.0000 0.0000 0.0000
# 2 32.6859 69.1802 23.2813 0.0000 0.0000 0.0000
# 3 23.2819 23.2813 111.0803 0.0000 0.0000 0.0000
# 4 0.0000 0.0000 0.0000 40.6904 0.0000 0.0000
# 5 0.0000 0.0000 0.0000 0.0000 40.7895 0.0000
# 6 0.0000 0.0000 0.0000 0.0000 0.0000 10.6566
#
#
#
# Elastic Compliance Matrix: (Units=1/GPa)
#
#
# Indices 1 2 3 4 5 6 
#
# 1 0.019129 -0.008272 -0.002276 0.000000 0.000000 0.000000
# 2 -0.008272 0.019129 -0.002275 0.000000 0.000000 0.000000
# 3 -0.002276 -0.002275 0.009956 0.000000 0.000000 0.000000
# 4 0.000000 0.000000 0.000000 0.024576 0.000000 0.000000
# 5 0.000000 0.000000 0.000000 0.000000 0.024516 0.000000
# 6 0.000000 0.000000 0.000000 0.000000 0.000000 0.093839
#
#
# Mechanical properties :
#
#
# Convention : Reuss Voigt Hill
#
# Bulk Modulus (GPa) = 44.31047 45.32671 44.81859
# Shear Modulus (GPa) = 22.29018 29.77348 26.03183
#
# Velocity S-wave (km/s) = 3.94852 4.56344 4.26707
# Velocity P-wave (km/s) = 7.19588 7.71170 7.45825
#
# Compressibility (1/GPa) = 0.02256803
#
# Stress axis : x y z
#
# Youngs Moduli (GPa) = 52.27728 52.27630 100.43833
#
# Poissons Ratio (x) = 0.43243 0.22855
# Poissons Ratio (y) = 0.43244 0.22855
# Poissons Ratio (z) = 0.11896 0.11895
#
# Static dielectric constant tensor:
#      x y z
#    x 1.420370 0.000000 0.000000 
#    y 0.000000 1.419940 0.000000 
#    z 0.000000 0.000000 0.769560 
# 
# From -- ./inp_files/2921.got.cif
#   From: 2010.05.17/outbox.cif.g08.bks.cpg/sg95_2_cif.got.tgz:2921.got - 2010.06.03 19:46:49.
