data_PCOD9550059
_publ_section_title
;
Structure prediction by ZEFSAII (Michael W. Deem and Ramdas Pophale) SiO2 
 PCOD9550059
Probable space group: P 42 21 2
;
_chemical_formula_sum "Si O2"
_cell_formula_units_Z 54
_cell_length_a 11.197915
_cell_length_b 11.197915
_cell_length_c 22.798590
_cell_angle_alpha 90.000000
_cell_angle_beta 90.000000
_cell_angle_gamma 90.000000
_cell_volume 2858.790443
_symmetry_space_group_name_H-M "P 42 21 2"
_symmetry_group_IT_number 94
_symmetry_cell_setting 'tetragonal'
loop_
_space_group_symop_operation_xyz
x,y,z
1/2-y,1/2+x,1/2+z
-x,-y,z
1/2+y,1/2-x,1/2+z
1/2+x,1/2-y,1/2-z
1/2-x,1/2+y,1/2-z
y,x,-z
-y,-x,-z
loop_
_atom_site_type_symbol
_atom_site_label
_atom_site_fract_x
_atom_site_fract_y
_atom_site_fract_z
Si Si1 0.863073 0.458266 0.227394
Si Si2 0.838253 0.231180 0.144549
Si Si3 0.068050 0.632129 0.610673
Si Si4 0.615948 0.202069 0.971867
Si Si5 0.338256 0.567131 0.599794
Si Si6 0.500000 0.000000 0.057042
Si Si7 0.000000 0.000000 0.000000
Si Si8 0.490724 0.787446 0.642227
O O1 0.842182 0.332377 0.194205
O O2 0.822475 0.551905 0.177132
O O3 0.802826 0.455299 0.290244
O O4 0.000000 0.500000 0.238071
O O5 0.733845 0.133948 0.143754
O O6 0.964151 0.162977 0.148530
O O7 0.838839 0.296226 0.081091
O O8 0.204327 0.613710 0.594832
O O9 0.000000 0.500000 0.608405
O O10 0.004685 0.721325 0.565618
O O11 0.570849 0.098731 0.017240
O O12 0.685830 0.314170 0.000000
O O13 0.385269 0.506348 0.540736
O O14 0.428016 0.672226 0.614957
O O15 0.398045 0.046882 0.101277
#
# Coordination Sequence:
#
# PCOD9550059 Si02
#       8
#     8   8   8   8   8   4   2   8
#     4  10  21  41  64  86 122 168 216 262 309 399
#     4  11  22  41  64  96 125 166 214 264 340 386
#     4  10  20  39  64  87 120 173 214 251 327 393
#     4  11  21  37  66  93 127 171 213 265 321 400
#     4  12  24  38  60  96 130 165 202 269 333 384
#     4  12  24  38  60  96 132 166 220 262 322 380
#     4  12  28  36  60 100 146 152 206 284 338 384
#     4  12  26  39  62  97 131 165 214 274 322 379
#
# _framework density 18.889108
#
# number of rings (size 3 to 8) (size 9 to 14) (size 15 to 20)
#    0.000    0.889    8.889    0.000    8.296    0.000 
#    0.000    0.000    0.000    1.778    0.000    0.000 
#    0.000    0.000    0.000    0.000    0.000    0.000 
#
# Total GULP energy -300784.222820 kJ/mol
# GULP energy per Si atom -5570.078200 kJ/mol
# Density = 1.884612 g / cm^3
# Si number density = 18.889108 Si / 1000 Ang^3
#
#
#
# Elastic Constant Matrix: (Units=GPa)
#
#
# Indices 1 2 3 4 5 6 
#
# 1 77.2255 36.7865 44.6535 0.0000 0.0000 0.0000
# 2 36.7865 77.2249 44.6533 0.0000 0.0000 0.0000
# 3 44.6535 44.6533 138.3929 0.0000 0.0000 0.0000
# 4 0.0000 0.0000 0.0000 0.0125 0.0000 0.0000
# 5 0.0000 0.0000 0.0000 0.0000 0.0123 0.0000
# 6 0.0000 0.0000 0.0000 0.0000 0.0000 31.4160
#
#
#
# Elastic Compliance Matrix: (Units=1/GPa)
#
#
# Indices 1 2 3 4 5 6 
#
# 1 0.018233 -0.006496 -0.003787 0.000000 0.000000 0.000000
# 2 -0.006496 0.018233 -0.003787 0.000000 0.000000 0.000000
# 3 -0.003787 -0.003787 0.009670 0.000000 0.000000 0.000000
# 4 0.000000 0.000000 0.000000 80.240119 0.000000 0.000000
# 5 0.000000 0.000000 0.000000 0.000000 81.306097 0.000000
# 6 0.000000 0.000000 0.000000 0.000000 0.000000 0.031831
#
#
# Mechanical properties :
#
#
# Convention : Reuss Voigt Hill
#
# Bulk Modulus (GPa) = 55.56762 60.55888 58.06325
# Shear Modulus (GPa) = 0.03093 17.40480 8.71787
#
# Velocity S-wave (km/s) = 0.12810 3.03878 2.15065
# Velocity P-wave (km/s) = 5.43172 6.66649 6.08053
#
# Compressibility (1/GPa) = 0.01799609
#
# Stress axis : x y z
#
# Youngs Moduli (GPa) = 54.84520 54.84480 103.41526
#
# Poissons Ratio (x) = 0.35625 0.39166
# Poissons Ratio (y) = 0.35625 0.39166
# Poissons Ratio (z) = 0.20771 0.20771
#
# Static dielectric constant tensor:
#      x y z
#    x 1.702890 0.000000 0.000000 
#    y 0.000000 1.702890 0.000000 
#    z 0.000000 0.000000 1.689200 
# 
# From -- ./inp_files/4757.got.cif
#   From: 2010.05.17/outbox.cif.g08.bks.cpg/sg94_3_cif.got.tgz:4757.got - 2010.06.03 19:43:16.
