data_PCOD9550309
_publ_section_title
;
Structure prediction by ZEFSAII (Michael W. Deem and Ramdas Pophale) SiO2 
 PCOD9550309
Probable space group: P 42 21 2
;
_chemical_formula_sum "Si O2"
_cell_formula_units_Z 40
_cell_length_a 9.027909
_cell_length_b 9.027909
_cell_length_c 22.870995
_cell_angle_alpha 90.000000
_cell_angle_beta 90.000000
_cell_angle_gamma 90.000000
_cell_volume 1864.057928
_symmetry_space_group_name_H-M "P 42 21 2"
_symmetry_group_IT_number 94
_symmetry_cell_setting 'tetragonal'
loop_
_space_group_symop_operation_xyz
x,y,z
1/2-y,1/2+x,1/2+z
-x,-y,z
1/2+y,1/2-x,1/2+z
1/2+x,1/2-y,1/2-z
1/2-x,1/2+y,1/2-z
y,x,-z
-y,-x,-z
loop_
_atom_site_type_symbol
_atom_site_label
_atom_site_fract_x
_atom_site_fract_y
_atom_site_fract_z
Si Si1 0.242962 0.007778 0.992429
Si Si2 0.803957 0.618195 0.632708
Si Si3 0.164013 0.988337 0.310963
Si Si4 0.665116 0.028443 0.118811
Si Si5 0.166004 0.195739 0.197446
O O1 0.307687 0.966098 0.929473
O O2 0.109578 0.890423 0.000000
O O3 0.342348 0.982231 0.048930
O O4 0.168967 0.168967 0.000000
O O5 0.952877 0.704925 0.647739
O O6 0.681082 0.749927 0.632827
O O7 0.759688 0.494046 0.680005
O O8 0.158128 0.092654 0.254071
O O9 0.215198 0.825280 0.293144
O O10 0.000000 0.000000 0.338114
O O11 0.500000 0.000000 0.143500
O O12 0.774259 0.903716 0.144140
#
# Coordination Sequence:
#
# PCOD9550309 Si02
#       5
#     8   8   8   8   8
#     4   9  18  38  66  95 124 167 223 275 326 397
#     4  11  23  43  68  94 130 176 226 277 333 410
#     4  12  26  42  63  95 134 173 221 278 341 408
#     4  11  22  38  66  96 130 167 214 282 339 389
#     4  12  24  42  65  92 127 177 224 271 335 411
#
# _framework density 21.458562000000001
#
# number of rings (size 3 to 8) (size 9 to 14) (size 15 to 20)
#    0.000    1.000    2.000    6.000    0.000    3.200 
#    0.000    0.000    0.000    4.200    0.000    0.000 
#    0.000    0.000    0.000    0.000    0.000    0.000 
#
# Total GULP energy -223625.099432 kJ/mol
# GULP energy per Si atom -5590.627486 kJ/mol
# Density = 2.140972 g / cm^3
# Si number density = 21.458562 Si / 1000 Ang^3
#
#
#
# Elastic Constant Matrix: (Units=GPa)
#
#
# Indices 1 2 3 4 5 6 
#
# 1 75.3602 15.6940 8.4359 0.0000 0.0000 0.0000
# 2 15.6940 75.3605 8.4362 0.0000 0.0000 0.0000
# 3 8.4359 8.4362 90.8344 0.0000 0.0000 0.0000
# 4 0.0000 0.0000 0.0000 22.2979 0.0000 0.0000
# 5 0.0000 0.0000 0.0000 0.0000 22.2991 0.0000
# 6 0.0000 0.0000 0.0000 0.0000 0.0000 36.2058
#
#
#
# Elastic Compliance Matrix: (Units=1/GPa)
#
#
# Indices 1 2 3 4 5 6 
#
# 1 0.013967 -0.002793 -0.001038 0.000000 0.000000 0.000000
# 2 -0.002793 0.013967 -0.001038 0.000000 0.000000 0.000000
# 3 -0.001038 -0.001038 0.011202 0.000000 0.000000 0.000000
# 4 0.000000 0.000000 0.000000 0.044847 0.000000 0.000000
# 5 0.000000 0.000000 0.000000 0.000000 0.044845 0.000000
# 6 0.000000 0.000000 0.000000 0.000000 0.000000 0.027620
#
#
# Mechanical properties :
#
#
# Convention : Reuss Voigt Hill
#
# Bulk Modulus (GPa) = 34.01361 34.07638 34.04499
# Shear Modulus (GPa) = 28.41151 30.09314 29.25233
#
# Velocity S-wave (km/s) = 3.64265 3.74890 3.69616
# Velocity P-wave (km/s) = 5.79458 5.88673 5.84084
#
# Compressibility (1/GPa) = 0.02940000
#
# Stress axis : x y z
#
# Youngs Moduli (GPa) = 71.59561 71.59579 89.27116
#
# Poissons Ratio (x) = 0.19994 0.09265
# Poissons Ratio (y) = 0.19993 0.09265
# Poissons Ratio (z) = 0.07430 0.07431
#
# Static dielectric constant tensor:
#      x y z
#    x 1.796440 0.000000 0.000000 
#    y 0.000000 1.796440 0.000000 
#    z 0.000000 0.000000 1.779250 
# 
# From -- ./inp_files/4918.got.cif
#   From: 2010.05.17/outbox.cif.g08.bks.cpg/sg94_3_cif.got.tgz:4918.got - 2010.06.03 19:43:16.
