data_PCOD9550734
_publ_section_title
;
Structure prediction by ZEFSAII (Michael W. Deem and Ramdas Pophale) SiO2 
 PCOD9550734
Probable space group: P 43 21 2
;
_chemical_formula_sum "Si O2"
_cell_formula_units_Z 40
_cell_length_a 19.730644
_cell_length_b 19.730644
_cell_length_c 5.580431
_cell_angle_alpha 90.000000
_cell_angle_beta 90.000000
_cell_angle_gamma 90.000000
_cell_volume 2172.452372
_symmetry_space_group_name_H-M "P 43 21 2"
_symmetry_group_IT_number 96
_symmetry_cell_setting 'tetragonal'
loop_
_space_group_symop_operation_xyz
x,y,z
1/2-y,1/2+x,3/4+z
-x,-y,1/2+z
1/2+y,1/2-x,1/4+z
1/2+x,1/2-y,1/4-z
1/2-x,1/2+y,3/4-z
y,x,-z
-y,-x,1/2-z
loop_
_atom_site_type_symbol
_atom_site_label
_atom_site_fract_x
_atom_site_fract_y
_atom_site_fract_z
Si Si1 0.231186 0.570963 0.308556
Si Si2 0.711122 0.711122 0.500000
Si Si3 0.397370 0.909687 0.434062
Si Si4 0.488191 0.857666 0.807603
Si Si5 0.434803 0.234346 0.932346
Si Si6 0.775030 0.775030 0.000000
O O1 0.159799 0.576850 0.173404
O O2 0.203375 0.556491 0.575476
O O3 0.264809 0.503223 0.191420
O O4 0.264571 0.643744 0.273842
O O5 0.629882 0.722624 0.508657
O O6 0.744482 0.742156 0.749283
O O7 0.441217 0.911185 0.672285
O O8 0.318012 0.904944 0.488486
O O9 0.399450 0.971486 0.255825
O O10 0.540434 0.814872 0.645823
#
# Coordination Sequence:
#
# PCOD9550734 Si02
#       6
#     8   4   8   8   8   4
#     4  10  22  38  61  87 124 161 202 264 319 373
#     4  12  24  40  68 100 124 164 222 268 312 378
#     4  10  18  36  54  78 114 162 202 254 298 372
#     4  10  20  34  60  76 120 160 204 250 314 364
#     4  10  22  38  61  87 124 161 202 264 319 373
#     4  12  24  40  68 100 124 164 222 268 312 378
#
# _framework density 18.412371
#
# number of rings (size 3 to 8) (size 9 to 14) (size 15 to 20)
#    0.000    1.600    2.000    3.600    5.600    0.000 
#    0.000    0.000  158.400    0.000    5.200    0.000 
#    0.000    0.000    0.000    0.000    0.000    0.000 
#
# Total GULP energy -222730.453233 kJ/mol
# GULP energy per Si atom -5568.261331 kJ/mol
# Density = 1.837046 g / cm^3
# Si number density = 18.412371 Si / 1000 Ang^3
#
#
#
# Elastic Constant Matrix: (Units=GPa)
#
#
# Indices 1 2 3 4 5 6 
#
# 1 106.2906 53.7228 34.6418 0.0000 0.0000 0.0000
# 2 53.7228 106.2906 34.6418 0.0000 0.0000 0.0000
# 3 34.6418 34.6418 78.1562 0.0000 0.0000 0.0000
# 4 0.0000 0.0000 0.0000 21.1663 0.0000 0.0000
# 5 0.0000 0.0000 0.0000 0.0000 21.1663 0.0000
# 6 0.0000 0.0000 0.0000 0.0000 0.0000 37.2418
#
#
#
# Elastic Compliance Matrix: (Units=1/GPa)
#
#
# Indices 1 2 3 4 5 6 
#
# 1 0.013378 -0.005645 -0.003428 0.000000 0.000000 0.000000
# 2 -0.005645 0.013378 -0.003428 0.000000 0.000000 0.000000
# 3 -0.003428 -0.003428 0.015834 0.000000 0.000000 0.000000
# 4 0.000000 0.000000 0.000000 0.047245 0.000000 0.000000
# 5 0.000000 0.000000 0.000000 0.000000 0.047245 0.000000
# 6 0.000000 0.000000 0.000000 0.000000 0.000000 0.026852
#
#
# Mechanical properties :
#
#
# Convention : Reuss Voigt Hill
#
# Bulk Modulus (GPa) = 56.85197 59.63889 58.24543
# Shear Modulus (GPa) = 25.66790 27.09694 26.38242
#
# Velocity S-wave (km/s) = 3.73776 3.84040 3.78943
# Velocity P-wave (km/s) = 7.04073 7.21982 7.13084
#
# Compressibility (1/GPa) = 0.01758954
#
# Stress axis : x y z
#
# Youngs Moduli (GPa) = 74.74754 74.74754 63.15677
#
# Poissons Ratio (x) = 0.42193 0.21649
# Poissons Ratio (y) = 0.42193 0.21649
# Poissons Ratio (z) = 0.25622 0.25622
#
# Static dielectric constant tensor:
#      x y z
#    x 1.657380 0.000000 0.000000 
#    y 0.000000 1.657380 0.000000 
#    z 0.000000 0.000000 1.900270 
# 
# From -- ./inp_files/469.got.cif
#   From: 2010.05.17/outbox.cif.g08.bks.cpg/sg96_1_cif.got.tgz:469.got - 2010.06.03 19:52:08.
