data_PCOD9550766
_publ_section_title
;
Structure prediction by ZEFSAII (Michael W. Deem and Ramdas Pophale) SiO2 
 PCOD9550766
Probable space group: P 43 21 2
;
_chemical_formula_sum "Si O2"
_cell_formula_units_Z 32
_cell_length_a 14.355875
_cell_length_b 14.355875
_cell_length_c 7.250971
_cell_angle_alpha 90.000000
_cell_angle_beta 90.000000
_cell_angle_gamma 90.000000
_cell_volume 1494.360930
_symmetry_space_group_name_H-M "P 43 21 2"
_symmetry_group_IT_number 96
_symmetry_cell_setting 'tetragonal'
loop_
_space_group_symop_operation_xyz
x,y,z
1/2-y,1/2+x,3/4+z
-x,-y,1/2+z
1/2+y,1/2-x,1/4+z
1/2+x,1/2-y,1/4-z
1/2-x,1/2+y,3/4-z
y,x,-z
-y,-x,1/2-z
loop_
_atom_site_type_symbol
_atom_site_label
_atom_site_fract_x
_atom_site_fract_y
_atom_site_fract_z
Si Si1 0.120757 0.289730 0.694246
Si Si2 0.537978 0.756055 0.778842
Si Si3 0.592514 0.274449 0.925197
Si Si4 0.440369 0.410923 0.789644
O O1 0.178782 0.376067 0.773006
O O2 0.171891 0.188863 0.722689
O O3 0.118079 0.304758 0.472236
O O4 0.021260 0.165531 0.455210
O O5 0.592442 0.592442 0.500000
O O6 0.477544 0.787469 0.952937
O O7 0.583216 0.654923 0.820618
O O8 0.535951 0.251299 0.109459
O O9 0.492284 0.507717 0.750000
#
# Coordination Sequence:
#
# PCOD9550766 Si02
#       4
#     8   8   8   8
#     4  11  24  45  65 102 137 185 227 280 345 410
#     4  11  25  41  69  99 133 184 224 284 344 406
#     4  10  23  43  65 101 140 167 229 286 334 412
#     4  10  19  36  64  97 125 167 214 282 339 380
#
# _framework density 21.413834000000001
#
# number of rings (size 3 to 8) (size 9 to 14) (size 15 to 20)
#    0.000    1.500    2.500    3.750    0.000   12.000 
#    4.500    0.000    0.000    0.000    0.000    0.000 
#    0.000    0.000    0.000    0.000    0.000    0.000 
#
# Total GULP energy -178329.903033 kJ/mol
# GULP energy per Si atom -5572.809470 kJ/mol
# Density = 2.136510 g / cm^3
# Si number density = 21.413834 Si / 1000 Ang^3
#
#
#
# Elastic Constant Matrix: (Units=GPa)
#
#
# Indices 1 2 3 4 5 6 
#
# 1 95.8012 53.0193 23.0982 0.0000 0.0000 0.0000
# 2 53.0193 95.8002 23.1000 0.0000 0.0000 0.0000
# 3 23.0982 23.1000 75.0822 0.0000 0.0000 0.0000
# 4 0.0000 0.0000 0.0000 24.7166 0.0000 0.0000
# 5 0.0000 0.0000 0.0000 0.0000 24.7168 0.0000
# 6 0.0000 0.0000 0.0000 0.0000 0.0000 29.1737
#
#
#
# Elastic Compliance Matrix: (Units=1/GPa)
#
#
# Indices 1 2 3 4 5 6 
#
# 1 0.015402 -0.007973 -0.002285 0.000000 0.000000 0.000000
# 2 -0.007973 0.015402 -0.002286 0.000000 0.000000 0.000000
# 3 -0.002285 -0.002286 0.014725 0.000000 0.000000 0.000000
# 4 0.000000 0.000000 0.000000 0.040459 0.000000 0.000000
# 5 0.000000 0.000000 0.000000 0.000000 0.040458 0.000000
# 6 0.000000 0.000000 0.000000 0.000000 0.000000 0.034277
#
#
# Mechanical properties :
#
#
# Convention : Reuss Voigt Hill
#
# Bulk Modulus (GPa) = 48.92153 51.67987 50.30070
# Shear Modulus (GPa) = 25.95725 26.88584 26.42154
#
# Velocity S-wave (km/s) = 3.48540 3.54720 3.51644
# Velocity P-wave (km/s) = 6.25242 6.40024 6.32676
#
# Compressibility (1/GPa) = 0.02044090
#
# Stress axis : x y z
#
# Youngs Moduli (GPa) = 64.92815 64.92659 67.91158
#
# Poissons Ratio (x) = 0.51765 0.15519
# Poissons Ratio (y) = 0.51766 0.15524
# Poissons Ratio (z) = 0.14837 0.14841
#
# Static dielectric constant tensor:
#      x y z
#    x 1.820530 0.000000 0.000000 
#    y 0.000000 1.820540 0.000000 
#    z 0.000000 0.000000 1.795320 
# 
# From -- ./inp_files/1123.got.cif
#   From: 2010.05.17/outbox.cif.g08.bks.cpg/sg96_1_cif.got.tgz:1123.got - 2010.06.03 19:52:08.
