data_PCOD9550149
_publ_section_title
;
Structure prediction by ZEFSAII (Michael W. Deem and Ramdas Pophale) SiO2 
 PCOD9550149
Probable space group: P 42 21 2
;
_chemical_formula_sum "Si O2"
_cell_formula_units_Z 40
_cell_length_a 8.707928
_cell_length_b 8.707928
_cell_length_c 25.418719
_cell_angle_alpha 90.000000
_cell_angle_beta 90.000000
_cell_angle_gamma 90.000000
_cell_volume 1927.450880
_symmetry_space_group_name_H-M "P 42 21 2"
_symmetry_group_IT_number 94
_symmetry_cell_setting 'tetragonal'
loop_
_space_group_symop_operation_xyz
x,y,z
1/2-y,1/2+x,1/2+z
-x,-y,z
1/2+y,1/2-x,1/2+z
1/2+x,1/2-y,1/2-z
1/2-x,1/2+y,1/2-z
y,x,-z
-y,-x,-z
loop_
_atom_site_type_symbol
_atom_site_label
_atom_site_fract_x
_atom_site_fract_y
_atom_site_fract_z
Si Si1 0.590363 0.646440 0.779040
Si Si2 0.656198 0.935149 0.196856
Si Si3 0.601154 0.221318 0.042852
Si Si4 0.321942 0.546261 0.410404
Si Si5 0.264078 0.264078 0.000000
Si Si6 0.500000 0.500000 0.119024
O O1 0.500000 0.500000 0.755919
O O2 0.543183 0.788587 0.743956
O O3 0.770324 0.625539 0.778520
O O4 0.542584 0.637690 0.840539
O O5 0.777065 0.922610 0.149815
O O6 0.500000 0.000000 0.173169
O O7 0.441867 0.217019 0.009201
O O8 0.554547 0.354205 0.085099
O O9 0.691498 0.077385 0.069190
O O10 0.720010 0.279991 0.000000
O O11 0.500000 0.500000 0.413861
O O12 0.309829 0.694336 0.447673
#
# Coordination Sequence:
#
# PCOD9550149 Si02
#       6
#     8   8   8   8   4   4
#     4  10  24  42  70  99 142 180 240 294 362 432
#     4  12  24  45  73 104 141 193 240 301 363 435
#     4  12  23  44  77 103 142 191 238 302 360 434
#     4  12  28  45  69 103 154 189 238 301 368 438
#     4  12  22  44  68 108 132 190 238 298 362 436
#     4  10  21  44  70 102 142 179 246 292 362 436
#
# _framework density 20.752797000000001
#
# number of rings (size 3 to 8) (size 9 to 14) (size 15 to 20)
#    0.600    0.000    2.000    7.500    2.800    0.000 
#    0.000    0.000    0.000    0.000    0.000    0.000 
#    0.000    0.000    0.000    0.000    0.000    0.000 
#
# Total GULP energy -223016.367750 kJ/mol
# GULP energy per Si atom -5575.409194 kJ/mol
# Density = 2.070556 g / cm^3
# Si number density = 20.752797 Si / 1000 Ang^3
#
#
#
# Elastic Constant Matrix: (Units=GPa)
#
#
# Indices 1 2 3 4 5 6 
#
# 1 108.4544 45.3542 32.2232 0.0000 0.0000 0.0000
# 2 45.3542 108.4559 32.2231 0.0000 0.0000 0.0000
# 3 32.2232 32.2231 106.1261 0.0000 0.0000 0.0000
# 4 0.0000 0.0000 0.0000 74.0443 0.0000 0.0000
# 5 0.0000 0.0000 0.0000 0.0000 74.0455 0.0000
# 6 0.0000 0.0000 0.0000 0.0000 0.0000 35.7548
#
#
#
# Elastic Compliance Matrix: (Units=1/GPa)
#
#
# Indices 1 2 3 4 5 6 
#
# 1 0.011649 -0.004199 -0.002262 0.000000 0.000000 0.000000
# 2 -0.004199 0.011648 -0.002262 0.000000 0.000000 0.000000
# 3 -0.002262 -0.002262 0.010796 0.000000 0.000000 0.000000
# 4 0.000000 0.000000 0.000000 0.013505 0.000000 0.000000
# 5 0.000000 0.000000 0.000000 0.000000 0.013505 0.000000
# 6 0.000000 0.000000 0.000000 0.000000 0.000000 0.027968
#
#
# Mechanical properties :
#
#
# Convention : Reuss Voigt Hill
#
# Bulk Modulus (GPa) = 60.06910 60.29305 60.18107
# Shear Modulus (GPa) = 44.61620 50.98464 47.80042
#
# Velocity S-wave (km/s) = 4.64172 4.96195 4.80450
# Velocity P-wave (km/s) = 7.59838 7.87045 7.73561
#
# Compressibility (1/GPa) = 0.01664749
#
# Stress axis : x y z
#
# Youngs Moduli (GPa) = 85.84772 85.84905 92.62453
#
# Poissons Ratio (x) = 0.36050 0.20950
# Poissons Ratio (y) = 0.36049 0.20950
# Poissons Ratio (z) = 0.19418 0.19417
#
# Static dielectric constant tensor:
#      x y z
#    x 1.787910 0.000000 0.000000 
#    y 0.000000 1.787910 0.000000 
#    z 0.000000 0.000000 1.697020 
# 
# From -- ./inp_files/5000.got.cif
#   From: 2010.05.17/outbox.cif.g08.bks.cpg/sg94_3_cif.got.tgz:5000.got - 2010.06.03 19:43:16.
