data_PCOD9550380
_publ_section_title
;
Structure prediction by ZEFSAII (Michael W. Deem and Ramdas Pophale) SiO2 
 PCOD9550380
Probable space group: P 42 21 2
;
_chemical_formula_sum "Si O2"
_cell_formula_units_Z 34
_cell_length_a 17.473435
_cell_length_b 17.473435
_cell_length_c 5.074198
_cell_angle_alpha 90.000000
_cell_angle_beta 90.000000
_cell_angle_gamma 90.000000
_cell_volume 1549.258856
_symmetry_space_group_name_H-M "P 42 21 2"
_symmetry_group_IT_number 94
_symmetry_cell_setting 'tetragonal'
loop_
_space_group_symop_operation_xyz
x,y,z
1/2-y,1/2+x,1/2+z
-x,-y,z
1/2+y,1/2-x,1/2+z
1/2+x,1/2-y,1/2-z
1/2-x,1/2+y,1/2-z
y,x,-z
-y,-x,-z
loop_
_atom_site_type_symbol
_atom_site_label
_atom_site_fract_x
_atom_site_fract_y
_atom_site_fract_z
Si Si1 0.372304 0.627697 0.000000
Si Si2 0.531867 0.641555 0.119022
Si Si3 0.605799 0.159188 0.697221
Si Si4 0.687608 0.999245 0.706280
Si Si5 0.799892 0.799892 0.000000
Si Si6 0.000000 0.000000 0.000000
O O1 0.460220 0.641075 0.917490
O O2 0.354019 0.680117 0.250885
O O3 0.534125 0.727077 0.216432
O O4 0.505725 0.576363 0.324093
O O5 0.610120 0.610120 0.000000
O O6 0.632773 0.071987 0.676575
O O7 0.541566 0.172632 0.480103
O O8 0.675594 0.217046 0.616309
O O9 0.564454 0.177149 0.975985
#
# Coordination Sequence:
#
# PCOD9550380 Si02
#       6
#     4   8   8   8   4   2
#     4  12  21  42  71  98 141 192 220 277 356 440
#     4  12  25  40  67 111 145 189 237 287 367 442
#     4  12  27  50  75 105 142 189 244 301 364 416
#     4  12  29  49  75 105 140 193 248 307 353 431
#     4  12  23  44  73 102 144 181 222 293 364 422
#     4  12  24  40  70 102 154 194 216 292 358 464
#
# _framework density 21.945979999999999
#
# number of rings (size 3 to 8) (size 9 to 14) (size 15 to 20)
#    0.000    0.000    7.059    2.118    4.941    2.824 
#    0.000    1.176    0.000    0.000    0.000    0.000 
#    0.000    0.000    0.000    0.000    0.000    0.000 
#
# Total GULP energy -190057.481739 kJ/mol
# GULP energy per Si atom -5589.925933 kJ/mol
# Density = 2.189603 g / cm^3
# Si number density = 21.945980 Si / 1000 Ang^3
#
#
#
# Elastic Constant Matrix: (Units=GPa)
#
#
# Indices 1 2 3 4 5 6 
#
# 1 113.0894 -5.0717 1.8179 0.0000 0.0000 0.0000
# 2 -5.0717 113.0901 1.8159 0.0000 0.0000 0.0000
# 3 1.8179 1.8159 87.0103 0.0000 0.0000 0.0000
# 4 0.0000 0.0000 0.0000 17.5305 0.0000 0.0000
# 5 0.0000 0.0000 0.0000 0.0000 17.5304 0.0000
# 6 0.0000 0.0000 0.0000 0.0000 0.0000 44.6712
#
#
#
# Elastic Compliance Matrix: (Units=1/GPa)
#
#
# Indices 1 2 3 4 5 6 
#
# 1 0.008864 0.000401 -0.000194 0.000000 0.000000 0.000000
# 2 0.000401 0.008864 -0.000193 0.000000 0.000000 0.000000
# 3 -0.000194 -0.000193 0.011501 0.000000 0.000000 0.000000
# 4 0.000000 0.000000 0.000000 0.057043 0.000000 0.000000
# 5 0.000000 0.000000 0.000000 0.000000 0.057044 0.000000
# 6 0.000000 0.000000 0.000000 0.000000 0.000000 0.022386
#
#
# Mechanical properties :
#
#
# Convention : Reuss Voigt Hill
#
# Bulk Modulus (GPa) = 34.18148 34.47934 34.33041
# Shear Modulus (GPa) = 28.50210 36.92159 32.71184
#
# Velocity S-wave (km/s) = 3.60771 4.10614 3.86497
# Velocity P-wave (km/s) = 5.74136 6.18269 5.96610
#
# Compressibility (1/GPa) = 0.02925561
#
# Stress axis : x y z
#
# Youngs Moduli (GPa) = 112.82047 112.82126 86.94916
#
# Poissons Ratio (x) = -0.04520 0.01683
# Poissons Ratio (y) = -0.04520 0.01681
# Poissons Ratio (z) = 0.02184 0.02181
#
# Static dielectric constant tensor:
#      x y z
#    x 1.864320 0.000000 0.000000 
#    y 0.000000 1.864320 0.000000 
#    z 0.000000 0.000000 1.801720 
# 
# From -- ./inp_files/330.got.cif
#   From: 2010.05.17/outbox.cif.g08.bks.cpg/sg94_1_cif.got.tgz:330.got - 2010.06.03 19:43:16.
