data_PCOD9550169
_publ_section_title
;
Structure prediction by ZEFSAII (Michael W. Deem and Ramdas Pophale) SiO2 
 PCOD9550169
Probable space group: P 42 21 2
;
_chemical_formula_sum "Si O2"
_cell_formula_units_Z 24
_cell_length_a 9.744662
_cell_length_b 9.744662
_cell_length_c 11.326822
_cell_angle_alpha 90.000000
_cell_angle_beta 90.000000
_cell_angle_gamma 90.000000
_cell_volume 1075.577319
_symmetry_space_group_name_H-M "P 42 21 2"
_symmetry_group_IT_number 94
_symmetry_cell_setting 'tetragonal'
loop_
_space_group_symop_operation_xyz
x,y,z
1/2-y,1/2+x,1/2+z
-x,-y,z
1/2+y,1/2-x,1/2+z
1/2+x,1/2-y,1/2-z
1/2-x,1/2+y,1/2-z
y,x,-z
-y,-x,-z
loop_
_atom_site_type_symbol
_atom_site_label
_atom_site_fract_x
_atom_site_fract_y
_atom_site_fract_z
Si Si1 0.284815 0.795349 0.307444
Si Si2 0.569806 0.860367 0.029145
Si Si3 0.054870 0.152458 0.644898
O O1 0.389505 0.833730 0.413567
O O2 0.161876 0.714036 0.373515
O O3 0.342334 0.701089 0.206014
O O4 0.223626 0.941401 0.268016
O O5 0.466522 0.747844 0.970660
O O6 0.500000 0.000000 0.068780
O O7 0.000000 0.000000 0.627404
#
# Coordination Sequence:
#
# PCOD9550169 Si02
#       3
#     8   8   8
#     4   9  22  39  59  96 129 168 221 262 322 392
#     4   9  21  39  63  90 135 167 217 267 321 388
#     4  10  22  39  66  91 130 168 220 270 324 388
#
# _framework density 22.313599
#
# number of rings (size 3 to 8) (size 9 to 14) (size 15 to 20)
#    2.000    0.667    0.000    0.000    4.667    6.667 
#    0.000    3.333    0.000    0.000    0.000    0.000 
#    0.000    0.000    0.000    0.000    0.000    0.000 
#
# Total GULP energy -133857.679508 kJ/mol
# GULP energy per Si atom -5577.403313 kJ/mol
# Density = 2.226281 g / cm^3
# Si number density = 22.313599 Si / 1000 Ang^3
#
#
#
# Elastic Constant Matrix: (Units=GPa)
#
#
# Indices 1 2 3 4 5 6 
#
# 1 71.4298 2.8222 12.6714 0.0000 0.0000 0.0000
# 2 2.8222 71.4298 12.6714 0.0000 0.0000 0.0000
# 3 12.6714 12.6714 74.1697 0.0000 0.0000 0.0000
# 4 0.0000 0.0000 0.0000 26.6624 0.0000 0.0000
# 5 0.0000 0.0000 0.0000 0.0000 26.6624 0.0000
# 6 0.0000 0.0000 0.0000 0.0000 0.0000 41.6184
#
#
#
# Elastic Compliance Matrix: (Units=1/GPa)
#
#
# Indices 1 2 3 4 5 6 
#
# 1 0.014439 -0.000137 -0.002443 0.000000 0.000000 0.000000
# 2 -0.000137 0.014439 -0.002443 0.000000 0.000000 0.000000
# 3 -0.002443 -0.002443 0.014317 0.000000 0.000000 0.000000
# 4 0.000000 0.000000 0.000000 0.037506 0.000000 0.000000
# 5 0.000000 0.000000 0.000000 0.000000 0.037506 0.000000
# 6 0.000000 0.000000 0.000000 0.000000 0.000000 0.024028
#
#
# Mechanical properties :
#
#
# Convention : Reuss Voigt Hill
#
# Bulk Modulus (GPa) = 30.16837 30.37324 30.27080
# Shear Modulus (GPa) = 30.61267 31.57959 31.09613
#
# Velocity S-wave (km/s) = 3.70797 3.76608 3.73714
# Velocity P-wave (km/s) = 5.64638 5.70549 5.67601
#
# Compressibility (1/GPa) = 0.03314730
#
# Stress axis : x y z
#
# Youngs Moduli (GPa) = 69.25874 69.25874 69.84485
#
# Poissons Ratio (x) = 0.00949 0.17065
# Poissons Ratio (y) = 0.00949 0.17065
# Poissons Ratio (z) = 0.16922 0.16922
#
# Static dielectric constant tensor:
#      x y z
#    x 1.842310 0.000000 0.000000 
#    y 0.000000 1.842310 0.000000 
#    z 0.000000 0.000000 1.813710 
# 
# From -- ./inp_files/955.got.cif
#   From: 2010.05.17/outbox.cif.g08.bks.cpg/sg94_1_cif.got.tgz:955.got - 2010.06.03 19:43:16.
