data_PCOD9550891
_publ_section_title
;
Structure prediction by ZEFSAII (Michael W. Deem and Ramdas Pophale) SiO2 
 PCOD9550891
Probable space group: P 43 21 2
;
_chemical_formula_sum "Si O2"
_cell_formula_units_Z 40
_cell_length_a 16.983790
_cell_length_b 16.983790
_cell_length_c 7.595026
_cell_angle_alpha 90.000000
_cell_angle_beta 90.000000
_cell_angle_gamma 90.000000
_cell_volume 2190.778587
_symmetry_space_group_name_H-M "P 43 21 2"
_symmetry_group_IT_number 96
_symmetry_cell_setting 'tetragonal'
loop_
_space_group_symop_operation_xyz
x,y,z
1/2-y,1/2+x,3/4+z
-x,-y,1/2+z
1/2+y,1/2-x,1/4+z
1/2+x,1/2-y,1/4-z
1/2-x,1/2+y,3/4-z
y,x,-z
-y,-x,1/2-z
loop_
_atom_site_type_symbol
_atom_site_label
_atom_site_fract_x
_atom_site_fract_y
_atom_site_fract_z
Si Si1 0.844782 0.255538 0.886992
Si Si2 0.387182 0.735539 0.163043
Si Si3 0.819724 0.985391 0.589848
Si Si4 0.500779 0.670564 0.437344
Si Si5 0.816716 0.183285 0.250000
Si Si6 0.491095 0.491095 0.500000
O O1 0.802848 0.197153 0.750000
O O2 0.819415 0.344196 0.841663
O O3 0.936509 0.233654 0.887308
O O4 0.808226 0.237615 0.080086
O O5 0.323628 0.676373 0.250000
O O6 0.417569 0.708330 0.971930
O O7 0.466057 0.682965 0.633089
O O8 0.909792 0.007869 0.640392
O O9 0.776018 0.960213 0.042584
O O10 0.592804 0.689844 0.439249
O O11 0.491683 0.576821 0.404843
#
# Coordination Sequence:
#
# PCOD9550891 Si02
#       6
#     8   8   8   8   4   4
#     4  10  21  37  54  77 113 155 185 227 279 338
#     4  11  23  34  53  82 115 148 186 227 280 333
#     4  11  22  36  55  80 112 148 186 228 277 332
#     4  10  22  33  53  87 112 147 181 228 275 335
#     4   9  20  36  58  80 116 146 189 224 286 342
#     4  11  20  30  54  80 118 148 177 212 266 338
#
# _framework density 18.25835
#
# number of rings (size 3 to 8) (size 9 to 14) (size 15 to 20)
#    0.000    1.600    3.000    1.800    8.400    3.200 
#    0.000    0.000    0.000    0.000   10.400    0.000 
#    0.000    0.000    0.000    0.000    0.000    0.000 
#
# Total GULP energy -223294.577038 kJ/mol
# GULP energy per Si atom -5582.364426 kJ/mol
# Density = 1.821679 g / cm^3
# Si number density = 18.258350 Si / 1000 Ang^3
#
#
#
# Elastic Constant Matrix: (Units=GPa)
#
#
# Indices 1 2 3 4 5 6 
#
# 1 42.9769 54.3359 23.4016 0.0000 0.0000 0.0000
# 2 54.3359 42.9793 23.3971 0.0000 0.0000 0.0000
# 3 23.4016 23.3971 62.2464 0.0000 0.0000 0.0000
# 4 0.0000 0.0000 0.0000 17.2338 0.0000 0.0000
# 5 0.0000 0.0000 0.0000 0.0000 17.2336 0.0000
# 6 0.0000 0.0000 0.0000 0.0000 0.0000 36.6705
#
#
#
# Elastic Compliance Matrix: (Units=1/GPa)
#
#
# Indices 1 2 3 4 5 6 
#
# 1 -0.037754 0.050294 -0.004711 0.000000 0.000000 0.000000
# 2 0.050294 -0.037748 -0.004720 0.000000 0.000000 0.000000
# 3 -0.004711 -0.004720 0.019610 0.000000 0.000000 0.000000
# 4 0.000000 0.000000 0.000000 0.058025 0.000000 0.000000
# 5 0.000000 0.000000 0.000000 0.000000 0.058026 0.000000
# 6 0.000000 0.000000 0.000000 0.000000 0.000000 0.027270
#
#
# Mechanical properties :
#
#
# Convention : Reuss Voigt Hill
#
# Bulk Modulus (GPa) = 38.70536 38.94134 38.82335
# Shear Modulus (GPa) = 349.27895 17.36545 183.32220
#
# Velocity S-wave (km/s) = 13.84606 3.08733 10.03108
# Velocity P-wave (km/s) = 16.63919 5.83807 12.46888
#
# Compressibility (1/GPa) = 0.02583622
#
# Stress axis : x y z
#
# Youngs Moduli (GPa) = -26.48736 -26.49181 50.99350
#
# Poissons Ratio (x) = 1.33239 0.24023
# Poissons Ratio (y) = 1.33216 0.24068
# Poissons Ratio (z) = -0.12478 -0.12503
#
# Static dielectric constant tensor:
#      x y z
#    x 1.629610 0.000000 0.000000 
#    y 0.000000 1.629610 0.000000 
#    z 0.000000 0.000000 1.716310 
# 
# From -- ./inp_files/1447.got.cif
#   From: 2010.05.17/outbox.cif.g08.bks.cpg/sg96_1_cif.got.tgz:1447.got - 2010.06.03 19:52:08.
