data_PCOD9550553
_publ_section_title
;
Structure prediction by ZEFSAII (Michael W. Deem and Ramdas Pophale) SiO2 
 PCOD9550553
Probable space group: P 43 2 2
;
_chemical_formula_sum "Si O2"
_cell_formula_units_Z 44
_cell_length_a 11.710629
_cell_length_b 11.710629
_cell_length_c 19.360214
_cell_angle_alpha 90.000000
_cell_angle_beta 90.000000
_cell_angle_gamma 90.000000
_cell_volume 2655.037127
_symmetry_space_group_name_H-M "P 43 2 2"
_symmetry_group_IT_number 95
_symmetry_cell_setting 'tetragonal'
loop_
_space_group_symop_operation_xyz
x,y,z
-y,x,3/4+z
-x,-y,1/2+z
y,-x,1/4+z
x,-y,1/2-z
-x,y,-z
y,x,1/4-z
-y,-x,3/4-z
loop_
_atom_site_type_symbol
_atom_site_label
_atom_site_fract_x
_atom_site_fract_y
_atom_site_fract_z
Si Si1 0.812254 0.622550 0.786084
Si Si2 0.933769 0.317385 0.327346
Si Si3 0.365964 0.292859 0.812063
Si Si4 0.619792 0.397647 0.957623
Si Si5 0.777156 0.500000 0.250000
Si Si6 0.225416 0.881881 0.777842
O O1 0.835800 0.500000 0.750000
O O2 0.742331 0.617755 0.858151
O O3 0.720754 0.676407 0.732737
O O4 0.935443 0.674677 0.803004
O O5 0.858520 0.420973 0.296979
O O6 0.875321 0.201218 0.301309
O O7 0.916514 0.309046 0.409383
O O8 0.490097 0.306926 0.777785
O O9 0.300047 0.412272 0.795497
O O10 0.295866 0.191319 0.777166
O O11 0.601410 0.398591 0.875000
O O12 0.500000 0.407240 0.000000
O O13 0.178023 0.000000 0.750000
#
# Coordination Sequence:
#
# PCOD9550553 Si02
#       6
#     8   8   8   8   4   8
#     4  11  21  36  58  80 119 160 184 231 288 359
#     4  10  21  38  58  82 111 149 198 245 285 347
#     4  11  21  35  55  86 119 148 188 238 291 353
#     4  11  21  34  54  84 122 160 184 225 287 364
#     4  10  22  34  56  86 114 146 194 240 288 334
#     4  10  21  37  60  81 107 150 196 248 294 334
#
# _framework density 16.572272000000002
#
# number of rings (size 3 to 8) (size 9 to 14) (size 15 to 20)
#    0.000    1.455    7.273    0.000    2.545    0.000 
#    0.000    0.000    4.000    3.273    0.000    0.000 
#    0.000    0.000    0.000    0.000    0.000    0.000 
#
# Total GULP energy -244951.560171 kJ/mol
# GULP energy per Si atom -5567.080913 kJ/mol
# Density = 1.653455 g / cm^3
# Si number density = 16.572272 Si / 1000 Ang^3
#
#
#
# Elastic Constant Matrix: (Units=GPa)
#
#
# Indices 1 2 3 4 5 6 
#
# 1 105.1667 31.3944 32.7617 0.0000 0.0000 0.0000
# 2 31.3944 105.1665 32.7617 0.0000 0.0000 0.0000
# 3 32.7617 32.7617 103.2607 0.0000 0.0000 0.0000
# 4 0.0000 0.0000 0.0000 22.1678 0.0000 0.0000
# 5 0.0000 0.0000 0.0000 0.0000 22.1678 0.0000
# 6 0.0000 0.0000 0.0000 0.0000 0.0000 9.6793
#
#
#
# Elastic Compliance Matrix: (Units=1/GPa)
#
#
# Indices 1 2 3 4 5 6 
#
# 1 0.011096 -0.002459 -0.002740 0.000000 0.000000 0.000000
# 2 -0.002459 0.011096 -0.002740 0.000000 0.000000 0.000000
# 3 -0.002740 -0.002740 0.011423 0.000000 0.000000 0.000000
# 4 0.000000 0.000000 0.000000 0.045110 0.000000 0.000000
# 5 0.000000 0.000000 0.000000 0.000000 0.045110 0.000000
# 6 0.000000 0.000000 0.000000 0.000000 0.000000 0.103314
#
#
# Mechanical properties :
#
#
# Convention : Reuss Voigt Hill
#
# Bulk Modulus (GPa) = 56.38076 56.38107 56.38091
# Shear Modulus (GPa) = 20.08497 25.24806 22.66652
#
# Velocity S-wave (km/s) = 3.48510 3.90745 3.70231
# Velocity P-wave (km/s) = 7.09151 7.37921 7.23679
#
# Compressibility (1/GPa) = 0.01773655
#
# Stress axis : x y z
#
# Youngs Moduli (GPa) = 90.11902 90.11892 87.54131
#
# Poissons Ratio (x) = 0.22158 0.23991
# Poissons Ratio (y) = 0.22158 0.23991
# Poissons Ratio (z) = 0.24697 0.24697
#
# Static dielectric constant tensor:
#      x y z
#    x 1.557520 0.000000 0.000000 
#    y 0.000000 1.557520 0.000000 
#    z 0.000000 0.000000 1.588400 
# 
# From -- ./inp_files/5559.got.cif
#   From: 2010.05.17/outbox.cif.g08.bks.cpg/sg95_3_cif.got.tgz:5559.got - 2010.06.03 19:46:49.
