data_PCOD9550192
_publ_section_title
;
Structure prediction by ZEFSAII (Michael W. Deem and Ramdas Pophale) SiO2 
 PCOD9550192
Probable space group: P 42 21 2
;
_chemical_formula_sum "Si O2"
_cell_formula_units_Z 40
_cell_length_a 15.275314
_cell_length_b 15.275314
_cell_length_c 7.299497
_cell_angle_alpha 90.000000
_cell_angle_beta 90.000000
_cell_angle_gamma 90.000000
_cell_volume 1703.229722
_symmetry_space_group_name_H-M "P 42 21 2"
_symmetry_group_IT_number 94
_symmetry_cell_setting 'tetragonal'
loop_
_space_group_symop_operation_xyz
x,y,z
1/2-y,1/2+x,1/2+z
-x,-y,z
1/2+y,1/2-x,1/2+z
1/2+x,1/2-y,1/2-z
1/2-x,1/2+y,1/2-z
y,x,-z
-y,-x,-z
loop_
_atom_site_type_symbol
_atom_site_label
_atom_site_fract_x
_atom_site_fract_y
_atom_site_fract_z
Si Si1 0.205878 0.694299 0.767801
Si Si2 0.994702 0.274433 0.819059
Si Si3 0.017866 0.216092 0.425940
Si Si4 0.871662 0.006583 0.913840
Si Si5 0.325540 0.847891 0.654700
O O1 0.255428 0.614983 0.867091
O O2 0.263268 0.783904 0.775881
O O3 0.191284 0.679422 0.550558
O O4 0.105356 0.696432 0.834633
O O5 0.072720 0.343747 0.788037
O O6 0.005126 0.210341 0.643167
O O7 0.014011 0.222179 0.003112
O O8 0.944988 0.287066 0.361844
O O9 0.995311 0.131653 0.303855
O O10 0.902426 0.097575 0.000000
O O11 0.935228 0.935228 0.000000
#
# Coordination Sequence:
#
# PCOD9550192 Si02
#       5
#     8   8   8   8   8
#     4  10  22  42  65  92 132 173 216 270 325 390
#     4  11  24  41  65  97 129 171 221 267 326 394
#     4  11  24  41  65  97 129 171 221 267 326 394
#     4  11  24  42  64  93 132 172 218 277 332 391
#     4  10  22  42  65  92 132 173 216 270 325 390
#
# _framework density 23.484795999999999
#
# number of rings (size 3 to 8) (size 9 to 14) (size 15 to 20)
#    0.000    1.400    2.000    2.400    2.800    6.400 
#    0.000    6.000    0.000    0.000    0.000    0.000 
#    0.000    0.000    0.000    0.000    0.000    0.000 
#
# Total GULP energy -223536.002226 kJ/mol
# GULP energy per Si atom -5588.400056 kJ/mol
# Density = 2.343134 g / cm^3
# Si number density = 23.484796 Si / 1000 Ang^3
#
#
#
# Elastic Constant Matrix: (Units=GPa)
#
#
# Indices 1 2 3 4 5 6 
#
# 1 83.3604 22.0187 -4.6937 0.0000 0.0000 0.0000
# 2 22.0187 83.3598 -4.6940 0.0000 0.0000 0.0000
# 3 -4.6937 -4.6940 89.8036 0.0000 0.0000 0.0000
# 4 0.0000 0.0000 0.0000 25.3573 0.0000 0.0000
# 5 0.0000 0.0000 0.0000 0.0000 25.3560 0.0000
# 6 0.0000 0.0000 0.0000 0.0000 0.0000 39.2062
#
#
#
# Elastic Compliance Matrix: (Units=1/GPa)
#
#
# Indices 1 2 3 4 5 6 
#
# 1 0.012918 -0.003384 0.000498 0.000000 0.000000 0.000000
# 2 -0.003384 0.012918 0.000498 0.000000 0.000000 0.000000
# 3 0.000498 0.000498 0.011188 0.000000 0.000000 0.000000
# 4 0.000000 0.000000 0.000000 0.039436 0.000000 0.000000
# 5 0.000000 0.000000 0.000000 0.000000 0.039438 0.000000
# 6 0.000000 0.000000 0.000000 0.000000 0.000000 0.025506
#
#
# Mechanical properties :
#
#
# Convention : Reuss Voigt Hill
#
# Bulk Modulus (GPa) = 31.00896 31.30951 31.15923
# Shear Modulus (GPa) = 31.86149 34.24341 33.05245
#
# Velocity S-wave (km/s) = 3.68732 3.82266 3.75560
# Velocity P-wave (km/s) = 5.60008 5.73101 5.66592
#
# Compressibility (1/GPa) = 0.03224875
#
# Stress axis : x y z
#
# Youngs Moduli (GPa) = 77.41110 77.41058 89.38540
#
# Poissons Ratio (x) = 0.26197 -0.04454
# Poissons Ratio (y) = 0.26197 -0.04455
# Poissons Ratio (z) = -0.03857 -0.03858
#
# Static dielectric constant tensor:
#      x y z
#    x 1.936870 0.000000 0.000000 
#    y 0.000000 1.936880 0.000000 
#    z 0.000000 0.000000 1.895920 
# 
# From -- ./inp_files/1431.got.cif
#   From: 2010.05.17/outbox.cif.g08.bks.cpg/sg94_1_cif.got.tgz:1431.got - 2010.06.03 19:43:16.
