data_PCOD9550378
_publ_section_title
;
Structure prediction by ZEFSAII (Michael W. Deem and Ramdas Pophale) SiO2 
 PCOD9550378
Probable space group: P 42 21 2
;
_chemical_formula_sum "Si O2"
_cell_formula_units_Z 38
_cell_length_a 8.584685
_cell_length_b 8.584685
_cell_length_c 22.872512
_cell_angle_alpha 90.000000
_cell_angle_beta 90.000000
_cell_angle_gamma 90.000000
_cell_volume 1685.631321
_symmetry_space_group_name_H-M "P 42 21 2"
_symmetry_group_IT_number 94
_symmetry_cell_setting 'tetragonal'
loop_
_space_group_symop_operation_xyz
x,y,z
1/2-y,1/2+x,1/2+z
-x,-y,z
1/2+y,1/2-x,1/2+z
1/2+x,1/2-y,1/2-z
1/2-x,1/2+y,1/2-z
y,x,-z
-y,-x,-z
loop_
_atom_site_type_symbol
_atom_site_label
_atom_site_fract_x
_atom_site_fract_y
_atom_site_fract_z
Si Si1 0.317490 0.922476 0.372155
Si Si2 0.000000 0.000000 0.500000
Si Si3 0.204868 0.423216 0.923989
Si Si4 0.791976 0.866560 0.679784
Si Si5 0.000000 0.500000 0.020512
Si Si6 0.027820 0.822309 0.196172
O O1 0.231038 0.770882 0.396075
O O2 0.366179 0.019215 0.430804
O O3 0.453763 0.833004 0.335831
O O4 0.196395 0.036704 0.340138
O O5 0.004036 0.846363 0.461081
O O6 0.193787 0.542492 0.869881
O O7 0.070967 0.384991 0.971461
O O8 0.700046 0.711309 0.695283
O O9 0.812315 0.966177 0.737895
O O10 0.000000 0.000000 0.173469
#
# Coordination Sequence:
#
# PCOD9550378 Si02
#       6
#     8   2   8   8   4   8
#     4  12  24  49  70 101 147 193 233 292 362 430
#     4  12  20  40  72  96 128 180 248 268 334 436
#     4  12  24  42  73 101 135 185 244 289 346 427
#     4  12  24  48  72 103 138 190 235 295 362 439
#     4  12  24  44  70 104 142 188 236 296 346 418
#     4  12  27  44  71 106 141 179 237 298 364 427
#
# _framework density 22.543483999999999
#
# number of rings (size 3 to 8) (size 9 to 14) (size 15 to 20)
#    0.000    0.000    6.316    3.789    2.947    0.000 
#    3.789    0.000    0.000    0.000    0.000    0.000 
#    0.000    0.000    0.000    0.000    0.000    0.000 
#
# Total GULP energy -211643.333744 kJ/mol
# GULP energy per Si atom -5569.561414 kJ/mol
# Density = 2.249217 g / cm^3
# Si number density = 22.543484 Si / 1000 Ang^3
#
#
#
# Elastic Constant Matrix: (Units=GPa)
#
#
# Indices 1 2 3 4 5 6 
#
# 1 77.5447 2.8907 48.3353 0.0000 0.0000 0.0000
# 2 2.8907 77.5447 48.3353 0.0000 0.0000 0.0000
# 3 48.3353 48.3353 106.8507 0.0000 0.0000 0.0000
# 4 0.0000 0.0000 0.0000 -155.0984 0.0000 0.0000
# 5 0.0000 0.0000 0.0000 0.0000 -155.0984 0.0000
# 6 0.0000 0.0000 0.0000 0.0000 0.0000 26.7886
#
#
#
# Elastic Compliance Matrix: (Units=1/GPa)
#
#
# Indices 1 2 3 4 5 6 
#
# 1 0.020320 0.006924 -0.012324 0.000000 0.000000 0.000000
# 2 0.006924 0.020320 -0.012324 0.000000 0.000000 0.000000
# 3 -0.012324 -0.012324 0.020509 0.000000 0.000000 0.000000
# 4 0.000000 0.000000 0.000000 -0.006448 0.000000 0.000000
# 5 0.000000 0.000000 0.000000 0.000000 -0.006448 0.000000
# 6 0.000000 0.000000 0.000000 0.000000 0.000000 0.037329
#
#
# Mechanical properties :
#
#
# Convention : Reuss Voigt Hill
#
# Bulk Modulus (GPa) = 38.91024 51.22918 45.06971
# Shear Modulus (GPa) = 38.58117 -45.85639 -3.63761
#
# Velocity S-wave (km/s) = 4.14141 -4.51503 -1.27165
# Velocity P-wave (km/s) = 6.33766 2.09921 4.22843
#
# Compressibility (1/GPa) = 0.02570018
#
# Stress axis : x y z
#
# Youngs Moduli (GPa) = 49.21362 49.21362 48.75940
#
# Poissons Ratio (x) = -0.34078 0.60092
# Poissons Ratio (y) = -0.34078 0.60092
# Poissons Ratio (z) = 0.60652 0.60652
#
# Static dielectric constant tensor:
#      x y z
#    x 2.171550 0.000000 0.000000 
#    y 0.000000 2.171550 0.000000 
#    z 0.000000 0.000000 1.818990 
# 
# From -- ./inp_files/5003.got.cif
#   From: 2010.05.17/outbox.cif.g08.bks.cpg/sg94_3_cif.got.tgz:5003.got - 2010.06.03 19:43:16.
