data_PCOD9550008
_publ_section_title
;
Structure prediction by ZEFSAII (Michael W. Deem and Ramdas Pophale) SiO2 
 PCOD9550008
Probable space group: P 42 21 2
;
_chemical_formula_sum "Si O2"
_cell_formula_units_Z 48
_cell_length_a 11.086102
_cell_length_b 11.086102
_cell_length_c 17.306067
_cell_angle_alpha 90.000000
_cell_angle_beta 90.000000
_cell_angle_gamma 90.000000
_cell_volume 2126.944320
_symmetry_space_group_name_H-M "P 42 21 2"
_symmetry_group_IT_number 94
_symmetry_cell_setting 'tetragonal'
loop_
_space_group_symop_operation_xyz
x,y,z
1/2-y,1/2+x,1/2+z
-x,-y,z
1/2+y,1/2-x,1/2+z
1/2+x,1/2-y,1/2-z
1/2-x,1/2+y,1/2-z
y,x,-z
-y,-x,-z
loop_
_atom_site_type_symbol
_atom_site_label
_atom_site_fract_x
_atom_site_fract_y
_atom_site_fract_z
Si Si1 0.878707 0.935411 0.177483
Si Si2 0.663499 0.580175 0.923389
Si Si3 0.595393 0.108900 0.622387
Si Si4 0.076884 0.309874 0.267380
Si Si5 0.759742 0.527973 0.177910
Si Si6 0.310063 0.691788 0.092729
O O1 0.750856 0.933657 0.130099
O O2 0.912843 0.802565 0.209487
O O3 0.837465 0.001526 0.255463
O O4 0.000000 0.000000 0.144991
O O5 0.804725 0.590770 0.943210
O O6 0.628884 0.693655 0.872110
O O7 0.638371 0.445425 0.895372
O O8 0.591568 0.591568 0.000000
O O9 0.500000 0.000000 0.612097
O O10 0.669108 0.056209 0.697442
O O11 0.122869 0.424009 0.220074
O O12 0.171526 0.294859 0.341064
O O13 0.778262 0.409041 0.126376
O O14 0.288146 0.711855 0.000000
#
# Coordination Sequence:
#
# PCOD9550008 Si02
#       6
#     8   8   8   8   8   8
#     4  11  22  37  61  91 128 172 225 286 352 420
#     4  11  21  36  63  96 131 168 221 284 357 417
#     4  11  22  39  63  91 128 175 230 283 350 430
#     4  10  22  36  61  95 131 174 221 285 361 432
#     4  11  19  35  59  95 128 168 217 274 358 425
#     4  10  20  34  60  97 134 166 221 294 357 416
#
# _framework density 22.567587
#
# number of rings (size 3 to 8) (size 9 to 14) (size 15 to 20)
#    0.000    1.333    5.000    3.500    0.000    0.000 
#    0.000    0.000    3.667    4.500    0.000    0.000 
#    0.000    0.000    0.000    0.000    0.000    0.000 
#
# Total GULP energy -267299.520348 kJ/mol
# GULP energy per Si atom -5568.740007 kJ/mol
# Density = 2.251622 g / cm^3
# Si number density = 22.567587 Si / 1000 Ang^3
#
#
#
# Elastic Constant Matrix: (Units=GPa)
#
#
# Indices 1 2 3 4 5 6 
#
# 1 105.2982 41.3547 19.6192 0.0000 0.0000 0.0000
# 2 41.3547 105.2983 19.6192 0.0000 0.0000 0.0000
# 3 19.6192 19.6192 60.1654 0.0000 0.0000 0.0000
# 4 0.0000 0.0000 0.0000 21.5070 0.0000 0.0000
# 5 0.0000 0.0000 0.0000 0.0000 21.5070 0.0000
# 6 0.0000 0.0000 0.0000 0.0000 0.0000 33.0637
#
#
#
# Elastic Compliance Matrix: (Units=1/GPa)
#
#
# Indices 1 2 3 4 5 6 
#
# 1 0.011555 -0.004084 -0.002436 0.000000 0.000000 0.000000
# 2 -0.004084 0.011555 -0.002436 0.000000 0.000000 0.000000
# 3 -0.002436 -0.002436 0.018210 0.000000 0.000000 0.000000
# 4 0.000000 0.000000 0.000000 0.046497 0.000000 0.000000
# 5 0.000000 0.000000 0.000000 0.000000 0.046496 0.000000
# 6 0.000000 0.000000 0.000000 0.000000 0.000000 0.030245
#
#
# Mechanical properties :
#
#
# Convention : Reuss Voigt Hill
#
# Bulk Modulus (GPa) = 42.72311 47.99422 45.35867
# Shear Modulus (GPa) = 26.27827 27.89347 27.08587
#
# Velocity S-wave (km/s) = 3.41607 3.51949 3.46816
# Velocity P-wave (km/s) = 5.87636 6.15051 6.01500
#
# Compressibility (1/GPa) = 0.02340654
#
# Stress axis : x y z
#
# Youngs Moduli (GPa) = 86.54484 86.54485 54.91611
#
# Poissons Ratio (x) = 0.35346 0.13378
# Poissons Ratio (y) = 0.35346 0.13378
# Poissons Ratio (z) = 0.21083 0.21083
#
# Static dielectric constant tensor:
#      x y z
#    x 1.953560 0.000000 0.000000 
#    y 0.000000 1.953560 0.000000 
#    z 0.000000 0.000000 1.869840 
# 
# From -- ./inp_files/4084.got.cif
#   From: 2010.05.17/outbox.cif.g08.bks.cpg/sg94_3_cif.got.tgz:4084.got - 2010.06.03 19:43:16.
