data_PCOD9550461
_publ_section_title
;
Structure prediction by ZEFSAII (Michael W. Deem and Ramdas Pophale) SiO2 
 PCOD9550461
Probable space group: P 43 2 2
;
_chemical_formula_sum "Si O2"
_cell_formula_units_Z 48
_cell_length_a 11.568118
_cell_length_b 11.568118
_cell_length_c 16.903825
_cell_angle_alpha 90.000000
_cell_angle_beta 90.000000
_cell_angle_gamma 90.000000
_cell_volume 2262.092750
_symmetry_space_group_name_H-M "P 43 2 2"
_symmetry_group_IT_number 95
_symmetry_cell_setting 'tetragonal'
loop_
_space_group_symop_operation_xyz
x,y,z
-y,x,3/4+z
-x,-y,1/2+z
y,-x,1/4+z
x,-y,1/2-z
-x,y,-z
y,x,1/4-z
-y,-x,3/4-z
loop_
_atom_site_type_symbol
_atom_site_label
_atom_site_fract_x
_atom_site_fract_y
_atom_site_fract_z
Si Si1 0.405367 0.071232 0.879853
Si Si2 0.859001 0.327093 0.456236
Si Si3 0.094611 0.808061 0.233588
Si Si4 0.371299 0.628702 0.875000
Si Si5 0.729302 0.000000 0.750000
Si Si6 0.243176 0.500000 0.750000
Si Si7 0.093553 0.093553 0.625000
Si Si8 0.963274 0.367506 0.165371
O O1 0.382045 0.112541 0.790490
O O2 0.307152 0.129126 0.933711
O O3 0.379835 0.933956 0.866061
O O4 0.533024 0.063621 0.915616
O O5 0.727731 0.351800 0.439695
O O6 0.886584 0.192055 0.442301
O O7 0.190907 0.889639 0.270966
O O8 0.025885 0.885888 0.169449
O O9 0.008907 0.751203 0.296943
O O10 0.331142 0.520008 0.823967
O O11 0.654048 0.048619 0.677816
O O12 0.150462 0.592878 0.713267
#
# Coordination Sequence:
#
# PCOD9550461 Si02
#       8
#     8   8   8   4   4   4   4   8
#     4  10  19  36  65  92 130 176 227 273 327 405
#     4   9  17  33  58  99 122 166 218 278 335 393
#     4  11  24  40  60  94 140 189 217 277 339 430
#     4  11  22  38  68 102 127 164 228 304 355 402
#     4  12  30  38  64 100 146 182 224 276 358 426
#     4  12  24  44  74 100 132 174 240 306 358 424
#     4   9  20  34  58  88 135 172 224 272 337 410
#     4  12  23  46  62  96 137 185 235 275 342 418
#
# _framework density 21.219289
#
# number of rings (size 3 to 8) (size 9 to 14) (size 15 to 20)
#    0.000    1.333    3.333    3.500    7.000    1.333 
#    0.000    0.000    0.000    2.000    0.000    0.000 
#    0.000    0.000    0.000    0.000    0.000    0.000 
#
# Total GULP energy -267321.988576 kJ/mol
# GULP energy per Si atom -5569.208095 kJ/mol
# Density = 2.117099 g / cm^3
# Si number density = 21.219289 Si / 1000 Ang^3
#
#
#
# Elastic Constant Matrix: (Units=GPa)
#
#
# Indices 1 2 3 4 5 6 
#
# 1 48.4101 23.1175 21.7562 0.0000 0.0000 0.0000
# 2 23.1175 48.4100 21.7561 0.0000 0.0000 0.0000
# 3 21.7562 21.7561 114.8242 0.0000 0.0000 0.0000
# 4 0.0000 0.0000 0.0000 24.0716 0.0000 0.0000
# 5 0.0000 0.0000 0.0000 0.0000 24.0726 0.0000
# 6 0.0000 0.0000 0.0000 0.0000 0.0000 10.0593
#
#
#
# Elastic Compliance Matrix: (Units=1/GPa)
#
#
# Indices 1 2 3 4 5 6 
#
# 1 0.027670 -0.011868 -0.002994 0.000000 0.000000 0.000000
# 2 -0.011868 0.027670 -0.002994 0.000000 0.000000 0.000000
# 3 -0.002994 -0.002994 0.009844 0.000000 0.000000 0.000000
# 4 0.000000 0.000000 0.000000 0.041543 0.000000 0.000000
# 5 0.000000 0.000000 0.000000 0.000000 0.041541 0.000000
# 6 0.000000 0.000000 0.000000 0.000000 0.000000 0.099411
#
#
# Mechanical properties :
#
#
# Convention : Reuss Voigt Hill
#
# Bulk Modulus (GPa) = 33.93130 38.32266 36.12698
# Shear Modulus (GPa) = 17.05247 21.30833 19.18040
#
# Velocity S-wave (km/s) = 2.83791 3.17234 3.00978
# Velocity P-wave (km/s) = 5.17338 5.61408 5.39823
#
# Compressibility (1/GPa) = 0.02947131
#
# Stress axis : x y z
#
# Youngs Moduli (GPa) = 36.14070 36.14069 101.58935
#
# Poissons Ratio (x) = 0.42890 0.30417
# Poissons Ratio (y) = 0.42890 0.30416
# Poissons Ratio (z) = 0.10821 0.10821
#
# Static dielectric constant tensor:
#      x y z
#    x 1.927040 0.000000 0.000000 
#    y 0.000000 1.927040 0.000000 
#    z 0.000000 0.000000 1.836600 
# 
# From -- ./inp_files/5756.got.cif
#   From: 2010.05.17/outbox.cif.g08.bks.cpg/sg95_3_cif.got.tgz:5756.got - 2010.06.03 19:46:49.
