data_PCOD9550401
_publ_section_title
;
Structure prediction by ZEFSAII (Michael W. Deem and Ramdas Pophale) SiO2 
 PCOD9550401
Probable space group: P 42 21 2
;
_chemical_formula_sum "Si O2"
_cell_formula_units_Z 54
_cell_length_a 15.000000
_cell_length_b 15.000000
_cell_length_c 12.000000
_cell_angle_alpha 90.000000
_cell_angle_beta 90.000000
_cell_angle_gamma 90.000000
_cell_volume 2700.000000
_symmetry_space_group_name_H-M "P 42 21 2"
_symmetry_group_IT_number 94
_symmetry_cell_setting 'tetragonal'
loop_
_space_group_symop_operation_xyz
x,y,z
1/2-y,1/2+x,1/2+z
-x,-y,z
1/2+y,1/2-x,1/2+z
1/2+x,1/2-y,1/2-z
1/2-x,1/2+y,1/2-z
y,x,-z
-y,-x,-z
loop_
_atom_site_type_symbol
_atom_site_label
_atom_site_fract_x
_atom_site_fract_y
_atom_site_fract_z
Si Si1 0.360585 0.508275 0.312965
Si Si2 0.041029 0.683508 0.873528
Si Si3 0.581132 0.306102 0.227127
Si Si4 0.908089 0.056327 0.615891
Si Si5 0.545724 0.818346 0.361721
Si Si6 0.500000 0.500000 0.500000
Si Si7 0.765448 0.237965 0.867045
Si Si8 0.000000 0.500000 0.755111
O O1 0.255906 0.527772 0.325022
O O2 0.412651 0.597501 0.281119
O O3 0.382826 0.432564 0.221464
O O4 0.409693 0.489901 0.428534
O O5 0.132583 0.734968 0.845051
O O6 0.034736 0.584471 0.826057
O O7 0.035218 0.680192 0.005996
O O8 0.509403 0.324713 0.130332
O O9 0.536034 0.235629 0.307970
O O10 0.679440 0.285680 0.186672
O O11 0.894009 0.105992 0.500000
O O12 0.000000 0.000000 0.606338
O O13 0.640203 0.770160 0.333790
O O14 0.538853 0.918355 0.316090
O O15 0.755598 0.244403 0.000000
#
# Coordination Sequence:
#
# PCOD9550401 Si02
#       8
#     8   8   8   8   8   2   8   4
#     4  11  22  35  64  96 129 167 209 271 334 400
#     4  11  24  43  67  95 130 174 223 273 336 400
#     4  11  20  40  62  95 127 168 216 267 333 393
#     4   9  19  34  55  91 132 166 204 261 331 396
#     4  11  24  43  68  94 133 171 226 278 322 405
#     4  12  20  36  58 104 132 164 212 270 348 396
#     4  10  23  38  65  95 123 170 220 267 325 397
#     4  12  24  48  64  94 130 180 228 272 336 394
#
# _framework density 20.0
#
# number of rings (size 3 to 8) (size 9 to 14) (size 15 to 20)
#    0.000    1.333    3.704    3.111    7.259    0.000 
#    0.000    0.000    0.000    0.000    0.000    0.000 
#    0.000    0.000    0.000    0.000    0.000    0.000 
#
# Total GULP energy -300790.659256 kJ/mol
# GULP energy per Si atom -5570.197394 kJ/mol
# Density = 1.995448 g / cm^3
# Si number density = 20.000000 Si / 1000 Ang^3
#
#
#
# Elastic Constant Matrix: (Units=GPa)
#
#
# Indices 1 2 3 4 5 6 
#
# 1 -13.8366 137.7065 37.5976 0.0000 0.0000 0.0000
# 2 137.7065 -13.8355 37.5950 0.0000 0.0000 0.0000
# 3 37.5976 37.5950 50.2040 0.0000 0.0000 0.0000
# 4 0.0000 0.0000 0.0000 10.4066 0.0000 0.0000
# 5 0.0000 0.0000 0.0000 0.0000 10.4072 0.0000
# 6 0.0000 0.0000 0.0000 0.0000 0.0000 32.4332
#
#
#
# Elastic Compliance Matrix: (Units=1/GPa)
#
#
# Indices 1 2 3 4 5 6 
#
# 1 0.004101 0.010700 -0.011084 0.000000 0.000000 0.000000
# 2 0.010700 0.004102 -0.011085 0.000000 0.000000 0.000000
# 3 -0.011084 -0.011085 0.036520 0.000000 0.000000 0.000000
# 4 0.000000 0.000000 0.000000 0.096093 0.000000 0.000000
# 5 0.000000 0.000000 0.000000 0.000000 0.096088 0.000000
# 6 0.000000 0.000000 0.000000 0.000000 0.000000 0.030833
#
#
# Mechanical properties :
#
#
# Convention : Reuss Voigt Hill
#
# Bulk Modulus (GPa) = 45.90172 49.81444 47.85808
# Shear Modulus (GPa) = 16.78216 -2.04176 7.37020
#
# Velocity S-wave (km/s) = 2.89988 -1.01148 1.92174
# Velocity P-wave (km/s) = 5.84919 4.85769 5.37635
#
# Compressibility (1/GPa) = 0.02178568
#
# Stress axis : x y z
#
# Youngs Moduli (GPa) = 243.83712 243.80836 27.38199
#
# Poissons Ratio (x) = -2.60879 0.30350
# Poissons Ratio (y) = -2.60909 0.30352
# Poissons Ratio (z) = 2.70271 2.70256
#
# Static dielectric constant tensor:
#      x y z
#    x 1.788040 0.000000 0.000000 
#    y 0.000000 1.788030 0.000000 
#    z 0.000000 0.000000 1.923390 
# 
# From -- ./inp_files/2751.got.cif
#   From: 2010.05.17/outbox.ucp.g08.bks.cvg/sg94_2_cif.got.tgz:2751.got - 2010.06.11 10:37:05.
