data_PCOD9550304
_publ_section_title
;
Structure prediction by ZEFSAII (Michael W. Deem and Ramdas Pophale) SiO2 
 PCOD9550304
Probable space group: P 42 21 2
;
_chemical_formula_sum "Si O2"
_cell_formula_units_Z 54
_cell_length_a 13.775066
_cell_length_b 13.775066
_cell_length_c 13.216025
_cell_angle_alpha 90.000000
_cell_angle_beta 90.000000
_cell_angle_gamma 90.000000
_cell_volume 2507.773035
_symmetry_space_group_name_H-M "P 42 21 2"
_symmetry_group_IT_number 94
_symmetry_cell_setting 'tetragonal'
loop_
_space_group_symop_operation_xyz
x,y,z
1/2-y,1/2+x,1/2+z
-x,-y,z
1/2+y,1/2-x,1/2+z
1/2+x,1/2-y,1/2-z
1/2-x,1/2+y,1/2-z
y,x,-z
-y,-x,-z
loop_
_atom_site_type_symbol
_atom_site_label
_atom_site_fract_x
_atom_site_fract_y
_atom_site_fract_z
Si Si1 0.252006 0.734150 0.282350
Si Si2 0.500000 0.000000 0.756520
Si Si3 0.380011 0.634743 0.864926
Si Si4 0.083568 0.297886 0.495597
Si Si5 0.937669 0.686533 0.117195
Si Si6 0.221074 0.875712 0.907179
Si Si7 0.391899 0.891196 0.594852
Si Si8 0.500000 0.500000 0.000000
O O1 0.318710 0.642654 0.243440
O O2 0.329931 0.797409 0.341406
O O3 0.196293 0.785277 0.188710
O O4 0.167473 0.695345 0.354678
O O5 0.407756 0.023307 0.824527
O O6 0.530536 0.087032 0.682178
O O7 0.444315 0.718318 0.919327
O O8 0.421781 0.534955 0.912188
O O9 0.270072 0.629910 0.909277
O O10 0.170698 0.357252 0.546232
O O11 0.994360 0.356911 0.451333
O O12 0.014075 0.774127 0.132848
O O13 0.932451 0.668655 0.998147
O O14 0.149553 0.850448 0.000000
#
# Coordination Sequence:
#
# PCOD9550304 Si02
#       8
#     8   4   8   8   8   8   8   2
#     4  11  24  44  64  98 142 185 223 291 368 418
#     4  12  24  42  70 106 136 180 236 298 350 440
#     4   9  18  37  63  92 134 172 224 279 338 404
#     4   9  17  37  64  94 130 174 221 282 334 415
#     4  12  27  44  66 104 141 176 239 300 356 434
#     4  11  21  42  72  98 133 190 237 279 356 430
#     4  12  25  41  67 101 141 181 223 294 366 414
#     4   8  16  36  60 100 114 168 220 288 312 384
#
# _framework density 21.533048000000001
#
# number of rings (size 3 to 8) (size 9 to 14) (size 15 to 20)
#    0.000    1.481    4.444    3.556    4.148    0.000 
#   10.667    1.481    0.000    0.889    0.000    0.000 
#    0.000    0.000    0.000    0.000    0.000    0.000 
#
# Total GULP energy -300678.739059 kJ/mol
# GULP energy per Si atom -5568.124797 kJ/mol
# Density = 2.148404 g / cm^3
# Si number density = 21.533048 Si / 1000 Ang^3
#
#
#
# Elastic Constant Matrix: (Units=GPa)
#
#
# Indices 1 2 3 4 5 6 
#
# 1 14.1748 12.0370 -1.2644 0.0000 0.0000 0.0000
# 2 12.0370 14.1738 -1.2650 0.0000 0.0000 0.0000
# 3 -1.2644 -1.2650 67.3762 0.0000 0.0000 0.0000
# 4 0.0000 0.0000 0.0000 21.8484 0.0000 0.0000
# 5 0.0000 0.0000 0.0000 0.0000 21.8485 0.0000
# 6 0.0000 0.0000 0.0000 0.0000 0.0000 18.9662
#
#
#
# Elastic Compliance Matrix: (Units=1/GPa)
#
#
# Indices 1 2 3 4 5 6 
#
# 1 0.253043 -0.214831 0.000715 0.000000 0.000000 0.000000
# 2 -0.214831 0.253061 0.000720 0.000000 0.000000 0.000000
# 3 0.000715 0.000720 0.014869 0.000000 0.000000 0.000000
# 4 0.000000 0.000000 0.000000 0.045770 0.000000 0.000000
# 5 0.000000 0.000000 0.000000 0.000000 0.045770 0.000000
# 6 0.000000 0.000000 0.000000 0.000000 0.000000 0.052725
#
#
# Mechanical properties :
#
#
# Convention : Reuss Voigt Hill
#
# Bulk Modulus (GPa) = 10.61797 12.74890 11.68343
# Shear Modulus (GPa) = 4.45068 18.28044 11.36556
#
# Velocity S-wave (km/s) = 1.43923 2.91683 2.29992
# Velocity P-wave (km/s) = 2.77553 4.15660 3.53418
#
# Compressibility (1/GPa) = 0.09418000
#
# Stress axis : x y z
#
# Youngs Moduli (GPa) = 3.95190 3.95162 67.25417
#
# Poissons Ratio (x) = 0.84893 -0.04808
# Poissons Ratio (y) = 0.84899 -0.04842
# Poissons Ratio (z) = -0.00283 -0.00284
#
# Static dielectric constant tensor:
#      x y z
#    x 1.883280 0.000000 0.000000 
#    y 0.000000 1.883280 0.000000 
#    z 0.000000 0.000000 1.835290 
# 
# From -- ./inp_files/2762.got.cif
#   From: 2010.05.17/outbox.cif.g08.bks.cpg/sg94_2_cif.got.tgz:2762.got - 2010.06.03 19:43:16.
