data_PCOD9550981
_publ_section_title
;
Structure prediction by ZEFSAII (Michael W. Deem and Ramdas Pophale) SiO2 
 PCOD9550981
Probable space group: P 43 21 2
;
_chemical_formula_sum "Si O2"
_cell_formula_units_Z 56
_cell_length_a 9.663218
_cell_length_b 9.663218
_cell_length_c 21.928669
_cell_angle_alpha 90.000000
_cell_angle_beta 90.000000
_cell_angle_gamma 90.000000
_cell_volume 2047.650476
_symmetry_space_group_name_H-M "P 43 21 2"
_symmetry_group_IT_number 96
_symmetry_cell_setting 'tetragonal'
loop_
_space_group_symop_operation_xyz
x,y,z
1/2-y,1/2+x,3/4+z
-x,-y,1/2+z
1/2+y,1/2-x,1/4+z
1/2+x,1/2-y,1/4-z
1/2-x,1/2+y,3/4-z
y,x,-z
-y,-x,1/2-z
loop_
_atom_site_type_symbol
_atom_site_label
_atom_site_fract_x
_atom_site_fract_y
_atom_site_fract_z
Si Si1 0.224744 0.438347 0.983145
Si Si2 0.041890 0.715313 0.506321
Si Si3 0.873586 0.838281 0.069080
Si Si4 0.095426 0.183743 0.114558
Si Si5 0.994093 0.348665 0.358522
Si Si6 0.956113 0.702268 0.174436
Si Si7 0.724053 0.020466 0.692348
O O1 0.103587 0.325248 0.976263
O O2 0.171257 0.539108 0.037547
O O3 0.367658 0.367658 0.000000
O O4 0.256871 0.509954 0.920819
O O5 0.001913 0.835178 0.554541
O O6 0.154721 0.695246 0.452477
O O7 0.091950 0.586800 0.550125
O O8 0.689642 0.487453 0.870583
O O9 0.518862 0.733807 0.013871
O O10 0.885412 0.885412 0.000000
O O11 0.775188 0.943914 0.102684
O O12 0.175761 0.328649 0.101468
O O13 0.179957 0.057995 0.143901
O O14 0.061613 0.472869 0.398730
O O15 0.815641 0.678979 0.069666
#
# Coordination Sequence:
#
# PCOD9550981 Si02
#       7
#     8   8   8   8   8   8   8
#     4  11  24  40  69 102 136 181 243 301 365 443
#     4   9  22  40  67 100 134 193 241 291 371 462
#     4  12  23  43  73 106 140 194 253 304 370 466
#     4  11  22  41  69  99 146 184 241 302 379 444
#     4  11  24  43  70 106 139 195 249 300 380 469
#     4  10  22  43  68 101 146 193 252 302 378 460
#     4  10  23  43  69 103 144 190 243 312 372 445
#
# _framework density 27.348419
#
# number of rings (size 3 to 8) (size 9 to 14) (size 15 to 20)
#    0.857    0.571    2.857    2.571    6.000    0.571 
#    2.571    0.000    0.000    0.857    0.000    0.000 
#    0.000    0.000    0.000    0.000    0.000    0.000 
#
# Total GULP energy -312110.739715 kJ/mol
# GULP energy per Si atom -5573.406066 kJ/mol
# Density = 2.728617 g / cm^3
# Si number density = 27.348419 Si / 1000 Ang^3
#
#
#
# Elastic Constant Matrix: (Units=GPa)
#
#
# Indices 1 2 3 4 5 6 
#
# 1 70.2224 50.8775 44.2675 0.0000 0.0000 0.0000
# 2 50.8775 70.2224 44.2675 0.0000 0.0000 0.0000
# 3 44.2675 44.2675 203.3079 0.0000 0.0000 0.0000
# 4 0.0000 0.0000 0.0000 24.3514 0.0000 0.0000
# 5 0.0000 0.0000 0.0000 0.0000 24.3514 0.0000
# 6 0.0000 0.0000 0.0000 0.0000 0.0000 35.9025
#
#
#
# Elastic Compliance Matrix: (Units=1/GPa)
#
#
# Indices 1 2 3 4 5 6 
#
# 1 0.030757 -0.020936 -0.002138 0.000000 0.000000 0.000000
# 2 -0.020936 0.030757 -0.002138 0.000000 0.000000 0.000000
# 3 -0.002138 -0.002138 0.005850 0.000000 0.000000 0.000000
# 4 0.000000 0.000000 0.000000 0.041065 0.000000 0.000000
# 5 0.000000 0.000000 0.000000 0.000000 0.041065 0.000000
# 6 0.000000 0.000000 0.000000 0.000000 0.000000 0.027853
#
#
# Mechanical properties :
#
#
# Convention : Reuss Voigt Hill
#
# Bulk Modulus (GPa) = 59.03778 69.17531 64.10655
# Shear Modulus (GPa) = 21.42067 30.54375 25.98221
#
# Velocity S-wave (km/s) = 2.80170 3.34554 3.08562
# Velocity P-wave (km/s) = 5.66570 6.34606 6.01551
#
# Compressibility (1/GPa) = 0.01693831
#
# Stress axis : x y z
#
# Youngs Moduli (GPa) = 32.51293 32.51293 170.94432
#
# Poissons Ratio (x) = 0.68069 0.36555
# Poissons Ratio (y) = 0.68069 0.36555
# Poissons Ratio (z) = 0.06953 0.06953
#
# Static dielectric constant tensor:
#      x y z
#    x 2.247440 0.000000 0.000000 
#    y 0.000000 2.247440 0.000000 
#    z 0.000000 0.000000 2.314690 
# 
# From -- ./inp_files/3931.got.cif
#   From: 2010.05.17/outbox.cif.g08.bks.cpg/sg96_2_cif.got.tgz:3931.got - 2010.06.03 19:52:08.
