data_PCOD9550927
_publ_section_title
;
Structure prediction by ZEFSAII (Michael W. Deem and Ramdas Pophale) SiO2 
 PCOD9550927
Probable space group: P 43 21 2
;
_chemical_formula_sum "Si O2"
_cell_formula_units_Z 60
_cell_length_a 16.373735
_cell_length_b 16.373735
_cell_length_c 9.933449
_cell_angle_alpha 90.000000
_cell_angle_beta 90.000000
_cell_angle_gamma 90.000000
_cell_volume 2663.149709
_symmetry_space_group_name_H-M "P 43 21 2"
_symmetry_group_IT_number 96
_symmetry_cell_setting 'tetragonal'
loop_
_space_group_symop_operation_xyz
x,y,z
1/2-y,1/2+x,3/4+z
-x,-y,1/2+z
1/2+y,1/2-x,1/4+z
1/2+x,1/2-y,1/4-z
1/2-x,1/2+y,3/4-z
y,x,-z
-y,-x,1/2-z
loop_
_atom_site_type_symbol
_atom_site_label
_atom_site_fract_x
_atom_site_fract_y
_atom_site_fract_z
Si Si1 0.315161 0.830416 0.490716
Si Si2 0.335458 0.422799 0.374996
Si Si3 0.811290 0.685942 0.455125
Si Si4 0.029431 0.418768 0.264454
Si Si5 0.241511 0.466678 0.856500
Si Si6 0.158354 0.108137 0.758139
Si Si7 0.459647 0.740777 0.923831
Si Si8 0.443381 0.556620 0.250000
O O1 0.226407 0.864242 0.455166
O O2 0.335715 0.845241 0.648046
O O3 0.386618 0.882557 0.422824
O O4 0.332182 0.734208 0.468747
O O5 0.374411 0.374411 0.500000
O O6 0.275330 0.493069 0.437680
O O7 0.411169 0.466983 0.297706
O O8 0.771067 0.771067 0.500000
O O9 0.743805 0.626677 0.394044
O O10 0.885957 0.695220 0.351807
O O11 0.986664 0.342327 0.186792
O O12 0.981661 0.454732 0.392420
O O13 0.239633 0.479221 0.697214
O O14 0.305028 0.531994 0.912614
O O15 0.089928 0.155973 0.841783
O O16 0.115291 0.076881 0.624352
#
# Coordination Sequence:
#
# PCOD9550927 Si02
#       8
#     8   8   8   8   8   8   8   4
#     4  11  23  42  68  99 139 173 236 285 346 414
#     4  11  28  49  68 106 139 178 233 292 349 420
#     4  12  22  40  70 102 130 178 234 280 342 415
#     4  11  23  40  64  97 139 187 231 285 351 422
#     4  11  21  39  66  99 133 175 226 292 338 410
#     4  10  21  42  71  93 134 184 225 283 347 419
#     4  11  22  44  67  97 139 178 231 282 347 420
#     4  10  24  48  68  94 138 186 226 274 364 418
#
# _framework density 22.529713000000001
#
# number of rings (size 3 to 8) (size 9 to 14) (size 15 to 20)
#    0.000    1.067    5.333    1.200    4.667    2.133 
#    8.400    1.333    0.000    0.000    0.000    0.000 
#    0.000    0.000    0.000    0.000    0.000    0.000 
#
# Total GULP energy -334686.409492 kJ/mol
# GULP energy per Si atom -5578.106825 kJ/mol
# Density = 2.247843 g / cm^3
# Si number density = 22.529713 Si / 1000 Ang^3
#
#
#
# Elastic Constant Matrix: (Units=GPa)
#
#
# Indices 1 2 3 4 5 6 
#
# 1 38.9921 39.7887 15.1121 0.0000 0.0000 0.0000
# 2 39.7887 38.9916 15.1138 0.0000 0.0000 0.0000
# 3 15.1121 15.1138 19.0057 0.0000 0.0000 0.0000
# 4 0.0000 0.0000 0.0000 36.1810 0.0000 0.0000
# 5 0.0000 0.0000 0.0000 0.0000 36.1810 0.0000
# 6 0.0000 0.0000 0.0000 0.0000 0.0000 18.4222
#
#
#
# Elastic Compliance Matrix: (Units=1/GPa)
#
#
# Indices 1 2 3 4 5 6 
#
# 1 -0.618307 0.636610 -0.014611 0.000000 0.000000 0.000000
# 2 0.636610 -0.618380 -0.014439 0.000000 0.000000 0.000000
# 3 -0.014611 -0.014439 0.075716 0.000000 0.000000 0.000000
# 4 0.000000 0.000000 0.000000 0.027639 0.000000 0.000000
# 5 0.000000 0.000000 0.000000 0.000000 0.027639 0.000000
# 6 0.000000 0.000000 0.000000 0.000000 0.000000 0.054282
#
#
# Mechanical properties :
#
#
# Convention : Reuss Voigt Hill
#
# Bulk Modulus (GPa) = 18.46777 26.33539 22.40158
# Shear Modulus (GPa) = -2.22372 19.95515 8.86572
#
# Velocity S-wave (km/s) = -0.99457 2.97934 1.98587
# Velocity P-wave (km/s) = 2.62602 4.85282 3.90166
#
# Compressibility (1/GPa) = 0.05414838
#
# Stress axis : x y z
#
# Youngs Moduli (GPa) = -1.61732 -1.61713 13.20728
#
# Poissons Ratio (x) = 1.02948 0.19297
# Poissons Ratio (y) = 1.02960 0.19071
# Poissons Ratio (z) = -0.02363 -0.02335
#
# Static dielectric constant tensor:
#      x y z
#    x 1.916470 0.000000 0.000000 
#    y 0.000000 1.916470 0.000000 
#    z 0.000000 0.000000 1.875900 
# 
# From -- ./inp_files/1618.got.cif
#   From: 2010.05.17/outbox.cif.g08.bks.cpg/sg96_1_cif.got.tgz:1618.got - 2010.06.03 19:52:08.
