data_PCOD9550662
_publ_section_title
;
Structure prediction by ZEFSAII (Michael W. Deem and Ramdas Pophale) SiO2 
 PCOD9550662
Probable space group: P 43 2 2
;
_chemical_formula_sum "Si O2"
_cell_formula_units_Z 28
_cell_length_a 19.074280
_cell_length_b 19.074280
_cell_length_c 5.046114
_cell_angle_alpha 90.000000
_cell_angle_beta 90.000000
_cell_angle_gamma 90.000000
_cell_volume 1835.918359
_symmetry_space_group_name_H-M "P 43 2 2"
_symmetry_group_IT_number 95
_symmetry_cell_setting 'tetragonal'
loop_
_space_group_symop_operation_xyz
x,y,z
-y,x,3/4+z
-x,-y,1/2+z
y,-x,1/4+z
x,-y,1/2-z
-x,y,-z
y,x,1/4-z
-y,-x,3/4-z
loop_
_atom_site_type_symbol
_atom_site_label
_atom_site_fract_x
_atom_site_fract_y
_atom_site_fract_z
Si Si1 0.044905 0.585228 0.247661
Si Si2 0.289576 0.623672 0.685617
Si Si3 0.423240 0.576761 0.375000
Si Si4 0.417644 0.206274 0.934901
O O1 0.046039 0.500000 0.250000
O O2 0.125833 0.605643 0.217553
O O3 0.000000 0.607944 0.500000
O O4 0.000000 0.609019 0.000000
O O5 0.363087 0.587908 0.597412
O O6 0.251088 0.626196 0.401084
O O7 0.311355 0.688646 0.875000
O O8 0.236964 0.585808 0.888409
O O9 0.415609 0.500000 0.250000
O O10 0.500000 0.211649 0.000000
#
# Coordination Sequence:
#
# PCOD9550662 Si02
#       4
#     8   8   4   8
#     4   9  17  31  49  75  98 113 135 172 232 311
#     4  12  24  39  50  67  89 119 164 207 253 309
#     4  12  30  40  54  64  86 120 172 234 282 306
#     4  11  22  34  55  71  91 120 149 193 253 310
#
# _framework density 15.251222
#
# number of rings (size 3 to 8) (size 9 to 14) (size 15 to 20)
#    0.000    1.143    2.857    3.429    6.000    4.571 
#    0.000    0.000    0.000    0.000    0.000    0.000 
#    0.000    0.000    0.000    0.000    0.000    0.000 
#
# Total GULP energy -156030.744616 kJ/mol
# GULP energy per Si atom -5572.526593 kJ/mol
# Density = 1.521651 g / cm^3
# Si number density = 15.251222 Si / 1000 Ang^3
#
#
#
# Elastic Constant Matrix: (Units=GPa)
#
#
# Indices 1 2 3 4 5 6 
#
# 1 89.1805 7.0058 35.7869 0.0000 0.0000 0.0000
# 2 7.0058 89.1778 35.7866 0.0000 0.0000 0.0000
# 3 35.7869 35.7866 135.5920 0.0000 0.0000 0.0000
# 4 0.0000 0.0000 0.0000 8.7426 0.0000 0.0000
# 5 0.0000 0.0000 0.0000 0.0000 8.7383 0.0000
# 6 0.0000 0.0000 0.0000 0.0000 0.0000 5.3165
#
#
#
# Elastic Compliance Matrix: (Units=1/GPa)
#
#
# Indices 1 2 3 4 5 6 
#
# 1 0.012553 0.000384 -0.003415 0.000000 0.000000 0.000000
# 2 0.000384 0.012554 -0.003415 0.000000 0.000000 0.000000
# 3 -0.003415 -0.003415 0.009177 0.000000 0.000000 0.000000
# 4 0.000000 0.000000 0.000000 0.114382 0.000000 0.000000
# 5 0.000000 0.000000 0.000000 0.000000 0.114439 0.000000
# 6 0.000000 0.000000 0.000000 0.000000 0.000000 0.188093
#
#
# Mechanical properties :
#
#
# Convention : Reuss Voigt Hill
#
# Bulk Modulus (GPa) = 46.74174 52.34542 49.54358
# Shear Modulus (GPa) = 10.61076 20.25089 15.43082
#
# Velocity S-wave (km/s) = 2.64053 3.64788 3.18429
# Velocity P-wave (km/s) = 6.32542 7.22076 6.78787
#
# Compressibility (1/GPa) = 0.02139415
#
# Stress axis : x y z
#
# Youngs Moduli (GPa) = 79.66060 79.65804 108.96226
#
# Poissons Ratio (x) = -0.03059 0.37206
# Poissons Ratio (y) = -0.03059 0.37207
# Poissons Ratio (z) = 0.27201 0.27200
#
# Static dielectric constant tensor:
#      x y z
#    x 1.673060 0.000000 0.000000 
#    y 0.000000 1.673110 0.000000 
#    z 0.000000 0.000000 1.527270 
# 
# From -- ./inp_files/585.got.cif
#   From: 2010.05.17/outbox.cif.g08.bks.cpg/sg95_1_cif.got.tgz:585.got - 2010.06.03 19:46:49.
