data_PCOD9550194
_publ_section_title
;
Structure prediction by ZEFSAII (Michael W. Deem and Ramdas Pophale) SiO2 
 PCOD9550194
Probable space group: P 42 21 2
;
_chemical_formula_sum "Si O2"
_cell_formula_units_Z 56
_cell_length_a 15.141441
_cell_length_b 15.141441
_cell_length_c 11.104772
_cell_angle_alpha 90.000000
_cell_angle_beta 90.000000
_cell_angle_gamma 90.000000
_cell_volume 2545.915959
_symmetry_space_group_name_H-M "P 42 21 2"
_symmetry_group_IT_number 94
_symmetry_cell_setting 'tetragonal'
loop_
_space_group_symop_operation_xyz
x,y,z
1/2-y,1/2+x,1/2+z
-x,-y,z
1/2+y,1/2-x,1/2+z
1/2+x,1/2-y,1/2-z
1/2-x,1/2+y,1/2-z
y,x,-z
-y,-x,-z
loop_
_atom_site_type_symbol
_atom_site_label
_atom_site_fract_x
_atom_site_fract_y
_atom_site_fract_z
Si Si1 0.068204 0.184458 0.085058
Si Si2 0.659956 0.971585 0.476796
Si Si3 0.429849 0.220107 0.746292
Si Si4 0.332497 0.175237 0.304299
Si Si5 0.620259 0.641258 0.374169
Si Si6 0.435763 0.857210 0.571461
Si Si7 0.146376 0.244711 0.323332
O O1 0.097231 0.189406 0.222365
O O2 0.979019 0.127236 0.085088
O O3 0.139103 0.139103 0.000000
O O4 0.055945 0.283553 0.032237
O O5 0.716039 0.025168 0.375836
O O6 0.593319 0.045738 0.528084
O O7 0.618960 0.893335 0.393778
O O8 0.717447 0.921958 0.578452
O O9 0.430312 0.318694 0.690240
O O10 0.477063 0.152854 0.653556
O O11 0.329100 0.189419 0.745052
O O12 0.380296 0.268837 0.298552
O O13 0.327168 0.137104 0.170374
O O14 0.234015 0.189696 0.358086
O O15 0.667333 0.667333 0.500000
#
# Coordination Sequence:
#
# PCOD9550194 Si02
#       7
#     8   8   8   8   8   8   8
#     4  12  24  42  66  99 136 175 239 293 346 413
#     4  11  23  40  68 102 138 178 232 293 351 418
#     4  10  23  43  66  96 139 185 237 286 351 437
#     4  10  22  42  68  95 135 188 226 278 351 432
#     4  11  22  42  66  93 134 183 237 277 347 428
#     4  11  22  42  64 100 133 172 228 295 348 409
#     4  11  22  43  67  99 141 193 227 282 357 426
#
# _framework density 21.996013000000001
#
# number of rings (size 3 to 8) (size 9 to 14) (size 15 to 20)
#    0.000    1.143    4.286    3.000    0.000    0.857 
#    0.000    3.571    0.000    0.000    0.000    6.000 
#    0.000    0.000    0.000    0.000    0.000    0.000 
#
# Total GULP energy -312640.932404 kJ/mol
# GULP energy per Si atom -5582.873793 kJ/mol
# Density = 2.194595 g / cm^3
# Si number density = 21.996013 Si / 1000 Ang^3
#
#
#
# Elastic Constant Matrix: (Units=GPa)
#
#
# Indices 1 2 3 4 5 6 
#
# 1 96.3057 28.9969 28.5011 0.0000 0.0000 0.0000
# 2 28.9969 96.3057 28.5011 0.0000 0.0000 0.0000
# 3 28.5011 28.5011 88.0124 0.0000 0.0000 0.0000
# 4 0.0000 0.0000 0.0000 33.2736 0.0000 0.0000
# 5 0.0000 0.0000 0.0000 0.0000 33.2736 0.0000
# 6 0.0000 0.0000 0.0000 0.0000 0.0000 32.8006
#
#
#
# Elastic Compliance Matrix: (Units=1/GPa)
#
#
# Indices 1 2 3 4 5 6 
#
# 1 0.012108 -0.002749 -0.003031 0.000000 0.000000 0.000000
# 2 -0.002749 0.012108 -0.003031 0.000000 0.000000 0.000000
# 3 -0.003031 -0.003031 0.013325 0.000000 0.000000 0.000000
# 4 0.000000 0.000000 0.000000 0.030054 0.000000 0.000000
# 5 0.000000 0.000000 0.000000 0.000000 0.030054 0.000000
# 6 0.000000 0.000000 0.000000 0.000000 0.000000 0.030487
#
#
# Mechanical properties :
#
#
# Convention : Reuss Voigt Hill
#
# Bulk Modulus (GPa) = 50.19969 50.29133 50.24551
# Shear Modulus (GPa) = 32.80895 32.84454 32.82674
#
# Velocity S-wave (km/s) = 3.86630 3.86839 3.86734
# Velocity P-wave (km/s) = 6.54238 6.54722 6.54480
#
# Compressibility (1/GPa) = 0.01992044
#
# Stress axis : x y z
#
# Youngs Moduli (GPa) = 82.58880 82.58880 75.04686
#
# Poissons Ratio (x) = 0.22701 0.22746
# Poissons Ratio (y) = 0.22701 0.22746
# Poissons Ratio (z) = 0.25032 0.25032
#
# Static dielectric constant tensor:
#      x y z
#    x 1.879920 0.000000 0.000000 
#    y 0.000000 1.879920 0.000000 
#    z 0.000000 0.000000 1.810440 
# 
# From -- ./inp_files/2711.got.cif
#   From: 2010.05.17/outbox.cif.g08.bks.cpg/sg94_2_cif.got.tgz:2711.got - 2010.06.03 19:43:16.
