data_PCOD9550396
_publ_section_title
;
Structure prediction by ZEFSAII (Michael W. Deem and Ramdas Pophale) SiO2 
 PCOD9550396
Probable space group: P 42 21 2
;
_chemical_formula_sum "Si O2"
_cell_formula_units_Z 20
_cell_length_a 9.331582
_cell_length_b 9.331582
_cell_length_c 10.212363
_cell_angle_alpha 90.000000
_cell_angle_beta 90.000000
_cell_angle_gamma 90.000000
_cell_volume 889.276461
_symmetry_space_group_name_H-M "P 42 21 2"
_symmetry_group_IT_number 94
_symmetry_cell_setting 'tetragonal'
loop_
_space_group_symop_operation_xyz
x,y,z
1/2-y,1/2+x,1/2+z
-x,-y,z
1/2+y,1/2-x,1/2+z
1/2+x,1/2-y,1/2-z
1/2-x,1/2+y,1/2-z
y,x,-z
-y,-x,-z
loop_
_atom_site_type_symbol
_atom_site_label
_atom_site_fract_x
_atom_site_fract_y
_atom_site_fract_z
Si Si1 0.209125 0.912868 0.128840
Si Si2 0.000000 0.500000 0.500441
Si Si3 0.588218 0.290969 0.870787
O O1 0.250290 0.750651 0.170014
O O2 0.355283 0.992114 0.084192
O O3 0.149889 0.000705 0.249700
O O4 0.112655 0.887346 0.000000
O O5 0.991006 0.644639 0.585045
O O6 0.612904 0.387097 0.000000
#
# Coordination Sequence:
#
# PCOD9550396 Si02
#       3
#     8   4   8
#     4   9  18  34  63  98 128 171 219 263 324 386
#     4   8  16  32  62  88 124 174 212 266 324 378
#     4   9  18  34  63  98 128 171 219 263 324 386
#
# _framework density 22.490192
#
# number of rings (size 3 to 8) (size 9 to 14) (size 15 to 20)
#    0.000    4.000    0.000    1.200    0.000    0.000 
#    0.000    2.000    0.000  115.200    0.000   22.400 
#    0.000    0.000    0.000    0.000    0.000    0.000 
#
# Total GULP energy -111682.258926 kJ/mol
# GULP energy per Si atom -5584.112946 kJ/mol
# Density = 2.243900 g / cm^3
# Si number density = 22.490192 Si / 1000 Ang^3
#
#
#
# Elastic Constant Matrix: (Units=GPa)
#
#
# Indices 1 2 3 4 5 6 
#
# 1 118.1609 113.0756 93.3692 0.0000 0.0000 0.0000
# 2 113.0756 118.1574 93.3688 0.0000 0.0000 0.0000
# 3 93.3692 93.3688 223.3117 0.0000 0.0000 0.0000
# 4 0.0000 0.0000 0.0000 15.2286 0.0000 0.0000
# 5 0.0000 0.0000 0.0000 0.0000 15.2284 0.0000
# 6 0.0000 0.0000 0.0000 0.0000 0.0000 39.1401
#
#
#
# Elastic Compliance Matrix: (Units=1/GPa)
#
#
# Indices 1 2 3 4 5 6 
#
# 1 0.101619 -0.095091 -0.002729 0.000000 0.000000 0.000000
# 2 -0.095091 0.101623 -0.002731 0.000000 0.000000 0.000000
# 3 -0.002729 -0.002731 0.006761 0.000000 0.000000 0.000000
# 4 0.000000 0.000000 0.000000 0.065666 0.000000 0.000000
# 5 0.000000 0.000000 0.000000 0.000000 0.065667 0.000000
# 6 0.000000 0.000000 0.000000 0.000000 0.000000 0.025549
#
#
# Mechanical properties :
#
#
# Convention : Reuss Voigt Hill
#
# Bulk Modulus (GPa) = 112.36494 117.69524 115.03009
# Shear Modulus (GPa) = 8.75729 24.57385 16.66557
#
# Velocity S-wave (km/s) = 1.97542 3.30911 2.72511
# Velocity P-wave (km/s) = 7.43460 8.18814 7.82045
#
# Compressibility (1/GPa) = 0.00889957
#
# Stress axis : x y z
#
# Youngs Moduli (GPa) = 9.84072 9.84033 147.90983
#
# Poissons Ratio (x) = 0.93573 0.40368
# Poissons Ratio (y) = 0.93577 0.40388
# Poissons Ratio (z) = 0.02686 0.02687
#
# Static dielectric constant tensor:
#      x y z
#    x 1.846610 0.000000 0.000000 
#    y 0.000000 1.846610 0.000000 
#    z 0.000000 0.000000 1.871320 
# 
# From -- ./inp_files/1970.got.cif
#   From: 2010.05.17/outbox.cif.g08.bks.cpg/sg94_1_cif.got.tgz:1970.got - 2010.06.03 19:43:16.
