data_PCOD9550701
_publ_section_title
;
Structure prediction by ZEFSAII (Michael W. Deem and Ramdas Pophale) SiO2 
 PCOD9550701
Probable space group: P 43 2 2
;
_chemical_formula_sum "Si O2"
_cell_formula_units_Z 56
_cell_length_a 15.000000
_cell_length_b 15.000000
_cell_length_c 12.000000
_cell_angle_alpha 90.000000
_cell_angle_beta 90.000000
_cell_angle_gamma 90.000000
_cell_volume 2700.000000
_symmetry_space_group_name_H-M "P 43 2 2"
_symmetry_group_IT_number 95
_symmetry_cell_setting 'tetragonal'
loop_
_space_group_symop_operation_xyz
x,y,z
-y,x,3/4+z
-x,-y,1/2+z
y,-x,1/4+z
x,-y,1/2-z
-x,y,-z
y,x,1/4-z
-y,-x,3/4-z
loop_
_atom_site_type_symbol
_atom_site_label
_atom_site_fract_x
_atom_site_fract_y
_atom_site_fract_z
Si Si1 0.427611 0.182848 0.084688
Si Si2 0.658721 0.580976 0.328020
Si Si3 0.082109 0.311661 0.864186
Si Si4 0.492898 0.092980 0.697663
Si Si5 0.355943 0.520360 0.422806
Si Si6 0.802271 0.336861 0.322505
Si Si7 0.748947 0.115689 0.849539
O O1 0.462686 0.148085 0.202654
O O2 0.433506 0.288774 0.088990
O O3 0.325811 0.158105 0.070349
O O4 0.500000 0.146164 0.000000
O O5 0.626540 0.500000 0.250000
O O6 0.662597 0.552186 0.453941
O O7 0.584735 0.656795 0.322999
O O8 0.749947 0.611446 0.275443
O O9 0.070039 0.419964 0.871233
O O10 0.122647 0.285613 0.746439
O O11 0.987914 0.264913 0.881480
O O12 0.137355 0.279504 0.972144
O O13 0.412977 0.150624 0.646147
O O14 0.459718 0.000000 0.750000
O O15 0.452412 0.547589 0.375000
O O16 0.729881 0.270120 0.375000
O O17 0.843861 0.156140 0.875000
#
# Coordination Sequence:
#
# PCOD9550701 Si02
#       7
#     8   8   8   8   8   8   8
#     4  11  22  35  56  91 127 161 219 271 338 401
#     4  12  22  38  57  81 121 176 235 270 327 395
#     4  10  21  43  66  95 132 168 228 272 348 415
#     4  11  22  41  67  95 130 179 229 283 342 413
#     4  12  24  37  55  84 127 181 228 286 324 387
#     4  12  26  41  65  97 133 180 220 276 347 416
#     4  10  21  39  66  95 124 168 219 282 347 411
#
# _framework density 20.740741
#
# number of rings (size 3 to 8) (size 9 to 14) (size 15 to 20)
#    0.000    0.857    2.857    8.571    2.000    2.286 
#    0.000    0.000    0.000    3.429    0.000    0.000 
#    0.000    0.000    0.000    0.000    0.000    0.000 
#
# Total GULP energy -312412.552960 kJ/mol
# GULP energy per Si atom -5578.795589 kJ/mol
# Density = 2.069353 g / cm^3
# Si number density = 20.740741 Si / 1000 Ang^3
#
#
#
# Elastic Constant Matrix: (Units=GPa)
#
#
# Indices 1 2 3 4 5 6 
#
# 1 79.9273 41.7588 33.5627 0.0000 0.0000 0.0000
# 2 41.7588 79.9287 33.5632 0.0000 0.0000 0.0000
# 3 33.5627 33.5632 86.7028 0.0000 0.0000 0.0000
# 4 0.0000 0.0000 0.0000 -13.5717 0.0000 0.0000
# 5 0.0000 0.0000 0.0000 0.0000 -13.6387 0.0000
# 6 0.0000 0.0000 0.0000 0.0000 0.0000 25.7324
#
#
#
# Elastic Compliance Matrix: (Units=1/GPa)
#
#
# Indices 1 2 3 4 5 6 
#
# 1 0.018324 -0.007875 -0.004045 0.000000 0.000000 0.000000
# 2 -0.007875 0.018324 -0.004045 0.000000 0.000000 0.000000
# 3 -0.004045 -0.004045 0.014665 0.000000 0.000000 0.000000
# 4 0.000000 0.000000 0.000000 -0.073683 0.000000 0.000000
# 5 0.000000 0.000000 0.000000 0.000000 -0.073321 0.000000
# 6 0.000000 0.000000 0.000000 0.000000 0.000000 0.038862
#
#
# Mechanical properties :
#
#
# Convention : Reuss Voigt Hill
#
# Bulk Modulus (GPa) = 51.58926 51.59205 51.59065
# Shear Modulus (GPa) = -271.18342 8.88267 -131.15038
#
# Velocity S-wave (km/s) = -11.44696 2.07172 -7.96056
# Velocity P-wave (km/s) = 12.23860 5.53637 7.71790
#
# Compressibility (1/GPa) = 0.01938388
#
# Stress axis : x y z
#
# Youngs Moduli (GPa) = 54.57247 54.57331 68.18854
#
# Poissons Ratio (x) = 0.42977 0.27581
# Poissons Ratio (y) = 0.42976 0.27582
# Poissons Ratio (z) = 0.22074 0.22074
#
# Static dielectric constant tensor:
#      x y z
#    x 1.837230 0.000000 0.000000 
#    y 0.000000 1.837220 0.000000 
#    z 0.000000 0.000000 1.755010 
# 
# From -- ./inp_files/3981.got.cif
#   From: 2010.05.17/outbox.ucp.g08.bks.cvg/sg95_2_cif.got.tgz:3981.got - 2010.06.11 10:37:16.
