data_PCOD9550245
_publ_section_title
;
Structure prediction by ZEFSAII (Michael W. Deem and Ramdas Pophale) SiO2 
 PCOD9550245
Probable space group: P 42 21 2
;
_chemical_formula_sum "Si O2"
_cell_formula_units_Z 28
_cell_length_a 8.851761
_cell_length_b 8.851761
_cell_length_c 14.207744
_cell_angle_alpha 90.000000
_cell_angle_beta 90.000000
_cell_angle_gamma 90.000000
_cell_volume 1113.228925
_symmetry_space_group_name_H-M "P 42 21 2"
_symmetry_group_IT_number 94
_symmetry_cell_setting 'tetragonal'
loop_
_space_group_symop_operation_xyz
x,y,z
1/2-y,1/2+x,1/2+z
-x,-y,z
1/2+y,1/2-x,1/2+z
1/2+x,1/2-y,1/2-z
1/2-x,1/2+y,1/2-z
y,x,-z
-y,-x,-z
loop_
_atom_site_type_symbol
_atom_site_label
_atom_site_fract_x
_atom_site_fract_y
_atom_site_fract_z
Si Si1 0.854186 0.604260 0.297741
Si Si2 0.514509 0.830225 0.015750
Si Si3 0.000000 0.000000 0.000000
Si Si4 0.000000 0.000000 0.500000
Si Si5 0.324674 0.654759 0.362958
O O1 0.707550 0.501067 0.308866
O O2 0.837729 0.718729 0.213799
O O3 0.000000 0.500000 0.277998
O O4 0.891114 0.675113 0.400001
O O5 0.502005 0.673148 0.958322
O O6 0.673598 0.829177 0.073327
O O7 0.500000 0.000000 0.972402
O O8 0.861678 0.970912 0.929490
#
# Coordination Sequence:
#
# PCOD9550245 Si02
#       5
#     8   8   2   2   8
#     4   9  22  42  68  96 133 186 255 291 359 474
#     4   9  23  43  63 104 138 178 265 295 358 479
#     4  12  26  36  68 106 144 168 238 310 400 412
#     4  12  22  40  80  96 148 210 214 318 408 414
#     4  10  23  43  65 100 140 185 237 315 373 451
#
# _framework density 25.152059999999999
#
# number of rings (size 3 to 8) (size 9 to 14) (size 15 to 20)
#    0.000    2.857    0.000    0.857   12.000    4.571 
#    0.000   12.857    0.000    0.000    0.000    0.000 
#    0.000    0.000    0.000    0.000    0.000    0.000 
#
# Total GULP energy -155976.301324 kJ/mol
# GULP energy per Si atom -5570.582190 kJ/mol
# Density = 2.509481 g / cm^3
# Si number density = 25.152060 Si / 1000 Ang^3
#
#
#
# Elastic Constant Matrix: (Units=GPa)
#
#
# Indices 1 2 3 4 5 6 
#
# 1 142.5517 38.5871 45.7999 0.0000 0.0000 0.0000
# 2 38.5871 142.5517 45.7999 0.0000 0.0000 0.0000
# 3 45.7999 45.7999 76.5407 0.0000 0.0000 0.0000
# 4 0.0000 0.0000 0.0000 16.9983 0.0000 0.0000
# 5 0.0000 0.0000 0.0000 0.0000 16.9983 0.0000
# 6 0.0000 0.0000 0.0000 0.0000 0.0000 30.5559
#
#
#
# Elastic Compliance Matrix: (Units=1/GPa)
#
#
# Indices 1 2 3 4 5 6 
#
# 1 0.008767 -0.000851 -0.004737 0.000000 0.000000 0.000000
# 2 -0.000851 0.008767 -0.004737 0.000000 0.000000 0.000000
# 3 -0.004737 -0.004737 0.018734 0.000000 0.000000 0.000000
# 4 0.000000 0.000000 0.000000 0.058829 0.000000 0.000000
# 5 0.000000 0.000000 0.000000 0.000000 0.058829 0.000000
# 6 0.000000 0.000000 0.000000 0.000000 0.000000 0.032727
#
#
# Mechanical properties :
#
#
# Convention : Reuss Voigt Hill
#
# Bulk Modulus (GPa) = 64.02588 69.11308 66.56948
# Shear Modulus (GPa) = 23.52836 28.34099 25.93468
#
# Velocity S-wave (km/s) = 3.06182 3.36040 3.21458
# Velocity P-wave (km/s) = 6.16526 6.52642 6.34841
#
# Compressibility (1/GPa) = 0.01561868
#
# Stress axis : x y z
#
# Youngs Moduli (GPa) = 114.06051 114.06051 53.38028
#
# Poissons Ratio (x) = 0.09711 0.25284
# Poissons Ratio (y) = 0.09711 0.25284
# Poissons Ratio (z) = 0.54027 0.54027
#
# Static dielectric constant tensor:
#      x y z
#    x 2.058850 0.000000 0.000000 
#    y 0.000000 2.058850 0.000000 
#    z 0.000000 0.000000 1.976040 
# 
# From -- ./inp_files/3873.got.cif
#   From: 2010.05.17/outbox.cif.g08.bks.cpg/sg94_2_cif.got.tgz:3873.got - 2010.06.03 19:43:16.
