data_PCOD9550757
_publ_section_title
;
Structure prediction by ZEFSAII (Michael W. Deem and Ramdas Pophale) SiO2 
 PCOD9550757
Probable space group: P 43 21 2
;
_chemical_formula_sum "Si O2"
_cell_formula_units_Z 56
_cell_length_a 12.301447
_cell_length_b 12.301447
_cell_length_c 19.631335
_cell_angle_alpha 90.000000
_cell_angle_beta 90.000000
_cell_angle_gamma 90.000000
_cell_volume 2970.723514
_symmetry_space_group_name_H-M "P 43 21 2"
_symmetry_group_IT_number 96
_symmetry_cell_setting 'tetragonal'
loop_
_space_group_symop_operation_xyz
x,y,z
1/2-y,1/2+x,3/4+z
-x,-y,1/2+z
1/2+y,1/2-x,1/4+z
1/2+x,1/2-y,1/4-z
1/2-x,1/2+y,3/4-z
y,x,-z
-y,-x,1/2-z
loop_
_atom_site_type_symbol
_atom_site_label
_atom_site_fract_x
_atom_site_fract_y
_atom_site_fract_z
Si Si1 0.719898 0.700708 0.752881
Si Si2 0.168225 0.186052 0.377518
Si Si3 0.825971 0.662625 0.612708
Si Si4 0.834574 0.981090 0.452586
Si Si5 0.474683 0.821736 0.193960
Si Si6 0.946196 0.097842 0.326985
Si Si7 0.056253 0.410861 0.420342
O O1 0.761485 0.778486 0.812226
O O2 0.782975 0.720517 0.681753
O O3 0.591683 0.705408 0.738952
O O4 0.755381 0.578344 0.776198
O O5 0.113337 0.294469 0.406953
O O6 0.068801 0.111300 0.353317
O O7 0.241686 0.124647 0.431825
O O8 0.893687 0.741284 0.564300
O O9 0.717676 0.609844 0.579862
O O10 0.901520 0.563182 0.637741
O O11 0.924343 0.924343 0.500000
O O12 0.883954 0.021489 0.380535
O O13 0.452515 0.916726 0.248582
O O14 0.504354 0.873192 0.121331
O O15 0.942473 0.057528 0.250000
#
# Coordination Sequence:
#
# PCOD9550757 Si02
#       7
#     8   8   8   8   8   8   8
#     4   9  20  36  54  81 111 143 185 233 274 330
#     4  10  19  35  56  77 108 146 183 223 275 333
#     4   9  19  36  56  78 110 148 186 226 278 341
#     4  11  21  35  57  86 114 145 188 240 288 332
#     4  10  19  36  57  80 107 142 186 226 272 332
#     4  10  20  35  57  81 109 150 188 226 281 343
#     4   9  20  35  56  79 106 144 183 222 270 331
#
# _framework density 18.850628
#
# number of rings (size 3 to 8) (size 9 to 14) (size 15 to 20)
#    0.000    2.286    0.000    3.429    0.000    2.286 
#    0.000    8.571    0.000    0.000    0.000    0.000 
#    0.000    0.000    0.000    0.000    0.000    0.000 
#
# Total GULP energy -312528.013295 kJ/mol
# GULP energy per Si atom -5580.857380 kJ/mol
# Density = 1.880772 g / cm^3
# Si number density = 18.850628 Si / 1000 Ang^3
#
#
#
# Elastic Constant Matrix: (Units=GPa)
#
#
# Indices 1 2 3 4 5 6 
#
# 1 48.3780 25.9721 16.8526 0.0000 0.0000 0.0000
# 2 25.9721 48.3777 16.8528 0.0000 0.0000 0.0000
# 3 16.8526 16.8528 69.2961 0.0000 0.0000 0.0000
# 4 0.0000 0.0000 0.0000 23.6700 0.0000 0.0000
# 5 0.0000 0.0000 0.0000 0.0000 23.6700 0.0000
# 6 0.0000 0.0000 0.0000 0.0000 0.0000 10.0715
#
#
#
# Elastic Compliance Matrix: (Units=1/GPa)
#
#
# Indices 1 2 3 4 5 6 
#
# 1 0.029874 -0.014757 -0.003676 0.000000 0.000000 0.000000
# 2 -0.014757 0.029874 -0.003676 0.000000 0.000000 0.000000
# 3 -0.003676 -0.003676 0.016219 0.000000 0.000000 0.000000
# 4 0.000000 0.000000 0.000000 0.042248 0.000000 0.000000
# 5 0.000000 0.000000 0.000000 0.000000 0.042248 0.000000
# 6 0.000000 0.000000 0.000000 0.000000 0.000000 0.099291
#
#
# Mechanical properties :
#
#
# Convention : Reuss Voigt Hill
#
# Bulk Modulus (GPa) = 31.49926 31.71184 31.60555
# Shear Modulus (GPa) = 15.89548 18.57391 17.23470
#
# Velocity S-wave (km/s) = 2.90700 3.14239 3.02698
# Velocity P-wave (km/s) = 5.29280 5.47954 5.38698
#
# Compressibility (1/GPa) = 0.03174677
#
# Stress axis : x y z
#
# Youngs Moduli (GPa) = 33.47419 33.47385 61.65618
#
# Poissons Ratio (x) = 0.49399 0.22666
# Poissons Ratio (y) = 0.49399 0.22667
# Poissons Ratio (z) = 0.12306 0.12306
#
# Static dielectric constant tensor:
#      x y z
#    x 1.639500 0.000000 0.000000 
#    y 0.000000 1.639500 0.000000 
#    z 0.000000 0.000000 1.653060 
# 
# From -- ./inp_files/3551.got.cif
#   From: 2010.05.17/outbox.cif.g08.bks.cpg/sg96_2_cif.got.tgz:3551.got - 2010.06.03 19:52:08.
