data_PCOD9550162
_publ_section_title
;
Structure prediction by ZEFSAII (Michael W. Deem and Ramdas Pophale) SiO2 
 PCOD9550162
Probable space group: P 42 21 2
;
_chemical_formula_sum "Si O2"
_cell_formula_units_Z 48
_cell_length_a 14.487483
_cell_length_b 14.487483
_cell_length_c 12.254807
_cell_angle_alpha 90.000000
_cell_angle_beta 90.000000
_cell_angle_gamma 90.000000
_cell_volume 2572.126683
_symmetry_space_group_name_H-M "P 42 21 2"
_symmetry_group_IT_number 94
_symmetry_cell_setting 'tetragonal'
loop_
_space_group_symop_operation_xyz
x,y,z
1/2-y,1/2+x,1/2+z
-x,-y,z
1/2+y,1/2-x,1/2+z
1/2+x,1/2-y,1/2-z
1/2-x,1/2+y,1/2-z
y,x,-z
-y,-x,-z
loop_
_atom_site_type_symbol
_atom_site_label
_atom_site_fract_x
_atom_site_fract_y
_atom_site_fract_z
Si Si1 0.857662 0.348453 0.708215
Si Si2 0.457549 0.773742 0.750478
Si Si3 0.109486 0.509685 0.055187
Si Si4 0.078983 0.073885 0.368419
Si Si5 0.782767 0.713583 0.881891
Si Si6 0.775252 0.496891 0.842825
O O1 0.772573 0.279933 0.701211
O O2 0.832902 0.451024 0.745333
O O3 0.938497 0.302447 0.780571
O O4 0.907727 0.355796 0.591175
O O5 0.432342 0.854024 0.839848
O O6 0.454143 0.676904 0.815680
O O7 0.389828 0.772939 0.648322
O O8 0.000000 0.500000 0.039882
O O9 0.167185 0.535793 0.949206
O O10 0.080738 0.080738 0.500000
O O11 0.048186 0.175125 0.332608
O O12 0.000000 0.000000 0.339129
O O13 0.762840 0.606399 0.856182
O O14 0.748000 0.748000 0.000000
#
# Coordination Sequence:
#
# PCOD9550162 Si02
#       6
#     8   8   8   8   8   8
#     4  10  23  40  59  93 122 164 209 259 321 372
#     4  10  22  41  58  89 125 157 211 260 311 381
#     4  10  22  38  59  88 124 161 207 262 318 371
#     4  11  21  37  64  93 120 153 199 263 319 367
#     4  12  23  40  62  90 126 169 212 259 321 387
#     4  12  23  36  65  92 123 164 213 258 319 384
#
# _framework density 18.661601000000001
#
# number of rings (size 3 to 8) (size 9 to 14) (size 15 to 20)
#    1.000    0.167    5.000    2.000    4.667    0.000 
#    0.000    0.000    0.000    0.500    0.000    0.000 
#    0.000    0.000    0.000    0.000    0.000    0.000 
#
# Total GULP energy -267208.047780 kJ/mol
# GULP energy per Si atom -5566.834329 kJ/mol
# Density = 1.861913 g / cm^3
# Si number density = 18.661601 Si / 1000 Ang^3
#
#
#
# Elastic Constant Matrix: (Units=GPa)
#
#
# Indices 1 2 3 4 5 6 
#
# 1 115.7082 39.5527 22.1761 0.0000 0.0000 0.0000
# 2 39.5527 115.7082 22.1761 0.0000 0.0000 0.0000
# 3 22.1761 22.1761 36.0801 0.0000 0.0000 0.0000
# 4 0.0000 0.0000 0.0000 22.8949 0.0000 0.0000
# 5 0.0000 0.0000 0.0000 0.0000 22.8949 0.0000
# 6 0.0000 0.0000 0.0000 0.0000 0.0000 31.0624
#
#
#
# Elastic Compliance Matrix: (Units=1/GPa)
#
#
# Indices 1 2 3 4 5 6 
#
# 1 0.010472 -0.002659 -0.004802 0.000000 0.000000 0.000000
# 2 -0.002659 0.010472 -0.004802 0.000000 0.000000 0.000000
# 3 -0.004802 -0.004802 0.033619 0.000000 0.000000 0.000000
# 4 0.000000 0.000000 0.000000 0.043678 0.000000 0.000000
# 5 0.000000 0.000000 0.000000 0.000000 0.043678 0.000000
# 6 0.000000 0.000000 0.000000 0.000000 0.000000 0.032193
#
#
# Mechanical properties :
#
#
# Convention : Reuss Voigt Hill
#
# Bulk Modulus (GPa) = 33.29282 48.36738 40.83010
# Shear Modulus (GPa) = 23.96368 27.60990 25.78679
#
# Velocity S-wave (km/s) = 3.58735 3.85060 3.72130
# Velocity P-wave (km/s) = 5.91927 6.76343 6.35538
#
# Compressibility (1/GPa) = 0.03003650
#
# Stress axis : x y z
#
# Youngs Moduli (GPa) = 95.49507 95.49507 29.74525
#
# Poissons Ratio (x) = 0.25395 0.14283
# Poissons Ratio (y) = 0.25395 0.14283
# Poissons Ratio (z) = 0.45855 0.45855
#
# Static dielectric constant tensor:
#      x y z
#    x 1.660630 0.000000 0.000000 
#    y 0.000000 1.660630 0.000000 
#    z 0.000000 0.000000 1.655520 
# 
# From -- ./inp_files/2637.got.cif
#   From: 2010.05.17/outbox.cif.g08.bks.cpg/sg94_2_cif.got.tgz:2637.got - 2010.06.03 19:43:16.
