data_PCOD9550826
_publ_section_title
;
Structure prediction by ZEFSAII (Michael W. Deem and Ramdas Pophale) SiO2 
 PCOD9550826
Probable space group: P 43 21 2
;
_chemical_formula_sum "Si O2"
_cell_formula_units_Z 60
_cell_length_a 11.904766
_cell_length_b 11.904766
_cell_length_c 20.285564
_cell_angle_alpha 90.000000
_cell_angle_beta 90.000000
_cell_angle_gamma 90.000000
_cell_volume 2874.940187
_symmetry_space_group_name_H-M "P 43 21 2"
_symmetry_group_IT_number 96
_symmetry_cell_setting 'tetragonal'
loop_
_space_group_symop_operation_xyz
x,y,z
1/2-y,1/2+x,3/4+z
-x,-y,1/2+z
1/2+y,1/2-x,1/4+z
1/2+x,1/2-y,1/4-z
1/2-x,1/2+y,3/4-z
y,x,-z
-y,-x,1/2-z
loop_
_atom_site_type_symbol
_atom_site_label
_atom_site_fract_x
_atom_site_fract_y
_atom_site_fract_z
Si Si1 0.792677 0.077103 0.310414
Si Si2 0.364076 0.880310 0.177773
Si Si3 0.398546 0.888574 0.022441
Si Si4 0.644755 0.355246 0.750000
Si Si5 0.895613 0.981361 0.121674
Si Si6 0.138496 0.168815 0.253866
Si Si7 0.900248 0.744744 0.455133
Si Si8 0.469030 0.367693 0.409573
O O1 0.861009 0.138992 0.250000
O O2 0.682955 0.149186 0.322406
O O3 0.887433 0.085027 0.365749
O O4 0.763227 0.947732 0.293078
O O5 0.416088 0.889825 0.103250
O O6 0.378064 0.759898 0.210849
O O7 0.229143 0.881053 0.169360
O O8 0.390197 0.987969 0.226552
O O9 0.329591 0.772948 0.007058
O O10 0.320282 0.997114 0.009673
O O11 0.542114 0.357748 0.799693
O O12 0.817900 0.918485 0.174799
O O13 0.016188 0.923872 0.133500
O O14 0.116479 0.043514 0.224837
O O15 0.827163 0.827163 0.500000
O O16 0.948395 0.816142 0.395168
#
# Coordination Sequence:
#
# PCOD9550826 Si02
#       8
#     8   8   8   4   8   8   8   8
#     4   8  17  37  64  88 123 165 213 268 326 387
#     4  10  23  41  63  95 131 182 218 281 345 413
#     4  10  21  44  64  94 133 175 230 265 346 424
#     4  12  24  36  62  98 134 166 222 288 338 380
#     4  10  20  38  61  93 125 163 219 270 321 401
#     4   9  17  38  65  89 118 164 222 263 316 410
#     4  10  21  41  63  93 130 167 211 280 339 396
#     4   9  20  37  65  87 119 179 212 255 339 404
#
# _framework density 20.869997000000001
#
# number of rings (size 3 to 8) (size 9 to 14) (size 15 to 20)
#    0.000    2.400    1.333    1.200    4.667    0.000 
#   21.600    2.667    0.000    0.000    0.000    0.000 
#    0.000    0.000    0.000    0.000    0.000    0.000 
#
# Total GULP energy -334173.396793 kJ/mol
# GULP energy per Si atom -5569.556613 kJ/mol
# Density = 2.082250 g / cm^3
# Si number density = 20.869997 Si / 1000 Ang^3
#
#
#
# Elastic Constant Matrix: (Units=GPa)
#
#
# Indices 1 2 3 4 5 6 
#
# 1 77.8108 28.6908 26.7008 0.0000 0.0000 0.0000
# 2 28.6908 77.8113 26.7010 0.0000 0.0000 0.0000
# 3 26.7008 26.7010 79.1042 0.0000 0.0000 0.0000
# 4 0.0000 0.0000 0.0000 27.4139 0.0000 0.0000
# 5 0.0000 0.0000 0.0000 0.0000 27.4139 0.0000
# 6 0.0000 0.0000 0.0000 0.0000 0.0000 18.0383
#
#
#
# Elastic Compliance Matrix: (Units=1/GPa)
#
#
# Indices 1 2 3 4 5 6 
#
# 1 0.015830 -0.004528 -0.003815 0.000000 0.000000 0.000000
# 2 -0.004528 0.015830 -0.003815 0.000000 0.000000 0.000000
# 3 -0.003815 -0.003815 0.015217 0.000000 0.000000 0.000000
# 4 0.000000 0.000000 0.000000 0.036478 0.000000 0.000000
# 5 0.000000 0.000000 0.000000 0.000000 0.036478 0.000000
# 6 0.000000 0.000000 0.000000 0.000000 0.000000 0.055437
#
#
# Mechanical properties :
#
#
# Convention : Reuss Voigt Hill
#
# Bulk Modulus (GPa) = 44.32280 44.32348 44.32314
# Shear Modulus (GPa) = 24.14208 24.74881 24.44544
#
# Velocity S-wave (km/s) = 3.40484 3.44736 3.42617
# Velocity P-wave (km/s) = 6.06143 6.09342 6.07745
#
# Compressibility (1/GPa) = 0.02256175
#
# Stress axis : x y z
#
# Youngs Moduli (GPa) = 63.16977 63.17011 65.71600
#
# Poissons Ratio (x) = 0.28603 0.25071
# Poissons Ratio (y) = 0.28603 0.25071
# Poissons Ratio (z) = 0.24099 0.24100
#
# Static dielectric constant tensor:
#      x y z
#    x 1.741000 0.000000 0.000000 
#    y 0.000000 1.741000 0.000000 
#    z 0.000000 0.000000 1.890350 
# 
# From -- ./inp_files/3639.got.cif
#   From: 2010.05.17/outbox.cif.g08.bks.cpg/sg96_2_cif.got.tgz:3639.got - 2010.06.03 19:52:08.
