data_PCOD9550337
_publ_section_title
;
Structure prediction by ZEFSAII (Michael W. Deem and Ramdas Pophale) SiO2 
 PCOD9550337
Probable space group: P 42 21 2
;
_chemical_formula_sum "Si O2"
_cell_formula_units_Z 34
_cell_length_a 10.987692
_cell_length_b 10.987692
_cell_length_c 11.531797
_cell_angle_alpha 90.000000
_cell_angle_beta 90.000000
_cell_angle_gamma 90.000000
_cell_volume 1392.226650
_symmetry_space_group_name_H-M "P 42 21 2"
_symmetry_group_IT_number 94
_symmetry_cell_setting 'tetragonal'
loop_
_space_group_symop_operation_xyz
x,y,z
1/2-y,1/2+x,1/2+z
-x,-y,z
1/2+y,1/2-x,1/2+z
1/2+x,1/2-y,1/2-z
1/2-x,1/2+y,1/2-z
y,x,-z
-y,-x,-z
loop_
_atom_site_type_symbol
_atom_site_label
_atom_site_fract_x
_atom_site_fract_y
_atom_site_fract_z
Si Si1 0.000000 0.000000 0.500000
Si Si2 0.209030 0.917179 0.892381
Si Si3 0.405567 0.885071 0.704677
Si Si4 0.676520 0.540783 0.205401
Si Si5 0.392589 0.106106 0.955607
O O1 0.991084 0.889487 0.591383
O O2 0.325419 0.871660 0.819382
O O3 0.113601 0.917187 0.786769
O O4 0.262603 0.041378 0.941719
O O5 0.163465 0.836536 0.000000
O O6 0.463464 0.751881 0.701064
O O7 0.336538 0.906161 0.583665
O O8 0.500000 0.000000 0.712271
O O9 0.794122 0.604552 0.144864
O O10 0.500000 0.000000 0.953942
#
# Coordination Sequence:
#
# PCOD9550337 Si02
#       5
#     2   8   8   8   8
#     4  12  32  48  66 112 146 192 252 312 404 432
#     4  12  24  42  74 115 148 198 255 309 378 459
#     4  11  23  44  74 106 143 199 258 310 381 459
#     4  12  25  47  71 106 152 192 244 321 375 452
#     4  11  23  47  76 107 148 204 259 305 384 471
#
# _framework density 24.421308
#
# number of rings (size 3 to 8) (size 9 to 14) (size 15 to 20)
#    0.000    0.471    7.059    1.412    1.647    1.882 
#    0.000    0.588    0.000    0.000    0.000    0.000 
#    0.000    0.000    0.000    0.000    0.000    0.000 
#
# Total GULP energy -189296.785963 kJ/mol
# GULP energy per Si atom -5567.552528 kJ/mol
# Density = 2.436572 g / cm^3
# Si number density = 24.421308 Si / 1000 Ang^3
#
#
#
# Elastic Constant Matrix: (Units=GPa)
#
#
# Indices 1 2 3 4 5 6 
#
# 1 62.7651 26.8528 31.8001 0.0000 0.0000 0.0000
# 2 26.8528 62.7659 31.7999 0.0000 0.0000 0.0000
# 3 31.8001 31.7999 216.5445 0.0000 0.0000 0.0000
# 4 0.0000 0.0000 0.0000 14.4054 0.0000 0.0000
# 5 0.0000 0.0000 0.0000 0.0000 14.4076 0.0000
# 6 0.0000 0.0000 0.0000 0.0000 0.0000 33.3514
#
#
#
# Elastic Compliance Matrix: (Units=1/GPa)
#
#
# Indices 1 2 3 4 5 6 
#
# 1 0.020151 -0.007694 -0.001829 0.000000 0.000000 0.000000
# 2 -0.007694 0.020151 -0.001829 0.000000 0.000000 0.000000
# 3 -0.001829 -0.001829 0.005155 0.000000 0.000000 0.000000
# 4 0.000000 0.000000 0.000000 0.069418 0.000000 0.000000
# 5 0.000000 0.000000 0.000000 0.000000 0.069408 0.000000
# 6 0.000000 0.000000 0.000000 0.000000 0.000000 0.029984
#
#
# Mechanical properties :
#
#
# Convention : Reuss Voigt Hill
#
# Bulk Modulus (GPa) = 43.95335 58.10902 51.03119
# Shear Modulus (GPa) = 20.44514 29.20772 24.82643
#
# Velocity S-wave (km/s) = 2.89655 3.46207 3.19186
# Velocity P-wave (km/s) = 5.40590 6.31088 5.87584
#
# Compressibility (1/GPa) = 0.02275139
#
# Stress axis : x y z
#
# Youngs Moduli (GPa) = 49.62503 49.62571 193.97677
#
# Poissons Ratio (x) = 0.38184 0.35484
# Poissons Ratio (y) = 0.38183 0.35483
# Poissons Ratio (z) = 0.09078 0.09078
#
# Static dielectric constant tensor:
#      x y z
#    x 2.213470 0.000000 0.000000 
#    y 0.000000 2.213470 0.000000 
#    z 0.000000 0.000000 1.950320 
# 
# From -- ./inp_files/2349.got.cif
#   From: 2010.05.17/outbox.cif.g08.bks.cpg/sg94_2_cif.got.tgz:2349.got - 2010.06.03 19:43:16.
