data_PCOD9550147
_publ_section_title
;
Structure prediction by ZEFSAII (Michael W. Deem and Ramdas Pophale) SiO2 
 PCOD9550147
Probable space group: P 42 21 2
;
_chemical_formula_sum "Si O2"
_cell_formula_units_Z 40
_cell_length_a 18.326911
_cell_length_b 18.326911
_cell_length_c 5.329152
_cell_angle_alpha 90.000000
_cell_angle_beta 90.000000
_cell_angle_gamma 90.000000
_cell_volume 1789.932481
_symmetry_space_group_name_H-M "P 42 21 2"
_symmetry_group_IT_number 94
_symmetry_cell_setting 'tetragonal'
loop_
_space_group_symop_operation_xyz
x,y,z
1/2-y,1/2+x,1/2+z
-x,-y,z
1/2+y,1/2-x,1/2+z
1/2+x,1/2-y,1/2-z
1/2-x,1/2+y,1/2-z
y,x,-z
-y,-x,-z
loop_
_atom_site_type_symbol
_atom_site_label
_atom_site_fract_x
_atom_site_fract_y
_atom_site_fract_z
Si Si1 0.462099 0.660872 0.002883
Si Si2 0.830610 0.552482 0.756426
Si Si3 0.042650 0.809038 0.988940
Si Si4 0.405620 0.826626 0.045978
Si Si5 0.741243 0.154906 0.347878
O O1 0.515090 0.654691 0.249442
O O2 0.428839 0.743297 0.996166
O O3 0.397261 0.602740 0.000000
O O4 0.502575 0.652062 0.738837
O O5 0.776756 0.524028 0.536435
O O6 0.879292 0.620097 0.673910
O O7 0.865767 0.478453 0.850751
O O8 0.777798 0.588832 0.963783
O O9 0.122007 0.793861 0.865235
O O10 0.335537 0.822262 0.227610
O O11 0.781583 0.218418 0.500000
#
# Coordination Sequence:
#
# PCOD9550147 Si02
#       5
#     8   8   8   8   8
#     4  11  23  40  72 105 139 182 233 294 355 417
#     4  10  23  43  65  95 142 187 233 288 363 421
#     4  10  21  44  64  99 141 182 220 290 361 418
#     4  10  24  39  68  95 146 179 243 292 357 429
#     4  11  24  42  72 105 136 185 242 298 363 435
#
# _framework density 22.34721
#
# number of rings (size 3 to 8) (size 9 to 14) (size 15 to 20)
#    0.000    1.600    4.000    0.600    8.400    2.400 
#    0.000    3.000    0.000    0.600    5.200    0.000 
#    0.000    0.000    0.000    0.000    0.000    0.000 
#
# Total GULP energy -222851.179919 kJ/mol
# GULP energy per Si atom -5571.279498 kJ/mol
# Density = 2.229635 g / cm^3
# Si number density = 22.347210 Si / 1000 Ang^3
#
#
#
# Elastic Constant Matrix: (Units=GPa)
#
#
# Indices 1 2 3 4 5 6 
#
# 1 121.4828 13.1838 54.1653 0.0000 0.0000 0.0000
# 2 13.1838 121.4836 54.1610 0.0000 0.0000 0.0000
# 3 54.1653 54.1610 150.1724 0.0000 0.0000 0.0000
# 4 0.0000 0.0000 0.0000 22.0240 0.0000 0.0000
# 5 0.0000 0.0000 0.0000 0.0000 22.0242 0.0000
# 6 0.0000 0.0000 0.0000 0.0000 0.0000 -266.2332
#
#
#
# Elastic Compliance Matrix: (Units=1/GPa)
#
#
# Indices 1 2 3 4 5 6 
#
# 1 0.009847 0.000613 -0.003773 0.000000 0.000000 0.000000
# 2 0.000613 0.009847 -0.003773 0.000000 0.000000 0.000000
# 3 -0.003773 -0.003773 0.009381 0.000000 0.000000 0.000000
# 4 0.000000 0.000000 0.000000 0.045405 0.000000 0.000000
# 5 0.000000 0.000000 0.000000 0.000000 0.045405 0.000000
# 6 0.000000 0.000000 0.000000 0.000000 0.000000 -0.003756
#
#
# Mechanical properties :
#
#
# Convention : Reuss Voigt Hill
#
# Bulk Modulus (GPa) = 65.74476 70.68433 68.21455
# Shear Modulus (GPa) = 37.01979 -26.32842 5.34569
#
# Velocity S-wave (km/s) = 4.07452 -3.43615 1.54832
# Velocity P-wave (km/s) = 7.18465 3.99449 5.81270
#
# Compressibility (1/GPa) = 0.01521034
#
# Stress axis : x y z
#
# Youngs Moduli (GPa) = 101.55039 101.55422 106.60350
#
# Poissons Ratio (x) = -0.06230 0.40222
# Poissons Ratio (y) = -0.06230 0.40218
# Poissons Ratio (z) = 0.38316 0.38313
#
# Static dielectric constant tensor:
#      x y z
#    x 1.841150 0.000000 0.000000 
#    y 0.000000 1.841150 0.000000 
#    z 0.000000 0.000000 1.841850 
# 
# From -- ./inp_files/333.got.cif
#   From: 2010.05.17/outbox.cif.g08.bks.cpg/sg94_1_cif.got.tgz:333.got - 2010.06.03 19:43:16.
