data_PCOD9550763
_publ_section_title
;
Structure prediction by ZEFSAII (Michael W. Deem and Ramdas Pophale) SiO2 
 PCOD9550763
Probable space group: P 43 21 2
;
_chemical_formula_sum "Si O2"
_cell_formula_units_Z 60
_cell_length_a 13.920573
_cell_length_b 13.920573
_cell_length_c 13.422338
_cell_angle_alpha 90.000000
_cell_angle_beta 90.000000
_cell_angle_gamma 90.000000
_cell_volume 2601.012236
_symmetry_space_group_name_H-M "P 43 21 2"
_symmetry_group_IT_number 96
_symmetry_cell_setting 'tetragonal'
loop_
_space_group_symop_operation_xyz
x,y,z
1/2-y,1/2+x,3/4+z
-x,-y,1/2+z
1/2+y,1/2-x,1/4+z
1/2+x,1/2-y,1/4-z
1/2-x,1/2+y,3/4-z
y,x,-z
-y,-x,1/2-z
loop_
_atom_site_type_symbol
_atom_site_label
_atom_site_fract_x
_atom_site_fract_y
_atom_site_fract_z
Si Si1 0.946152 0.415806 0.008381
Si Si2 0.761987 0.954261 0.518891
Si Si3 0.197886 0.275945 0.673206
Si Si4 0.014194 0.985807 0.250000
Si Si5 0.572586 0.933733 0.138034
Si Si6 0.396989 0.373823 0.680325
Si Si7 0.830419 0.884310 0.327880
Si Si8 0.226233 0.535826 0.248987
O O1 0.014864 0.343295 0.943919
O O2 0.854201 0.344961 0.003352
O O3 0.022370 0.465058 0.083524
O O4 0.902934 0.511469 0.958879
O O5 0.842098 0.037721 0.519841
O O6 0.751380 0.928303 0.402084
O O7 0.809587 0.880428 0.594649
O O8 0.306328 0.307989 0.646417
O O9 0.198641 0.177947 0.733972
O O10 0.124942 0.271908 0.577869
O O11 0.088699 0.958186 0.337244
O O12 0.908852 0.962074 0.291603
O O13 0.542211 0.853489 0.215640
O O14 0.682271 0.936028 0.106749
O O15 0.474655 0.322794 0.750501
#
# Coordination Sequence:
#
# PCOD9550763 Si02
#       8
#     8   8   8   4   8   8   8   8
#     4   9  17  33  52  79 107 141 176 225 274 328
#     4   9  20  34  57  76 105 140 194 228 270 329
#     4  10  20  33  58  84 110 142 191 231 278 339
#     4  10  20  36  60  74 112 148 188 228 288 326
#     4   9  19  31  54  79 114 145 172 224 286 334
#     4  10  21  35  56  84 112 149 183 236 278 336
#     4  10  19  36  56  80  99 148 189 232 268 336
#     4  10  20  35  53  84 115 144 186 229 282 341
#
# _framework density 23.067941000000001
#
# number of rings (size 3 to 8) (size 9 to 14) (size 15 to 20)
#    0.000    2.400    1.333    0.800    3.733    3.200 
#    0.000    1.333    2.933    3.200    0.000    0.000 
#    0.000    0.000    0.000    0.000    0.000    0.000 
#
# Total GULP energy -334036.403757 kJ/mol
# GULP energy per Si atom -5567.273396 kJ/mol
# Density = 2.301544 g / cm^3
# Si number density = 23.067941 Si / 1000 Ang^3
#
#
#
# Elastic Constant Matrix: (Units=GPa)
#
#
# Indices 1 2 3 4 5 6 
#
# 1 44.9112 20.2719 23.1271 0.0000 0.0000 0.0000
# 2 20.2719 44.9106 23.1274 0.0000 0.0000 0.0000
# 3 23.1271 23.1274 50.7401 0.0000 0.0000 0.0000
# 4 0.0000 0.0000 0.0000 33.8191 0.0000 0.0000
# 5 0.0000 0.0000 0.0000 0.0000 33.8190 0.0000
# 6 0.0000 0.0000 0.0000 0.0000 0.0000 19.4736
#
#
#
# Elastic Compliance Matrix: (Units=1/GPa)
#
#
# Indices 1 2 3 4 5 6 
#
# 1 0.031630 -0.008955 -0.010335 0.000000 0.000000 0.000000
# 2 -0.008955 0.031631 -0.010336 0.000000 0.000000 0.000000
# 3 -0.010335 -0.010336 0.029130 0.000000 0.000000 0.000000
# 4 0.000000 0.000000 0.000000 0.029569 0.000000 0.000000
# 5 0.000000 0.000000 0.000000 0.000000 0.029569 0.000000
# 6 0.000000 0.000000 0.000000 0.000000 0.000000 0.051351
#
#
# Mechanical properties :
#
#
# Convention : Reuss Voigt Hill
#
# Bulk Modulus (GPa) = 30.17561 30.40163 30.28862
# Shear Modulus (GPa) = 18.30293 22.35806 20.33049
#
# Velocity S-wave (km/s) = 2.81985 3.11662 2.97194
# Velocity P-wave (km/s) = 4.86947 5.11457 4.99352
#
# Compressibility (1/GPa) = 0.03313935
#
# Stress axis : x y z
#
# Youngs Moduli (GPa) = 31.61510 31.61430 34.32878
#
# Poissons Ratio (x) = 0.28311 0.35479
# Poissons Ratio (y) = 0.28312 0.35482
# Poissons Ratio (z) = 0.32675 0.32676
#
# Static dielectric constant tensor:
#      x y z
#    x 1.913040 0.000000 0.000000 
#    y 0.000000 1.913040 0.000000 
#    z 0.000000 0.000000 2.003580 
# 
# From -- ./inp_files/2814.got.cif
#   From: 2010.05.17/outbox.cif.g08.bks.cpg/sg96_2_cif.got.tgz:2814.got - 2010.06.03 19:52:08.
