data_PCOD9550258
_publ_section_title
;
Structure prediction by ZEFSAII (Michael W. Deem and Ramdas Pophale) SiO2 
 PCOD9550258
Probable space group: P 42 21 2
;
_chemical_formula_sum "Si O2"
_cell_formula_units_Z 32
_cell_length_a 10.864609
_cell_length_b 10.864609
_cell_length_c 11.334326
_cell_angle_alpha 90.000000
_cell_angle_beta 90.000000
_cell_angle_gamma 90.000000
_cell_volume 1337.900766
_symmetry_space_group_name_H-M "P 42 21 2"
_symmetry_group_IT_number 94
_symmetry_cell_setting 'tetragonal'
loop_
_space_group_symop_operation_xyz
x,y,z
1/2-y,1/2+x,1/2+z
-x,-y,z
1/2+y,1/2-x,1/2+z
1/2+x,1/2-y,1/2-z
1/2-x,1/2+y,1/2-z
y,x,-z
-y,-x,-z
loop_
_atom_site_type_symbol
_atom_site_label
_atom_site_fract_x
_atom_site_fract_y
_atom_site_fract_z
Si Si1 0.452551 0.629528 0.788414
Si Si2 0.000000 0.500000 0.724543
Si Si3 0.307479 0.692522 0.000000
Si Si4 0.119583 0.261624 0.090788
Si Si5 0.786681 0.552348 0.383642
O O1 0.500000 0.500000 0.829024
O O2 0.414447 0.699318 0.904671
O O3 0.337810 0.627079 0.696424
O O4 0.565389 0.686004 0.716936
O O5 0.108886 0.565287 0.646801
O O6 0.969386 0.609571 0.818345
O O7 0.184746 0.673555 0.924958
O O8 0.238087 0.238087 0.000000
O O9 0.011814 0.230827 0.998073
#
# Coordination Sequence:
#
# PCOD9550258 Si02
#       5
#     8   4   4   8   8
#     4  11  24  45  70 105 146 200 253 319 402 469
#     4  12  22  46  72 116 144 200 260 314 404 468
#     4  12  23  46  67 114 146 198 260 324 388 470
#     4  10  23  45  70 110 152 200 256 317 397 468
#     4  11  24  41  75  99 152 193 251 321 383 478
#
# _framework density 23.918068000000002
#
# number of rings (size 3 to 8) (size 9 to 14) (size 15 to 20)
#    0.000    1.000    2.500    4.125    0.000    3.500 
#    0.000    0.000    0.000    0.000    0.000    0.000 
#    0.000    0.000    0.000    0.000    0.000    0.000 
#
# Total GULP energy -178234.264083 kJ/mol
# GULP energy per Si atom -5569.820753 kJ/mol
# Density = 2.386363 g / cm^3
# Si number density = 23.918068 Si / 1000 Ang^3
#
#
#
# Elastic Constant Matrix: (Units=GPa)
#
#
# Indices 1 2 3 4 5 6 
#
# 1 -417.3054 520.1188 50.0588 0.0000 0.0000 0.0000
# 2 520.1188 -417.3170 50.0731 0.0000 0.0000 0.0000
# 3 50.0588 50.0731 160.1441 0.0000 0.0000 0.0000
# 4 0.0000 0.0000 0.0000 110.3644 0.0000 0.0000
# 5 0.0000 0.0000 0.0000 0.0000 110.3684 0.0000
# 6 0.0000 0.0000 0.0000 0.0000 0.0000 32.6908
#
#
#
# Elastic Compliance Matrix: (Units=1/GPa)
#
#
# Indices 1 2 3 4 5 6 
#
# 1 0.006459 0.007526 -0.004372 0.000000 0.000000 0.000000
# 2 0.007526 0.006459 -0.004372 0.000000 0.000000 0.000000
# 3 -0.004372 -0.004372 0.008978 0.000000 0.000000 0.000000
# 4 0.000000 0.000000 0.000000 0.009061 0.000000 0.000000
# 5 0.000000 0.000000 0.000000 0.000000 0.009061 0.000000
# 6 0.000000 0.000000 0.000000 0.000000 0.000000 0.030590
#
#
# Mechanical properties :
#
#
# Convention : Reuss Voigt Hill
#
# Bulk Modulus (GPa) = 51.38776 62.89146 57.13961
# Shear Modulus (GPa) = 62.86822 -35.63055 13.61883
#
# Velocity S-wave (km/s) = 5.13243 -3.86384 2.38879
# Velocity P-wave (km/s) = 7.52689 2.53889 5.61694
#
# Compressibility (1/GPa) = 0.01945989
#
# Stress axis : x y z
#
# Youngs Moduli (GPa) = 154.81176 154.81909 111.38123
#
# Poissons Ratio (x) = -1.16518 0.48700
# Poissons Ratio (y) = -1.16512 0.48698
# Poissons Ratio (z) = 0.67689 0.67689
#
# Static dielectric constant tensor:
#      x y z
#    x 1.550020 0.000000 0.000000 
#    y 0.000000 1.550010 0.000000 
#    z 0.000000 0.000000 1.867740 
# 
# From -- ./inp_files/2364.got.cif
#   From: 2010.05.17/outbox.cif.g08.bks.cpg/sg94_2_cif.got.tgz:2364.got - 2010.06.03 19:43:16.
