data_PCOD9550957
_publ_section_title
;
Structure prediction by ZEFSAII (Michael W. Deem and Ramdas Pophale) SiO2 
 PCOD9550957
Probable space group: P 43 21 2
;
_chemical_formula_sum "Si O2"
_cell_formula_units_Z 48
_cell_length_a 8.723347
_cell_length_b 8.723347
_cell_length_c 29.134487
_cell_angle_alpha 90.000000
_cell_angle_beta 90.000000
_cell_angle_gamma 90.000000
_cell_volume 2217.040732
_symmetry_space_group_name_H-M "P 43 21 2"
_symmetry_group_IT_number 96
_symmetry_cell_setting 'tetragonal'
loop_
_space_group_symop_operation_xyz
x,y,z
1/2-y,1/2+x,3/4+z
-x,-y,1/2+z
1/2+y,1/2-x,1/4+z
1/2+x,1/2-y,1/4-z
1/2-x,1/2+y,3/4-z
y,x,-z
-y,-x,1/2-z
loop_
_atom_site_type_symbol
_atom_site_label
_atom_site_fract_x
_atom_site_fract_y
_atom_site_fract_z
Si Si1 0.529666 0.796704 0.317123
Si Si2 0.071527 0.451470 0.564172
Si Si3 0.543245 0.543245 0.500000
Si Si4 0.322087 0.677914 0.250000
Si Si5 0.719216 0.495125 0.585292
Si Si6 0.274505 0.191929 0.240188
Si Si7 0.394069 0.840071 0.086620
O O1 0.437587 0.662250 0.292027
O O2 0.582052 0.748058 0.367427
O O3 0.667579 0.816732 0.282113
O O4 0.414602 0.941014 0.323492
O O5 0.139129 0.337283 0.525545
O O6 0.109040 0.621015 0.546262
O O7 0.144437 0.416038 0.614227
O O8 0.887723 0.437435 0.569362
O O9 0.636493 0.588998 0.545406
O O10 0.571922 0.363360 0.496477
O O11 0.616779 0.343148 0.595412
O O12 0.354487 0.207224 0.290009
#
# Coordination Sequence:
#
# PCOD9550957 Si02
#       7
#     8   8   4   4   8   8   8
#     4  11  24  41  67  98 132 172 227 282 328 406
#     4  11  23  40  69  98 134 172 226 283 329 398
#     4  10  23  42  67  90 134 183 218 265 338 424
#     4  12  19  40  67  94 120 171 230 275 312 388
#     4  10  23  42  66  99 131 175 224 274 343 397
#     4  11  24  42  65 100 131 174 226 267 344 405
#     4  10  22  40  67  94 136 175 219 278 335 399
#
# _framework density 21.650483000000001
#
# number of rings (size 3 to 8) (size 9 to 14) (size 15 to 20)
#    0.000    1.333    3.333    2.500    2.333    2.667 
#    3.000    0.833    3.667    0.000    0.000    0.000 
#    0.000    0.000    0.000    0.000    0.000    0.000 
#
# Total GULP energy -267371.948051 kJ/mol
# GULP energy per Si atom -5570.248918 kJ/mol
# Density = 2.160121 g / cm^3
# Si number density = 21.650483 Si / 1000 Ang^3
#
#
#
# Elastic Constant Matrix: (Units=GPa)
#
#
# Indices 1 2 3 4 5 6 
#
# 1 23.2502 19.5362 22.5301 0.0000 0.0000 0.0000
# 2 19.5362 23.2503 22.5301 0.0000 0.0000 0.0000
# 3 22.5301 22.5301 195.0226 0.0000 0.0000 0.0000
# 4 0.0000 0.0000 0.0000 29.0152 0.0000 0.0000
# 5 0.0000 0.0000 0.0000 0.0000 29.0151 0.0000
# 6 0.0000 0.0000 0.0000 0.0000 0.0000 19.2392
#
#
#
# Elastic Compliance Matrix: (Units=1/GPa)
#
#
# Indices 1 2 3 4 5 6 
#
# 1 0.147929 -0.121320 -0.003074 0.000000 0.000000 0.000000
# 2 -0.121320 0.147929 -0.003074 0.000000 0.000000 0.000000
# 3 -0.003074 -0.003074 0.005838 0.000000 0.000000 0.000000
# 4 0.000000 0.000000 0.000000 0.034465 0.000000 0.000000
# 5 0.000000 0.000000 0.000000 0.000000 0.034465 0.000000
# 6 0.000000 0.000000 0.000000 0.000000 0.000000 0.051977
#
#
# Mechanical properties :
#
#
# Convention : Reuss Voigt Hill
#
# Bulk Modulus (GPa) = 21.38571 41.19068 31.28819
# Shear Modulus (GPa) = 7.21371 27.24902 17.23136
#
# Velocity S-wave (km/s) = 1.82733 3.55151 2.82421
# Velocity P-wave (km/s) = 3.78831 5.99034 5.01176
#
# Compressibility (1/GPa) = 0.04676020
#
# Stress axis : x y z
#
# Youngs Moduli (GPa) = 6.75999 6.76001 171.29517
#
# Poissons Ratio (x) = 0.82012 0.52658
# Poissons Ratio (y) = 0.82012 0.52657
# Poissons Ratio (z) = 0.02078 0.02078
#
# Static dielectric constant tensor:
#      x y z
#    x 1.846930 0.000000 0.000000 
#    y 0.000000 1.846930 0.000000 
#    z 0.000000 0.000000 1.866410 
# 
# From -- ./inp_files/4506.got.cif
#   From: 2010.05.17/outbox.cif.g08.bks.cpg/sg96_3_cif.got.tgz:4506.got - 2010.06.03 19:52:08.
