data_PCOD9550809
_publ_section_title
;
Structure prediction by ZEFSAII (Michael W. Deem and Ramdas Pophale) SiO2 
 PCOD9550809
Probable space group: P 43 21 2
;
_chemical_formula_sum "Si O2"
_cell_formula_units_Z 64
_cell_length_a 11.037719
_cell_length_b 11.037719
_cell_length_c 26.370987
_cell_angle_alpha 90.000000
_cell_angle_beta 90.000000
_cell_angle_gamma 90.000000
_cell_volume 3212.810065
_symmetry_space_group_name_H-M "P 43 21 2"
_symmetry_group_IT_number 96
_symmetry_cell_setting 'tetragonal'
loop_
_space_group_symop_operation_xyz
x,y,z
1/2-y,1/2+x,3/4+z
-x,-y,1/2+z
1/2+y,1/2-x,1/4+z
1/2+x,1/2-y,1/4-z
1/2-x,1/2+y,3/4-z
y,x,-z
-y,-x,1/2-z
loop_
_atom_site_type_symbol
_atom_site_label
_atom_site_fract_x
_atom_site_fract_y
_atom_site_fract_z
Si Si1 0.789821 0.633341 0.565890
Si Si2 0.652073 0.550131 0.738630
Si Si3 0.566214 0.065915 0.547336
Si Si4 0.355190 0.549609 0.994738
Si Si5 0.544960 0.802953 0.701042
Si Si6 0.818508 0.433081 0.651773
Si Si7 0.796560 0.561494 0.416142
Si Si8 0.750391 0.239679 0.936523
O O1 0.728813 0.544082 0.525692
O O2 0.826758 0.549259 0.613827
O O3 0.687447 0.727809 0.579100
O O4 0.901284 0.702906 0.541653
O O5 0.540115 0.459886 0.750000
O O6 0.604767 0.674955 0.713684
O O7 0.736952 0.478649 0.698846
O O8 0.722800 0.608244 0.787525
O O9 0.588982 0.088211 0.487646
O O10 0.444984 0.111408 0.574233
O O11 0.686324 0.125426 0.571701
O O12 0.556293 0.922329 0.554676
O O13 0.322757 0.673764 0.023255
O O14 0.489850 0.489850 0.000000
O O15 0.298147 0.539099 0.938234
O O16 0.556886 0.828513 0.642468
O O17 0.769418 0.327748 0.614695
#
# Coordination Sequence:
#
# PCOD9550809 Si02
#       8
#     8   8   8   8   8   8   8   8
#     4  10  20  35  63  94 121 154 206 264 324 374
#     4  11  26  43  66  94 132 173 218 268 324 391
#     4  11  24  39  63  92 127 168 209 262 317 383
#     4   9  19  37  66  92 120 158 206 268 323 371
#     4  11  23  38  61  97 129 158 211 270 322 380
#     4  11  23  44  66  86 124 173 217 257 324 382
#     4  11  20  36  64  95 121 160 208 257 331 374
#     4  10  25  43  64  91 130 168 221 269 313 390
#
# _framework density 19.920256999999999
#
# number of rings (size 3 to 8) (size 9 to 14) (size 15 to 20)
#    0.000    1.500    3.750    0.750    7.000    0.000 
#    0.000    0.625    2.750    0.000    0.000    0.000 
#    0.000    0.000    0.000    0.000    0.000    0.000 
#
# Total GULP energy -356590.881222 kJ/mol
# GULP energy per Si atom -5571.732519 kJ/mol
# Density = 1.987492 g / cm^3
# Si number density = 19.920257 Si / 1000 Ang^3
#
#
#
# Elastic Constant Matrix: (Units=GPa)
#
#
# Indices 1 2 3 4 5 6 
#
# 1 31.3180 -3.7910 -3.3916 0.0000 0.0000 0.0000
# 2 -3.7910 31.3165 -3.3922 0.0000 0.0000 0.0000
# 3 -3.3916 -3.3922 73.4068 0.0000 0.0000 0.0000
# 4 0.0000 0.0000 0.0000 21.6566 0.0000 0.0000
# 5 0.0000 0.0000 0.0000 0.0000 21.6568 0.0000
# 6 0.0000 0.0000 0.0000 0.0000 0.0000 27.4779
#
#
#
# Elastic Compliance Matrix: (Units=1/GPa)
#
#
# Indices 1 2 3 4 5 6 
#
# 1 0.032615 0.004132 0.001698 0.000000 0.000000 0.000000
# 2 0.004132 0.032616 0.001698 0.000000 0.000000 0.000000
# 3 0.001698 0.001698 0.013780 0.000000 0.000000 0.000000
# 4 0.000000 0.000000 0.000000 0.046175 0.000000 0.000000
# 5 0.000000 0.000000 0.000000 0.000000 0.046175 0.000000
# 6 0.000000 0.000000 0.000000 0.000000 0.000000 0.036393
#
#
# Mechanical properties :
#
#
# Convention : Reuss Voigt Hill
#
# Bulk Modulus (GPa) = 10.63079 12.76575 11.69827
# Shear Modulus (GPa) = 22.31616 23.93267 23.12442
#
# Velocity S-wave (km/s) = 3.35068 3.46992 3.41082
# Velocity P-wave (km/s) = 4.50751 4.74090 4.62568
#
# Compressibility (1/GPa) = 0.09406642
#
# Stress axis : x y z
#
# Youngs Moduli (GPa) = 30.66114 30.65965 72.57090
#
# Poissons Ratio (x) = -0.12669 -0.12321
# Poissons Ratio (y) = -0.12669 -0.12324
# Poissons Ratio (z) = -0.05206 -0.05206
#
# Static dielectric constant tensor:
#      x y z
#    x 1.718970 0.000000 0.000000 
#    y 0.000000 1.718970 0.000000 
#    z 0.000000 0.000000 1.795720 
# 
# From -- ./inp_files/4216.got.cif
#   From: 2010.05.17/outbox.cif.g08.bks.cpg/sg96_3_cif.got.tgz:4216.got - 2010.06.03 19:52:08.
