data_PCOD9550216
_publ_section_title
;
Structure prediction by ZEFSAII (Michael W. Deem and Ramdas Pophale) SiO2 
 PCOD9550216
Probable space group: P 42 21 2
;
_chemical_formula_sum "Si O2"
_cell_formula_units_Z 48
_cell_length_a 8.344483
_cell_length_b 8.344483
_cell_length_c 30.380662
_cell_angle_alpha 90.000000
_cell_angle_beta 90.000000
_cell_angle_gamma 90.000000
_cell_volume 2115.417542
_symmetry_space_group_name_H-M "P 42 21 2"
_symmetry_group_IT_number 94
_symmetry_cell_setting 'tetragonal'
loop_
_space_group_symop_operation_xyz
x,y,z
1/2-y,1/2+x,1/2+z
-x,-y,z
1/2+y,1/2-x,1/2+z
1/2+x,1/2-y,1/2-z
1/2-x,1/2+y,1/2-z
y,x,-z
-y,-x,-z
loop_
_atom_site_type_symbol
_atom_site_label
_atom_site_fract_x
_atom_site_fract_y
_atom_site_fract_z
Si Si1 0.000000 0.500000 0.307250
Si Si2 0.444401 0.279904 0.926540
Si Si3 0.227777 0.433180 0.570417
Si Si4 0.336380 0.304715 0.165722
Si Si5 0.307238 0.975039 0.833669
Si Si6 0.500000 0.500000 0.500000
Si Si7 0.500000 0.500000 0.000000
Si Si8 0.661297 0.595310 0.265384
O O1 0.040806 0.657585 0.335544
O O2 0.162310 0.465718 0.279213
O O3 0.620439 0.221023 0.941767
O O4 0.418160 0.340977 0.876871
O O5 0.390940 0.412541 0.961223
O O6 0.358795 0.106876 0.927381
O O7 0.265199 0.400104 0.621799
O O8 0.358117 0.468939 0.534352
O O9 0.351889 0.386329 0.213113
O O10 0.154686 0.239214 0.167658
O O11 0.260902 0.869057 0.791871
O O12 0.500000 0.000000 0.837019
O O13 0.500000 0.500000 0.278429
#
# Coordination Sequence:
#
# PCOD9550216 Si02
#       8
#     4   8   8   8   8   2   2   8
#     4  12  28  46  70 120 150 196 272 322 364 462
#     4  10  23  45  69  98 143 193 242 308 375 469
#     4  10  22  45  72 104 141 193 247 297 396 454
#     4  11  25  44  73 102 151 197 257 315 383 453
#     4  11  23  47  76 101 150 208 252 307 389 469
#     4  12  24  36  80 114 144 184 256 332 374 460
#     4  12  24  40  68 102 136 176 248 304 392 430
#     4  12  28  44  74 108 155 205 257 315 379 457
#
# _framework density 22.690557999999999
#
# number of rings (size 3 to 8) (size 9 to 14) (size 15 to 20)
#    0.000    1.000    5.000    2.000    7.000    1.333 
#    0.000    5.000    0.000    0.000    0.000    0.000 
#    0.000    0.000    0.000    0.000    0.000    0.000 
#
# Total GULP energy -267226.029684 kJ/mol
# GULP energy per Si atom -5567.208952 kJ/mol
# Density = 2.263891 g / cm^3
# Si number density = 22.690558 Si / 1000 Ang^3
#
#
#
# Elastic Constant Matrix: (Units=GPa)
#
#
# Indices 1 2 3 4 5 6 
#
# 1 83.9181 58.4993 47.2161 0.0000 0.0000 0.0000
# 2 58.4993 83.9181 47.2161 0.0000 0.0000 0.0000
# 3 47.2161 47.2161 168.1259 0.0000 0.0000 0.0000
# 4 0.0000 0.0000 0.0000 23.6628 0.0000 0.0000
# 5 0.0000 0.0000 0.0000 0.0000 23.6628 0.0000
# 6 0.0000 0.0000 0.0000 0.0000 0.0000 27.3168
#
#
#
# Elastic Compliance Matrix: (Units=1/GPa)
#
#
# Indices 1 2 3 4 5 6 
#
# 1 0.023985 -0.015356 -0.002423 0.000000 0.000000 0.000000
# 2 -0.015356 0.023985 -0.002423 0.000000 0.000000 0.000000
# 3 -0.002423 -0.002423 0.007309 0.000000 0.000000 0.000000
# 4 0.000000 0.000000 0.000000 0.042260 0.000000 0.000000
# 5 0.000000 0.000000 0.000000 0.000000 0.042260 0.000000
# 6 0.000000 0.000000 0.000000 0.000000 0.000000 0.036607
#
#
# Mechanical properties :
#
#
# Convention : Reuss Voigt Hill
#
# Bulk Modulus (GPa) = 67.23605 71.31389 69.27497
# Shear Modulus (GPa) = 22.54592 27.13052 24.83822
#
# Velocity S-wave (km/s) = 3.15560 3.46160 3.31214
# Velocity P-wave (km/s) = 6.55539 6.89014 6.72485
#
# Compressibility (1/GPa) = 0.01487297
#
# Stress axis : x y z
#
# Youngs Moduli (GPa) = 41.69332 41.69332 136.81852
#
# Poissons Ratio (x) = 0.64026 0.33153
# Poissons Ratio (y) = 0.64026 0.33153
# Poissons Ratio (z) = 0.10103 0.10103
#
# Static dielectric constant tensor:
#      x y z
#    x 1.919130 0.000000 0.000000 
#    y 0.000000 1.919130 0.000000 
#    z 0.000000 0.000000 1.902570 
# 
# From -- ./inp_files/5685.got.cif
#   From: 2010.05.17/outbox.cif.g08.bks.cpg/sg94_3_cif.got.tgz:5685.got - 2010.06.03 19:43:16.
