data_PCOD9550661
_publ_section_title
;
Structure prediction by ZEFSAII (Michael W. Deem and Ramdas Pophale) SiO2 
 PCOD9550661
Probable space group: P 43 2 2
;
_chemical_formula_sum "Si O2"
_cell_formula_units_Z 48
_cell_length_a 11.588507
_cell_length_b 11.588507
_cell_length_c 15.364362
_cell_angle_alpha 90.000000
_cell_angle_beta 90.000000
_cell_angle_gamma 90.000000
_cell_volume 2063.333864
_symmetry_space_group_name_H-M "P 43 2 2"
_symmetry_group_IT_number 95
_symmetry_cell_setting 'tetragonal'
loop_
_space_group_symop_operation_xyz
x,y,z
-y,x,3/4+z
-x,-y,1/2+z
y,-x,1/4+z
x,-y,1/2-z
-x,y,-z
y,x,1/4-z
-y,-x,3/4-z
loop_
_atom_site_type_symbol
_atom_site_label
_atom_site_fract_x
_atom_site_fract_y
_atom_site_fract_z
Si Si1 0.135623 0.603537 0.491385
Si Si2 0.234248 0.153745 0.025964
Si Si3 0.124315 0.055870 0.384531
Si Si4 0.866855 0.405743 0.374925
Si Si5 0.137856 0.603137 0.136569
Si Si6 0.249813 0.765860 0.009958
O O1 0.215583 0.710075 0.465919
O O2 0.156024 0.532003 0.582284
O O3 0.154621 0.515548 0.412422
O O4 0.000000 0.635360 0.500000
O O5 0.135484 0.133238 0.950918
O O6 0.361904 0.137176 0.987148
O O7 0.208342 0.055048 0.097901
O O8 0.158909 0.134208 0.466059
O O9 0.999969 0.000032 0.375000
O O10 0.800927 0.319058 0.438440
O O11 0.822221 0.366473 0.279098
O O12 0.002102 0.374805 0.385526
O O13 0.237623 0.686430 0.095885
#
# Coordination Sequence:
#
# PCOD9550661 Si02
#       6
#     8   8   8   8   8   8
#     4   9  18  34  56  78 115 156 193 243 291 350
#     4  11  22  37  56  84 122 155 202 242 298 364
#     4  11  22  33  48  79 125 159 186 235 291 366
#     4   9  16  31  51  73 111 151 188 238 282 347
#     4   9  18  32  51  77 114 151 192 235 297 349
#     4   9  17  29  46  76 109 144 195 225 287 353
#
# _framework density 23.263321000000001
#
# number of rings (size 3 to 8) (size 9 to 14) (size 15 to 20)
#    0.000    2.333    1.667    3.000    0.000    5.333 
#    0.000    3.333    3.667    0.000    0.000    0.000 
#  150.000    0.000    0.000    0.000    0.000    0.000 
#
# Total GULP energy -267223.547904 kJ/mol
# GULP energy per Si atom -5567.157248 kJ/mol
# Density = 2.321037 g / cm^3
# Si number density = 23.263321 Si / 1000 Ang^3
#
#
#
# Elastic Constant Matrix: (Units=GPa)
#
#
# Indices 1 2 3 4 5 6 
#
# 1 82.8703 26.9030 23.9301 0.0000 0.0000 0.0000
# 2 26.9030 82.8700 23.9300 0.0000 0.0000 0.0000
# 3 23.9301 23.9300 103.5369 0.0000 0.0000 0.0000
# 4 0.0000 0.0000 0.0000 28.4169 0.0000 0.0000
# 5 0.0000 0.0000 0.0000 0.0000 28.4170 0.0000
# 6 0.0000 0.0000 0.0000 0.0000 0.0000 19.3788
#
#
#
# Elastic Compliance Matrix: (Units=1/GPa)
#
#
# Indices 1 2 3 4 5 6 
#
# 1 0.013999 -0.003869 -0.002341 0.000000 0.000000 0.000000
# 2 -0.003869 0.013999 -0.002341 0.000000 0.000000 0.000000
# 3 -0.002341 -0.002341 0.010741 0.000000 0.000000 0.000000
# 4 0.000000 0.000000 0.000000 0.035190 0.000000 0.000000
# 5 0.000000 0.000000 0.000000 0.000000 0.035190 0.000000
# 6 0.000000 0.000000 0.000000 0.000000 0.000000 0.051603
#
#
# Mechanical properties :
#
#
# Convention : Reuss Voigt Hill
#
# Bulk Modulus (GPa) = 46.21907 46.53369 46.37638
# Shear Modulus (GPa) = 27.02161 28.21014 27.61588
#
# Velocity S-wave (km/s) = 3.41186 3.48608 3.44917
# Velocity P-wave (km/s) = 5.95247 6.02081 5.98674
#
# Compressibility (1/GPa) = 0.02163609
#
# Stress axis : x y z
#
# Youngs Moduli (GPa) = 71.43335 71.43308 93.10358
#
# Poissons Ratio (x) = 0.27634 0.21800
# Poissons Ratio (y) = 0.27634 0.21800
# Poissons Ratio (z) = 0.16726 0.16726
#
# Static dielectric constant tensor:
#      x y z
#    x 1.895560 0.000000 0.000000 
#    y 0.000000 1.895560 0.000000 
#    z 0.000000 0.000000 2.109250 
# 
# From -- ./inp_files/5672.got.cif
#   From: 2010.05.17/outbox.cif.g08.bks.cpg/sg95_3_cif.got.tgz:5672.got - 2010.06.03 19:46:49.
