data_PCOD9550654
_publ_section_title
;
Structure prediction by ZEFSAII (Michael W. Deem and Ramdas Pophale) SiO2 
 PCOD9550654
Probable space group: P 43 2 2
;
_chemical_formula_sum "Si O2"
_cell_formula_units_Z 32
_cell_length_a 8.309543
_cell_length_b 8.309543
_cell_length_c 16.687143
_cell_angle_alpha 90.000000
_cell_angle_beta 90.000000
_cell_angle_gamma 90.000000
_cell_volume 1152.222275
_symmetry_space_group_name_H-M "P 43 2 2"
_symmetry_group_IT_number 95
_symmetry_cell_setting 'tetragonal'
loop_
_space_group_symop_operation_xyz
x,y,z
-y,x,3/4+z
-x,-y,1/2+z
y,-x,1/4+z
x,-y,1/2-z
-x,y,-z
y,x,1/4-z
-y,-x,3/4-z
loop_
_atom_site_type_symbol
_atom_site_label
_atom_site_fract_x
_atom_site_fract_y
_atom_site_fract_z
Si Si1 0.464925 0.808482 0.326329
Si Si2 0.103286 0.645840 0.843541
Si Si3 0.397913 0.696999 0.159305
Si Si4 0.830663 0.871506 0.496544
O O1 0.498784 0.722584 0.241020
O O2 0.527347 0.689617 0.395974
O O3 0.275257 0.836242 0.309943
O O4 0.559967 0.973444 0.345786
O O5 0.191119 0.808882 0.875000
O O6 0.243381 0.513902 0.840525
O O7 0.001182 0.690997 0.764116
O O8 0.240171 0.810555 0.167299
O O9 0.000000 0.957189 0.500000
#
# Coordination Sequence:
#
# PCOD9550654 Si02
#       4
#     8   8   8   8
#     4   9  18  38  71 108 155 204 255 334 392 478
#     4  11  21  35  67 117 148 207 262 326 397 481
#     4   9  18  37  68 112 149 202 265 316 397 477
#     4   9  18  36  67 105 154 188 251 328 393 463
#
# _framework density 27.772417999999998
#
# number of rings (size 3 to 8) (size 9 to 14) (size 15 to 20)
#    1.500    1.000    2.500    0.750    0.000    2.000 
#    0.000    1.250    0.000   10.500   19.500    0.000 
#    0.000    0.000    0.000    0.000    0.000    0.000 
#
# Total GULP energy -178234.392323 kJ/mol
# GULP energy per Si atom -5569.824760 kJ/mol
# Density = 2.770921 g / cm^3
# Si number density = 27.772418 Si / 1000 Ang^3
#
#
#
# Elastic Constant Matrix: (Units=GPa)
#
#
# Indices 1 2 3 4 5 6 
#
# 1 83.0907 59.2866 23.5776 0.0000 0.0000 0.0000
# 2 59.2866 83.0892 23.5775 0.0000 0.0000 0.0000
# 3 23.5776 23.5775 77.8152 0.0000 0.0000 0.0000
# 4 0.0000 0.0000 0.0000 44.4472 0.0000 0.0000
# 5 0.0000 0.0000 0.0000 0.0000 44.4472 0.0000
# 6 0.0000 0.0000 0.0000 0.0000 0.0000 64.1943
#
#
#
# Elastic Compliance Matrix: (Units=1/GPa)
#
#
# Indices 1 2 3 4 5 6 
#
# 1 0.024909 -0.017102 -0.002365 0.000000 0.000000 0.000000
# 2 -0.017102 0.024909 -0.002366 0.000000 0.000000 0.000000
# 3 -0.002365 -0.002366 0.014284 0.000000 0.000000 0.000000
# 4 0.000000 0.000000 0.000000 0.022499 0.000000 0.000000
# 5 0.000000 0.000000 0.000000 0.000000 0.022499 0.000000
# 6 0.000000 0.000000 0.000000 0.000000 0.000000 0.015578
#
#
# Mechanical properties :
#
#
# Convention : Reuss Voigt Hill
#
# Bulk Modulus (GPa) = 48.93183 50.76427 49.84805
# Shear Modulus (GPa) = 28.54610 39.78798 34.16704
#
# Velocity S-wave (km/s) = 3.20950 3.78913 3.51130
# Velocity P-wave (km/s) = 5.60282 6.12060 5.86743
#
# Compressibility (1/GPa) = 0.02043659
#
# Stress axis : x y z
#
# Youngs Moduli (GPa) = 40.14656 40.14578 70.00627
#
# Poissons Ratio (x) = 0.68657 0.16560
# Poissons Ratio (y) = 0.68658 0.16560
# Poissons Ratio (z) = 0.09496 0.09497
#
# Static dielectric constant tensor:
#      x y z
#    x 2.170030 0.000000 0.000000 
#    y 0.000000 2.170030 0.000000 
#    z 0.000000 0.000000 2.305550 
# 
# From -- ./inp_files/6070.got.cif
#   From: 2010.05.17/outbox.cif.g08.bks.cpg/sg95_4_cif.got.tgz:6070.got - 2010.06.03 19:46:49.
