data_PCOD9550296
_publ_section_title
;
Structure prediction by ZEFSAII (Michael W. Deem and Ramdas Pophale) SiO2 
 PCOD9550296
Probable space group: P 42 21 2
;
_chemical_formula_sum "Si O2"
_cell_formula_units_Z 40
_cell_length_a 20.157609
_cell_length_b 20.157609
_cell_length_c 4.992339
_cell_angle_alpha 90.000000
_cell_angle_beta 90.000000
_cell_angle_gamma 90.000000
_cell_volume 2028.533115
_symmetry_space_group_name_H-M "P 42 21 2"
_symmetry_group_IT_number 94
_symmetry_cell_setting 'tetragonal'
loop_
_space_group_symop_operation_xyz
x,y,z
1/2-y,1/2+x,1/2+z
-x,-y,z
1/2+y,1/2-x,1/2+z
1/2+x,1/2-y,1/2-z
1/2-x,1/2+y,1/2-z
y,x,-z
-y,-x,-z
loop_
_atom_site_type_symbol
_atom_site_label
_atom_site_fract_x
_atom_site_fract_y
_atom_site_fract_z
Si Si1 0.494121 0.163831 0.356316
Si Si2 0.595469 0.864765 0.845164
Si Si3 0.391081 0.500030 0.936254
Si Si4 0.232687 0.829339 0.236287
Si Si5 0.808287 0.024400 0.072496
O O1 0.564005 0.127709 0.388076
O O2 0.442241 0.132869 0.564008
O O3 0.501751 0.240108 0.447075
O O4 0.458743 0.156199 0.068402
O O5 0.650691 0.806956 0.822390
O O6 0.366446 0.493604 0.633402
O O7 0.435189 0.435189 0.000000
O O8 0.437650 0.562351 0.000000
O O9 0.328620 0.501545 0.136058
O O10 0.193540 0.806461 0.500000
O O11 0.202721 0.896974 0.111238
O O12 0.224527 0.775474 0.000000
#
# Coordination Sequence:
#
# PCOD9550296 Si02
#       5
#     8   8   8   8   8
#     4  11  24  41  63  88 120 154 195 247 296 356
#     4  11  24  41  62  91 120 154 196 242 296 350
#     4  11  22  35  55  84 116 151 195 239 283 345
#     4  11  21  37  62  89 116 151 198 243 285 340
#     4  11  21  37  58  82 114 152 191 238 292 339
#
# _framework density 19.718682999999999
#
# number of rings (size 3 to 8) (size 9 to 14) (size 15 to 20)
#    0.000    1.000    0.000   10.200    0.000    4.000 
#    0.000    3.000    0.000    0.000    0.000    0.000 
#    0.000    0.000    0.000    0.000    0.000    0.000 
#
# Total GULP energy -223600.631098 kJ/mol
# GULP energy per Si atom -5590.015777 kJ/mol
# Density = 1.967380 g / cm^3
# Si number density = 19.718683 Si / 1000 Ang^3
#
#
#
# Elastic Constant Matrix: (Units=GPa)
#
#
# Indices 1 2 3 4 5 6 
#
# 1 40.8719 56.8253 -3.0676 0.0000 0.0000 0.0000
# 2 56.8253 40.8677 -3.0693 0.0000 0.0000 0.0000
# 3 -3.0676 -3.0693 77.7886 0.0000 0.0000 0.0000
# 4 0.0000 0.0000 0.0000 3.0117 0.0000 0.0000
# 5 0.0000 0.0000 0.0000 0.0000 3.0184 0.0000
# 6 0.0000 0.0000 0.0000 0.0000 0.0000 23.9033
#
#
#
# Elastic Compliance Matrix: (Units=1/GPa)
#
#
# Indices 1 2 3 4 5 6 
#
# 1 -0.026205 0.036468 0.000405 0.000000 0.000000 0.000000
# 2 0.036468 -0.026208 0.000404 0.000000 0.000000 0.000000
# 3 0.000405 0.000404 0.012887 0.000000 0.000000 0.000000
# 4 0.000000 0.000000 0.000000 0.332040 0.000000 0.000000
# 5 0.000000 0.000000 0.000000 0.000000 0.331297 0.000000
# 6 0.000000 0.000000 0.000000 0.000000 0.000000 0.041835
#
#
# Mechanical properties :
#
#
# Convention : Reuss Voigt Hill
#
# Bulk Modulus (GPa) = 28.54772 28.98945 28.76859
# Shear Modulus (GPa) = 8.29506 13.24268 10.76887
#
# Velocity S-wave (km/s) = 2.05325 2.59430 2.33947
# Velocity P-wave (km/s) = 4.48665 4.86901 4.68174
#
# Compressibility (1/GPa) = 0.03502907
#
# Stress axis : x y z
#
# Youngs Moduli (GPa) = -38.16043 -38.15636 77.59587
#
# Poissons Ratio (x) = 1.39148 -0.03147
# Poissons Ratio (y) = 1.39163 -0.03135
# Poissons Ratio (z) = 0.01547 0.01542
#
# Static dielectric constant tensor:
#      x y z
#    x 1.691140 0.000000 0.000000 
#    y 0.000000 1.691140 0.000000 
#    z 0.000000 0.000000 1.691800 
# 
# From -- ./inp_files/349.got.cif
#   From: 2010.05.17/outbox.cif.g08.bks.cpg/sg94_1_cif.got.tgz:349.got - 2010.06.03 19:43:16.
