data_PCOD9550131
_publ_section_title
;
Structure prediction by ZEFSAII (Michael W. Deem and Ramdas Pophale) SiO2 
 PCOD9550131
Probable space group: P 42 21 2
;
_chemical_formula_sum "Si O2"
_cell_formula_units_Z 36
_cell_length_a 14.311038
_cell_length_b 14.311038
_cell_length_c 8.897217
_cell_angle_alpha 90.000000
_cell_angle_beta 90.000000
_cell_angle_gamma 90.000000
_cell_volume 1822.201722
_symmetry_space_group_name_H-M "P 42 21 2"
_symmetry_group_IT_number 94
_symmetry_cell_setting 'tetragonal'
loop_
_space_group_symop_operation_xyz
x,y,z
1/2-y,1/2+x,1/2+z
-x,-y,z
1/2+y,1/2-x,1/2+z
1/2+x,1/2-y,1/2-z
1/2-x,1/2+y,1/2-z
y,x,-z
-y,-x,-z
loop_
_atom_site_type_symbol
_atom_site_label
_atom_site_fract_x
_atom_site_fract_y
_atom_site_fract_z
Si Si1 0.297150 0.519166 0.145094
Si Si2 0.407221 0.435717 0.664461
Si Si3 0.500000 0.000000 0.016866
Si Si4 0.203481 0.091921 0.699196
Si Si5 0.906760 0.383147 0.730849
O O1 0.367567 0.436414 0.198693
O O2 0.337826 0.615689 0.212655
O O3 0.199811 0.481157 0.209091
O O4 0.292799 0.546989 0.969027
O O5 0.500000 0.500000 0.654500
O O6 0.391783 0.391783 0.500000
O O7 0.320898 0.502596 0.699309
O O8 0.574569 0.948180 0.912536
O O9 0.444683 0.930375 0.124089
O O10 0.298547 0.141917 0.748560
#
# Coordination Sequence:
#
# PCOD9550131 Si02
#       5
#     8   8   4   8   8
#     4  10  21  41  64  96 127 168 220 273 323 393
#     4   9  19  37  64  93 125 159 209 276 330 374
#     4  10  24  42  64  80 132 166 212 260 340 394
#     4  10  21  41  66  92 129 170 217 269 336 391
#     4  11  22  44  63  92 125 175 209 268 333 397
#
# _framework density 19.756321
#
# number of rings (size 3 to 8) (size 9 to 14) (size 15 to 20)
#    0.000    2.000    2.222    0.667    3.111    2.667 
#   12.000    0.000    0.000    0.000    0.000    0.000 
#    0.000    0.000    0.000    0.000    0.000    0.000 
#
# Total GULP energy -200513.357440 kJ/mol
# GULP energy per Si atom -5569.815484 kJ/mol
# Density = 1.971135 g / cm^3
# Si number density = 19.756321 Si / 1000 Ang^3
#
#
#
# Elastic Constant Matrix: (Units=GPa)
#
#
# Indices 1 2 3 4 5 6 
#
# 1 81.6228 28.7497 26.5435 0.0000 0.0000 0.0000
# 2 28.7497 81.6228 26.5435 0.0000 0.0000 0.0000
# 3 26.5435 26.5435 83.6955 0.0000 0.0000 0.0000
# 4 0.0000 0.0000 0.0000 -25.3474 0.0000 0.0000
# 5 0.0000 0.0000 0.0000 0.0000 -25.3474 0.0000
# 6 0.0000 0.0000 0.0000 0.0000 0.0000 31.2910
#
#
#
# Elastic Compliance Matrix: (Units=1/GPa)
#
#
# Indices 1 2 3 4 5 6 
#
# 1 0.014802 -0.004111 -0.003391 0.000000 0.000000 0.000000
# 2 -0.004111 0.014802 -0.003391 0.000000 0.000000 0.000000
# 3 -0.003391 -0.003391 0.014099 0.000000 0.000000 0.000000
# 4 0.000000 0.000000 0.000000 -0.039452 0.000000 0.000000
# 5 0.000000 0.000000 0.000000 0.000000 -0.039452 0.000000
# 6 0.000000 0.000000 0.000000 0.000000 0.000000 0.031958
#
#
# Mechanical properties :
#
#
# Convention : Reuss Voigt Hill
#
# Bulk Modulus (GPa) = 45.62381 45.62383 45.62382
# Shear Modulus (GPa) = 193.43682 7.12619 100.28150
#
# Velocity S-wave (km/s) = 9.90575 1.90128 7.13228
# Velocity P-wave (km/s) = 12.40868 5.28803 9.53778
#
# Compressibility (1/GPa) = 0.02191838
#
# Stress axis : x y z
#
# Youngs Moduli (GPa) = 67.55782 67.55782 70.92852
#
# Poissons Ratio (x) = 0.27774 0.24049
# Poissons Ratio (y) = 0.27774 0.24049
# Poissons Ratio (z) = 0.22906 0.22906
#
# Static dielectric constant tensor:
#      x y z
#    x 1.703510 0.000000 0.000000 
#    y 0.000000 1.703510 0.000000 
#    z 0.000000 0.000000 1.718350 
# 
# From -- ./inp_files/1329.got.cif
#   From: 2010.05.17/outbox.cif.g08.bks.cpg/sg94_1_cif.got.tgz:1329.got - 2010.06.03 19:43:16.
