data_PCOD9550855
_publ_section_title
;
Structure prediction by ZEFSAII (Michael W. Deem and Ramdas Pophale) SiO2 
 PCOD9550855
Probable space group: P 43 21 2
;
_chemical_formula_sum "Si O2"
_cell_formula_units_Z 60
_cell_length_a 11.681004
_cell_length_b 11.681004
_cell_length_c 20.448857
_cell_angle_alpha 90.000000
_cell_angle_beta 90.000000
_cell_angle_gamma 90.000000
_cell_volume 2790.161766
_symmetry_space_group_name_H-M "P 43 21 2"
_symmetry_group_IT_number 96
_symmetry_cell_setting 'tetragonal'
loop_
_space_group_symop_operation_xyz
x,y,z
1/2-y,1/2+x,3/4+z
-x,-y,1/2+z
1/2+y,1/2-x,1/4+z
1/2+x,1/2-y,1/4-z
1/2-x,1/2+y,3/4-z
y,x,-z
-y,-x,1/2-z
loop_
_atom_site_type_symbol
_atom_site_label
_atom_site_fract_x
_atom_site_fract_y
_atom_site_fract_z
Si Si1 0.986851 0.159596 0.318970
Si Si2 0.763985 0.874753 0.763375
Si Si3 0.108610 0.765754 0.193122
Si Si4 0.128919 0.829842 0.046815
Si Si5 0.223180 0.056476 0.538366
Si Si6 0.583776 0.416225 0.250000
Si Si7 0.205296 0.192809 0.875987
Si Si8 0.263590 0.452032 0.932959
O O1 0.112905 0.125583 0.297626
O O2 0.993789 0.200504 0.393266
O O3 0.948363 0.251485 0.262560
O O4 0.902045 0.051893 0.319850
O O5 0.703468 0.758726 0.783919
O O6 0.778479 0.873165 0.685952
O O7 0.707567 0.988734 0.789245
O O8 0.147733 0.852268 0.250000
O O9 0.105785 0.828227 0.123624
O O10 0.197073 0.661817 0.193061
O O11 0.042159 0.740403 0.012301
O O12 0.108199 0.950341 0.011408
O O13 0.119119 0.119119 0.500000
O O14 0.636036 0.354067 0.187542
O O15 0.239288 0.325084 0.900327
O O16 0.274999 0.076211 0.847175
#
# Coordination Sequence:
#
# PCOD9550855 Si02
#       8
#     8   8   8   8   8   4   8   8
#     4  10  20  41  67 103 134 191 240 312 366 460
#     4  11  24  42  69 103 143 183 250 303 367 447
#     4  11  26  44  71 106 147 191 240 312 375 442
#     4  12  25  43  73 107 140 193 245 308 364 453
#     4  11  22  42  71 104 145 186 247 300 372 443
#     4  12  24  38  70 100 146 188 252 302 368 442
#     4  11  23  43  64 105 140 196 239 314 366 456
#     4  10  23  40  71  95 147 187 252 301 384 448
#
# _framework density 21.504128999999999
#
# number of rings (size 3 to 8) (size 9 to 14) (size 15 to 20)
#    0.000    1.067    2.000    4.800    7.467    0.000 
#    0.000    6.667    0.000    0.000    0.000    0.000 
#    0.000    0.000    0.000    0.000    0.000    0.000 
#
# Total GULP energy -334192.307484 kJ/mol
# GULP energy per Si atom -5569.871791 kJ/mol
# Density = 2.145518 g / cm^3
# Si number density = 21.504129 Si / 1000 Ang^3
#
#
#
# Elastic Constant Matrix: (Units=GPa)
#
#
# Indices 1 2 3 4 5 6 
#
# 1 79.1473 30.0618 28.6440 0.0000 0.0000 0.0000
# 2 30.0618 79.1482 28.6445 0.0000 0.0000 0.0000
# 3 28.6440 28.6445 170.1492 0.0000 0.0000 0.0000
# 4 0.0000 0.0000 0.0000 31.3359 0.0000 0.0000
# 5 0.0000 0.0000 0.0000 0.0000 31.3366 0.0000
# 6 0.0000 0.0000 0.0000 0.0000 0.0000 14.0576
#
#
#
# Elastic Compliance Matrix: (Units=1/GPa)
#
#
# Indices 1 2 3 4 5 6 
#
# 1 0.015208 -0.005164 -0.001691 0.000000 0.000000 0.000000
# 2 -0.005164 0.015208 -0.001691 0.000000 0.000000 0.000000
# 3 -0.001691 -0.001691 0.006446 0.000000 0.000000 0.000000
# 4 0.000000 0.000000 0.000000 0.031912 0.000000 0.000000
# 5 0.000000 0.000000 0.000000 0.000000 0.031912 0.000000
# 6 0.000000 0.000000 0.000000 0.000000 0.000000 0.071136
#
#
# Mechanical properties :
#
#
# Convention : Reuss Voigt Hill
#
# Bulk Modulus (GPa) = 50.58035 55.90502 53.24268
# Shear Modulus (GPa) = 25.57482 31.41896 28.49689
#
# Velocity S-wave (km/s) = 3.45236 3.82654 3.64425
# Velocity P-wave (km/s) = 6.28204 6.75107 6.52077
#
# Compressibility (1/GPa) = 0.01977052
#
# Stress axis : x y z
#
# Youngs Moduli (GPa) = 65.75429 65.75494 155.12315
#
# Poissons Ratio (x) = 0.33958 0.26228
# Poissons Ratio (y) = 0.33958 0.26229
# Poissons Ratio (z) = 0.11118 0.11118
#
# Static dielectric constant tensor:
#      x y z
#    x 1.839850 0.000000 0.000000 
#    y 0.000000 1.839850 0.000000 
#    z 0.000000 0.000000 1.705940 
# 
# From -- ./inp_files/3632.got.cif
#   From: 2010.05.17/outbox.cif.g08.bks.cpg/sg96_2_cif.got.tgz:3632.got - 2010.06.03 19:52:08.
