data_PCOD9550613
_publ_section_title
;
Structure prediction by ZEFSAII (Michael W. Deem and Ramdas Pophale) SiO2 
 PCOD9550613
Probable space group: P 43 2 2
;
_chemical_formula_sum "Si O2"
_cell_formula_units_Z 36
_cell_length_a 10.839147
_cell_length_b 10.839147
_cell_length_c 14.263786
_cell_angle_alpha 90.000000
_cell_angle_beta 90.000000
_cell_angle_gamma 90.000000
_cell_volume 1675.810962
_symmetry_space_group_name_H-M "P 43 2 2"
_symmetry_group_IT_number 95
_symmetry_cell_setting 'tetragonal'
loop_
_space_group_symop_operation_xyz
x,y,z
-y,x,3/4+z
-x,-y,1/2+z
y,-x,1/4+z
x,-y,1/2-z
-x,y,-z
y,x,1/4-z
-y,-x,3/4-z
loop_
_atom_site_type_symbol
_atom_site_label
_atom_site_fract_x
_atom_site_fract_y
_atom_site_fract_z
Si Si1 0.739528 0.657265 0.377296
Si Si2 0.000000 0.493234 0.000000
Si Si3 0.147457 0.861658 0.484514
Si Si4 0.745061 0.401281 0.453188
Si Si5 0.618077 0.999749 0.555605
O O1 0.802182 0.756180 0.446552
O O2 0.031559 0.748433 0.257221
O O3 0.853068 0.613233 0.312642
O O4 0.640704 0.710868 0.307049
O O5 0.892253 0.577131 0.042746
O O6 0.165541 0.834460 0.375000
O O7 0.042529 0.594262 0.413865
O O8 0.692146 0.307855 0.375000
O O9 0.000000 0.887301 0.500000
O O10 0.692608 0.536972 0.430774
O O11 0.500000 0.950144 0.500000
#
# Coordination Sequence:
#
# PCOD9550613 Si02
#       5
#     8   4   8   8   8
#     4  11  24  44  71 100 145 188 241 298 363 441
#     4  10  22  44  72  98 136 190 248 274 364 462
#     4  12  24  45  71 106 146 185 241 310 366 437
#     4  11  23  44  71 103 140 187 241 304 356 431
#     4  11  22  43  72  97 137 193 234 286 364 445
#
# _framework density 21.482136000000001
#
# number of rings (size 3 to 8) (size 9 to 14) (size 15 to 20)
#    0.000    0.889    2.222    7.333    1.556    0.000 
#    2.000   15.556    0.000    0.000    0.000    0.000 
#    0.000    0.000    0.000    0.000    0.000    0.000 
#
# Total GULP energy -200764.843782 kJ/mol
# GULP energy per Si atom -5576.801216 kJ/mol
# Density = 2.143324 g / cm^3
# Si number density = 21.482136 Si / 1000 Ang^3
#
#
#
# Elastic Constant Matrix: (Units=GPa)
#
#
# Indices 1 2 3 4 5 6 
#
# 1 102.7420 71.6437 60.3907 0.0000 0.0000 0.0000
# 2 71.6437 102.7431 60.3901 0.0000 0.0000 0.0000
# 3 60.3907 60.3901 128.0836 0.0000 0.0000 0.0000
# 4 0.0000 0.0000 0.0000 43.0667 0.0000 0.0000
# 5 0.0000 0.0000 0.0000 0.0000 43.0671 0.0000
# 6 0.0000 0.0000 0.0000 0.0000 0.0000 32.7327
#
#
#
# Elastic Compliance Matrix: (Units=1/GPa)
#
#
# Indices 1 2 3 4 5 6 
#
# 1 0.020336 -0.011820 -0.004015 0.000000 0.000000 0.000000
# 2 -0.011820 0.020335 -0.004015 0.000000 0.000000 0.000000
# 3 -0.004015 -0.004015 0.011593 0.000000 0.000000 0.000000
# 4 0.000000 0.000000 0.000000 0.023220 0.000000 0.000000
# 5 0.000000 0.000000 0.000000 0.000000 0.023220 0.000000
# 6 0.000000 0.000000 0.000000 0.000000 0.000000 0.030550
#
#
# Mechanical properties :
#
#
# Convention : Reuss Voigt Hill
#
# Bulk Modulus (GPa) = 79.59081 79.82418 79.70749
# Shear Modulus (GPa) = 28.87813 33.18291 31.03052
#
# Velocity S-wave (km/s) = 3.67043 3.93450 3.80476
# Velocity P-wave (km/s) = 7.42246 7.60785 7.51573
#
# Compressibility (1/GPa) = 0.01256426
#
# Stress axis : x y z
#
# Youngs Moduli (GPa) = 49.17509 49.17612 86.25690
#
# Poissons Ratio (x) = 0.58127 0.34632
# Poissons Ratio (y) = 0.58126 0.34629
# Poissons Ratio (z) = 0.19744 0.19742
#
# Static dielectric constant tensor:
#      x y z
#    x 1.855480 0.000000 0.000000 
#    y 0.000000 1.855480 0.000000 
#    z 0.000000 0.000000 1.817230 
# 
# From -- ./inp_files/4694.got.cif
#   From: 2010.05.17/outbox.cif.g08.bks.cpg/sg95_3_cif.got.tgz:4694.got - 2010.06.03 19:46:49.
