data_PCOD9550796
_publ_section_title
;
Structure prediction by ZEFSAII (Michael W. Deem and Ramdas Pophale) SiO2 
 PCOD9550796
Probable space group: P 43 21 2
;
_chemical_formula_sum "Si O2"
_cell_formula_units_Z 56
_cell_length_a 18.187666
_cell_length_b 18.187666
_cell_length_c 7.394815
_cell_angle_alpha 90.000000
_cell_angle_beta 90.000000
_cell_angle_gamma 90.000000
_cell_volume 2446.139687
_symmetry_space_group_name_H-M "P 43 21 2"
_symmetry_group_IT_number 96
_symmetry_cell_setting 'tetragonal'
loop_
_space_group_symop_operation_xyz
x,y,z
1/2-y,1/2+x,3/4+z
-x,-y,1/2+z
1/2+y,1/2-x,1/4+z
1/2+x,1/2-y,1/4-z
1/2-x,1/2+y,3/4-z
y,x,-z
-y,-x,1/2-z
loop_
_atom_site_type_symbol
_atom_site_label
_atom_site_fract_x
_atom_site_fract_y
_atom_site_fract_z
Si Si1 0.485975 0.727020 0.668778
Si Si2 0.660187 0.198977 0.217707
Si Si3 0.718666 0.199246 0.599285
Si Si4 0.447920 0.158376 0.458081
Si Si5 0.385728 0.361797 0.214487
Si Si6 0.449521 0.933996 0.745943
Si Si7 0.072078 0.746248 0.950821
O O1 0.399237 0.742244 0.646620
O O2 0.512506 0.783322 0.823445
O O3 0.526061 0.649531 0.722217
O O4 0.525432 0.748846 0.481268
O O5 0.692411 0.229143 0.405923
O O6 0.613980 0.125177 0.269630
O O7 0.720092 0.156455 0.093726
O O8 0.742351 0.257650 0.750000
O O9 0.660363 0.139754 0.675159
O O10 0.788377 0.147325 0.552936
O O11 0.486886 0.085094 0.392021
O O12 0.459492 0.187770 0.659217
O O13 0.328802 0.423367 0.287377
O O14 0.367999 0.367999 0.000000
O O15 0.485439 0.923664 0.550555
#
# Coordination Sequence:
#
# PCOD9550796 Si02
#       7
#     8   8   8   8   8   8   8
#     4   9  20  34  47  73 110 134 177 246 301 335
#     4  11  20  36  48  71 111 144 191 258 297 336
#     4  11  18  32  53  76 102 139 193 258 301 340
#     4  10  20  34  50  73  98 135 196 243 286 335
#     4   9  16  31  52  74  96 134 192 236 289 354
#     4  11  23  36  47  67 107 153 199 241 275 338
#     4  11  19  32  58  75  97 143 203 235 295 343
#
# _framework density 22.893211999999998
#
# number of rings (size 3 to 8) (size 9 to 14) (size 15 to 20)
#    0.000    1.714    7.143    0.857    2.000    1.143 
#    0.000    0.000    0.000    0.000    0.000    0.000 
#    0.000    0.000    0.000    0.000  217.143   38.286 
#
# Total GULP energy -312127.984928 kJ/mol
# GULP energy per Si atom -5573.714017 kJ/mol
# Density = 2.284111 g / cm^3
# Si number density = 22.893212 Si / 1000 Ang^3
#
#
#
# Elastic Constant Matrix: (Units=GPa)
#
#
# Indices 1 2 3 4 5 6 
#
# 1 27.2705 -9.6961 -3.2780 0.0000 0.0000 0.0000
# 2 -9.6961 27.2705 -3.2778 0.0000 0.0000 0.0000
# 3 -3.2780 -3.2778 69.2592 0.0000 0.0000 0.0000
# 4 0.0000 0.0000 0.0000 26.2004 0.0000 0.0000
# 5 0.0000 0.0000 0.0000 0.0000 26.2006 0.0000
# 6 0.0000 0.0000 0.0000 0.0000 0.0000 22.1238
#
#
#
# Elastic Compliance Matrix: (Units=1/GPa)
#
#
# Indices 1 2 3 4 5 6 
#
# 1 0.042487 0.015436 0.002741 0.000000 0.000000 0.000000
# 2 0.015436 0.042487 0.002741 0.000000 0.000000 0.000000
# 3 0.002741 0.002741 0.014698 0.000000 0.000000 0.000000
# 4 0.000000 0.000000 0.000000 0.038167 0.000000 0.000000
# 5 0.000000 0.000000 0.000000 0.000000 0.038167 0.000000
# 6 0.000000 0.000000 0.000000 0.000000 0.000000 0.045200
#
#
# Mechanical properties :
#
#
# Convention : Reuss Voigt Hill
#
# Bulk Modulus (GPa) = 7.06661 10.14405 8.60533
# Shear Modulus (GPa) = 22.07116 24.24178 23.15647
#
# Velocity S-wave (km/s) = 3.10835 3.25761 3.18386
# Velocity P-wave (km/s) = 3.99699 4.31162 4.15728
#
# Compressibility (1/GPa) = 0.14151055
#
# Stress axis : x y z
#
# Youngs Moduli (GPa) = 23.53635 23.53638 68.03640
#
# Poissons Ratio (x) = -0.36331 -0.18652
# Poissons Ratio (y) = -0.36331 -0.18651
# Poissons Ratio (z) = -0.06452 -0.06452
#
# Static dielectric constant tensor:
#      x y z
#    x 1.950970 0.000000 0.000000 
#    y 0.000000 1.950970 0.000000 
#    z 0.000000 0.000000 1.903480 
# 
# From -- ./inp_files/1673.got.cif
#   From: 2010.05.17/outbox.cif.g08.bks.cpg/sg96_1_cif.got.tgz:1673.got - 2010.06.03 19:52:08.
