data_PCOD9550896
_publ_section_title
;
Structure prediction by ZEFSAII (Michael W. Deem and Ramdas Pophale) SiO2 
 PCOD9550896
Probable space group: P 43 21 2
;
_chemical_formula_sum "Si O2"
_cell_formula_units_Z 60
_cell_length_a 17.610373
_cell_length_b 17.610373
_cell_length_c 10.214142
_cell_angle_alpha 90.000000
_cell_angle_beta 90.000000
_cell_angle_gamma 90.000000
_cell_volume 3167.663211
_symmetry_space_group_name_H-M "P 43 21 2"
_symmetry_group_IT_number 96
_symmetry_cell_setting 'tetragonal'
loop_
_space_group_symop_operation_xyz
x,y,z
1/2-y,1/2+x,3/4+z
-x,-y,1/2+z
1/2+y,1/2-x,1/4+z
1/2+x,1/2-y,1/4-z
1/2-x,1/2+y,3/4-z
y,x,-z
-y,-x,1/2-z
loop_
_atom_site_type_symbol
_atom_site_label
_atom_site_fract_x
_atom_site_fract_y
_atom_site_fract_z
Si Si1 0.503259 0.923998 0.096472
Si Si2 0.524469 0.340807 0.959703
Si Si3 0.208450 0.186276 0.650815
Si Si4 0.154364 0.343301 0.713603
Si Si5 0.211387 0.877437 0.855344
Si Si6 0.016642 0.983359 0.250000
Si Si7 0.569152 0.638320 0.202786
Si Si8 0.619709 0.790506 0.077153
O O1 0.428762 0.879243 0.043784
O O2 0.567681 0.860609 0.123540
O O3 0.478273 0.966487 0.229774
O O4 0.605509 0.302001 0.966651
O O5 0.495532 0.345209 0.809916
O O6 0.458161 0.297971 0.035776
O O7 0.528726 0.426732 0.011796
O O8 0.181947 0.181947 0.500000
O O9 0.158135 0.252114 0.714759
O O10 0.297348 0.208506 0.644699
O O11 0.206137 0.369499 0.833264
O O12 0.195862 0.366561 0.577148
O O13 0.186852 0.813149 0.750000
O O14 0.147292 0.872925 0.967934
O O15 0.064225 0.953411 0.372759
O O16 0.580514 0.710711 0.108939
#
# Coordination Sequence:
#
# PCOD9550896 Si02
#       8
#     8   8   8   8   8   4   8   8
#     4  10  24  44  65  98 130 165 219 275 331 387
#     4  11  24  37  57  94 125 163 198 256 309 381
#     4  10  21  38  63  91 119 152 212 260 299 362
#     4  10  21  42  62  91 124 156 216 266 310 375
#     4  10  21  41  59  83 127 165 202 245 313 393
#     4  12  22  34  60  90 126 154 202 246 324 354
#     4  11  21  37  61  86 120 167 199 249 309 373
#     4  10  22  39  67  92 112 167 216 265 308 375
#
# _framework density 18.941409
#
# number of rings (size 3 to 8) (size 9 to 14) (size 15 to 20)
#    0.000    1.600    3.333    2.000    8.400    1.067 
#    2.400    2.667    0.000    0.000    0.000    0.000 
#    0.000    0.000    0.000    0.000    0.000    0.000 
#
# Total GULP energy -335186.199622 kJ/mol
# GULP energy per Si atom -5586.436660 kJ/mol
# Density = 1.889830 g / cm^3
# Si number density = 18.941409 Si / 1000 Ang^3
#
#
#
# Elastic Constant Matrix: (Units=GPa)
#
#
# Indices 1 2 3 4 5 6 
#
# 1 58.1013 37.6538 11.8276 0.0000 0.0000 0.0000
# 2 37.6538 58.1021 11.8272 0.0000 0.0000 0.0000
# 3 11.8276 11.8272 29.2846 0.0000 0.0000 0.0000
# 4 0.0000 0.0000 0.0000 18.1832 0.0000 0.0000
# 5 0.0000 0.0000 0.0000 0.0000 18.1852 0.0000
# 6 0.0000 0.0000 0.0000 0.0000 0.0000 33.8783
#
#
#
# Elastic Compliance Matrix: (Units=1/GPa)
#
#
# Indices 1 2 3 4 5 6 
#
# 1 0.030253 -0.018652 -0.004686 0.000000 0.000000 0.000000
# 2 -0.018652 0.030252 -0.004685 0.000000 0.000000 0.000000
# 3 -0.004686 -0.004685 0.037932 0.000000 0.000000 0.000000
# 4 0.000000 0.000000 0.000000 0.054996 0.000000 0.000000
# 5 0.000000 0.000000 0.000000 0.000000 0.054990 0.000000
# 6 0.000000 0.000000 0.000000 0.000000 0.000000 0.029517
#
#
# Mechanical properties :
#
#
# Convention : Reuss Voigt Hill
#
# Bulk Modulus (GPa) = 23.58909 29.78946 26.68928
# Shear Modulus (GPa) = 16.22763 19.66129 17.94446
#
# Velocity S-wave (km/s) = 2.93017 3.22530 3.08127
# Velocity P-wave (km/s) = 4.89169 5.44348 5.17494
#
# Compressibility (1/GPa) = 0.04239248
#
# Stress axis : x y z
#
# Youngs Moduli (GPa) = 33.05455 33.05533 26.36287
#
# Poissons Ratio (x) = 0.61655 0.12353
# Poissons Ratio (y) = 0.61653 0.12350
# Poissons Ratio (z) = 0.15489 0.15486
#
# Static dielectric constant tensor:
#      x y z
#    x 1.657660 0.000000 0.000000 
#    y 0.000000 1.657660 0.000000 
#    z 0.000000 0.000000 1.659430 
# 
# From -- ./inp_files/1616.got.cif
#   From: 2010.05.17/outbox.cif.g08.bks.cpg/sg96_1_cif.got.tgz:1616.got - 2010.06.03 19:52:08.
