data_PCOD9550154
_publ_section_title
;
Structure prediction by ZEFSAII (Michael W. Deem and Ramdas Pophale) SiO2 
 PCOD9550154
Probable space group: P 42 21 2
;
_chemical_formula_sum "Si O2"
_cell_formula_units_Z 40
_cell_length_a 13.810796
_cell_length_b 13.810796
_cell_length_c 8.995296
_cell_angle_alpha 90.000000
_cell_angle_beta 90.000000
_cell_angle_gamma 90.000000
_cell_volume 1715.745543
_symmetry_space_group_name_H-M "P 42 21 2"
_symmetry_group_IT_number 94
_symmetry_cell_setting 'tetragonal'
loop_
_space_group_symop_operation_xyz
x,y,z
1/2-y,1/2+x,1/2+z
-x,-y,z
1/2+y,1/2-x,1/2+z
1/2+x,1/2-y,1/2-z
1/2-x,1/2+y,1/2-z
y,x,-z
-y,-x,-z
loop_
_atom_site_type_symbol
_atom_site_label
_atom_site_fract_x
_atom_site_fract_y
_atom_site_fract_z
Si Si1 0.492815 0.639846 0.420791
Si Si2 0.356639 0.979656 0.994567
Si Si3 0.150645 0.164902 0.322554
Si Si4 0.024063 0.320871 0.685830
Si Si5 0.170218 0.698876 0.606500
O O1 0.567613 0.567613 0.500000
O O2 0.390922 0.609079 0.500000
O O3 0.537215 0.744443 0.453029
O O4 0.453467 0.636957 0.250943
O O5 0.372770 0.980118 0.169983
O O6 0.362700 0.092719 0.950802
O O7 0.423572 0.901004 0.915079
O O8 0.155322 0.155322 0.500000
O O9 0.240161 0.100547 0.265433
O O10 0.176897 0.270701 0.257460
O O11 0.935713 0.256273 0.623334
O O12 0.236940 0.763061 0.500000
#
# Coordination Sequence:
#
# PCOD9550154 Si02
#       5
#     8   8   8   8   8
#     4  10  21  46  77 105 151 213 258 318 401 480
#     4  11  24  46  74 107 153 198 259 323 392 470
#     4  11  23  47  73 112 156 197 264 329 391 486
#     4  12  25  44  76 116 147 205 264 322 395 471
#     4  11  24  48  72  99 160 203 245 325 404 466
#
# _framework density 23.313479999999998
#
# number of rings (size 3 to 8) (size 9 to 14) (size 15 to 20)
#    0.000    1.000    4.000    3.000    0.000    8.800 
#    3.600    2.000    0.000    0.000    0.000    0.000 
#    0.000    0.000    0.000    0.000    0.000    0.000 
#
# Total GULP energy -223075.991769 kJ/mol
# GULP energy per Si atom -5576.899794 kJ/mol
# Density = 2.326042 g / cm^3
# Si number density = 23.313480 Si / 1000 Ang^3
#
#
#
# Elastic Constant Matrix: (Units=GPa)
#
#
# Indices 1 2 3 4 5 6 
#
# 1 132.3355 68.1807 56.9046 0.0000 0.0000 0.0000
# 2 68.1807 132.3352 56.9052 0.0000 0.0000 0.0000
# 3 56.9046 56.9052 174.3044 0.0000 0.0000 0.0000
# 4 0.0000 0.0000 0.0000 20.3174 0.0000 0.0000
# 5 0.0000 0.0000 0.0000 0.0000 20.3178 0.0000
# 6 0.0000 0.0000 0.0000 0.0000 0.0000 26.7995
#
#
#
# Elastic Compliance Matrix: (Units=1/GPa)
#
#
# Indices 1 2 3 4 5 6 
#
# 1 0.010854 -0.004733 -0.001998 0.000000 0.000000 0.000000
# 2 -0.004733 0.010854 -0.001998 0.000000 0.000000 0.000000
# 3 -0.001998 -0.001998 0.007042 0.000000 0.000000 0.000000
# 4 0.000000 0.000000 0.000000 0.049219 0.000000 0.000000
# 5 0.000000 0.000000 0.000000 0.000000 0.049218 0.000000
# 6 0.000000 0.000000 0.000000 0.000000 0.000000 0.037314
#
#
# Mechanical properties :
#
#
# Convention : Reuss Voigt Hill
#
# Bulk Modulus (GPa) = 88.56617 89.21732 88.89175
# Shear Modulus (GPa) = 26.92153 30.61926 28.77040
#
# Velocity S-wave (km/s) = 3.40187 3.62798 3.51674
# Velocity P-wave (km/s) = 7.31450 7.47672 7.39605
#
# Compressibility (1/GPa) = 0.01129099
#
# Stress axis : x y z
#
# Youngs Moduli (GPa) = 92.12906 92.12849 142.00611
#
# Poissons Ratio (x) = 0.43604 0.28379
# Poissons Ratio (y) = 0.43604 0.28380
# Poissons Ratio (z) = 0.18411 0.18412
#
# Static dielectric constant tensor:
#      x y z
#    x 2.002190 0.000000 0.000000 
#    y 0.000000 2.002200 0.000000 
#    z 0.000000 0.000000 1.982400 
# 
# From -- ./inp_files/1449.got.cif
#   From: 2010.05.17/outbox.cif.g08.bks.cpg/sg94_1_cif.got.tgz:1449.got - 2010.06.03 19:43:16.
