data_PCOD9550233
_publ_section_title
;
Structure prediction by ZEFSAII (Michael W. Deem and Ramdas Pophale) SiO2 
 PCOD9550233
Probable space group: P 42 21 2
;
_chemical_formula_sum "Si O2"
_cell_formula_units_Z 48
_cell_length_a 8.860382
_cell_length_b 8.860382
_cell_length_c 28.791011
_cell_angle_alpha 90.000000
_cell_angle_beta 90.000000
_cell_angle_gamma 90.000000
_cell_volume 2260.277739
_symmetry_space_group_name_H-M "P 42 21 2"
_symmetry_group_IT_number 94
_symmetry_cell_setting 'tetragonal'
loop_
_space_group_symop_operation_xyz
x,y,z
1/2-y,1/2+x,1/2+z
-x,-y,z
1/2+y,1/2-x,1/2+z
1/2+x,1/2-y,1/2-z
1/2-x,1/2+y,1/2-z
y,x,-z
-y,-x,-z
loop_
_atom_site_type_symbol
_atom_site_label
_atom_site_fract_x
_atom_site_fract_y
_atom_site_fract_z
Si Si1 0.433265 0.838384 0.297767
Si Si2 0.581352 0.242066 0.035628
Si Si3 0.744633 0.867860 0.142567
Si Si4 0.922836 0.736896 0.964658
Si Si5 0.729397 0.660504 0.292185
Si Si6 0.444566 0.671732 0.140670
O O1 0.354802 0.764476 0.341835
O O2 0.563320 0.722191 0.282466
O O3 0.316569 0.858693 0.255832
O O4 0.500000 0.000000 0.308935
O O5 0.409206 0.186725 0.030816
O O6 0.607450 0.301642 0.087754
O O7 0.680448 0.092165 0.026314
O O8 0.630796 0.369205 0.000000
O O9 0.777576 0.915230 0.089875
O O10 0.577710 0.796101 0.146973
O O11 0.765513 0.007417 0.177677
O O12 0.862683 0.862683 0.000000
O O13 0.815395 0.785481 0.323105
O O14 0.500000 0.500000 0.146607
#
# Coordination Sequence:
#
# PCOD9550233 Si02
#       6
#     8   8   8   8   8   8
#     4  12  26  43  69 101 135 177 231 286 345 416
#     4  10  23  41  66 100 131 177 226 281 342 404
#     4  11  24  46  69  98 140 185 228 287 357 420
#     4  10  23  45  68  97 138 183 228 280 346 414
#     4  12  24  45  70  99 137 180 227 285 353 424
#     4  11  23  40  69  98 134 177 227 283 346 411
#
# _framework density 21.236329000000001
#
# number of rings (size 3 to 8) (size 9 to 14) (size 15 to 20)
#    0.000    1.000    1.667    5.000    4.667    3.000 
#    6.000    0.000    0.000    0.000    0.000    0.000 
#    0.000    0.000    0.000    0.000    0.000    0.000 
#
# Total GULP energy -268768.068360 kJ/mol
# GULP energy per Si atom -5599.334758 kJ/mol
# Density = 2.118799 g / cm^3
# Si number density = 21.236329 Si / 1000 Ang^3
#
#
#
# Elastic Constant Matrix: (Units=GPa)
#
#
# Indices 1 2 3 4 5 6 
#
# 1 54.7397 9.0737 25.7734 0.0000 0.0000 0.0000
# 2 9.0737 54.7386 25.7729 0.0000 0.0000 0.0000
# 3 25.7734 25.7729 37.1247 0.0000 0.0000 0.0000
# 4 0.0000 0.0000 0.0000 48.4923 0.0000 0.0000
# 5 0.0000 0.0000 0.0000 0.0000 48.4924 0.0000
# 6 0.0000 0.0000 0.0000 0.0000 0.0000 41.4425
#
#
#
# Elastic Compliance Matrix: (Units=1/GPa)
#
#
# Indices 1 2 3 4 5 6 
#
# 1 0.028788 0.006890 -0.024769 0.000000 0.000000 0.000000
# 2 0.006890 0.028789 -0.024769 0.000000 0.000000 0.000000
# 3 -0.024769 -0.024769 0.061328 0.000000 0.000000 0.000000
# 4 0.000000 0.000000 0.000000 0.020622 0.000000 0.000000
# 5 0.000000 0.000000 0.000000 0.000000 0.020622 0.000000
# 6 0.000000 0.000000 0.000000 0.000000 0.000000 0.024130
#
#
# Mechanical properties :
#
#
# Convention : Reuss Voigt Hill
#
# Bulk Modulus (GPa) = 29.75505 29.76037 29.75771
# Shear Modulus (GPa) = 17.80767 33.41766 25.61267
#
# Velocity S-wave (km/s) = 2.89891 3.97118 3.47663
# Velocity P-wave (km/s) = 5.02461 5.92210 5.49172
#
# Compressibility (1/GPa) = 0.03360774
#
# Stress axis : x y z
#
# Youngs Moduli (GPa) = 34.73617 34.73576 16.30588
#
# Poissons Ratio (x) = -0.23934 0.40389
# Poissons Ratio (y) = -0.23934 0.40389
# Poissons Ratio (z) = 0.86039 0.86038
#
# Static dielectric constant tensor:
#      x y z
#    x 1.763040 0.000000 0.000000 
#    y 0.000000 1.763040 0.000000 
#    z 0.000000 0.000000 1.701910 
# 
# From -- ./inp_files/5581.got.cif
#   From: 2010.05.17/outbox.cif.g08.bks.cpg/sg94_3_cif.got.tgz:5581.got - 2010.06.03 19:43:16.
