data_PCOD9550228
_publ_section_title
;
Structure prediction by ZEFSAII (Michael W. Deem and Ramdas Pophale) SiO2 
 PCOD9550228
Probable space group: P 42 21 2
;
_chemical_formula_sum "Si O2"
_cell_formula_units_Z 40
_cell_length_a 9.291354
_cell_length_b 9.291354
_cell_length_c 22.062583
_cell_angle_alpha 90.000000
_cell_angle_beta 90.000000
_cell_angle_gamma 90.000000
_cell_volume 1904.646445
_symmetry_space_group_name_H-M "P 42 21 2"
_symmetry_group_IT_number 94
_symmetry_cell_setting 'tetragonal'
loop_
_space_group_symop_operation_xyz
x,y,z
1/2-y,1/2+x,1/2+z
-x,-y,z
1/2+y,1/2-x,1/2+z
1/2+x,1/2-y,1/2-z
1/2-x,1/2+y,1/2-z
y,x,-z
-y,-x,-z
loop_
_atom_site_type_symbol
_atom_site_label
_atom_site_fract_x
_atom_site_fract_y
_atom_site_fract_z
Si Si1 0.354474 0.315854 0.928514
Si Si2 0.908092 0.195902 0.302311
Si Si3 0.646108 0.445576 0.567262
Si Si4 0.110525 0.368138 0.610269
Si Si5 0.387700 0.717149 0.768027
O O1 0.327448 0.429890 0.874715
O O2 0.237554 0.191816 0.911310
O O3 0.513323 0.253108 0.919804
O O4 0.344718 0.344718 0.000000
O O5 0.816680 0.337711 0.287098
O O6 0.061520 0.188057 0.269309
O O7 0.816330 0.056954 0.278574
O O8 0.500000 0.500000 0.599466
O O9 0.599989 0.400012 0.500000
O O10 0.759842 0.574691 0.569776
O O11 0.164471 0.307238 0.673657
O O12 0.000000 0.500000 0.621557
#
# Coordination Sequence:
#
# PCOD9550228 Si02
#       5
#     8   8   8   8   8
#     4   9  19  39  63  85 122 161 203 251 311 371
#     4  10  23  41  62  94 120 164 205 257 311 372
#     4   9  18  34  56  85 119 157 204 248 302 362
#     4   9  19  37  63  83 119 165 200 247 319 363
#     4  10  23  40  62  91 125 156 211 252 311 374
#
# _framework density 21.001273000000001
#
# number of rings (size 3 to 8) (size 9 to 14) (size 15 to 20)
#    0.000    2.600    0.000    0.000    8.400    1.600 
#    7.200    7.000    8.800    0.000    0.000    0.000 
#    0.000    0.000    0.000    0.000    0.000    0.000 
#
# Total GULP energy -222894.980317 kJ/mol
# GULP energy per Si atom -5572.374508 kJ/mol
# Density = 2.095347 g / cm^3
# Si number density = 21.001273 Si / 1000 Ang^3
#
#
#
# Elastic Constant Matrix: (Units=GPa)
#
#
# Indices 1 2 3 4 5 6 
#
# 1 53.6866 19.8037 14.9319 0.0000 0.0000 0.0000
# 2 19.8037 53.6867 14.9317 0.0000 0.0000 0.0000
# 3 14.9319 14.9317 92.2007 0.0000 0.0000 0.0000
# 4 0.0000 0.0000 0.0000 26.3907 0.0000 0.0000
# 5 0.0000 0.0000 0.0000 0.0000 26.3906 0.0000
# 6 0.0000 0.0000 0.0000 0.0000 0.0000 22.2215
#
#
#
# Elastic Compliance Matrix: (Units=1/GPa)
#
#
# Indices 1 2 3 4 5 6 
#
# 1 0.022040 -0.007474 -0.002359 0.000000 0.000000 0.000000
# 2 -0.007474 0.022040 -0.002359 0.000000 0.000000 0.000000
# 3 -0.002359 -0.002359 0.011610 0.000000 0.000000 0.000000
# 4 0.000000 0.000000 0.000000 0.037892 0.000000 0.000000
# 5 0.000000 0.000000 0.000000 0.000000 0.037892 0.000000
# 6 0.000000 0.000000 0.000000 0.000000 0.000000 0.045001
#
#
# Mechanical properties :
#
#
# Convention : Reuss Voigt Hill
#
# Bulk Modulus (GPa) = 31.94289 33.21208 32.57748
# Shear Modulus (GPa) = 23.66375 24.99433 24.32904
#
# Velocity S-wave (km/s) = 3.36039 3.45357 3.40730
# Velocity P-wave (km/s) = 5.50448 5.63485 5.57005
#
# Compressibility (1/GPa) = 0.03130588
#
# Stress axis : x y z
#
# Youngs Moduli (GPa) = 45.37282 45.37291 86.13299
#
# Poissons Ratio (x) = 0.33911 0.20318
# Poissons Ratio (y) = 0.33911 0.20318
# Poissons Ratio (z) = 0.10703 0.10703
#
# Static dielectric constant tensor:
#      x y z
#    x 1.772120 0.000000 0.000000 
#    y 0.000000 1.772120 0.000000 
#    z 0.000000 0.000000 1.790000 
# 
# From -- ./inp_files/4917.got.cif
#   From: 2010.05.17/outbox.cif.g08.bks.cpg/sg94_3_cif.got.tgz:4917.got - 2010.06.03 19:43:16.
