data_PCOD9550500
_publ_section_title
;
Structure prediction by ZEFSAII (Michael W. Deem and Ramdas Pophale) SiO2 
 PCOD9550500
Probable space group: P 43 2 2
;
_chemical_formula_sum "Si O2"
_cell_formula_units_Z 64
_cell_length_a 11.202004
_cell_length_b 11.202004
_cell_length_c 22.783582
_cell_angle_alpha 90.000000
_cell_angle_beta 90.000000
_cell_angle_gamma 90.000000
_cell_volume 2858.995363
_symmetry_space_group_name_H-M "P 43 2 2"
_symmetry_group_IT_number 95
_symmetry_cell_setting 'tetragonal'
loop_
_space_group_symop_operation_xyz
x,y,z
-y,x,3/4+z
-x,-y,1/2+z
y,-x,1/4+z
x,-y,1/2-z
-x,y,-z
y,x,1/4-z
-y,-x,3/4-z
loop_
_atom_site_type_symbol
_atom_site_label
_atom_site_fract_x
_atom_site_fract_y
_atom_site_fract_z
Si Si1 0.037097 0.333042 0.567307
Si Si2 0.959114 0.129527 0.742659
Si Si3 0.372202 0.725813 0.205464
Si Si4 0.960813 0.577862 0.379457
Si Si5 0.679633 0.365870 0.441009
Si Si6 0.144908 0.677840 0.727191
Si Si7 0.831666 0.262895 0.928160
Si Si8 0.222033 0.836536 0.615037
O O1 0.988848 0.454768 0.596599
O O2 0.179497 0.335313 0.567234
O O3 0.000000 0.325727 0.500000
O O4 0.967319 0.241237 0.607360
O O5 0.871694 0.150224 0.798115
O O6 0.869770 0.131008 0.687192
O O7 0.053042 0.236996 0.738198
O O8 0.017364 0.000000 0.750000
O O9 0.407526 0.837043 0.164099
O O10 0.498529 0.658657 0.213424
O O11 0.335544 0.778883 0.267781
O O12 0.250356 0.683952 0.171181
O O13 0.930275 0.580745 0.310379
O O14 0.049412 0.679244 0.401942
O O15 0.631954 0.368047 0.375000
O O16 0.637942 0.257362 0.483378
O O17 0.189807 0.761394 0.673078
O O18 0.739781 0.260220 0.875000
#
# Coordination Sequence:
#
# PCOD9550500 Si02
#       8
#     8   8   8   8   8   8   8   8
#     4  11  21  40  67  97 126 168 216 273 334 389
#     4  11  23  35  54  87 138 174 199 252 321 399
#     4   9  21  40  64  91 126 174 219 265 318 382
#     4  10  20  37  63  95 124 169 217 260 317 390
#     4  11  23  41  65  98 127 170 223 269 329 394
#     4  11  22  38  58  96 130 167 212 261 327 387
#     4  11  19  35  62  94 129 165 221 254 318 394
#     4  10  22  39  60  91 127 163 216 267 314 389
#
# _framework density 22.385486
#
# number of rings (size 3 to 8) (size 9 to 14) (size 15 to 20)
#    0.000    1.500    2.500    4.875    1.750    0.000 
#    0.000   10.000    0.000    0.750   13.000    0.000 
#    0.000    0.000    0.000    0.000    0.000    0.000 
#
# Total GULP energy -356651.772935 kJ/mol
# GULP energy per Si atom -5572.683952 kJ/mol
# Density = 2.233454 g / cm^3
# Si number density = 22.385486 Si / 1000 Ang^3
#
#
#
# Elastic Constant Matrix: (Units=GPa)
#
#
# Indices 1 2 3 4 5 6 
#
# 1 57.0547 -0.7221 28.0153 0.0000 0.0000 0.0000
# 2 -0.7221 57.0537 28.0148 0.0000 0.0000 0.0000
# 3 28.0153 28.0148 131.8027 0.0000 0.0000 0.0000
# 4 0.0000 0.0000 0.0000 6.8967 0.0000 0.0000
# 5 0.0000 0.0000 0.0000 0.0000 6.8975 0.0000
# 6 0.0000 0.0000 0.0000 0.0000 0.0000 2.5186
#
#
#
# Elastic Compliance Matrix: (Units=1/GPa)
#
#
# Indices 1 2 3 4 5 6 
#
# 1 0.019909 0.002601 -0.004785 0.000000 0.000000 0.000000
# 2 0.002601 0.019910 -0.004785 0.000000 0.000000 0.000000
# 3 -0.004785 -0.004785 0.009621 0.000000 0.000000 0.000000
# 4 0.000000 0.000000 0.000000 0.144997 0.000000 0.000000
# 5 0.000000 0.000000 0.000000 0.000000 0.144981 0.000000
# 6 0.000000 0.000000 0.000000 0.000000 0.000000 0.397040
#
#
# Mechanical properties :
#
#
# Convention : Reuss Voigt Hill
#
# Bulk Modulus (GPa) = 28.16580 39.61410 33.88995
# Shear Modulus (GPa) = 6.55971 15.96944 11.26458
#
# Velocity S-wave (km/s) = 1.71368 2.67382 2.24567
# Velocity P-wave (km/s) = 4.06511 5.22180 4.67933
#
# Compressibility (1/GPa) = 0.03550405
#
# Stress axis : x y z
#
# Youngs Moduli (GPa) = 50.22749 50.22674 103.93794
#
# Poissons Ratio (x) = -0.13066 0.49732
# Poissons Ratio (y) = -0.13066 0.49732
# Poissons Ratio (z) = 0.24033 0.24032
#
# Static dielectric constant tensor:
#      x y z
#    x 2.074430 0.000000 0.000000 
#    y 0.000000 2.074430 0.000000 
#    z 0.000000 0.000000 1.861280 
# 
# From -- ./inp_files/7065.got.cif
#   From: 2010.05.17/outbox.cif.g08.bks.cpg/sg95_4_cif.got.tgz:7065.got - 2010.06.03 19:46:49.
