data_PCOD9550205
_publ_section_title
;
Structure prediction by ZEFSAII (Michael W. Deem and Ramdas Pophale) SiO2 
 PCOD9550205
Probable space group: P 42 21 2
;
_chemical_formula_sum "Si O2"
_cell_formula_units_Z 34
_cell_length_a 8.806927
_cell_length_b 8.806927
_cell_length_c 20.249673
_cell_angle_alpha 90.000000
_cell_angle_beta 90.000000
_cell_angle_gamma 90.000000
_cell_volume 1570.604392
_symmetry_space_group_name_H-M "P 42 21 2"
_symmetry_group_IT_number 94
_symmetry_cell_setting 'tetragonal'
loop_
_space_group_symop_operation_xyz
x,y,z
1/2-y,1/2+x,1/2+z
-x,-y,z
1/2+y,1/2-x,1/2+z
1/2+x,1/2-y,1/2-z
1/2-x,1/2+y,1/2-z
y,x,-z
-y,-x,-z
loop_
_atom_site_type_symbol
_atom_site_label
_atom_site_fract_x
_atom_site_fract_y
_atom_site_fract_z
Si Si1 0.833079 0.652810 0.672999
Si Si2 0.340435 0.516346 0.066322
Si Si3 0.132115 0.237559 0.100354
Si Si4 0.817081 0.996591 0.209850
Si Si5 0.500000 0.500000 0.500000
O O1 0.876555 0.730429 0.605060
O O2 0.822906 0.476005 0.653360
O O3 0.669231 0.714334 0.693214
O O4 0.941053 0.713438 0.730474
O O5 0.500000 0.500000 0.104670
O O6 0.248854 0.355880 0.066560
O O7 0.397740 0.602261 0.000000
O O8 0.210415 0.109251 0.145697
O O9 0.025075 0.145476 0.048468
O O10 0.000000 0.000000 0.224059
#
# Coordination Sequence:
#
# PCOD9550205 Si02
#       5
#     8   8   8   8   2
#     4  11  22  42  71 101 135 182 232 291 356 434
#     4  11  25  45  63  96 141 188 234 294 357 425
#     4  11  24  45  73 100 139 189 237 305 361 440
#     4  10  22  43  69 104 138 180 229 287 363 426
#     4  12  20  44  78 100 142 180 254 298 372 436
#
# _framework density 21.647718999999999
#
# number of rings (size 3 to 8) (size 9 to 14) (size 15 to 20)
#    0.000    1.176    3.529    4.235    1.647    3.765 
#    0.000    5.882    0.000    0.000    0.000    0.000 
#    0.000    0.000    0.000    0.000    0.000    0.000 
#
# Total GULP energy -189565.513652 kJ/mol
# GULP energy per Si atom -5575.456284 kJ/mol
# Density = 2.159845 g / cm^3
# Si number density = 21.647719 Si / 1000 Ang^3
#
#
#
# Elastic Constant Matrix: (Units=GPa)
#
#
# Indices 1 2 3 4 5 6 
#
# 1 108.1488 83.9612 54.9950 0.0000 0.0000 0.0000
# 2 83.9612 108.1485 54.9949 0.0000 0.0000 0.0000
# 3 54.9950 54.9949 121.0217 0.0000 0.0000 0.0000
# 4 0.0000 0.0000 0.0000 39.7258 0.0000 0.0000
# 5 0.0000 0.0000 0.0000 0.0000 39.7261 0.0000
# 6 0.0000 0.0000 0.0000 0.0000 0.0000 45.7140
#
#
#
# Elastic Compliance Matrix: (Units=1/GPa)
#
#
# Indices 1 2 3 4 5 6 
#
# 1 0.024190 -0.017154 -0.003197 0.000000 0.000000 0.000000
# 2 -0.017154 0.024190 -0.003197 0.000000 0.000000 0.000000
# 3 -0.003197 -0.003197 0.011169 0.000000 0.000000 0.000000
# 4 0.000000 0.000000 0.000000 0.025173 0.000000 0.000000
# 5 0.000000 0.000000 0.000000 0.000000 0.025172 0.000000
# 6 0.000000 0.000000 0.000000 0.000000 0.000000 0.021875
#
#
# Mechanical properties :
#
#
# Convention : Reuss Voigt Hill
#
# Bulk Modulus (GPa) = 80.31142 80.58015 80.44579
# Shear Modulus (GPa) = 27.31999 34.59102 30.95551
#
# Velocity S-wave (km/s) = 3.55636 4.00172 3.78559
# Velocity P-wave (km/s) = 7.35142 7.65871 7.50664
#
# Compressibility (1/GPa) = 0.01245153
#
# Stress axis : x y z
#
# Youngs Moduli (GPa) = 41.33967 41.33959 89.53502
#
# Poissons Ratio (x) = 0.70914 0.28627
# Poissons Ratio (y) = 0.70914 0.28627
# Poissons Ratio (z) = 0.13217 0.13217
#
# Static dielectric constant tensor:
#      x y z
#    x 1.852570 0.000000 0.000000 
#    y 0.000000 1.852570 0.000000 
#    z 0.000000 0.000000 1.823620 
# 
# From -- ./inp_files/4564.got.cif
#   From: 2010.05.17/outbox.cif.g08.bks.cpg/sg94_3_cif.got.tgz:4564.got - 2010.06.03 19:43:16.
