data_PCOD9550736
_publ_section_title
;
Structure prediction by ZEFSAII (Michael W. Deem and Ramdas Pophale) SiO2 
 PCOD9550736
Probable space group: P 43 21 2
;
_chemical_formula_sum "Si O2"
_cell_formula_units_Z 44
_cell_length_a 7.956393
_cell_length_b 7.956393
_cell_length_c 25.928373
_cell_angle_alpha 90.000000
_cell_angle_beta 90.000000
_cell_angle_gamma 90.000000
_cell_volume 1641.374640
_symmetry_space_group_name_H-M "P 43 21 2"
_symmetry_group_IT_number 96
_symmetry_cell_setting 'tetragonal'
loop_
_space_group_symop_operation_xyz
x,y,z
1/2-y,1/2+x,3/4+z
-x,-y,1/2+z
1/2+y,1/2-x,1/4+z
1/2+x,1/2-y,1/4-z
1/2-x,1/2+y,3/4-z
y,x,-z
-y,-x,1/2-z
loop_
_atom_site_type_symbol
_atom_site_label
_atom_site_fract_x
_atom_site_fract_y
_atom_site_fract_z
Si Si1 0.164637 0.067169 0.182644
Si Si2 0.354235 0.222006 0.104164
Si Si3 0.761597 0.027962 0.882270
Si Si4 0.848844 0.708038 0.767476
Si Si5 0.972324 0.728227 0.922802
Si Si6 0.744283 0.744283 0.500000
O O1 0.335325 0.096261 0.151573
O O2 0.198404 0.110990 0.241870
O O3 0.031465 0.215986 0.167564
O O4 0.079326 0.907583 0.157767
O O5 0.287812 0.391425 0.131143
O O6 0.241443 0.162278 0.054963
O O7 0.600758 0.048834 0.844803
O O8 0.823536 0.865977 0.914727
O O9 0.725014 0.166432 0.926978
O O10 0.781928 0.562674 0.728264
O O11 0.052267 0.719285 0.768051
#
# Coordination Sequence:
#
# PCOD9550736 Si02
#       6
#     8   8   8   8   8   4
#     4   9  21  38  63  93 129 175 229 279 345 426
#     4   9  18  38  57  87 125 168 220 273 325 411
#     4  11  22  43  69 100 145 186 231 306 363 423
#     4  10  21  42  70  97 139 188 238 295 355 434
#     4  10  22  40  68  97 141 180 234 291 354 426
#     4  10  18  36  68  90 122 186 228 274 352 420
#
# _framework density 26.806798000000001
#
# number of rings (size 3 to 8) (size 9 to 14) (size 15 to 20)
#    0.000    2.182    1.818    0.545    0.000    4.364 
#    9.818    5.455    0.000    0.000    0.000    0.000 
#    0.000    0.000    0.000    0.000    0.000    0.000 
#
# Total GULP energy -245422.148410 kJ/mol
# GULP energy per Si atom -5577.776100 kJ/mol
# Density = 2.674578 g / cm^3
# Si number density = 26.806798 Si / 1000 Ang^3
#
#
#
# Elastic Constant Matrix: (Units=GPa)
#
#
# Indices 1 2 3 4 5 6 
#
# 1 36.4147 35.7088 13.7693 0.0000 0.0000 0.0000
# 2 35.7088 36.4147 13.7693 0.0000 0.0000 0.0000
# 3 13.7693 13.7693 184.4855 0.0000 0.0000 0.0000
# 4 0.0000 0.0000 0.0000 30.6729 0.0000 0.0000
# 5 0.0000 0.0000 0.0000 0.0000 30.6729 0.0000
# 6 0.0000 0.0000 0.0000 0.0000 0.0000 51.9043
#
#
#
# Elastic Compliance Matrix: (Units=1/GPa)
#
#
# Indices 1 2 3 4 5 6 
#
# 1 0.715510 -0.701238 -0.001065 0.000000 0.000000 0.000000
# 2 -0.701238 0.715510 -0.001065 0.000000 0.000000 0.000000
# 3 -0.001065 -0.001065 0.005579 0.000000 0.000000 0.000000
# 4 0.000000 0.000000 0.000000 0.032602 0.000000 0.000000
# 5 0.000000 0.000000 0.000000 0.000000 0.032602 0.000000
# 6 0.000000 0.000000 0.000000 0.000000 0.000000 0.019266
#
#
# Mechanical properties :
#
#
# Convention : Reuss Voigt Hill
#
# Bulk Modulus (GPa) = 33.48697 42.64551 38.06624
# Shear Modulus (GPa) = 1.70198 35.58786 18.64492
#
# Velocity S-wave (km/s) = 0.79767 3.64753 2.64015
# Velocity P-wave (km/s) = 3.65615 5.80365 4.85025
#
# Compressibility (1/GPa) = 0.02986236
#
# Stress axis : x y z
#
# Youngs Moduli (GPa) = 1.39761 1.39761 179.22811
#
# Poissons Ratio (x) = 0.98005 0.19091
# Poissons Ratio (y) = 0.98005 0.19091
# Poissons Ratio (z) = 0.00149 0.00149
#
# Static dielectric constant tensor:
#      x y z
#    x 2.209940 0.000000 0.000000 
#    y 0.000000 2.209940 0.000000 
#    z 0.000000 0.000000 2.105680 
# 
# From -- ./inp_files/4409.got.cif
#   From: 2010.05.17/outbox.cif.g08.bks.cpg/sg96_3_cif.got.tgz:4409.got - 2010.06.03 19:52:08.
