data_PCOD9550491
_publ_section_title
;
Structure prediction by ZEFSAII (Michael W. Deem and Ramdas Pophale) SiO2 
 PCOD9550491
Probable space group: P 43 2 2
;
_chemical_formula_sum "Si O2"
_cell_formula_units_Z 48
_cell_length_a 20.392749
_cell_length_b 20.392749
_cell_length_c 6.274487
_cell_angle_alpha 90.000000
_cell_angle_beta 90.000000
_cell_angle_gamma 90.000000
_cell_volume 2609.334591
_symmetry_space_group_name_H-M "P 43 2 2"
_symmetry_group_IT_number 95
_symmetry_cell_setting 'tetragonal'
loop_
_space_group_symop_operation_xyz
x,y,z
-y,x,3/4+z
-x,-y,1/2+z
y,-x,1/4+z
x,-y,1/2-z
-x,y,-z
y,x,1/4-z
-y,-x,3/4-z
loop_
_atom_site_type_symbol
_atom_site_label
_atom_site_fract_x
_atom_site_fract_y
_atom_site_fract_z
Si Si1 0.500000 0.596711 0.500000
Si Si2 0.305655 0.128252 0.463451
Si Si3 0.296820 0.000000 0.250000
Si Si4 0.270715 0.729286 0.875000
Si Si5 0.777578 0.500000 0.250000
Si Si6 0.591911 0.289748 0.178045
Si Si7 0.382138 0.939187 0.640451
Si Si8 0.580011 0.170781 0.858528
O O1 0.451485 0.548516 0.375000
O O2 0.449121 0.644643 0.625642
O O3 0.266315 0.066781 0.354783
O O4 0.275030 0.197025 0.535633
O O5 0.340402 0.098250 0.675835
O O6 0.356745 0.152121 0.282683
O O7 0.338298 0.971543 0.450933
O O8 0.329634 0.713277 0.708752
O O9 0.735893 0.440653 0.350940
O O10 0.822520 0.524093 0.437877
O O11 0.581020 0.239427 0.983647
O O12 0.425840 0.885922 0.528592
O O13 0.417873 0.000000 0.750000
#
# Coordination Sequence:
#
# PCOD9550491 Si02
#       8
#     4   8   4   4   4   8   8   8
#     4  12  32  51  68  86 117 162 212 268 346 425
#     4  10  20  36  59  96 124 163 208 260 312 389
#     4   8  18  34  60  86 130 168 210 236 320 376
#     4  12  24  38  66  96 128 152 220 276 330 382
#     4  12  22  41  58  90 115 154 196 256 344 391
#     4  12  27  44  65  91 119 154 202 274 337 389
#     4   9  17  35  59  92 118 164 208 248 307 384
#     4  11  20  39  59  92 114 161 200 256 326 384
#
# _framework density 18.395493999999999
#
# number of rings (size 3 to 8) (size 9 to 14) (size 15 to 20)
#    0.000    1.333    5.000    0.000    5.833    0.000 
#    0.000    0.000    0.000    0.000  348.833    0.000 
#    0.000    0.000    0.000    0.000  114.000    0.167 
#
# Total GULP energy -267211.261822 kJ/mol
# GULP energy per Si atom -5566.901288 kJ/mol
# Density = 1.835362 g / cm^3
# Si number density = 18.395494 Si / 1000 Ang^3
#
#
#
# Elastic Constant Matrix: (Units=GPa)
#
#
# Indices 1 2 3 4 5 6 
#
# 1 121.8037 53.1392 50.4347 0.0000 0.0000 0.0000
# 2 53.1392 121.8049 50.4341 0.0000 0.0000 0.0000
# 3 50.4347 50.4341 112.7323 0.0000 0.0000 0.0000
# 4 0.0000 0.0000 0.0000 10.4923 0.0000 0.0000
# 5 0.0000 0.0000 0.0000 0.0000 10.4878 0.0000
# 6 0.0000 0.0000 0.0000 0.0000 0.0000 0.8754
#
#
#
# Elastic Compliance Matrix: (Units=1/GPa)
#
#
# Indices 1 2 3 4 5 6 
#
# 1 0.011133 -0.003430 -0.003446 0.000000 0.000000 0.000000
# 2 -0.003430 0.011133 -0.003446 0.000000 0.000000 0.000000
# 3 -0.003446 -0.003446 0.011954 0.000000 0.000000 0.000000
# 4 0.000000 0.000000 0.000000 0.095308 0.000000 0.000000
# 5 0.000000 0.000000 0.000000 0.000000 0.095349 0.000000
# 6 0.000000 0.000000 0.000000 0.000000 0.000000 1.142341
#
#
# Mechanical properties :
#
#
# Convention : Reuss Voigt Hill
#
# Bulk Modulus (GPa) = 73.66229 73.81743 73.73986
# Shear Modulus (GPa) = 3.59095 17.85994 10.72544
#
# Velocity S-wave (km/s) = 1.39868 3.11929 2.41726
# Velocity P-wave (km/s) = 6.53751 7.29304 6.92558
#
# Compressibility (1/GPa) = 0.01357547
#
# Stress axis : x y z
#
# Youngs Moduli (GPa) = 89.81975 89.82133 83.65286
#
# Poissons Ratio (x) = 0.30810 0.28830
# Poissons Ratio (y) = 0.30809 0.28828
# Poissons Ratio (z) = 0.30955 0.30954
#
# Static dielectric constant tensor:
#      x y z
#    x 1.678380 0.000000 0.000000 
#    y 0.000000 1.678390 0.000000 
#    z 0.000000 0.000000 1.698730 
# 
# From -- ./inp_files/1336.got.cif
#   From: 2010.05.17/outbox.cif.g08.bks.cpg/sg95_1_cif.got.tgz:1336.got - 2010.06.03 19:46:49.
