data_PCOD9550526
_publ_section_title
;
Structure prediction by ZEFSAII (Michael W. Deem and Ramdas Pophale) SiO2 
 PCOD9550526
Probable space group: P 43 2 2
;
_chemical_formula_sum "Si O2"
_cell_formula_units_Z 40
_cell_length_a 12.175948
_cell_length_b 12.175948
_cell_length_c 13.034514
_cell_angle_alpha 90.000000
_cell_angle_beta 90.000000
_cell_angle_gamma 90.000000
_cell_volume 1932.415055
_symmetry_space_group_name_H-M "P 43 2 2"
_symmetry_group_IT_number 95
_symmetry_cell_setting 'tetragonal'
loop_
_space_group_symop_operation_xyz
x,y,z
-y,x,3/4+z
-x,-y,1/2+z
y,-x,1/4+z
x,-y,1/2-z
-x,y,-z
y,x,1/4-z
-y,-x,3/4-z
loop_
_atom_site_type_symbol
_atom_site_label
_atom_site_fract_x
_atom_site_fract_y
_atom_site_fract_z
Si Si1 0.374641 0.023272 0.974366
Si Si2 0.656656 0.656656 0.125000
Si Si3 0.739750 0.328016 0.710354
Si Si4 0.721912 0.000000 0.250000
Si Si5 0.512116 0.653611 0.689594
Si Si6 0.823871 0.763540 0.270834
O O1 0.353163 0.146145 0.014590
O O2 0.352082 0.019420 0.851150
O O3 0.500000 0.990547 0.000000
O O4 0.279013 0.946708 0.019304
O O5 0.558039 0.652004 0.205796
O O6 0.761556 0.673318 0.199098
O O7 0.631434 0.306252 0.775517
O O8 0.718575 0.435925 0.639604
O O9 0.755421 0.227952 0.632814
O O10 0.793962 0.111801 0.264558
O O11 0.544210 0.544210 0.625000
#
# Coordination Sequence:
#
# PCOD9550526 Si02
#       6
#     8   4   8   4   8   8
#     4  11  22  38  63  92 127 164 209 263 327 382
#     4  10  22  36  60  98 118 164 220 258 318 374
#     4  10  25  39  60  92 124 172 211 257 329 386
#     4  10  20  40  64  92 124 164 212 266 326 368
#     4  11  23  38  59  87 132 170 207 258 318 393
#     4  10  21  39  65  93 123 161 217 277 311 377
#
# _framework density 20.699487000000001
#
# number of rings (size 3 to 8) (size 9 to 14) (size 15 to 20)
#    0.000    1.600    2.000    1.800    7.000    1.600 
#    0.000    0.000    0.000   14.400    0.000    1.400 
#    0.000    0.000    0.000    0.000    0.000    0.000 
#
# Total GULP energy -223057.100795 kJ/mol
# GULP energy per Si atom -5576.427520 kJ/mol
# Density = 2.065237 g / cm^3
# Si number density = 20.699487 Si / 1000 Ang^3
#
#
#
# Elastic Constant Matrix: (Units=GPa)
#
#
# Indices 1 2 3 4 5 6 
#
# 1 133.9894 33.8093 27.4673 0.0000 0.0000 0.0000
# 2 33.8093 133.9894 27.4673 0.0000 0.0000 0.0000
# 3 27.4673 27.4673 65.3037 0.0000 0.0000 0.0000
# 4 0.0000 0.0000 0.0000 25.8869 0.0000 0.0000
# 5 0.0000 0.0000 0.0000 0.0000 25.8869 0.0000
# 6 0.0000 0.0000 0.0000 0.0000 0.0000 27.2283
#
#
#
# Elastic Compliance Matrix: (Units=1/GPa)
#
#
# Indices 1 2 3 4 5 6 
#
# 1 0.008447 -0.001535 -0.002907 0.000000 0.000000 0.000000
# 2 -0.001535 0.008447 -0.002907 0.000000 0.000000 0.000000
# 3 -0.002907 -0.002907 0.017758 0.000000 0.000000 0.000000
# 4 0.000000 0.000000 0.000000 0.038630 0.000000 0.000000
# 5 0.000000 0.000000 0.000000 0.000000 0.038630 0.000000
# 6 0.000000 0.000000 0.000000 0.000000 0.000000 0.036727
#
#
# Mechanical properties :
#
#
# Convention : Reuss Voigt Hill
#
# Bulk Modulus (GPa) = 50.11737 56.75227 53.43482
# Shear Modulus (GPa) = 29.41402 32.10296 30.75849
#
# Velocity S-wave (km/s) = 3.77371 3.94243 3.85899
# Velocity P-wave (km/s) = 6.57665 6.94265 6.76213
#
# Compressibility (1/GPa) = 0.01995316
#
# Stress axis : x y z
#
# Youngs Moduli (GPa) = 118.39064 118.39064 56.31132
#
# Poissons Ratio (x) = 0.18178 0.16369
# Poissons Ratio (y) = 0.18178 0.16369
# Poissons Ratio (z) = 0.34415 0.34415
#
# Static dielectric constant tensor:
#      x y z
#    x 1.779210 0.000000 0.000000 
#    y 0.000000 1.779210 0.000000 
#    z 0.000000 0.000000 1.816580 
# 
# From -- ./inp_files/4854.got.cif
#   From: 2010.05.17/outbox.cif.g08.bks.cpg/sg95_3_cif.got.tgz:4854.got - 2010.06.03 19:46:49.
