data_PCOD9550688
_publ_section_title
;
Structure prediction by ZEFSAII (Michael W. Deem and Ramdas Pophale) SiO2 
 PCOD9550688
Probable space group: P 43 2 2
;
_chemical_formula_sum "Si O2"
_cell_formula_units_Z 40
_cell_length_a 18.545571
_cell_length_b 18.545571
_cell_length_c 4.948097
_cell_angle_alpha 90.000000
_cell_angle_beta 90.000000
_cell_angle_gamma 90.000000
_cell_volume 1701.839594
_symmetry_space_group_name_H-M "P 43 2 2"
_symmetry_group_IT_number 95
_symmetry_cell_setting 'tetragonal'
loop_
_space_group_symop_operation_xyz
x,y,z
-y,x,3/4+z
-x,-y,1/2+z
y,-x,1/4+z
x,-y,1/2-z
-x,y,-z
y,x,1/4-z
-y,-x,3/4-z
loop_
_atom_site_type_symbol
_atom_site_label
_atom_site_fract_x
_atom_site_fract_y
_atom_site_fract_z
Si Si1 0.366150 0.633851 0.375000
Si Si2 0.500000 0.610489 0.000000
Si Si3 0.210952 0.789049 0.875000
Si Si4 0.417278 0.780370 0.562313
Si Si5 0.000000 0.314472 0.500000
Si Si6 0.362504 0.145119 0.455378
Si Si7 0.145455 0.854546 0.375000
Si Si8 0.000000 0.209176 0.000000
O O1 0.356832 0.556466 0.531658
O O2 0.369542 0.706987 0.550191
O O3 0.442222 0.557779 0.875000
O O4 0.187096 0.712711 0.753503
O O5 0.200215 0.841218 0.619553
O O6 0.500000 0.767291 0.500000
O O7 0.416883 0.809995 0.863292
O O8 0.384779 0.840501 0.354693
O O9 0.933661 0.357124 0.351239
O O10 0.017252 0.261012 0.251382
O O11 0.069534 0.840987 0.518904
#
# Coordination Sequence:
#
# PCOD9550688 Si02
#       8
#     4   4   4   8   4   8   4   4
#     4  12  28  45  76 103 154 203 246 303 382 454
#     4  12  22  42  66 108 140 194 252 282 338 456
#     4  12  22  42  71 111 140 183 249 306 360 432
#     4  12  28  49  72 109 151 189 242 312 385 450
#     4  12  24  46  77 105 140 192 254 310 376 454
#     4  12  25  47  75 109 143 188 249 312 378 446
#     4  12  22  39  67 106 154 192 235 301 356 430
#     4  12  22  42  67 109 150 198 238 292 366 440
#
# _framework density 23.503976999999999
#
# number of rings (size 3 to 8) (size 9 to 14) (size 15 to 20)
#    0.000    0.000    5.000    5.400    5.600    0.000 
#    0.000    4.000    0.000    0.000    0.000    0.000 
#    0.000    0.000    0.000    0.000    0.000    0.000 
#
# Total GULP energy -223008.404373 kJ/mol
# GULP energy per Si atom -5575.210109 kJ/mol
# Density = 2.345048 g / cm^3
# Si number density = 23.503977 Si / 1000 Ang^3
#
#
#
# Elastic Constant Matrix: (Units=GPa)
#
#
# Indices 1 2 3 4 5 6 
#
# 1 57.4312 58.0239 12.3133 0.0000 0.0000 0.0000
# 2 58.0239 57.4335 12.3114 0.0000 0.0000 0.0000
# 3 12.3133 12.3114 103.4284 0.0000 0.0000 0.0000
# 4 0.0000 0.0000 0.0000 38.7558 0.0000 0.0000
# 5 0.0000 0.0000 0.0000 0.0000 38.7571 0.0000
# 6 0.0000 0.0000 0.0000 0.0000 0.0000 31.5915
#
#
#
# Elastic Compliance Matrix: (Units=1/GPa)
#
#
# Indices 1 2 3 4 5 6 
#
# 1 -0.840823 0.849689 -0.001039 0.000000 0.000000 0.000000
# 2 0.849689 -0.840782 -0.001076 0.000000 0.000000 0.000000
# 3 -0.001039 -0.001076 0.009920 0.000000 0.000000 0.000000
# 4 0.000000 0.000000 0.000000 0.025803 0.000000 0.000000
# 5 0.000000 0.000000 0.000000 0.000000 0.025802 0.000000
# 6 0.000000 0.000000 0.000000 0.000000 0.000000 0.031654
#
#
# Mechanical properties :
#
#
# Convention : Reuss Voigt Hill
#
# Bulk Modulus (GPa) = 42.62108 42.62115 42.62111
# Shear Modulus (GPa) = -1.52637 30.86384 14.66874
#
# Velocity S-wave (km/s) = -0.80673 3.62765 2.50090
# Velocity P-wave (km/s) = 4.15995 5.97657 5.14901
#
# Compressibility (1/GPa) = 0.02346257
#
# Stress axis : x y z
#
# Youngs Moduli (GPa) = -1.18931 -1.18937 100.80242
#
# Poissons Ratio (x) = 1.01059 0.10477
# Poissons Ratio (y) = 1.01054 0.10851
# Poissons Ratio (z) = -0.00124 -0.00128
#
# Static dielectric constant tensor:
#      x y z
#    x 1.903110 0.000000 0.000000 
#    y 0.000000 1.903110 0.000000 
#    z 0.000000 0.000000 1.811860 
# 
# From -- ./inp_files/943.got.cif
#   From: 2010.05.17/outbox.cif.g08.bks.cpg/sg95_1_cif.got.tgz:943.got - 2010.06.03 19:46:49.
