data_PCOD9550660
_publ_section_title
;
Structure prediction by ZEFSAII (Michael W. Deem and Ramdas Pophale) SiO2 
 PCOD9550660
Probable space group: P 43 2 2
;
_chemical_formula_sum "Si O2"
_cell_formula_units_Z 20
_cell_length_a 7.438011
_cell_length_b 7.438011
_cell_length_c 15.091123
_cell_angle_alpha 90.000000
_cell_angle_beta 90.000000
_cell_angle_gamma 90.000000
_cell_volume 834.901404
_symmetry_space_group_name_H-M "P 43 2 2"
_symmetry_group_IT_number 95
_symmetry_cell_setting 'tetragonal'
loop_
_space_group_symop_operation_xyz
x,y,z
-y,x,3/4+z
-x,-y,1/2+z
y,-x,1/4+z
x,-y,1/2-z
-x,y,-z
y,x,1/4-z
-y,-x,3/4-z
loop_
_atom_site_type_symbol
_atom_site_label
_atom_site_fract_x
_atom_site_fract_y
_atom_site_fract_z
Si Si1 0.785450 0.041479 0.516050
Si Si2 0.676430 0.676430 0.125000
Si Si3 0.814945 0.662942 0.455343
O O1 0.686000 0.150044 0.438650
O O2 0.743084 0.127865 0.610118
O O3 0.000000 0.054158 0.500000
O O4 0.740574 0.830330 0.511161
O O5 0.502494 0.686691 0.186247
O O6 0.000000 0.595852 0.500000
#
# Coordination Sequence:
#
# PCOD9550660 Si02
#       3
#     8   4   8
#     4  11  21  46  77 100 142 191 233 296 357 424
#     4  12  24  44  74 104 146 188 234 294 366 422
#     4  11  24  43  77 106 140 191 238 292 362 429
#
# _framework density 23.954923999999998
#
# number of rings (size 3 to 8) (size 9 to 14) (size 15 to 20)
#    0.000    0.800    4.000    6.000    0.000    0.000 
#    0.000    8.000    0.000    0.000    0.000    0.000 
#    0.000    0.000    0.000    0.000    0.000    0.000 
#
# Total GULP energy -112158.323244 kJ/mol
# GULP energy per Si atom -5607.916162 kJ/mol
# Density = 2.390040 g / cm^3
# Si number density = 23.954924 Si / 1000 Ang^3
#
#
#
# Elastic Constant Matrix: (Units=GPa)
#
#
# Indices 1 2 3 4 5 6 
#
# 1 76.6085 42.9154 -10.3212 0.0000 0.0000 0.0000
# 2 42.9154 76.6085 -10.3212 0.0000 0.0000 0.0000
# 3 -10.3212 -10.3212 56.5139 0.0000 0.0000 0.0000
# 4 0.0000 0.0000 0.0000 32.2697 0.0000 0.0000
# 5 0.0000 0.0000 0.0000 0.0000 32.2697 0.0000
# 6 0.0000 0.0000 0.0000 0.0000 0.0000 -5.8509
#
#
#
# Elastic Compliance Matrix: (Units=1/GPa)
#
#
# Indices 1 2 3 4 5 6 
#
# 1 0.019159 -0.010520 0.001578 0.000000 0.000000 0.000000
# 2 -0.010520 0.019159 0.001578 0.000000 0.000000 0.000000
# 3 0.001578 0.001578 0.018271 0.000000 0.000000 0.000000
# 4 0.000000 0.000000 0.000000 0.030989 0.000000 0.000000
# 5 0.000000 0.000000 0.000000 0.000000 0.030989 0.000000
# 6 0.000000 0.000000 0.000000 0.000000 0.000000 -0.170914
#
#
# Mechanical properties :
#
#
# Convention : Reuss Voigt Hill
#
# Bulk Modulus (GPa) = 23.88909 28.25298 26.07103
# Shear Modulus (GPa) = -211.29263 24.23491 -93.52886
#
# Velocity S-wave (km/s) = -9.40190 3.18415 -6.25527
# Velocity P-wave (km/s) = 10.38590 5.03372 6.42373
#
# Compressibility (1/GPa) = 0.04186012
#
# Stress axis : x y z
#
# Youngs Moduli (GPa) = 52.19387 52.19387 54.73135
#
# Poissons Ratio (x) = 0.54910 -0.08635
# Poissons Ratio (y) = 0.54910 -0.08635
# Poissons Ratio (z) = -0.08235 -0.08235
#
# Static dielectric constant tensor:
#      x y z
#    x 1.936260 0.000000 0.000000 
#    y 0.000000 1.936260 0.000000 
#    z 0.000000 0.000000 1.887300 
# 
# From -- ./inp_files/4126.got.cif
#   From: 2010.05.17/outbox.cif.g08.bks.cpg/sg95_3_cif.got.tgz:4126.got - 2010.06.03 19:46:49.
