data_PCOD9550029
_publ_section_title
;
Structure prediction by ZEFSAII (Michael W. Deem and Ramdas Pophale) SiO2 
 PCOD9550029
Probable space group: P 42 21 2
;
_chemical_formula_sum "Si O2"
_cell_formula_units_Z 54
_cell_length_a 11.552734
_cell_length_b 11.552734
_cell_length_c 21.295834
_cell_angle_alpha 90.000000
_cell_angle_beta 90.000000
_cell_angle_gamma 90.000000
_cell_volume 2842.262601
_symmetry_space_group_name_H-M "P 42 21 2"
_symmetry_group_IT_number 94
_symmetry_cell_setting 'tetragonal'
loop_
_space_group_symop_operation_xyz
x,y,z
1/2-y,1/2+x,1/2+z
-x,-y,z
1/2+y,1/2-x,1/2+z
1/2+x,1/2-y,1/2-z
1/2-x,1/2+y,1/2-z
y,x,-z
-y,-x,-z
loop_
_atom_site_type_symbol
_atom_site_label
_atom_site_fract_x
_atom_site_fract_y
_atom_site_fract_z
Si Si1 0.120155 0.428646 0.896383
Si Si2 0.500000 0.000000 0.760454
Si Si3 0.245251 0.932739 0.226105
Si Si4 0.596265 0.406336 0.185817
Si Si5 0.736870 0.363958 0.937751
Si Si6 0.527194 0.723970 0.582337
Si Si7 0.000000 0.000000 0.000000
Si Si8 0.769628 0.580820 0.758281
O O1 0.209690 0.506949 0.934504
O O2 0.174208 0.404025 0.827781
O O3 0.000000 0.500000 0.888634
O O4 0.077435 0.313036 0.929153
O O5 0.555888 0.884020 0.728884
O O6 0.378742 0.947563 0.786952
O O7 0.204887 0.967550 0.156939
O O8 0.192138 0.806207 0.240103
O O9 0.190718 0.021186 0.276075
O O10 0.500000 0.500000 0.163618
O O11 0.645584 0.337490 0.126196
O O12 0.525931 0.319288 0.231920
O O13 0.849279 0.281162 0.934786
O O14 0.665476 0.334525 0.000000
O O15 0.504854 0.610549 0.544016
#
# Coordination Sequence:
#
# PCOD9550029 Si02
#       8
#     8   4   8   8   8   8   2   8
#     4   9  17  37  67  89 118 167 220 257 315 390
#     4  12  22  36  62  96 122 168 212 258 320 394
#     4  11  24  39  66  93 135 168 213 270 335 388
#     4   9  21  39  62  97 130 161 211 268 324 388
#     4  10  20  39  68  92 123 170 217 265 324 387
#     4  11  23  41  62  88 125 177 212 261 315 392
#     4  12  28  44  60  96 128 160 230 260 320 388
#     4  10  20  37  60  95 122 165 211 259 317 388
#
# _framework density 18.998947999999999
#
# number of rings (size 3 to 8) (size 9 to 14) (size 15 to 20)
#    0.000    1.778    2.963    1.778    7.259    0.296 
#    0.000    4.444    4.889    0.000    0.000    0.000 
#    0.000    0.000    0.000    0.000    0.000    0.000 
#
# Total GULP energy -301059.306349 kJ/mol
# GULP energy per Si atom -5575.172340 kJ/mol
# Density = 1.895571 g / cm^3
# Si number density = 18.998948 Si / 1000 Ang^3
#
#
#
# Elastic Constant Matrix: (Units=GPa)
#
#
# Indices 1 2 3 4 5 6 
#
# 1 117.6856 70.3568 47.3538 0.0000 0.0000 0.0000
# 2 70.3568 117.6853 47.3540 0.0000 0.0000 0.0000
# 3 47.3538 47.3540 80.7061 0.0000 0.0000 0.0000
# 4 0.0000 0.0000 0.0000 22.0989 0.0000 0.0000
# 5 0.0000 0.0000 0.0000 0.0000 22.0989 0.0000
# 6 0.0000 0.0000 0.0000 0.0000 0.0000 32.0491
#
#
#
# Elastic Compliance Matrix: (Units=1/GPa)
#
#
# Indices 1 2 3 4 5 6 
#
# 1 0.014339 -0.006790 -0.004429 0.000000 0.000000 0.000000
# 2 -0.006790 0.014339 -0.004429 0.000000 0.000000 0.000000
# 3 -0.004429 -0.004429 0.017588 0.000000 0.000000 0.000000
# 4 0.000000 0.000000 0.000000 0.045251 0.000000 0.000000
# 5 0.000000 0.000000 0.000000 0.000000 0.045251 0.000000
# 6 0.000000 0.000000 0.000000 0.000000 0.000000 0.031202
#
#
# Mechanical properties :
#
#
# Convention : Reuss Voigt Hill
#
# Bulk Modulus (GPa) = 66.80488 71.80070 69.30279
# Shear Modulus (GPa) = 24.47900 25.31686 24.89793
#
# Velocity S-wave (km/s) = 3.59338 3.65436 3.62400
# Velocity P-wave (km/s) = 7.24260 7.46189 7.35306
#
# Compressibility (1/GPa) = 0.01496897
#
# Stress axis : x y z
#
# Youngs Moduli (GPa) = 69.74111 69.74072 56.85622
#
# Poissons Ratio (x) = 0.47354 0.25182
# Poissons Ratio (y) = 0.47355 0.25183
# Poissons Ratio (z) = 0.30889 0.30890
#
# Static dielectric constant tensor:
#      x y z
#    x 1.694510 0.000000 0.000000 
#    y 0.000000 1.694510 0.000000 
#    z 0.000000 0.000000 1.625920 
# 
# From -- ./inp_files/4775.got.cif
#   From: 2010.05.17/outbox.cif.g08.bks.cpg/sg94_3_cif.got.tgz:4775.got - 2010.06.03 19:43:16.
