data_PCOD9550079
_publ_section_title
;
Structure prediction by ZEFSAII (Michael W. Deem and Ramdas Pophale) SiO2 
 PCOD9550079
Probable space group: P 42 21 2
;
_chemical_formula_sum "Si O2"
_cell_formula_units_Z 58
_cell_length_a 17.428299
_cell_length_b 17.428299
_cell_length_c 9.438740
_cell_angle_alpha 90.000000
_cell_angle_beta 90.000000
_cell_angle_gamma 90.000000
_cell_volume 2866.975801
_symmetry_space_group_name_H-M "P 42 21 2"
_symmetry_group_IT_number 94
_symmetry_cell_setting 'tetragonal'
loop_
_space_group_symop_operation_xyz
x,y,z
1/2-y,1/2+x,1/2+z
-x,-y,z
1/2+y,1/2-x,1/2+z
1/2+x,1/2-y,1/2-z
1/2-x,1/2+y,1/2-z
y,x,-z
-y,-x,-z
loop_
_atom_site_type_symbol
_atom_site_label
_atom_site_fract_x
_atom_site_fract_y
_atom_site_fract_z
Si Si1 0.189859 0.926354 0.563347
Si Si2 0.677266 0.151832 0.744517
Si Si3 0.559175 0.069100 0.528598
Si Si4 0.843904 0.976607 0.829395
Si Si5 0.705533 0.050902 0.996533
Si Si6 0.000000 0.000000 0.000000
Si Si7 0.191161 0.228017 0.159677
Si Si8 0.914026 0.308560 0.676611
O O1 0.118974 0.881027 0.500000
O O2 0.244610 0.873070 0.662185
O O3 0.241631 0.943184 0.426833
O O4 0.164272 0.992467 0.669626
O O5 0.611202 0.105663 0.656365
O O6 0.680956 0.124044 0.905220
O O7 0.681295 0.243442 0.743575
O O8 0.511094 0.140028 0.469784
O O9 0.616471 0.049955 0.398964
O O10 0.500000 0.000000 0.565470
O O11 0.814914 0.889395 0.828037
O O12 0.784345 0.021323 0.931103
O O13 0.926245 0.992980 0.897645
O O14 0.706513 0.062228 0.163552
O O15 0.185737 0.320353 0.181493
O O16 0.219236 0.219236 0.000000
#
# Coordination Sequence:
#
# PCOD9550079 Si02
#       8
#     8   8   8   8   8   2   8   8
#     4  10  20  43  71  99 134 177 227 292 351 424
#     4  10  22  42  72  99 138 189 234 279 345 428
#     4  11  25  42  64  99 149 193 225 276 353 432
#     4  11  26  45  74 100 140 183 247 299 371 427
#     4  11  26  40  69 109 142 178 237 296 348 428
#     4  12  28  44  74 100 132 192 242 328 364 424
#     4  12  19  46  76  96 134 191 236 286 357 427
#     4  11  23  41  74 102 140 192 225 286 360 426
#
# _framework density 20.230376
#
# number of rings (size 3 to 8) (size 9 to 14) (size 15 to 20)
#    0.000    1.103    6.207    0.000    5.793    1.655 
#    0.000    0.345    6.069    0.000    0.000    0.000 
#    0.000    0.000    0.000    0.000    0.000    0.000 
#
# Total GULP energy -323695.859067 kJ/mol
# GULP energy per Si atom -5580.963087 kJ/mol
# Density = 2.018433 g / cm^3
# Si number density = 20.230376 Si / 1000 Ang^3
#
#
#
# Elastic Constant Matrix: (Units=GPa)
#
#
# Indices 1 2 3 4 5 6 
#
# 1 98.9443 49.5346 36.4185 0.0000 0.0000 0.0000
# 2 49.5346 98.9441 36.4192 0.0000 0.0000 0.0000
# 3 36.4185 36.4192 130.0086 0.0000 0.0000 0.0000
# 4 0.0000 0.0000 0.0000 -0.1900 0.0000 0.0000
# 5 0.0000 0.0000 0.0000 0.0000 -0.1890 0.0000
# 6 0.0000 0.0000 0.0000 0.0000 0.0000 16.7900
#
#
#
# Elastic Compliance Matrix: (Units=1/GPa)
#
#
# Indices 1 2 3 4 5 6 
#
# 1 0.014023 -0.006216 -0.002187 0.000000 0.000000 0.000000
# 2 -0.006216 0.014024 -0.002187 0.000000 0.000000 0.000000
# 3 -0.002187 -0.002187 0.008917 0.000000 0.000000 0.000000
# 4 0.000000 0.000000 0.000000 -5.262902 0.000000 0.000000
# 5 0.000000 0.000000 0.000000 0.000000 -5.289830 0.000000
# 6 0.000000 0.000000 0.000000 0.000000 0.000000 0.059559
#
#
# Mechanical properties :
#
#
# Convention : Reuss Voigt Hill
#
# Bulk Modulus (GPa) = 63.35447 63.62686 63.49066
# Shear Modulus (GPa) = -0.47940 16.98383 8.25222
#
# Velocity S-wave (km/s) = -0.48732 2.90059 2.02187
# Velocity P-wave (km/s) = 5.57385 6.53738 6.07475
#
# Compressibility (1/GPa) = 0.01578421
#
# Stress axis : x y z
#
# Youngs Moduli (GPa) = 71.30934 71.30882 112.14297
#
# Poissons Ratio (x) = 0.44322 0.24527
# Poissons Ratio (y) = 0.44323 0.24529
# Poissons Ratio (z) = 0.15596 0.15597
#
# Static dielectric constant tensor:
#      x y z
#    x 1.734800 0.000000 0.000000 
#    y 0.000000 1.734790 0.000000 
#    z 0.000000 0.000000 1.713270 
# 
# From -- ./inp_files/1728.got.cif
#   From: 2010.05.17/outbox.cif.g08.bks.cpg/sg94_1_cif.got.tgz:1728.got - 2010.06.03 19:43:16.
