data_PCOD9550762
_publ_section_title
;
Structure prediction by ZEFSAII (Michael W. Deem and Ramdas Pophale) SiO2 
 PCOD9550762
Probable space group: P 43 21 2
;
_chemical_formula_sum "Si O2"
_cell_formula_units_Z 48
_cell_length_a 23.721067
_cell_length_b 23.721067
_cell_length_c 5.213049
_cell_angle_alpha 90.000000
_cell_angle_beta 90.000000
_cell_angle_gamma 90.000000
_cell_volume 2933.325431
_symmetry_space_group_name_H-M "P 43 21 2"
_symmetry_group_IT_number 96
_symmetry_cell_setting 'tetragonal'
loop_
_space_group_symop_operation_xyz
x,y,z
1/2-y,1/2+x,3/4+z
-x,-y,1/2+z
1/2+y,1/2-x,1/4+z
1/2+x,1/2-y,1/4-z
1/2-x,1/2+y,3/4-z
y,x,-z
-y,-x,1/2-z
loop_
_atom_site_type_symbol
_atom_site_label
_atom_site_fract_x
_atom_site_fract_y
_atom_site_fract_z
Si Si1 0.421068 0.829113 0.287173
Si Si2 0.972421 0.577988 0.617587
Si Si3 0.204870 0.704207 0.228157
Si Si4 0.649277 0.739614 0.514734
Si Si5 0.454918 0.206403 0.842301
Si Si6 0.933236 0.366020 0.897954
O O1 0.434950 0.871020 0.525430
O O2 0.363494 0.793714 0.287259
O O3 0.478369 0.792470 0.273542
O O4 0.403449 0.877326 0.080925
O O5 0.937792 0.521996 0.566084
O O6 0.011421 0.595439 0.376672
O O7 0.265256 0.734745 0.250000
O O8 0.166947 0.729849 0.465665
O O9 0.179373 0.724769 0.959132
O O10 0.678586 0.678586 0.500000
O O11 0.583713 0.740670 0.427236
O O12 0.429078 0.174721 0.595701
O O13 0.445388 0.169163 0.096876
#
# Coordination Sequence:
#
# PCOD9550762 Si02
#       6
#     8   8   8   8   8   8
#     4  11  20  32  51  67  99 123 171 210 244 293
#     4  11  22  33  45  66  98 141 177 209 246 281
#     4  10  21  35  54  70  92 127 165 210 253 295
#     4  10  19  36  53  70  92 122 166 206 248 296
#     4  11  21  32  49  73  91 128 162 208 249 286
#     4  11  21  34  46  66  97 128 170 201 243 278
#
# _framework density 16.363679999999999
#
# number of rings (size 3 to 8) (size 9 to 14) (size 15 to 20)
#    0.000    1.333    3.333    4.000    0.000    4.000 
#    0.000    0.000    0.000    0.000    0.000    0.000 
#    0.000    0.000    0.000   12.000    0.000    0.000 
#
# Total GULP energy -267237.059637 kJ/mol
# GULP energy per Si atom -5567.438742 kJ/mol
# Density = 1.632644 g / cm^3
# Si number density = 16.363680 Si / 1000 Ang^3
#
#
#
# Elastic Constant Matrix: (Units=GPa)
#
#
# Indices 1 2 3 4 5 6 
#
# 1 69.2441 48.2221 5.7076 0.0000 0.0000 0.0000
# 2 48.2221 69.2432 5.7079 0.0000 0.0000 0.0000
# 3 5.7076 5.7079 83.6947 0.0000 0.0000 0.0000
# 4 0.0000 0.0000 0.0000 19.7613 0.0000 0.0000
# 5 0.0000 0.0000 0.0000 0.0000 19.7611 0.0000
# 6 0.0000 0.0000 0.0000 0.0000 0.0000 17.3662
#
#
#
# Elastic Compliance Matrix: (Units=1/GPa)
#
#
# Indices 1 2 3 4 5 6 
#
# 1 0.028070 -0.019500 -0.000584 0.000000 0.000000 0.000000
# 2 -0.019500 0.028070 -0.000585 0.000000 0.000000 0.000000
# 3 -0.000584 -0.000585 0.012028 0.000000 0.000000 0.000000
# 4 0.000000 0.000000 0.000000 0.050604 0.000000 0.000000
# 5 0.000000 0.000000 0.000000 0.000000 0.050604 0.000000
# 6 0.000000 0.000000 0.000000 0.000000 0.000000 0.057583
#
#
# Mechanical properties :
#
#
# Convention : Reuss Voigt Hill
#
# Bulk Modulus (GPa) = 37.27177 37.93968 37.60572
# Shear Modulus (GPa) = 18.03484 22.21401 20.12443
#
# Velocity S-wave (km/s) = 3.32343 3.68845 3.51069
# Velocity P-wave (km/s) = 6.12809 6.43235 6.28206
#
# Compressibility (1/GPa) = 0.02682996
#
# Stress axis : x y z
#
# Youngs Moduli (GPa) = 35.62534 35.62488 83.14005
#
# Poissons Ratio (x) = 0.69469 0.04858
# Poissons Ratio (y) = 0.69470 0.04860
# Poissons Ratio (z) = 0.02082 0.02082
#
# Static dielectric constant tensor:
#      x y z
#    x 1.623260 0.000000 0.000000 
#    y 0.000000 1.623260 0.000000 
#    z 0.000000 0.000000 1.639010 
# 
# From -- ./inp_files/775.got.cif
#   From: 2010.05.17/outbox.cif.g08.bks.cpg/sg96_1_cif.got.tgz:775.got - 2010.06.03 19:52:08.
