data_PCOD9550165
_publ_section_title
;
Structure prediction by ZEFSAII (Michael W. Deem and Ramdas Pophale) SiO2 
 PCOD9550165
Probable space group: P 42 21 2
;
_chemical_formula_sum "Si O2"
_cell_formula_units_Z 48
_cell_length_a 19.182093
_cell_length_b 19.182093
_cell_length_c 5.363033
_cell_angle_alpha 90.000000
_cell_angle_beta 90.000000
_cell_angle_gamma 90.000000
_cell_volume 1973.342429
_symmetry_space_group_name_H-M "P 42 21 2"
_symmetry_group_IT_number 94
_symmetry_cell_setting 'tetragonal'
loop_
_space_group_symop_operation_xyz
x,y,z
1/2-y,1/2+x,1/2+z
-x,-y,z
1/2+y,1/2-x,1/2+z
1/2+x,1/2-y,1/2-z
1/2-x,1/2+y,1/2-z
y,x,-z
-y,-x,-z
loop_
_atom_site_type_symbol
_atom_site_label
_atom_site_fract_x
_atom_site_fract_y
_atom_site_fract_z
Si Si1 0.813568 0.955737 0.050978
Si Si2 0.621957 0.136308 0.166273
Si Si3 0.014473 0.671607 0.089056
Si Si4 0.235710 0.380788 0.961022
Si Si5 0.980211 0.131471 0.455837
Si Si6 0.254688 0.168182 0.302852
O O1 0.854427 0.972567 0.303089
O O2 0.781925 0.878331 0.089464
O O3 0.746626 0.006777 0.041687
O O4 0.855700 0.975671 0.799104
O O5 0.563004 0.147878 0.364746
O O6 0.699562 0.139792 0.279779
O O7 0.616644 0.059742 0.057637
O O8 0.615504 0.196434 0.961100
O O9 0.059320 0.686949 0.337429
O O10 0.310234 0.417873 0.958959
O O11 0.224986 0.310059 0.800792
O O12 0.941540 0.058461 0.500000
O O13 0.201806 0.201806 0.500000
#
# Coordination Sequence:
#
# PCOD9550165 Si02
#       6
#     8   8   8   8   8   8
#     4  11  22  44  66  98 138 188 226 287 369 432
#     4  11  22  41  64  90 137 182 244 288 352 414
#     4  10  22  39  64  86 132 190 230 285 344 408
#     4  10  22  38  62  95 136 180 226 297 348 415
#     4  11  24  41  70 101 138 181 238 290 357 427
#     4  11  25  40  67 101 138 183 231 296 367 438
#
# _framework density 24.324211999999999
#
# number of rings (size 3 to 8) (size 9 to 14) (size 15 to 20)
#    0.000    1.333    3.333    2.500    2.333    0.000 
#    0.000    2.500    0.000    0.500    0.000    4.667 
#    0.000    0.000    0.000    0.000    0.000    0.000 
#
# Total GULP energy -268436.400709 kJ/mol
# GULP energy per Si atom -5592.425015 kJ/mol
# Density = 2.426885 g / cm^3
# Si number density = 24.324212 Si / 1000 Ang^3
#
#
#
# Elastic Constant Matrix: (Units=GPa)
#
#
# Indices 1 2 3 4 5 6 
#
# 1 110.4594 47.2526 43.6476 0.0000 0.0000 0.0000
# 2 47.2526 110.4593 43.6476 0.0000 0.0000 0.0000
# 3 43.6476 43.6476 130.7072 0.0000 0.0000 0.0000
# 4 0.0000 0.0000 0.0000 37.7621 0.0000 0.0000
# 5 0.0000 0.0000 0.0000 0.0000 37.7631 0.0000
# 6 0.0000 0.0000 0.0000 0.0000 0.0000 41.9064
#
#
#
# Elastic Compliance Matrix: (Units=1/GPa)
#
#
# Indices 1 2 3 4 5 6 
#
# 1 0.011800 -0.004021 -0.002597 0.000000 0.000000 0.000000
# 2 -0.004021 0.011800 -0.002597 0.000000 0.000000 0.000000
# 3 -0.002597 -0.002597 0.009385 0.000000 0.000000 0.000000
# 4 0.000000 0.000000 0.000000 0.026482 0.000000 0.000000
# 5 0.000000 0.000000 0.000000 0.000000 0.026481 0.000000
# 6 0.000000 0.000000 0.000000 0.000000 0.000000 0.023863
#
#
# Mechanical properties :
#
#
# Convention : Reuss Voigt Hill
#
# Bulk Modulus (GPa) = 68.71733 68.96904 68.84319
# Shear Modulus (GPa) = 37.56757 37.95818 37.76288
#
# Velocity S-wave (km/s) = 3.93421 3.95462 3.94443
# Velocity P-wave (km/s) = 6.99638 7.01909 7.00774
#
# Compressibility (1/GPa) = 0.01455237
#
# Stress axis : x y z
#
# Youngs Moduli (GPa) = 84.74760 84.74752 106.54779
#
# Poissons Ratio (x) = 0.34080 0.27676
# Poissons Ratio (y) = 0.34080 0.27675
# Poissons Ratio (z) = 0.22013 0.22013
#
# Static dielectric constant tensor:
#      x y z
#    x 1.936370 0.000000 0.000000 
#    y 0.000000 1.936370 0.000000 
#    z 0.000000 0.000000 1.955340 
# 
# From -- ./inp_files/527.got.cif
#   From: 2010.05.17/outbox.cif.g08.bks.cpg/sg94_1_cif.got.tgz:527.got - 2010.06.03 19:43:16.
