data_PCOD9550533
_publ_section_title
;
Structure prediction by ZEFSAII (Michael W. Deem and Ramdas Pophale) SiO2 
 PCOD9550533
Probable space group: P 43 2 2
;
_chemical_formula_sum "Si O2"
_cell_formula_units_Z 60
_cell_length_a 18.494333
_cell_length_b 18.494333
_cell_length_c 8.031734
_cell_angle_alpha 90.000000
_cell_angle_beta 90.000000
_cell_angle_gamma 90.000000
_cell_volume 2747.177133
_symmetry_space_group_name_H-M "P 43 2 2"
_symmetry_group_IT_number 95
_symmetry_cell_setting 'tetragonal'
loop_
_space_group_symop_operation_xyz
x,y,z
-y,x,3/4+z
-x,-y,1/2+z
y,-x,1/4+z
x,-y,1/2-z
-x,y,-z
y,x,1/4-z
-y,-x,3/4-z
loop_
_atom_site_type_symbol
_atom_site_label
_atom_site_fract_x
_atom_site_fract_y
_atom_site_fract_z
Si Si1 0.000000 0.310428 0.500000
Si Si2 0.381253 0.253060 0.947212
Si Si3 0.095472 0.664385 0.274889
Si Si4 0.483769 0.236419 0.272789
Si Si5 0.861285 0.251781 0.299234
Si Si6 0.525490 0.920036 0.690944
Si Si7 0.189039 0.920438 0.295255
Si Si8 0.726093 0.350499 0.223998
O O1 0.965000 0.357986 0.643821
O O2 0.931217 0.269145 0.415383
O O3 0.345182 0.173670 0.943075
O O4 0.440295 0.265045 0.800052
O O5 0.315295 0.308666 0.926788
O O6 0.428885 0.249773 0.115278
O O7 0.088044 0.612607 0.432523
O O8 0.078234 0.745684 0.323225
O O9 0.498631 0.150378 0.291853
O O10 0.434024 0.265990 0.422920
O O11 0.811106 0.188895 0.375000
O O12 0.805430 0.318090 0.265940
O O13 0.887313 0.223208 0.121156
O O14 0.500000 0.907439 0.500000
O O15 0.508197 0.000000 0.750000
O O16 0.127308 0.872693 0.375000
O O17 0.163373 0.000000 0.250000
O O18 0.675009 0.324992 0.375000
#
# Coordination Sequence:
#
# PCOD9550533 Si02
#       8
#     4   8   8   8   8   8   8   8
#     4  12  24  38  62  94 126 166 212 276 332 408
#     4  10  20  41  65  95 131 176 225 274 334 409
#     4  11  22  39  63  90 127 170 221 276 333 411
#     4  10  21  41  64  93 133 179 230 273 339 415
#     4  11  24  42  64  94 126 169 221 280 346 411
#     4  11  23  40  57  91 134 183 227 275 338 416
#     4  12  24  43  67  94 120 165 222 287 357 415
#     4  11  23  39  63  98 133 172 224 281 340 400
#
# _framework density 21.840599999999998
#
# number of rings (size 3 to 8) (size 9 to 14) (size 15 to 20)
#    0.000    1.067    4.000    5.600    2.800    0.533 
#    2.400    0.667    0.000    0.000    0.000    7.467 
#    0.000    0.000    0.000    0.000    0.000    0.000 
#
# Total GULP energy -335166.601448 kJ/mol
# GULP energy per Si atom -5586.110024 kJ/mol
# Density = 2.179089 g / cm^3
# Si number density = 21.840600 Si / 1000 Ang^3
#
#
#
# Elastic Constant Matrix: (Units=GPa)
#
#
# Indices 1 2 3 4 5 6 
#
# 1 120.0923 60.9649 27.5854 0.0000 0.0000 0.0000
# 2 60.9649 120.1002 27.5876 0.0000 0.0000 0.0000
# 3 27.5854 27.5876 86.8185 0.0000 0.0000 0.0000
# 4 0.0000 0.0000 0.0000 36.5493 0.0000 0.0000
# 5 0.0000 0.0000 0.0000 0.0000 36.5486 0.0000
# 6 0.0000 0.0000 0.0000 0.0000 0.0000 -15.4406
#
#
#
# Elastic Compliance Matrix: (Units=1/GPa)
#
#
# Indices 1 2 3 4 5 6 
#
# 1 0.011514 -0.005398 -0.001943 0.000000 0.000000 0.000000
# 2 -0.005398 0.011513 -0.001943 0.000000 0.000000 0.000000
# 3 -0.001943 -0.001943 0.012753 0.000000 0.000000 0.000000
# 4 0.000000 0.000000 0.000000 0.027360 0.000000 0.000000
# 5 0.000000 0.000000 0.000000 0.000000 0.027361 0.000000
# 6 0.000000 0.000000 0.000000 0.000000 0.000000 -0.064764
#
#
# Mechanical properties :
#
#
# Convention : Reuss Voigt Hill
#
# Bulk Modulus (GPa) = 58.10229 62.14296 60.12263
# Shear Modulus (GPa) = 99.91608 25.58968 62.75288
#
# Velocity S-wave (km/s) = 6.77105 3.42666 5.36606
# Velocity P-wave (km/s) = 9.36964 6.64611 8.12284
#
# Compressibility (1/GPa) = 0.01721102
#
# Stress axis : x y z
#
# Youngs Moduli (GPa) = 86.85356 86.85860 78.41234
#
# Poissons Ratio (x) = 0.46888 0.15235
# Poissons Ratio (y) = 0.46885 0.15237
# Poissons Ratio (z) = 0.16875 0.16878
#
# Static dielectric constant tensor:
#      x y z
#    x 1.814320 0.000000 0.000000 
#    y 0.000000 1.814310 0.000000 
#    z 0.000000 0.000000 2.182640 
# 
# From -- ./inp_files/2831.got.cif
#   From: 2010.05.17/outbox.cif.g08.bks.cpg/sg95_2_cif.got.tgz:2831.got - 2010.06.03 19:46:49.
