data_PCOD9550355
_publ_section_title
;
Structure prediction by ZEFSAII (Michael W. Deem and Ramdas Pophale) SiO2 
 PCOD9550355
Probable space group: P 42 21 2
;
_chemical_formula_sum "Si O2"
_cell_formula_units_Z 48
_cell_length_a 9.040311
_cell_length_b 9.040311
_cell_length_c 27.001444
_cell_angle_alpha 90.000000
_cell_angle_beta 90.000000
_cell_angle_gamma 90.000000
_cell_volume 2206.753034
_symmetry_space_group_name_H-M "P 42 21 2"
_symmetry_group_IT_number 94
_symmetry_cell_setting 'tetragonal'
loop_
_space_group_symop_operation_xyz
x,y,z
1/2-y,1/2+x,1/2+z
-x,-y,z
1/2+y,1/2-x,1/2+z
1/2+x,1/2-y,1/2-z
1/2-x,1/2+y,1/2-z
y,x,-z
-y,-x,-z
loop_
_atom_site_type_symbol
_atom_site_label
_atom_site_fract_x
_atom_site_fract_y
_atom_site_fract_z
Si Si1 0.955096 0.332762 0.777967
Si Si2 0.358154 0.781551 0.622110
Si Si3 0.732605 0.371622 0.190618
Si Si4 0.345144 0.555086 0.909359
Si Si5 0.867819 0.196258 0.945142
Si Si6 0.334387 0.000764 0.876358
O O1 0.781981 0.321338 0.786893
O O2 0.000000 0.500000 0.766895
O O3 0.041367 0.294671 0.828832
O O4 0.005024 0.229657 0.732608
O O5 0.268591 0.928226 0.607758
O O6 0.473650 0.738190 0.578371
O O7 0.231107 0.661289 0.632197
O O8 0.642643 0.396796 0.140204
O O9 0.901049 0.348657 0.172388
O O10 0.500000 0.500000 0.932553
O O11 0.244049 0.663972 0.941976
O O12 0.787054 0.078159 0.910182
O O13 0.868273 0.131728 0.000000
O O14 0.500000 0.000000 0.898870
#
# Coordination Sequence:
#
# PCOD9550355 Si02
#       6
#     8   8   8   8   8   8
#     4  12  25  43  64 102 138 188 239 287 342 413
#     4  12  23  45  73  98 141 185 233 293 351 422
#     4  11  26  42  65  97 140 188 237 284 342 417
#     4  11  24  46  70 103 143 182 232 294 362 423
#     4  11  25  47  72 102 135 180 238 293 365 437
#     4  11  25  44  65 101 140 180 228 295 347 418
#
# _framework density 21.751415999999999
#
# number of rings (size 3 to 8) (size 9 to 14) (size 15 to 20)
#    0.000    0.667    5.000    3.500    7.000    3.000 
#    0.000    1.667    0.000    0.000    0.000    0.000 
#    0.000    0.000    0.000    0.000    0.000    0.000 
#
# Total GULP energy -268541.608620 kJ/mol
# GULP energy per Si atom -5594.616846 kJ/mol
# Density = 2.170191 g / cm^3
# Si number density = 21.751416 Si / 1000 Ang^3
#
#
#
# Elastic Constant Matrix: (Units=GPa)
#
#
# Indices 1 2 3 4 5 6 
#
# 1 81.9215 12.6784 7.1621 0.0000 0.0000 0.0000
# 2 12.6784 81.9216 7.1621 0.0000 0.0000 0.0000
# 3 7.1621 7.1621 86.0107 0.0000 0.0000 0.0000
# 4 0.0000 0.0000 0.0000 82.5987 0.0000 0.0000
# 5 0.0000 0.0000 0.0000 0.0000 82.6019 0.0000
# 6 0.0000 0.0000 0.0000 0.0000 0.0000 43.6579
#
#
#
# Elastic Compliance Matrix: (Units=1/GPa)
#
#
# Indices 1 2 3 4 5 6 
#
# 1 0.012574 -0.001868 -0.000891 0.000000 0.000000 0.000000
# 2 -0.001868 0.012574 -0.000891 0.000000 0.000000 0.000000
# 3 -0.000891 -0.000891 0.011775 0.000000 0.000000 0.000000
# 4 0.000000 0.000000 0.000000 0.012107 0.000000 0.000000
# 5 0.000000 0.000000 0.000000 0.000000 0.012106 0.000000
# 6 0.000000 0.000000 0.000000 0.000000 0.000000 0.022905
#
#
# Mechanical properties :
#
#
# Convention : Reuss Voigt Hill
#
# Bulk Modulus (GPa) = 33.76020 33.76211 33.76116
# Shear Modulus (GPa) = 49.39912 56.62847 53.01379
#
# Velocity S-wave (km/s) = 4.77075 5.10793 4.94221
# Velocity P-wave (km/s) = 6.77505 7.09531 6.93703
#
# Compressibility (1/GPa) = 0.02962067
#
# Stress axis : x y z
#
# Youngs Moduli (GPa) = 79.53021 79.53027 84.92627
#
# Poissons Ratio (x) = 0.14856 0.07571
# Poissons Ratio (y) = 0.14856 0.07571
# Poissons Ratio (z) = 0.07090 0.07090
#
# Static dielectric constant tensor:
#      x y z
#    x 1.735450 0.000000 0.000000 
#    y 0.000000 1.735450 0.000000 
#    z 0.000000 0.000000 1.785570 
# 
# From -- ./inp_files/5575.got.cif
#   From: 2010.05.17/outbox.cif.g08.bks.cpg/sg94_3_cif.got.tgz:5575.got - 2010.06.03 19:43:16.
