data_PCOD9550395
_publ_section_title
;
Structure prediction by ZEFSAII (Michael W. Deem and Ramdas Pophale) SiO2 
 PCOD9550395
Probable space group: P 42 21 2
;
_chemical_formula_sum "Si O2"
_cell_formula_units_Z 64
_cell_length_a 12.837195
_cell_length_b 12.837195
_cell_length_c 12.886135
_cell_angle_alpha 90.000000
_cell_angle_beta 90.000000
_cell_angle_gamma 90.000000
_cell_volume 2123.552261
_symmetry_space_group_name_H-M "P 42 21 2"
_symmetry_group_IT_number 94
_symmetry_cell_setting 'tetragonal'
loop_
_space_group_symop_operation_xyz
x,y,z
1/2-y,1/2+x,1/2+z
-x,-y,z
1/2+y,1/2-x,1/2+z
1/2+x,1/2-y,1/2-z
1/2-x,1/2+y,1/2-z
y,x,-z
-y,-x,-z
loop_
_atom_site_type_symbol
_atom_site_label
_atom_site_fract_x
_atom_site_fract_y
_atom_site_fract_z
Si Si1 0.662890 0.864733 0.150966
Si Si2 0.637246 0.432928 0.846969
Si Si3 0.884446 0.436053 0.868540
Si Si4 0.295483 0.106168 0.380785
Si Si5 0.601754 0.333896 0.402075
Si Si6 0.847910 0.123451 0.326760
Si Si7 0.890461 0.595130 0.123696
Si Si8 0.298253 0.360119 0.400993
O O1 0.557330 0.914530 0.106236
O O2 0.687464 0.915011 0.259902
O O3 0.772395 0.847052 0.098074
O O4 0.633284 0.747097 0.177637
O O5 0.757916 0.429143 0.883926
O O6 0.585486 0.328112 0.892327
O O7 0.640002 0.427619 0.718806
O O8 0.591556 0.544204 0.875801
O O9 0.901658 0.429194 0.743065
O O10 0.907058 0.318325 0.909806
O O11 0.300641 0.231620 0.394863
O O12 0.386004 0.026221 0.421413
O O13 0.588286 0.411715 0.500000
O O14 0.570435 0.210065 0.414180
O O15 0.735711 0.109879 0.377968
O O16 0.839532 0.093495 0.205858
O O17 0.370733 0.370733 0.500000
#
# Coordination Sequence:
#
# PCOD9550395 Si02
#       8
#     8   8   8   8   8   8   8   8
#     4   8  15  29  47  64  85 118 155 184 214 261
#     4   8  15  30  48  61  80 116 157 191 221 258
#     4   8  15  29  47  64  85 118 155 184 214 261
#     4   9  17  28  45  69  91 115 153 195 231 273
#     4   9  17  29  45  68  96 123 150 182 229 287
#     4   8  15  30  48  61  80 116 157 191 221 258
#     4   9  17  28  45  69  91 115 153 195 231 273
#     4   9  17  29  45  68  96 123 150 182 229 287
#
# _framework density 30.138182
#
# number of rings (size 3 to 8) (size 9 to 14) (size 15 to 20)
#    0.000    3.500    0.000    3.000    0.000    2.000 
#    0.000    5.000    0.000    0.000    0.000   14.000 
#    0.000    0.000    0.000    0.000    0.000    0.000 
#
# Total GULP energy -357016.552945 kJ/mol
# GULP energy per Si atom -5578.383640 kJ/mol
# Density = 3.006959 g / cm^3
# Si number density = 30.138182 Si / 1000 Ang^3
#
#
#
# Elastic Constant Matrix: (Units=GPa)
#
#
# Indices 1 2 3 4 5 6 
#
# 1 172.1382 28.8858 1.8804 0.0000 0.0000 0.0000
# 2 28.8858 172.1397 1.8809 0.0000 0.0000 0.0000
# 3 1.8804 1.8809 71.6136 0.0000 0.0000 0.0000
# 4 0.0000 0.0000 0.0000 41.6119 0.0000 0.0000
# 5 0.0000 0.0000 0.0000 0.0000 41.6026 0.0000
# 6 0.0000 0.0000 0.0000 0.0000 0.0000 49.2490
#
#
#
# Elastic Compliance Matrix: (Units=1/GPa)
#
#
# Indices 1 2 3 4 5 6 
#
# 1 0.005979 -0.001002 -0.000131 0.000000 0.000000 0.000000
# 2 -0.001002 0.005979 -0.000131 0.000000 0.000000 0.000000
# 3 -0.000131 -0.000131 0.013971 0.000000 0.000000 0.000000
# 4 0.000000 0.000000 0.000000 0.024032 0.000000 0.000000
# 5 0.000000 0.000000 0.000000 0.000000 0.024037 0.000000
# 6 0.000000 0.000000 0.000000 0.000000 0.000000 0.020305
#
#
# Mechanical properties :
#
#
# Convention : Reuss Voigt Hill
#
# Bulk Modulus (GPa) = 42.73176 53.46509 48.09843
# Shear Modulus (GPa) = 47.78792 52.04232 49.91512
#
# Velocity S-wave (km/s) = 3.98631 4.15997 4.07407
# Velocity P-wave (km/s) = 5.94954 6.39158 6.17452
#
# Compressibility (1/GPa) = 0.02340179
#
# Stress axis : x y z
#
# Youngs Moduli (GPa) = 167.25688 167.25823 71.57845
#
# Poissons Ratio (x) = 0.16757 0.00935
# Poissons Ratio (y) = 0.16757 0.00936
# Poissons Ratio (z) = 0.02186 0.02187
#
# Static dielectric constant tensor:
#      x y z
#    x 1.957460 0.000000 0.000000 
#    y 0.000000 1.957580 0.000000 
#    z 0.000000 0.000000 2.551140 
# 
# From -- ./inp_files/4238.got.cif
#   From: 2010.05.17/outbox.cif.g08.bks.cpg/sg94_3_cif.got.tgz:4238.got - 2010.06.03 19:43:16.
