data_PCOD9550418
_publ_section_title
;
Structure prediction by ZEFSAII (Michael W. Deem and Ramdas Pophale) SiO2 
 PCOD9550418
Probable space group: P 43 2 2
;
_chemical_formula_sum "Si O2"
_cell_formula_units_Z 28
_cell_length_a 11.814636
_cell_length_b 11.814636
_cell_length_c 8.288315
_cell_angle_alpha 90.000000
_cell_angle_beta 90.000000
_cell_angle_gamma 90.000000
_cell_volume 1156.929620
_symmetry_space_group_name_H-M "P 43 2 2"
_symmetry_group_IT_number 95
_symmetry_cell_setting 'tetragonal'
loop_
_space_group_symop_operation_xyz
x,y,z
-y,x,3/4+z
-x,-y,1/2+z
y,-x,1/4+z
x,-y,1/2-z
-x,y,-z
y,x,1/4-z
-y,-x,3/4-z
loop_
_atom_site_type_symbol
_atom_site_label
_atom_site_fract_x
_atom_site_fract_y
_atom_site_fract_z
Si Si1 0.078544 0.250724 0.848590
Si Si2 0.112557 0.308048 0.357526
Si Si3 0.401009 0.598992 0.375000
Si Si4 0.161416 0.448476 0.024166
O O1 0.991683 0.249250 0.317028
O O2 0.201492 0.192758 0.853302
O O3 0.097638 0.383465 0.884249
O O4 0.000000 0.206589 0.000000
O O5 0.140447 0.371608 0.186232
O O6 0.128952 0.419824 0.467048
O O7 0.396676 0.500000 0.250000
O O8 0.423626 0.706632 0.261297
#
# Coordination Sequence:
#
# PCOD9550418 Si02
#       4
#     8   8   4   8
#     4  10  18  32  59  88 110 160 218 255 308 401
#     4  10  19  33  62  88 117 164 216 258 324 396
#     4  12  20  34  64  92 136 174 212 268 330 398
#     4  10  17  35  60  86 123 168 210 260 325 406
#
# _framework density 24.201991
#
# number of rings (size 3 to 8) (size 9 to 14) (size 15 to 20)
#    0.000    1.714    5.714    2.571    0.000    0.000 
#    0.000    0.000   62.857   29.143    0.000    0.000 
#    0.000    0.000    0.000    0.000    0.000    0.000 
#
# Total GULP energy -156192.835330 kJ/mol
# GULP energy per Si atom -5578.315547 kJ/mol
# Density = 2.414691 g / cm^3
# Si number density = 24.201991 Si / 1000 Ang^3
#
#
#
# Elastic Constant Matrix: (Units=GPa)
#
#
# Indices 1 2 3 4 5 6 
#
# 1 212.8971 55.9001 28.4910 0.0000 0.0000 0.0000
# 2 55.9001 212.8953 28.4899 0.0000 0.0000 0.0000
# 3 28.4910 28.4899 46.1756 0.0000 0.0000 0.0000
# 4 0.0000 0.0000 0.0000 31.4403 0.0000 0.0000
# 5 0.0000 0.0000 0.0000 0.0000 31.4397 0.0000
# 6 0.0000 0.0000 0.0000 0.0000 0.0000 24.8026
#
#
#
# Elastic Compliance Matrix: (Units=1/GPa)
#
#
# Indices 1 2 3 4 5 6 
#
# 1 0.005325 -0.001045 -0.002641 0.000000 0.000000 0.000000
# 2 -0.001045 0.005325 -0.002641 0.000000 0.000000 0.000000
# 3 -0.002641 -0.002641 0.024915 0.000000 0.000000 0.000000
# 4 0.000000 0.000000 0.000000 0.031806 0.000000 0.000000
# 5 0.000000 0.000000 0.000000 0.000000 0.031807 0.000000
# 6 0.000000 0.000000 0.000000 0.000000 0.000000 0.040318
#
#
# Mechanical properties :
#
#
# Convention : Reuss Voigt Hill
#
# Bulk Modulus (GPa) = 43.64497 77.52556 60.58526
# Shear Modulus (GPa) = 31.29170 41.47566 36.38368
#
# Velocity S-wave (km/s) = 3.59965 4.14421 3.88149
# Velocity P-wave (km/s) = 5.94554 7.41631 6.72127
#
# Compressibility (1/GPa) = 0.02291215
#
# Stress axis : x y z
#
# Youngs Moduli (GPa) = 187.79905 187.79865 40.13599
#
# Poissons Ratio (x) = 0.19620 0.10600
# Poissons Ratio (y) = 0.19620 0.10599
# Poissons Ratio (z) = 0.49596 0.49593
#
# Static dielectric constant tensor:
#      x y z
#    x 1.978490 0.000000 0.000000 
#    y 0.000000 1.978490 0.000000 
#    z 0.000000 0.000000 2.093050 
# 
# From -- ./inp_files/3288.got.cif
#   From: 2010.05.17/outbox.cif.g08.bks.cpg/sg95_2_cif.got.tgz:3288.got - 2010.06.03 19:46:49.
