data_PCOD9550089
_publ_section_title
;
Structure prediction by ZEFSAII (Michael W. Deem and Ramdas Pophale) SiO2 
 PCOD9550089
Probable space group: P 42 21 2
;
_chemical_formula_sum "Si O2"
_cell_formula_units_Z 48
_cell_length_a 15.634930
_cell_length_b 15.634930
_cell_length_c 9.946741
_cell_angle_alpha 90.000000
_cell_angle_beta 90.000000
_cell_angle_gamma 90.000000
_cell_volume 2431.491143
_symmetry_space_group_name_H-M "P 42 21 2"
_symmetry_group_IT_number 94
_symmetry_cell_setting 'tetragonal'
loop_
_space_group_symop_operation_xyz
x,y,z
1/2-y,1/2+x,1/2+z
-x,-y,z
1/2+y,1/2-x,1/2+z
1/2+x,1/2-y,1/2-z
1/2-x,1/2+y,1/2-z
y,x,-z
-y,-x,-z
loop_
_atom_site_type_symbol
_atom_site_label
_atom_site_fract_x
_atom_site_fract_y
_atom_site_fract_z
Si Si1 0.445645 0.868901 0.973046
Si Si2 0.003571 0.744837 0.774747
Si Si3 0.649062 0.269984 0.363332
Si Si4 0.550585 0.120496 0.485847
Si Si5 0.809127 0.278201 0.874696
Si Si6 0.069174 0.065753 0.161165
O O1 0.475386 0.801796 0.861089
O O2 0.534645 0.902721 0.035726
O O3 0.404700 0.958977 0.920892
O O4 0.373620 0.828309 0.068171
O O5 0.104462 0.754027 0.803981
O O6 0.963410 0.837763 0.791528
O O7 0.970233 0.683152 0.892278
O O8 0.692298 0.307703 0.500000
O O9 0.611519 0.175976 0.390507
O O10 0.715034 0.262380 0.240789
O O11 0.571488 0.332236 0.317545
O O12 0.779238 0.220762 0.000000
O O13 0.060795 0.060795 0.000000
O O14 0.000000 0.000000 0.219393
#
# Coordination Sequence:
#
# PCOD9550089 Si02
#       6
#     8   8   8   8   8   8
#     4  10  23  38  64  94 134 164 214 281 333 397
#     4  11  21  40  64  92 132 166 221 276 329 396
#     4  11  21  42  65  90 130 176 213 263 329 397
#     4  10  21  37  62  96 124 172 211 264 340 392
#     4  11  25  39  64  98 130 172 223 276 332 399
#     4  10  21  36  61  87 120 166 212 262 310 380
#
# _framework density 19.740971999999999
#
# number of rings (size 3 to 8) (size 9 to 14) (size 15 to 20)
#    0.000    1.500    5.000    1.000    4.667    1.333 
#    0.000    1.667    0.000    3.500    0.000    0.000 
#    0.000    0.000    0.000    0.000    0.000    0.000 
#
# Total GULP energy -267545.361592 kJ/mol
# GULP energy per Si atom -5573.861700 kJ/mol
# Density = 1.969604 g / cm^3
# Si number density = 19.740972 Si / 1000 Ang^3
#
#
#
# Elastic Constant Matrix: (Units=GPa)
#
#
# Indices 1 2 3 4 5 6 
#
# 1 92.2402 30.6357 14.8199 0.0000 0.0000 0.0000
# 2 30.6357 92.2400 14.8196 0.0000 0.0000 0.0000
# 3 14.8199 14.8196 55.4185 0.0000 0.0000 0.0000
# 4 0.0000 0.0000 0.0000 15.6399 0.0000 0.0000
# 5 0.0000 0.0000 0.0000 0.0000 15.6415 0.0000
# 6 0.0000 0.0000 0.0000 0.0000 0.0000 30.5866
#
#
#
# Elastic Compliance Matrix: (Units=1/GPa)
#
#
# Indices 1 2 3 4 5 6 
#
# 1 0.012466 -0.003767 -0.002326 0.000000 0.000000 0.000000
# 2 -0.003767 0.012466 -0.002326 0.000000 0.000000 0.000000
# 3 -0.002326 -0.002326 0.019289 0.000000 0.000000 0.000000
# 4 0.000000 0.000000 0.000000 0.063939 0.000000 0.000000
# 5 0.000000 0.000000 0.000000 0.000000 0.063932 0.000000
# 6 0.000000 0.000000 0.000000 0.000000 0.000000 0.032694
#
#
# Mechanical properties :
#
#
# Convention : Reuss Voigt Hill
#
# Bulk Modulus (GPa) = 36.52013 40.04990 38.28501
# Shear Modulus (GPa) = 21.66826 24.34850 23.00838
#
# Velocity S-wave (km/s) = 3.31664 3.51579 3.41767
# Velocity P-wave (km/s) = 5.76252 6.06735 5.91690
#
# Compressibility (1/GPa) = 0.02738216
#
# Stress axis : x y z
#
# Youngs Moduli (GPa) = 80.21801 80.21795 51.84379
#
# Poissons Ratio (x) = 0.30215 0.12061
# Poissons Ratio (y) = 0.30215 0.12061
# Poissons Ratio (z) = 0.18662 0.18661
#
# Static dielectric constant tensor:
#      x y z
#    x 1.730080 0.000000 0.000000 
#    y 0.000000 1.730080 0.000000 
#    z 0.000000 0.000000 1.703220 
# 
# From -- ./inp_files/2633.got.cif
#   From: 2010.05.17/outbox.cif.g08.bks.cpg/sg94_2_cif.got.tgz:2633.got - 2010.06.03 19:43:16.
