data_PCOD9550020
_publ_section_title
;
Structure prediction by ZEFSAII (Michael W. Deem and Ramdas Pophale) SiO2 
 PCOD9550020
Probable space group: P 42 21 2
;
_chemical_formula_sum "Si O2"
_cell_formula_units_Z 48
_cell_length_a 11.135064
_cell_length_b 11.135064
_cell_length_c 18.060415
_cell_angle_alpha 90.000000
_cell_angle_beta 90.000000
_cell_angle_gamma 90.000000
_cell_volume 2239.304540
_symmetry_space_group_name_H-M "P 42 21 2"
_symmetry_group_IT_number 94
_symmetry_cell_setting 'tetragonal'
loop_
_space_group_symop_operation_xyz
x,y,z
1/2-y,1/2+x,1/2+z
-x,-y,z
1/2+y,1/2-x,1/2+z
1/2+x,1/2-y,1/2-z
1/2-x,1/2+y,1/2-z
y,x,-z
-y,-x,-z
loop_
_atom_site_type_symbol
_atom_site_label
_atom_site_fract_x
_atom_site_fract_y
_atom_site_fract_z
Si Si1 0.000000 0.500000 0.198965
Si Si2 0.303665 0.154127 0.741735
Si Si3 0.032257 0.310542 0.405417
Si Si4 0.812451 0.906405 0.897352
Si Si5 0.455505 0.807610 0.550362
Si Si6 0.319587 0.680414 0.000000
Si Si7 0.859042 0.270794 0.136499
O O1 0.892062 0.560324 0.245569
O O2 0.935047 0.391175 0.155724
O O3 0.265134 0.062079 0.676562
O O4 0.240645 0.143395 0.820603
O O5 0.274986 0.281113 0.705262
O O6 0.130340 0.415337 0.431317
O O7 0.052876 0.205679 0.464050
O O8 0.902557 0.366103 0.412749
O O9 0.923967 0.823301 0.918318
O O10 0.832542 0.046698 0.883856
O O11 0.713677 0.916492 0.964457
O O12 0.226447 0.701085 0.067339
#
# Coordination Sequence:
#
# PCOD9550020 Si02
#       7
#     4   8   8   8   8   4   8
#     4  10  22  40  70  92 132 188 214 278 348 400
#     4  10  23  37  63  98 128 169 228 274 328 408
#     4  10  21  37  62  91 120 167 218 275 322 411
#     4  10  22  38  62  93 130 170 213 284 331 403
#     4  10  21  38  64  92 124 169 226 266 342 405
#     4  10  20  36  59  91 132 160 220 284 322 397
#     4  10  22  40  63  99 130 168 229 275 335 412
#
# _framework density 21.435226
#
# number of rings (size 3 to 8) (size 9 to 14) (size 15 to 20)
#    0.000    2.000    1.667    1.000   11.667    0.000 
#    0.000    4.167    0.000    2.000    0.000    0.000 
#    0.000    0.000    0.000    0.000    0.000    0.000 
#
# Total GULP energy -267344.564738 kJ/mol
# GULP energy per Si atom -5569.678432 kJ/mol
# Density = 2.138644 g / cm^3
# Si number density = 21.435226 Si / 1000 Ang^3
#
#
#
# Elastic Constant Matrix: (Units=GPa)
#
#
# Indices 1 2 3 4 5 6 
#
# 1 54.5987 31.7049 20.8491 0.0000 0.0000 0.0000
# 2 31.7049 54.5988 20.8497 0.0000 0.0000 0.0000
# 3 20.8491 20.8497 124.3733 0.0000 0.0000 0.0000
# 4 0.0000 0.0000 0.0000 26.8391 0.0000 0.0000
# 5 0.0000 0.0000 0.0000 0.0000 26.8393 0.0000
# 6 0.0000 0.0000 0.0000 0.0000 0.0000 39.8518
#
#
#
# Elastic Compliance Matrix: (Units=1/GPa)
#
#
# Indices 1 2 3 4 5 6 
#
# 1 0.028144 -0.015536 -0.002113 0.000000 0.000000 0.000000
# 2 -0.015536 0.028144 -0.002114 0.000000 0.000000 0.000000
# 3 -0.002113 -0.002114 0.008749 0.000000 0.000000 0.000000
# 4 0.000000 0.000000 0.000000 0.037259 0.000000 0.000000
# 5 0.000000 0.000000 0.000000 0.000000 0.037259 0.000000
# 6 0.000000 0.000000 0.000000 0.000000 0.000000 0.025093
#
#
# Mechanical properties :
#
#
# Convention : Reuss Voigt Hill
#
# Bulk Modulus (GPa) = 39.19874 42.26421 40.73148
# Shear Modulus (GPa) = 23.50979 29.38386 26.44682
#
# Velocity S-wave (km/s) = 3.31536 3.70648 3.51636
# Velocity P-wave (km/s) = 5.74302 6.17068 5.96069
#
# Compressibility (1/GPa) = 0.02551102
#
# Stress axis : x y z
#
# Youngs Moduli (GPa) = 35.53158 35.53151 114.29961
#
# Poissons Ratio (x) = 0.55201 0.24157
# Poissons Ratio (y) = 0.55201 0.24159
# Poissons Ratio (z) = 0.07510 0.07510
#
# Static dielectric constant tensor:
#      x y z
#    x 1.804240 0.000000 0.000000 
#    y 0.000000 1.804240 0.000000 
#    z 0.000000 0.000000 1.851560 
# 
# From -- ./inp_files/4167.got.cif
#   From: 2010.05.17/outbox.cif.g08.bks.cpg/sg94_3_cif.got.tgz:4167.got - 2010.06.03 19:43:16.
