data_PCOD9550543
_publ_section_title
;
Structure prediction by ZEFSAII (Michael W. Deem and Ramdas Pophale) SiO2 
 PCOD9550543
Probable space group: P 43 2 2
;
_chemical_formula_sum "Si O2"
_cell_formula_units_Z 40
_cell_length_a 12.356777
_cell_length_b 12.356777
_cell_length_c 13.316635
_cell_angle_alpha 90.000000
_cell_angle_beta 90.000000
_cell_angle_gamma 90.000000
_cell_volume 2033.316170
_symmetry_space_group_name_H-M "P 43 2 2"
_symmetry_group_IT_number 95
_symmetry_cell_setting 'tetragonal'
loop_
_space_group_symop_operation_xyz
x,y,z
-y,x,3/4+z
-x,-y,1/2+z
y,-x,1/4+z
x,-y,1/2-z
-x,y,-z
y,x,1/4-z
-y,-x,3/4-z
loop_
_atom_site_type_symbol
_atom_site_label
_atom_site_fract_x
_atom_site_fract_y
_atom_site_fract_z
Si Si1 0.749066 0.099540 0.552653
Si Si2 0.464875 0.022879 0.387614
Si Si3 0.631042 0.324310 0.490527
Si Si4 0.792706 0.048353 0.142778
Si Si5 0.839419 0.432277 0.541952
O O1 0.661885 0.038388 0.618777
O O2 0.684919 0.210531 0.523283
O O3 0.852816 0.125699 0.619958
O O4 0.778012 0.034346 0.449514
O O5 0.500000 0.047865 0.500000
O O6 0.530571 0.104995 0.314079
O O7 0.484947 0.896741 0.366149
O O8 0.500000 0.329803 0.500000
O O9 0.658961 0.341040 0.375000
O O10 0.710782 0.414641 0.541396
O O11 0.678655 0.104322 0.171427
O O12 0.828088 0.000000 0.250000
#
# Coordination Sequence:
#
# PCOD9550543 Si02
#       5
#     8   8   8   8   8
#     4  11  22  34  64  93 121 166 208 263 310 375
#     4  11  18  35  63  90 121 162 212 252 308 366
#     4  11  22  36  60  97 126 157 210 257 315 370
#     4  11  19  35  57  95 122 155 205 256 319 368
#     4  10  21  34  62  94 123 158 205 259 302 373
#
# _framework density 19.672297
#
# number of rings (size 3 to 8) (size 9 to 14) (size 15 to 20)
#    0.000    1.200    4.000    6.000    0.000    0.000 
#    0.000    1.000   17.600    0.000    0.000    0.000 
#    0.000    0.000    0.000    0.000    0.000    0.000 
#
# Total GULP energy -222675.539384 kJ/mol
# GULP energy per Si atom -5566.888485 kJ/mol
# Density = 1.962752 g / cm^3
# Si number density = 19.672297 Si / 1000 Ang^3
#
#
#
# Elastic Constant Matrix: (Units=GPa)
#
#
# Indices 1 2 3 4 5 6 
#
# 1 108.4812 65.5848 13.3702 0.0000 0.0000 0.0000
# 2 65.5848 108.4822 13.3707 0.0000 0.0000 0.0000
# 3 13.3702 13.3707 46.6731 0.0000 0.0000 0.0000
# 4 0.0000 0.0000 0.0000 11.1517 0.0000 0.0000
# 5 0.0000 0.0000 0.0000 0.0000 11.1517 0.0000
# 6 0.0000 0.0000 0.0000 0.0000 0.0000 -655.9330
#
#
#
# Elastic Compliance Matrix: (Units=1/GPa)
#
#
# Indices 1 2 3 4 5 6 
#
# 1 0.014661 -0.008651 -0.001721 0.000000 0.000000 0.000000
# 2 -0.008651 0.014660 -0.001722 0.000000 0.000000 0.000000
# 3 -0.001721 -0.001722 0.022412 0.000000 0.000000 0.000000
# 4 0.000000 0.000000 0.000000 0.089672 0.000000 0.000000
# 5 0.000000 0.000000 0.000000 0.000000 0.089672 0.000000
# 6 0.000000 0.000000 0.000000 0.000000 0.000000 -0.001525
#
#
# Mechanical properties :
#
#
# Convention : Reuss Voigt Hill
#
# Bulk Modulus (GPa) = 36.30464 49.80976 43.05720
# Shear Modulus (GPa) = 19.01696 -115.30519 -48.14412
#
# Velocity S-wave (km/s) = 3.11253 -7.66422 -4.95239
# Velocity P-wave (km/s) = 5.60463 7.27637 3.28129
#
# Compressibility (1/GPa) = 0.02754469
#
# Stress axis : x y z
#
# Youngs Moduli (GPa) = 68.21009 68.21056 44.61906
#
# Poissons Ratio (x) = 0.59010 0.07681
# Poissons Ratio (y) = 0.59009 0.07682
# Poissons Ratio (z) = 0.11742 0.11743
#
# Static dielectric constant tensor:
#      x y z
#    x 1.860600 0.000000 0.000000 
#    y 0.000000 1.860600 0.000000 
#    z 0.000000 0.000000 1.647290 
# 
# From -- ./inp_files/4819.got.cif
#   From: 2010.05.17/outbox.cif.g08.bks.cpg/sg95_3_cif.got.tgz:4819.got - 2010.06.03 19:46:49.
