data_PCOD9550650
_publ_section_title
;
Structure prediction by ZEFSAII (Michael W. Deem and Ramdas Pophale) SiO2 
 PCOD9550650
Probable space group: P 43 2 2
;
_chemical_formula_sum "Si O2"
_cell_formula_units_Z 36
_cell_length_a 11.756039
_cell_length_b 11.756039
_cell_length_c 12.537933
_cell_angle_alpha 90.000000
_cell_angle_beta 90.000000
_cell_angle_gamma 90.000000
_cell_volume 1732.798172
_symmetry_space_group_name_H-M "P 43 2 2"
_symmetry_group_IT_number 95
_symmetry_cell_setting 'tetragonal'
loop_
_space_group_symop_operation_xyz
x,y,z
-y,x,3/4+z
-x,-y,1/2+z
y,-x,1/4+z
x,-y,1/2-z
-x,y,-z
y,x,1/4-z
-y,-x,3/4-z
loop_
_atom_site_type_symbol
_atom_site_label
_atom_site_fract_x
_atom_site_fract_y
_atom_site_fract_z
Si Si1 0.643574 0.012171 0.412734
Si Si2 0.721162 0.653399 0.509377
Si Si3 0.603797 0.067996 0.642068
Si Si4 0.768475 0.768475 0.125000
Si Si5 0.241203 0.607670 0.072455
O O1 0.648289 0.998818 0.540435
O O2 0.529235 0.085630 0.387164
O O3 0.743833 0.097340 0.382837
O O4 0.629883 0.891296 0.355454
O O5 0.712992 0.712992 0.625000
O O6 0.825216 0.678884 0.427715
O O7 0.737080 0.519825 0.531778
O O8 0.619109 0.687914 0.431925
O O9 0.600892 0.000000 0.750000
O O10 0.697079 0.727678 0.228752
#
# Coordination Sequence:
#
# PCOD9550650 Si02
#       5
#     8   8   8   4   8
#     4  11  23  41  71 100 134 179 244 299 351 426
#     4  12  25  44  65 103 145 188 236 288 360 425
#     4  11  20  39  68  96 130 177 237 290 338 421
#     4  12  22  42  72 106 134 180 242 302 358 428
#     4  12  26  46  67 105 142 194 235 296 362 436
#
# _framework density 20.775645999999998
#
# number of rings (size 3 to 8) (size 9 to 14) (size 15 to 20)
#    0.000    0.444    6.667    2.667    3.111    0.889 
#    6.000    0.000    0.000    2.667    2.889    0.000 
#    0.000    0.000    0.000    0.000    0.000    0.000 
#
# Total GULP energy -200694.719534 kJ/mol
# GULP energy per Si atom -5574.853320 kJ/mol
# Density = 2.072836 g / cm^3
# Si number density = 20.775646 Si / 1000 Ang^3
#
#
#
# Elastic Constant Matrix: (Units=GPa)
#
#
# Indices 1 2 3 4 5 6 
#
# 1 70.4491 46.0235 39.9748 0.0000 0.0000 0.0000
# 2 46.0235 70.4491 39.9748 0.0000 0.0000 0.0000
# 3 39.9748 39.9748 185.9003 0.0000 0.0000 0.0000
# 4 0.0000 0.0000 0.0000 35.9075 0.0000 0.0000
# 5 0.0000 0.0000 0.0000 0.0000 35.9075 0.0000
# 6 0.0000 0.0000 0.0000 0.0000 0.0000 17.8787
#
#
#
# Elastic Compliance Matrix: (Units=1/GPa)
#
#
# Indices 1 2 3 4 5 6 
#
# 1 0.025507 -0.015434 -0.002166 0.000000 0.000000 0.000000
# 2 -0.015434 0.025507 -0.002166 0.000000 0.000000 0.000000
# 3 -0.002166 -0.002166 0.006311 0.000000 0.000000 0.000000
# 4 0.000000 0.000000 0.000000 0.027849 0.000000 0.000000
# 5 0.000000 0.000000 0.000000 0.000000 0.027849 0.000000
# 6 0.000000 0.000000 0.000000 0.000000 0.000000 0.055932
#
#
# Mechanical properties :
#
#
# Convention : Reuss Voigt Hill
#
# Bulk Modulus (GPa) = 56.20517 64.30495 60.25506
# Shear Modulus (GPa) = 23.31900 31.32713 27.32307
#
# Velocity S-wave (km/s) = 3.35389 3.88735 3.63043
# Velocity P-wave (km/s) = 6.48924 7.15318 6.82928
#
# Compressibility (1/GPa) = 0.01779196
#
# Stress axis : x y z
#
# Youngs Moduli (GPa) = 39.20558 39.20558 158.46072
#
# Poissons Ratio (x) = 0.60510 0.34321
# Poissons Ratio (y) = 0.60510 0.34321
# Poissons Ratio (z) = 0.08492 0.08492
#
# Static dielectric constant tensor:
#      x y z
#    x 1.884810 0.000000 0.000000 
#    y 0.000000 1.884810 0.000000 
#    z 0.000000 0.000000 1.797940 
# 
# From -- ./inp_files/3545.got.cif
#   From: 2010.05.17/outbox.cif.g08.bks.cpg/sg95_2_cif.got.tgz:3545.got - 2010.06.03 19:46:49.
