data_PCOD9550702
_publ_section_title
;
Structure prediction by ZEFSAII (Michael W. Deem and Ramdas Pophale) SiO2 
 PCOD9550702
Probable space group: P 43 2 2
;
_chemical_formula_sum "Si O2"
_cell_formula_units_Z 48
_cell_length_a 12.000000
_cell_length_b 12.000000
_cell_length_c 18.000000
_cell_angle_alpha 90.000000
_cell_angle_beta 90.000000
_cell_angle_gamma 90.000000
_cell_volume 2592.000000
_symmetry_space_group_name_H-M "P 43 2 2"
_symmetry_group_IT_number 95
_symmetry_cell_setting 'tetragonal'
loop_
_space_group_symop_operation_xyz
x,y,z
-y,x,3/4+z
-x,-y,1/2+z
y,-x,1/4+z
x,-y,1/2-z
-x,y,-z
y,x,1/4-z
-y,-x,3/4-z
loop_
_atom_site_type_symbol
_atom_site_label
_atom_site_fract_x
_atom_site_fract_y
_atom_site_fract_z
Si Si1 0.413362 0.203377 0.337741
Si Si2 0.536062 0.631002 0.415009
Si Si3 0.831145 0.178079 0.592692
Si Si4 0.054160 0.187002 0.687431
Si Si5 0.958284 0.550567 0.174370
Si Si6 0.843799 0.557629 0.938317
O O1 0.407426 0.336122 0.334973
O O2 0.286473 0.166634 0.361898
O O3 0.487824 0.154823 0.404001
O O4 0.480326 0.166245 0.262132
O O5 0.500000 0.648983 0.500000
O O6 0.460349 0.539652 0.375000
O O7 0.526940 0.742706 0.366490
O O8 0.845025 0.093699 0.521762
O O9 0.837907 0.305128 0.557274
O O10 0.929966 0.162970 0.653827
O O11 0.133906 0.133906 0.625000
O O12 0.063108 0.320009 0.685499
O O13 0.006948 0.500000 0.250000
O O14 0.042589 0.533780 0.105998
#
# Coordination Sequence:
#
# PCOD9550702 Si02
#       6
#     8   8   8   8   8   8
#     4  11  22  39  63  94 128 163 214 260 317 377
#     4  11  22  39  60  92 132 172 205 253 317 386
#     4  10  23  41  66  95 126 167 216 266 321 380
#     4  11  22  42  67  91 126 168 215 265 324 379
#     4  11  22  40  65  92 124 161 213 269 311 367
#     4  10  22  40  65  91 126 168 212 257 318 381
#
# _framework density 18.518519000000001
#
# number of rings (size 3 to 8) (size 9 to 14) (size 15 to 20)
#    0.000    1.333    3.333    2.500    0.000    5.333 
#    0.000    3.333    0.000    0.000    0.000    0.000 
#    0.000    0.000    0.000    0.000    0.000    0.000 
#
# Total GULP energy -267644.650386 kJ/mol
# GULP energy per Si atom -5575.930216 kJ/mol
# Density = 1.847637 g / cm^3
# Si number density = 18.518519 Si / 1000 Ang^3
#
#
#
# Elastic Constant Matrix: (Units=GPa)
#
#
# Indices 1 2 3 4 5 6 
#
# 1 90.5162 42.3794 51.5671 0.0000 0.0000 0.0000
# 2 42.3794 90.5167 51.5663 0.0000 0.0000 0.0000
# 3 51.5671 51.5663 139.2414 0.0000 0.0000 0.0000
# 4 0.0000 0.0000 0.0000 35.3131 0.0000 0.0000
# 5 0.0000 0.0000 0.0000 0.0000 35.3134 0.0000
# 6 0.0000 0.0000 0.0000 0.0000 0.0000 15.3027
#
#
#
# Elastic Compliance Matrix: (Units=1/GPa)
#
#
# Indices 1 2 3 4 5 6 
#
# 1 0.015667 -0.005107 -0.003911 0.000000 0.000000 0.000000
# 2 -0.005107 0.015667 -0.003911 0.000000 0.000000 0.000000
# 3 -0.003911 -0.003911 0.010078 0.000000 0.000000 0.000000
# 4 0.000000 0.000000 0.000000 0.028318 0.000000 0.000000
# 5 0.000000 0.000000 0.000000 0.000000 0.028318 0.000000
# 6 0.000000 0.000000 0.000000 0.000000 0.000000 0.065348
#
#
# Mechanical properties :
#
#
# Convention : Reuss Voigt Hill
#
# Bulk Modulus (GPa) = 64.28861 67.92221 66.10541
# Shear Modulus (GPa) = 25.71520 28.83661 27.27591
#
# Velocity S-wave (km/s) = 3.73046 3.95039 3.84200
# Velocity P-wave (km/s) = 7.30386 7.58716 7.44686
#
# Compressibility (1/GPa) = 0.01555486
#
# Stress axis : x y z
#
# Youngs Moduli (GPa) = 63.82891 63.82990 99.22324
#
# Poissons Ratio (x) = 0.32600 0.38803
# Poissons Ratio (y) = 0.32599 0.38801
# Poissons Ratio (z) = 0.24962 0.24961
#
# Static dielectric constant tensor:
#      x y z
#    x 1.649130 0.000000 0.000000 
#    y 0.000000 1.649130 0.000000 
#    z 0.000000 0.000000 1.629930 
# 
# From -- ./inp_files/5655.got.cif
#   From: 2010.05.17/outbox.ucp.g08.bks.cvg/sg95_3_cif.got.tgz:5655.got - 2010.06.11 10:37:16.
