data_PCOD9550278
_publ_section_title
;
Structure prediction by ZEFSAII (Michael W. Deem and Ramdas Pophale) SiO2 
 PCOD9550278
Probable space group: P 42 21 2
;
_chemical_formula_sum "Si O2"
_cell_formula_units_Z 32
_cell_length_a 11.308966
_cell_length_b 11.308966
_cell_length_c 10.152601
_cell_angle_alpha 90.000000
_cell_angle_beta 90.000000
_cell_angle_gamma 90.000000
_cell_volume 1298.443676
_symmetry_space_group_name_H-M "P 42 21 2"
_symmetry_group_IT_number 94
_symmetry_cell_setting 'tetragonal'
loop_
_space_group_symop_operation_xyz
x,y,z
1/2-y,1/2+x,1/2+z
-x,-y,z
1/2+y,1/2-x,1/2+z
1/2+x,1/2-y,1/2-z
1/2-x,1/2+y,1/2-z
y,x,-z
-y,-x,-z
loop_
_atom_site_type_symbol
_atom_site_label
_atom_site_fract_x
_atom_site_fract_y
_atom_site_fract_z
Si Si1 0.909182 0.768183 0.730040
Si Si2 0.000000 0.000000 0.689041
Si Si3 0.207105 0.897148 0.864897
Si Si4 0.588309 0.907495 0.888419
Si Si5 0.290518 0.709483 0.500000
O O1 0.785633 0.710981 0.686842
O O2 0.008770 0.664318 0.717574
O O3 0.881907 0.810325 0.879476
O O4 0.939377 0.879862 0.637885
O O5 0.897716 0.064142 0.771540
O O6 0.299661 0.007410 0.859728
O O7 0.147225 0.852776 0.000000
O O8 0.500000 0.000000 0.957326
O O9 0.652260 0.807880 0.971498
#
# Coordination Sequence:
#
# PCOD9550278 Si02
#       5
#     8   4   8   8   4
#     4  11  26  46  71 112 151 198 262 318 399 463
#     4  12  23  42  75 104 142 195 256 307 392 462
#     4  11  24  47  75 106 150 203 263 322 390 476
#     4  10  24  46  71 113 150 202 258 321 396 459
#     4  12  22  47  76 111 152 200 260 313 394 481
#
# _framework density 24.644888999999999
#
# number of rings (size 3 to 8) (size 9 to 14) (size 15 to 20)
#    0.000    1.000    2.500    3.375    0.000    3.000 
#   18.000    0.000    0.000    0.000    0.000    0.000 
#    0.000    0.000    0.000    0.000    0.000    0.000 
#
# Total GULP energy -178350.884297 kJ/mol
# GULP energy per Si atom -5573.465134 kJ/mol
# Density = 2.458880 g / cm^3
# Si number density = 24.644889 Si / 1000 Ang^3
#
#
#
# Elastic Constant Matrix: (Units=GPa)
#
#
# Indices 1 2 3 4 5 6 
#
# 1 168.3300 68.2888 39.3439 0.0000 0.0000 0.0000
# 2 68.2888 168.3313 39.3434 0.0000 0.0000 0.0000
# 3 39.3439 39.3434 70.0485 0.0000 0.0000 0.0000
# 4 0.0000 0.0000 0.0000 18.1512 0.0000 0.0000
# 5 0.0000 0.0000 0.0000 0.0000 18.1500 0.0000
# 6 0.0000 0.0000 0.0000 0.0000 0.0000 81.5442
#
#
#
# Elastic Compliance Matrix: (Units=1/GPa)
#
#
# Indices 1 2 3 4 5 6 
#
# 1 0.007596 -0.002399 -0.002919 0.000000 0.000000 0.000000
# 2 -0.002399 0.007596 -0.002919 0.000000 0.000000 0.000000
# 3 -0.002919 -0.002919 0.017555 0.000000 0.000000 0.000000
# 4 0.000000 0.000000 0.000000 0.055093 0.000000 0.000000
# 5 0.000000 0.000000 0.000000 0.000000 0.055097 0.000000
# 6 0.000000 0.000000 0.000000 0.000000 0.000000 0.012263
#
#
# Mechanical properties :
#
#
# Convention : Reuss Voigt Hill
#
# Bulk Modulus (GPa) = 61.45198 77.85133 69.65166
# Shear Modulus (GPa) = 28.23287 40.88468 34.55877
#
# Velocity S-wave (km/s) = 3.38832 4.07744 3.74875
# Velocity P-wave (km/s) = 6.34797 7.33657 6.86010
#
# Compressibility (1/GPa) = 0.01627287
#
# Stress axis : x y z
#
# Youngs Moduli (GPa) = 131.64159 131.64321 56.96486
#
# Poissons Ratio (x) = 0.31587 0.16628
# Poissons Ratio (y) = 0.31587 0.16627
# Poissons Ratio (z) = 0.38425 0.38424
#
# Static dielectric constant tensor:
#      x y z
#    x 2.064170 0.000000 0.000000 
#    y 0.000000 2.064170 0.000000 
#    z 0.000000 0.000000 2.056630 
# 
# From -- ./inp_files/2332.got.cif
#   From: 2010.05.17/outbox.cif.g08.bks.cpg/sg94_2_cif.got.tgz:2332.got - 2010.06.03 19:43:16.
