data_PCOD9550457
_publ_section_title
;
Structure prediction by ZEFSAII (Michael W. Deem and Ramdas Pophale) SiO2 
 PCOD9550457
Probable space group: P 43 2 2
;
_chemical_formula_sum "Si O2"
_cell_formula_units_Z 52
_cell_length_a 18.328604
_cell_length_b 18.328604
_cell_length_c 9.357766
_cell_angle_alpha 90.000000
_cell_angle_beta 90.000000
_cell_angle_gamma 90.000000
_cell_volume 3143.626617
_symmetry_space_group_name_H-M "P 43 2 2"
_symmetry_group_IT_number 95
_symmetry_cell_setting 'tetragonal'
loop_
_space_group_symop_operation_xyz
x,y,z
-y,x,3/4+z
-x,-y,1/2+z
y,-x,1/4+z
x,-y,1/2-z
-x,y,-z
y,x,1/4-z
-y,-x,3/4-z
loop_
_atom_site_type_symbol
_atom_site_label
_atom_site_fract_x
_atom_site_fract_y
_atom_site_fract_z
Si Si1 0.277591 0.192971 0.795423
Si Si2 0.487152 0.916079 0.277358
Si Si3 0.929887 0.822098 0.096887
Si Si4 0.900361 0.622255 0.761769
Si Si5 0.963050 0.289031 0.155858
Si Si6 0.195643 0.340831 0.768130
Si Si7 0.820768 0.500000 0.250000
O O1 0.215297 0.136343 0.742785
O O2 0.322669 0.159474 0.926047
O O3 0.244121 0.272946 0.823627
O O4 0.327012 0.194176 0.652844
O O5 0.421148 0.880535 0.367396
O O6 0.558842 0.915590 0.374693
O O7 0.465686 0.000000 0.250000
O O8 0.507930 0.873817 0.135300
O O9 0.903682 0.903682 0.125000
O O10 0.945085 0.781169 0.246381
O O11 0.000000 0.815930 0.000000
O O12 0.975416 0.665072 0.737718
O O13 0.885519 0.331882 0.163347
O O14 0.000000 0.275122 0.000000
O O15 0.221004 0.424451 0.781666
#
# Coordination Sequence:
#
# PCOD9550457 Si02
#       7
#     8   8   8   8   8   8   4
#     4  10  19  36  57  79 102 148 189 227 271 341
#     4  11  22  32  48  79 118 145 182 218 269 348
#     4  11  21  39  61  78 101 143 194 239 289 339
#     4  11  21  34  52  79 110 150 182 221 279 334
#     4  11  21  34  54  82 111 139 183 231 279 330
#     4  10  20  34  55  79 109 141 187 225 273 336
#     4  12  20  34  52  78 110 144 178 228 276 322
#
# _framework density 16.541404
#
# number of rings (size 3 to 8) (size 9 to 14) (size 15 to 20)
#    0.000    1.231    6.154    4.154    2.154    0.000 
#    0.000    6.154    0.000    0.000    0.000    0.000 
#    0.000    9.846    0.000    0.000    0.000    0.000 
#
# Total GULP energy -289903.782923 kJ/mol
# GULP energy per Si atom -5575.072749 kJ/mol
# Density = 1.650375 g / cm^3
# Si number density = 16.541404 Si / 1000 Ang^3
#
#
#
# Elastic Constant Matrix: (Units=GPa)
#
#
# Indices 1 2 3 4 5 6 
#
# 1 89.0100 55.4424 37.7539 0.0000 0.0000 0.0000
# 2 55.4424 89.0100 37.7539 0.0000 0.0000 0.0000
# 3 37.7539 37.7539 92.1150 0.0000 0.0000 0.0000
# 4 0.0000 0.0000 0.0000 20.4966 0.0000 0.0000
# 5 0.0000 0.0000 0.0000 0.0000 20.4966 0.0000
# 6 0.0000 0.0000 0.0000 0.0000 0.0000 3.3548
#
#
#
# Elastic Compliance Matrix: (Units=1/GPa)
#
#
# Indices 1 2 3 4 5 6 
#
# 1 0.019300 -0.010490 -0.003611 0.000000 0.000000 0.000000
# 2 -0.010490 0.019300 -0.003611 0.000000 0.000000 0.000000
# 3 -0.003611 -0.003611 0.013816 0.000000 0.000000 0.000000
# 4 0.000000 0.000000 0.000000 0.048789 0.000000 0.000000
# 5 0.000000 0.000000 0.000000 0.000000 0.048789 0.000000
# 6 0.000000 0.000000 0.000000 0.000000 0.000000 0.298080
#
#
# Mechanical properties :
#
#
# Convention : Reuss Voigt Hill
#
# Bulk Modulus (GPa) = 58.84903 59.11505 58.98204
# Shear Modulus (GPa) = 10.22156 18.14859 14.18508
#
# Velocity S-wave (km/s) = 2.48853 3.31594 2.93157
# Velocity P-wave (km/s) = 6.62655 7.10463 6.86975
#
# Compressibility (1/GPa) = 0.01699263
#
# Stress axis : x y z
#
# Youngs Moduli (GPa) = 51.81248 51.81248 72.38041
#
# Poissons Ratio (x) = 0.54352 0.26136
# Poissons Ratio (y) = 0.54352 0.26136
# Poissons Ratio (z) = 0.18709 0.18709
#
# Static dielectric constant tensor:
#      x y z
#    x 1.571680 0.000000 0.000000 
#    y 0.000000 1.571680 0.000000 
#    z 0.000000 0.000000 1.589290 
# 
# From -- ./inp_files/2761.got.cif
#   From: 2010.05.17/outbox.cif.g08.bks.cpg/sg95_2_cif.got.tgz:2761.got - 2010.06.03 19:46:49.
