data_PCOD9550183
_publ_section_title
;
Structure prediction by ZEFSAII (Michael W. Deem and Ramdas Pophale) SiO2 
 PCOD9550183
Probable space group: P 42 21 2
;
_chemical_formula_sum "Si O2"
_cell_formula_units_Z 48
_cell_length_a 9.059107
_cell_length_b 9.059107
_cell_length_c 27.310812
_cell_angle_alpha 90.000000
_cell_angle_beta 90.000000
_cell_angle_gamma 90.000000
_cell_volume 2241.327869
_symmetry_space_group_name_H-M "P 42 21 2"
_symmetry_group_IT_number 94
_symmetry_cell_setting 'tetragonal'
loop_
_space_group_symop_operation_xyz
x,y,z
1/2-y,1/2+x,1/2+z
-x,-y,z
1/2+y,1/2-x,1/2+z
1/2+x,1/2-y,1/2-z
1/2-x,1/2+y,1/2-z
y,x,-z
-y,-x,-z
loop_
_atom_site_type_symbol
_atom_site_label
_atom_site_fract_x
_atom_site_fract_y
_atom_site_fract_z
Si Si1 0.783931 0.852532 0.391235
Si Si2 0.619169 0.100088 0.714729
Si Si3 0.349132 0.230947 0.951650
Si Si4 0.567926 0.857419 0.105171
Si Si5 0.125314 0.116829 0.283331
Si Si6 0.938453 0.168654 0.050036
O O1 0.792302 0.911122 0.335115
O O2 0.659613 0.731917 0.405384
O O3 0.940474 0.768041 0.396637
O O4 0.754273 0.992385 0.426521
O O5 0.580813 0.124444 0.657848
O O6 0.644045 0.250628 0.742847
O O7 0.500000 0.000000 0.742287
O O8 0.746591 0.981551 0.709662
O O9 0.221681 0.292269 0.916617
O O10 0.291046 0.065156 0.960565
O O11 0.329665 0.329665 0.000000
O O12 0.500000 0.000000 0.078591
O O13 0.000000 0.000000 0.269091
O O14 0.844069 0.155932 0.000000
O O15 0.000000 0.000000 0.057991
#
# Coordination Sequence:
#
# PCOD9550183 Si02
#       6
#     8   8   8   8   8   8
#     4  11  25  42  68 100 138 181 233 299 366 420
#     4  10  22  41  66  98 134 186 229 286 362 415
#     4  12  25  42  68 102 135 181 240 291 359 433
#     4  10  23  42  65  95 135 179 230 285 349 435
#     4  11  23  44  69 102 144 179 239 302 355 434
#     4  11  24  46  65  95 135 183 235 296 351 425
#
# _framework density 21.415875
#
# number of rings (size 3 to 8) (size 9 to 14) (size 15 to 20)
#    0.000    1.167    1.667    5.000    2.333    3.333 
#    0.000    1.667    0.000    0.000    0.000    0.000 
#    0.000    0.000    0.000    0.000    0.000    0.000 
#
# Total GULP energy -267522.712493 kJ/mol
# GULP energy per Si atom -5573.389844 kJ/mol
# Density = 2.136713 g / cm^3
# Si number density = 21.415875 Si / 1000 Ang^3
#
#
#
# Elastic Constant Matrix: (Units=GPa)
#
#
# Indices 1 2 3 4 5 6 
#
# 1 69.9456 37.3642 31.1088 0.0000 0.0000 0.0000
# 2 37.3642 69.9458 31.1085 0.0000 0.0000 0.0000
# 3 31.1088 31.1085 76.7884 0.0000 0.0000 0.0000
# 4 0.0000 0.0000 0.0000 34.2668 0.0000 0.0000
# 5 0.0000 0.0000 0.0000 0.0000 34.2669 0.0000
# 6 0.0000 0.0000 0.0000 0.0000 0.0000 43.5248
#
#
#
# Elastic Compliance Matrix: (Units=1/GPa)
#
#
# Indices 1 2 3 4 5 6 
#
# 1 0.021436 -0.009256 -0.004934 0.000000 0.000000 0.000000
# 2 -0.009256 0.021436 -0.004934 0.000000 0.000000 0.000000
# 3 -0.004934 -0.004934 0.017021 0.000000 0.000000 0.000000
# 4 0.000000 0.000000 0.000000 0.029183 0.000000 0.000000
# 5 0.000000 0.000000 0.000000 0.000000 0.029183 0.000000
# 6 0.000000 0.000000 0.000000 0.000000 0.000000 0.022975
#
#
# Mechanical properties :
#
#
# Convention : Reuss Voigt Hill
#
# Bulk Modulus (GPa) = 46.20419 46.20475 46.20447
# Shear Modulus (GPa) = 26.78131 30.21825 28.49978
#
# Velocity S-wave (km/s) = 3.54013 3.76043 3.65194
# Velocity P-wave (km/s) = 6.19125 6.36210 6.27726
#
# Compressibility (1/GPa) = 0.02164306
#
# Stress axis : x y z
#
# Youngs Moduli (GPa) = 46.65050 46.65081 58.75188
#
# Poissons Ratio (x) = 0.43181 0.28990
# Poissons Ratio (y) = 0.43181 0.28989
# Poissons Ratio (z) = 0.23019 0.23018
#
# Static dielectric constant tensor:
#      x y z
#    x 0.333700 0.000000 0.000000 
#    y 0.000000 0.333710 0.000000 
#    z 0.000000 0.000000 1.790460 
# 
# From -- ./inp_files/5585.got.cif
#   From: 2010.05.17/outbox.cif.g08.bks.cpg/sg94_3_cif.got.tgz:5585.got - 2010.06.03 19:43:16.
