data_PCOD9550599
_publ_section_title
;
Structure prediction by ZEFSAII (Michael W. Deem and Ramdas Pophale) SiO2 
 PCOD9550599
Probable space group: P 43 2 2
;
_chemical_formula_sum "Si O2"
_cell_formula_units_Z 36
_cell_length_a 12.854838
_cell_length_b 12.854838
_cell_length_c 11.290306
_cell_angle_alpha 90.000000
_cell_angle_beta 90.000000
_cell_angle_gamma 90.000000
_cell_volume 1865.687615
_symmetry_space_group_name_H-M "P 43 2 2"
_symmetry_group_IT_number 95
_symmetry_cell_setting 'tetragonal'
loop_
_space_group_symop_operation_xyz
x,y,z
-y,x,3/4+z
-x,-y,1/2+z
y,-x,1/4+z
x,-y,1/2-z
-x,y,-z
y,x,1/4-z
-y,-x,3/4-z
loop_
_atom_site_type_symbol
_atom_site_label
_atom_site_fract_x
_atom_site_fract_y
_atom_site_fract_z
Si Si1 0.874290 0.898961 0.329224
Si Si2 0.542746 0.136225 0.371068
Si Si3 0.927452 0.226760 0.825946
Si Si4 0.095589 0.467053 0.127845
Si Si5 0.229647 0.229647 0.625000
O O1 0.796918 0.927894 0.435214
O O2 0.824266 0.816170 0.241411
O O3 0.978389 0.843730 0.374066
O O4 0.899113 0.000000 0.250000
O O5 0.500000 0.168418 0.500000
O O6 0.482778 0.154570 0.246481
O O7 0.652147 0.193747 0.362330
O O8 0.538540 0.009255 0.376043
O O9 0.820278 0.179723 0.875000
O O10 0.938127 0.346800 0.859414
O O11 0.151966 0.500000 0.250000
#
# Coordination Sequence:
#
# PCOD9550599 Si02
#       5
#     8   8   8   8   4
#     4  12  23  38  57  95 139 184 216 255 305 409
#     4  10  23  39  65  89 121 158 216 271 321 381
#     4  12  25  37  62  93 141 180 217 257 323 395
#     4  10  22  42  61  88 127 169 212 272 318 372
#     4  12  24  38  66  92 122 168 222 264 336 386
#
# _framework density 19.295833999999999
#
# number of rings (size 3 to 8) (size 9 to 14) (size 15 to 20)
#    0.000    0.889    2.222    6.000   12.444    0.000 
#    0.000    0.000    0.000    0.000    2.889    0.000 
#    0.000    0.000    0.000    0.000    0.000    0.000 
#
# Total GULP energy -200937.050193 kJ/mol
# GULP energy per Si atom -5581.584728 kJ/mol
# Density = 1.925192 g / cm^3
# Si number density = 19.295834 Si / 1000 Ang^3
#
#
#
# Elastic Constant Matrix: (Units=GPa)
#
#
# Indices 1 2 3 4 5 6 
#
# 1 93.8430 61.4240 43.6884 0.0000 0.0000 0.0000
# 2 61.4240 93.8394 43.6868 0.0000 0.0000 0.0000
# 3 43.6884 43.6868 182.3784 0.0000 0.0000 0.0000
# 4 0.0000 0.0000 0.0000 24.9035 0.0000 0.0000
# 5 0.0000 0.0000 0.0000 0.0000 24.9037 0.0000
# 6 0.0000 0.0000 0.0000 0.0000 0.0000 19.7531
#
#
#
# Elastic Compliance Matrix: (Units=1/GPa)
#
#
# Indices 1 2 3 4 5 6 
#
# 1 0.019146 -0.011702 -0.001783 0.000000 0.000000 0.000000
# 2 -0.011702 0.019146 -0.001783 0.000000 0.000000 0.000000
# 3 -0.001783 -0.001783 0.006337 0.000000 0.000000 0.000000
# 4 0.000000 0.000000 0.000000 0.040155 0.000000 0.000000
# 5 0.000000 0.000000 0.000000 0.000000 0.040155 0.000000
# 6 0.000000 0.000000 0.000000 0.000000 0.000000 0.050625
#
#
# Mechanical properties :
#
#
# Convention : Reuss Voigt Hill
#
# Bulk Modulus (GPa) = 70.95805 74.18434 72.57120
# Shear Modulus (GPa) = 23.71940 28.66284 26.19112
#
# Velocity S-wave (km/s) = 3.50987 3.85832 3.68821
# Velocity P-wave (km/s) = 7.29926 7.64056 7.47186
#
# Compressibility (1/GPa) = 0.01409283
#
# Stress axis : x y z
#
# Youngs Moduli (GPa) = 52.23133 52.22959 157.79336
#
# Poissons Ratio (x) = 0.61118 0.28138
# Poissons Ratio (y) = 0.61120 0.28136
# Poissons Ratio (z) = 0.09314 0.09313
#
# Static dielectric constant tensor:
#      x y z
#    x 1.708540 0.000000 0.000000 
#    y 0.000000 1.708540 0.000000 
#    z 0.000000 0.000000 1.774110 
# 
# From -- ./inp_files/3543.got.cif
#   From: 2010.05.17/outbox.cif.g08.bks.cpg/sg95_2_cif.got.tgz:3543.got - 2010.06.03 19:46:49.
