data_PCOD9550389
_publ_section_title
;
Structure prediction by ZEFSAII (Michael W. Deem and Ramdas Pophale) SiO2 
 PCOD9550389
Probable space group: P 42 21 2
;
_chemical_formula_sum "Si O2"
_cell_formula_units_Z 36
_cell_length_a 8.719871
_cell_length_b 8.719871
_cell_length_c 21.859463
_cell_angle_alpha 90.000000
_cell_angle_beta 90.000000
_cell_angle_gamma 90.000000
_cell_volume 1662.109413
_symmetry_space_group_name_H-M "P 42 21 2"
_symmetry_group_IT_number 94
_symmetry_cell_setting 'tetragonal'
loop_
_space_group_symop_operation_xyz
x,y,z
1/2-y,1/2+x,1/2+z
-x,-y,z
1/2+y,1/2-x,1/2+z
1/2+x,1/2-y,1/2-z
1/2-x,1/2+y,1/2-z
y,x,-z
-y,-x,-z
loop_
_atom_site_type_symbol
_atom_site_label
_atom_site_fract_x
_atom_site_fract_y
_atom_site_fract_z
Si Si1 0.000000 0.500000 0.473251
Si Si2 0.843822 0.758004 0.325008
Si Si3 0.923997 0.763356 0.553168
Si Si4 0.825288 0.946427 0.205195
Si Si5 0.251578 0.836557 0.613334
O O1 0.098192 0.396477 0.518753
O O2 0.097463 0.618247 0.432394
O O3 0.775517 0.811437 0.389567
O O4 0.793621 0.869703 0.270673
O O5 0.789048 0.587513 0.308437
O O6 0.025704 0.773570 0.337761
O O7 0.882888 0.882888 0.500000
O O8 0.095249 0.793452 0.578740
O O9 0.801108 0.820921 0.152322
O O10 0.000000 0.000000 0.204861
#
# Coordination Sequence:
#
# PCOD9550389 Si02
#       5
#     4   8   8   8   8
#     4  12  26  44  72 106 140 184 232 298 344 430
#     4  12  25  47  71 104 141 195 239 299 358 438
#     4  12  26  46  76 103 140 194 244 287 359 438
#     4  12  26  46  71 107 146 184 245 305 368 418
#     4  12  25  49  73 105 143 193 241 296 357 433
#
# _framework density 21.659226
#
# number of rings (size 3 to 8) (size 9 to 14) (size 15 to 20)
#    0.000    0.000    4.444    5.333    6.222    0.000 
#    4.000    0.000    0.000    0.000    0.000    0.000 
#    0.000    0.000    0.000    0.000    0.000    0.000 
#
# Total GULP energy -201541.951284 kJ/mol
# GULP energy per Si atom -5598.387536 kJ/mol
# Density = 2.160993 g / cm^3
# Si number density = 21.659226 Si / 1000 Ang^3
#
#
#
# Elastic Constant Matrix: (Units=GPa)
#
#
# Indices 1 2 3 4 5 6 
#
# 1 69.7401 19.8039 53.6192 0.0000 0.0000 0.0000
# 2 19.8039 69.7401 53.6192 0.0000 0.0000 0.0000
# 3 53.6192 53.6192 157.6482 0.0000 0.0000 0.0000
# 4 0.0000 0.0000 0.0000 28.7303 0.0000 0.0000
# 5 0.0000 0.0000 0.0000 0.0000 28.7303 0.0000
# 6 0.0000 0.0000 0.0000 0.0000 0.0000 29.2189
#
#
#
# Elastic Compliance Matrix: (Units=1/GPa)
#
#
# Indices 1 2 3 4 5 6 
#
# 1 0.019434 -0.000591 -0.006409 0.000000 0.000000 0.000000
# 2 -0.000591 0.019434 -0.006409 0.000000 0.000000 0.000000
# 3 -0.006409 -0.006409 0.010703 0.000000 0.000000 0.000000
# 4 0.000000 0.000000 0.000000 0.034807 0.000000 0.000000
# 5 0.000000 0.000000 0.000000 0.000000 0.034807 0.000000
# 6 0.000000 0.000000 0.000000 0.000000 0.000000 0.034224
#
#
# Mechanical properties :
#
#
# Convention : Reuss Voigt Hill
#
# Bulk Modulus (GPa) = 43.94966 61.24587 52.59777
# Shear Modulus (GPa) = 26.62248 28.67496 27.64872
#
# Velocity S-wave (km/s) = 3.50973 3.64251 3.57674
# Velocity P-wave (km/s) = 6.06298 6.78446 6.43384
#
# Compressibility (1/GPa) = 0.02275330
#
# Stress axis : x y z
#
# Youngs Moduli (GPa) = 51.45549 51.45549 93.43364
#
# Poissons Ratio (x) = 0.03043 0.59880
# Poissons Ratio (y) = 0.03043 0.59880
# Poissons Ratio (z) = 0.32977 0.32977
#
# Static dielectric constant tensor:
#      x y z
#    x 1.840960 0.000000 0.000000 
#    y 0.000000 1.840960 0.000000 
#    z 0.000000 0.000000 1.767140 
# 
# From -- ./inp_files/4507.got.cif
#   From: 2010.05.17/outbox.cif.g08.bks.cpg/sg94_3_cif.got.tgz:4507.got - 2010.06.03 19:43:16.
