data_PCOD9550898
_publ_section_title
;
Structure prediction by ZEFSAII (Michael W. Deem and Ramdas Pophale) SiO2 
 PCOD9550898
Probable space group: P 43 21 2
;
_chemical_formula_sum "Si O2"
_cell_formula_units_Z 48
_cell_length_a 9.020100
_cell_length_b 9.020100
_cell_length_c 26.873765
_cell_angle_alpha 90.000000
_cell_angle_beta 90.000000
_cell_angle_gamma 90.000000
_cell_volume 2186.508750
_symmetry_space_group_name_H-M "P 43 21 2"
_symmetry_group_IT_number 96
_symmetry_cell_setting 'tetragonal'
loop_
_space_group_symop_operation_xyz
x,y,z
1/2-y,1/2+x,3/4+z
-x,-y,1/2+z
1/2+y,1/2-x,1/4+z
1/2+x,1/2-y,1/4-z
1/2-x,1/2+y,3/4-z
y,x,-z
-y,-x,1/2-z
loop_
_atom_site_type_symbol
_atom_site_label
_atom_site_fract_x
_atom_site_fract_y
_atom_site_fract_z
Si Si1 0.387253 0.733361 0.351857
Si Si2 0.287954 0.522713 0.433058
Si Si3 0.079176 0.692333 0.687094
Si Si4 0.040047 0.959954 0.750000
Si Si5 0.336271 0.118596 0.906599
Si Si6 0.070737 0.510363 0.506408
Si Si7 0.165941 0.165941 0.500000
O O1 0.288984 0.637173 0.388851
O O2 0.530066 0.788505 0.381347
O O3 0.422921 0.643460 0.301165
O O4 0.290453 0.872891 0.333883
O O5 0.453355 0.492449 0.450994
O O6 0.220137 0.583103 0.485006
O O7 0.026752 0.790801 0.733657
O O8 0.253984 0.725552 0.677449
O O9 0.035645 0.531167 0.707325
O O10 0.987270 0.725313 0.637015
O O11 0.409631 0.011285 0.948333
O O12 0.119917 0.337669 0.514722
#
# Coordination Sequence:
#
# PCOD9550898 Si02
#       7
#     8   8   8   4   8   8   4
#     4  11  22  43  66 105 140 182 236 302 356 439
#     4  11  23  41  71 102 137 189 238 298 365 435
#     4  12  25  47  73 100 148 198 244 304 377 437
#     4  12  25  44  70 105 144 194 245 294 385 452
#     4  12  25  47  71 105 147 197 243 303 373 450
#     4  11  23  45  69 106 144 189 242 308 364 444
#     4  10  21  38  72 101 140 184 241 298 375 428
#
# _framework density 21.952804
#
# number of rings (size 3 to 8) (size 9 to 14) (size 15 to 20)
#    0.000    0.667    6.667    3.000    2.333    1.333 
#    0.000    0.000    0.000    0.000    0.000    0.000 
#    0.000    0.000    0.000    0.000    0.000    0.000 
#
# Total GULP energy -267511.626091 kJ/mol
# GULP energy per Si atom -5573.158877 kJ/mol
# Density = 2.190284 g / cm^3
# Si number density = 21.952804 Si / 1000 Ang^3
#
#
#
# Elastic Constant Matrix: (Units=GPa)
#
#
# Indices 1 2 3 4 5 6 
#
# 1 43.3374 26.9184 17.3139 0.0000 0.0000 0.0000
# 2 26.9184 43.3362 17.3141 0.0000 0.0000 0.0000
# 3 17.3139 17.3141 117.1279 0.0000 0.0000 0.0000
# 4 0.0000 0.0000 0.0000 45.9954 0.0000 0.0000
# 5 0.0000 0.0000 0.0000 0.0000 45.9953 0.0000
# 6 0.0000 0.0000 0.0000 0.0000 0.0000 37.0881
#
#
#
# Elastic Compliance Matrix: (Units=1/GPa)
#
#
# Indices 1 2 3 4 5 6 
#
# 1 0.038129 -0.022777 -0.002269 0.000000 0.000000 0.000000
# 2 -0.022777 0.038130 -0.002270 0.000000 0.000000 0.000000
# 3 -0.002269 -0.002270 0.009209 0.000000 0.000000 0.000000
# 4 0.000000 0.000000 0.000000 0.021741 0.000000 0.000000
# 5 0.000000 0.000000 0.000000 0.000000 0.021741 0.000000
# 6 0.000000 0.000000 0.000000 0.000000 0.000000 0.026963
#
#
# Mechanical properties :
#
#
# Convention : Reuss Voigt Hill
#
# Bulk Modulus (GPa) = 32.42988 36.32157 34.37573
# Shear Modulus (GPa) = 22.64238 35.29945 28.97091
#
# Velocity S-wave (km/s) = 3.21504 4.01430 3.63670
# Velocity P-wave (km/s) = 5.34665 6.16988 5.77295
#
# Compressibility (1/GPa) = 0.03083576
#
# Stress axis : x y z
#
# Youngs Moduli (GPa) = 26.22658 26.22577 108.59402
#
# Poissons Ratio (x) = 0.59736 0.24643
# Poissons Ratio (y) = 0.59737 0.24646
# Poissons Ratio (z) = 0.05952 0.05952
#
# Static dielectric constant tensor:
#      x y z
#    x 1.816660 0.000000 0.000000 
#    y 0.000000 1.816660 0.000000 
#    z 0.000000 0.000000 1.861500 
# 
# From -- ./inp_files/4561.got.cif
#   From: 2010.05.17/outbox.cif.g08.bks.cpg/sg96_3_cif.got.tgz:4561.got - 2010.06.03 19:52:08.
