data_PCOD9550873
_publ_section_title
;
Structure prediction by ZEFSAII (Michael W. Deem and Ramdas Pophale) SiO2 
 PCOD9550873
Probable space group: P 43 21 2
;
_chemical_formula_sum "Si O2"
_cell_formula_units_Z 36
_cell_length_a 12.215053
_cell_length_b 12.215053
_cell_length_c 9.110487
_cell_angle_alpha 90.000000
_cell_angle_beta 90.000000
_cell_angle_gamma 90.000000
_cell_volume 1359.353169
_symmetry_space_group_name_H-M "P 43 21 2"
_symmetry_group_IT_number 96
_symmetry_cell_setting 'tetragonal'
loop_
_space_group_symop_operation_xyz
x,y,z
1/2-y,1/2+x,3/4+z
-x,-y,1/2+z
1/2+y,1/2-x,1/4+z
1/2+x,1/2-y,1/4-z
1/2-x,1/2+y,3/4-z
y,x,-z
-y,-x,1/2-z
loop_
_atom_site_type_symbol
_atom_site_label
_atom_site_fract_x
_atom_site_fract_y
_atom_site_fract_z
Si Si1 0.784778 0.892276 0.744325
Si Si2 0.009552 0.844318 0.650732
Si Si3 0.483265 0.872954 0.442544
Si Si4 0.456509 0.543492 0.250000
Si Si5 0.623149 0.788861 0.952639
O O1 0.878168 0.833817 0.650646
O O2 0.687271 0.821175 0.807038
O O3 0.724109 0.995593 0.675705
O O4 0.858814 0.930250 0.883831
O O5 0.040745 0.736519 0.742559
O O6 0.050819 0.908462 0.507675
O O7 0.053457 0.946544 0.750000
O O8 0.562388 0.940794 0.335191
O O9 0.378961 0.854170 0.332116
O O10 0.676857 0.676857 0.000000
#
# Coordination Sequence:
#
# PCOD9550873 Si02
#       5
#     8   8   8   4   8
#     4  11  22  40  70 107 143 190 244 302 376 456
#     4  10  22  47  74 105 145 188 253 314 370 452
#     4  12  27  51  71 105 156 202 253 316 384 459
#     4  10  20  44  72 110 138 182 258 314 358 458
#     4  12  21  40  70 100 141 195 239 298 375 443
#
# _framework density 26.483186
#
# number of rings (size 3 to 8) (size 9 to 14) (size 15 to 20)
#    0.000    0.889    5.556    3.333    0.000    0.000 
#   10.000    0.000    0.000    0.000    0.000    0.000 
#    0.000    0.000    0.000    0.000    0.000    0.000 
#
# Total GULP energy -200759.655137 kJ/mol
# GULP energy per Si atom -5576.657087 kJ/mol
# Density = 2.642291 g / cm^3
# Si number density = 26.483186 Si / 1000 Ang^3
#
#
#
# Elastic Constant Matrix: (Units=GPa)
#
#
# Indices 1 2 3 4 5 6 
#
# 1 65.3059 10.0501 10.5219 0.0000 0.0000 0.0000
# 2 10.0501 65.3039 10.5226 0.0000 0.0000 0.0000
# 3 10.5219 10.5226 60.8427 0.0000 0.0000 0.0000
# 4 0.0000 0.0000 0.0000 45.9533 0.0000 0.0000
# 5 0.0000 0.0000 0.0000 0.0000 45.9535 0.0000
# 6 0.0000 0.0000 0.0000 0.0000 0.0000 42.5309
#
#
#
# Elastic Compliance Matrix: (Units=1/GPa)
#
#
# Indices 1 2 3 4 5 6 
#
# 1 0.016021 -0.002077 -0.002411 0.000000 0.000000 0.000000
# 2 -0.002077 0.016021 -0.002412 0.000000 0.000000 0.000000
# 3 -0.002411 -0.002412 0.017270 0.000000 0.000000 0.000000
# 4 0.000000 0.000000 0.000000 0.021761 0.000000 0.000000
# 5 0.000000 0.000000 0.000000 0.000000 0.021761 0.000000
# 6 0.000000 0.000000 0.000000 0.000000 0.000000 0.023512
#
#
# Mechanical properties :
#
#
# Convention : Reuss Voigt Hill
#
# Bulk Modulus (GPa) = 28.15960 28.18243 28.17101
# Shear Modulus (GPa) = 35.21528 37.57806 36.39667
#
# Velocity S-wave (km/s) = 3.65049 3.77097 3.71122
# Velocity P-wave (km/s) = 5.33144 5.44289 5.38745
#
# Compressibility (1/GPa) = 0.03551187
#
# Stress axis : x y z
#
# Youngs Moduli (GPa) = 62.41927 62.41705 57.90416
#
# Poissons Ratio (x) = 0.12964 0.13963
# Poissons Ratio (y) = 0.12965 0.13964
# Poissons Ratio (z) = 0.15051 0.15053
#
# Static dielectric constant tensor:
#      x y z
#    x 2.068600 0.000000 0.000000 
#    y 0.000000 2.068610 0.000000 
#    z 0.000000 0.000000 0.559570 
# 
# From -- ./inp_files/2016.got.cif
#   From: 2010.05.17/outbox.cif.g08.bks.cpg/sg96_2_cif.got.tgz:2016.got - 2010.06.03 19:52:08.
