data_PCOD9550268
_publ_section_title
;
Structure prediction by ZEFSAII (Michael W. Deem and Ramdas Pophale) SiO2 
 PCOD9550268
Probable space group: P 42 21 2
;
_chemical_formula_sum "Si O2"
_cell_formula_units_Z 38
_cell_length_a 15.150813
_cell_length_b 15.150813
_cell_length_c 7.571010
_cell_angle_alpha 90.000000
_cell_angle_beta 90.000000
_cell_angle_gamma 90.000000
_cell_volume 1737.903651
_symmetry_space_group_name_H-M "P 42 21 2"
_symmetry_group_IT_number 94
_symmetry_cell_setting 'tetragonal'
loop_
_space_group_symop_operation_xyz
x,y,z
1/2-y,1/2+x,1/2+z
-x,-y,z
1/2+y,1/2-x,1/2+z
1/2+x,1/2-y,1/2-z
1/2-x,1/2+y,1/2-z
y,x,-z
-y,-x,-z
loop_
_atom_site_type_symbol
_atom_site_label
_atom_site_fract_x
_atom_site_fract_y
_atom_site_fract_z
Si Si1 0.000000 0.000000 0.500000
Si Si2 0.702683 0.225363 0.320134
Si Si3 0.113536 0.089938 0.213865
Si Si4 0.843116 0.490947 0.610030
Si Si5 0.500000 0.000000 0.143498
Si Si6 0.421752 0.303225 0.595278
O O1 0.968177 0.926360 0.349328
O O2 0.755855 0.244146 0.500000
O O3 0.669025 0.320730 0.246448
O O4 0.611772 0.177628 0.373592
O O5 0.757183 0.161230 0.191353
O O6 0.175418 0.002530 0.226736
O O7 0.094568 0.094568 0.000000
O O8 0.908858 0.513824 0.453149
O O9 0.905635 0.517060 0.768668
O O10 0.756063 0.543096 0.565703
O O11 0.391371 0.391371 0.500000
#
# Coordination Sequence:
#
# PCOD9550268 Si02
#       6
#     2   8   8   8   4   8
#     4  12  26  44  76 102 132 200 240 302 368 454
#     4  11  25  47  71 103 148 192 242 318 364 444
#     4  11  25  50  73 104 152 192 246 317 373 437
#     4  11  22  46  68 100 140 187 235 303 370 429
#     4  10  24  42  72 100 136 186 246 292 370 456
#     4  12  26  44  72 105 140 195 245 302 377 441
#
# _framework density 21.865423
#
# number of rings (size 3 to 8) (size 9 to 14) (size 15 to 20)
#    0.000    0.842    6.316    1.579    5.895    0.000 
#    3.789    0.000    0.000    0.000    0.000    0.000 
#    0.000    0.000    0.000    0.000    0.000    0.000 
#
# Total GULP energy -211535.940808 kJ/mol
# GULP energy per Si atom -5566.735284 kJ/mol
# Density = 2.181566 g / cm^3
# Si number density = 21.865423 Si / 1000 Ang^3
#
#
#
# Elastic Constant Matrix: (Units=GPa)
#
#
# Indices 1 2 3 4 5 6 
#
# 1 68.9119 23.1934 14.5421 0.0000 0.0000 0.0000
# 2 23.1934 68.9131 14.5422 0.0000 0.0000 0.0000
# 3 14.5421 14.5422 57.8642 0.0000 0.0000 0.0000
# 4 0.0000 0.0000 0.0000 29.6811 0.0000 0.0000
# 5 0.0000 0.0000 0.0000 0.0000 29.6797 0.0000
# 6 0.0000 0.0000 0.0000 0.0000 0.0000 115.0525
#
#
#
# Elastic Compliance Matrix: (Units=1/GPa)
#
#
# Indices 1 2 3 4 5 6 
#
# 1 0.016833 -0.005040 -0.002964 0.000000 0.000000 0.000000
# 2 -0.005040 0.016833 -0.002964 0.000000 0.000000 0.000000
# 3 -0.002964 -0.002964 0.018772 0.000000 0.000000 0.000000
# 4 0.000000 0.000000 0.000000 0.033691 0.000000 0.000000
# 5 0.000000 0.000000 0.000000 0.000000 0.033693 0.000000
# 6 0.000000 0.000000 0.000000 0.000000 0.000000 0.008692
#
#
# Mechanical properties :
#
#
# Convention : Reuss Voigt Hill
#
# Bulk Modulus (GPa) = 32.78428 33.36049 33.07238
# Shear Modulus (GPa) = 31.13025 44.44344 37.78685
#
# Velocity S-wave (km/s) = 3.77732 4.51332 4.16162
# Velocity P-wave (km/s) = 5.83527 6.51539 6.18469
#
# Compressibility (1/GPa) = 0.03050242
#
# Stress axis : x y z
#
# Youngs Moduli (GPa) = 59.40726 59.40836 53.27222
#
# Poissons Ratio (x) = 0.29941 0.15789
# Poissons Ratio (y) = 0.29940 0.15788
# Poissons Ratio (z) = 0.17607 0.17607
#
# Static dielectric constant tensor:
#      x y z
#    x 1.750450 0.000000 0.000000 
#    y 0.000000 1.750450 0.000000 
#    z 0.000000 0.000000 1.929870 
# 
# From -- ./inp_files/1370.got.cif
#   From: 2010.05.17/outbox.cif.g08.bks.cpg/sg94_1_cif.got.tgz:1370.got - 2010.06.03 19:43:16.
