data_PCOD9550062
_publ_section_title
;
Structure prediction by ZEFSAII (Michael W. Deem and Ramdas Pophale) SiO2 
 PCOD9550062
Probable space group: P 42 21 2
;
_chemical_formula_sum "Si O2"
_cell_formula_units_Z 42
_cell_length_a 10.977633
_cell_length_b 10.977633
_cell_length_c 17.707553
_cell_angle_alpha 90.000000
_cell_angle_beta 90.000000
_cell_angle_gamma 90.000000
_cell_volume 2133.909345
_symmetry_space_group_name_H-M "P 42 21 2"
_symmetry_group_IT_number 94
_symmetry_cell_setting 'tetragonal'
loop_
_space_group_symop_operation_xyz
x,y,z
1/2-y,1/2+x,1/2+z
-x,-y,z
1/2+y,1/2-x,1/2+z
1/2+x,1/2-y,1/2-z
1/2-x,1/2+y,1/2-z
y,x,-z
-y,-x,-z
loop_
_atom_site_type_symbol
_atom_site_label
_atom_site_fract_x
_atom_site_fract_y
_atom_site_fract_z
Si Si1 0.049731 0.258695 0.280270
Si Si2 0.718059 0.281942 0.000000
Si Si3 0.500000 0.000000 0.123002
Si Si4 0.541226 0.369070 0.890318
Si Si5 0.240672 0.956951 0.094808
Si Si6 0.637555 0.703513 0.759433
Si Si7 0.500000 0.500000 0.500000
O O1 0.094964 0.154648 0.337082
O O2 0.170951 0.287142 0.231868
O O3 0.020333 0.381726 0.325484
O O4 0.921322 0.213766 0.245757
O O5 0.718577 0.410087 0.044162
O O6 0.737272 0.177902 0.061402
O O7 0.371406 0.020616 0.080624
O O8 0.500000 0.500000 0.920232
O O9 0.440150 0.315253 0.834965
O O10 0.218121 0.946371 0.184666
O O11 0.120981 0.003131 0.051965
#
# Coordination Sequence:
#
# PCOD9550062 Si02
#       7
#     8   4   4   8   8   8   2
#     4  10  22  37  64  91 127 156 215 265 324 377
#     4  11  19  43  61  90 130 176 211 267 333 391
#     4  10  20  40  60  86 124 170 194 272 314 382
#     4  10  21  38  63  92 124 173 216 258 324 394
#     4  10  23  39  65  87 134 167 215 267 339 385
#     4  10  22  39  64  94 124 170 209 276 320 396
#     4  10  24  40  62 100 118 184 210 276 328 426
#
# _framework density 19.682186000000002
#
# number of rings (size 3 to 8) (size 9 to 14) (size 15 to 20)
#    0.000    1.905    3.810    0.286    9.333    0.000 
#    0.000    7.619    0.000    0.000    0.000    0.000 
#    0.000    0.000    0.000    0.000    0.000    0.000 
#
# Total GULP energy -234000.564077 kJ/mol
# GULP energy per Si atom -5571.442002 kJ/mol
# Density = 1.963739 g / cm^3
# Si number density = 19.682186 Si / 1000 Ang^3
#
#
#
# Elastic Constant Matrix: (Units=GPa)
#
#
# Indices 1 2 3 4 5 6 
#
# 1 106.3770 53.2018 21.7318 0.0000 0.0000 0.0000
# 2 53.2018 106.3774 21.7318 0.0000 0.0000 0.0000
# 3 21.7318 21.7318 65.7446 0.0000 0.0000 0.0000
# 4 0.0000 0.0000 0.0000 12.4171 0.0000 0.0000
# 5 0.0000 0.0000 0.0000 0.0000 12.4164 0.0000
# 6 0.0000 0.0000 0.0000 0.0000 0.0000 34.9073
#
#
#
# Elastic Compliance Matrix: (Units=1/GPa)
#
#
# Indices 1 2 3 4 5 6 
#
# 1 0.012846 -0.005960 -0.002276 0.000000 0.000000 0.000000
# 2 -0.005960 0.012846 -0.002276 0.000000 0.000000 0.000000
# 3 -0.002276 -0.002276 0.016715 0.000000 0.000000 0.000000
# 4 0.000000 0.000000 0.000000 0.080534 0.000000 0.000000
# 5 0.000000 0.000000 0.000000 0.000000 0.080538 0.000000
# 6 0.000000 0.000000 0.000000 0.000000 0.000000 0.028647
#
#
# Mechanical properties :
#
#
# Convention : Reuss Voigt Hill
#
# Bulk Modulus (GPa) = 46.76628 52.42552 49.59590
# Shear Modulus (GPa) = 19.21015 24.07042 21.64028
#
# Velocity S-wave (km/s) = 3.12752 3.50087 3.31945
# Velocity P-wave (km/s) = 6.07076 6.56013 6.32018
#
# Compressibility (1/GPa) = 0.02138293
#
# Stress axis : x y z
#
# Youngs Moduli (GPa) = 77.84459 77.84498 59.82567
#
# Poissons Ratio (x) = 0.46392 0.13618
# Poissons Ratio (y) = 0.46392 0.13618
# Poissons Ratio (z) = 0.17720 0.17720
#
# Static dielectric constant tensor:
#      x y z
#    x 1.728380 0.000000 0.000000 
#    y 0.000000 1.728380 0.000000 
#    z 0.000000 0.000000 1.681520 
# 
# From -- ./inp_files/4052.got.cif
#   From: 2010.05.17/outbox.cif.g08.bks.cpg/sg94_3_cif.got.tgz:4052.got - 2010.06.03 19:43:16.
