data_PCOD9550431
_publ_section_title
;
Structure prediction by ZEFSAII (Michael W. Deem and Ramdas Pophale) SiO2 
 PCOD9550431
Probable space group: P 43 2 2
;
_chemical_formula_sum "Si O2"
_cell_formula_units_Z 48
_cell_length_a 14.706838
_cell_length_b 14.706838
_cell_length_c 10.298092
_cell_angle_alpha 90.000000
_cell_angle_beta 90.000000
_cell_angle_gamma 90.000000
_cell_volume 2227.385481
_symmetry_space_group_name_H-M "P 43 2 2"
_symmetry_group_IT_number 95
_symmetry_cell_setting 'tetragonal'
loop_
_space_group_symop_operation_xyz
x,y,z
-y,x,3/4+z
-x,-y,1/2+z
y,-x,1/4+z
x,-y,1/2-z
-x,y,-z
y,x,1/4-z
-y,-x,3/4-z
loop_
_atom_site_type_symbol
_atom_site_label
_atom_site_fract_x
_atom_site_fract_y
_atom_site_fract_z
Si Si1 0.299012 0.700988 0.875000
Si Si2 0.762011 0.170323 0.599005
Si Si3 0.000000 0.290336 0.500000
Si Si4 0.500000 0.122391 0.000000
Si Si5 0.863125 0.974573 0.038076
Si Si6 0.596498 0.041340 0.612352
Si Si7 0.845770 0.154231 0.875000
Si Si8 0.837355 0.434339 0.473391
O O1 0.254868 0.738480 0.741408
O O2 0.399525 0.745843 0.849937
O O3 0.848681 0.119573 0.539122
O O4 0.676677 0.105754 0.572334
O O5 0.781133 0.177877 0.752436
O O6 0.989674 0.222770 0.380298
O O7 0.910748 0.353919 0.496619
O O8 0.521873 0.176344 0.132174
O O9 0.420540 0.048142 0.026799
O O10 0.953680 0.953680 0.125000
O O11 0.847131 0.052701 0.932669
O O12 0.492157 0.103761 0.358863
O O13 0.623199 0.000000 0.750000
#
# Coordination Sequence:
#
# PCOD9550431 Si02
#       8
#     4   8   4   4   8   8   4   8
#     4  12  24  42  63  92 136 179 214 266 342 428
#     4  12  24  44  61  87 128 169 219 282 343 403
#     4  12  20  40  64  88 124 164 222 282 348 394
#     4  10  18  34  62  96 124 162 214 274 334 414
#     4  12  24  44  60  84 120 178 237 286 328 388
#     4  10  20  36  61  93 123 157 214 280 343 405
#     4  12  28  44  61  86 120 177 236 292 328 392
#     4  11  21  37  62  97 129 170 216 281 346 424
#
# _framework density 21.54993
#
# number of rings (size 3 to 8) (size 9 to 14) (size 15 to 20)
#    0.000    0.667    5.000    5.500    0.000    4.000 
#   13.500    0.000    0.000    0.000    0.000    0.000 
#    0.000   16.000    0.000    0.000    0.000    0.667 
#
# Total GULP energy -267892.412056 kJ/mol
# GULP energy per Si atom -5581.091918 kJ/mol
# Density = 2.150088 g / cm^3
# Si number density = 21.549930 Si / 1000 Ang^3
#
#
#
# Elastic Constant Matrix: (Units=GPa)
#
#
# Indices 1 2 3 4 5 6 
#
# 1 48.7998 25.6986 13.5840 0.0000 0.0000 0.0000
# 2 25.6986 48.7993 13.5842 0.0000 0.0000 0.0000
# 3 13.5840 13.5842 135.4770 0.0000 0.0000 0.0000
# 4 0.0000 0.0000 0.0000 31.7030 0.0000 0.0000
# 5 0.0000 0.0000 0.0000 0.0000 31.7029 0.0000
# 6 0.0000 0.0000 0.0000 0.0000 0.0000 23.6454
#
#
#
# Elastic Compliance Matrix: (Units=1/GPa)
#
#
# Indices 1 2 3 4 5 6 
#
# 1 0.028610 -0.014678 -0.001397 0.000000 0.000000 0.000000
# 2 -0.014678 0.028611 -0.001397 0.000000 0.000000 0.000000
# 3 -0.001397 -0.001397 0.007661 0.000000 0.000000 0.000000
# 4 0.000000 0.000000 0.000000 0.031543 0.000000 0.000000
# 5 0.000000 0.000000 0.000000 0.000000 0.031543 0.000000
# 6 0.000000 0.000000 0.000000 0.000000 0.000000 0.042291
#
#
# Mechanical properties :
#
#
# Convention : Reuss Voigt Hill
#
# Bulk Modulus (GPa) = 33.40159 37.64551 35.52355
# Shear Modulus (GPa) = 23.23608 29.42423 26.33016
#
# Velocity S-wave (km/s) = 3.28723 3.69914 3.49925
# Velocity P-wave (km/s) = 5.47184 5.97927 5.73118
#
# Compressibility (1/GPa) = 0.02993870
#
# Stress axis : x y z
#
# Youngs Moduli (GPa) = 34.95253 34.95208 130.52311
#
# Poissons Ratio (x) = 0.51302 0.18233
# Poissons Ratio (y) = 0.51303 0.18235
# Poissons Ratio (z) = 0.04883 0.04883
#
# Static dielectric constant tensor:
#      x y z
#    x 1.832380 0.000000 0.000000 
#    y 0.000000 1.832380 0.000000 
#    z 0.000000 0.000000 1.931200 
# 
# From -- ./inp_files/2710.got.cif
#   From: 2010.05.17/outbox.cif.g08.bks.cpg/sg95_2_cif.got.tgz:2710.got - 2010.06.03 19:46:49.
