data_PCOD9550393
_publ_section_title
;
Structure prediction by ZEFSAII (Michael W. Deem and Ramdas Pophale) SiO2 
 PCOD9550393
Probable space group: P 42 21 2
;
_chemical_formula_sum "Si O2"
_cell_formula_units_Z 20
_cell_length_a 7.497360
_cell_length_b 7.497360
_cell_length_c 13.021047
_cell_angle_alpha 90.000000
_cell_angle_beta 90.000000
_cell_angle_gamma 90.000000
_cell_volume 731.918351
_symmetry_space_group_name_H-M "P 42 21 2"
_symmetry_group_IT_number 94
_symmetry_cell_setting 'tetragonal'
loop_
_space_group_symop_operation_xyz
x,y,z
1/2-y,1/2+x,1/2+z
-x,-y,z
1/2+y,1/2-x,1/2+z
1/2+x,1/2-y,1/2-z
1/2-x,1/2+y,1/2-z
y,x,-z
-y,-x,-z
loop_
_atom_site_type_symbol
_atom_site_label
_atom_site_fract_x
_atom_site_fract_y
_atom_site_fract_z
Si Si1 0.236899 0.058336 0.904215
Si Si2 0.697512 0.302489 0.000000
Si Si3 0.550300 0.782024 0.182331
O O1 0.269816 0.255273 0.859945
O O2 0.198439 0.963162 0.795485
O O3 0.115305 0.115305 0.000000
O O4 0.341574 0.897386 0.959100
O O5 0.578247 0.310456 0.100408
O O6 0.500000 0.000000 0.188890
#
# Coordination Sequence:
#
# PCOD9550393 Si02
#       3
#     8   4   8
#     4  12  27  49  81 123 164 217 279 347 414 495
#     4  12  27  54  87 120 170 219 278 353 418 496
#     4  12  28  49  84 120 166 223 285 340 423 502
#
# _framework density 27.325451999999999
#
# number of rings (size 3 to 8) (size 9 to 14) (size 15 to 20)
#    0.000    0.000    8.000    0.600    5.600    0.000 
#    0.000    5.000    0.000    0.000    0.000    0.000 
#    0.000    0.000    0.000    0.000    0.000    0.000 
#
# Total GULP energy -111412.565650 kJ/mol
# GULP energy per Si atom -5570.628283 kJ/mol
# Density = 2.726326 g / cm^3
# Si number density = 27.325452 Si / 1000 Ang^3
#
#
#
# Elastic Constant Matrix: (Units=GPa)
#
#
# Indices 1 2 3 4 5 6 
#
# 1 183.8188 8.6294 53.6921 0.0000 0.0000 0.0000
# 2 8.6294 183.8172 53.6918 0.0000 0.0000 0.0000
# 3 53.6921 53.6918 315.8479 0.0000 0.0000 0.0000
# 4 0.0000 0.0000 0.0000 -89.1828 0.0000 0.0000
# 5 0.0000 0.0000 0.0000 0.0000 -89.1807 0.0000
# 6 0.0000 0.0000 0.0000 0.0000 0.0000 21.3968
#
#
#
# Elastic Compliance Matrix: (Units=1/GPa)
#
#
# Indices 1 2 3 4 5 6 
#
# 1 0.005724 0.000016 -0.000976 0.000000 0.000000 0.000000
# 2 0.000016 0.005724 -0.000976 0.000000 0.000000 0.000000
# 3 -0.000976 -0.000976 0.003498 0.000000 0.000000 0.000000
# 4 0.000000 0.000000 0.000000 -0.011213 0.000000 0.000000
# 5 0.000000 0.000000 0.000000 0.000000 -0.011213 0.000000
# 6 0.000000 0.000000 0.000000 0.000000 0.000000 0.046736
#
#
# Mechanical properties :
#
#
# Convention : Reuss Voigt Hill
#
# Bulk Modulus (GPa) = 90.28664 101.72339 96.00501
# Shear Modulus (GPa) = 106.79325 6.43805 56.61565
#
# Velocity S-wave (km/s) = 6.25834 1.53661 4.55675
# Velocity P-wave (km/s) = 9.23771 6.36048 7.93067
#
# Compressibility (1/GPa) = 0.01107584
#
# Stress axis : x y z
#
# Youngs Moduli (GPa) = 174.69011 174.68861 285.88835
#
# Poissons Ratio (x) = -0.00285 0.27899
# Poissons Ratio (y) = -0.00285 0.27900
# Poissons Ratio (z) = 0.17048 0.17048
#
# Static dielectric constant tensor:
#      x y z
#    x 2.182810 0.000000 0.000000 
#    y 0.000000 2.182810 0.000000 
#    z 0.000000 0.000000 2.000370 
# 
# From -- ./inp_files/1889.got.cif
#   From: 2010.05.17/outbox.cif.g08.bks.cpg/sg94_1_cif.got.tgz:1889.got - 2010.06.03 19:43:16.
