data_PCOD9550335
_publ_section_title
;
Structure prediction by ZEFSAII (Michael W. Deem and Ramdas Pophale) SiO2 
 PCOD9550335
Probable space group: P 42 21 2
;
_chemical_formula_sum "Si O2"
_cell_formula_units_Z 16
_cell_length_a 8.478222
_cell_length_b 8.478222
_cell_length_c 8.314062
_cell_angle_alpha 90.000000
_cell_angle_beta 90.000000
_cell_angle_gamma 90.000000
_cell_volume 597.616841
_symmetry_space_group_name_H-M "P 42 21 2"
_symmetry_group_IT_number 94
_symmetry_cell_setting 'tetragonal'
loop_
_space_group_symop_operation_xyz
x,y,z
1/2-y,1/2+x,1/2+z
-x,-y,z
1/2+y,1/2-x,1/2+z
1/2+x,1/2-y,1/2-z
1/2-x,1/2+y,1/2-z
y,x,-z
-y,-x,-z
loop_
_atom_site_type_symbol
_atom_site_label
_atom_site_fract_x
_atom_site_fract_y
_atom_site_fract_z
Si Si1 0.353218 0.402713 0.754085
Si Si2 0.673461 0.954552 0.041806
O O1 0.500000 0.500000 0.824812
O O2 0.425500 0.245555 0.673638
O O3 0.287191 0.513894 0.610092
O O4 0.212194 0.356401 0.871110
O O5 0.500000 0.000000 0.984663
#
# Coordination Sequence:
#
# PCOD9550335 Si02
#       2
#     8   8
#     4  11  25  46  74 109 156 206 262 326 389 469
#     4  11  23  43  74 112 153 204 261 326 397 465
#
# _framework density 26.773009999999999
#
# number of rings (size 3 to 8) (size 9 to 14) (size 15 to 20)
#    0.000    1.000    0.000    7.500    0.000    4.000 
#    0.000    0.000    0.000   18.000    0.000    0.000 
#    0.000    0.000    0.000    0.000    0.000    0.000 
#
# Total GULP energy -89764.214737 kJ/mol
# GULP energy per Si atom -5610.263421 kJ/mol
# Density = 2.671207 g / cm^3
# Si number density = 26.773010 Si / 1000 Ang^3
#
#
#
# Elastic Constant Matrix: (Units=GPa)
#
#
# Indices 1 2 3 4 5 6 
#
# 1 198.8220 74.2662 92.1003 0.0000 0.0000 0.0000
# 2 74.2662 198.8220 92.1003 0.0000 0.0000 0.0000
# 3 92.1003 92.1003 168.9240 0.0000 0.0000 0.0000
# 4 0.0000 0.0000 0.0000 35.8059 0.0000 0.0000
# 5 0.0000 0.0000 0.0000 0.0000 35.8059 0.0000
# 6 0.0000 0.0000 0.0000 0.0000 0.0000 74.5706
#
#
#
# Elastic Compliance Matrix: (Units=1/GPa)
#
#
# Indices 1 2 3 4 5 6 
#
# 1 0.006910 -0.001118 -0.003158 0.000000 0.000000 0.000000
# 2 -0.001118 0.006910 -0.003158 0.000000 0.000000 0.000000
# 3 -0.003158 -0.003158 0.009363 0.000000 0.000000 0.000000
# 4 0.000000 0.000000 0.000000 0.027928 0.000000 0.000000
# 5 0.000000 0.000000 0.000000 0.000000 0.027928 0.000000
# 6 0.000000 0.000000 0.000000 0.000000 0.000000 0.013410
#
#
# Mechanical properties :
#
#
# Convention : Reuss Voigt Hill
#
# Bulk Modulus (GPa) = 120.25570 120.38905 120.32238
# Shear Modulus (GPa) = 45.41741 49.77659 47.59700
#
# Velocity S-wave (km/s) = 4.12319 4.31653 4.22097
# Velocity P-wave (km/s) = 8.22690 8.36107 8.29425
#
# Compressibility (1/GPa) = 0.00831561
#
# Stress axis : x y z
#
# Youngs Moduli (GPa) = 144.71471 144.71471 106.80145
#
# Poissons Ratio (x) = 0.16185 0.33725
# Poissons Ratio (y) = 0.16185 0.33725
# Poissons Ratio (z) = 0.45698 0.45698
#
# Static dielectric constant tensor:
#      x y z
#    x 2.142280 0.000000 0.000000 
#    y 0.000000 2.142280 0.000000 
#    z 0.000000 0.000000 2.056520 
# 
# From -- ./inp_files/712.got.cif
#   From: 2010.05.17/outbox.cif.g08.bks.cpg/sg94_1_cif.got.tgz:712.got - 2010.06.03 19:43:16.
