data_PCOD9550357
_publ_section_title
;
Structure prediction by ZEFSAII (Michael W. Deem and Ramdas Pophale) SiO2 
 PCOD9550357
Probable space group: P 42 21 2
;
_chemical_formula_sum "Si O2"
_cell_formula_units_Z 24
_cell_length_a 8.484701
_cell_length_b 8.484701
_cell_length_c 13.455295
_cell_angle_alpha 90.000000
_cell_angle_beta 90.000000
_cell_angle_gamma 90.000000
_cell_volume 968.648720
_symmetry_space_group_name_H-M "P 42 21 2"
_symmetry_group_IT_number 94
_symmetry_cell_setting 'tetragonal'
loop_
_space_group_symop_operation_xyz
x,y,z
1/2-y,1/2+x,1/2+z
-x,-y,z
1/2+y,1/2-x,1/2+z
1/2+x,1/2-y,1/2-z
1/2-x,1/2+y,1/2-z
y,x,-z
-y,-x,-z
loop_
_atom_site_type_symbol
_atom_site_label
_atom_site_fract_x
_atom_site_fract_y
_atom_site_fract_z
Si Si1 0.792352 0.859253 0.147496
Si Si2 0.813854 0.566279 0.532685
Si Si3 0.178881 0.982301 0.360729
O O1 0.694694 0.701305 0.156704
O O2 0.961971 0.798244 0.105496
O O3 0.811420 0.933579 0.254675
O O4 0.694999 0.964827 0.068988
O O5 0.718112 0.718112 0.500000
O O6 0.964813 0.660199 0.579310
O O7 0.000000 0.000000 0.399564
#
# Coordination Sequence:
#
# PCOD9550357 Si02
#       3
#     8   8   8
#     4  11  24  48  74 105 151 199 249 309 378 449
#     4  11  25  47  73 105 147 194 248 309 375 452
#     4  12  26  45  75 111 148 195 250 309 377 451
#
# _framework density 24.776786000000001
#
# number of rings (size 3 to 8) (size 9 to 14) (size 15 to 20)
#    0.000    0.667    0.000    9.000    0.000    8.667 
#    0.000   16.667    0.000    0.000    0.000    0.000 
#    0.000    0.000    0.000    0.000    0.000    0.000 
#
# Total GULP energy -134073.519819 kJ/mol
# GULP energy per Si atom -5586.396659 kJ/mol
# Density = 2.472039 g / cm^3
# Si number density = 24.776786 Si / 1000 Ang^3
#
#
#
# Elastic Constant Matrix: (Units=GPa)
#
#
# Indices 1 2 3 4 5 6 
#
# 1 176.1707 8.2271 60.8849 0.0000 0.0000 0.0000
# 2 8.2271 176.1707 60.8849 0.0000 0.0000 0.0000
# 3 60.8849 60.8849 139.7688 0.0000 0.0000 0.0000
# 4 0.0000 0.0000 0.0000 23.8655 0.0000 0.0000
# 5 0.0000 0.0000 0.0000 0.0000 23.8655 0.0000
# 6 0.0000 0.0000 0.0000 0.0000 0.0000 27.2605
#
#
#
# Elastic Compliance Matrix: (Units=1/GPa)
#
#
# Indices 1 2 3 4 5 6 
#
# 1 0.006784 0.000829 -0.003316 0.000000 0.000000 0.000000
# 2 0.000829 0.006784 -0.003316 0.000000 0.000000 0.000000
# 3 -0.003316 -0.003316 0.010044 0.000000 0.000000 0.000000
# 4 0.000000 0.000000 0.000000 0.041901 0.000000 0.000000
# 5 0.000000 0.000000 0.000000 0.000000 0.041901 0.000000
# 6 0.000000 0.000000 0.000000 0.000000 0.000000 0.036683
#
#
# Mechanical properties :
#
#
# Convention : Reuss Voigt Hill
#
# Bulk Modulus (GPa) = 83.30067 83.56711 83.43389
# Shear Modulus (GPa) = 31.30760 39.13920 35.22340
#
# Velocity S-wave (km/s) = 3.55855 3.97882 3.77454
# Velocity P-wave (km/s) = 7.11181 7.41008 7.26247
#
# Compressibility (1/GPa) = 0.01200471
#
# Stress axis : x y z
#
# Youngs Moduli (GPa) = 147.41192 147.41192 99.56252
#
# Poissons Ratio (x) = -0.12225 0.33018
# Poissons Ratio (y) = -0.12225 0.33018
# Poissons Ratio (z) = 0.48887 0.48887
#
# Static dielectric constant tensor:
#      x y z
#    x 2.005220 0.000000 0.000000 
#    y 0.000000 2.005220 0.000000 
#    z 0.000000 0.000000 1.868960 
# 
# From -- ./inp_files/3073.got.cif
#   From: 2010.05.17/outbox.cif.g08.bks.cpg/sg94_2_cif.got.tgz:3073.got - 2010.06.03 19:43:16.
