data_PCOD9550033
_publ_section_title
;
Structure prediction by ZEFSAII (Michael W. Deem and Ramdas Pophale) SiO2 
 PCOD9550033
Probable space group: P 42 21 2
;
_chemical_formula_sum "Si O2"
_cell_formula_units_Z 54
_cell_length_a 13.502523
_cell_length_b 13.502523
_cell_length_c 14.448727
_cell_angle_alpha 90.000000
_cell_angle_beta 90.000000
_cell_angle_gamma 90.000000
_cell_volume 2634.264849
_symmetry_space_group_name_H-M "P 42 21 2"
_symmetry_group_IT_number 94
_symmetry_cell_setting 'tetragonal'
loop_
_space_group_symop_operation_xyz
x,y,z
1/2-y,1/2+x,1/2+z
-x,-y,z
1/2+y,1/2-x,1/2+z
1/2+x,1/2-y,1/2-z
1/2-x,1/2+y,1/2-z
y,x,-z
-y,-x,-z
loop_
_atom_site_type_symbol
_atom_site_label
_atom_site_fract_x
_atom_site_fract_y
_atom_site_fract_z
Si Si1 0.489785 0.649589 0.163243
Si Si2 0.413897 0.574232 0.347165
Si Si3 0.809729 0.190272 0.000000
Si Si4 0.500000 0.500000 0.000000
Si Si5 0.188723 0.531549 0.382435
Si Si6 0.141245 0.716832 0.254780
Si Si7 0.167218 0.314520 0.339757
Si Si8 0.006075 0.732484 0.087612
O O1 0.429608 0.583107 0.236622
O O2 0.498097 0.594617 0.066841
O O3 0.594270 0.681839 0.205498
O O4 0.432205 0.753152 0.160466
O O5 0.500000 0.500000 0.380491
O O6 0.308030 0.532485 0.374151
O O7 0.422771 0.688759 0.381564
O O8 0.811571 0.289543 0.942704
O O9 0.807462 0.094405 0.938691
O O10 0.152357 0.630856 0.331319
O O11 0.154667 0.432567 0.326998
O O12 0.172357 0.524192 0.494764
O O13 0.248614 0.753297 0.216962
O O14 0.063180 0.680869 0.174061
#
# Coordination Sequence:
#
# PCOD9550033 Si02
#       8
#     8   8   4   2   8   8   8   8
#     4  11  23  41  62  94 128 173 225 279 341 410
#     4  11  19  35  62  93 125 158 217 277 328 381
#     4   8  15  32  55  84 120 156 208 258 318 382
#     4  12  26  44  68  94 126 184 236 300 348 418
#     4  11  21  37  64  94 132 175 215 267 343 407
#     4  10  22  40  61  95 136 169 222 284 340 414
#     4  10  20  37  62  91 125 171 212 270 333 399
#     4   9  19  33  58  93 123 164 213 272 325 394
#
# _framework density 20.499077
#
# number of rings (size 3 to 8) (size 9 to 14) (size 15 to 20)
#    0.000    1.778    2.222    4.444    0.000    1.185 
#    2.667    0.000    0.000    8.889    0.000    0.000 
#    0.000    0.000    0.000    0.000    0.000    0.000 
#
# Total GULP energy -300731.494097 kJ/mol
# GULP energy per Si atom -5569.101743 kJ/mol
# Density = 2.045242 g / cm^3
# Si number density = 20.499077 Si / 1000 Ang^3
#
#
#
# Elastic Constant Matrix: (Units=GPa)
#
#
# Indices 1 2 3 4 5 6 
#
# 1 55.2285 12.1968 27.5080 0.0000 0.0000 0.0000
# 2 12.1968 55.2282 27.5081 0.0000 0.0000 0.0000
# 3 27.5080 27.5081 117.3496 0.0000 0.0000 0.0000
# 4 0.0000 0.0000 0.0000 28.5863 0.0000 0.0000
# 5 0.0000 0.0000 0.0000 0.0000 28.5864 0.0000
# 6 0.0000 0.0000 0.0000 0.0000 0.0000 34.4420
#
#
#
# Elastic Compliance Matrix: (Units=1/GPa)
#
#
# Indices 1 2 3 4 5 6 
#
# 1 0.020789 -0.002450 -0.004299 0.000000 0.000000 0.000000
# 2 -0.002450 0.020789 -0.004299 0.000000 0.000000 0.000000
# 3 -0.004299 -0.004299 0.010537 0.000000 0.000000 0.000000
# 4 0.000000 0.000000 0.000000 0.034982 0.000000 0.000000
# 5 0.000000 0.000000 0.000000 0.000000 0.034982 0.000000
# 6 0.000000 0.000000 0.000000 0.000000 0.000000 0.029034
#
#
# Mechanical properties :
#
#
# Convention : Reuss Voigt Hill
#
# Bulk Modulus (GPa) = 33.31176 40.24801 36.77988
# Shear Modulus (GPa) = 27.29046 29.02916 28.15981
#
# Velocity S-wave (km/s) = 3.65266 3.76722 3.71038
# Velocity P-wave (km/s) = 5.83737 6.21283 6.02802
#
# Compressibility (1/GPa) = 0.03001943
#
# Stress axis : x y z
#
# Youngs Moduli (GPa) = 48.10284 48.10249 94.90414
#
# Poissons Ratio (x) = 0.11785 0.40798
# Poissons Ratio (y) = 0.11785 0.40798
# Poissons Ratio (z) = 0.20679 0.20679
#
# Static dielectric constant tensor:
#      x y z
#    x 1.798660 0.000000 0.000000 
#    y 0.000000 1.798660 0.000000 
#    z 0.000000 0.000000 1.829720 
# 
# From -- ./inp_files/3579.got.cif
#   From: 2010.05.17/outbox.cif.g08.bks.cpg/sg94_2_cif.got.tgz:3579.got - 2010.06.03 19:43:16.
