data_PCOD9550520
_publ_section_title
;
Structure prediction by ZEFSAII (Michael W. Deem and Ramdas Pophale) SiO2 
 PCOD9550520
Probable space group: P 43 2 2
;
_chemical_formula_sum "Si O2"
_cell_formula_units_Z 36
_cell_length_a 9.494399
_cell_length_b 9.494399
_cell_length_c 19.137469
_cell_angle_alpha 90.000000
_cell_angle_beta 90.000000
_cell_angle_gamma 90.000000
_cell_volume 1725.120587
_symmetry_space_group_name_H-M "P 43 2 2"
_symmetry_group_IT_number 95
_symmetry_cell_setting 'tetragonal'
loop_
_space_group_symop_operation_xyz
x,y,z
-y,x,3/4+z
-x,-y,1/2+z
y,-x,1/4+z
x,-y,1/2-z
-x,y,-z
y,x,1/4-z
-y,-x,3/4-z
loop_
_atom_site_type_symbol
_atom_site_label
_atom_site_fract_x
_atom_site_fract_y
_atom_site_fract_z
Si Si1 0.652290 0.887812 0.632575
Si Si2 0.348213 0.133993 0.801540
Si Si3 0.109275 0.900505 0.163243
Si Si4 0.500000 0.997783 0.500000
Si Si5 0.144959 0.250574 0.699577
O O1 0.757081 0.757081 0.625000
O O2 0.509279 0.853211 0.675044
O O3 0.601190 0.917900 0.553291
O O4 0.739347 0.020214 0.667403
O O5 0.241350 0.124278 0.867148
O O6 0.272381 0.249840 0.753929
O O7 0.335238 0.000000 0.750000
O O8 0.992543 0.846284 0.220386
O O9 0.019023 0.019023 0.125000
O O10 0.592120 0.090395 0.447686
O O11 0.196939 0.196939 0.625000
#
# Coordination Sequence:
#
# PCOD9550520 Si02
#       5
#     8   8   8   4   8
#     4  11  26  43  66 104 140 184 229 290 361 426
#     4  12  21  41  68 101 135 173 237 284 352 424
#     4  10  20  39  69 100 128 168 232 291 348 400
#     4  12  22  42  68  94 144 182 226 296 364 416
#     4  11  22  40  69  98 134 182 234 295 345 425
#
# _framework density 20.868107999999999
#
# number of rings (size 3 to 8) (size 9 to 14) (size 15 to 20)
#    0.000    0.889    8.889    0.000    0.000    1.778 
#    0.000    2.222    0.000    0.000    0.000    0.000 
#    0.000    0.000    0.000    0.000    0.000    0.000 
#
# Total GULP energy -200466.518478 kJ/mol
# GULP energy per Si atom -5568.514402 kJ/mol
# Density = 2.082061 g / cm^3
# Si number density = 20.868108 Si / 1000 Ang^3
#
#
#
# Elastic Constant Matrix: (Units=GPa)
#
#
# Indices 1 2 3 4 5 6 
#
# 1 151.0117 65.0289 43.7564 0.0000 0.0000 0.0000
# 2 65.0289 151.0117 43.7564 0.0000 0.0000 0.0000
# 3 43.7564 43.7564 82.7261 0.0000 0.0000 0.0000
# 4 0.0000 0.0000 0.0000 35.3932 0.0000 0.0000
# 5 0.0000 0.0000 0.0000 0.0000 35.3932 0.0000
# 6 0.0000 0.0000 0.0000 0.0000 0.0000 -3.0192
#
#
#
# Elastic Compliance Matrix: (Units=1/GPa)
#
#
# Indices 1 2 3 4 5 6 
#
# 1 0.008761 -0.002870 -0.003116 0.000000 0.000000 0.000000
# 2 -0.002870 0.008761 -0.003116 0.000000 0.000000 0.000000
# 3 -0.003116 -0.003116 0.015384 0.000000 0.000000 0.000000
# 4 0.000000 0.000000 0.000000 0.028254 0.000000 0.000000
# 5 0.000000 0.000000 0.000000 0.000000 0.028254 0.000000
# 6 0.000000 0.000000 0.000000 0.000000 0.000000 -0.331215
#
#
# Mechanical properties :
#
#
# Convention : Reuss Voigt Hill
#
# Bulk Modulus (GPa) = 68.01539 76.64807 72.33173
# Shear Modulus (GPa) = -22.86263 29.03396 3.08566
#
# Velocity S-wave (km/s) = -3.31354 3.73407 1.21732
# Velocity P-wave (km/s) = 4.24551 7.44315 6.05908
#
# Compressibility (1/GPa) = 0.01470256
#
# Stress axis : x y z
#
# Youngs Moduli (GPa) = 114.14769 114.14769 65.00148
#
# Poissons Ratio (x) = 0.32756 0.20254
# Poissons Ratio (y) = 0.32756 0.20254
# Poissons Ratio (z) = 0.35567 0.35567
#
# Static dielectric constant tensor:
#      x y z
#    x 1.797890 0.000000 0.000000 
#    y 0.000000 1.797890 0.000000 
#    z 0.000000 0.000000 1.841370 
# 
# From -- ./inp_files/6244.got.cif
#   From: 2010.05.17/outbox.cif.g08.bks.cpg/sg95_4_cif.got.tgz:6244.got - 2010.06.03 19:46:49.
