data_PCOD9550468
_publ_section_title
;
Structure prediction by ZEFSAII (Michael W. Deem and Ramdas Pophale) SiO2 
 PCOD9550468
Probable space group: P 43 2 2
;
_chemical_formula_sum "Si O2"
_cell_formula_units_Z 40
_cell_length_a 8.332365
_cell_length_b 8.332365
_cell_length_c 28.102618
_cell_angle_alpha 90.000000
_cell_angle_beta 90.000000
_cell_angle_gamma 90.000000
_cell_volume 1951.117176
_symmetry_space_group_name_H-M "P 43 2 2"
_symmetry_group_IT_number 95
_symmetry_cell_setting 'tetragonal'
loop_
_space_group_symop_operation_xyz
x,y,z
-y,x,3/4+z
-x,-y,1/2+z
y,-x,1/4+z
x,-y,1/2-z
-x,y,-z
y,x,1/4-z
-y,-x,3/4-z
loop_
_atom_site_type_symbol
_atom_site_label
_atom_site_fract_x
_atom_site_fract_y
_atom_site_fract_z
Si Si1 0.485872 0.728369 0.686160
Si Si2 0.000000 0.113476 0.500000
Si Si3 0.500000 0.669583 0.500000
Si Si4 0.200126 0.799875 0.375000
Si Si5 0.791481 0.857889 0.454327
Si Si6 0.595780 0.000000 0.750000
Si Si7 0.156236 0.164567 0.403905
O O1 0.554985 0.568126 0.709056
O O2 0.630260 0.791408 0.652694
O O3 0.491359 0.856941 0.729193
O O4 0.309346 0.717278 0.663652
O O5 0.036607 0.187217 0.448374
O O6 0.152249 0.001377 0.512091
O O7 0.631070 0.782197 0.475199
O O8 0.026055 0.799907 0.348087
O O9 0.794794 0.906345 0.399136
O O10 0.923502 0.716443 0.461172
#
# Coordination Sequence:
#
# PCOD9550468 Si02
#       7
#     8   4   4   4   8   4   8
#     4  11  23  39  66  95 132 175 224 278 345 415
#     4  11  21  38  64  99 135 178 231 283 344 429
#     4  10  22  40  64 102 138 180 228 304 358 416
#     4  12  22  44  70  98 132 186 232 284 352 414
#     4  10  19  38  66  93 128 174 234 278 344 426
#     4   9  17  38  60  83 125 172 209 271 336 395
#     4  12  22  39  69  99 131 183 233 280 353 428
#
# _framework density 20.501073000000002
#
# number of rings (size 3 to 8) (size 9 to 14) (size 15 to 20)
#    0.000    1.200    4.000    4.200    0.000    0.000 
#    0.000    6.000    4.400    0.000    0.000    0.000 
#    0.000    0.000    0.000    0.000    0.000    0.000 
#
# Total GULP energy -222676.240351 kJ/mol
# GULP energy per Si atom -5566.906009 kJ/mol
# Density = 2.045441 g / cm^3
# Si number density = 20.501073 Si / 1000 Ang^3
#
#
#
# Elastic Constant Matrix: (Units=GPa)
#
#
# Indices 1 2 3 4 5 6 
#
# 1 85.1224 26.0733 24.7578 0.0000 0.0000 0.0000
# 2 26.0733 85.1223 24.7576 0.0000 0.0000 0.0000
# 3 24.7578 24.7576 124.5497 0.0000 0.0000 0.0000
# 4 0.0000 0.0000 0.0000 19.8199 0.0000 0.0000
# 5 0.0000 0.0000 0.0000 0.0000 19.8201 0.0000
# 6 0.0000 0.0000 0.0000 0.0000 0.0000 20.2594
#
#
#
# Elastic Compliance Matrix: (Units=1/GPa)
#
#
# Indices 1 2 3 4 5 6 
#
# 1 0.013401 -0.003534 -0.001961 0.000000 0.000000 0.000000
# 2 -0.003534 0.013401 -0.001961 0.000000 0.000000 0.000000
# 3 -0.001961 -0.001961 0.008809 0.000000 0.000000 0.000000
# 4 0.000000 0.000000 0.000000 0.050454 0.000000 0.000000
# 5 0.000000 0.000000 0.000000 0.000000 0.050454 0.000000
# 6 0.000000 0.000000 0.000000 0.000000 0.000000 0.049360
#
#
# Mechanical properties :
#
#
# Convention : Reuss Voigt Hill
#
# Bulk Modulus (GPa) = 48.31697 49.55242 48.93470
# Shear Modulus (GPa) = 24.07424 26.59357 25.33390
#
# Velocity S-wave (km/s) = 3.43051 3.60554 3.51912
# Velocity P-wave (km/s) = 6.26980 6.44642 6.35873
#
# Compressibility (1/GPa) = 0.02069666
#
# Stress axis : x y z
#
# Youngs Moduli (GPa) = 74.62249 74.62246 113.52510
#
# Poissons Ratio (x) = 0.26374 0.22265
# Poissons Ratio (y) = 0.26374 0.22265
# Poissons Ratio (z) = 0.14635 0.14635
#
# Static dielectric constant tensor:
#      x y z
#    x 1.777960 0.000000 0.000000 
#    y 0.000000 1.777960 0.000000 
#    z 0.000000 0.000000 1.773590 
# 
# From -- ./inp_files/6941.got.cif
#   From: 2010.05.17/outbox.cif.g08.bks.cpg/sg95_4_cif.got.tgz:6941.got - 2010.06.03 19:46:49.
