data_PCOD9550150
_publ_section_title
;
Structure prediction by ZEFSAII (Michael W. Deem and Ramdas Pophale) SiO2 
 PCOD9550150
Probable space group: P 42 21 2
;
_chemical_formula_sum "Si O2"
_cell_formula_units_Z 54
_cell_length_a 14.845958
_cell_length_b 14.845958
_cell_length_c 11.264561
_cell_angle_alpha 90.000000
_cell_angle_beta 90.000000
_cell_angle_gamma 90.000000
_cell_volume 2482.737056
_symmetry_space_group_name_H-M "P 42 21 2"
_symmetry_group_IT_number 94
_symmetry_cell_setting 'tetragonal'
loop_
_space_group_symop_operation_xyz
x,y,z
1/2-y,1/2+x,1/2+z
-x,-y,z
1/2+y,1/2-x,1/2+z
1/2+x,1/2-y,1/2-z
1/2-x,1/2+y,1/2-z
y,x,-z
-y,-x,-z
loop_
_atom_site_type_symbol
_atom_site_label
_atom_site_fract_x
_atom_site_fract_y
_atom_site_fract_z
Si Si1 0.000000 0.000000 0.500000
Si Si2 0.240057 0.705118 0.873017
Si Si3 0.865046 0.077590 0.678661
Si Si4 0.500000 0.000000 0.143051
Si Si5 0.432727 0.336951 0.602991
Si Si6 0.720041 0.773262 0.121336
Si Si7 0.052768 0.326112 0.974266
Si Si8 0.188424 0.527177 0.748556
O O1 0.087725 0.988366 0.584489
O O2 0.154745 0.771977 0.884425
O O3 0.289073 0.736642 0.750619
O O4 0.207982 0.605712 0.842400
O O5 0.289294 0.710706 0.000000
O O6 0.938723 0.108408 0.774911
O O7 0.822552 0.169527 0.625677
O O8 0.776518 0.036275 0.742721
O O9 0.410957 0.991628 0.061694
O O10 0.492475 0.088527 0.223935
O O11 0.407416 0.407416 0.500000
O O12 0.512399 0.268054 0.573596
O O13 0.652952 0.853483 0.090290
O O14 0.778026 0.778026 0.000000
O O15 0.063237 0.317204 0.114567
#
# Coordination Sequence:
#
# PCOD9550150 Si02
#       8
#     2   8   8   4   8   8   8   8
#     4  12  28  48  66 104 144 188 246 302 378 448
#     4  10  23  41  67  98 136 182 235 286 359 435
#     4  11  25  45  70  97 143 188 235 300 368 439
#     4  12  26  42  64 116 144 188 234 310 372 444
#     4  10  21  44  71  96 135 186 234 294 363 436
#     4  11  22  44  71  99 132 187 241 291 355 438
#     4  12  24  44  72 103 142 184 243 302 370 441
#     4  12  24  44  68 103 146 181 238 305 361 439
#
# _framework density 21.750188000000001
#
# number of rings (size 3 to 8) (size 9 to 14) (size 15 to 20)
#    0.000    0.889    6.667    0.444    1.037    1.185 
#    2.667    0.370    0.000    0.000    0.000    0.000 
#    0.000    0.000    0.000    0.000    0.000    0.000 
#
# Total GULP energy -301054.017865 kJ/mol
# GULP energy per Si atom -5575.074405 kJ/mol
# Density = 2.170068 g / cm^3
# Si number density = 21.750188 Si / 1000 Ang^3
#
#
#
# Elastic Constant Matrix: (Units=GPa)
#
#
# Indices 1 2 3 4 5 6 
#
# 1 56.8543 12.1924 34.9165 0.0000 0.0000 0.0000
# 2 12.1924 56.8541 34.9168 0.0000 0.0000 0.0000
# 3 34.9165 34.9168 155.0324 0.0000 0.0000 0.0000
# 4 0.0000 0.0000 0.0000 24.6319 0.0000 0.0000
# 5 0.0000 0.0000 0.0000 0.0000 24.6318 0.0000
# 6 0.0000 0.0000 0.0000 0.0000 0.0000 31.4038
#
#
#
# Elastic Compliance Matrix: (Units=1/GPa)
#
#
# Indices 1 2 3 4 5 6 
#
# 1 0.020573 -0.001818 -0.004224 0.000000 0.000000 0.000000
# 2 -0.001818 0.020573 -0.004224 0.000000 0.000000 0.000000
# 3 -0.004224 -0.004224 0.008353 0.000000 0.000000 0.000000
# 4 0.000000 0.000000 0.000000 0.040598 0.000000 0.000000
# 5 0.000000 0.000000 0.000000 0.000000 0.040598 0.000000
# 6 0.000000 0.000000 0.000000 0.000000 0.000000 0.031843
#
#
# Mechanical properties :
#
#
# Convention : Reuss Voigt Hill
#
# Bulk Modulus (GPa) = 34.52203 48.08804 41.30503
# Shear Modulus (GPa) = 25.94372 28.58118 27.26245
#
# Velocity S-wave (km/s) = 3.45745 3.62894 3.54423
# Velocity P-wave (km/s) = 5.64315 6.30208 5.98169
#
# Compressibility (1/GPa) = 0.02896701
#
# Stress axis : x y z
#
# Youngs Moduli (GPa) = 48.60791 48.60764 119.71798
#
# Poissons Ratio (x) = 0.08835 0.50569
# Poissons Ratio (y) = 0.08835 0.50570
# Poissons Ratio (z) = 0.20532 0.20532
#
# Static dielectric constant tensor:
#      x y z
#    x 1.841730 0.000000 0.000000 
#    y 0.000000 1.841730 0.000000 
#    z 0.000000 0.000000 1.799400 
# 
# From -- ./inp_files/2760.got.cif
#   From: 2010.05.17/outbox.cif.g08.bks.cpg/sg94_2_cif.got.tgz:2760.got - 2010.06.03 19:43:16.
