data_PCOD9550058
_publ_section_title
;
Structure prediction by ZEFSAII (Michael W. Deem and Ramdas Pophale) SiO2 
 PCOD9550058
Probable space group: P 42 21 2
;
_chemical_formula_sum "Si O2"
_cell_formula_units_Z 58
_cell_length_a 18.080904
_cell_length_b 18.080904
_cell_length_c 9.845960
_cell_angle_alpha 90.000000
_cell_angle_beta 90.000000
_cell_angle_gamma 90.000000
_cell_volume 3218.832278
_symmetry_space_group_name_H-M "P 42 21 2"
_symmetry_group_IT_number 94
_symmetry_cell_setting 'tetragonal'
loop_
_space_group_symop_operation_xyz
x,y,z
1/2-y,1/2+x,1/2+z
-x,-y,z
1/2+y,1/2-x,1/2+z
1/2+x,1/2-y,1/2-z
1/2-x,1/2+y,1/2-z
y,x,-z
-y,-x,-z
loop_
_atom_site_type_symbol
_atom_site_label
_atom_site_fract_x
_atom_site_fract_y
_atom_site_fract_z
Si Si1 0.826082 0.062571 0.554835
Si Si2 0.364092 0.529339 0.689986
Si Si3 0.416344 0.659323 0.882283
Si Si4 0.000000 0.000000 0.000000
Si Si5 0.070450 0.664950 0.339531
Si Si6 0.463428 0.080505 0.912833
Si Si7 0.701257 0.971429 0.913295
Si Si8 0.947638 0.691871 0.779359
O O1 0.864913 0.135088 0.500000
O O2 0.738450 0.071400 0.569572
O O3 0.851931 0.036861 0.703331
O O4 0.849656 0.994789 0.457949
O O5 0.399919 0.597315 0.771224
O O6 0.423939 0.502451 0.583180
O O7 0.283551 0.553796 0.632483
O O8 0.424337 0.737089 0.806969
O O9 0.354420 0.645581 0.000000
O O10 0.023861 0.607013 0.431205
O O11 0.148724 0.627377 0.315806
O O12 0.036983 0.683433 0.192660
O O13 0.373986 0.077236 0.895995
O O14 0.501581 0.137549 0.810372
O O15 0.500000 0.000000 0.893937
O O16 0.707004 0.986171 0.074770
#
# Coordination Sequence:
#
# PCOD9550058 Si02
#       8
#     8   8   8   2   8   8   8   8
#     4  10  20  39  63  87 120 158 210 260 312 379
#     4  10  22  38  61  93 125 163 213 267 320 374
#     4  10  21  41  64  89 122 168 214 262 313 387
#     4  12  20  36  66  88 120 172 208 258 318 384
#     4  10  22  39  58  90 127 160 204 265 312 377
#     4  11  22  38  65  91 120 171 215 259 311 388
#     4  10  23  37  58  95 130 156 203 280 315 371
#     4  11  22  39  62  92 126 166 217 255 322 386
#
# _framework density 18.018957
#
# number of rings (size 3 to 8) (size 9 to 14) (size 15 to 20)
#    0.000    1.655    2.759    1.655    3.862    1.931 
#    4.966    0.000    6.069    0.000    0.000    0.000 
#    0.000    0.000    0.000    0.000    0.000    0.000 
#
# Total GULP energy -323115.722825 kJ/mol
# GULP energy per Si atom -5570.960738 kJ/mol
# Density = 1.797795 g / cm^3
# Si number density = 18.018957 Si / 1000 Ang^3
#
#
#
# Elastic Constant Matrix: (Units=GPa)
#
#
# Indices 1 2 3 4 5 6 
#
# 1 73.9022 58.9606 50.5718 0.0000 0.0000 0.0000
# 2 58.9606 73.8917 50.5670 0.0000 0.0000 0.0000
# 3 50.5718 50.5670 118.0442 0.0000 0.0000 0.0000
# 4 0.0000 0.0000 0.0000 24.9062 0.0000 0.0000
# 5 0.0000 0.0000 0.0000 0.0000 24.9033 0.0000
# 6 0.0000 0.0000 0.0000 0.0000 0.0000 20.3474
#
#
#
# Elastic Compliance Matrix: (Units=1/GPa)
#
#
# Indices 1 2 3 4 5 6 
#
# 1 0.039058 -0.027891 -0.004785 0.000000 0.000000 0.000000
# 2 -0.027891 0.039063 -0.004785 0.000000 0.000000 0.000000
# 3 -0.004785 -0.004785 0.012571 0.000000 0.000000 0.000000
# 4 0.000000 0.000000 0.000000 0.040151 0.000000 0.000000
# 5 0.000000 0.000000 0.000000 0.000000 0.040155 0.000000
# 6 0.000000 0.000000 0.000000 0.000000 0.000000 0.049146
#
#
# Mechanical properties :
#
#
# Convention : Reuss Voigt Hill
#
# Bulk Modulus (GPa) = 63.41058 65.11523 64.26291
# Shear Modulus (GPa) = 16.64882 21.08062 18.86472
#
# Velocity S-wave (km/s) = 3.04297 3.42411 3.23915
# Velocity P-wave (km/s) = 6.90027 7.20057 7.05202
#
# Compressibility (1/GPa) = 0.01577024
#
# Stress axis : x y z
#
# Youngs Moduli (GPa) = 25.60309 25.59997 79.54784
#
# Poissons Ratio (x) = 0.71400 0.38066
# Poissons Ratio (y) = 0.71409 0.38060
# Poissons Ratio (z) = 0.12252 0.12248
#
# Static dielectric constant tensor:
#      x y z
#    x 1.612920 0.000000 0.000000 
#    y 0.000000 1.612920 0.000000 
#    z 0.000000 0.000000 1.653110 
# 
# From -- ./inp_files/1729.got.cif
#   From: 2010.05.17/outbox.cif.g08.bks.cpg/sg94_1_cif.got.tgz:1729.got - 2010.06.03 19:43:16.
