data_PCOD9550124
_publ_section_title
;
Structure prediction by ZEFSAII (Michael W. Deem and Ramdas Pophale) SiO2 
 PCOD9550124
Probable space group: P 42 21 2
;
_chemical_formula_sum "Si O2"
_cell_formula_units_Z 48
_cell_length_a 9.118163
_cell_length_b 9.118163
_cell_length_c 27.469591
_cell_angle_alpha 90.000000
_cell_angle_beta 90.000000
_cell_angle_gamma 90.000000
_cell_volume 2283.846422
_symmetry_space_group_name_H-M "P 42 21 2"
_symmetry_group_IT_number 94
_symmetry_cell_setting 'tetragonal'
loop_
_space_group_symop_operation_xyz
x,y,z
1/2-y,1/2+x,1/2+z
-x,-y,z
1/2+y,1/2-x,1/2+z
1/2+x,1/2-y,1/2-z
1/2-x,1/2+y,1/2-z
y,x,-z
-y,-x,-z
loop_
_atom_site_type_symbol
_atom_site_label
_atom_site_fract_x
_atom_site_fract_y
_atom_site_fract_z
Si Si1 0.212025 0.594348 0.147754
Si Si2 0.500000 0.000000 0.112396
Si Si3 0.296284 0.078354 0.865944
Si Si4 0.500000 0.500000 0.090761
Si Si5 0.816490 0.263991 0.446438
Si Si6 0.670974 0.141094 0.201710
Si Si7 0.115271 0.114527 0.774244
O O1 0.151093 0.435095 0.162583
O O2 0.368430 0.564641 0.123737
O O3 0.220740 0.724229 0.186935
O O4 0.080731 0.656478 0.114586
O O5 0.395388 0.093057 0.076539
O O6 0.585614 0.103389 0.151619
O O7 0.267344 0.184753 0.909900
O O8 0.160209 0.078859 0.829535
O O9 0.432629 0.368349 0.059690
O O10 0.748086 0.251915 0.500000
O O11 0.593676 0.234003 0.244168
O O12 0.740215 0.988169 0.220626
O O13 0.000000 0.000000 0.752532
#
# Coordination Sequence:
#
# PCOD9550124 Si02
#       7
#     8   4   8   4   8   8   8
#     4  10  21  40  69  93 135 179 229 284 357 413
#     4  12  26  44  72 102 146 178 236 312 360 430
#     4  10  22  43  66  99 137 186 226 295 351 429
#     4  10  21  40  68 104 132 180 224 296 353 428
#     4  11  24  44  72 102 138 183 237 296 370 432
#     4  12  26  42  66 101 137 190 237 287 355 421
#     4  12  26  41  66  96 139 185 238 284 351 433
#
# _framework density 21.017177
#
# number of rings (size 3 to 8) (size 9 to 14) (size 15 to 20)
#    0.000    1.000    5.000    1.250    3.500    4.000 
#    0.000    0.000    0.000    3.500    0.000    0.000 
#    0.000    0.000    0.000    0.000    0.000    0.000 
#
# Total GULP energy -267242.331100 kJ/mol
# GULP energy per Si atom -5567.548565 kJ/mol
# Density = 2.096934 g / cm^3
# Si number density = 21.017177 Si / 1000 Ang^3
#
#
#
# Elastic Constant Matrix: (Units=GPa)
#
#
# Indices 1 2 3 4 5 6 
#
# 1 110.7322 40.0326 49.4604 0.0000 0.0000 0.0000
# 2 40.0326 110.7320 49.4603 0.0000 0.0000 0.0000
# 3 49.4604 49.4603 113.4016 0.0000 0.0000 0.0000
# 4 0.0000 0.0000 0.0000 7.9556 0.0000 0.0000
# 5 0.0000 0.0000 0.0000 0.0000 7.9554 0.0000
# 6 0.0000 0.0000 0.0000 0.0000 0.0000 29.5031
#
#
#
# Elastic Compliance Matrix: (Units=1/GPa)
#
#
# Indices 1 2 3 4 5 6 
#
# 1 0.011718 -0.002426 -0.004053 0.000000 0.000000 0.000000
# 2 -0.002426 0.011718 -0.004053 0.000000 0.000000 0.000000
# 3 -0.004053 -0.004053 0.012353 0.000000 0.000000 0.000000
# 4 0.000000 0.000000 0.000000 0.125697 0.000000 0.000000
# 5 0.000000 0.000000 0.000000 0.000000 0.125701 0.000000
# 6 0.000000 0.000000 0.000000 0.000000 0.000000 0.033895
#
#
# Mechanical properties :
#
#
# Convention : Reuss Voigt Hill
#
# Bulk Modulus (GPa) = 67.90486 68.08581 67.99534
# Shear Modulus (GPa) = 14.40697 22.14366 18.27532
#
# Velocity S-wave (km/s) = 2.62102 3.24944 2.95200
# Velocity P-wave (km/s) = 6.44508 6.82232 6.63638
#
# Compressibility (1/GPa) = 0.01472649
#
# Stress axis : x y z
#
# Youngs Moduli (GPa) = 85.33780 85.33763 80.94936
#
# Poissons Ratio (x) = 0.20705 0.32806
# Poissons Ratio (y) = 0.20705 0.32806
# Poissons Ratio (z) = 0.34585 0.34585
#
# Static dielectric constant tensor:
#      x y z
#    x 1.856130 0.000000 0.000000 
#    y 0.000000 1.856130 0.000000 
#    z 0.000000 0.000000 1.755590 
# 
# From -- ./inp_files/5659.got.cif
#   From: 2010.05.17/outbox.cif.g08.bks.cpg/sg94_3_cif.got.tgz:5659.got - 2010.06.03 19:43:16.
