data_PCOD9550173
_publ_section_title
;
Structure prediction by ZEFSAII (Michael W. Deem and Ramdas Pophale) SiO2 
 PCOD9550173
Probable space group: P 42 21 2
;
_chemical_formula_sum "Si O2"
_cell_formula_units_Z 32
_cell_length_a 9.705462
_cell_length_b 9.705462
_cell_length_c 14.617507
_cell_angle_alpha 90.000000
_cell_angle_beta 90.000000
_cell_angle_gamma 90.000000
_cell_volume 1376.910582
_symmetry_space_group_name_H-M "P 42 21 2"
_symmetry_group_IT_number 94
_symmetry_cell_setting 'tetragonal'
loop_
_space_group_symop_operation_xyz
x,y,z
1/2-y,1/2+x,1/2+z
-x,-y,z
1/2+y,1/2-x,1/2+z
1/2+x,1/2-y,1/2-z
1/2-x,1/2+y,1/2-z
y,x,-z
-y,-x,-z
loop_
_atom_site_type_symbol
_atom_site_label
_atom_site_fract_x
_atom_site_fract_y
_atom_site_fract_z
Si Si1 0.882421 0.669132 0.100643
Si Si2 0.909627 0.675925 0.302863
Si Si3 0.181126 0.576206 0.400382
Si Si4 0.348605 0.567399 0.096832
O O1 0.954626 0.658275 0.198225
O O2 0.803424 0.814988 0.102467
O O3 0.766321 0.550051 0.096243
O O4 0.966761 0.663034 0.006639
O O5 0.807679 0.554443 0.334645
O O6 0.838200 0.820490 0.323430
O O7 0.043679 0.655438 0.366376
O O8 0.500000 0.500000 0.105884
O O9 0.352860 0.647141 0.000000
#
# Coordination Sequence:
#
# PCOD9550173 Si02
#       4
#     8   8   8   8
#     4  11  21  41  63  86 126 169 210 272 321 390
#     4  11  22  36  61  94 120 159 215 264 330 384
#     4  10  22  40  58  89 126 163 206 273 327 377
#     4  11  19  39  64  89 119 171 217 264 311 396
#
# _framework density 23.240434
#
# number of rings (size 3 to 8) (size 9 to 14) (size 15 to 20)
#    0.000    1.250    5.000    3.000    0.000    4.000 
#    4.500    0.000    0.000    0.000    0.000    0.000 
#    0.000    0.000    0.000    0.000    0.000    0.000 
#
# Total GULP energy -179064.690921 kJ/mol
# GULP energy per Si atom -5595.771591 kJ/mol
# Density = 2.318754 g / cm^3
# Si number density = 23.240434 Si / 1000 Ang^3
#
#
#
# Elastic Constant Matrix: (Units=GPa)
#
#
# Indices 1 2 3 4 5 6 
#
# 1 52.0790 -8.8907 5.8769 0.0000 0.0000 0.0000
# 2 -8.8907 52.0789 5.8769 0.0000 0.0000 0.0000
# 3 5.8769 5.8769 182.1689 0.0000 0.0000 0.0000
# 4 0.0000 0.0000 0.0000 20.5323 0.0000 0.0000
# 5 0.0000 0.0000 0.0000 0.0000 20.5324 0.0000
# 6 0.0000 0.0000 0.0000 0.0000 0.0000 27.0367
#
#
#
# Elastic Compliance Matrix: (Units=1/GPa)
#
#
# Indices 1 2 3 4 5 6 
#
# 1 0.019881 0.003479 -0.000754 0.000000 0.000000 0.000000
# 2 0.003479 0.019881 -0.000754 0.000000 0.000000 0.000000
# 3 -0.000754 -0.000754 0.005538 0.000000 0.000000 0.000000
# 4 0.000000 0.000000 0.000000 0.048704 0.000000 0.000000
# 5 0.000000 0.000000 0.000000 0.000000 0.048704 0.000000
# 6 0.000000 0.000000 0.000000 0.000000 0.000000 0.036987
#
#
# Mechanical properties :
#
#
# Convention : Reuss Voigt Hill
#
# Bulk Modulus (GPa) = 20.30758 32.45034 26.37896
# Shear Modulus (GPa) = 26.01945 32.51786 29.26866
#
# Velocity S-wave (km/s) = 3.34964 3.74464 3.55263
# Velocity P-wave (km/s) = 4.87002 5.71748 5.31068
#
# Compressibility (1/GPa) = 0.04924269
#
# Stress axis : x y z
#
# Youngs Moduli (GPa) = 50.30046 50.30032 180.56955
#
# Poissons Ratio (x) = -0.17499 0.13608
# Poissons Ratio (y) = -0.17499 0.13608
# Poissons Ratio (z) = 0.03791 0.03791
#
# Static dielectric constant tensor:
#      x y z
#    x 1.872050 0.000000 0.000000 
#    y 0.000000 1.872050 0.000000 
#    z 0.000000 0.000000 1.920890 
# 
# From -- ./inp_files/3183.got.cif
#   From: 2010.05.17/outbox.cif.g08.bks.cpg/sg94_2_cif.got.tgz:3183.got - 2010.06.03 19:43:16.
