data_PCOD9550263
_publ_section_title
;
Structure prediction by ZEFSAII (Michael W. Deem and Ramdas Pophale) SiO2 
 PCOD9550263
Probable space group: P 42 21 2
;
_chemical_formula_sum "Si O2"
_cell_formula_units_Z 24
_cell_length_a 8.311120
_cell_length_b 8.311120
_cell_length_c 12.483563
_cell_angle_alpha 90.000000
_cell_angle_beta 90.000000
_cell_angle_gamma 90.000000
_cell_volume 862.298565
_symmetry_space_group_name_H-M "P 42 21 2"
_symmetry_group_IT_number 94
_symmetry_cell_setting 'tetragonal'
loop_
_space_group_symop_operation_xyz
x,y,z
1/2-y,1/2+x,1/2+z
-x,-y,z
1/2+y,1/2-x,1/2+z
1/2+x,1/2-y,1/2-z
1/2-x,1/2+y,1/2-z
y,x,-z
-y,-x,-z
loop_
_atom_site_type_symbol
_atom_site_label
_atom_site_fract_x
_atom_site_fract_y
_atom_site_fract_z
Si Si1 0.771277 0.648344 0.905700
Si Si2 0.000000 0.500000 0.258498
Si Si3 0.801524 0.801524 0.500000
Si Si4 0.831372 0.077033 0.816331
O O1 0.937670 0.637570 0.839939
O O2 0.736618 0.486848 0.974811
O O3 0.647028 0.635837 0.806927
O O4 0.777066 0.777066 0.000000
O O5 0.032839 0.333211 0.196567
O O6 0.706471 0.738586 0.397338
O O7 0.000000 0.000000 0.848883
#
# Coordination Sequence:
#
# PCOD9550263 Si02
#       4
#     8   4   4   8
#     4  10  23  48  77 109 160 226 286 362 434 525
#     4   8  24  46  72 120 160 238 290 358 460 532
#     4  12  24  42  80 120 156 238 298 346 454 526
#     4  10  23  48  75 117 171 226 288 369 436 531
#
# _framework density 27.832584000000001
#
# number of rings (size 3 to 8) (size 9 to 14) (size 15 to 20)
#    2.000    0.000    0.000    3.000    0.000    6.667 
#    6.000    0.000    0.000    0.000    0.000    0.000 
#    0.000    0.000    0.000    0.000    0.000    0.000 
#
# Total GULP energy -134089.710535 kJ/mol
# GULP energy per Si atom -5587.071272 kJ/mol
# Density = 2.776924 g / cm^3
# Si number density = 27.832584 Si / 1000 Ang^3
#
#
#
# Elastic Constant Matrix: (Units=GPa)
#
#
# Indices 1 2 3 4 5 6 
#
# 1 133.6932 20.1925 33.2212 0.0000 0.0000 0.0000
# 2 20.1925 133.6932 33.2212 0.0000 0.0000 0.0000
# 3 33.2212 33.2212 174.7400 0.0000 0.0000 0.0000
# 4 0.0000 0.0000 0.0000 42.1505 0.0000 0.0000
# 5 0.0000 0.0000 0.0000 0.0000 42.1505 0.0000
# 6 0.0000 0.0000 0.0000 0.0000 0.0000 29.1403
#
#
#
# Elastic Compliance Matrix: (Units=1/GPa)
#
#
# Indices 1 2 3 4 5 6 
#
# 1 0.007945 -0.000866 -0.001346 0.000000 0.000000 0.000000
# 2 -0.000866 0.007945 -0.001346 0.000000 0.000000 0.000000
# 3 -0.001346 -0.001346 0.006235 0.000000 0.000000 0.000000
# 4 0.000000 0.000000 0.000000 0.023724 0.000000 0.000000
# 5 0.000000 0.000000 0.000000 0.000000 0.023724 0.000000
# 6 0.000000 0.000000 0.000000 0.000000 0.000000 0.034317
#
#
# Mechanical properties :
#
#
# Convention : Reuss Voigt Hill
#
# Bulk Modulus (GPa) = 66.62338 68.37735 67.50037
# Shear Modulus (GPa) = 43.10035 46.38770 44.74402
#
# Velocity S-wave (km/s) = 3.93944 4.08691 4.01385
# Velocity P-wave (km/s) = 6.68442 6.84772 6.76656
#
# Compressibility (1/GPa) = 0.01500975
#
# Stress axis : x y z
#
# Youngs Moduli (GPa) = 125.86554 125.86554 160.39633
#
# Poissons Ratio (x) = 0.10894 0.21588
# Poissons Ratio (y) = 0.10894 0.21588
# Poissons Ratio (z) = 0.16941 0.16941
#
# Static dielectric constant tensor:
#      x y z
#    x 1.628610 0.000000 0.000000 
#    y 0.000000 1.628610 0.000000 
#    z 0.000000 0.000000 2.060830 
# 
# From -- ./inp_files/3115.got.cif
#   From: 2010.05.17/outbox.cif.g08.bks.cpg/sg94_2_cif.got.tgz:3115.got - 2010.06.03 19:43:16.
