data_PCOD9550903
_publ_section_title
;
Structure prediction by ZEFSAII (Michael W. Deem and Ramdas Pophale) SiO2 
 PCOD9550903
Probable space group: P 43 21 2
;
_chemical_formula_sum "Si O2"
_cell_formula_units_Z 60
_cell_length_a 11.756582
_cell_length_b 11.756582
_cell_length_c 20.338306
_cell_angle_alpha 90.000000
_cell_angle_beta 90.000000
_cell_angle_gamma 90.000000
_cell_volume 2811.104121
_symmetry_space_group_name_H-M "P 43 21 2"
_symmetry_group_IT_number 96
_symmetry_cell_setting 'tetragonal'
loop_
_space_group_symop_operation_xyz
x,y,z
1/2-y,1/2+x,3/4+z
-x,-y,1/2+z
1/2+y,1/2-x,1/4+z
1/2+x,1/2-y,1/4-z
1/2-x,1/2+y,3/4-z
y,x,-z
-y,-x,1/2-z
loop_
_atom_site_type_symbol
_atom_site_label
_atom_site_fract_x
_atom_site_fract_y
_atom_site_fract_z
Si Si1 0.062622 0.659750 0.614413
Si Si2 0.814944 0.927766 0.204418
Si Si3 0.219868 0.611801 0.372406
Si Si4 0.999833 0.906992 0.651787
Si Si5 0.323312 0.676689 0.250000
Si Si6 0.989372 0.428083 0.262270
Si Si7 0.163223 0.419767 0.461844
Si Si8 0.735337 0.502688 0.088448
O O1 0.040231 0.794600 0.613477
O O2 0.048316 0.615088 0.689612
O O3 0.973126 0.605514 0.563118
O O4 0.186292 0.610147 0.594726
O O5 0.839809 0.803228 0.177793
O O6 0.859860 0.955388 0.277648
O O7 0.681169 0.952614 0.205211
O O8 0.890766 0.013217 0.160361
O O9 0.294066 0.587035 0.306166
O O10 0.169541 0.493570 0.397526
O O11 0.111403 0.695869 0.366661
O O12 0.887922 0.978421 0.630691
O O13 0.212713 0.677988 0.203369
O O14 0.060246 0.542288 0.247179
O O15 0.262047 0.462231 0.511501
#
# Coordination Sequence:
#
# PCOD9550903 Si02
#       8
#     8   8   8   8   4   8   8   8
#     4  10  22  40  67  93 130 175 224 278 326 404
#     4  10  23  40  69  96 128 176 219 280 329 403
#     4  11  22  38  64  95 129 174 216 279 333 397
#     4  10  22  41  66  98 128 174 225 273 335 400
#     4  10  26  36  66  98 124 178 224 280 326 410
#     4  10  22  42  65  99 129 174 231 265 337 405
#     4  10  21  41  62  92 131 168 220 271 333 401
#     4  10  21  39  65  96 123 175 220 269 342 405
#
# _framework density 21.343924999999999
#
# number of rings (size 3 to 8) (size 9 to 14) (size 15 to 20)
#    0.000    1.867    2.667    0.000    7.467    0.000 
#    0.000    0.000    8.800    0.000    0.000    0.000 
#    0.000    0.000    0.000    0.000    0.000    0.000 
#
# Total GULP energy -334507.378879 kJ/mol
# GULP energy per Si atom -5575.122981 kJ/mol
# Density = 2.129535 g / cm^3
# Si number density = 21.343925 Si / 1000 Ang^3
#
#
#
# Elastic Constant Matrix: (Units=GPa)
#
#
# Indices 1 2 3 4 5 6 
#
# 1 59.9422 45.2716 19.3490 0.0000 0.0000 0.0000
# 2 45.2716 59.9435 19.3494 0.0000 0.0000 0.0000
# 3 19.3490 19.3494 60.7724 0.0000 0.0000 0.0000
# 4 0.0000 0.0000 0.0000 31.1044 0.0000 0.0000
# 5 0.0000 0.0000 0.0000 0.0000 31.1046 0.0000
# 6 0.0000 0.0000 0.0000 0.0000 0.0000 25.6495
#
#
#
# Elastic Compliance Matrix: (Units=1/GPa)
#
#
# Indices 1 2 3 4 5 6 
#
# 1 0.039463 -0.028698 -0.003427 0.000000 0.000000 0.000000
# 2 -0.028698 0.039463 -0.003428 0.000000 0.000000 0.000000
# 3 -0.003427 -0.003428 0.018637 0.000000 0.000000 0.000000
# 4 0.000000 0.000000 0.000000 0.032150 0.000000 0.000000
# 5 0.000000 0.000000 0.000000 0.000000 0.032150 0.000000
# 6 0.000000 0.000000 0.000000 0.000000 0.000000 0.038987
#
#
# Mechanical properties :
#
#
# Convention : Reuss Voigt Hill
#
# Bulk Modulus (GPa) = 37.79632 38.73311 38.26472
# Shear Modulus (GPa) = 17.80789 24.01756 20.91272
#
# Velocity S-wave (km/s) = 2.89161 3.35814 3.13357
# Velocity P-wave (km/s) = 5.37543 5.76391 5.57305
#
# Compressibility (1/GPa) = 0.02645760
#
# Stress axis : x y z
#
# Youngs Moduli (GPa) = 25.34002 25.34050 53.65566
#
# Poissons Ratio (x) = 0.72722 0.18389
# Poissons Ratio (y) = 0.72720 0.18391
# Poissons Ratio (z) = 0.08685 0.08686
#
# Static dielectric constant tensor:
#      x y z
#    x 1.783430 0.000000 0.000000 
#    y 0.000000 1.783430 0.000000 
#    z 0.000000 0.000000 1.849050 
# 
# From -- ./inp_files/3603.got.cif
#   From: 2010.05.17/outbox.cif.g08.bks.cpg/sg96_2_cif.got.tgz:3603.got - 2010.06.03 19:52:08.
