data_PCOD9550750
_publ_section_title
;
Structure prediction by ZEFSAII (Michael W. Deem and Ramdas Pophale) SiO2 
 PCOD9550750
Probable space group: P 43 21 2
;
_chemical_formula_sum "Si O2"
_cell_formula_units_Z 44
_cell_length_a 14.746310
_cell_length_b 14.746310
_cell_length_c 9.122190
_cell_angle_alpha 90.000000
_cell_angle_beta 90.000000
_cell_angle_gamma 90.000000
_cell_volume 1983.653590
_symmetry_space_group_name_H-M "P 43 21 2"
_symmetry_group_IT_number 96
_symmetry_cell_setting 'tetragonal'
loop_
_space_group_symop_operation_xyz
x,y,z
1/2-y,1/2+x,3/4+z
-x,-y,1/2+z
1/2+y,1/2-x,1/4+z
1/2+x,1/2-y,1/4-z
1/2-x,1/2+y,3/4-z
y,x,-z
-y,-x,1/2-z
loop_
_atom_site_type_symbol
_atom_site_label
_atom_site_fract_x
_atom_site_fract_y
_atom_site_fract_z
Si Si1 0.279958 0.906493 0.135810
Si Si2 0.408757 0.945321 0.635048
Si Si3 0.580627 0.580627 0.000000
Si Si4 0.641888 0.380931 0.971794
Si Si5 0.905979 0.719903 0.955561
Si Si6 0.188942 0.616868 0.633611
O O1 0.170137 0.907981 0.145079
O O2 0.321530 0.848276 0.271224
O O3 0.318775 0.008435 0.148054
O O4 0.321033 0.863549 0.986240
O O5 0.336266 0.002601 0.544742
O O6 0.492766 0.931051 0.527093
O O7 0.370510 0.853927 0.706628
O O8 0.474256 0.587678 0.039190
O O9 0.715740 0.396698 0.844224
O O10 0.593774 0.287324 0.931989
O O11 0.704193 0.369123 0.113267
#
# Coordination Sequence:
#
# PCOD9550750 Si02
#       6
#     8   8   4   8   8   8
#     4  10  19  33  61  94 124 165 208 260 315 388
#     4  12  25  38  64 101 134 165 204 262 333 397
#     4  10  20  36  68  90 116 172 232 260 314 370
#     4   9  21  42  66  89 122 175 225 268 305 385
#     4  10  22  40  63  95 128 162 220 268 317 388
#     4  10  19  35  59  93 130 159 203 256 321 382
#
# _framework density 22.181291999999999
#
# number of rings (size 3 to 8) (size 9 to 14) (size 15 to 20)
#    0.000    1.818    1.818    3.273   10.182    0.000 
#    0.000    4.545    0.000    0.000    0.000    0.000 
#    0.000    0.000    0.000    0.000    0.000    0.000 
#
# Total GULP energy -245341.556261 kJ/mol
# GULP energy per Si atom -5575.944460 kJ/mol
# Density = 2.213081 g / cm^3
# Si number density = 22.181292 Si / 1000 Ang^3
#
#
#
# Elastic Constant Matrix: (Units=GPa)
#
#
# Indices 1 2 3 4 5 6 
#
# 1 34.1206 34.0869 15.4041 0.0000 0.0000 0.0000
# 2 34.0869 34.1206 15.4041 0.0000 0.0000 0.0000
# 3 15.4041 15.4041 60.2716 0.0000 0.0000 0.0000
# 4 0.0000 0.0000 0.0000 29.0442 0.0000 0.0000
# 5 0.0000 0.0000 0.0000 0.0000 29.0442 0.0000
# 6 0.0000 0.0000 0.0000 0.0000 0.0000 24.1281
#
#
#
# Elastic Compliance Matrix: (Units=1/GPa)
#
#
# Indices 1 2 3 4 5 6 
#
# 1 14.847238-14.830663 -0.004236 0.000000 0.000000 0.000000
# 2 -14.830663 14.847238 -0.004236 0.000000 0.000000 0.000000
# 3 -0.004236 -0.004236 0.018757 0.000000 0.000000 0.000000
# 4 0.000000 0.000000 0.000000 0.034430 0.000000 0.000000
# 5 0.000000 0.000000 0.000000 0.000000 0.034430 0.000000
# 6 0.000000 0.000000 0.000000 0.000000 0.000000 0.041446
#
#
# Mechanical properties :
#
#
# Convention : Reuss Voigt Hill
#
# Bulk Modulus (GPa) = 28.60284 28.70033 28.65158
# Shear Modulus (GPa) = 0.08401 20.68450 10.38426
#
# Velocity S-wave (km/s) = 0.19483 3.05703 2.16603
# Velocity P-wave (km/s) = 3.60189 5.04258 4.38185
#
# Compressibility (1/GPa) = 0.03496156
#
# Stress axis : x y z
#
# Youngs Moduli (GPa) = 0.06735 0.06735 53.31385
#
# Poissons Ratio (x) = 0.99888 0.22584
# Poissons Ratio (y) = 0.99888 0.22584
# Poissons Ratio (z) = 0.00029 0.00029
#
# Static dielectric constant tensor:
#      x y z
#    x 1.845280 0.000000 0.000000 
#    y 0.000000 1.845280 0.000000 
#    z 0.000000 0.000000 1.936880 
# 
# From -- ./inp_files/2143.got.cif
#   From: 2010.05.17/outbox.cif.g08.bks.cpg/sg96_2_cif.got.tgz:2143.got - 2010.06.03 19:52:08.
