data_PCOD9550624
_publ_section_title
;
Structure prediction by ZEFSAII (Michael W. Deem and Ramdas Pophale) SiO2 
 PCOD9550624
Probable space group: P 43 2 2
;
_chemical_formula_sum "Si O2"
_cell_formula_units_Z 40
_cell_length_a 17.860171
_cell_length_b 17.860171
_cell_length_c 6.414398
_cell_angle_alpha 90.000000
_cell_angle_beta 90.000000
_cell_angle_gamma 90.000000
_cell_volume 2046.101288
_symmetry_space_group_name_H-M "P 43 2 2"
_symmetry_group_IT_number 95
_symmetry_cell_setting 'tetragonal'
loop_
_space_group_symop_operation_xyz
x,y,z
-y,x,3/4+z
-x,-y,1/2+z
y,-x,1/4+z
x,-y,1/2-z
-x,y,-z
y,x,1/4-z
-y,-x,3/4-z
loop_
_atom_site_type_symbol
_atom_site_label
_atom_site_fract_x
_atom_site_fract_y
_atom_site_fract_z
Si Si1 0.175432 0.669516 0.197052
Si Si2 0.575483 0.922061 0.129684
Si Si3 0.584237 0.681926 0.491657
Si Si4 0.275768 0.920515 0.160227
Si Si5 0.577920 0.577920 0.125000
Si Si6 0.803145 0.196856 0.375000
O O1 0.249851 0.636132 0.296118
O O2 0.126147 0.701787 0.384314
O O3 0.135137 0.605220 0.057645
O O4 0.197756 0.735238 0.038583
O O5 0.560626 0.000000 0.250000
O O6 0.500000 0.901301 0.000000
O O7 0.647391 0.930800 0.974953
O O8 0.500000 0.707744 0.500000
O O9 0.609836 0.609836 0.625000
O O10 0.586149 0.651362 0.261066
O O11 0.249258 0.000000 0.250000
O O12 0.215063 0.877257 0.014730
O O13 0.578772 0.500000 0.250000
#
# Coordination Sequence:
#
# PCOD9550624 Si02
#       6
#     8   8   8   8   4   4
#     4  11  25  43  63  96 136 172 216 274 338 395
#     4  11  24  39  63  96 133 181 228 271 328 402
#     4  12  25  40  61  85 117 164 217 276 332 383
#     4  11  22  42  69  96 137 178 222 272 331 407
#     4  12  23  42  62  82 112 162 228 281 332 382
#     4  10  23  42  66  98 138 170 218 267 322 408
#
# _framework density 19.549374
#
# number of rings (size 3 to 8) (size 9 to 14) (size 15 to 20)
#    0.000    0.800    4.000    3.600    2.800    2.400 
#    0.000    0.000    0.000    0.000    0.000    0.000 
#   42.000    0.000    0.000    0.000    0.000    0.000 
#
# Total GULP energy -223106.475120 kJ/mol
# GULP energy per Si atom -5577.661878 kJ/mol
# Density = 1.950488 g / cm^3
# Si number density = 19.549374 Si / 1000 Ang^3
#
#
#
# Elastic Constant Matrix: (Units=GPa)
#
#
# Indices 1 2 3 4 5 6 
#
# 1 102.0170 42.2221 36.3639 0.0000 0.0000 0.0000
# 2 42.2221 102.0163 36.3637 0.0000 0.0000 0.0000
# 3 36.3639 36.3637 89.2146 0.0000 0.0000 0.0000
# 4 0.0000 0.0000 0.0000 2.7304 0.0000 0.0000
# 5 0.0000 0.0000 0.0000 0.0000 2.7320 0.0000
# 6 0.0000 0.0000 0.0000 0.0000 0.0000 23.3408
#
#
#
# Elastic Compliance Matrix: (Units=1/GPa)
#
#
# Indices 1 2 3 4 5 6 
#
# 1 0.012725 -0.003999 -0.003557 0.000000 0.000000 0.000000
# 2 -0.003999 0.012725 -0.003557 0.000000 0.000000 0.000000
# 3 -0.003557 -0.003557 0.014108 0.000000 0.000000 0.000000
# 4 0.000000 0.000000 0.000000 0.366248 0.000000 0.000000
# 5 0.000000 0.000000 0.000000 0.000000 0.366036 0.000000
# 6 0.000000 0.000000 0.000000 0.000000 0.000000 0.042843
#
#
# Mechanical properties :
#
#
# Convention : Reuss Voigt Hill
#
# Bulk Modulus (GPa) = 57.69081 58.12747 57.90914
# Shear Modulus (GPa) = 5.93339 17.64719 11.79029
#
# Velocity S-wave (km/s) = 1.74404 3.00775 2.45848
# Velocity P-wave (km/s) = 5.79913 6.46996 6.14371
#
# Compressibility (1/GPa) = 0.01733378
#
# Stress axis : x y z
#
# Youngs Moduli (GPa) = 78.58476 78.58421 70.87939
#
# Poissons Ratio (x) = 0.31424 0.25211
# Poissons Ratio (y) = 0.31424 0.25211
# Poissons Ratio (z) = 0.27952 0.27951
#
# Static dielectric constant tensor:
#      x y z
#    x 1.914040 0.000000 0.000000 
#    y 0.000000 1.914030 0.000000 
#    z 0.000000 0.000000 1.717660 
# 
# From -- ./inp_files/862.got.cif
#   From: 2010.05.17/outbox.cif.g08.bks.cpg/sg95_1_cif.got.tgz:862.got - 2010.06.03 19:46:49.
