data_PCOD9550554
_publ_section_title
;
Structure prediction by ZEFSAII (Michael W. Deem and Ramdas Pophale) SiO2 
 PCOD9550554
Probable space group: P 43 2 2
;
_chemical_formula_sum "Si O2"
_cell_formula_units_Z 60
_cell_length_a 12.581541
_cell_length_b 12.581541
_cell_length_c 18.963569
_cell_angle_alpha 90.000000
_cell_angle_beta 90.000000
_cell_angle_gamma 90.000000
_cell_volume 3001.841453
_symmetry_space_group_name_H-M "P 43 2 2"
_symmetry_group_IT_number 95
_symmetry_cell_setting 'tetragonal'
loop_
_space_group_symop_operation_xyz
x,y,z
-y,x,3/4+z
-x,-y,1/2+z
y,-x,1/4+z
x,-y,1/2-z
-x,y,-z
y,x,1/4-z
-y,-x,3/4-z
loop_
_atom_site_type_symbol
_atom_site_label
_atom_site_fract_x
_atom_site_fract_y
_atom_site_fract_z
Si Si1 0.372056 0.192928 0.988180
Si Si2 0.491234 0.312319 0.790032
Si Si3 0.879450 0.621651 0.022129
Si Si4 0.668040 0.041731 0.493106
Si Si5 0.137000 0.890545 0.795113
Si Si6 0.344701 0.598887 0.604352
Si Si7 0.707604 0.707604 0.625000
Si Si8 0.520368 0.872111 0.903964
O O1 0.307133 0.207595 0.061827
O O2 0.500000 0.202510 0.000000
O O3 0.340963 0.286659 0.934753
O O4 0.346130 0.075407 0.961042
O O5 0.413595 0.210642 0.782961
O O6 0.439284 0.398515 0.840509
O O7 0.517470 0.350874 0.711048
O O8 0.599506 0.282921 0.829764
O O9 0.855257 0.739041 0.051475
O O10 0.885245 0.524249 0.076183
O O11 0.000000 0.633621 0.000000
O O12 0.789119 0.078337 0.489927
O O13 0.586948 0.118046 0.450258
O O14 0.608372 0.044949 0.568733
O O15 0.095300 0.904701 0.875000
O O16 0.127542 0.000000 0.750000
O O17 0.241691 0.575351 0.651053
#
# Coordination Sequence:
#
# PCOD9550554 Si02
#       8
#     8   8   8   8   8   8   4   8
#     4  11  21  39  70  91 129 183 222 280 341 428
#     4  10  21  37  61  90 131 171 211 265 328 412
#     4  10  22  37  67  95 124 170 218 282 337 404
#     4  11  23  40  68  96 130 179 229 288 344 418
#     4  11  24  45  69  97 137 183 238 290 354 419
#     4  10  22  39  63  93 130 170 219 275 337 406
#     4  10  22  38  60  92 130 166 224 256 336 422
#     4  10  21  39  62 100 128 161 224 283 340 401
#
# _framework density 19.987732999999999
#
# number of rings (size 3 to 8) (size 9 to 14) (size 15 to 20)
#    0.000    1.600    4.000    0.800    3.733    1.067 
#    1.200    6.667    0.000    0.800    0.000    0.000 
#    0.000    0.000    0.000    0.000    0.000    0.000 
#
# Total GULP energy -334385.992350 kJ/mol
# GULP energy per Si atom -5573.099873 kJ/mol
# Density = 1.994224 g / cm^3
# Si number density = 19.987733 Si / 1000 Ang^3
#
#
#
# Elastic Constant Matrix: (Units=GPa)
#
#
# Indices 1 2 3 4 5 6 
#
# 1 87.5822 57.7707 26.5526 0.0000 0.0000 0.0000
# 2 57.7707 87.5817 26.5525 0.0000 0.0000 0.0000
# 3 26.5526 26.5525 74.3279 0.0000 0.0000 0.0000
# 4 0.0000 0.0000 0.0000 19.1697 0.0000 0.0000
# 5 0.0000 0.0000 0.0000 0.0000 19.1697 0.0000
# 6 0.0000 0.0000 0.0000 0.0000 0.0000 15.8403
#
#
#
# Elastic Compliance Matrix: (Units=1/GPa)
#
#
# Indices 1 2 3 4 5 6 
#
# 1 0.020728 -0.012816 -0.002827 0.000000 0.000000 0.000000
# 2 -0.012816 0.020728 -0.002827 0.000000 0.000000 0.000000
# 3 -0.002827 -0.002827 0.015473 0.000000 0.000000 0.000000
# 4 0.000000 0.000000 0.000000 0.052166 0.000000 0.000000
# 5 0.000000 0.000000 0.000000 0.000000 0.052166 0.000000
# 6 0.000000 0.000000 0.000000 0.000000 0.000000 0.063130
#
#
# Mechanical properties :
#
#
# Convention : Reuss Voigt Hill
#
# Bulk Modulus (GPa) = 50.02005 52.36036 51.19020
# Shear Modulus (GPa) = 18.65712 20.07700 19.36706
#
# Velocity S-wave (km/s) = 3.05852 3.17277 3.11617
# Velocity P-wave (km/s) = 6.12800 6.29882 6.21400
#
# Compressibility (1/GPa) = 0.01999198
#
# Stress axis : x y z
#
# Youngs Moduli (GPa) = 48.24302 48.24277 64.62681
#
# Poissons Ratio (x) = 0.61827 0.18268
# Poissons Ratio (y) = 0.61828 0.18268
# Poissons Ratio (z) = 0.13637 0.13636
#
# Static dielectric constant tensor:
#      x y z
#    x 1.836250 0.000000 0.000000 
#    y 0.000000 1.836250 0.000000 
#    z 0.000000 0.000000 1.767350 
# 
# From -- ./inp_files/6510.got.cif
#   From: 2010.05.17/outbox.cif.g08.bks.cpg/sg95_4_cif.got.tgz:6510.got - 2010.06.03 19:46:49.
