data_PCOD9550991
_publ_section_title
;
Structure prediction by ZEFSAII (Michael W. Deem and Ramdas Pophale) SiO2 
 PCOD9550991
Probable space group: P 43 21 2
;
_chemical_formula_sum "Si O2"
_cell_formula_units_Z 56
_cell_length_a 15.129125
_cell_length_b 15.129125
_cell_length_c 10.729634
_cell_angle_alpha 90.000000
_cell_angle_beta 90.000000
_cell_angle_gamma 90.000000
_cell_volume 2455.910468
_symmetry_space_group_name_H-M "P 43 21 2"
_symmetry_group_IT_number 96
_symmetry_cell_setting 'tetragonal'
loop_
_space_group_symop_operation_xyz
x,y,z
1/2-y,1/2+x,3/4+z
-x,-y,1/2+z
1/2+y,1/2-x,1/4+z
1/2+x,1/2-y,1/4-z
1/2-x,1/2+y,3/4-z
y,x,-z
-y,-x,1/2-z
loop_
_atom_site_type_symbol
_atom_site_label
_atom_site_fract_x
_atom_site_fract_y
_atom_site_fract_z
Si Si1 0.144569 0.798257 0.529541
Si Si2 0.460417 0.626474 0.637934
Si Si3 0.549304 0.962149 0.955093
Si Si4 0.952251 0.254546 0.790493
Si Si5 0.737594 0.039900 0.996736
Si Si6 0.654143 0.277556 0.435034
Si Si7 0.139115 0.088770 0.626135
O O1 0.053538 0.826530 0.594963
O O2 0.116388 0.790048 0.384227
O O3 0.221735 0.869792 0.547533
O O4 0.188854 0.708586 0.578307
O O5 0.441118 0.558882 0.750000
O O6 0.368960 0.685343 0.631661
O O7 0.592180 0.453325 0.504152
O O8 0.570972 0.858304 0.960409
O O9 0.518970 0.981010 0.815044
O O10 0.634077 0.023014 0.983183
O O11 0.961590 0.226653 0.646349
O O12 0.051227 0.238813 0.844345
O O13 0.773899 0.964364 0.088447
O O14 0.659341 0.311184 0.579905
O O15 0.084837 0.084837 0.500000
#
# Coordination Sequence:
#
# PCOD9550991 Si02
#       7
#     8   8   8   8   8   8   8
#     4  12  24  44  76 106 149 210 248 318 407 463
#     4  10  23  48  70 108 151 192 254 319 374 474
#     4  10  24  46  72 104 150 192 255 323 388 469
#     4  11  22  46  72 105 145 197 262 313 384 475
#     4  11  24  42  67 111 144 189 254 316 373 465
#     4  10  24  46  72 104 143 201 249 315 377 474
#     4  10  22  44  71  99 148 187 234 318 370 439
#
# _framework density 22.802133999999999
#
# number of rings (size 3 to 8) (size 9 to 14) (size 15 to 20)
#    0.857    0.571    2.857    2.143    4.000    1.143 
#   12.857    0.000    0.000    0.000    0.000    0.000 
#    0.000    0.000    0.000    0.000    0.000    0.000 
#
# Total GULP energy -312149.885982 kJ/mol
# GULP energy per Si atom -5574.105107 kJ/mol
# Density = 2.275024 g / cm^3
# Si number density = 22.802134 Si / 1000 Ang^3
#
#
#
# Elastic Constant Matrix: (Units=GPa)
#
#
# Indices 1 2 3 4 5 6 
#
# 1 64.9072 57.4343 4.8293 0.0000 0.0000 0.0000
# 2 57.4343 64.9072 4.8296 0.0000 0.0000 0.0000
# 3 4.8293 4.8296 105.3962 0.0000 0.0000 0.0000
# 4 0.0000 0.0000 0.0000 16.1875 0.0000 0.0000
# 5 0.0000 0.0000 0.0000 0.0000 16.1879 0.0000
# 6 0.0000 0.0000 0.0000 0.0000 0.0000 40.1000
#
#
#
# Elastic Compliance Matrix: (Units=1/GPa)
#
#
# Indices 1 2 3 4 5 6 
#
# 1 0.071010 -0.062806 -0.000376 0.000000 0.000000 0.000000
# 2 -0.062806 0.071010 -0.000376 0.000000 0.000000 0.000000
# 3 -0.000376 -0.000376 0.009522 0.000000 0.000000 0.000000
# 4 0.000000 0.000000 0.000000 0.061776 0.000000 0.000000
# 5 0.000000 0.000000 0.000000 0.000000 0.061775 0.000000
# 6 0.000000 0.000000 0.000000 0.000000 0.000000 0.024938
#
#
# Mechanical properties :
#
#
# Convention : Reuss Voigt Hill
#
# Bulk Modulus (GPa) = 40.94015 41.04410 40.99212
# Shear Modulus (GPa) = 11.48661 25.70291 18.59476
#
# Velocity S-wave (km/s) = 2.24688 3.36104 2.85876
# Velocity P-wave (km/s) = 4.97240 5.75338 5.37709
#
# Compressibility (1/GPa) = 0.02442590
#
# Stress axis : x y z
#
# Youngs Moduli (GPa) = 14.08253 14.08251 105.01494
#
# Poissons Ratio (x) = 0.88447 0.03945
# Poissons Ratio (y) = 0.88447 0.03950
# Poissons Ratio (z) = 0.00529 0.00530
#
# Static dielectric constant tensor:
#      x y z
#    x 1.873380 0.000000 0.000000 
#    y 0.000000 1.873380 0.000000 
#    z 0.000000 0.000000 1.955200 
# 
# From -- ./inp_files/2310.got.cif
#   From: 2010.05.17/outbox.cif.g08.bks.cpg/sg96_2_cif.got.tgz:2310.got - 2010.06.03 19:52:08.
