data_PCOD9550840
_publ_section_title
;
Structure prediction by ZEFSAII (Michael W. Deem and Ramdas Pophale) SiO2 
 PCOD9550840
Probable space group: P 43 21 2
;
_chemical_formula_sum "Si O2"
_cell_formula_units_Z 60
_cell_length_a 11.601641
_cell_length_b 11.601641
_cell_length_c 20.605000
_cell_angle_alpha 90.000000
_cell_angle_beta 90.000000
_cell_angle_gamma 90.000000
_cell_volume 2773.393313
_symmetry_space_group_name_H-M "P 43 21 2"
_symmetry_group_IT_number 96
_symmetry_cell_setting 'tetragonal'
loop_
_space_group_symop_operation_xyz
x,y,z
1/2-y,1/2+x,3/4+z
-x,-y,1/2+z
1/2+y,1/2-x,1/4+z
1/2+x,1/2-y,1/4-z
1/2-x,1/2+y,3/4-z
y,x,-z
-y,-x,1/2-z
loop_
_atom_site_type_symbol
_atom_site_label
_atom_site_fract_x
_atom_site_fract_y
_atom_site_fract_z
Si Si1 0.689084 0.554234 0.419601
Si Si2 0.550094 0.838201 0.937160
Si Si3 0.204686 0.431047 0.043839
Si Si4 0.161364 0.123280 0.639873
Si Si5 0.522406 0.582030 0.933453
Si Si6 0.459811 0.724628 0.720211
Si Si7 0.299672 0.700329 0.250000
Si Si8 0.627940 0.121085 0.553757
O O1 0.800015 0.549793 0.465613
O O2 0.637723 0.679631 0.434202
O O3 0.606232 0.457529 0.450889
O O4 0.684770 0.526655 0.344152
O O5 0.519889 0.710990 0.908501
O O6 0.561227 0.913467 0.871397
O O7 0.673058 0.826424 0.972101
O O8 0.461443 0.871424 0.993774
O O9 0.233265 0.550944 0.078566
O O10 0.105051 0.339766 0.055661
O O11 0.180481 0.123394 0.563067
O O12 0.159995 0.249890 0.672478
O O13 0.030557 0.074019 0.648785
O O14 0.591570 0.591570 0.000000
O O15 0.367664 0.632337 0.750000
O O16 0.551335 0.765308 0.773346
#
# Coordination Sequence:
#
# PCOD9550840 Si02
#       8
#     8   8   8   8   8   8   4   8
#     4  10  20  39  67  91 128 185 218 273 345 413
#     4  11  22  42  67  97 133 181 229 292 348 418
#     4  10  21  44  66  93 139 179 224 277 359 414
#     4  10  21  42  69 101 131 186 236 285 345 423
#     4  11  17  39  74  91 128 178 234 282 345 414
#     4  12  26  42  67 105 147 173 235 297 345 434
#     4  10  22  40  64  94 142 168 228 294 340 406
#     4  11  25  41  71 100 137 184 240 285 355 421
#
# _framework density 21.634146000000001
#
# number of rings (size 3 to 8) (size 9 to 14) (size 15 to 20)
#    0.000    1.333    6.000    0.800    1.867    3.200 
#    9.600    1.333    0.000    0.000    0.000    0.000 
#    0.000    0.000    0.000    0.000    0.000    0.000 
#
# Total GULP energy -334156.808098 kJ/mol
# GULP energy per Si atom -5569.280135 kJ/mol
# Density = 2.158491 g / cm^3
# Si number density = 21.634146 Si / 1000 Ang^3
#
#
#
# Elastic Constant Matrix: (Units=GPa)
#
#
# Indices 1 2 3 4 5 6 
#
# 1 40.4957 48.0552 35.4389 0.0000 0.0000 0.0000
# 2 48.0552 40.4950 35.4388 0.0000 0.0000 0.0000
# 3 35.4389 35.4388 163.6587 0.0000 0.0000 0.0000
# 4 0.0000 0.0000 0.0000 20.7072 0.0000 0.0000
# 5 0.0000 0.0000 0.0000 0.0000 20.7074 0.0000
# 6 0.0000 0.0000 0.0000 0.0000 0.0000 25.4584
#
#
#
# Elastic Compliance Matrix: (Units=1/GPa)
#
#
# Indices 1 2 3 4 5 6 
#
# 1 -0.059308 0.072969 -0.002958 0.000000 0.000000 0.000000
# 2 0.072969 -0.059309 -0.002958 0.000000 0.000000 0.000000
# 3 -0.002958 -0.002958 0.007391 0.000000 0.000000 0.000000
# 4 0.000000 0.000000 0.000000 0.048292 0.000000 0.000000
# 5 0.000000 0.000000 0.000000 0.000000 0.048292 0.000000
# 6 0.000000 0.000000 0.000000 0.000000 0.000000 0.039280
#
#
# Mechanical properties :
#
#
# Convention : Reuss Voigt Hill
#
# Bulk Modulus (GPa) = 43.70556 53.61280 48.65918
# Shear Modulus (GPa) = -49.09640 21.75571 -13.67034
#
# Velocity S-wave (km/s) = -4.76898 3.17459 -2.51646
# Velocity P-wave (km/s) = 3.17463 6.18650 3.75463
#
# Compressibility (1/GPa) = 0.02288038
#
# Stress axis : x y z
#
# Youngs Moduli (GPa) = -16.86119 -16.86084 135.29274
#
# Poissons Ratio (x) = 1.23032 0.40022
# Poissons Ratio (y) = 1.23035 0.40020
# Poissons Ratio (z) = -0.04988 -0.04987
#
# Static dielectric constant tensor:
#      x y z
#    x 1.859660 0.000000 0.000000 
#    y 0.000000 1.859660 0.000000 
#    z 0.000000 0.000000 1.868560 
# 
# From -- ./inp_files/3612.got.cif
#   From: 2010.05.17/outbox.cif.g08.bks.cpg/sg96_2_cif.got.tgz:3612.got - 2010.06.03 19:52:08.
