data_PCOD9550451
_publ_section_title
;
Structure prediction by ZEFSAII (Michael W. Deem and Ramdas Pophale) SiO2 
 PCOD9550451
Probable space group: P 43 2 2
;
_chemical_formula_sum "Si O2"
_cell_formula_units_Z 48
_cell_length_a 16.701192
_cell_length_b 16.701192
_cell_length_c 9.092648
_cell_angle_alpha 90.000000
_cell_angle_beta 90.000000
_cell_angle_gamma 90.000000
_cell_volume 2536.210617
_symmetry_space_group_name_H-M "P 43 2 2"
_symmetry_group_IT_number 95
_symmetry_cell_setting 'tetragonal'
loop_
_space_group_symop_operation_xyz
x,y,z
-y,x,3/4+z
-x,-y,1/2+z
y,-x,1/4+z
x,-y,1/2-z
-x,y,-z
y,x,1/4-z
-y,-x,3/4-z
loop_
_atom_site_type_symbol
_atom_site_label
_atom_site_fract_x
_atom_site_fract_y
_atom_site_fract_z
Si Si1 0.231360 0.272971 0.462971
Si Si2 0.910664 0.361660 0.434326
Si Si3 0.695476 0.571714 0.846751
Si Si4 0.086045 0.522845 0.421203
Si Si5 0.664299 0.457733 0.109515
Si Si6 0.362691 0.830772 0.125893
O O1 0.273880 0.273880 0.625000
O O2 0.139465 0.285794 0.506620
O O3 0.252842 0.349445 0.365349
O O4 0.270302 0.197756 0.380264
O O5 0.876491 0.444701 0.500494
O O6 0.893891 0.370651 0.259385
O O7 0.000000 0.356467 0.500000
O O8 0.729645 0.500000 0.750000
O O9 0.609402 0.605285 0.795659
O O10 0.682529 0.529139 0.000741
O O11 0.077870 0.500000 0.250000
O O12 0.134621 0.601004 0.473334
O O13 0.000000 0.531874 0.500000
O O14 0.627188 0.500000 0.250000
O O15 0.748107 0.412735 0.151095
#
# Coordination Sequence:
#
# PCOD9550451 Si02
#       6
#     8   8   8   8   8   8
#     4   9  19  36  56  75 102 143 179 214 271 338
#     4  10  19  34  56  81 106 133 174 228 275 323
#     4  11  22  33  46  67  94 130 178 231 271 298
#     4  11  21  33  52  79 109 143 180 227 278 324
#     4  11  21  34  50  64  89 132 177 222 271 318
#     4  10  20  36  54  74 102 137 178 216 265 335
#
# _framework density 18.925871000000001
#
# number of rings (size 3 to 8) (size 9 to 14) (size 15 to 20)
#    0.000    1.667    0.000    8.500    0.000    4.667 
#    0.000    2.500    0.000    0.000    0.000    0.000 
#    0.000   12.000    0.000    0.000    0.000    0.000 
#
# Total GULP energy -267584.386652 kJ/mol
# GULP energy per Si atom -5574.674722 kJ/mol
# Density = 1.888280 g / cm^3
# Si number density = 18.925871 Si / 1000 Ang^3
#
#
#
# Elastic Constant Matrix: (Units=GPa)
#
#
# Indices 1 2 3 4 5 6 
#
# 1 70.1681 25.0858 27.4229 0.0000 0.0000 0.0000
# 2 25.0858 70.1681 27.4229 0.0000 0.0000 0.0000
# 3 27.4229 27.4229 102.8198 0.0000 0.0000 0.0000
# 4 0.0000 0.0000 0.0000 24.2670 0.0000 0.0000
# 5 0.0000 0.0000 0.0000 0.0000 24.2670 0.0000
# 6 0.0000 0.0000 0.0000 0.0000 0.0000 19.2376
#
#
#
# Elastic Compliance Matrix: (Units=1/GPa)
#
#
# Indices 1 2 3 4 5 6 
#
# 1 0.017292 -0.004889 -0.003308 0.000000 0.000000 0.000000
# 2 -0.004889 0.017292 -0.003308 0.000000 0.000000 0.000000
# 3 -0.003308 -0.003308 0.011490 0.000000 0.000000 0.000000
# 4 0.000000 0.000000 0.000000 0.041208 0.000000 0.000000
# 5 0.000000 0.000000 0.000000 0.000000 0.041208 0.000000
# 6 0.000000 0.000000 0.000000 0.000000 0.000000 0.051982
#
#
# Mechanical properties :
#
#
# Convention : Reuss Voigt Hill
#
# Bulk Modulus (GPa) = 43.35707 44.77990 44.06849
# Shear Modulus (GPa) = 23.67743 24.43594 24.05668
#
# Velocity S-wave (km/s) = 3.54087 3.59714 3.56912
# Velocity P-wave (km/s) = 6.29886 6.40036 6.34981
#
# Compressibility (1/GPa) = 0.02306429
#
# Stress axis : x y z
#
# Youngs Moduli (GPa) = 57.82925 57.82925 87.03011
#
# Poissons Ratio (x) = 0.28275 0.28789
# Poissons Ratio (y) = 0.28275 0.28789
# Poissons Ratio (z) = 0.19130 0.19130
#
# Static dielectric constant tensor:
#      x y z
#    x 1.704020 0.000000 0.000000 
#    y 0.000000 1.704020 0.000000 
#    z 0.000000 0.000000 1.792920 
# 
# From -- ./inp_files/2621.got.cif
#   From: 2010.05.17/outbox.cif.g08.bks.cpg/sg95_2_cif.got.tgz:2621.got - 2010.06.03 19:46:49.
