data_PCOD9550951
_publ_section_title
;
Structure prediction by ZEFSAII (Michael W. Deem and Ramdas Pophale) SiO2 
 PCOD9550951
Probable space group: P 43 21 2
;
_chemical_formula_sum "Si O2"
_cell_formula_units_Z 40
_cell_length_a 16.172931
_cell_length_b 16.172931
_cell_length_c 6.368574
_cell_angle_alpha 90.000000
_cell_angle_beta 90.000000
_cell_angle_gamma 90.000000
_cell_volume 1665.787761
_symmetry_space_group_name_H-M "P 43 21 2"
_symmetry_group_IT_number 96
_symmetry_cell_setting 'tetragonal'
loop_
_space_group_symop_operation_xyz
x,y,z
1/2-y,1/2+x,3/4+z
-x,-y,1/2+z
1/2+y,1/2-x,1/4+z
1/2+x,1/2-y,1/4-z
1/2-x,1/2+y,3/4-z
y,x,-z
-y,-x,1/2-z
loop_
_atom_site_type_symbol
_atom_site_label
_atom_site_fract_x
_atom_site_fract_y
_atom_site_fract_z
Si Si1 0.096557 0.571880 0.938047
Si Si2 0.360714 0.639287 0.250000
Si Si3 0.450649 0.341652 0.866950
Si Si4 0.008955 0.743929 0.505437
Si Si5 0.849666 0.264610 0.668461
Si Si6 0.359626 0.640375 0.750000
O O1 0.088804 0.493982 0.095335
O O2 0.139542 0.649755 0.048635
O O3 0.161666 0.546230 0.757300
O O4 0.460759 0.651997 0.257371
O O5 0.339074 0.665998 0.500204
O O6 0.377458 0.315782 0.713071
O O7 0.421090 0.421090 0.000000
O O8 0.454618 0.261591 0.016271
O O9 0.082256 0.730184 0.348179
O O10 0.952585 0.825547 0.481071
O O11 0.759056 0.240945 0.750000
#
# Coordination Sequence:
#
# PCOD9550951 Si02
#       6
#     8   4   8   8   8   4
#     4  12  27  52  77 110 148 205 268 324 389 470
#     4  10  22  39  70 110 156 210 256 317 402 488
#     4  11  22  42  71 106 157 194 254 316 394 479
#     4  11  24  47  73 108 155 198 254 319 390 475
#     4  12  25  48  77 112 150 199 253 328 398 471
#     4  10  22  43  72 110 156 208 256 327 396 482
#
# _framework density 24.012663
#
# number of rings (size 3 to 8) (size 9 to 14) (size 15 to 20)
#    0.000    0.800    6.000    1.200    0.000    4.000 
#   16.200    0.000    0.000    0.000    0.000    0.000 
#    0.000    0.000    0.000    0.000    0.000    0.000 
#
# Total GULP energy -222781.347002 kJ/mol
# GULP energy per Si atom -5569.533675 kJ/mol
# Density = 2.395801 g / cm^3
# Si number density = 24.012663 Si / 1000 Ang^3
#
#
#
# Elastic Constant Matrix: (Units=GPa)
#
#
# Indices 1 2 3 4 5 6 
#
# 1 8.2038 117.4795 37.6020 0.0000 0.0000 0.0000
# 2 117.4795 8.1844 37.5972 0.0000 0.0000 0.0000
# 3 37.6020 37.5972 119.7236 0.0000 0.0000 0.0000
# 4 0.0000 0.0000 0.0000 42.1724 0.0000 0.0000
# 5 0.0000 0.0000 0.0000 0.0000 42.1728 0.0000
# 6 0.0000 0.0000 0.0000 0.0000 0.0000 25.5867
#
#
#
# Elastic Compliance Matrix: (Units=1/GPa)
#
#
# Indices 1 2 3 4 5 6 
#
# 1 0.000325 0.009474 -0.003077 0.000000 0.000000 0.000000
# 2 0.009474 0.000323 -0.003077 0.000000 0.000000 0.000000
# 3 -0.003077 -0.003077 0.010285 0.000000 0.000000 0.000000
# 4 0.000000 0.000000 0.000000 0.023712 0.000000 0.000000
# 5 0.000000 0.000000 0.000000 0.000000 0.023712 0.000000
# 6 0.000000 0.000000 0.000000 0.000000 0.000000 0.039083
#
#
# Mechanical properties :
#
#
# Convention : Reuss Voigt Hill
#
# Bulk Modulus (GPa) = 56.90436 57.94105 57.42271
# Shear Modulus (GPa) = 51.72859 18.21525 34.97192
#
# Velocity S-wave (km/s) = 4.64639 2.75720 3.82041
# Velocity P-wave (km/s) = 7.24806 5.85815 6.58985
#
# Compressibility (1/GPa) = 0.01757334
#
# Stress axis : x y z
#
# Youngs Moduli (GPa) = 3078.99175 3092.99991 97.22510
#
# Poissons Ratio (x) = -29.30431 0.29919
# Poissons Ratio (y) = -29.17159 0.29918
# Poissons Ratio (z) = 9.47493 9.51775
#
# Static dielectric constant tensor:
#      x y z
#    x 1.955930 0.000000 0.000000 
#    y 0.000000 1.955940 0.000000 
#    z 0.000000 0.000000 1.938990 
# 
# From -- ./inp_files/424.got.cif
#   From: 2010.05.17/outbox.cif.g08.bks.cpg/sg96_1_cif.got.tgz:424.got - 2010.06.03 19:52:08.
