data_PCOD9550442
_publ_section_title
;
Structure prediction by ZEFSAII (Michael W. Deem and Ramdas Pophale) SiO2 
 PCOD9550442
Probable space group: P 43 2 2
;
_chemical_formula_sum "Si O2"
_cell_formula_units_Z 48
_cell_length_a 8.330001
_cell_length_b 8.330001
_cell_length_c 29.299690
_cell_angle_alpha 90.000000
_cell_angle_beta 90.000000
_cell_angle_gamma 90.000000
_cell_volume 2033.073748
_symmetry_space_group_name_H-M "P 43 2 2"
_symmetry_group_IT_number 95
_symmetry_cell_setting 'tetragonal'
loop_
_space_group_symop_operation_xyz
x,y,z
-y,x,3/4+z
-x,-y,1/2+z
y,-x,1/4+z
x,-y,1/2-z
-x,y,-z
y,x,1/4-z
-y,-x,3/4-z
loop_
_atom_site_type_symbol
_atom_site_label
_atom_site_fract_x
_atom_site_fract_y
_atom_site_fract_z
Si Si1 0.160414 0.819651 0.968462
Si Si2 0.854607 0.739028 0.749478
Si Si3 0.388888 0.444708 0.317167
Si Si4 0.128754 0.540693 0.909639
Si Si5 0.500000 0.340532 0.500000
Si Si6 0.000000 0.616140 0.500000
Si Si7 0.336261 0.114624 0.099433
O O1 0.133132 0.730541 0.919942
O O2 0.189928 0.010520 0.967361
O O3 0.332368 0.749820 0.987974
O O4 0.000000 0.799311 0.000000
O O5 0.734657 0.632001 0.779672
O O6 0.942144 0.679842 0.703466
O O7 0.733866 0.869745 0.728777
O O8 0.465183 0.303543 0.347095
O O9 0.536863 0.529487 0.291866
O O10 0.275448 0.561693 0.343727
O O11 0.009246 0.450455 0.875998
O O12 0.079972 0.484434 0.960666
O O13 0.171710 0.171710 0.125000
#
# Coordination Sequence:
#
# PCOD9550442 Si02
#       7
#     8   8   8   8   4   4   8
#     4  11  24  40  70 103 135 184 234 287 358 434
#     4  11  22  42  70 100 132 186 234 285 350 427
#     4  10  23  45  66  95 135 184 231 287 348 427
#     4  10  23  42  62  99 136 175 229 296 345 417
#     4  10  22  42  72  98 132 182 238 286 342 434
#     4  10  18  40  66  90 134 174 232 268 342 416
#     4  12  24  40  70 102 134 179 237 301 349 416
#
# _framework density 23.609573000000001
#
# number of rings (size 3 to 8) (size 9 to 14) (size 15 to 20)
#    0.000    1.333    5.000    0.000    4.667    1.333 
#    0.000    0.833    0.000    0.000    0.000    0.000 
#    0.000    0.000    0.000    0.000    0.000    0.000 
#
# Total GULP energy -267754.351911 kJ/mol
# GULP energy per Si atom -5578.215665 kJ/mol
# Density = 2.355584 g / cm^3
# Si number density = 23.609573 Si / 1000 Ang^3
#
#
#
# Elastic Constant Matrix: (Units=GPa)
#
#
# Indices 1 2 3 4 5 6 
#
# 1 81.2943 13.6315 19.1250 0.0000 0.0000 0.0000
# 2 13.6315 81.2943 19.1250 0.0000 0.0000 0.0000
# 3 19.1250 19.1250 88.1743 0.0000 0.0000 0.0000
# 4 0.0000 0.0000 0.0000 17.6138 0.0000 0.0000
# 5 0.0000 0.0000 0.0000 0.0000 17.6138 0.0000
# 6 0.0000 0.0000 0.0000 0.0000 0.0000 24.8945
#
#
#
# Elastic Compliance Matrix: (Units=1/GPa)
#
#
# Indices 1 2 3 4 5 6 
#
# 1 0.013161 -0.001618 -0.002504 0.000000 0.000000 0.000000
# 2 -0.001618 0.013161 -0.002504 0.000000 0.000000 0.000000
# 3 -0.002504 -0.002504 0.012427 0.000000 0.000000 0.000000
# 4 0.000000 0.000000 0.000000 0.056774 0.000000 0.000000
# 5 0.000000 0.000000 0.000000 0.000000 0.056774 0.000000
# 6 0.000000 0.000000 0.000000 0.000000 0.000000 0.040169
#
#
# Mechanical properties :
#
#
# Convention : Reuss Voigt Hill
#
# Bulk Modulus (GPa) = 39.21707 39.39175 39.30441
# Shear Modulus (GPa) = 23.34077 25.28318 24.31198
#
# Velocity S-wave (km/s) = 3.14764 3.27599 3.21245
# Velocity P-wave (km/s) = 5.46414 5.57049 5.51757
#
# Compressibility (1/GPa) = 0.02549910
#
# Stress axis : x y z
#
# Youngs Moduli (GPa) = 75.98033 75.98033 80.46797
#
# Poissons Ratio (x) = 0.12293 0.20147
# Poissons Ratio (y) = 0.12293 0.20147
# Poissons Ratio (z) = 0.19024 0.19024
#
# Static dielectric constant tensor:
#      x y z
#    x 1.954750 0.000000 0.000000 
#    y 0.000000 1.954750 0.000000 
#    z 0.000000 0.000000 1.951150 
# 
# From -- ./inp_files/8009.got.cif
#   From: 2010.05.17/outbox.cif.g08.bks.cpg/sg95_5_cif.got.tgz:8009.got - 2010.06.03 19:46:49.
