data_PCOD9550846
_publ_section_title
;
Structure prediction by ZEFSAII (Michael W. Deem and Ramdas Pophale) SiO2 
 PCOD9550846
Probable space group: P 43 21 2
;
_chemical_formula_sum "Si O2"
_cell_formula_units_Z 52
_cell_length_a 20.644752
_cell_length_b 20.644752
_cell_length_c 5.052573
_cell_angle_alpha 90.000000
_cell_angle_beta 90.000000
_cell_angle_gamma 90.000000
_cell_volume 2153.435842
_symmetry_space_group_name_H-M "P 43 21 2"
_symmetry_group_IT_number 96
_symmetry_cell_setting 'tetragonal'
loop_
_space_group_symop_operation_xyz
x,y,z
1/2-y,1/2+x,3/4+z
-x,-y,1/2+z
1/2+y,1/2-x,1/4+z
1/2+x,1/2-y,1/4-z
1/2-x,1/2+y,3/4-z
y,x,-z
-y,-x,1/2-z
loop_
_atom_site_type_symbol
_atom_site_label
_atom_site_fract_x
_atom_site_fract_y
_atom_site_fract_z
Si Si1 0.569231 0.569231 0.500000
Si Si2 0.988562 0.682666 0.041023
Si Si3 0.795407 0.660463 0.253723
Si Si4 0.062481 0.793175 0.769918
Si Si5 0.206782 0.206782 0.000000
Si Si6 0.434048 0.710828 0.832387
Si Si7 0.928089 0.928089 0.500000
Si Si8 0.117244 0.626794 0.012293
O O1 0.637477 0.572658 0.656417
O O2 0.572920 0.498894 0.375018
O O3 0.943489 0.726618 0.232685
O O4 0.941333 0.652618 0.820829
O O5 0.041036 0.625983 0.100186
O O6 0.041158 0.737542 0.967457
O O7 0.731137 0.621591 0.340175
O O8 0.784548 0.736230 0.292800
O O9 0.821912 0.648940 0.963520
O O10 0.848364 0.630827 0.464186
O O11 0.998640 0.793498 0.587201
O O12 0.217057 0.132173 0.914268
O O13 0.425794 0.636279 0.938306
#
# Coordination Sequence:
#
# PCOD9550846 Si02
#       8
#     4   8   8   8   4   8   4   8
#     4  10  21  40  57  92 130 179 230 293 328 428
#     4  11  23  43  69  98 131 182 222 286 346 419
#     4  11  23  43  65 104 134 181 223 287 331 423
#     4  10  22  41  65  88 135 181 228 274 359 401
#     4  11  21  38  66  98 138 166 240 277 345 394
#     4  10  20  40  61  92 131 179 214 287 340 406
#     4   9  22  34  57  90 128 167 234 276 339 404
#     4  11  25  43  73  96 140 173 229 274 349 410
#
# _framework density 24.147455999999998
#
# number of rings (size 3 to 8) (size 9 to 14) (size 15 to 20)
#    0.000    1.538    3.077    1.385    2.154    0.615 
#    2.769    3.077    0.000    0.000    0.000    0.000 
#    0.000    0.000    0.000    0.000    0.000    0.000 
#
# Total GULP energy -289624.874860 kJ/mol
# GULP energy per Si atom -5569.709132 kJ/mol
# Density = 2.409250 g / cm^3
# Si number density = 24.147456 Si / 1000 Ang^3
#
#
#
# Elastic Constant Matrix: (Units=GPa)
#
#
# Indices 1 2 3 4 5 6 
#
# 1 150.4984 31.3059 11.4750 0.0000 0.0000 0.0000
# 2 31.3059 150.4984 11.4750 0.0000 0.0000 0.0000
# 3 11.4750 11.4750 27.2177 0.0000 0.0000 0.0000
# 4 0.0000 0.0000 0.0000 26.5238 0.0000 0.0000
# 5 0.0000 0.0000 0.0000 0.0000 26.5238 0.0000
# 6 0.0000 0.0000 0.0000 0.0000 0.0000 37.2221
#
#
#
# Elastic Compliance Matrix: (Units=1/GPa)
#
#
# Indices 1 2 3 4 5 6 
#
# 1 0.007100 -0.001290 -0.002449 0.000000 0.000000 0.000000
# 2 -0.001290 0.007100 -0.002449 0.000000 0.000000 0.000000
# 3 -0.002449 -0.002449 0.038806 0.000000 0.000000 0.000000
# 4 0.000000 0.000000 0.000000 0.037702 0.000000 0.000000
# 5 0.000000 0.000000 0.000000 0.000000 0.037702 0.000000
# 6 0.000000 0.000000 0.000000 0.000000 0.000000 0.026866
#
#
# Mechanical properties :
#
#
# Convention : Reuss Voigt Hill
#
# Bulk Modulus (GPa) = 24.61360 48.52514 36.56937
# Shear Modulus (GPa) = 27.59453 36.31785 31.95619
#
# Velocity S-wave (km/s) = 3.38413 3.88236 3.64177
# Velocity P-wave (km/s) = 5.04826 6.34318 5.73240
#
# Compressibility (1/GPa) = 0.04062795
#
# Stress axis : x y z
#
# Youngs Moduli (GPa) = 140.85100 140.85100 25.76916
#
# Poissons Ratio (x) = 0.18171 0.06312
# Poissons Ratio (y) = 0.18171 0.06312
# Poissons Ratio (z) = 0.34499 0.34499
#
# Static dielectric constant tensor:
#      x y z
#    x 2.035310 0.000000 0.000000 
#    y 0.000000 2.035310 0.000000 
#    z 0.000000 0.000000 1.939200 
# 
# From -- ./inp_files/726.got.cif
#   From: 2010.05.17/outbox.cif.g08.bks.cpg/sg96_1_cif.got.tgz:726.got - 2010.06.03 19:52:08.
