data_PCOD9550043
_publ_section_title
;
Structure prediction by ZEFSAII (Michael W. Deem and Ramdas Pophale) SiO2 
 PCOD9550043
Probable space group: P 42 21 2
;
_chemical_formula_sum "Si O2"
_cell_formula_units_Z 48
_cell_length_a 9.365630
_cell_length_b 9.365630
_cell_length_c 29.546643
_cell_angle_alpha 90.000000
_cell_angle_beta 90.000000
_cell_angle_gamma 90.000000
_cell_volume 2591.684538
_symmetry_space_group_name_H-M "P 42 21 2"
_symmetry_group_IT_number 94
_symmetry_cell_setting 'tetragonal'
loop_
_space_group_symop_operation_xyz
x,y,z
1/2-y,1/2+x,1/2+z
-x,-y,z
1/2+y,1/2-x,1/2+z
1/2+x,1/2-y,1/2-z
1/2-x,1/2+y,1/2-z
y,x,-z
-y,-x,-z
loop_
_atom_site_type_symbol
_atom_site_label
_atom_site_fract_x
_atom_site_fract_y
_atom_site_fract_z
Si Si1 0.999418 0.769423 0.444583
Si Si2 0.884473 0.738519 0.345762
Si Si3 0.014816 0.341485 0.638443
Si Si4 0.666441 0.999617 0.224527
Si Si5 0.245278 0.989881 0.457316
Si Si6 0.676066 0.668259 0.799089
O O1 0.959268 0.711254 0.394844
O O2 0.153132 0.846637 0.447769
O O3 0.997566 0.687648 0.492748
O O4 0.877378 0.889618 0.451656
O O5 0.749106 0.843699 0.349449
O O6 0.839787 0.593407 0.321137
O O7 0.002299 0.815626 0.313607
O O8 0.000000 0.500000 0.657135
O O9 0.010327 0.347312 0.584524
O O10 0.883008 0.250385 0.657310
O O11 0.775695 0.073432 0.259186
O O12 0.500000 0.000000 0.240908
O O13 0.707480 0.837079 0.214708
#
# Coordination Sequence:
#
# PCOD9550043 Si02
#       6
#     8   8   8   8   8   8
#     4   8  13  27  54  83 108 142 187 223 273 333
#     4  10  20  38  61  83 111 150 184 234 288 337
#     4  11  21  34  54  84 118 147 186 228 280 336
#     4  10  23  39  58  84 108 139 191 235 283 340
#     4   8  14  26  50  84 113 142 182 226 269 332
#     4  11  21  38  57  78 108 145 184 236 284 335
#
# _framework density 18.520771
#
# number of rings (size 3 to 8) (size 9 to 14) (size 15 to 20)
#    0.000    2.333    1.667    3.000    0.000    2.667 
#    0.000    6.667    0.000    0.000    0.000    0.000 
#    0.000    0.000    0.000    0.000    0.000    0.000 
#
# Total GULP energy -267219.355797 kJ/mol
# GULP energy per Si atom -5567.069912 kJ/mol
# Density = 1.847862 g / cm^3
# Si number density = 18.520771 Si / 1000 Ang^3
#
#
#
# Elastic Constant Matrix: (Units=GPa)
#
#
# Indices 1 2 3 4 5 6 
#
# 1 68.2747 27.5431 27.6199 0.0000 0.0000 0.0000
# 2 27.5431 68.2747 27.6199 0.0000 0.0000 0.0000
# 3 27.6199 27.6199 142.4331 0.0000 0.0000 0.0000
# 4 0.0000 0.0000 0.0000 19.6060 0.0000 0.0000
# 5 0.0000 0.0000 0.0000 0.0000 19.6060 0.0000
# 6 0.0000 0.0000 0.0000 0.0000 0.0000 17.0976
#
#
#
# Elastic Compliance Matrix: (Units=1/GPa)
#
#
# Indices 1 2 3 4 5 6 
#
# 1 0.018151 -0.006400 -0.002279 0.000000 0.000000 0.000000
# 2 -0.006400 0.018151 -0.002279 0.000000 0.000000 0.000000
# 3 -0.002279 -0.002279 0.007905 0.000000 0.000000 0.000000
# 4 0.000000 0.000000 0.000000 0.051005 0.000000 0.000000
# 5 0.000000 0.000000 0.000000 0.000000 0.051005 0.000000
# 6 0.000000 0.000000 0.000000 0.000000 0.000000 0.058488
#
#
# Mechanical properties :
#
#
# Convention : Reuss Voigt Hill
#
# Bulk Modulus (GPa) = 44.86199 49.39425 47.12812
# Shear Modulus (GPa) = 21.36317 24.34192 22.85254
#
# Velocity S-wave (km/s) = 3.39996 3.62927 3.51648
# Velocity P-wave (km/s) = 6.29985 6.65505 6.47988
#
# Compressibility (1/GPa) = 0.02229059
#
# Stress axis : x y z
#
# Youngs Moduli (GPa) = 55.09490 55.09490 126.51001
#
# Poissons Ratio (x) = 0.35263 0.28825
# Poissons Ratio (y) = 0.35263 0.28825
# Poissons Ratio (z) = 0.12553 0.12553
#
# Static dielectric constant tensor:
#      x y z
#    x 1.648570 0.000000 0.000000 
#    y 0.000000 1.648570 0.000000 
#    z 0.000000 0.000000 1.711020 
# 
# From -- ./inp_files/5589.got.cif
#   From: 2010.05.17/outbox.cif.g08.bks.cpg/sg94_3_cif.got.tgz:5589.got - 2010.06.03 19:43:16.
