data_PCOD9550445
_publ_section_title
;
Structure prediction by ZEFSAII (Michael W. Deem and Ramdas Pophale) SiO2 
 PCOD9550445
Probable space group: P 43 2 2
;
_chemical_formula_sum "Si O2"
_cell_formula_units_Z 40
_cell_length_a 20.973284
_cell_length_b 20.973284
_cell_length_c 5.312480
_cell_angle_alpha 90.000000
_cell_angle_beta 90.000000
_cell_angle_gamma 90.000000
_cell_volume 2336.846487
_symmetry_space_group_name_H-M "P 43 2 2"
_symmetry_group_IT_number 95
_symmetry_cell_setting 'tetragonal'
loop_
_space_group_symop_operation_xyz
x,y,z
-y,x,3/4+z
-x,-y,1/2+z
y,-x,1/4+z
x,-y,1/2-z
-x,y,-z
y,x,1/4-z
-y,-x,3/4-z
loop_
_atom_site_type_symbol
_atom_site_label
_atom_site_fract_x
_atom_site_fract_y
_atom_site_fract_z
Si Si1 0.019214 0.304602 0.248705
Si Si2 0.718404 0.339390 0.619989
Si Si3 0.366994 0.461707 0.510256
Si Si4 0.615925 0.860666 0.493689
Si Si5 0.075259 0.570673 0.746661
O O1 0.092386 0.323358 0.248987
O O2 0.000000 0.270223 0.500000
O O3 0.976533 0.371423 0.245405
O O4 0.000000 0.268948 0.000000
O O5 0.705999 0.294002 0.375000
O O6 0.678768 0.403252 0.559175
O O7 0.789857 0.361324 0.685044
O O8 0.691221 0.308780 0.875000
O O9 0.377251 0.500000 0.250000
O O10 0.431114 0.431114 0.625000
O O11 0.338957 0.500000 0.750000
O O12 0.576415 0.885236 0.253787
O O13 0.580987 0.878041 0.756675
O O14 0.045508 0.500000 0.750000
#
# Coordination Sequence:
#
# PCOD9550445 Si02
#       5
#     8   8   8   8   8
#     4   8  16  28  43  64  93 121 147 177 208 246
#     4  11  23  40  55  69  93 118 146 190 234 271
#     4  11  23  40  57  72  87 103 128 171 231 294
#     4  10  20  32  48  67  87 122 156 174 214 268
#     4  10  19  30  45  70 101 124 146 180 218 261
#
# _framework density 17.117086
#
# number of rings (size 3 to 8) (size 9 to 14) (size 15 to 20)
#    0.000    2.000    0.000    4.800    0.000   10.400 
#    0.000    1.000    0.000    0.000    0.000    0.000 
#    0.000    0.000    0.000    0.000    0.000    0.000 
#
# Total GULP energy -222895.711113 kJ/mol
# GULP energy per Si atom -5572.392778 kJ/mol
# Density = 1.707813 g / cm^3
# Si number density = 17.117086 Si / 1000 Ang^3
#
#
#
# Elastic Constant Matrix: (Units=GPa)
#
#
# Indices 1 2 3 4 5 6 
#
# 1 67.8745 18.2541 29.5828 0.0000 0.0000 0.0000
# 2 18.2541 67.8756 29.5838 0.0000 0.0000 0.0000
# 3 29.5828 29.5838 178.0962 0.0000 0.0000 0.0000
# 4 0.0000 0.0000 0.0000 18.8252 0.0000 0.0000
# 5 0.0000 0.0000 0.0000 0.0000 18.8265 0.0000
# 6 0.0000 0.0000 0.0000 0.0000 0.0000 11.6509
#
#
#
# Elastic Compliance Matrix: (Units=1/GPa)
#
#
# Indices 1 2 3 4 5 6 
#
# 1 0.016629 -0.003523 -0.002177 0.000000 0.000000 0.000000
# 2 -0.003523 0.016629 -0.002177 0.000000 0.000000 0.000000
# 3 -0.002177 -0.002177 0.006338 0.000000 0.000000 0.000000
# 4 0.000000 0.000000 0.000000 0.053120 0.000000 0.000000
# 5 0.000000 0.000000 0.000000 0.000000 0.053117 0.000000
# 6 0.000000 0.000000 0.000000 0.000000 0.000000 0.085830
#
#
# Mechanical properties :
#
#
# Convention : Reuss Voigt Hill
#
# Bulk Modulus (GPa) = 41.94264 52.07640 47.00952
# Shear Modulus (GPa) = 19.57971 25.62222 22.60097
#
# Velocity S-wave (km/s) = 3.38578 3.87315 3.63764
# Velocity P-wave (km/s) = 6.31199 7.10573 6.72059
#
# Compressibility (1/GPa) = 0.02384209
#
# Stress axis : x y z
#
# Youngs Moduli (GPa) = 60.13415 60.13489 157.77383
#
# Poissons Ratio (x) = 0.21188 0.34347
# Poissons Ratio (y) = 0.21188 0.34348
# Poissons Ratio (z) = 0.13091 0.13092
#
# Static dielectric constant tensor:
#      x y z
#    x 1.577110 0.000000 0.000000 
#    y 0.000000 1.577110 0.000000 
#    z 0.000000 0.000000 1.686300 
# 
# From -- ./inp_files/799.got.cif
#   From: 2010.05.17/outbox.cif.g08.bks.cpg/sg95_1_cif.got.tgz:799.got - 2010.06.03 19:46:49.
