data_PCOD9550197
_publ_section_title
;
Structure prediction by ZEFSAII (Michael W. Deem and Ramdas Pophale) SiO2 
 PCOD9550197
Probable space group: P 42 21 2
;
_chemical_formula_sum "Si O2"
_cell_formula_units_Z 60
_cell_length_a 11.679224
_cell_length_b 11.679224
_cell_length_c 21.699289
_cell_angle_alpha 90.000000
_cell_angle_beta 90.000000
_cell_angle_gamma 90.000000
_cell_volume 2959.875746
_symmetry_space_group_name_H-M "P 42 21 2"
_symmetry_group_IT_number 94
_symmetry_cell_setting 'tetragonal'
loop_
_space_group_symop_operation_xyz
x,y,z
1/2-y,1/2+x,1/2+z
-x,-y,z
1/2+y,1/2-x,1/2+z
1/2+x,1/2-y,1/2-z
1/2-x,1/2+y,1/2-z
y,x,-z
-y,-x,-z
loop_
_atom_site_type_symbol
_atom_site_label
_atom_site_fract_x
_atom_site_fract_y
_atom_site_fract_z
Si Si1 0.513536 0.255229 0.230277
Si Si2 0.536236 0.257915 0.852256
Si Si3 0.779948 0.239778 0.067046
Si Si4 0.825880 0.720272 0.155072
Si Si5 0.108631 0.315382 0.777037
Si Si6 0.000000 0.000000 0.676156
Si Si7 0.624599 0.472660 0.564331
Si Si8 0.596878 0.083589 0.132082
O O1 0.613514 0.235881 0.278797
O O2 0.412884 0.178767 0.258470
O O3 0.483780 0.386423 0.217765
O O4 0.542662 0.193701 0.165832
O O5 0.647025 0.216816 0.890156
O O6 0.413744 0.193830 0.858899
O O7 0.567028 0.262723 0.779076
O O8 0.515020 0.390046 0.866610
O O9 0.700244 0.137228 0.093450
O O10 0.907035 0.189514 0.057493
O O11 0.730556 0.269445 0.000000
O O12 0.717173 0.800130 0.169939
O O13 0.895652 0.790352 0.104208
O O14 0.996431 0.356100 0.812855
O O15 0.500000 0.500000 0.594816
O O16 0.589202 0.410799 0.500000
O O17 0.500000 0.000000 0.101865
#
# Coordination Sequence:
#
# PCOD9550197 Si02
#       8
#     8   8   8   8   8   4   8   8
#     4  11  22  38  63  99 140 179 221 278 355 435
#     4  12  26  44  67 104 147 183 241 290 357 432
#     4  12  25  48  72  97 142 192 242 297 356 434
#     4  12  24  40  67 104 139 182 227 289 359 423
#     4  11  22  38  66 101 140 176 220 292 355 425
#     4  12  22  40  63  94 145 182 226 278 344 428
#     4  11  25  48  69  99 133 174 237 300 357 424
#     4  10  22  42  69 101 139 184 234 286 363 432
#
# _framework density 20.271121999999998
#
# number of rings (size 3 to 8) (size 9 to 14) (size 15 to 20)
#    0.000    0.667    6.667    1.600    0.933    2.667 
#    2.400    1.667    0.000    0.000    0.000    0.000 
#    0.000    0.000    0.000    0.000    0.000    0.000 
#
# Total GULP energy -334402.397439 kJ/mol
# GULP energy per Si atom -5573.373291 kJ/mol
# Density = 2.022498 g / cm^3
# Si number density = 20.271122 Si / 1000 Ang^3
#
#
#
# Elastic Constant Matrix: (Units=GPa)
#
#
# Indices 1 2 3 4 5 6 
#
# 1 127.7853 48.4311 46.5896 0.0000 0.0000 0.0000
# 2 48.4311 127.7851 46.5895 0.0000 0.0000 0.0000
# 3 46.5896 46.5895 60.0343 0.0000 0.0000 0.0000
# 4 0.0000 0.0000 0.0000 33.2172 0.0000 0.0000
# 5 0.0000 0.0000 0.0000 0.0000 33.2179 0.0000
# 6 0.0000 0.0000 0.0000 0.0000 0.0000 37.2117
#
#
#
# Elastic Compliance Matrix: (Units=1/GPa)
#
#
# Indices 1 2 3 4 5 6 
#
# 1 0.011113 -0.001489 -0.007469 0.000000 0.000000 0.000000
# 2 -0.001489 0.011113 -0.007469 0.000000 0.000000 0.000000
# 3 -0.007469 -0.007469 0.028250 0.000000 0.000000 0.000000
# 4 0.000000 0.000000 0.000000 0.030105 0.000000 0.000000
# 5 0.000000 0.000000 0.000000 0.000000 0.030104 0.000000
# 6 0.000000 0.000000 0.000000 0.000000 0.000000 0.026873
#
#
# Mechanical properties :
#
#
# Convention : Reuss Voigt Hill
#
# Bulk Modulus (GPa) = 56.74550 66.53609 61.64080
# Shear Modulus (GPa) = 28.36317 32.32899 30.34608
#
# Velocity S-wave (km/s) = 3.74463 3.99786 3.87332
# Velocity P-wave (km/s) = 6.83743 7.36240 7.10476
#
# Compressibility (1/GPa) = 0.01762254
#
# Stress axis : x y z
#
# Youngs Moduli (GPa) = 89.98495 89.98494 35.39884
#
# Poissons Ratio (x) = 0.13397 0.26439
# Poissons Ratio (y) = 0.13397 0.26439
# Poissons Ratio (z) = 0.67208 0.67208
#
# Static dielectric constant tensor:
#      x y z
#    x 1.613280 0.000000 0.000000 
#    y 0.000000 1.613250 0.000000 
#    z 0.000000 0.000000 1.698790 
# 
# From -- ./inp_files/4805.got.cif
#   From: 2010.05.17/outbox.cif.g08.bks.cpg/sg94_3_cif.got.tgz:4805.got - 2010.06.03 19:43:16.
