data_PCOD9550253
_publ_section_title
;
Structure prediction by ZEFSAII (Michael W. Deem and Ramdas Pophale) SiO2 
 PCOD9550253
Probable space group: P 42 21 2
;
_chemical_formula_sum "Si O2"
_cell_formula_units_Z 36
_cell_length_a 8.510585
_cell_length_b 8.510585
_cell_length_c 20.166822
_cell_angle_alpha 90.000000
_cell_angle_beta 90.000000
_cell_angle_gamma 90.000000
_cell_volume 1460.684068
_symmetry_space_group_name_H-M "P 42 21 2"
_symmetry_group_IT_number 94
_symmetry_cell_setting 'tetragonal'
loop_
_space_group_symop_operation_xyz
x,y,z
1/2-y,1/2+x,1/2+z
-x,-y,z
1/2+y,1/2-x,1/2+z
1/2+x,1/2-y,1/2-z
1/2-x,1/2+y,1/2-z
y,x,-z
-y,-x,-z
loop_
_atom_site_type_symbol
_atom_site_label
_atom_site_fract_x
_atom_site_fract_y
_atom_site_fract_z
Si Si1 0.282134 0.401344 0.101388
Si Si2 0.833103 0.922698 0.839457
Si Si3 0.279878 0.156071 0.285462
Si Si4 0.686081 0.313920 0.000000
Si Si5 0.168578 0.572951 0.881075
O O1 0.143772 0.272574 0.100741
O O2 0.252225 0.504167 0.168172
O O3 0.290942 0.522595 0.040531
O O4 0.443232 0.304698 0.107294
O O5 0.865220 0.776381 0.789478
O O6 0.725835 0.049347 0.800196
O O7 0.000000 0.000000 0.855942
O O8 0.164671 0.286773 0.315794
O O9 0.690586 0.184389 0.056871
O O10 0.000000 0.500000 0.879435
#
# Coordination Sequence:
#
# PCOD9550253 Si02
#       5
#     8   8   8   4   8
#     4  11  23  43  66  92 130 179 230 278 341 422
#     4  12  24  39  63  97 135 172 220 282 351 422
#     4  11  23  40  62  92 131 176 216 268 344 427
#     4  10  23  44  68  92 125 178 233 280 344 420
#     4  11  22  39  64  91 124 165 220 281 332 397
#
# _framework density 24.645983999999999
#
# number of rings (size 3 to 8) (size 9 to 14) (size 15 to 20)
#    0.000    0.889    0.000   10.000    0.000    5.333 
#    0.000    0.000    0.000    1.333    0.000    1.556 
#    0.000    0.000    0.000    0.000    0.000    0.000 
#
# Total GULP energy -201715.496029 kJ/mol
# GULP energy per Si atom -5603.208223 kJ/mol
# Density = 2.458989 g / cm^3
# Si number density = 24.645984 Si / 1000 Ang^3
#
#
#
# Elastic Constant Matrix: (Units=GPa)
#
#
# Indices 1 2 3 4 5 6 
#
# 1 111.6274 32.1378 28.6497 0.0000 0.0000 0.0000
# 2 32.1378 111.6277 28.6498 0.0000 0.0000 0.0000
# 3 28.6497 28.6498 97.2524 0.0000 0.0000 0.0000
# 4 0.0000 0.0000 0.0000 12.4715 0.0000 0.0000
# 5 0.0000 0.0000 0.0000 0.0000 12.4714 0.0000
# 6 0.0000 0.0000 0.0000 0.0000 0.0000 56.2665
#
#
#
# Elastic Compliance Matrix: (Units=1/GPa)
#
#
# Indices 1 2 3 4 5 6 
#
# 1 0.010231 -0.002350 -0.002322 0.000000 0.000000 0.000000
# 2 -0.002350 0.010231 -0.002322 0.000000 0.000000 0.000000
# 3 -0.002322 -0.002322 0.011650 0.000000 0.000000 0.000000
# 4 0.000000 0.000000 0.000000 0.080183 0.000000 0.000000
# 5 0.000000 0.000000 0.000000 0.000000 0.080183 0.000000
# 6 0.000000 0.000000 0.000000 0.000000 0.000000 0.017773
#
#
# Mechanical properties :
#
#
# Convention : Reuss Voigt Hill
#
# Bulk Modulus (GPa) = 55.16988 55.48691 55.32839
# Shear Modulus (GPa) = 21.71289 31.64658 26.67973
#
# Velocity S-wave (km/s) = 2.97137 3.58725 3.29373
# Velocity P-wave (km/s) = 5.84855 6.30240 6.07971
#
# Compressibility (1/GPa) = 0.01812583
#
# Stress axis : x y z
#
# Youngs Moduli (GPa) = 97.74503 97.74532 85.83368
#
# Poissons Ratio (x) = 0.22966 0.19928
# Poissons Ratio (y) = 0.22966 0.19928
# Poissons Ratio (z) = 0.22694 0.22694
#
# Static dielectric constant tensor:
#      x y z
#    x 1.982040 0.000000 0.000000 
#    y 0.000000 1.982040 0.000000 
#    z 0.000000 0.000000 1.940060 
# 
# From -- ./inp_files/4549.got.cif
#   From: 2010.05.17/outbox.cif.g08.bks.cpg/sg94_3_cif.got.tgz:4549.got - 2010.06.03 19:43:16.
