data_PCOD9550931
_publ_section_title
;
Structure prediction by ZEFSAII (Michael W. Deem and Ramdas Pophale) SiO2 
 PCOD9550931
Probable space group: P 43 21 2
;
_chemical_formula_sum "Si O2"
_cell_formula_units_Z 60
_cell_length_a 14.146130
_cell_length_b 14.146130
_cell_length_c 11.899524
_cell_angle_alpha 90.000000
_cell_angle_beta 90.000000
_cell_angle_gamma 90.000000
_cell_volume 2381.249375
_symmetry_space_group_name_H-M "P 43 21 2"
_symmetry_group_IT_number 96
_symmetry_cell_setting 'tetragonal'
loop_
_space_group_symop_operation_xyz
x,y,z
1/2-y,1/2+x,3/4+z
-x,-y,1/2+z
1/2+y,1/2-x,1/4+z
1/2+x,1/2-y,1/4-z
1/2-x,1/2+y,3/4-z
y,x,-z
-y,-x,1/2-z
loop_
_atom_site_type_symbol
_atom_site_label
_atom_site_fract_x
_atom_site_fract_y
_atom_site_fract_z
Si Si1 0.139801 0.848603 0.970875
Si Si2 0.256778 0.537644 0.330638
Si Si3 0.978724 0.626787 0.291551
Si Si4 0.435968 0.564033 0.750000
Si Si5 0.917265 0.923056 0.251996
Si Si6 0.545365 0.751842 0.536871
Si Si7 0.876981 0.433523 0.280305
Si Si8 0.724967 0.172697 0.668890
O O1 0.192039 0.874941 0.854167
O O2 0.228563 0.813309 0.047488
O O3 0.053670 0.780291 0.007844
O O4 0.092393 0.952866 0.995911
O O5 0.169981 0.526901 0.417695
O O6 0.343205 0.559663 0.414102
O O7 0.231047 0.638191 0.276309
O O8 0.070882 0.680212 0.334189
O O9 0.958713 0.514880 0.276837
O O10 0.915357 0.654028 0.400042
O O11 0.392042 0.596224 0.631624
O O12 0.823541 0.980550 0.222950
O O13 0.003326 0.996675 0.250000
O O14 0.581576 0.830262 0.449094
O O15 0.478261 0.802747 0.632537
O O16 0.814099 0.185901 0.750000
#
# Coordination Sequence:
#
# PCOD9550931 Si02
#       8
#     8   8   8   4   8   8   8   8
#     4  11  22  43  70 102 137 189 242 303 362 444
#     4  12  25  41  69 103 142 184 234 304 365 443
#     4  11  20  40  68  94 123 181 235 290 356 427
#     4  10  22  40  74  98 128 182 238 300 360 432
#     4  11  24  43  70 102 139 182 236 300 371 430
#     4  10  23  44  72  99 142 192 246 296 372 449
#     4  10  21  43  71  92 134 189 243 293 361 441
#     4  12  24  40  65 106 141 179 240 299 364 449
#
# _framework density 25.196857000000001
#
# number of rings (size 3 to 8) (size 9 to 14) (size 15 to 20)
#    0.000    1.067    5.333    1.600    2.800    0.000 
#    7.200    5.333    0.000    0.000    0.000    0.000 
#    0.000    0.000    0.000    0.000    0.000    0.000 
#
# Total GULP energy -334489.225034 kJ/mol
# GULP energy per Si atom -5574.820417 kJ/mol
# Density = 2.513951 g / cm^3
# Si number density = 25.196857 Si / 1000 Ang^3
#
#
#
# Elastic Constant Matrix: (Units=GPa)
#
#
# Indices 1 2 3 4 5 6 
#
# 1 62.6586 33.6344 14.5271 0.0000 0.0000 0.0000
# 2 33.6344 62.6674 14.5289 0.0000 0.0000 0.0000
# 3 14.5271 14.5289 93.8969 0.0000 0.0000 0.0000
# 4 0.0000 0.0000 0.0000 16.3985 0.0000 0.0000
# 5 0.0000 0.0000 0.0000 0.0000 16.3968 0.0000
# 6 0.0000 0.0000 0.0000 0.0000 0.0000 22.8841
#
#
#
# Elastic Compliance Matrix: (Units=1/GPa)
#
#
# Indices 1 2 3 4 5 6 
#
# 1 0.022672 -0.011778 -0.001685 0.000000 0.000000 0.000000
# 2 -0.011778 0.022669 -0.001685 0.000000 0.000000 0.000000
# 3 -0.001685 -0.001685 0.011172 0.000000 0.000000 0.000000
# 4 0.000000 0.000000 0.000000 0.060981 0.000000 0.000000
# 5 0.000000 0.000000 0.000000 0.000000 0.060987 0.000000
# 6 0.000000 0.000000 0.000000 0.000000 0.000000 0.043698
#
#
# Mechanical properties :
#
#
# Convention : Reuss Voigt Hill
#
# Bulk Modulus (GPa) = 38.14467 38.28931 38.21699
# Shear Modulus (GPa) = 19.14120 21.57137 20.35629
#
# Velocity S-wave (km/s) = 2.75919 2.92912 2.84542
# Velocity P-wave (km/s) = 5.03214 5.16417 5.09858
#
# Compressibility (1/GPa) = 0.02621598
#
# Stress axis : x y z
#
# Youngs Moduli (GPa) = 44.10633 44.11236 89.51330
#
# Poissons Ratio (x) = 0.51955 0.15086
# Poissons Ratio (y) = 0.51948 0.15087
# Poissons Ratio (z) = 0.07433 0.07435
#
# Static dielectric constant tensor:
#      x y z
#    x 2.041590 0.000000 0.000000 
#    y 0.000000 2.041590 0.000000 
#    z 0.000000 0.000000 1.968960 
# 
# From -- ./inp_files/2819.got.cif
#   From: 2010.05.17/outbox.cif.g08.bks.cpg/sg96_2_cif.got.tgz:2819.got - 2010.06.03 19:52:08.
