data_PCOD9550770
_publ_section_title
;
Structure prediction by ZEFSAII (Michael W. Deem and Ramdas Pophale) SiO2 
 PCOD9550770
Probable space group: P 43 21 2
;
_chemical_formula_sum "Si O2"
_cell_formula_units_Z 40
_cell_length_a 8.224089
_cell_length_b 8.224089
_cell_length_c 21.703627
_cell_angle_alpha 90.000000
_cell_angle_beta 90.000000
_cell_angle_gamma 90.000000
_cell_volume 1467.938700
_symmetry_space_group_name_H-M "P 43 21 2"
_symmetry_group_IT_number 96
_symmetry_cell_setting 'tetragonal'
loop_
_space_group_symop_operation_xyz
x,y,z
1/2-y,1/2+x,3/4+z
-x,-y,1/2+z
1/2+y,1/2-x,1/4+z
1/2+x,1/2-y,1/4-z
1/2-x,1/2+y,3/4-z
y,x,-z
-y,-x,1/2-z
loop_
_atom_site_type_symbol
_atom_site_label
_atom_site_fract_x
_atom_site_fract_y
_atom_site_fract_z
Si Si1 0.918582 0.328836 0.783593
Si Si2 0.199628 0.918207 0.613015
Si Si3 0.188706 0.075418 0.806167
Si Si4 0.161521 0.696089 0.073255
Si Si5 0.986570 0.241518 0.997002
O O1 0.842798 0.471685 0.824022
O O2 0.066952 0.437314 0.750750
O O3 0.029479 0.187199 0.811637
O O4 0.774149 0.225852 0.750000
O O5 0.366667 0.820883 0.605818
O O6 0.100942 0.860857 0.672260
O O7 0.250096 0.103798 0.621658
O O8 0.101421 0.859048 0.552892
O O9 0.260079 0.115110 0.738865
O O10 0.185980 0.886774 0.063423
O O11 0.167775 0.167775 0.000000
#
# Coordination Sequence:
#
# PCOD9550770 Si02
#       5
#     8   8   8   8   8
#     4  10  20  37  63  90 124 171 215 270 336 397
#     4  10  19  37  61  91 124 166 217 271 334 405
#     4  10  21  36  60  90 123 165 217 269 329 406
#     4  10  20  37  61  87 123 163 210 266 331 398
#     4  10  23  41  61  92 132 169 220 278 334 404
#
# _framework density 27.249091
#
# number of rings (size 3 to 8) (size 9 to 14) (size 15 to 20)
#    0.000    2.400    0.000    6.000    0.000    3.200 
#    0.000   14.000    0.000    7.200    0.000    0.000 
#    0.000    0.000    0.000    0.000    0.000    0.000 
#
# Total GULP energy -223471.368214 kJ/mol
# GULP energy per Si atom -5586.784205 kJ/mol
# Density = 2.718707 g / cm^3
# Si number density = 27.249091 Si / 1000 Ang^3
#
#
#
# Elastic Constant Matrix: (Units=GPa)
#
#
# Indices 1 2 3 4 5 6 
#
# 1 106.2699 101.5381 57.9098 0.0000 0.0000 0.0000
# 2 101.5381 106.2692 57.9096 0.0000 0.0000 0.0000
# 3 57.9098 57.9096 97.6193 0.0000 0.0000 0.0000
# 4 0.0000 0.0000 0.0000 32.4969 0.0000 0.0000
# 5 0.0000 0.0000 0.0000 0.0000 32.4967 0.0000
# 6 0.0000 0.0000 0.0000 0.0000 0.0000 58.0901
#
#
#
# Elastic Compliance Matrix: (Units=1/GPa)
#
#
# Indices 1 2 3 4 5 6 
#
# 1 0.109270 -0.102081 -0.004265 0.000000 0.000000 0.000000
# 2 -0.102081 0.109271 -0.004265 0.000000 0.000000 0.000000
# 3 -0.004265 -0.004265 0.015304 0.000000 0.000000 0.000000
# 4 0.000000 0.000000 0.000000 0.030772 0.000000 0.000000
# 5 0.000000 0.000000 0.000000 0.000000 0.030772 0.000000
# 6 0.000000 0.000000 0.000000 0.000000 0.000000 0.017215
#
#
# Mechanical properties :
#
#
# Convention : Reuss Voigt Hill
#
# Bulk Modulus (GPa) = 79.22041 82.76371 80.99206
# Shear Modulus (GPa) = 9.29313 30.80348 20.04830
#
# Velocity S-wave (km/s) = 1.84874 3.36585 2.71540
# Velocity P-wave (km/s) = 5.80456 6.74865 6.29433
#
# Compressibility (1/GPa) = 0.01262301
#
# Stress axis : x y z
#
# Youngs Moduli (GPa) = 9.15165 9.15160 65.34393
#
# Poissons Ratio (x) = 0.93421 0.27867
# Poissons Ratio (y) = 0.93421 0.27867
# Poissons Ratio (z) = 0.03903 0.03903
#
# Static dielectric constant tensor:
#      x y z
#    x 2.129160 0.000000 0.000000 
#    y 0.000000 2.129170 0.000000 
#    z 0.000000 0.000000 2.186860 
# 
# From -- ./inp_files/4313.got.cif
#   From: 2010.05.17/outbox.cif.g08.bks.cpg/sg96_3_cif.got.tgz:4313.got - 2010.06.03 19:52:08.
