data_PCOD9550729
_publ_section_title
;
Structure prediction by ZEFSAII (Michael W. Deem and Ramdas Pophale) SiO2 
 PCOD9550729
Probable space group: P 43 21 2
;
_chemical_formula_sum "Si O2"
_cell_formula_units_Z 52
_cell_length_a 17.826321
_cell_length_b 17.826321
_cell_length_c 7.406737
_cell_angle_alpha 90.000000
_cell_angle_beta 90.000000
_cell_angle_gamma 90.000000
_cell_volume 2353.695999
_symmetry_space_group_name_H-M "P 43 21 2"
_symmetry_group_IT_number 96
_symmetry_cell_setting 'tetragonal'
loop_
_space_group_symop_operation_xyz
x,y,z
1/2-y,1/2+x,3/4+z
-x,-y,1/2+z
1/2+y,1/2-x,1/4+z
1/2+x,1/2-y,1/4-z
1/2-x,1/2+y,3/4-z
y,x,-z
-y,-x,1/2-z
loop_
_atom_site_type_symbol
_atom_site_label
_atom_site_fract_x
_atom_site_fract_y
_atom_site_fract_z
Si Si1 0.657681 0.256975 0.608307
Si Si2 0.343997 0.656004 0.750000
Si Si3 0.600459 0.524955 0.768888
Si Si4 0.911159 0.463443 0.603631
Si Si5 0.997393 0.743503 0.966311
Si Si6 0.594038 0.807489 0.973830
Si Si7 0.483588 0.331299 0.321532
O O1 0.679287 0.320713 0.750000
O O2 0.677840 0.292057 0.417893
O O3 0.569621 0.240708 0.634912
O O4 0.697758 0.180384 0.666362
O O5 0.433723 0.666849 0.738811
O O6 0.531718 0.468283 0.750000
O O7 0.672324 0.503885 0.648754
O O8 0.572279 0.608700 0.731634
O O9 0.632657 0.515018 0.973641
O O10 0.940982 0.541300 0.681919
O O11 0.822101 0.474024 0.580407
O O12 0.923876 0.396243 0.751427
O O13 0.073131 0.722701 0.075267
O O14 0.548804 0.752560 0.841034
#
# Coordination Sequence:
#
# PCOD9550729 Si02
#       7
#     8   4   8   8   8   8   8
#     4  11  23  38  69  93 125 175 222 266 334 394
#     4  12  22  42  64  96 136 170 220 278 324 394
#     4  10  18  32  60  90 122 165 215 245 308 401
#     4   9  18  35  61  81 108 153 205 260 319 380
#     4   9  18  35  60  88 122 157 207 265 313 388
#     4   9  19  38  63  85 120 171 205 262 331 384
#     4  10  21  35  61  90 125 174 209 262 330 384
#
# _framework density 22.092911999999998
#
# number of rings (size 3 to 8) (size 9 to 14) (size 15 to 20)
#    0.000    2.154    3.846    0.462    4.308    0.000 
#    0.000    4.615    6.769    0.000    0.000    0.000 
#    0.000    0.000    0.000    0.000    0.000    0.000 
#
# Total GULP energy -290030.727504 kJ/mol
# GULP energy per Si atom -5577.513990 kJ/mol
# Density = 2.204263 g / cm^3
# Si number density = 22.092912 Si / 1000 Ang^3
#
#
#
# Elastic Constant Matrix: (Units=GPa)
#
#
# Indices 1 2 3 4 5 6 
#
# 1 -189.4007 268.9146 1.2242 0.0000 0.0000 0.0000
# 2 268.9146 -189.3945 1.2719 0.0000 0.0000 0.0000
# 3 1.2242 1.2719 53.4900 0.0000 0.0000 0.0000
# 4 0.0000 0.0000 0.0000 -47.5063 0.0000 0.0000
# 5 0.0000 0.0000 0.0000 0.0000 -47.5640 0.0000
# 6 0.0000 0.0000 0.0000 0.0000 0.0000 32.1871
#
#
#
# Elastic Compliance Matrix: (Units=1/GPa)
#
#
# Indices 1 2 3 4 5 6 
#
# 1 0.005202 0.007384 -0.000295 0.000000 0.000000 0.000000
# 2 0.007384 0.005202 -0.000293 0.000000 0.000000 0.000000
# 3 -0.000295 -0.000293 0.018709 0.000000 0.000000 0.000000
# 4 0.000000 0.000000 0.000000 -0.021050 0.000000 0.000000
# 5 0.000000 0.000000 0.000000 0.000000 -0.021024 0.000000
# 6 0.000000 0.000000 0.000000 0.000000 0.000000 0.031068
#
#
# Mechanical properties :
#
#
# Convention : Reuss Voigt Hill
#
# Bulk Modulus (GPa) = 23.41671 24.16844 23.79257
# Shear Modulus (GPa) = 266.68629 -52.35772 107.16429
#
# Velocity S-wave (km/s) = 10.99879 -4.87343 6.97219
# Velocity P-wave (km/s) = 13.11182 4.55015 8.69529
#
# Compressibility (1/GPa) = 0.04270456
#
# Stress axis : x y z
#
# Youngs Moduli (GPa) = 192.25005 192.24596 53.45080
#
# Poissons Ratio (x) = -1.41945 0.01575
# Poissons Ratio (y) = -1.41948 0.01564
# Poissons Ratio (z) = 0.05664 0.05626
#
# Static dielectric constant tensor:
#      x y z
#    x 1.887250 0.000000 0.000000 
#    y 0.000000 1.887280 0.000000 
#    z 0.000000 0.000000 2.010000 
# 
# From -- ./inp_files/1564.got.cif
#   From: 2010.05.17/outbox.cif.g08.bks.cpg/sg96_1_cif.got.tgz:1564.got - 2010.06.03 19:52:08.
