data_PCOD9550128
_publ_section_title
;
Structure prediction by ZEFSAII (Michael W. Deem and Ramdas Pophale) SiO2 
 PCOD9550128
Probable space group: P 42 21 2
;
_chemical_formula_sum "Si O2"
_cell_formula_units_Z 36
_cell_length_a 9.394675
_cell_length_b 9.394675
_cell_length_c 20.051620
_cell_angle_alpha 90.000000
_cell_angle_beta 90.000000
_cell_angle_gamma 90.000000
_cell_volume 1769.754344
_symmetry_space_group_name_H-M "P 42 21 2"
_symmetry_group_IT_number 94
_symmetry_cell_setting 'tetragonal'
loop_
_space_group_symop_operation_xyz
x,y,z
1/2-y,1/2+x,1/2+z
-x,-y,z
1/2+y,1/2-x,1/2+z
1/2+x,1/2-y,1/2-z
1/2-x,1/2+y,1/2-z
y,x,-z
-y,-x,-z
loop_
_atom_site_type_symbol
_atom_site_label
_atom_site_fract_x
_atom_site_fract_y
_atom_site_fract_z
Si Si1 0.657889 0.933501 0.250578
Si Si2 0.265877 0.008158 0.905500
Si Si3 0.376112 0.395205 0.728242
Si Si4 0.007371 0.270682 0.598018
Si Si5 0.000000 0.000000 0.500000
Si Si6 0.500000 0.500000 0.500000
O O1 0.648509 0.766767 0.230750
O O2 0.735670 0.951027 0.323053
O O3 0.500000 0.000000 0.256587
O O4 0.754299 0.037648 0.205934
O O5 0.354869 0.152678 0.903947
O O6 0.138021 0.006166 0.955336
O O7 0.198874 0.974426 0.833421
O O8 0.375455 0.884181 0.926022
O O9 0.500000 0.500000 0.754913
O O10 0.005253 0.134307 0.550707
#
# Coordination Sequence:
#
# PCOD9550128 Si02
#       6
#     8   8   8   8   2   2
#     4  11  22  41  65  91 133 169 208 272 334 395
#     4  10  21  41  63  89 129 162 218 264 327 375
#     4  11  22  39  64  95 126 169 213 265 326 410
#     4  10  22  43  60  90 130 171 206 274 323 378
#     4  12  24  40  66  92 124 172 236 254 322 406
#     4  12  20  32  70  88 112 176 212 278 304 384
#
# _framework density 20.341808
#
# number of rings (size 3 to 8) (size 9 to 14) (size 15 to 20)
#    0.000    1.333    5.556    2.667    1.556    0.000 
#    0.000    0.000    4.889    0.000    0.000    0.000 
#    0.000    0.000    0.000    0.000    0.000    0.000 
#
# Total GULP energy -200741.946254 kJ/mol
# GULP energy per Si atom -5576.165174 kJ/mol
# Density = 2.029551 g / cm^3
# Si number density = 20.341808 Si / 1000 Ang^3
#
#
#
# Elastic Constant Matrix: (Units=GPa)
#
#
# Indices 1 2 3 4 5 6 
#
# 1 164.4342 64.8627 27.6279 0.0000 0.0000 0.0000
# 2 64.8627 164.4342 27.6279 0.0000 0.0000 0.0000
# 3 27.6279 27.6279 29.5112 0.0000 0.0000 0.0000
# 4 0.0000 0.0000 0.0000 24.3183 0.0000 0.0000
# 5 0.0000 0.0000 0.0000 0.0000 24.3183 0.0000
# 6 0.0000 0.0000 0.0000 0.0000 0.0000 36.1766
#
#
#
# Elastic Compliance Matrix: (Units=1/GPa)
#
#
# Indices 1 2 3 4 5 6 
#
# 1 0.007837 -0.002206 -0.005272 0.000000 0.000000 0.000000
# 2 -0.002206 0.007837 -0.005272 0.000000 0.000000 0.000000
# 3 -0.005272 -0.005272 0.043757 0.000000 0.000000 0.000000
# 4 0.000000 0.000000 0.000000 0.041121 0.000000 0.000000
# 5 0.000000 0.000000 0.000000 0.000000 0.041121 0.000000
# 6 0.000000 0.000000 0.000000 0.000000 0.000000 0.027642
#
#
# Mechanical properties :
#
#
# Convention : Reuss Voigt Hill
#
# Bulk Modulus (GPa) = 29.47128 66.51296 47.99212
# Shear Modulus (GPa) = 24.25683 32.84672 28.55178
#
# Velocity S-wave (km/s) = 3.45695 4.02274 3.75053
# Velocity P-wave (km/s) = 5.51847 7.37192 6.51148
#
# Compressibility (1/GPa) = 0.03393133
#
# Stress axis : x y z
#
# Youngs Moduli (GPa) = 127.59419 127.59419 22.85342
#
# Poissons Ratio (x) = 0.28143 0.12049
# Poissons Ratio (y) = 0.28143 0.12049
# Poissons Ratio (z) = 0.67271 0.67271
#
# Static dielectric constant tensor:
#      x y z
#    x 1.750770 0.000000 0.000000 
#    y 0.000000 1.750770 0.000000 
#    z 0.000000 0.000000 1.742910 
# 
# From -- ./inp_files/5235.got.cif
#   From: 2010.05.17/outbox.cif.g08.bks.cpg/sg94_3_cif.got.tgz:5235.got - 2010.06.03 19:43:16.
