data_PCOD9550429
_publ_section_title
;
Structure prediction by ZEFSAII (Michael W. Deem and Ramdas Pophale) SiO2 
 PCOD9550429
Probable space group: P 43 2 2
;
_chemical_formula_sum "Si O2"
_cell_formula_units_Z 64
_cell_length_a 11.839789
_cell_length_b 11.839789
_cell_length_c 21.839520
_cell_angle_alpha 90.000000
_cell_angle_beta 90.000000
_cell_angle_gamma 90.000000
_cell_volume 3061.477095
_symmetry_space_group_name_H-M "P 43 2 2"
_symmetry_group_IT_number 95
_symmetry_cell_setting 'tetragonal'
loop_
_space_group_symop_operation_xyz
x,y,z
-y,x,3/4+z
-x,-y,1/2+z
y,-x,1/4+z
x,-y,1/2-z
-x,y,-z
y,x,1/4-z
-y,-x,3/4-z
loop_
_atom_site_type_symbol
_atom_site_label
_atom_site_fract_x
_atom_site_fract_y
_atom_site_fract_z
Si Si1 0.064942 0.870114 0.237713
Si Si2 0.639893 0.925440 0.542667
Si Si3 0.378725 0.188206 0.443054
Si Si4 0.771747 0.866364 0.356311
Si Si5 0.107314 0.815237 0.942447
Si Si6 0.621437 0.449238 0.095432
Si Si7 0.696291 0.334957 0.448329
Si Si8 0.557774 0.191348 0.082987
O O1 0.085900 0.775731 0.289817
O O2 0.116430 0.828771 0.173059
O O3 0.930258 0.867258 0.227670
O O4 0.097695 0.000000 0.250000
O O5 0.571996 0.844394 0.588712
O O6 0.603635 0.877501 0.475991
O O7 0.595600 0.054551 0.551715
O O8 0.250158 0.185383 0.419790
O O9 0.436584 0.274130 0.394154
O O10 0.376009 0.249604 0.509516
O O11 0.637488 0.852242 0.363329
O O12 0.796288 0.975702 0.316482
O O13 0.155085 0.844916 0.875000
O O14 0.176550 0.704775 0.961863
O O15 0.514346 0.514346 0.125000
O O16 0.664311 0.534390 0.042102
O O17 0.583351 0.324245 0.075821
O O18 0.678672 0.321329 0.375000
#
# Coordination Sequence:
#
# PCOD9550429 Si02
#       8
#     8   8   8   8   8   8   8   8
#     4  10  18  33  57  88 123 159 204 255 307 370
#     4  10  20  35  62  87 113 156 202 247 303 363
#     4  11  22  39  59  90 125 157 206 258 309 374
#     4   9  20  35  55  84 128 165 199 254 308 373
#     4   9  17  30  51  84 120 149 192 247 315 363
#     4  10  24  42  60  86 121 157 203 257 309 364
#     4  10  22  35  59  92 116 150 200 255 312 361
#     4   9  21  37  56  85 116 160 203 249 300 365
#
# _framework density 20.90494
#
# number of rings (size 3 to 8) (size 9 to 14) (size 15 to 20)
#    0.000    2.250    1.250    0.750    3.500    7.000 
#    0.000    1.250    0.000    3.000    0.000    0.000 
#    0.000    0.000    0.000    0.000    0.000    0.000 
#
# Total GULP energy -356644.572896 kJ/mol
# GULP energy per Si atom -5572.571451 kJ/mol
# Density = 2.085736 g / cm^3
# Si number density = 20.904940 Si / 1000 Ang^3
#
#
#
# Elastic Constant Matrix: (Units=GPa)
#
#
# Indices 1 2 3 4 5 6 
#
# 1 149.1832 45.7012 25.3791 0.0000 0.0000 0.0000
# 2 45.7012 149.1832 25.3793 0.0000 0.0000 0.0000
# 3 25.3791 25.3793 42.3509 0.0000 0.0000 0.0000
# 4 0.0000 0.0000 0.0000 25.0986 0.0000 0.0000
# 5 0.0000 0.0000 0.0000 0.0000 25.0987 0.0000
# 6 0.0000 0.0000 0.0000 0.0000 0.0000 32.6832
#
#
#
# Elastic Compliance Matrix: (Units=1/GPa)
#
#
# Indices 1 2 3 4 5 6 
#
# 1 0.007872 -0.001792 -0.003644 0.000000 0.000000 0.000000
# 2 -0.001792 0.007872 -0.003644 0.000000 0.000000 0.000000
# 3 -0.003644 -0.003644 0.027979 0.000000 0.000000 0.000000
# 4 0.000000 0.000000 0.000000 0.039843 0.000000 0.000000
# 5 0.000000 0.000000 0.000000 0.000000 0.039843 0.000000
# 6 0.000000 0.000000 0.000000 0.000000 0.000000 0.030597
#
#
# Mechanical properties :
#
#
# Convention : Reuss Voigt Hill
#
# Bulk Modulus (GPa) = 39.11578 59.29296 49.20437
# Shear Modulus (GPa) = 27.67249 32.85995 30.26622
#
# Velocity S-wave (km/s) = 3.64226 3.96899 3.80913
# Velocity P-wave (km/s) = 6.03655 7.03054 6.55242
#
# Compressibility (1/GPa) = 0.02556513
#
# Stress axis : x y z
#
# Youngs Moduli (GPa) = 127.03454 127.03426 35.74077
#
# Poissons Ratio (x) = 0.22760 0.13023
# Poissons Ratio (y) = 0.22760 0.13023
# Poissons Ratio (z) = 0.46287 0.46287
#
# Static dielectric constant tensor:
#      x y z
#    x 1.808280 0.000000 0.000000 
#    y 0.000000 1.808280 0.000000 
#    z 0.000000 0.000000 1.844010 
# 
# From -- ./inp_files/7513.got.cif
#   From: 2010.05.17/outbox.cif.g08.bks.cpg/sg95_4_cif.got.tgz:7513.got - 2010.06.03 19:46:49.
