data_PCOD9550034
_publ_section_title
;
Structure prediction by ZEFSAII (Michael W. Deem and Ramdas Pophale) SiO2 
 PCOD9550034
Probable space group: P 42 21 2
;
_chemical_formula_sum "Si O2"
_cell_formula_units_Z 40
_cell_length_a 14.631156
_cell_length_b 14.631156
_cell_length_c 8.189763
_cell_angle_alpha 90.000000
_cell_angle_beta 90.000000
_cell_angle_gamma 90.000000
_cell_volume 1753.188510
_symmetry_space_group_name_H-M "P 42 21 2"
_symmetry_group_IT_number 94
_symmetry_cell_setting 'tetragonal'
loop_
_space_group_symop_operation_xyz
x,y,z
1/2-y,1/2+x,1/2+z
-x,-y,z
1/2+y,1/2-x,1/2+z
1/2+x,1/2-y,1/2-z
1/2-x,1/2+y,1/2-z
y,x,-z
-y,-x,-z
loop_
_atom_site_type_symbol
_atom_site_label
_atom_site_fract_x
_atom_site_fract_y
_atom_site_fract_z
Si Si1 0.873525 0.873525 0.500000
Si Si2 0.805214 0.805214 0.000000
Si Si3 0.321699 0.894584 0.593977
Si Si4 0.815232 0.447356 0.137352
Si Si5 0.860567 0.038495 0.749114
Si Si6 0.179716 0.005663 0.119624
O O1 0.890512 0.768448 0.555368
O O2 0.955542 0.885806 0.369606
O O3 0.697180 0.822842 0.982253
O O4 0.828286 0.884089 0.130043
O O5 0.380997 0.878193 0.757051
O O6 0.217241 0.907189 0.651118
O O7 0.353787 0.984460 0.498221
O O8 0.768853 0.513520 0.274269
O O9 0.947024 0.099435 0.801163
O O10 0.817773 0.013229 0.926707
#
# Coordination Sequence:
#
# PCOD9550034 Si02
#       6
#     4   4   8   8   8   8
#     4  10  22  37  62 100 142 182 228 287 362 435
#     4  10  20  37  62  91 132 172 212 274 342 424
#     4  10  21  40  65  96 134 177 226 281 344 414
#     4  10  22  40  65  98 134 179 229 283 348 419
#     4  10  21  37  60  96 138 176 222 284 351 417
#     4  10  21  36  60  96 133 173 217 268 345 421
#
# _framework density 22.815572
#
# number of rings (size 3 to 8) (size 9 to 14) (size 15 to 20)
#    0.000    2.000    0.000    3.600    0.000   10.400 
#    0.000    8.000    0.000   14.400    0.000   19.600 
#    0.000    0.000    0.000    0.000    0.000    0.000 
#
# Total GULP energy -222972.637513 kJ/mol
# GULP energy per Si atom -5574.315938 kJ/mol
# Density = 2.276364 g / cm^3
# Si number density = 22.815572 Si / 1000 Ang^3
#
#
#
# Elastic Constant Matrix: (Units=GPa)
#
#
# Indices 1 2 3 4 5 6 
#
# 1 73.5264 93.2665 55.6776 0.0000 0.0000 0.0000
# 2 93.2665 73.5264 55.6776 0.0000 0.0000 0.0000
# 3 55.6776 55.6776 111.4655 0.0000 0.0000 0.0000
# 4 0.0000 0.0000 0.0000 44.4168 0.0000 0.0000
# 5 0.0000 0.0000 0.0000 0.0000 44.4168 0.0000
# 6 0.0000 0.0000 0.0000 0.0000 0.0000 34.4195
#
#
#
# Elastic Compliance Matrix: (Units=1/GPa)
#
#
# Indices 1 2 3 4 5 6 
#
# 1 -0.020832 0.029827 -0.004493 0.000000 0.000000 0.000000
# 2 0.029827 -0.020832 -0.004493 0.000000 0.000000 0.000000
# 3 -0.004493 -0.004493 0.013460 0.000000 0.000000 0.000000
# 4 0.000000 0.000000 0.000000 0.022514 0.000000 0.000000
# 5 0.000000 0.000000 0.000000 0.000000 0.022514 0.000000
# 6 0.000000 0.000000 0.000000 0.000000 0.000000 0.029053
#
#
# Mechanical properties :
#
#
# Convention : Reuss Voigt Hill
#
# Bulk Modulus (GPa) = 74.19556 74.19573 74.19565
# Shear Modulus (GPa) = 575.36897 28.24373 301.80635
#
# Velocity S-wave (km/s) = 15.89749 3.52222 11.51382
# Velocity P-wave (km/s) = 19.22404 7.00940 14.46885
#
# Compressibility (1/GPa) = 0.01347789
#
# Stress axis : x y z
#
# Youngs Moduli (GPa) = -48.00415 -48.00415 74.29365
#
# Poissons Ratio (x) = 1.43181 0.33381
# Poissons Ratio (y) = 1.43181 0.33381
# Poissons Ratio (z) = -0.21569 -0.21569
#
# Static dielectric constant tensor:
#      x y z
#    x 1.900490 0.000000 0.000000 
#    y 0.000000 1.900490 0.000000 
#    z 0.000000 0.000000 1.940330 
# 
# From -- ./inp_files/1474.got.cif
#   From: 2010.05.17/outbox.cif.g08.bks.cpg/sg94_1_cif.got.tgz:1474.got - 2010.06.03 19:43:16.
