data_PCOD9550626
_publ_section_title
;
Structure prediction by ZEFSAII (Michael W. Deem and Ramdas Pophale) SiO2 
 PCOD9550626
Probable space group: P 43 2 2
;
_chemical_formula_sum "Si O2"
_cell_formula_units_Z 48
_cell_length_a 9.222233
_cell_length_b 9.222233
_cell_length_c 25.767043
_cell_angle_alpha 90.000000
_cell_angle_beta 90.000000
_cell_angle_gamma 90.000000
_cell_volume 2191.476224
_symmetry_space_group_name_H-M "P 43 2 2"
_symmetry_group_IT_number 95
_symmetry_cell_setting 'tetragonal'
loop_
_space_group_symop_operation_xyz
x,y,z
-y,x,3/4+z
-x,-y,1/2+z
y,-x,1/4+z
x,-y,1/2-z
-x,y,-z
y,x,1/4-z
-y,-x,3/4-z
loop_
_atom_site_type_symbol
_atom_site_label
_atom_site_fract_x
_atom_site_fract_y
_atom_site_fract_z
Si Si1 0.209129 0.828052 0.161022
Si Si2 0.165263 0.043102 0.513261
Si Si3 0.672828 0.652841 0.996191
Si Si4 0.493912 0.909614 0.800601
Si Si5 0.744447 0.930513 0.589759
Si Si6 0.821400 0.453514 0.611083
O O1 0.048010 0.842202 0.183567
O O2 0.332056 0.903821 0.195578
O O3 0.233713 0.658849 0.153192
O O4 0.249937 0.900120 0.105611
O O5 0.224905 0.926877 0.470811
O O6 0.000000 0.083789 0.500000
O O7 0.264055 0.185210 0.507095
O O8 0.729472 0.576544 0.941917
O O9 0.500000 0.653224 0.000000
O O10 0.749011 0.562502 0.042455
O O11 0.453005 0.000000 0.750000
O O12 0.426968 0.008570 0.845807
O O13 0.874120 0.874120 0.625000
O O14 0.609164 0.839628 0.611573
#
# Coordination Sequence:
#
# PCOD9550626 Si02
#       6
#     8   8   8   8   8   8
#     4  11  23  40  68  98 131 171 226 277 340 404
#     4  12  24  41  69 101 131 175 228 281 336 404
#     4  11  25  43  66  96 137 179 225 277 345 414
#     4   9  21  43  65  87 127 178 216 266 336 401
#     4  11  24  41  67 100 132 174 228 278 338 407
#     4  10  23  43  66  94 138 175 217 287 342 403
#
# _framework density 21.903043
#
# number of rings (size 3 to 8) (size 9 to 14) (size 15 to 20)
#    0.000    1.333    3.333    2.000    7.000    1.333 
#    0.000    1.667    0.000    0.000    0.000    0.000 
#    0.000    0.000    0.000    0.000    0.000    0.000 
#
# Total GULP energy -267277.337226 kJ/mol
# GULP energy per Si atom -5568.277859 kJ/mol
# Density = 2.185319 g / cm^3
# Si number density = 21.903043 Si / 1000 Ang^3
#
#
#
# Elastic Constant Matrix: (Units=GPa)
#
#
# Indices 1 2 3 4 5 6 
#
# 1 95.0385 25.4756 7.6102 0.0000 0.0000 0.0000
# 2 25.4756 95.0385 7.6102 0.0000 0.0000 0.0000
# 3 7.6102 7.6102 27.3148 0.0000 0.0000 0.0000
# 4 0.0000 0.0000 0.0000 19.1030 0.0000 0.0000
# 5 0.0000 0.0000 0.0000 0.0000 19.1030 0.0000
# 6 0.0000 0.0000 0.0000 0.0000 0.0000 14.5252
#
#
#
# Elastic Compliance Matrix: (Units=1/GPa)
#
#
# Indices 1 2 3 4 5 6 
#
# 1 0.011488 -0.002888 -0.002396 0.000000 0.000000 0.000000
# 2 -0.002888 0.011488 -0.002396 0.000000 0.000000 0.000000
# 3 -0.002396 -0.002396 0.037945 0.000000 0.000000 0.000000
# 4 0.000000 0.000000 0.000000 0.052348 0.000000 0.000000
# 5 0.000000 0.000000 0.000000 0.000000 0.052348 0.000000
# 6 0.000000 0.000000 0.000000 0.000000 0.000000 0.068846
#
#
# Mechanical properties :
#
#
# Convention : Reuss Voigt Hill
#
# Bulk Modulus (GPa) = 21.94837 33.19821 27.57329
# Shear Modulus (GPa) = 18.86723 22.32596 20.59660
#
# Velocity S-wave (km/s) = 2.93814 3.19612 3.06984
# Velocity P-wave (km/s) = 4.64249 5.36750 5.01811
#
# Compressibility (1/GPa) = 0.04556148
#
# Stress axis : x y z
#
# Youngs Moduli (GPa) = 87.04778 87.04778 26.35367
#
# Poissons Ratio (x) = 0.25135 0.06315
# Poissons Ratio (y) = 0.25135 0.06315
# Poissons Ratio (z) = 0.20858 0.20858
#
# Static dielectric constant tensor:
#      x y z
#    x 1.858220 0.000000 0.000000 
#    y 0.000000 1.858220 0.000000 
#    z 0.000000 0.000000 1.854800 
# 
# From -- ./inp_files/7925.got.cif
#   From: 2010.05.17/outbox.cif.g08.bks.cpg/sg95_4_cif.got.tgz:7925.got - 2010.06.03 19:46:49.
