data_PCOD9550872
_publ_section_title
;
Structure prediction by ZEFSAII (Michael W. Deem and Ramdas Pophale) SiO2 
 PCOD9550872
Probable space group: P 43 21 2
;
_chemical_formula_sum "Si O2"
_cell_formula_units_Z 40
_cell_length_a 8.427636
_cell_length_b 8.427636
_cell_length_c 22.177569
_cell_angle_alpha 90.000000
_cell_angle_beta 90.000000
_cell_angle_gamma 90.000000
_cell_volume 1575.162915
_symmetry_space_group_name_H-M "P 43 21 2"
_symmetry_group_IT_number 96
_symmetry_cell_setting 'tetragonal'
loop_
_space_group_symop_operation_xyz
x,y,z
1/2-y,1/2+x,3/4+z
-x,-y,1/2+z
1/2+y,1/2-x,1/4+z
1/2+x,1/2-y,1/4-z
1/2-x,1/2+y,3/4-z
y,x,-z
-y,-x,1/2-z
loop_
_atom_site_type_symbol
_atom_site_label
_atom_site_fract_x
_atom_site_fract_y
_atom_site_fract_z
Si Si1 0.045837 0.102360 0.189935
Si Si2 0.639302 0.422291 0.664381
Si Si3 0.428630 0.109661 0.664008
Si Si4 0.633562 0.889756 0.512089
Si Si5 0.236204 0.811008 0.991880
O O1 0.230649 0.146032 0.193250
O O2 0.964578 0.276788 0.194130
O O3 0.991282 0.008719 0.250000
O O4 0.973686 0.003251 0.135742
O O5 0.567218 0.242461 0.669659
O O6 0.826258 0.404546 0.646876
O O7 0.641097 0.565348 0.714020
O O8 0.297654 0.174073 0.710894
O O9 0.443629 0.940240 0.697342
O O10 0.788525 0.788525 0.500000
O O11 0.687839 0.057636 0.535318
#
# Coordination Sequence:
#
# PCOD9550872 Si02
#       5
#     8   8   8   8   8
#     4  10  22  46  68  98 139 180 235 291 358 420
#     4  12  25  44  69 105 140 188 238 291 371 435
#     4  11  26  45  64 106 142 177 235 299 353 440
#     4  10  20  44  69  93 139 184 232 290 346 413
#     4  11  25  43  72 101 139 184 238 301 352 435
#
# _framework density 25.394200999999999
#
# number of rings (size 3 to 8) (size 9 to 14) (size 15 to 20)
#    0.000    1.200    6.000    1.800    5.600    4.800 
#    0.000    0.000    0.000    0.000    0.000    0.000 
#    0.000    0.000    0.000    0.000    0.000    0.000 
#
# Total GULP energy -222831.408821 kJ/mol
# GULP energy per Si atom -5570.785221 kJ/mol
# Density = 2.533640 g / cm^3
# Si number density = 25.394201 Si / 1000 Ang^3
#
#
#
# Elastic Constant Matrix: (Units=GPa)
#
#
# Indices 1 2 3 4 5 6 
#
# 1 72.4542 52.5170 6.9004 0.0000 0.0000 0.0000
# 2 52.5170 72.4566 6.9010 0.0000 0.0000 0.0000
# 3 6.9004 6.9010 37.3305 0.0000 0.0000 0.0000
# 4 0.0000 0.0000 0.0000 18.5196 0.0000 0.0000
# 5 0.0000 0.0000 0.0000 0.0000 18.5195 0.0000
# 6 0.0000 0.0000 0.0000 0.0000 0.0000 51.9743
#
#
#
# Elastic Compliance Matrix: (Units=1/GPa)
#
#
# Indices 1 2 3 4 5 6 
#
# 1 0.029162 -0.020993 -0.001510 0.000000 0.000000 0.000000
# 2 -0.020993 0.029161 -0.001510 0.000000 0.000000 0.000000
# 3 -0.001510 -0.001510 0.027346 0.000000 0.000000 0.000000
# 4 0.000000 0.000000 0.000000 0.053997 0.000000 0.000000
# 5 0.000000 0.000000 0.000000 0.000000 0.053997 0.000000
# 6 0.000000 0.000000 0.000000 0.000000 0.000000 0.019240
#
#
# Mechanical properties :
#
#
# Convention : Reuss Voigt Hill
#
# Bulk Modulus (GPa) = 26.56530 34.98645 30.77588
# Shear Modulus (GPa) = 18.28310 25.53088 21.90699
#
# Velocity S-wave (km/s) = 2.68614 3.17422 2.94032
# Velocity P-wave (km/s) = 4.48379 5.21933 4.86548
#
# Compressibility (1/GPa) = 0.03764309
#
# Stress axis : x y z
#
# Youngs Moduli (GPa) = 34.29134 34.29236 36.56843
#
# Poissons Ratio (x) = 0.71990 0.05521
# Poissons Ratio (y) = 0.71988 0.05523
# Poissons Ratio (z) = 0.05177 0.05179
#
# Static dielectric constant tensor:
#      x y z
#    x 2.065740 0.000000 0.000000 
#    y 0.000000 2.065740 0.000000 
#    z 0.000000 0.000000 2.219660 
# 
# From -- ./inp_files/4108.got.cif
#   From: 2010.05.17/outbox.cif.g08.bks.cpg/sg96_3_cif.got.tgz:4108.got - 2010.06.03 19:52:08.
