data_PCOD9550471
_publ_section_title
;
Structure prediction by ZEFSAII (Michael W. Deem and Ramdas Pophale) SiO2 
 PCOD9550471
Probable space group: P 43 2 2
;
_chemical_formula_sum "Si O2"
_cell_formula_units_Z 36
_cell_length_a 12.398968
_cell_length_b 12.398968
_cell_length_c 10.007528
_cell_angle_alpha 90.000000
_cell_angle_beta 90.000000
_cell_angle_gamma 90.000000
_cell_volume 1538.501387
_symmetry_space_group_name_H-M "P 43 2 2"
_symmetry_group_IT_number 95
_symmetry_cell_setting 'tetragonal'
loop_
_space_group_symop_operation_xyz
x,y,z
-y,x,3/4+z
-x,-y,1/2+z
y,-x,1/4+z
x,-y,1/2-z
-x,y,-z
y,x,1/4-z
-y,-x,3/4-z
loop_
_atom_site_type_symbol
_atom_site_label
_atom_site_fract_x
_atom_site_fract_y
_atom_site_fract_z
Si Si1 0.596049 0.230868 0.390566
Si Si2 0.251028 0.876648 0.086610
Si Si3 0.432530 0.170330 0.193362
Si Si4 0.745804 0.115349 0.977426
Si Si5 0.420957 0.420957 0.125000
O O1 0.500000 0.241269 0.500000
O O2 0.651213 0.348788 0.375000
O O3 0.690433 0.161337 0.454379
O O4 0.548928 0.165433 0.263475
O O5 0.347785 0.874108 0.196692
O O6 0.160118 0.792656 0.134436
O O7 0.213306 0.997930 0.063791
O O8 0.382336 0.123469 0.055465
O O9 0.428628 0.299349 0.177734
O O10 0.800542 0.199459 0.875000
O O11 0.437375 0.500000 0.250000
#
# Coordination Sequence:
#
# PCOD9550471 Si02
#       5
#     8   8   8   8   4
#     4  10  24  42  60  90 136 172 219 282 339 407
#     4  10  21  42  66  97 129 173 225 296 356 420
#     4  10  21  40  62  90 128 177 227 274 344 419
#     4  10  19  41  71  94 127 172 231 287 355 425
#     4  12  28  40  64 106 138 186 248 290 362 432
#
# _framework density 23.399394000000001
#
# number of rings (size 3 to 8) (size 9 to 14) (size 15 to 20)
#    0.000    1.778    3.333    2.667    7.778    0.000 
#    0.000   21.111    0.000    0.000    0.000    0.000 
#    0.000    0.000    0.000    0.000    0.000    0.000 
#
# Total GULP energy -200780.178844 kJ/mol
# GULP energy per Si atom -5577.227190 kJ/mol
# Density = 2.334614 g / cm^3
# Si number density = 23.399394 Si / 1000 Ang^3
#
#
#
# Elastic Constant Matrix: (Units=GPa)
#
#
# Indices 1 2 3 4 5 6 
#
# 1 93.6585 27.8387 51.4186 0.0000 0.0000 0.0000
# 2 27.8387 93.6582 51.4176 0.0000 0.0000 0.0000
# 3 51.4186 51.4176 84.2975 0.0000 0.0000 0.0000
# 4 0.0000 0.0000 0.0000 31.2677 0.0000 0.0000
# 5 0.0000 0.0000 0.0000 0.0000 31.2679 0.0000
# 6 0.0000 0.0000 0.0000 0.0000 0.0000 4.3684
#
#
#
# Elastic Compliance Matrix: (Units=1/GPa)
#
#
# Indices 1 2 3 4 5 6 
#
# 1 0.016104 0.000911 -0.010379 0.000000 0.000000 0.000000
# 2 0.000911 0.016104 -0.010378 0.000000 0.000000 0.000000
# 3 -0.010379 -0.010378 0.024524 0.000000 0.000000 0.000000
# 4 0.000000 0.000000 0.000000 0.031982 0.000000 0.000000
# 5 0.000000 0.000000 0.000000 0.000000 0.031982 0.000000
# 6 0.000000 0.000000 0.000000 0.000000 0.000000 0.228914
#
#
# Mechanical properties :
#
#
# Convention : Reuss Voigt Hill
#
# Bulk Modulus (GPa) = 58.68606 59.21824 58.95215
# Shear Modulus (GPa) = 12.65881 22.77676 17.71778
#
# Velocity S-wave (km/s) = 2.32844 3.12331 2.75469
# Velocity P-wave (km/s) = 5.68889 6.19429 5.94696
#
# Compressibility (1/GPa) = 0.01703982
#
# Stress axis : x y z
#
# Youngs Moduli (GPa) = 62.09557 62.09639 40.77675
#
# Poissons Ratio (x) = -0.05657 0.42321
# Poissons Ratio (y) = -0.05657 0.42320
# Poissons Ratio (z) = 0.64447 0.64446
#
# Static dielectric constant tensor:
#      x y z
#    x 1.925190 0.000000 0.000000 
#    y 0.000000 1.925180 0.000000 
#    z 0.000000 0.000000 1.970430 
# 
# From -- ./inp_files/3532.got.cif
#   From: 2010.05.17/outbox.cif.g08.bks.cpg/sg95_2_cif.got.tgz:3532.got - 2010.06.03 19:46:49.
