data_PCOD9550492
_publ_section_title
;
Structure prediction by ZEFSAII (Michael W. Deem and Ramdas Pophale) SiO2 
 PCOD9550492
Probable space group: P 43 2 2
;
_chemical_formula_sum "Si O2"
_cell_formula_units_Z 40
_cell_length_a 12.407937
_cell_length_b 12.407937
_cell_length_c 12.045664
_cell_angle_alpha 90.000000
_cell_angle_beta 90.000000
_cell_angle_gamma 90.000000
_cell_volume 1854.513095
_symmetry_space_group_name_H-M "P 43 2 2"
_symmetry_group_IT_number 95
_symmetry_cell_setting 'tetragonal'
loop_
_space_group_symop_operation_xyz
x,y,z
-y,x,3/4+z
-x,-y,1/2+z
y,-x,1/4+z
x,-y,1/2-z
-x,y,-z
y,x,1/4-z
-y,-x,3/4-z
loop_
_atom_site_type_symbol
_atom_site_label
_atom_site_fract_x
_atom_site_fract_y
_atom_site_fract_z
Si Si1 0.874636 0.610668 0.960960
Si Si2 0.618065 0.876585 0.783864
Si Si3 0.303923 0.303923 0.625000
Si Si4 0.941569 0.119804 0.253976
Si Si5 0.219810 0.846863 0.547760
Si Si6 0.500000 0.787541 0.000000
O O1 0.856897 0.659821 0.840936
O O2 0.841945 0.486411 0.964309
O O3 0.798434 0.678581 0.044157
O O4 0.000000 0.620283 0.000000
O O5 0.727417 0.811273 0.760596
O O6 0.568577 0.858200 0.909495
O O7 0.638794 0.000000 0.750000
O O8 0.289547 0.410649 0.696973
O O9 0.883159 0.116842 0.375000
O O10 0.856244 0.134934 0.156819
O O11 0.043070 0.196347 0.232385
O O12 0.988854 0.000000 0.250000
#
# Coordination Sequence:
#
# PCOD9550492 Si02
#       6
#     8   8   4   8   8   4
#     4  10  21  33  55  84 117 151 196 257 301 361
#     4  10  22  37  55  88 124 161 202 253 316 373
#     4  10  20  36  60  94 116 158 214 258 320 360
#     4   9  19  31  50  82 116 153 196 244 300 364
#     4  11  20  33  55  81 118 156 195 243 299 373
#     4  10  20  38  62  94 120 160 218 276 312 374
#
# _framework density 21.569005000000001
#
# number of rings (size 3 to 8) (size 9 to 14) (size 15 to 20)
#    0.000    2.000    2.000    2.400    4.200    1.600 
#    0.000    0.000    0.000    0.000   31.200    0.000 
#    0.000    0.000    0.000    0.000    0.000    0.000 
#
# Total GULP energy -223012.874586 kJ/mol
# GULP energy per Si atom -5575.321865 kJ/mol
# Density = 2.151991 g / cm^3
# Si number density = 21.569005 Si / 1000 Ang^3
#
#
#
# Elastic Constant Matrix: (Units=GPa)
#
#
# Indices 1 2 3 4 5 6 
#
# 1 81.9388 35.3937 14.8673 0.0000 0.0000 0.0000
# 2 35.3937 81.9396 14.8674 0.0000 0.0000 0.0000
# 3 14.8673 14.8674 32.1389 0.0000 0.0000 0.0000
# 4 0.0000 0.0000 0.0000 30.4026 0.0000 0.0000
# 5 0.0000 0.0000 0.0000 0.0000 30.4027 0.0000
# 6 0.0000 0.0000 0.0000 0.0000 0.0000 6.6918
#
#
#
# Elastic Compliance Matrix: (Units=1/GPa)
#
#
# Indices 1 2 3 4 5 6 
#
# 1 0.015570 -0.005915 -0.004466 0.000000 0.000000 0.000000
# 2 -0.005915 0.015569 -0.004466 0.000000 0.000000 0.000000
# 3 -0.004466 -0.004466 0.035247 0.000000 0.000000 0.000000
# 4 0.000000 0.000000 0.000000 0.032892 0.000000 0.000000
# 5 0.000000 0.000000 0.000000 0.000000 0.032892 0.000000
# 6 0.000000 0.000000 0.000000 0.000000 0.000000 0.149437
#
#
# Mechanical properties :
#
#
# Convention : Reuss Voigt Hill
#
# Bulk Modulus (GPa) = 27.25430 36.25269 31.75350
# Shear Modulus (GPa) = 15.45442 22.22534 18.83988
#
# Velocity S-wave (km/s) = 2.67968 3.21351 2.95866
# Velocity P-wave (km/s) = 4.71567 5.53291 5.14056
#
# Compressibility (1/GPa) = 0.03669145
#
# Stress axis : x y z
#
# Youngs Moduli (GPa) = 64.22798 64.22852 28.37120
#
# Poissons Ratio (x) = 0.37990 0.12671
# Poissons Ratio (y) = 0.37990 0.12671
# Poissons Ratio (z) = 0.28685 0.28686
#
# Static dielectric constant tensor:
#      x y z
#    x 1.803490 0.000000 0.000000 
#    y 0.000000 1.803490 0.000000 
#    z 0.000000 0.000000 1.916320 
# 
# From -- ./inp_files/4844.got.cif
#   From: 2010.05.17/outbox.cif.g08.bks.cpg/sg95_3_cif.got.tgz:4844.got - 2010.06.03 19:46:49.
