data_PCOD9550718
_publ_section_title
;
Structure prediction by ZEFSAII (Michael W. Deem and Ramdas Pophale) SiO2 
 PCOD9550718
Probable space group: P 43 21 2
;
_chemical_formula_sum "Si O2"
_cell_formula_units_Z 48
_cell_length_a 14.060222
_cell_length_b 14.060222
_cell_length_c 11.659690
_cell_angle_alpha 90.000000
_cell_angle_beta 90.000000
_cell_angle_gamma 90.000000
_cell_volume 2305.002282
_symmetry_space_group_name_H-M "P 43 21 2"
_symmetry_group_IT_number 96
_symmetry_cell_setting 'tetragonal'
loop_
_space_group_symop_operation_xyz
x,y,z
1/2-y,1/2+x,3/4+z
-x,-y,1/2+z
1/2+y,1/2-x,1/4+z
1/2+x,1/2-y,1/4-z
1/2-x,1/2+y,3/4-z
y,x,-z
-y,-x,1/2-z
loop_
_atom_site_type_symbol
_atom_site_label
_atom_site_fract_x
_atom_site_fract_y
_atom_site_fract_z
Si Si1 0.000433 0.574970 0.435897
Si Si2 0.860010 0.942466 0.818352
Si Si3 0.328086 0.192394 0.071675
Si Si4 0.512591 0.487410 0.250000
Si Si5 0.313644 0.805518 0.086093
Si Si6 0.983898 0.157135 0.180581
Si Si7 0.848666 0.151335 0.750000
O O1 0.974064 0.519274 0.313645
O O2 0.916066 0.650577 0.458012
O O3 0.095377 0.631446 0.402847
O O4 0.936362 0.989011 0.903217
O O5 0.776217 0.885380 0.879012
O O6 0.916689 0.866048 0.741368
O O7 0.827662 0.038091 0.752976
O O8 0.292350 0.197747 0.201048
O O9 0.432456 0.242460 0.065155
O O10 0.251981 0.251981 0.000000
O O11 0.615756 0.504430 0.303112
O O12 0.211026 0.807113 0.144135
O O13 0.910225 0.089776 0.250000
#
# Coordination Sequence:
#
# PCOD9550718 Si02
#       7
#     8   8   8   4   8   8   4
#     4  10  23  49  67  93 139 182 226 277 330 412
#     4  11  22  40  63  97 128 166 220 263 336 384
#     4  10  22  43  66  95 129 169 225 282 325 391
#     4  10  17  38  64  94 125 162 196 278 336 375
#     4  11  25  42  62  96 138 171 222 270 326 414
#     4   9  19  37  61  96 124 154 215 274 324 384
#     4  12  21  42  66  96 127 180 208 270 346 393
#
# _framework density 20.824273999999999
#
# number of rings (size 3 to 8) (size 9 to 14) (size 15 to 20)
#    0.000    1.667    2.500    3.500    0.000    2.667 
#   22.500    0.000    0.000    0.000    0.000    0.000 
#    0.000    0.000    0.000    0.000    0.000    0.000 
#
# Total GULP energy -267577.815484 kJ/mol
# GULP energy per Si atom -5574.537823 kJ/mol
# Density = 2.077688 g / cm^3
# Si number density = 20.824274 Si / 1000 Ang^3
#
#
#
# Elastic Constant Matrix: (Units=GPa)
#
#
# Indices 1 2 3 4 5 6 
#
# 1 81.5901 23.1986 1.4971 0.0000 0.0000 0.0000
# 2 23.1986 81.5884 1.4965 0.0000 0.0000 0.0000
# 3 1.4971 1.4965 77.4619 0.0000 0.0000 0.0000
# 4 0.0000 0.0000 0.0000 26.4316 0.0000 0.0000
# 5 0.0000 0.0000 0.0000 0.0000 26.4318 0.0000
# 6 0.0000 0.0000 0.0000 0.0000 0.0000 27.5602
#
#
#
# Elastic Compliance Matrix: (Units=1/GPa)
#
#
# Indices 1 2 3 4 5 6 
#
# 1 0.013337 -0.003789 -0.000185 0.000000 0.000000 0.000000
# 2 -0.003789 0.013337 -0.000184 0.000000 0.000000 0.000000
# 3 -0.000185 -0.000184 0.012917 0.000000 0.000000 0.000000
# 4 0.000000 0.000000 0.000000 0.037833 0.000000 0.000000
# 5 0.000000 0.000000 0.000000 0.000000 0.037833 0.000000
# 6 0.000000 0.000000 0.000000 0.000000 0.000000 0.036284
#
#
# Mechanical properties :
#
#
# Convention : Reuss Voigt Hill
#
# Bulk Modulus (GPa) = 31.97400 32.55832 32.26616
# Shear Modulus (GPa) = 29.36290 30.38126 29.87208
#
# Velocity S-wave (km/s) = 3.75911 3.82374 3.79157
# Velocity P-wave (km/s) = 5.85054 5.92988 5.89034
#
# Compressibility (1/GPa) = 0.03127541
#
# Stress axis : x y z
#
# Youngs Moduli (GPa) = 74.97906 74.97750 77.41917
#
# Poissons Ratio (x) = 0.28408 0.01429
# Poissons Ratio (y) = 0.28408 0.01428
# Poissons Ratio (z) = 0.01384 0.01383
#
# Static dielectric constant tensor:
#      x y z
#    x 1.779630 0.000000 0.000000 
#    y 0.000000 1.779640 0.000000 
#    z 0.000000 0.000000 1.807570 
# 
# From -- ./inp_files/2224.got.cif
#   From: 2010.05.17/outbox.cif.g08.bks.cpg/sg96_2_cif.got.tgz:2224.got - 2010.06.03 19:52:08.
