data_PCOD9550127
_publ_section_title
;
Structure prediction by ZEFSAII (Michael W. Deem and Ramdas Pophale) SiO2 
 PCOD9550127
Probable space group: P 42 21 2
;
_chemical_formula_sum "Si O2"
_cell_formula_units_Z 32
_cell_length_a 12.239675
_cell_length_b 12.239675
_cell_length_c 9.879837
_cell_angle_alpha 90.000000
_cell_angle_beta 90.000000
_cell_angle_gamma 90.000000
_cell_volume 1480.094865
_symmetry_space_group_name_H-M "P 42 21 2"
_symmetry_group_IT_number 94
_symmetry_cell_setting 'tetragonal'
loop_
_space_group_symop_operation_xyz
x,y,z
1/2-y,1/2+x,1/2+z
-x,-y,z
1/2+y,1/2-x,1/2+z
1/2+x,1/2-y,1/2-z
1/2-x,1/2+y,1/2-z
y,x,-z
-y,-x,-z
loop_
_atom_site_type_symbol
_atom_site_label
_atom_site_fract_x
_atom_site_fract_y
_atom_site_fract_z
Si Si1 0.939831 0.383260 0.345229
Si Si2 0.544788 0.286656 0.355708
Si Si3 0.474969 0.698397 0.662581
Si Si4 0.618538 0.761689 0.908045
O O1 0.811496 0.406441 0.328580
O O2 0.960721 0.334763 0.496010
O O3 0.000000 0.500000 0.326136
O O4 0.974424 0.289188 0.241403
O O5 0.493281 0.305215 0.504070
O O6 0.592593 0.401576 0.305355
O O7 0.654949 0.215755 0.376189
O O8 0.568716 0.714783 0.771617
O O9 0.665372 0.665372 0.000000
#
# Coordination Sequence:
#
# PCOD9550127 Si02
#       4
#     8   8   8   8
#     4  11  22  35  65  96 121 162 219 265 320 380
#     4  10  21  41  60  94 129 165 212 270 324 376
#     4  10  22  39  64  89 128 167 208 268 320 380
#     4  11  22  41  63  92 131 166 207 271 324 385
#
# _framework density 21.620238000000001
#
# number of rings (size 3 to 8) (size 9 to 14) (size 15 to 20)
#    0.000    1.500    7.500    0.000    7.000    1.000 
#    0.000    3.750    0.000    3.000    0.000    0.000 
#    0.000    0.000    0.000    0.000    0.000    0.000 
#
# Total GULP energy -178730.644098 kJ/mol
# GULP energy per Si atom -5585.332628 kJ/mol
# Density = 2.157103 g / cm^3
# Si number density = 21.620238 Si / 1000 Ang^3
#
#
#
# Elastic Constant Matrix: (Units=GPa)
#
#
# Indices 1 2 3 4 5 6 
#
# 1 44.3961 64.1646 41.6221 0.0000 0.0000 0.0000
# 2 64.1646 44.3961 41.6221 0.0000 0.0000 0.0000
# 3 41.6221 41.6221 85.3879 0.0000 0.0000 0.0000
# 4 0.0000 0.0000 0.0000 31.5780 0.0000 0.0000
# 5 0.0000 0.0000 0.0000 0.0000 31.5780 0.0000
# 6 0.0000 0.0000 0.0000 0.0000 0.0000 43.9391
#
#
#
# Elastic Compliance Matrix: (Units=1/GPa)
#
#
# Indices 1 2 3 4 5 6 
#
# 1 -0.017938 0.032647 -0.007170 0.000000 0.000000 0.000000
# 2 0.032647 -0.017938 -0.007170 0.000000 0.000000 0.000000
# 3 -0.007170 -0.007170 0.018701 0.000000 0.000000 0.000000
# 4 0.000000 0.000000 0.000000 0.031668 0.000000 0.000000
# 5 0.000000 0.000000 0.000000 0.000000 0.031668 0.000000
# 6 0.000000 0.000000 0.000000 0.000000 0.000000 0.022759
#
#
# Mechanical properties :
#
#
# Convention : Reuss Voigt Hill
#
# Bulk Modulus (GPa) = 51.44057 52.11085 51.77571
# Shear Modulus (GPa) = 128.91735 23.20378 76.06056
#
# Velocity S-wave (km/s) = 7.73030 3.27959 5.93773
# Velocity P-wave (km/s) = 10.17453 6.20452 8.42666
#
# Compressibility (1/GPa) = 0.01943991
#
# Stress axis : x y z
#
# Youngs Moduli (GPa) = -55.74744 -55.74744 53.47214
#
# Poissons Ratio (x) = 1.82001 0.38340
# Poissons Ratio (y) = 1.82001 0.38340
# Poissons Ratio (z) = -0.39971 -0.39971
#
# Static dielectric constant tensor:
#      x y z
#    x 1.814020 0.000000 0.000000 
#    y 0.000000 1.814020 0.000000 
#    z 0.000000 0.000000 1.797640 
# 
# From -- ./inp_files/2294.got.cif
#   From: 2010.05.17/outbox.cif.g08.bks.cpg/sg94_2_cif.got.tgz:2294.got - 2010.06.03 19:43:16.
