data_PCOD9550237
_publ_section_title
;
Structure prediction by ZEFSAII (Michael W. Deem and Ramdas Pophale) SiO2 
 PCOD9550237
Probable space group: P 42 21 2
;
_chemical_formula_sum "Si O2"
_cell_formula_units_Z 48
_cell_length_a 8.651856
_cell_length_b 8.651856
_cell_length_c 28.226315
_cell_angle_alpha 90.000000
_cell_angle_beta 90.000000
_cell_angle_gamma 90.000000
_cell_volume 2112.869864
_symmetry_space_group_name_H-M "P 42 21 2"
_symmetry_group_IT_number 94
_symmetry_cell_setting 'tetragonal'
loop_
_space_group_symop_operation_xyz
x,y,z
1/2-y,1/2+x,1/2+z
-x,-y,z
1/2+y,1/2-x,1/2+z
1/2+x,1/2-y,1/2-z
1/2-x,1/2+y,1/2-z
y,x,-z
-y,-x,-z
loop_
_atom_site_type_symbol
_atom_site_label
_atom_site_fract_x
_atom_site_fract_y
_atom_site_fract_z
Si Si1 0.082180 0.750328 0.281778
Si Si2 0.242382 0.418578 0.296557
Si Si3 0.045412 0.323961 0.549076
Si Si4 0.182600 0.611851 0.942503
Si Si5 0.524840 0.327279 0.600693
Si Si6 0.156690 0.820845 0.382469
O O1 0.184560 0.591751 0.283058
O O2 0.122116 0.848167 0.235481
O O3 0.129816 0.852482 0.327424
O O4 0.907339 0.690490 0.288218
O O5 0.295028 0.428837 0.351155
O O6 0.027765 0.298148 0.492733
O O7 0.220337 0.271762 0.557671
O O8 0.000000 0.500000 0.559898
O O9 0.953777 0.204080 0.581688
O O10 0.015079 0.685205 0.934302
O O11 0.240022 0.499127 0.901497
O O12 0.500000 0.500000 0.582900
O O13 0.701556 0.298569 0.614253
#
# Coordination Sequence:
#
# PCOD9550237 Si02
#       6
#     8   8   8   8   8   8
#     4  10  23  42  63  95 130 176 224 282 344 413
#     4  10  23  42  65  94 133 175 226 280 345 415
#     4  11  24  42  65  99 135 171 227 283 341 414
#     4  11  23  43  68  96 133 177 223 284 349 413
#     4  11  23  41  68  95 133 178 232 285 348 418
#     4  11  22  42  65  93 131 178 223 281 348 412
#
# _framework density 22.717915999999999
#
# number of rings (size 3 to 8) (size 9 to 14) (size 15 to 20)
#    0.000    1.333    1.667    3.500    4.667    2.667 
#    6.000    5.000    0.000    0.000    0.000    0.000 
#    0.000    0.000    0.000    0.000    0.000    0.000 
#
# Total GULP energy -268199.516159 kJ/mol
# GULP energy per Si atom -5587.489920 kJ/mol
# Density = 2.266621 g / cm^3
# Si number density = 22.717916 Si / 1000 Ang^3
#
#
#
# Elastic Constant Matrix: (Units=GPa)
#
#
# Indices 1 2 3 4 5 6 
#
# 1 66.2113 20.6589 14.9236 0.0000 0.0000 0.0000
# 2 20.6589 66.2113 14.9236 0.0000 0.0000 0.0000
# 3 14.9236 14.9236 93.1470 0.0000 0.0000 0.0000
# 4 0.0000 0.0000 0.0000 26.2739 0.0000 0.0000
# 5 0.0000 0.0000 0.0000 0.0000 26.2739 0.0000
# 6 0.0000 0.0000 0.0000 0.0000 0.0000 44.6792
#
#
#
# Elastic Compliance Matrix: (Units=1/GPa)
#
#
# Indices 1 2 3 4 5 6 
#
# 1 0.017067 -0.004885 -0.001952 0.000000 0.000000 0.000000
# 2 -0.004885 0.017067 -0.001952 0.000000 0.000000 0.000000
# 3 -0.001952 -0.001952 0.011361 0.000000 0.000000 0.000000
# 4 0.000000 0.000000 0.000000 0.038061 0.000000 0.000000
# 5 0.000000 0.000000 0.000000 0.000000 0.038061 0.000000
# 6 0.000000 0.000000 0.000000 0.000000 0.000000 0.022382
#
#
# Mechanical properties :
#
#
# Convention : Reuss Voigt Hill
#
# Bulk Modulus (GPa) = 35.81897 36.28685 36.05291
# Shear Modulus (GPa) = 29.25984 31.11629 30.18807
#
# Velocity S-wave (km/s) = 3.59271 3.70493 3.64926
# Velocity P-wave (km/s) = 5.74554 5.85743 5.80175
#
# Compressibility (1/GPa) = 0.02791817
#
# Stress axis : x y z
#
# Youngs Moduli (GPa) = 58.59131 58.59131 88.01948
#
# Poissons Ratio (x) = 0.28624 0.17179
# Poissons Ratio (y) = 0.28624 0.17179
# Poissons Ratio (z) = 0.11436 0.11436
#
# Static dielectric constant tensor:
#      x y z
#    x 1.868830 0.000000 0.000000 
#    y 0.000000 1.868830 0.000000 
#    z 0.000000 0.000000 1.814060 
# 
# From -- ./inp_files/5571.got.cif
#   From: 2010.05.17/outbox.cif.g08.bks.cpg/sg94_3_cif.got.tgz:5571.got - 2010.06.03 19:43:16.
