data_PCOD9550812
_publ_section_title
;
Structure prediction by ZEFSAII (Michael W. Deem and Ramdas Pophale) SiO2 
 PCOD9550812
Probable space group: P 43 21 2
;
_chemical_formula_sum "Si O2"
_cell_formula_units_Z 40
_cell_length_a 9.085341
_cell_length_b 9.085341
_cell_length_c 24.690551
_cell_angle_alpha 90.000000
_cell_angle_beta 90.000000
_cell_angle_gamma 90.000000
_cell_volume 2038.042548
_symmetry_space_group_name_H-M "P 43 21 2"
_symmetry_group_IT_number 96
_symmetry_cell_setting 'tetragonal'
loop_
_space_group_symop_operation_xyz
x,y,z
1/2-y,1/2+x,3/4+z
-x,-y,1/2+z
1/2+y,1/2-x,1/4+z
1/2+x,1/2-y,1/4-z
1/2-x,1/2+y,3/4-z
y,x,-z
-y,-x,1/2-z
loop_
_atom_site_type_symbol
_atom_site_label
_atom_site_fract_x
_atom_site_fract_y
_atom_site_fract_z
Si Si1 0.571849 0.958922 0.902668
Si Si2 0.932445 0.877886 0.609945
Si Si3 0.324334 0.961515 0.984880
Si Si4 0.819054 0.609829 0.425895
Si Si5 0.302410 0.311310 0.660915
O O1 0.473225 0.917408 0.954376
O O2 0.663397 0.105800 0.911520
O O3 0.451855 0.976289 0.854652
O O4 0.677082 0.826998 0.883294
O O5 0.016799 0.803317 0.559447
O O6 0.767054 0.812732 0.604732
O O7 0.015716 0.825268 0.663873
O O8 0.910248 0.050975 0.602573
O O9 0.356791 0.117663 0.014876
O O10 0.270342 0.851586 0.031374
#
# Coordination Sequence:
#
# PCOD9550812 Si02
#       5
#     8   8   8   8   8
#     4   9  20  35  53  75 108 136 167 214 262 304
#     4   9  18  33  54  77 103 133 175 213 253 305
#     4   9  18  35  55  77 101 136 177 215 248 301
#     4   9  18  33  52  77 105 135 172 214 255 302
#     4  10  20  36  52  76 107 134 169 214 258 308
#
# _framework density 19.626677999999998
#
# number of rings (size 3 to 8) (size 9 to 14) (size 15 to 20)
#    0.000    3.200    0.000    2.400    0.000    8.000 
#    0.000   10.000    0.000    0.000    0.000    0.000 
#    0.000    0.000    0.000    0.000    0.000    0.000 
#
# Total GULP energy -222899.571564 kJ/mol
# GULP energy per Si atom -5572.489289 kJ/mol
# Density = 1.958201 g / cm^3
# Si number density = 19.626678 Si / 1000 Ang^3
#
#
#
# Elastic Constant Matrix: (Units=GPa)
#
#
# Indices 1 2 3 4 5 6 
#
# 1 30.5076 29.1831 8.5827 0.0000 0.0000 0.0000
# 2 29.1831 30.5076 8.5827 0.0000 0.0000 0.0000
# 3 8.5827 8.5827 52.0424 0.0000 0.0000 0.0000
# 4 0.0000 0.0000 0.0000 19.6512 0.0000 0.0000
# 5 0.0000 0.0000 0.0000 0.0000 19.6512 0.0000
# 6 0.0000 0.0000 0.0000 0.0000 0.0000 37.1671
#
#
#
# Elastic Compliance Matrix: (Units=1/GPa)
#
#
# Indices 1 2 3 4 5 6 
#
# 1 0.386273 -0.368686 -0.002900 0.000000 0.000000 0.000000
# 2 -0.368686 0.386273 -0.002900 0.000000 0.000000 0.000000
# 3 -0.002900 -0.002900 0.020172 0.000000 0.000000 0.000000
# 4 0.000000 0.000000 0.000000 0.050888 0.000000 0.000000
# 5 0.000000 0.000000 0.000000 0.000000 0.050888 0.000000
# 6 0.000000 0.000000 0.000000 0.000000 0.000000 0.026906
#
#
# Mechanical properties :
#
#
# Convention : Reuss Voigt Hill
#
# Bulk Modulus (GPa) = 22.86011 22.86161 22.86086
# Shear Modulus (GPa) = 2.96744 19.74117 11.35431
#
# Velocity S-wave (km/s) = 1.23095 3.17493 2.40784
# Velocity P-wave (km/s) = 3.70041 5.01136 4.40493
#
# Compressibility (1/GPa) = 0.04374432
#
# Stress axis : x y z
#
# Youngs Moduli (GPa) = 2.58884 2.58884 49.57422
#
# Poissons Ratio (x) = 0.95447 0.14379
# Poissons Ratio (y) = 0.95447 0.14379
# Poissons Ratio (z) = 0.00751 0.00751
#
# Static dielectric constant tensor:
#      x y z
#    x 1.705300 0.000000 0.000000 
#    y 0.000000 1.705300 0.000000 
#    z 0.000000 0.000000 1.728230 
# 
# From -- ./inp_files/3819.got.cif
#   From: 2010.05.17/outbox.cif.g08.bks.cpg/sg96_2_cif.got.tgz:3819.got - 2010.06.03 19:52:08.
