data_PCOD9550828
_publ_section_title
;
Structure prediction by ZEFSAII (Michael W. Deem and Ramdas Pophale) SiO2 
 PCOD9550828
Probable space group: P 43 21 2
;
_chemical_formula_sum "Si O2"
_cell_formula_units_Z 48
_cell_length_a 9.833232
_cell_length_b 9.833232
_cell_length_c 19.759294
_cell_angle_alpha 90.000000
_cell_angle_beta 90.000000
_cell_angle_gamma 90.000000
_cell_volume 1910.574578
_symmetry_space_group_name_H-M "P 43 21 2"
_symmetry_group_IT_number 96
_symmetry_cell_setting 'tetragonal'
loop_
_space_group_symop_operation_xyz
x,y,z
1/2-y,1/2+x,3/4+z
-x,-y,1/2+z
1/2+y,1/2-x,1/4+z
1/2+x,1/2-y,1/4-z
1/2-x,1/2+y,3/4-z
y,x,-z
-y,-x,1/2-z
loop_
_atom_site_type_symbol
_atom_site_label
_atom_site_fract_x
_atom_site_fract_y
_atom_site_fract_z
Si Si1 0.332390 0.120273 0.327983
Si Si2 0.625981 0.127033 0.082249
Si Si3 0.960046 0.039955 0.250000
Si Si4 0.402070 0.210687 0.184677
Si Si5 0.024420 0.024420 0.000000
Si Si6 0.699293 0.930644 0.198382
Si Si7 0.902221 0.125970 0.630638
O O1 0.396195 0.119174 0.252814
O O2 0.198821 0.211307 0.317329
O O3 0.401682 0.237382 0.375979
O O4 0.272849 0.973852 0.351470
O O5 0.482887 0.154311 0.120396
O O6 0.748830 0.238571 0.082408
O O7 0.679560 0.009848 0.130358
O O8 0.609787 0.087797 0.003600
O O9 0.981502 0.199007 0.255549
O O10 0.022873 0.961963 0.313931
O O11 0.496388 0.337365 0.209051
O O12 0.911242 0.032572 0.941886
#
# Coordination Sequence:
#
# PCOD9550828 Si02
#       7
#     8   8   4   8   4   8   8
#     4   9  21  39  58  88 124 160 207 262 314 374
#     4  11  22  40  62  91 127 168 214 266 322 380
#     4  10  20  40  64  86 120 172 216 248 312 406
#     4  10  22  38  61  92 126 166 215 264 316 376
#     4  10  20  38  62  86 122 174 214 246 314 406
#     4  10  21  37  60  89 125 164 207 259 321 379
#     4  10  20  38  62  88 121 163 214 260 312 380
#
# _framework density 25.123331
#
# number of rings (size 3 to 8) (size 9 to 14) (size 15 to 20)
#    0.000    2.000    0.000    4.000    0.000    4.000 
#    0.000   10.000    0.000    0.000    0.000    0.000 
#    0.000    0.000    0.000    0.000    0.000    0.000 
#
# Total GULP energy -267606.541908 kJ/mol
# GULP energy per Si atom -5575.136290 kJ/mol
# Density = 2.506615 g / cm^3
# Si number density = 25.123331 Si / 1000 Ang^3
#
#
#
# Elastic Constant Matrix: (Units=GPa)
#
#
# Indices 1 2 3 4 5 6 
#
# 1 -4.0152 70.9834 -9.2870 0.0000 0.0000 0.0000
# 2 70.9834 -4.0143 -9.2862 0.0000 0.0000 0.0000
# 3 -9.2870 -9.2862 51.2873 0.0000 0.0000 0.0000
# 4 0.0000 0.0000 0.0000 57.6096 0.0000 0.0000
# 5 0.0000 0.0000 0.0000 0.0000 57.6367 0.0000
# 6 0.0000 0.0000 0.0000 0.0000 0.0000 34.5148
#
#
#
# Elastic Compliance Matrix: (Units=1/GPa)
#
#
# Indices 1 2 3 4 5 6 
#
# 1 0.001194 0.014528 0.002847 0.000000 0.000000 0.000000
# 2 0.014528 0.001194 0.002847 0.000000 0.000000 0.000000
# 3 0.002847 0.002847 0.020529 0.000000 0.000000 0.000000
# 4 0.000000 0.000000 0.000000 0.017358 0.000000 0.000000
# 5 0.000000 0.000000 0.000000 0.000000 0.017350 0.000000
# 6 0.000000 0.000000 0.000000 0.000000 0.000000 0.028973
#
#
# Mechanical properties :
#
#
# Convention : Reuss Voigt Hill
#
# Bulk Modulus (GPa) = 15.78289 16.45313 16.11801
# Shear Modulus (GPa) = 74.32097 29.34208 51.83152
#
# Velocity S-wave (km/s) = 5.44488 3.42119 4.54705
# Velocity P-wave (km/s) = 6.76939 4.70842 5.83069
#
# Compressibility (1/GPa) = 0.06335977
#
# Stress axis : x y z
#
# Youngs Moduli (GPa) = 837.52414 837.36012 48.71175
#
# Poissons Ratio (x) = -12.16498 -0.13867
# Poissons Ratio (y) = -12.16736 -0.13868
# Poissons Ratio (z) = -2.38414 -2.38387
#
# Static dielectric constant tensor:
#      x y z
#    x 0.499840 0.000000 0.000000 
#    y 0.000000 0.498560 0.000000 
#    z 0.000000 0.000000 1.995930 
# 
# From -- ./inp_files/3517.got.cif
#   From: 2010.05.17/outbox.cif.g08.bks.cpg/sg96_2_cif.got.tgz:3517.got - 2010.06.03 19:52:08.
