data_PCOD9550045
_publ_section_title
;
Structure prediction by ZEFSAII (Michael W. Deem and Ramdas Pophale) SiO2 
 PCOD9550045
Probable space group: P 42 21 2
;
_chemical_formula_sum "Si O2"
_cell_formula_units_Z 54
_cell_length_a 14.628020
_cell_length_b 14.628020
_cell_length_c 11.581130
_cell_angle_alpha 90.000000
_cell_angle_beta 90.000000
_cell_angle_gamma 90.000000
_cell_volume 2478.118259
_symmetry_space_group_name_H-M "P 42 21 2"
_symmetry_group_IT_number 94
_symmetry_cell_setting 'tetragonal'
loop_
_space_group_symop_operation_xyz
x,y,z
1/2-y,1/2+x,1/2+z
-x,-y,z
1/2+y,1/2-x,1/2+z
1/2+x,1/2-y,1/2-z
1/2-x,1/2+y,1/2-z
y,x,-z
-y,-x,-z
loop_
_atom_site_type_symbol
_atom_site_label
_atom_site_fract_x
_atom_site_fract_y
_atom_site_fract_z
Si Si1 0.909235 0.681560 0.130207
Si Si2 0.793582 0.984255 0.081170
Si Si3 0.676094 0.796048 0.654255
Si Si4 0.000000 0.500000 0.049820
Si Si5 0.920100 0.675834 0.541869
Si Si6 0.833637 0.686139 0.776340
Si Si7 0.500000 0.500000 0.500000
Si Si8 0.745291 0.602910 0.991471
O O1 0.884392 0.693394 0.262976
O O2 0.956408 0.583606 0.117280
O O3 0.809454 0.666659 0.071962
O O4 0.964875 0.752203 0.048797
O O5 0.746626 0.073981 0.139499
O O6 0.761154 0.894739 0.153915
O O7 0.902984 0.997530 0.069658
O O8 0.700868 0.831816 0.528311
O O9 0.746058 0.724972 0.709427
O O10 0.916096 0.457803 0.980789
O O11 0.898590 0.651558 0.673884
O O12 0.000202 0.748825 0.535129
O O13 0.793649 0.614389 0.867462
O O14 0.645927 0.645927 0.000000
#
# Coordination Sequence:
#
# PCOD9550045 Si02
#       8
#     8   8   8   4   8   8   2   8
#     4  10  21  40  67  99 138 175 223 292 351 420
#     4  11  25  47  69 102 144 182 241 297 347 425
#     4  12  24  43  72  98 141 186 231 287 362 414
#     4  10  20  38  62 100 140 158 220 280 364 408
#     4  11  25  40  64 106 136 176 226 290 352 420
#     4  11  25  45  67  96 140 179 229 290 342 422
#     4  12  28  44  72 100 134 192 250 290 344 414
#     4  10  21  43  67  93 129 185 224 269 356 428
#
# _framework density 21.790728000000001
#
# number of rings (size 3 to 8) (size 9 to 14) (size 15 to 20)
#    0.000    1.185    2.963    3.111    6.222    0.593 
#    2.667    0.000    0.000    0.889    0.000    0.000 
#    0.000    0.000    0.000    0.000    0.000    0.000 
#
# Total GULP energy -301159.314324 kJ/mol
# GULP energy per Si atom -5577.024339 kJ/mol
# Density = 2.174113 g / cm^3
# Si number density = 21.790728 Si / 1000 Ang^3
#
#
#
# Elastic Constant Matrix: (Units=GPa)
#
#
# Indices 1 2 3 4 5 6 
#
# 1 86.3512 18.4057 21.0351 0.0000 0.0000 0.0000
# 2 18.4057 86.3512 21.0351 0.0000 0.0000 0.0000
# 3 21.0351 21.0351 108.6753 0.0000 0.0000 0.0000
# 4 0.0000 0.0000 0.0000 18.7400 0.0000 0.0000
# 5 0.0000 0.0000 0.0000 0.0000 18.7400 0.0000
# 6 0.0000 0.0000 0.0000 0.0000 0.0000 12.5425
#
#
#
# Elastic Compliance Matrix: (Units=1/GPa)
#
#
# Indices 1 2 3 4 5 6 
#
# 1 0.012534 -0.002184 -0.002003 0.000000 0.000000 0.000000
# 2 -0.002184 0.012534 -0.002003 0.000000 0.000000 0.000000
# 3 -0.002003 -0.002003 0.009977 0.000000 0.000000 0.000000
# 4 0.000000 0.000000 0.000000 0.053362 0.000000 0.000000
# 5 0.000000 0.000000 0.000000 0.000000 0.053362 0.000000
# 6 0.000000 0.000000 0.000000 0.000000 0.000000 0.079729
#
#
# Mechanical properties :
#
#
# Convention : Reuss Voigt Hill
#
# Bulk Modulus (GPa) = 44.12183 44.70330 44.41256
# Shear Modulus (GPa) = 20.70965 24.73130 22.72047
#
# Velocity S-wave (km/s) = 3.08618 3.37255 3.23254
# Velocity P-wave (km/s) = 5.74380 5.97703 5.86157
#
# Compressibility (1/GPa) = 0.02266452
#
# Stress axis : x y z
#
# Youngs Moduli (GPa) = 79.78251 79.78251 100.22759
#
# Poissons Ratio (x) = 0.17421 0.20080
# Poissons Ratio (y) = 0.17421 0.20080
# Poissons Ratio (z) = 0.15984 0.15984
#
# Static dielectric constant tensor:
#      x y z
#    x 1.846380 0.000000 0.000000 
#    y 0.000000 1.846380 0.000000 
#    z 0.000000 0.000000 1.853570 
# 
# From -- ./inp_files/2752.got.cif
#   From: 2010.05.17/outbox.cif.g08.bks.cpg/sg94_2_cif.got.tgz:2752.got - 2010.06.03 19:43:16.
