data_PCOD9550188
_publ_section_title
;
Structure prediction by ZEFSAII (Michael W. Deem and Ramdas Pophale) SiO2 
 PCOD9550188
Probable space group: P 42 21 2
;
_chemical_formula_sum "Si O2"
_cell_formula_units_Z 38
_cell_length_a 17.134153
_cell_length_b 17.134153
_cell_length_c 5.845958
_cell_angle_alpha 90.000000
_cell_angle_beta 90.000000
_cell_angle_gamma 90.000000
_cell_volume 1716.251667
_symmetry_space_group_name_H-M "P 42 21 2"
_symmetry_group_IT_number 94
_symmetry_cell_setting 'tetragonal'
loop_
_space_group_symop_operation_xyz
x,y,z
1/2-y,1/2+x,1/2+z
-x,-y,z
1/2+y,1/2-x,1/2+z
1/2+x,1/2-y,1/2-z
1/2-x,1/2+y,1/2-z
y,x,-z
-y,-x,-z
loop_
_atom_site_type_symbol
_atom_site_label
_atom_site_fract_x
_atom_site_fract_y
_atom_site_fract_z
Si Si1 0.538076 0.359103 0.660263
Si Si2 0.213987 0.786014 0.500000
Si Si3 0.520711 0.210760 0.964543
Si Si4 0.086263 0.786507 0.152761
Si Si5 0.660491 0.129134 0.224657
Si Si6 0.000000 0.000000 0.500000
O O1 0.607317 0.392684 0.500000
O O2 0.554673 0.276866 0.790968
O O3 0.465912 0.343415 0.494166
O O4 0.509228 0.424206 0.839498
O O5 0.161927 0.813847 0.287115
O O6 0.299935 0.811107 0.410774
O O7 0.456720 0.156032 0.839181
O O8 0.469819 0.257725 0.146694
O O9 0.583958 0.164581 0.111149
O O10 0.114199 0.717190 0.989769
#
# Coordination Sequence:
#
# PCOD9550188 Si02
#       6
#     8   4   8   8   8   2
#     4  11  25  42  64  96 142 184 236 289 348 427
#     4  10  22  41  70  99 132 185 228 283 356 428
#     4  10  24  46  69 100 140 180 241 295 358 423
#     4  10  23  44  64  97 138 182 229 287 347 427
#     4  10  23  45  69 102 136 181 234 294 357 421
#     4  12  26  42  60 106 140 200 234 286 362 408
#
# _framework density 22.141275
#
# number of rings (size 3 to 8) (size 9 to 14) (size 15 to 20)
#    0.000    1.684    0.000    2.211    0.000   26.947 
#   18.947    3.158    0.000    0.000    0.000    0.000 
#    0.000    0.000    0.000    0.000    0.000    0.000 
#
# Total GULP energy -212337.911077 kJ/mol
# GULP energy per Si atom -5587.839765 kJ/mol
# Density = 2.209088 g / cm^3
# Si number density = 22.141275 Si / 1000 Ang^3
#
#
#
# Elastic Constant Matrix: (Units=GPa)
#
#
# Indices 1 2 3 4 5 6 
#
# 1 88.1499 83.3408 41.7161 0.0000 0.0000 0.0000
# 2 83.3408 88.1492 41.7167 0.0000 0.0000 0.0000
# 3 41.7161 41.7167 99.7246 0.0000 0.0000 0.0000
# 4 0.0000 0.0000 0.0000 35.9972 0.0000 0.0000
# 5 0.0000 0.0000 0.0000 0.0000 35.9966 0.0000
# 6 0.0000 0.0000 0.0000 0.0000 0.0000 31.5545
#
#
#
# Elastic Compliance Matrix: (Units=1/GPa)
#
#
# Indices 1 2 3 4 5 6 
#
# 1 0.107638 -0.100318 -0.003062 0.000000 0.000000 0.000000
# 2 -0.100318 0.107640 -0.003064 0.000000 0.000000 0.000000
# 3 -0.003062 -0.003064 0.012590 0.000000 0.000000 0.000000
# 4 0.000000 0.000000 0.000000 0.027780 0.000000 0.000000
# 5 0.000000 0.000000 0.000000 0.000000 0.027780 0.000000
# 6 0.000000 0.000000 0.000000 0.000000 0.000000 0.031691
#
#
# Mechanical properties :
#
#
# Convention : Reuss Voigt Hill
#
# Bulk Modulus (GPa) = 66.74682 67.73009 67.23846
# Shear Modulus (GPa) = 9.38086 27.99299 18.68692
#
# Velocity S-wave (km/s) = 2.06059 3.55954 2.90830
# Velocity P-wave (km/s) = 5.98938 6.89566 6.45844
#
# Compressibility (1/GPa) = 0.01498199
#
# Stress axis : x y z
#
# Youngs Moduli (GPa) = 9.29037 9.29021 79.42889
#
# Poissons Ratio (x) = 0.93198 0.24318
# Poissons Ratio (y) = 0.93199 0.24334
# Poissons Ratio (z) = 0.02844 0.02846
#
# Static dielectric constant tensor:
#      x y z
#    x 1.862750 0.000000 0.000000 
#    y 0.000000 1.862750 0.000000 
#    z 0.000000 0.000000 1.827580 
# 
# From -- ./inp_files/378.got.cif
#   From: 2010.05.17/outbox.cif.g08.bks.cpg/sg94_1_cif.got.tgz:378.got - 2010.06.03 19:43:16.
