data_PCOD9550724
_publ_section_title
;
Structure prediction by ZEFSAII (Michael W. Deem and Ramdas Pophale) SiO2 
 PCOD9550724
Probable space group: P 43 21 2
;
_chemical_formula_sum "Si O2"
_cell_formula_units_Z 24
_cell_length_a 12.539252
_cell_length_b 12.539252
_cell_length_c 4.947169
_cell_angle_alpha 90.000000
_cell_angle_beta 90.000000
_cell_angle_gamma 90.000000
_cell_volume 777.857435
_symmetry_space_group_name_H-M "P 43 21 2"
_symmetry_group_IT_number 96
_symmetry_cell_setting 'tetragonal'
loop_
_space_group_symop_operation_xyz
x,y,z
1/2-y,1/2+x,3/4+z
-x,-y,1/2+z
1/2+y,1/2-x,1/4+z
1/2+x,1/2-y,1/4-z
1/2-x,1/2+y,3/4-z
y,x,-z
-y,-x,1/2-z
loop_
_atom_site_type_symbol
_atom_site_label
_atom_site_fract_x
_atom_site_fract_y
_atom_site_fract_z
Si Si1 0.165333 0.501296 0.391462
Si Si2 0.639685 0.542274 0.246356
Si Si3 0.283279 0.122663 0.863671
O O1 0.078213 0.594852 0.356477
O O2 0.254860 0.571797 0.167795
O O3 0.156243 0.403631 0.166886
O O4 0.613324 0.613324 0.500000
O O5 0.550873 0.449128 0.250000
O O6 0.749159 0.475660 0.171681
O O7 0.621755 0.621755 0.000000
O O8 0.217364 0.217364 0.000000
#
# Coordination Sequence:
#
# PCOD9550724 Si02
#       3
#     8   8   8
#     4  10  20  31  48  69 102 136 177 206 248 298
#     4  10  18  32  50  66  94 140 180 212 252 290
#     4  10  20  31  48  69 102 136 177 206 248 298
#
# _framework density 30.853982999999999
#
# number of rings (size 3 to 8) (size 9 to 14) (size 15 to 20)
#    2.000    0.000    3.333    2.000    0.000    2.667 
#    0.000    0.000    0.000    0.000    0.000    0.000 
#    0.000    0.000   22.667    4.000    0.000    1.333 
#
# Total GULP energy -133666.233267 kJ/mol
# GULP energy per Si atom -5569.426386 kJ/mol
# Density = 3.078376 g / cm^3
# Si number density = 30.853983 Si / 1000 Ang^3
#
#
#
# Elastic Constant Matrix: (Units=GPa)
#
#
# Indices 1 2 3 4 5 6 
#
# 1 206.3790 138.9115 121.2696 0.0000 0.0000 0.0000
# 2 138.9115 206.3774 121.2694 0.0000 0.0000 0.0000
# 3 121.2696 121.2694 376.4878 0.0000 0.0000 0.0000
# 4 0.0000 0.0000 0.0000 44.6618 0.0000 0.0000
# 5 0.0000 0.0000 0.0000 0.0000 44.6618 0.0000
# 6 0.0000 0.0000 0.0000 0.0000 0.0000 102.8227
#
#
#
# Elastic Compliance Matrix: (Units=1/GPa)
#
#
# Indices 1 2 3 4 5 6 
#
# 1 0.009283 -0.005540 -0.001206 0.000000 0.000000 0.000000
# 2 -0.005540 0.009283 -0.001206 0.000000 0.000000 0.000000
# 3 -0.001206 -0.001206 0.003433 0.000000 0.000000 0.000000
# 4 0.000000 0.000000 0.000000 0.022390 0.000000 0.000000
# 5 0.000000 0.000000 0.000000 0.000000 0.022391 0.000000
# 6 0.000000 0.000000 0.000000 0.000000 0.000000 0.009725
#
#
# Mechanical properties :
#
#
# Convention : Reuss Voigt Hill
#
# Bulk Modulus (GPa) = 164.03597 172.46057 168.24827
# Shear Modulus (GPa) = 52.94468 65.61550 59.28009
#
# Velocity S-wave (km/s) = 4.14693 4.61656 4.38803
# Velocity P-wave (km/s) = 8.72983 9.18879 8.96225
#
# Compressibility (1/GPa) = 0.00609622
#
# Stress axis : x y z
#
# Youngs Moduli (GPa) = 107.72944 107.72848 291.30541
#
# Poissons Ratio (x) = 0.59677 0.35121
# Poissons Ratio (y) = 0.59677 0.35121
# Poissons Ratio (z) = 0.12988 0.12988
#
# Static dielectric constant tensor:
#      x y z
#    x 2.545130 0.000000 0.000000 
#    y 0.000000 2.545130 0.000000 
#    z 0.000000 0.000000 3.448980 
# 
# From -- ./inp_files/152.got.cif
#   From: 2010.05.17/outbox.cif.g08.bks.cpg/sg96_1_cif.got.tgz:152.got - 2010.06.03 19:52:08.
