data_PCOD9550962
_publ_section_title
;
Structure prediction by ZEFSAII (Michael W. Deem and Ramdas Pophale) SiO2 
 PCOD9550962
Probable space group: P 43 21 2
;
_chemical_formula_sum "Si O2"
_cell_formula_units_Z 32
_cell_length_a 9.325028
_cell_length_b 9.325028
_cell_length_c 15.196341
_cell_angle_alpha 90.000000
_cell_angle_beta 90.000000
_cell_angle_gamma 90.000000
_cell_volume 1321.415265
_symmetry_space_group_name_H-M "P 43 21 2"
_symmetry_group_IT_number 96
_symmetry_cell_setting 'tetragonal'
loop_
_space_group_symop_operation_xyz
x,y,z
1/2-y,1/2+x,3/4+z
-x,-y,1/2+z
1/2+y,1/2-x,1/4+z
1/2+x,1/2-y,1/4-z
1/2-x,1/2+y,3/4-z
y,x,-z
-y,-x,1/2-z
loop_
_atom_site_type_symbol
_atom_site_label
_atom_site_fract_x
_atom_site_fract_y
_atom_site_fract_z
Si Si1 0.178860 0.954021 0.387449
Si Si2 0.943306 0.667242 0.556029
Si Si3 0.849016 0.559994 0.125197
Si Si4 0.588006 0.650859 0.347527
O O1 0.136637 0.799263 0.347994
O O2 0.192056 0.925590 0.493575
O O3 0.317812 0.034543 0.352532
O O4 0.056561 0.072809 0.374364
O O5 0.791640 0.625937 0.596903
O O6 0.055236 0.537183 0.562789
O O7 0.951175 0.701458 0.452758
O O8 0.024218 0.795508 0.605044
#
# Coordination Sequence:
#
# PCOD9550962 Si02
#       4
#     8   8   8   8
#     4  10  22  41  65  96 131 172 218 268 327 392
#     4  11  23  40  64  94 129 171 216 268 326 388
#     4  11  23  40  63  93 129 170 218 268 325 391
#     4  10  22  42  66  94 131 171 216 272 328 393
#
# _framework density 24.216459
#
# number of rings (size 3 to 8) (size 9 to 14) (size 15 to 20)
#    0.000    1.500    0.000    4.500    0.000    8.000 
#    0.000    2.500    0.000    0.000    0.000    0.000 
#    0.000    0.000    0.000    0.000    0.000    0.000 
#
# Total GULP energy -178880.798866 kJ/mol
# GULP energy per Si atom -5590.024965 kJ/mol
# Density = 2.416134 g / cm^3
# Si number density = 24.216459 Si / 1000 Ang^3
#
#
#
# Elastic Constant Matrix: (Units=GPa)
#
#
# Indices 1 2 3 4 5 6 
#
# 1 616.0381 528.7212 -149.5036 0.0000 0.0000 0.0000
# 2 528.7212 616.0381 -149.5036 0.0000 0.0000 0.0000
# 3 -149.5036 -149.5036 116.8550 0.0000 0.0000 0.0000
# 4 0.0000 0.0000 0.0000 26.6582 0.0000 0.0000
# 5 0.0000 0.0000 0.0000 0.0000 26.6582 0.0000
# 6 0.0000 0.0000 0.0000 0.0000 0.0000 42.6683
#
#
#
# Elastic Compliance Matrix: (Units=1/GPa)
#
#
# Indices 1 2 3 4 5 6 
#
# 1 0.006382 -0.005070 0.001679 0.000000 0.000000 0.000000
# 2 -0.005070 0.006382 0.001679 0.000000 0.000000 0.000000
# 3 0.001679 0.001679 0.012853 0.000000 0.000000 0.000000
# 4 0.000000 0.000000 0.000000 0.037512 0.000000 0.000000
# 5 0.000000 0.000000 0.000000 0.000000 0.037512 0.000000
# 6 0.000000 0.000000 0.000000 0.000000 0.000000 0.023437
#
#
# Mechanical properties :
#
#
# Convention : Reuss Voigt Hill
#
# Bulk Modulus (GPa) = 45.06400 200.92883 122.99642
# Shear Modulus (GPa) = 37.06422 93.81141 65.43782
#
# Velocity S-wave (km/s) = 3.91645 6.23079 5.20391
# Velocity P-wave (km/s) = 6.25306 11.61533 9.32782
#
# Compressibility (1/GPa) = 0.02219066
#
# Stress axis : x y z
#
# Youngs Moduli (GPa) = 156.68444 156.68444 77.80523
#
# Poissons Ratio (x) = 0.79443 -0.13060
# Poissons Ratio (y) = 0.79443 -0.13060
# Poissons Ratio (z) = -0.26300 -0.26300
#
# Static dielectric constant tensor:
#      x y z
#    x 2.013840 0.000000 0.000000 
#    y 0.000000 2.013840 0.000000 
#    z 0.000000 0.000000 1.654970 
# 
# From -- ./inp_files/3379.got.cif
#   From: 2010.05.17/outbox.cif.g08.bks.cpg/sg96_2_cif.got.tgz:3379.got - 2010.06.03 19:52:08.
