data_PCOD9550743
_publ_section_title
;
Structure prediction by ZEFSAII (Michael W. Deem and Ramdas Pophale) SiO2 
 PCOD9550743
Probable space group: P 43 21 2
;
_chemical_formula_sum "Si O2"
_cell_formula_units_Z 56
_cell_length_a 19.155447
_cell_length_b 19.155447
_cell_length_c 8.382087
_cell_angle_alpha 90.000000
_cell_angle_beta 90.000000
_cell_angle_gamma 90.000000
_cell_volume 3075.648820
_symmetry_space_group_name_H-M "P 43 21 2"
_symmetry_group_IT_number 96
_symmetry_cell_setting 'tetragonal'
loop_
_space_group_symop_operation_xyz
x,y,z
1/2-y,1/2+x,3/4+z
-x,-y,1/2+z
1/2+y,1/2-x,1/4+z
1/2+x,1/2-y,1/4-z
1/2-x,1/2+y,3/4-z
y,x,-z
-y,-x,1/2-z
loop_
_atom_site_type_symbol
_atom_site_label
_atom_site_fract_x
_atom_site_fract_y
_atom_site_fract_z
Si Si1 0.736770 0.628103 0.437529
Si Si2 0.726042 0.782458 0.836141
Si Si3 0.505948 0.228256 0.209253
Si Si4 0.653684 0.213063 0.100093
Si Si5 0.093073 0.335302 0.484451
Si Si6 0.571107 0.023966 0.353274
Si Si7 0.510020 0.847562 0.016649
O O1 0.668609 0.668609 0.500000
O O2 0.756747 0.660645 0.265839
O O3 0.726173 0.546514 0.398409
O O4 0.800394 0.654479 0.555229
O O5 0.790736 0.768935 0.716945
O O6 0.710996 0.860169 0.894854
O O7 0.739917 0.739917 0.000000
O O8 0.588664 0.241356 0.200720
O O9 0.486981 0.151573 0.136467
O O10 0.489907 0.217716 0.396343
O O11 0.613094 0.186590 0.942941
O O12 0.118933 0.414507 0.491073
O O13 0.015965 0.330061 0.556345
O O14 0.543897 0.033665 0.176151
O O15 0.542811 0.093128 0.445034
#
# Coordination Sequence:
#
# PCOD9550743 Si02
#       7
#     8   8   8   8   8   8   8
#     4  10  19  36  53  74 108 144 182 235 293 341
#     4   9  18  38  55  73 100 143 192 234 280 330
#     4  11  20  32  47  73 102 138 186 226 278 337
#     4  10  23  31  55  75 103 142 189 236 278 336
#     4  11  21  34  49  74 106 147 189 227 279 325
#     4  10  19  27  38  58  95 135 170 206 256 310
#     4  11  20  32  47  67 107 148 181 226 266 334
#
# _framework density 18.207540999999999
#
# number of rings (size 3 to 8) (size 9 to 14) (size 15 to 20)
#    0.000    1.714    4.286    2.571    4.000    0.000 
#    0.000    0.000    0.000    0.000    0.000    0.000 
#    0.000   20.571    0.000    0.000    0.000    0.000 
#
# Total GULP energy -312174.177525 kJ/mol
# GULP energy per Si atom -5574.538884 kJ/mol
# Density = 1.816610 g / cm^3
# Si number density = 18.207541 Si / 1000 Ang^3
#
#
#
# Elastic Constant Matrix: (Units=GPa)
#
#
# Indices 1 2 3 4 5 6 
#
# 1 39.5377 9.9279 15.4196 0.0000 0.0000 0.0000
# 2 9.9279 39.5377 15.4196 0.0000 0.0000 0.0000
# 3 15.4196 15.4196 49.7552 0.0000 0.0000 0.0000
# 4 0.0000 0.0000 0.0000 19.0870 0.0000 0.0000
# 5 0.0000 0.0000 0.0000 0.0000 19.0870 0.0000
# 6 0.0000 0.0000 0.0000 0.0000 0.0000 17.5745
#
#
#
# Elastic Compliance Matrix: (Units=1/GPa)
#
#
# Indices 1 2 3 4 5 6 
#
# 1 0.029415 -0.004358 -0.007766 0.000000 0.000000 0.000000
# 2 -0.004358 0.029415 -0.007766 0.000000 0.000000 0.000000
# 3 -0.007766 -0.007766 0.024912 0.000000 0.000000 0.000000
# 4 0.000000 0.000000 0.000000 0.052392 0.000000 0.000000
# 5 0.000000 0.000000 0.000000 0.000000 0.052392 0.000000
# 6 0.000000 0.000000 0.000000 0.000000 0.000000 0.056901
#
#
# Mechanical properties :
#
#
# Convention : Reuss Voigt Hill
#
# Bulk Modulus (GPa) = 22.74565 23.37386 23.05976
# Shear Modulus (GPa) = 16.67456 17.02059 16.84758
#
# Velocity S-wave (km/s) = 3.02951 3.06078 3.04519
# Velocity P-wave (km/s) = 4.97562 5.03553 5.00566
#
# Compressibility (1/GPa) = 0.04396444
#
# Stress axis : x y z
#
# Youngs Moduli (GPa) = 33.99618 33.99618 40.14188
#
# Poissons Ratio (x) = 0.14814 0.31172
# Poissons Ratio (y) = 0.14814 0.31172
# Poissons Ratio (z) = 0.26400 0.26400
#
# Static dielectric constant tensor:
#      x y z
#    x 1.661570 0.000000 0.000000 
#    y 0.000000 1.661570 0.000000 
#    z 0.000000 0.000000 1.724190 
# 
# From -- ./inp_files/1678.got.cif
#   From: 2010.05.17/outbox.cif.g08.bks.cpg/sg96_1_cif.got.tgz:1678.got - 2010.06.03 19:52:08.
