data_PCOD9550286
_publ_section_title
;
Structure prediction by ZEFSAII (Michael W. Deem and Ramdas Pophale) SiO2 
 PCOD9550286
Probable space group: P 42 21 2
;
_chemical_formula_sum "Si O2"
_cell_formula_units_Z 24
_cell_length_a 8.355860
_cell_length_b 8.355860
_cell_length_c 12.954928
_cell_angle_alpha 90.000000
_cell_angle_beta 90.000000
_cell_angle_gamma 90.000000
_cell_volume 904.518208
_symmetry_space_group_name_H-M "P 42 21 2"
_symmetry_group_IT_number 94
_symmetry_cell_setting 'tetragonal'
loop_
_space_group_symop_operation_xyz
x,y,z
1/2-y,1/2+x,1/2+z
-x,-y,z
1/2+y,1/2-x,1/2+z
1/2+x,1/2-y,1/2-z
1/2-x,1/2+y,1/2-z
y,x,-z
-y,-x,-z
loop_
_atom_site_type_symbol
_atom_site_label
_atom_site_fract_x
_atom_site_fract_y
_atom_site_fract_z
Si Si1 0.691335 0.523366 0.239375
Si Si2 0.187841 0.685011 0.399597
Si Si3 0.330924 0.099313 0.470061
O O1 0.500000 0.500000 0.257875
O O2 0.792291 0.482740 0.342110
O O3 0.519156 0.754459 0.055701
O O4 0.756579 0.422807 0.142423
O O5 0.301094 0.698907 0.500000
O O6 0.230633 0.802900 0.306751
O O7 0.279537 0.279537 0.500000
O O8 0.500000 0.000000 0.464552
#
# Coordination Sequence:
#
# PCOD9550286 Si02
#       3
#     8   8   8
#     4  11  24  47  77 108 167 219 280 355 440 522
#     4  10  25  45  75 115 157 217 288 351 443 530
#     4  11  25  48  80 117 164 225 291 359 441 536
#
# _framework density 26.533460000000002
#
# number of rings (size 3 to 8) (size 9 to 14) (size 15 to 20)
#    0.000    1.333    3.333    0.000    4.667    7.333 
#    0.000    0.000    0.000    0.000    0.000    0.000 
#    0.000    0.000    0.000    0.000    0.000    0.000 
#
# Total GULP energy -133755.590458 kJ/mol
# GULP energy per Si atom -5573.149602 kJ/mol
# Density = 2.647307 g / cm^3
# Si number density = 26.533460 Si / 1000 Ang^3
#
#
#
# Elastic Constant Matrix: (Units=GPa)
#
#
# Indices 1 2 3 4 5 6 
#
# 1 112.4642 7.9995 71.6533 0.0000 0.0000 0.0000
# 2 7.9995 112.4644 71.6529 0.0000 0.0000 0.0000
# 3 71.6533 71.6529 174.9541 0.0000 0.0000 0.0000
# 4 0.0000 0.0000 0.0000 27.0712 0.0000 0.0000
# 5 0.0000 0.0000 0.0000 0.0000 27.0717 0.0000
# 6 0.0000 0.0000 0.0000 0.0000 0.0000 23.4893
#
#
#
# Elastic Compliance Matrix: (Units=1/GPa)
#
#
# Indices 1 2 3 4 5 6 
#
# 1 0.012881 0.003308 -0.006630 0.000000 0.000000 0.000000
# 2 0.003308 0.012881 -0.006630 0.000000 0.000000 0.000000
# 3 -0.006630 -0.006630 0.011147 0.000000 0.000000 0.000000
# 4 0.000000 0.000000 0.000000 0.036940 0.000000 0.000000
# 5 0.000000 0.000000 0.000000 0.000000 0.036939 0.000000
# 6 0.000000 0.000000 0.000000 0.000000 0.000000 0.042572
#
#
# Mechanical properties :
#
#
# Convention : Reuss Voigt Hill
#
# Bulk Modulus (GPa) = 58.81217 78.05492 68.43354
# Shear Modulus (GPa) = 27.94375 32.09824 30.02100
#
# Velocity S-wave (km/s) = 3.24875 3.48189 3.36734
# Velocity P-wave (km/s) = 6.02378 6.75619 6.40047
#
# Compressibility (1/GPa) = 0.01700328
#
# Stress axis : x y z
#
# Youngs Moduli (GPa) = 77.63613 77.63664 89.71405
#
# Poissons Ratio (x) = -0.25682 0.59481
# Poissons Ratio (y) = -0.25682 0.59481
# Poissons Ratio (z) = 0.51474 0.51473
#
# Static dielectric constant tensor:
#      x y z
#    x 2.307950 0.000000 0.000000 
#    y 0.000000 2.307950 0.000000 
#    z 0.000000 0.000000 1.966970 
# 
# From -- ./inp_files/3033.got.cif
#   From: 2010.05.17/outbox.cif.g08.bks.cpg/sg94_2_cif.got.tgz:3033.got - 2010.06.03 19:43:16.
