data_PCOD9550047
_publ_section_title
;
Structure prediction by ZEFSAII (Michael W. Deem and Ramdas Pophale) SiO2 
 PCOD9550047
Probable space group: P 42 21 2
;
_chemical_formula_sum "Si O2"
_cell_formula_units_Z 40
_cell_length_a 8.480997
_cell_length_b 8.480997
_cell_length_c 23.989317
_cell_angle_alpha 90.000000
_cell_angle_beta 90.000000
_cell_angle_gamma 90.000000
_cell_volume 1725.487043
_symmetry_space_group_name_H-M "P 42 21 2"
_symmetry_group_IT_number 94
_symmetry_cell_setting 'tetragonal'
loop_
_space_group_symop_operation_xyz
x,y,z
1/2-y,1/2+x,1/2+z
-x,-y,z
1/2+y,1/2-x,1/2+z
1/2+x,1/2-y,1/2-z
1/2-x,1/2+y,1/2-z
y,x,-z
-y,-x,-z
loop_
_atom_site_type_symbol
_atom_site_label
_atom_site_fract_x
_atom_site_fract_y
_atom_site_fract_z
Si Si1 0.403553 0.298714 0.625935
Si Si2 0.301581 0.171029 0.212912
Si Si3 0.393790 0.847576 0.530970
Si Si4 0.169418 0.492683 0.676564
Si Si5 0.816570 0.980469 0.623245
O O1 0.512703 0.238722 0.677418
O O2 0.490399 0.260731 0.568504
O O3 0.324042 0.466051 0.638333
O O4 0.243958 0.195994 0.623761
O O5 0.361386 0.148964 0.275300
O O6 0.439551 0.259708 0.179979
O O7 0.152784 0.285458 0.208116
O O8 0.275733 0.724268 0.500000
O O9 0.279099 0.933879 0.574616
O O10 0.500000 0.000000 0.507247
O O11 0.000000 0.500000 0.646881
O O12 0.000000 0.000000 0.615572
#
# Coordination Sequence:
#
# PCOD9550047 Si02
#       5
#     8   8   8   8   8
#     4  10  22  41  62  91 129 167 212 270 328 382
#     4  11  22  37  58  87 128 171 212 257 311 376
#     4   9  20  42  72 100 130 169 216 276 343 406
#     4  12  23  36  59  90 126 172 219 257 308 383
#     4  10  20  38  64  93 127 164 209 263 318 383
#
# _framework density 23.181863
#
# number of rings (size 3 to 8) (size 9 to 14) (size 15 to 20)
#    0.000    1.600    0.000    7.200    0.000    2.000 
#    0.000   10.000    0.000   26.400    0.000    5.600 
#    0.000    0.000    0.000    0.000    0.000    0.000 
#
# Total GULP energy -223317.699744 kJ/mol
# GULP energy per Si atom -5582.942494 kJ/mol
# Density = 2.312910 g / cm^3
# Si number density = 23.181863 Si / 1000 Ang^3
#
#
#
# Elastic Constant Matrix: (Units=GPa)
#
#
# Indices 1 2 3 4 5 6 
#
# 1 89.3376 -2.3768 12.7091 0.0000 0.0000 0.0000
# 2 -2.3768 89.3376 12.7098 0.0000 0.0000 0.0000
# 3 12.7091 12.7098 54.6972 0.0000 0.0000 0.0000
# 4 0.0000 0.0000 0.0000 11.7297 0.0000 0.0000
# 5 0.0000 0.0000 0.0000 0.0000 11.7298 0.0000
# 6 0.0000 0.0000 0.0000 0.0000 0.0000 32.7706
#
#
#
# Elastic Compliance Matrix: (Units=1/GPa)
#
#
# Indices 1 2 3 4 5 6 
#
# 1 0.011620 0.000717 -0.002867 0.000000 0.000000 0.000000
# 2 0.000717 0.011620 -0.002867 0.000000 0.000000 0.000000
# 3 -0.002867 -0.002867 0.019615 0.000000 0.000000 0.000000
# 4 0.000000 0.000000 0.000000 0.085254 0.000000 0.000000
# 5 0.000000 0.000000 0.000000 0.000000 0.085253 0.000000
# 6 0.000000 0.000000 0.000000 0.000000 0.000000 0.030515
#
#
# Mechanical properties :
#
#
# Convention : Reuss Voigt Hill
#
# Bulk Modulus (GPa) = 30.46683 31.05074 30.75878
# Shear Modulus (GPa) = 18.87850 25.26803 22.07327
#
# Velocity S-wave (km/s) = 2.85680 3.30508 3.08909
# Velocity P-wave (km/s) = 4.90437 5.29039 5.10103
#
# Compressibility (1/GPa) = 0.03282258
#
# Stress axis : x y z
#
# Youngs Moduli (GPa) = 86.05574 86.05542 50.98218
#
# Poissons Ratio (x) = -0.06170 0.14615
# Poissons Ratio (y) = -0.06170 0.14616
# Poissons Ratio (z) = 0.24669 0.24670
#
# Static dielectric constant tensor:
#      x y z
#    x 1.955620 0.000000 0.000000 
#    y 0.000000 1.955620 0.000000 
#    z 0.000000 0.000000 1.831520 
# 
# From -- ./inp_files/5281.got.cif
#   From: 2010.05.17/outbox.cif.g08.bks.cpg/sg94_3_cif.got.tgz:5281.got - 2010.06.03 19:43:16.
