data_PCOD9550255
_publ_section_title
;
Structure prediction by ZEFSAII (Michael W. Deem and Ramdas Pophale) SiO2 
 PCOD9550255
Probable space group: P 42 21 2
;
_chemical_formula_sum "Si O2"
_cell_formula_units_Z 54
_cell_length_a 14.379607
_cell_length_b 14.379607
_cell_length_c 12.122934
_cell_angle_alpha 90.000000
_cell_angle_beta 90.000000
_cell_angle_gamma 90.000000
_cell_volume 2506.696614
_symmetry_space_group_name_H-M "P 42 21 2"
_symmetry_group_IT_number 94
_symmetry_cell_setting 'tetragonal'
loop_
_space_group_symop_operation_xyz
x,y,z
1/2-y,1/2+x,1/2+z
-x,-y,z
1/2+y,1/2-x,1/2+z
1/2+x,1/2-y,1/2-z
1/2-x,1/2+y,1/2-z
y,x,-z
-y,-x,-z
loop_
_atom_site_type_symbol
_atom_site_label
_atom_site_fract_x
_atom_site_fract_y
_atom_site_fract_z
Si Si1 0.809925 0.529309 0.362374
Si Si2 0.500000 0.500000 0.500000
Si Si3 0.264263 0.265121 0.678370
Si Si4 0.692599 0.436266 0.795895
Si Si5 0.000000 0.500000 0.737718
Si Si6 0.497996 0.626558 0.713197
Si Si7 0.628866 0.676161 0.123852
Si Si8 0.464111 0.188712 0.387044
O O1 0.760610 0.630147 0.354322
O O2 0.734393 0.467627 0.298390
O O3 0.815893 0.501935 0.488672
O O4 0.911162 0.530534 0.309382
O O5 0.509279 0.585352 0.588119
O O6 0.215900 0.166093 0.661278
O O7 0.262232 0.298333 0.806725
O O8 0.228159 0.358294 0.618299
O O9 0.585015 0.431509 0.765247
O O10 0.714206 0.523191 0.875487
O O11 0.747556 0.467241 0.685793
O O12 0.086869 0.467337 0.665413
O O13 0.584172 0.624474 0.798250
O O14 0.658495 0.658495 0.000000
#
# Coordination Sequence:
#
# PCOD9550255 Si02
#       8
#     8   2   8   8   4   8   8   8
#     4  11  24  44  68  96 134 174 228 281 339 409
#     4  12  20  40  66 104 132 172 224 282 344 400
#     4  10  23  45  65  98 130 173 232 270 333 413
#     4  11  21  45  64  99 129 171 229 273 337 417
#     4  12  24  48  62 100 134 178 230 278 348 410
#     4  11  23  39  69  98 130 173 220 276 341 407
#     4  10  23  45  65  96 141 175 213 287 346 407
#     4  11  24  44  70  93 138 178 223 288 336 407
#
# _framework density 21.542296
#
# number of rings (size 3 to 8) (size 9 to 14) (size 15 to 20)
#    0.000    1.185    2.963    2.667    4.148    1.185 
#   20.000    0.000    0.000    0.000    0.000    0.000 
#    0.000    0.000    0.000    0.000    0.000    0.000 
#
# Total GULP energy -301397.415415 kJ/mol
# GULP energy per Si atom -5581.433619 kJ/mol
# Density = 2.149326 g / cm^3
# Si number density = 21.542296 Si / 1000 Ang^3
#
#
#
# Elastic Constant Matrix: (Units=GPa)
#
#
# Indices 1 2 3 4 5 6 
#
# 1 39.2742 41.6120 -5.9825 0.0000 0.0000 0.0000
# 2 41.6120 39.2742 -5.9825 0.0000 0.0000 0.0000
# 3 -5.9825 -5.9825 62.6879 0.0000 0.0000 0.0000
# 4 0.0000 0.0000 0.0000 -6.3974 0.0000 0.0000
# 5 0.0000 0.0000 0.0000 0.0000 -6.3974 0.0000
# 6 0.0000 0.0000 0.0000 0.0000 0.0000 37.4446
#
#
#
# Elastic Compliance Matrix: (Units=1/GPa)
#
#
# Indices 1 2 3 4 5 6 
#
# 1 -0.207605 0.220146 0.001197 0.000000 0.000000 0.000000
# 2 0.220146 -0.207605 0.001197 0.000000 0.000000 0.000000
# 3 0.001197 0.001197 0.016180 0.000000 0.000000 0.000000
# 4 0.000000 0.000000 0.000000 -0.156313 0.000000 0.000000
# 5 0.000000 0.000000 0.000000 0.000000 -0.156313 0.000000
# 6 0.000000 0.000000 0.000000 0.000000 0.000000 0.026706
#
#
# Mechanical properties :
#
#
# Convention : Reuss Voigt Hill
#
# Bulk Modulus (GPa) = 21.71665 22.28112 21.99888
# Shear Modulus (GPa) = -4.48559 12.36925 3.94183
#
# Velocity S-wave (km/s) = -1.44456 2.39881 1.35417
# Velocity P-wave (km/s) = 2.70564 4.24710 3.56078
#
# Compressibility (1/GPa) = 0.04604762
#
# Stress axis : x y z
#
# Youngs Moduli (GPa) = -4.81683 -4.81683 61.80294
#
# Poissons Ratio (x) = 1.06040 -0.07396
# Poissons Ratio (y) = 1.06040 -0.07396
# Poissons Ratio (z) = 0.00576 0.00576
#
# Static dielectric constant tensor:
#      x y z
#    x 1.868920 0.000000 0.000000 
#    y 0.000000 1.868920 0.000000 
#    z 0.000000 0.000000 1.738690 
# 
# From -- ./inp_files/2749.got.cif
#   From: 2010.05.17/outbox.cif.g08.bks.cpg/sg94_2_cif.got.tgz:2749.got - 2010.06.03 19:43:16.
