data_PCOD9550356
_publ_section_title
;
Structure prediction by ZEFSAII (Michael W. Deem and Ramdas Pophale) SiO2 
 PCOD9550356
Probable space group: P 42 21 2
;
_chemical_formula_sum "Si O2"
_cell_formula_units_Z 48
_cell_length_a 8.792412
_cell_length_b 8.792412
_cell_length_c 27.500378
_cell_angle_alpha 90.000000
_cell_angle_beta 90.000000
_cell_angle_gamma 90.000000
_cell_volume 2125.958213
_symmetry_space_group_name_H-M "P 42 21 2"
_symmetry_group_IT_number 94
_symmetry_cell_setting 'tetragonal'
loop_
_space_group_symop_operation_xyz
x,y,z
1/2-y,1/2+x,1/2+z
-x,-y,z
1/2+y,1/2-x,1/2+z
1/2+x,1/2-y,1/2-z
1/2-x,1/2+y,1/2-z
y,x,-z
-y,-x,-z
loop_
_atom_site_type_symbol
_atom_site_label
_atom_site_fract_x
_atom_site_fract_y
_atom_site_fract_z
Si Si1 0.725105 0.074894 0.207374
Si Si2 0.089858 0.751026 0.281651
Si Si3 0.823857 0.523228 0.464009
Si Si4 0.222001 0.799322 0.886871
Si Si5 0.392324 0.749248 0.431662
Si Si6 0.957550 0.162540 0.623404
O O1 0.866232 0.143665 0.236495
O O2 0.578857 0.180771 0.219734
O O3 0.745941 0.093195 0.150035
O O4 0.692419 0.900793 0.219345
O O5 0.125741 0.851209 0.329937
O O6 0.773610 0.681249 0.439279
O O7 0.703076 0.401527 0.442888
O O8 0.805995 0.486068 0.521132
O O9 0.000000 0.500000 0.450742
O O10 0.382533 0.743706 0.865523
O O11 0.222551 0.979861 0.891576
O O12 0.271774 0.871619 0.413588
O O13 0.000000 0.000000 0.601019
#
# Coordination Sequence:
#
# PCOD9550356 Si02
#       6
#     8   8   8   8   8   8
#     4  11  26  46  73 105 149 192 245 310 378 447
#     4  11  26  47  70 105 145 195 251 310 374 461
#     4  11  24  46  71 102 146 192 249 308 371 456
#     4  12  24  42  72 103 143 193 239 309 378 443
#     4  11  26  45  70 106 143 192 251 310 377 452
#     4  12  24  45  71 103 147 194 257 312 379 452
#
# _framework density 22.578053000000001
#
# number of rings (size 3 to 8) (size 9 to 14) (size 15 to 20)
#    0.000    0.667    1.667    5.500    4.667    1.333 
#    0.000    5.000    0.000    0.000    0.000    0.000 
#    0.000    0.000    0.000    0.000    0.000    0.000 
#
# Total GULP energy -268518.006304 kJ/mol
# GULP energy per Si atom -5594.125131 kJ/mol
# Density = 2.252666 g / cm^3
# Si number density = 22.578053 Si / 1000 Ang^3
#
#
#
# Elastic Constant Matrix: (Units=GPa)
#
#
# Indices 1 2 3 4 5 6 
#
# 1 109.3531 21.5736 12.3307 0.0000 0.0000 0.0000
# 2 21.5736 109.3531 12.3307 0.0000 0.0000 0.0000
# 3 12.3307 12.3307 65.1542 0.0000 0.0000 0.0000
# 4 0.0000 0.0000 0.0000 67.5605 0.0000 0.0000
# 5 0.0000 0.0000 0.0000 0.0000 67.5605 0.0000
# 6 0.0000 0.0000 0.0000 0.0000 0.0000 38.4445
#
#
#
# Elastic Compliance Matrix: (Units=1/GPa)
#
#
# Indices 1 2 3 4 5 6 
#
# 1 0.009656 -0.001736 -0.001499 0.000000 0.000000 0.000000
# 2 -0.001736 0.009656 -0.001499 0.000000 0.000000 0.000000
# 3 -0.001499 -0.001499 0.015916 0.000000 0.000000 0.000000
# 4 0.000000 0.000000 0.000000 0.014802 0.000000 0.000000
# 5 0.000000 0.000000 0.000000 0.000000 0.014802 0.000000
# 6 0.000000 0.000000 0.000000 0.000000 0.000000 0.026012
#
#
# Mechanical properties :
#
#
# Convention : Reuss Voigt Hill
#
# Bulk Modulus (GPa) = 38.81950 41.81448 40.31699
# Shear Modulus (GPa) = 45.91495 50.55478 48.23486
#
# Velocity S-wave (km/s) = 4.51445 4.73706 4.62709
# Velocity P-wave (km/s) = 6.66367 6.96274 6.81485
#
# Compressibility (1/GPa) = 0.02576025
#
# Stress axis : x y z
#
# Youngs Moduli (GPa) = 103.56051 103.56051 62.83162
#
# Poissons Ratio (x) = 0.17978 0.09418
# Poissons Ratio (y) = 0.17978 0.09418
# Poissons Ratio (z) = 0.15523 0.15523
#
# Static dielectric constant tensor:
#      x y z
#    x 1.829200 0.000000 0.000000 
#    y 0.000000 1.829200 0.000000 
#    z 0.000000 0.000000 1.838600 
# 
# From -- ./inp_files/5551.got.cif
#   From: 2010.05.17/outbox.cif.g08.bks.cpg/sg94_3_cif.got.tgz:5551.got - 2010.06.03 19:43:16.
