data_PCOD9550078
_publ_section_title
;
Structure prediction by ZEFSAII (Michael W. Deem and Ramdas Pophale) SiO2 
 PCOD9550078
Probable space group: P 42 21 2
;
_chemical_formula_sum "Si O2"
_cell_formula_units_Z 40
_cell_length_a 9.130906
_cell_length_b 9.130906
_cell_length_c 25.892505
_cell_angle_alpha 90.000000
_cell_angle_beta 90.000000
_cell_angle_gamma 90.000000
_cell_volume 2158.747325
_symmetry_space_group_name_H-M "P 42 21 2"
_symmetry_group_IT_number 94
_symmetry_cell_setting 'tetragonal'
loop_
_space_group_symop_operation_xyz
x,y,z
1/2-y,1/2+x,1/2+z
-x,-y,z
1/2+y,1/2-x,1/2+z
1/2+x,1/2-y,1/2-z
1/2-x,1/2+y,1/2-z
y,x,-z
-y,-x,-z
loop_
_atom_site_type_symbol
_atom_site_label
_atom_site_fract_x
_atom_site_fract_y
_atom_site_fract_z
Si Si1 0.882738 0.723692 0.160640
Si Si2 0.380173 0.812410 0.853357
Si Si3 0.582837 0.845044 0.133010
Si Si4 0.662844 0.431697 0.775202
Si Si5 0.153904 0.083635 0.556488
O O1 0.835908 0.554874 0.151334
O O2 0.759093 0.832064 0.138091
O O3 0.911421 0.758362 0.220742
O O4 0.045436 0.718642 0.137824
O O5 0.341598 0.728617 0.800806
O O6 0.350259 0.707054 0.900583
O O7 0.528830 0.747086 0.181956
O O8 0.529132 0.774971 0.078568
O O9 0.500000 0.000000 0.138201
O O10 0.500000 0.500000 0.768976
O O11 0.156427 0.156427 0.500000
O O12 0.000000 0.000000 0.558903
#
# Coordination Sequence:
#
# PCOD9550078 Si02
#       5
#     8   8   8   8   8
#     4  11  22  35  59  91 123 163 200 256 307 357
#     4  10  21  38  59  88 123 156 210 256 299 372
#     4  11  23  39  59  91 124 153 211 255 304 376
#     4  11  22  37  56  83 126 173 203 234 300 377
#     4  10  20  43  67  85 115 161 205 255 316 377
#
# _framework density 18.529264999999999
#
# number of rings (size 3 to 8) (size 9 to 14) (size 15 to 20)
#    0.000    1.400    4.000    2.400    5.600    1.600 
#    3.600    0.000    0.000    1.200    0.000    0.000 
#    0.000    0.000    0.000    0.000    0.000    0.000 
#
# Total GULP energy -222908.959191 kJ/mol
# GULP energy per Si atom -5572.723980 kJ/mol
# Density = 1.848709 g / cm^3
# Si number density = 18.529265 Si / 1000 Ang^3
#
#
#
# Elastic Constant Matrix: (Units=GPa)
#
#
# Indices 1 2 3 4 5 6 
#
# 1 86.3333 21.4158 15.5016 0.0000 0.0000 0.0000
# 2 21.4158 86.3333 15.5016 0.0000 0.0000 0.0000
# 3 15.5016 15.5016 88.5780 0.0000 0.0000 0.0000
# 4 0.0000 0.0000 0.0000 76.4867 0.0000 0.0000
# 5 0.0000 0.0000 0.0000 0.0000 76.4867 0.0000
# 6 0.0000 0.0000 0.0000 0.0000 0.0000 25.0914
#
#
#
# Elastic Compliance Matrix: (Units=1/GPa)
#
#
# Indices 1 2 3 4 5 6 
#
# 1 0.012589 -0.002816 -0.001710 0.000000 0.000000 0.000000
# 2 -0.002816 0.012589 -0.001710 0.000000 0.000000 0.000000
# 3 -0.001710 -0.001710 0.011888 0.000000 0.000000 0.000000
# 4 0.000000 0.000000 0.000000 0.013074 0.000000 0.000000
# 5 0.000000 0.000000 0.000000 0.000000 0.013074 0.000000
# 6 0.000000 0.000000 0.000000 0.000000 0.000000 0.039854
#
#
# Mechanical properties :
#
#
# Convention : Reuss Voigt Hill
#
# Bulk Modulus (GPa) = 40.66243 40.67586 40.66915
# Shear Modulus (GPa) = 40.40799 49.53468 44.97133
#
# Velocity S-wave (km/s) = 4.67493 5.17603 4.93185
# Velocity P-wave (km/s) = 7.15071 7.59747 7.37747
#
# Compressibility (1/GPa) = 0.02459272
#
# Stress axis : x y z
#
# Youngs Moduli (GPa) = 79.43723 79.43723 84.11764
#
# Poissons Ratio (x) = 0.22366 0.14387
# Poissons Ratio (y) = 0.22366 0.14387
# Poissons Ratio (z) = 0.13586 0.13586
#
# Static dielectric constant tensor:
#      x y z
#    x 1.599980 0.000000 0.000000 
#    y 0.000000 1.599980 0.000000 
#    z 0.000000 0.000000 1.636500 
# 
# From -- ./inp_files/4972.got.cif
#   From: 2010.05.17/outbox.cif.g08.bks.cpg/sg94_3_cif.got.tgz:4972.got - 2010.06.03 19:43:16.
