data_PCOD9550618
_publ_section_title
;
Structure prediction by ZEFSAII (Michael W. Deem and Ramdas Pophale) SiO2 
 PCOD9550618
Probable space group: P 43 2 2
;
_chemical_formula_sum "Si O2"
_cell_formula_units_Z 24
_cell_length_a 13.931514
_cell_length_b 13.931514
_cell_length_c 5.138406
_cell_angle_alpha 90.000000
_cell_angle_beta 90.000000
_cell_angle_gamma 90.000000
_cell_volume 997.298228
_symmetry_space_group_name_H-M "P 43 2 2"
_symmetry_group_IT_number 95
_symmetry_cell_setting 'tetragonal'
loop_
_space_group_symop_operation_xyz
x,y,z
-y,x,3/4+z
-x,-y,1/2+z
y,-x,1/4+z
x,-y,1/2-z
-x,y,-z
y,x,1/4-z
-y,-x,3/4-z
loop_
_atom_site_type_symbol
_atom_site_label
_atom_site_fract_x
_atom_site_fract_y
_atom_site_fract_z
Si Si1 0.063844 0.213204 0.737196
Si Si2 0.397008 0.602993 0.375000
Si Si3 0.500000 0.930789 0.500000
Si Si4 0.798554 0.660785 0.505540
O O1 0.122035 0.122035 0.625000
O O2 0.000000 0.243709 0.500000
O O3 0.134007 0.302736 0.781610
O O4 0.000000 0.196453 0.000000
O O5 0.389004 0.500000 0.250000
O O6 0.385731 0.695888 0.188433
O O7 0.410564 0.859700 0.434979
O O8 0.487971 0.000000 0.750000
O O9 0.762604 0.762604 0.625000
#
# Coordination Sequence:
#
# PCOD9550618 Si02
#       4
#     8   4   4   8
#     4  12  27  49  79 118 161 222 281 347 422 506
#     4  10  22  52  84 122 164 210 268 338 418 506
#     4  12  28  50  78 122 166 214 280 348 412 496
#     4  10  23  49  79 112 165 213 276 334 426 489
#
# _framework density 24.065018999999999
#
# number of rings (size 3 to 8) (size 9 to 14) (size 15 to 20)
#    1.000    0.000    1.667    4.000    0.000   12.000 
#    6.000    1.667    0.000    0.000    0.000    0.000 
#    0.000    0.000    0.000    0.000    0.000    0.000 
#
# Total GULP energy -134112.924241 kJ/mol
# GULP energy per Si atom -5588.038510 kJ/mol
# Density = 2.401025 g / cm^3
# Si number density = 24.065019 Si / 1000 Ang^3
#
#
#
# Elastic Constant Matrix: (Units=GPa)
#
#
# Indices 1 2 3 4 5 6 
#
# 1 219.7458 66.4154 89.7233 0.0000 0.0000 0.0000
# 2 66.4154 219.7508 89.7219 0.0000 0.0000 0.0000
# 3 89.7233 89.7219 156.5946 0.0000 0.0000 0.0000
# 4 0.0000 0.0000 0.0000 28.6085 0.0000 0.0000
# 5 0.0000 0.0000 0.0000 0.0000 28.6072 0.0000
# 6 0.0000 0.0000 0.0000 0.0000 0.0000 69.4757
#
#
#
# Elastic Compliance Matrix: (Units=1/GPa)
#
#
# Indices 1 2 3 4 5 6 
#
# 1 0.005988 -0.000534 -0.003125 0.000000 0.000000 0.000000
# 2 -0.000534 0.005988 -0.003125 0.000000 0.000000 0.000000
# 3 -0.003125 -0.003125 0.009967 0.000000 0.000000 0.000000
# 4 0.000000 0.000000 0.000000 0.034955 0.000000 0.000000
# 5 0.000000 0.000000 0.000000 0.000000 0.034956 0.000000
# 6 0.000000 0.000000 0.000000 0.000000 0.000000 0.014394
#
#
# Mechanical properties :
#
#
# Convention : Reuss Voigt Hill
#
# Bulk Modulus (GPa) = 119.40073 120.86803 120.13438
# Shear Modulus (GPa) = 40.78088 48.68700 44.73394
#
# Velocity S-wave (km/s) = 4.12103 4.50282 4.31615
# Velocity P-wave (km/s) = 8.50691 8.79593 8.65263
#
# Compressibility (1/GPa) = 0.00837516
#
# Stress axis : x y z
#
# Youngs Moduli (GPa) = 166.99959 167.00615 100.33215
#
# Poissons Ratio (x) = 0.08915 0.31355
# Poissons Ratio (y) = 0.08915 0.31353
# Poissons Ratio (z) = 0.52189 0.52187
#
# Static dielectric constant tensor:
#      x y z
#    x 1.253890 0.000000 0.000000 
#    y 0.000000 1.253890 0.000000 
#    z 0.000000 0.000000 1.893180 
# 
# From -- ./inp_files/426.got.cif
#   From: 2010.05.17/outbox.cif.g08.bks.cpg/sg95_1_cif.got.tgz:426.got - 2010.06.03 19:46:49.
