data_PCOD9550924
_publ_section_title
;
Structure prediction by ZEFSAII (Michael W. Deem and Ramdas Pophale) SiO2 
 PCOD9550924
Probable space group: P 43 21 2
;
_chemical_formula_sum "Si O2"
_cell_formula_units_Z 40
_cell_length_a 11.474598
_cell_length_b 11.474598
_cell_length_c 15.446266
_cell_angle_alpha 90.000000
_cell_angle_beta 90.000000
_cell_angle_gamma 90.000000
_cell_volume 2033.754226
_symmetry_space_group_name_H-M "P 43 21 2"
_symmetry_group_IT_number 96
_symmetry_cell_setting 'tetragonal'
loop_
_space_group_symop_operation_xyz
x,y,z
1/2-y,1/2+x,3/4+z
-x,-y,1/2+z
1/2+y,1/2-x,1/4+z
1/2+x,1/2-y,1/4-z
1/2-x,1/2+y,3/4-z
y,x,-z
-y,-x,1/2-z
loop_
_atom_site_type_symbol
_atom_site_label
_atom_site_fract_x
_atom_site_fract_y
_atom_site_fract_z
Si Si1 0.584896 0.837788 0.924908
Si Si2 0.507370 0.119555 0.239954
Si Si3 0.415470 0.415470 0.500000
Si Si4 0.540991 0.750653 0.567789
Si Si5 0.626830 0.500810 0.596305
Si Si6 0.160927 0.160927 0.500000
O O1 0.562054 0.829885 0.822359
O O2 0.721608 0.850815 0.943953
O O3 0.558646 0.717251 0.974759
O O4 0.500329 0.940782 0.960964
O O5 0.636943 0.099698 0.275124
O O6 0.513190 0.202396 0.156455
O O7 0.496694 0.454909 0.579156
O O8 0.622323 0.641023 0.593391
O O9 0.463000 0.699411 0.489139
O O10 0.667093 0.446814 0.684766
#
# Coordination Sequence:
#
# PCOD9550924 Si02
#       6
#     8   8   4   8   8   4
#     4  10  22  39  65  94 124 171 215 266 329 380
#     4  10  21  42  64  97 127 170 213 276 313 396
#     4   9  20  42  58  91 128 164 224 261 324 402
#     4   9  22  43  64  93 133 163 220 259 328 386
#     4  10  23  45  59  98 128 171 214 272 321 400
#     4  11  24  40  66  93 130 176 212 277 328 390
#
# _framework density 19.668057999999998
#
# number of rings (size 3 to 8) (size 9 to 14) (size 15 to 20)
#    0.000    2.400    0.000    1.200    8.400    0.000 
#   36.000    0.000    0.000    0.000    0.000    0.000 
#    0.000    0.000    0.000    0.000    0.000    0.000 
#
# Total GULP energy -222845.559528 kJ/mol
# GULP energy per Si atom -5571.138988 kJ/mol
# Density = 1.962329 g / cm^3
# Si number density = 19.668058 Si / 1000 Ang^3
#
#
#
# Elastic Constant Matrix: (Units=GPa)
#
#
# Indices 1 2 3 4 5 6 
#
# 1 2.9351 121.6642 47.6259 0.0000 0.0000 0.0000
# 2 121.6642 2.9351 47.6259 0.0000 0.0000 0.0000
# 3 47.6259 47.6259 135.8771 0.0000 0.0000 0.0000
# 4 0.0000 0.0000 0.0000 25.4570 0.0000 0.0000
# 5 0.0000 0.0000 0.0000 0.0000 25.4570 0.0000
# 6 0.0000 0.0000 0.0000 0.0000 0.0000 10.2747
#
#
#
# Elastic Compliance Matrix: (Units=1/GPa)
#
#
# Indices 1 2 3 4 5 6 
#
# 1 0.001270 0.009693 -0.003843 0.000000 0.000000 0.000000
# 2 0.009693 0.001270 -0.003843 0.000000 0.000000 0.000000
# 3 -0.003843 -0.003843 0.010053 0.000000 0.000000 0.000000
# 4 0.000000 0.000000 0.000000 0.039282 0.000000 0.000000
# 5 0.000000 0.000000 0.000000 0.000000 0.039282 0.000000
# 6 0.000000 0.000000 0.000000 0.000000 0.000000 0.097327
#
#
# Mechanical properties :
#
#
# Convention : Reuss Voigt Hill
#
# Bulk Modulus (GPa) = 60.20762 63.95323 62.08043
# Shear Modulus (GPa) = 26.31497 7.22651 16.77074
#
# Velocity S-wave (km/s) = 3.66177 1.91891 2.92325
# Velocity P-wave (km/s) = 6.96825 6.12344 6.55946
#
# Compressibility (1/GPa) = 0.01660919
#
# Stress axis : x y z
#
# Youngs Moduli (GPa) = 787.14325 787.14325 99.46877
#
# Poissons Ratio (x) = -7.62974 0.38223
# Poissons Ratio (y) = -7.62974 0.38223
# Poissons Ratio (z) = 3.02479 3.02479
#
# Static dielectric constant tensor:
#      x y z
#    x 1.712970 0.000000 0.000000 
#    y 0.000000 1.712970 0.000000 
#    z 0.000000 0.000000 1.707050 
# 
# From -- ./inp_files/2697.got.cif
#   From: 2010.05.17/outbox.cif.g08.bks.cpg/sg96_2_cif.got.tgz:2697.got - 2010.06.03 19:52:08.
