data_PCOD9550299
_publ_section_title
;
Structure prediction by ZEFSAII (Michael W. Deem and Ramdas Pophale) SiO2 
 PCOD9550299
Probable space group: P 42 21 2
;
_chemical_formula_sum "Si O2"
_cell_formula_units_Z 48
_cell_length_a 9.566591
_cell_length_b 9.566591
_cell_length_c 28.515066
_cell_angle_alpha 90.000000
_cell_angle_beta 90.000000
_cell_angle_gamma 90.000000
_cell_volume 2609.689241
_symmetry_space_group_name_H-M "P 42 21 2"
_symmetry_group_IT_number 94
_symmetry_cell_setting 'tetragonal'
loop_
_space_group_symop_operation_xyz
x,y,z
1/2-y,1/2+x,1/2+z
-x,-y,z
1/2+y,1/2-x,1/2+z
1/2+x,1/2-y,1/2-z
1/2-x,1/2+y,1/2-z
y,x,-z
-y,-x,-z
loop_
_atom_site_type_symbol
_atom_site_label
_atom_site_fract_x
_atom_site_fract_y
_atom_site_fract_z
Si Si1 0.327278 0.343471 0.053948
Si Si2 0.176123 0.250598 0.858747
Si Si3 0.510313 0.169621 0.308985
Si Si4 0.663923 0.331733 0.054480
Si Si5 0.340351 0.275243 0.641100
Si Si6 0.986583 0.665818 0.296980
O O1 0.250073 0.241894 0.089712
O O2 0.495473 0.331922 0.059231
O O3 0.290201 0.506671 0.063072
O O4 0.302836 0.302836 0.000000
O O5 0.198611 0.404282 0.837525
O O6 0.010171 0.213576 0.859090
O O7 0.270889 0.158864 0.824404
O O8 0.409898 0.253659 0.343848
O O9 0.484546 0.218885 0.255267
O O10 0.500000 0.000000 0.312813
O O11 0.724370 0.221524 0.091412
O O12 0.698936 0.301065 0.000000
O O13 0.301904 0.163609 0.681709
O O14 0.000000 0.500000 0.291297
#
# Coordination Sequence:
#
# PCOD9550299 Si02
#       6
#     8   8   8   8   8   8
#     4   9  18  35  59  85 112 149 198 246 288 345
#     4  11  21  38  60  86 120 156 192 244 301 354
#     4  11  23  39  57  85 121 159 199 245 286 349
#     4   9  18  35  59  85 112 149 198 246 288 345
#     4  11  21  38  60  86 120 156 192 244 301 354
#     4   9  20  37  61  87 117 153 199 239 294 355
#
# _framework density 18.392994999999999
#
# number of rings (size 3 to 8) (size 9 to 14) (size 15 to 20)
#    0.000    2.000    1.667    3.500    0.000    0.000 
#    3.000    5.000    0.000    0.000    0.000    0.000 
#    0.000    0.000    0.000    0.000    0.000    0.000 
#
# Total GULP energy -267404.921412 kJ/mol
# GULP energy per Si atom -5570.935863 kJ/mol
# Density = 1.835113 g / cm^3
# Si number density = 18.392995 Si / 1000 Ang^3
#
#
#
# Elastic Constant Matrix: (Units=GPa)
#
#
# Indices 1 2 3 4 5 6 
#
# 1 39.0470 7.1278 15.1400 0.0000 0.0000 0.0000
# 2 7.1278 39.0471 15.1400 0.0000 0.0000 0.0000
# 3 15.1400 15.1400 104.7248 0.0000 0.0000 0.0000
# 4 0.0000 0.0000 0.0000 24.2069 0.0000 0.0000
# 5 0.0000 0.0000 0.0000 0.0000 24.2069 0.0000
# 6 0.0000 0.0000 0.0000 0.0000 0.0000 22.0813
#
#
#
# Elastic Compliance Matrix: (Units=1/GPa)
#
#
# Indices 1 2 3 4 5 6 
#
# 1 0.027627 -0.003702 -0.003459 0.000000 0.000000 0.000000
# 2 -0.003702 0.027627 -0.003459 0.000000 0.000000 0.000000
# 3 -0.003459 -0.003459 0.010549 0.000000 0.000000 0.000000
# 4 0.000000 0.000000 0.000000 0.041311 0.000000 0.000000
# 5 0.000000 0.000000 0.000000 0.000000 0.041310 0.000000
# 6 0.000000 0.000000 0.000000 0.000000 0.000000 0.045287
#
#
# Mechanical properties :
#
#
# Convention : Reuss Voigt Hill
#
# Bulk Modulus (GPa) = 22.43986 28.62608 25.53297
# Shear Modulus (GPa) = 21.75757 23.79310 22.77533
#
# Velocity S-wave (km/s) = 3.44310 3.60056 3.52271
# Velocity P-wave (km/s) = 5.29465 5.73435 5.51888
#
# Compressibility (1/GPa) = 0.04456356
#
# Stress axis : x y z
#
# Youngs Moduli (GPa) = 36.19640 36.19650 94.79652
#
# Poissons Ratio (x) = 0.13400 0.32788
# Poissons Ratio (y) = 0.13400 0.32788
# Poissons Ratio (z) = 0.12520 0.12520
#
# Static dielectric constant tensor:
#      x y z
#    x 1.603200 0.000000 0.000000 
#    y 0.000000 1.603200 0.000000 
#    z 0.000000 0.000000 1.641500 
# 
# From -- ./inp_files/5594.got.cif
#   From: 2010.05.17/outbox.cif.g08.bks.cpg/sg94_3_cif.got.tgz:5594.got - 2010.06.03 19:43:16.
