data_PCOD9550425
_publ_section_title
;
Structure prediction by ZEFSAII (Michael W. Deem and Ramdas Pophale) SiO2 
 PCOD9550425
Probable space group: P 43 2 2
;
_chemical_formula_sum "Si O2"
_cell_formula_units_Z 32
_cell_length_a 13.335974
_cell_length_b 13.335974
_cell_length_c 9.004238
_cell_angle_alpha 90.000000
_cell_angle_beta 90.000000
_cell_angle_gamma 90.000000
_cell_volume 1601.387543
_symmetry_space_group_name_H-M "P 43 2 2"
_symmetry_group_IT_number 95
_symmetry_cell_setting 'tetragonal'
loop_
_space_group_symop_operation_xyz
x,y,z
-y,x,3/4+z
-x,-y,1/2+z
y,-x,1/4+z
x,-y,1/2-z
-x,y,-z
y,x,1/4-z
-y,-x,3/4-z
loop_
_atom_site_type_symbol
_atom_site_label
_atom_site_fract_x
_atom_site_fract_y
_atom_site_fract_z
Si Si1 0.855771 0.273417 0.782399
Si Si2 0.399246 0.033829 0.418515
Si Si3 0.420718 0.237526 0.278257
Si Si4 0.349380 0.280305 0.786144
O O1 0.826408 0.173593 0.875000
O O2 0.804547 0.285011 0.622493
O O3 0.972105 0.303999 0.773364
O O4 0.801070 0.358363 0.885687
O O5 0.500000 0.001557 0.500000
O O6 0.398372 0.153354 0.404977
O O7 0.410365 0.000000 0.250000
O O8 0.536118 0.246201 0.235412
O O9 0.375342 0.337317 0.352264
O O10 0.307878 0.307878 0.625000
#
# Coordination Sequence:
#
# PCOD9550425 Si02
#       4
#     8   8   8   8
#     4   9  19  34  52  74 105 139 177 229 282 334
#     4  10  18  31  52  76 102 136 180 229 278 328
#     4  10  21  35  51  73 106 144 186 227 271 329
#     4  11  20  34  50  73 107 143 183 225 269 323
#
# _framework density 19.982669000000001
#
# number of rings (size 3 to 8) (size 9 to 14) (size 15 to 20)
#    0.000    2.000    0.000    6.000    0.000    0.000 
#    0.000   13.750    0.000    0.000    0.000    0.000 
#    0.000  174.000    0.000    0.000    0.000    5.250 
#
# Total GULP energy -178347.240775 kJ/mol
# GULP energy per Si atom -5573.351274 kJ/mol
# Density = 1.993719 g / cm^3
# Si number density = 19.982669 Si / 1000 Ang^3
#
#
#
# Elastic Constant Matrix: (Units=GPa)
#
#
# Indices 1 2 3 4 5 6 
#
# 1 56.0184 33.1384 -7.9750 0.0000 0.0000 0.0000
# 2 33.1384 56.0191 -7.9750 0.0000 0.0000 0.0000
# 3 -7.9750 -7.9750 41.5856 0.0000 0.0000 0.0000
# 4 0.0000 0.0000 0.0000 47.2551 0.0000 0.0000
# 5 0.0000 0.0000 0.0000 0.0000 47.2514 0.0000
# 6 0.0000 0.0000 0.0000 0.0000 0.0000 -0.0705
#
#
#
# Elastic Compliance Matrix: (Units=1/GPa)
#
#
# Indices 1 2 3 4 5 6 
#
# 1 0.027660 -0.016045 0.002227 0.000000 0.000000 0.000000
# 2 -0.016045 0.027660 0.002227 0.000000 0.000000 0.000000
# 3 0.002227 0.002227 0.024901 0.000000 0.000000 0.000000
# 4 0.000000 0.000000 0.000000 0.021162 0.000000 0.000000
# 5 0.000000 0.000000 0.000000 0.000000 0.021163 0.000000
# 6 0.000000 0.000000 0.000000 0.000000 0.000000-14.192326
#
#
# Mechanical properties :
#
#
# Convention : Reuss Voigt Hill
#
# Bulk Modulus (GPa) = 17.53161 20.88887 19.21024
# Shear Modulus (GPa) = -0.35644 27.98287 13.81322
#
# Velocity S-wave (km/s) = -0.42280 3.74619 2.63203
# Velocity P-wave (km/s) = 2.92474 5.40261 4.34409
#
# Compressibility (1/GPa) = 0.05703983
#
# Stress axis : x y z
#
# Youngs Moduli (GPa) = 36.15294 36.15341 40.15892
#
# Poissons Ratio (x) = 0.58010 -0.08945
# Poissons Ratio (y) = 0.58009 -0.08945
# Poissons Ratio (z) = -0.08053 -0.08053
#
# Static dielectric constant tensor:
#      x y z
#    x 1.765090 0.000000 0.000000 
#    y 0.000000 1.765090 0.000000 
#    z 0.000000 0.000000 1.728150 
# 
# From -- ./inp_files/2054.got.cif
#   From: 2010.05.17/outbox.cif.g08.bks.cpg/sg95_2_cif.got.tgz:2054.got - 2010.06.03 19:46:49.
