data_PCOD9550577
_publ_section_title
;
Structure prediction by ZEFSAII (Michael W. Deem and Ramdas Pophale) SiO2 
 PCOD9550577
Probable space group: P 43 2 2
;
_chemical_formula_sum "Si O2"
_cell_formula_units_Z 48
_cell_length_a 8.017742
_cell_length_b 8.017742
_cell_length_c 31.310229
_cell_angle_alpha 90.000000
_cell_angle_beta 90.000000
_cell_angle_gamma 90.000000
_cell_volume 2012.752609
_symmetry_space_group_name_H-M "P 43 2 2"
_symmetry_group_IT_number 95
_symmetry_cell_setting 'tetragonal'
loop_
_space_group_symop_operation_xyz
x,y,z
-y,x,3/4+z
-x,-y,1/2+z
y,-x,1/4+z
x,-y,1/2-z
-x,y,-z
y,x,1/4-z
-y,-x,3/4-z
loop_
_atom_site_type_symbol
_atom_site_label
_atom_site_fract_x
_atom_site_fract_y
_atom_site_fract_z
Si Si1 0.267757 0.135475 0.440496
Si Si2 0.756405 0.529205 0.981090
Si Si3 0.211278 0.570182 0.297093
Si Si4 0.118688 0.755312 0.150751
Si Si5 0.093112 0.589897 0.561171
Si Si6 0.808431 0.413125 0.354031
O O1 0.222056 0.270900 0.476469
O O2 0.168033 0.191436 0.397449
O O3 0.458724 0.195970 0.433566
O O4 0.288483 0.934920 0.445295
O O5 0.625732 0.405116 0.957341
O O6 0.923149 0.455856 0.960424
O O7 0.761801 0.481061 0.030835
O O8 0.167266 0.500000 0.250000
O O9 0.186551 0.427025 0.333295
O O10 0.214774 0.880912 0.181647
O O11 0.922145 0.743398 0.157973
O O12 0.097672 0.505141 0.607213
O O13 0.636940 0.363061 0.375000
#
# Coordination Sequence:
#
# PCOD9550577 Si02
#       6
#     8   8   8   8   8   8
#     4  10  24  41  64  98 131 167 220 272 328 414
#     4  11  23  42  69  91 131 176 215 277 340 398
#     4  11  24  42  67  99 131 173 226 277 340 404
#     4  10  21  44  62  93 133 163 220 277 320 401
#     4  10  22  42  61  96 128 168 222 269 328 406
#     4  10  22  39  64  94 125 167 213 267 334 391
#
# _framework density 23.847939
#
# number of rings (size 3 to 8) (size 9 to 14) (size 15 to 20)
#    0.000    1.667    3.333    0.000    4.667    4.667 
#    0.000    1.667    0.000    0.000    0.000    0.000 
#    0.000    0.000    0.000    0.000    0.000    0.000 
#
# Total GULP energy -267420.355193 kJ/mol
# GULP energy per Si atom -5571.257400 kJ/mol
# Density = 2.379366 g / cm^3
# Si number density = 23.847939 Si / 1000 Ang^3
#
#
#
# Elastic Constant Matrix: (Units=GPa)
#
#
# Indices 1 2 3 4 5 6 
#
# 1 44.6391 6.1855 -8.9066 0.0000 0.0000 0.0000
# 2 6.1855 44.6376 -8.9063 0.0000 0.0000 0.0000
# 3 -8.9066 -8.9063 57.5854 0.0000 0.0000 0.0000
# 4 0.0000 0.0000 0.0000 19.0402 0.0000 0.0000
# 5 0.0000 0.0000 0.0000 0.0000 19.0404 0.0000
# 6 0.0000 0.0000 0.0000 0.0000 0.0000 27.1040
#
#
#
# Elastic Compliance Matrix: (Units=1/GPa)
#
#
# Indices 1 2 3 4 5 6 
#
# 1 0.023404 -0.002601 0.003218 0.000000 0.000000 0.000000
# 2 -0.002601 0.023405 0.003218 0.000000 0.000000 0.000000
# 3 0.003218 0.003218 0.018361 0.000000 0.000000 0.000000
# 4 0.000000 0.000000 0.000000 0.052520 0.000000 0.000000
# 5 0.000000 0.000000 0.000000 0.000000 0.052520 0.000000
# 6 0.000000 0.000000 0.000000 0.000000 0.000000 0.036895
#
#
# Mechanical properties :
#
#
# Convention : Reuss Voigt Hill
#
# Bulk Modulus (GPa) = 13.72904 13.73411 13.73158
# Shear Modulus (GPa) = 22.34970 23.60291 22.97630
#
# Velocity S-wave (km/s) = 3.06465 3.14940 3.10732
# Velocity P-wave (km/s) = 4.27694 4.35850 4.31791
#
# Compressibility (1/GPa) = 0.07283829
#
# Stress axis : x y z
#
# Youngs Moduli (GPa) = 42.72714 42.72579 54.46381
#
# Poissons Ratio (x) = 0.11114 -0.17524
# Poissons Ratio (y) = 0.11114 -0.17524
# Poissons Ratio (z) = -0.13748 -0.13747
#
# Static dielectric constant tensor:
#      x y z
#    x 2.011550 0.000000 0.000000 
#    y 0.000000 2.011550 0.000000 
#    z 0.000000 0.000000 2.424550 
# 
# From -- ./inp_files/7893.got.cif
#   From: 2010.05.17/outbox.cif.g08.bks.cpg/sg95_4_cif.got.tgz:7893.got - 2010.06.03 19:46:49.
