data_PCOD9550815
_publ_section_title
;
Structure prediction by ZEFSAII (Michael W. Deem and Ramdas Pophale) SiO2 
 PCOD9550815
Probable space group: P 43 21 2
;
_chemical_formula_sum "Si O2"
_cell_formula_units_Z 48
_cell_length_a 10.875236
_cell_length_b 10.875236
_cell_length_c 19.266609
_cell_angle_alpha 90.000000
_cell_angle_beta 90.000000
_cell_angle_gamma 90.000000
_cell_volume 2278.676452
_symmetry_space_group_name_H-M "P 43 21 2"
_symmetry_group_IT_number 96
_symmetry_cell_setting 'tetragonal'
loop_
_space_group_symop_operation_xyz
x,y,z
1/2-y,1/2+x,3/4+z
-x,-y,1/2+z
1/2+y,1/2-x,1/4+z
1/2+x,1/2-y,1/4-z
1/2-x,1/2+y,3/4-z
y,x,-z
-y,-x,1/2-z
loop_
_atom_site_type_symbol
_atom_site_label
_atom_site_fract_x
_atom_site_fract_y
_atom_site_fract_z
Si Si1 0.291069 0.442325 0.226113
Si Si2 0.308875 0.059214 0.819414
Si Si3 0.830035 0.655783 0.532568
Si Si4 0.203965 0.703324 0.177623
Si Si5 0.430560 0.427769 0.098140
Si Si6 0.297884 0.545190 0.379489
O O1 0.182279 0.343433 0.222435
O O2 0.235888 0.560646 0.186304
O O3 0.407106 0.404087 0.180244
O O4 0.320120 0.494712 0.301219
O O5 0.343870 0.080079 0.900675
O O6 0.364625 0.941369 0.778192
O O7 0.163678 0.033431 0.821221
O O8 0.787743 0.787743 0.500000
O O9 0.700308 0.608499 0.564957
O O10 0.229187 0.770814 0.250000
O O11 0.314018 0.748897 0.126272
O O12 0.061845 0.714309 0.159622
O O13 0.457178 0.569347 0.085101
#
# Coordination Sequence:
#
# PCOD9550815 Si02
#       6
#     8   8   8   8   8   8
#     4   9  20  36  60  81 119 165 200 242 330 377
#     4  10  20  36  63  86 119 161 205 257 314 380
#     4   9  20  37  60  89 122 164 209 260 321 383
#     4   9  20  39  59  88 119 161 201 250 314 378
#     4   9  19  37  58  88 115 160 212 256 309 380
#     4  10  20  37  63  85 121 161 206 257 308 379
#
# _framework density 21.064859999999999
#
# number of rings (size 3 to 8) (size 9 to 14) (size 15 to 20)
#    0.000    2.667    0.000    1.500    7.000    3.333 
#    0.000    6.667    3.667    0.000    0.000    0.000 
#    0.000    0.000    0.000    0.000    0.000    0.000 
#
# Total GULP energy -267406.655880 kJ/mol
# GULP energy per Si atom -5570.971998 kJ/mol
# Density = 2.101692 g / cm^3
# Si number density = 21.064860 Si / 1000 Ang^3
#
#
#
# Elastic Constant Matrix: (Units=GPa)
#
#
# Indices 1 2 3 4 5 6 
#
# 1 48.5597 37.7582 9.2470 0.0000 0.0000 0.0000
# 2 37.7582 48.5601 9.2474 0.0000 0.0000 0.0000
# 3 9.2470 9.2474 81.4220 0.0000 0.0000 0.0000
# 4 0.0000 0.0000 0.0000 25.5046 0.0000 0.0000
# 5 0.0000 0.0000 0.0000 0.0000 25.5047 0.0000
# 6 0.0000 0.0000 0.0000 0.0000 0.0000 29.9514
#
#
#
# Elastic Compliance Matrix: (Units=1/GPa)
#
#
# Indices 1 2 3 4 5 6 
#
# 1 0.052226 -0.040352 -0.001348 0.000000 0.000000 0.000000
# 2 -0.040352 0.052226 -0.001349 0.000000 0.000000 0.000000
# 3 -0.001348 -0.001349 0.012588 0.000000 0.000000 0.000000
# 4 0.000000 0.000000 0.000000 0.039209 0.000000 0.000000
# 5 0.000000 0.000000 0.000000 0.000000 0.039208 0.000000
# 6 0.000000 0.000000 0.000000 0.000000 0.000000 0.033387
#
#
# Mechanical properties :
#
#
# Convention : Reuss Voigt Hill
#
# Bulk Modulus (GPa) = 32.31876 32.33859 32.32867
# Shear Modulus (GPa) = 15.37248 24.34476 19.85862
#
# Velocity S-wave (km/s) = 2.70435 3.40325 3.07373
# Velocity P-wave (km/s) = 5.01270 5.55230 5.28939
#
# Compressibility (1/GPa) = 0.03094178
#
# Stress axis : x y z
#
# Youngs Moduli (GPa) = 19.14750 19.14763 79.44074
#
# Poissons Ratio (x) = 0.77264 0.10711
# Poissons Ratio (y) = 0.77264 0.10715
# Poissons Ratio (z) = 0.02582 0.02583
#
# Static dielectric constant tensor:
#      x y z
#    x 1.770610 0.000000 0.000000 
#    y 0.000000 1.770610 0.000000 
#    z 0.000000 0.000000 1.869830 
# 
# From -- ./inp_files/3499.got.cif
#   From: 2010.05.17/outbox.cif.g08.bks.cpg/sg96_2_cif.got.tgz:3499.got - 2010.06.03 19:52:08.
