data_PCOD9550087
_publ_section_title
;
Structure prediction by ZEFSAII (Michael W. Deem and Ramdas Pophale) SiO2 
 PCOD9550087
Probable space group: P 42 21 2
;
_chemical_formula_sum "Si O2"
_cell_formula_units_Z 48
_cell_length_a 20.715770
_cell_length_b 20.715770
_cell_length_c 5.202207
_cell_angle_alpha 90.000000
_cell_angle_beta 90.000000
_cell_angle_gamma 90.000000
_cell_volume 2232.491378
_symmetry_space_group_name_H-M "P 42 21 2"
_symmetry_group_IT_number 94
_symmetry_cell_setting 'tetragonal'
loop_
_space_group_symop_operation_xyz
x,y,z
1/2-y,1/2+x,1/2+z
-x,-y,z
1/2+y,1/2-x,1/2+z
1/2+x,1/2-y,1/2-z
1/2-x,1/2+y,1/2-z
y,x,-z
-y,-x,-z
loop_
_atom_site_type_symbol
_atom_site_label
_atom_site_fract_x
_atom_site_fract_y
_atom_site_fract_z
Si Si1 0.194704 0.657977 0.232500
Si Si2 0.158347 0.435540 0.049761
Si Si3 0.795888 0.204112 0.000000
Si Si4 0.570903 0.269721 0.454875
Si Si5 0.142830 0.561858 0.831475
Si Si6 0.138812 0.861189 0.500000
Si Si7 0.800292 0.001747 0.450021
O O1 0.129932 0.667387 0.393366
O O2 0.254101 0.641726 0.424842
O O3 0.197655 0.719804 0.050438
O O4 0.185148 0.595825 0.053061
O O5 0.119173 0.491951 0.909203
O O6 0.229401 0.464716 0.078710
O O7 0.113889 0.412456 0.281808
O O8 0.831899 0.175439 0.750149
O O9 0.550689 0.194225 0.400096
O O10 0.549695 0.301915 0.185453
O O11 0.533088 0.307671 0.676860
O O12 0.153689 0.937472 0.506706
#
# Coordination Sequence:
#
# PCOD9550087 Si02
#       7
#     8   8   4   8   8   4   8
#     4  11  22  40  59  83 117 156 206 241 304 359
#     4  10  21  36  55  76 108 155 204 249 302 346
#     4  12  26  36  60  92 126 155 198 261 306 378
#     4  10  21  38  59  81 106 167 192 238 290 362
#     4  10  22  36  59  76 107 158 203 257 296 345
#     4  12  24  38  58  98 120 155 194 257 320 366
#     4  11  21  38  62  81 120 151 197 242 307 363
#
# _framework density 21.500644999999999
#
# number of rings (size 3 to 8) (size 9 to 14) (size 15 to 20)
#    0.000    1.333    5.000    2.000    9.333    0.000 
#    0.000    2.500    0.000    0.000    0.000    0.000 
#    0.000    0.667    5.667    0.167    0.000    0.000 
#
# Total GULP energy -267513.302709 kJ/mol
# GULP energy per Si atom -5573.193806 kJ/mol
# Density = 2.145171 g / cm^3
# Si number density = 21.500645 Si / 1000 Ang^3
#
#
#
# Elastic Constant Matrix: (Units=GPa)
#
#
# Indices 1 2 3 4 5 6 
#
# 1 20.6490 5.3375 10.1146 0.0000 0.0000 0.0000
# 2 5.3375 20.6501 10.1143 0.0000 0.0000 0.0000
# 3 10.1146 10.1143 125.2805 0.0000 0.0000 0.0000
# 4 0.0000 0.0000 0.0000 19.0024 0.0000 0.0000
# 5 0.0000 0.0000 0.0000 0.0000 19.0024 0.0000
# 6 0.0000 0.0000 0.0000 0.0000 0.0000 -8.1844
#
#
#
# Elastic Compliance Matrix: (Units=1/GPa)
#
#
# Indices 1 2 3 4 5 6 
#
# 1 0.053186 -0.012123 -0.003315 0.000000 0.000000 0.000000
# 2 -0.012123 0.053183 -0.003315 0.000000 0.000000 0.000000
# 3 -0.003315 -0.003315 0.008517 0.000000 0.000000 0.000000
# 4 0.000000 0.000000 0.000000 0.052625 0.000000 0.000000
# 5 0.000000 0.000000 0.000000 0.000000 0.052625 0.000000
# 6 0.000000 0.000000 0.000000 0.000000 0.000000 -0.122183
#
#
# Mechanical properties :
#
#
# Convention : Reuss Voigt Hill
#
# Bulk Modulus (GPa) = 12.92331 24.19027 18.55679
# Shear Modulus (GPa) = 31.00706 15.36495 23.18601
#
# Velocity S-wave (km/s) = 3.80168 2.67615 3.28744
# Velocity P-wave (km/s) = 5.02932 4.56338 4.80200
#
# Compressibility (1/GPa) = 0.07737956
#
# Stress axis : x y z
#
# Youngs Moduli (GPa) = 18.80190 18.80296 117.40721
#
# Poissons Ratio (x) = 0.22796 0.38923
# Poissons Ratio (y) = 0.22794 0.38919
# Poissons Ratio (z) = 0.06233 0.06233
#
# Static dielectric constant tensor:
#      x y z
#    x 1.806880 0.000000 0.000000 
#    y 0.000000 1.806870 0.000000 
#    z 0.000000 0.000000 1.887510 
# 
# From -- ./inp_files/534.got.cif
#   From: 2010.05.17/outbox.cif.g08.bks.cpg/sg94_1_cif.got.tgz:534.got - 2010.06.03 19:43:16.
