data_PCOD9550530
_publ_section_title
;
Structure prediction by ZEFSAII (Michael W. Deem and Ramdas Pophale) SiO2 
 PCOD9550530
Probable space group: P 43 2 2
;
_chemical_formula_sum "Si O2"
_cell_formula_units_Z 36
_cell_length_a 11.387901
_cell_length_b 11.387901
_cell_length_c 11.109727
_cell_angle_alpha 90.000000
_cell_angle_beta 90.000000
_cell_angle_gamma 90.000000
_cell_volume 1440.757049
_symmetry_space_group_name_H-M "P 43 2 2"
_symmetry_group_IT_number 95
_symmetry_cell_setting 'tetragonal'
loop_
_space_group_symop_operation_xyz
x,y,z
-y,x,3/4+z
-x,-y,1/2+z
y,-x,1/4+z
x,-y,1/2-z
-x,y,-z
y,x,1/4-z
-y,-x,3/4-z
loop_
_atom_site_type_symbol
_atom_site_label
_atom_site_fract_x
_atom_site_fract_y
_atom_site_fract_z
Si Si1 0.075027 0.449630 0.875095
Si Si2 0.218911 0.795371 0.165186
Si Si3 0.407598 0.500000 0.750000
Si Si4 0.000000 0.937247 0.500000
Si Si5 0.754477 0.410972 0.529277
Si Si6 0.656593 0.343408 0.875000
O O1 0.023027 0.500000 0.750000
O O2 0.117012 0.315682 0.858279
O O3 0.185547 0.530529 0.913607
O O4 0.000000 0.451688 0.000000
O O5 0.136282 0.880514 0.240351
O O6 0.166558 0.696830 0.076090
O O7 0.283400 0.709421 0.257778
O O8 0.481540 0.481540 0.625000
O O9 0.351211 0.372974 0.760718
O O10 0.995395 0.004606 0.375000
O O11 0.712518 0.524688 0.607905
#
# Coordination Sequence:
#
# PCOD9550530 Si02
#       6
#     8   8   4   4   8   4
#     4  11  27  48  72 106 151 199 253 311 377 446
#     4  11  24  46  74 110 152 196 250 312 381 451
#     4  12  24  40  64 112 166 202 244 294 366 462
#     4  12  28  58  84 110 142 198 270 342 384 442
#     4  11  25  40  72 113 156 205 239 303 377 466
#     4  10  20  40  72 114 156 206 240 288 370 478
#
# _framework density 24.986863
#
# number of rings (size 3 to 8) (size 9 to 14) (size 15 to 20)
#    0.000    0.889    3.333    3.333    6.222    5.333 
#    6.000    0.000    0.000    0.000    0.000    0.000 
#    0.000    0.000    0.000    0.000    0.000    0.000 
#
# Total GULP energy -200570.136473 kJ/mol
# GULP energy per Si atom -5571.392680 kJ/mol
# Density = 2.492999 g / cm^3
# Si number density = 24.986863 Si / 1000 Ang^3
#
#
#
# Elastic Constant Matrix: (Units=GPa)
#
#
# Indices 1 2 3 4 5 6 
#
# 1 -158.6819 238.6303 23.8121 0.0000 0.0000 0.0000
# 2 238.6303 -158.7823 23.7976 0.0000 0.0000 0.0000
# 3 23.8121 23.7976 140.3202 0.0000 0.0000 0.0000
# 4 0.0000 0.0000 0.0000 36.7318 0.0000 0.0000
# 5 0.0000 0.0000 0.0000 0.0000 36.7319 0.0000
# 6 0.0000 0.0000 0.0000 0.0000 0.0000 10.7452
#
#
#
# Elastic Compliance Matrix: (Units=1/GPa)
#
#
# Indices 1 2 3 4 5 6 
#
# 1 0.005705 0.008220 -0.002362 0.000000 0.000000 0.000000
# 2 0.008220 0.005702 -0.002362 0.000000 0.000000 0.000000
# 3 -0.002362 -0.002362 0.007928 0.000000 0.000000 0.000000
# 4 0.000000 0.000000 0.000000 0.027224 0.000000 0.000000
# 5 0.000000 0.000000 0.000000 0.000000 0.027224 0.000000
# 6 0.000000 0.000000 0.000000 0.000000 0.000000 0.093065
#
#
# Mechanical properties :
#
#
# Convention : Reuss Voigt Hill
#
# Bulk Modulus (GPa) = 37.98442 43.92623 40.95532
# Shear Modulus (GPa) = 29.65040 -14.05048 7.79996
#
# Velocity S-wave (km/s) = 3.44850 -2.37389 1.76873
# Velocity P-wave (km/s) = 5.57593 3.17869 4.53845
#
# Compressibility (1/GPa) = 0.02632659
#
# Stress axis : x y z
#
# Youngs Moduli (GPa) = 175.28221 175.38505 126.13542
#
# Poissons Ratio (x) = -1.44167 0.29796
# Poissons Ratio (y) = -1.44082 0.29792
# Poissons Ratio (z) = 0.41405 0.41424
#
# Static dielectric constant tensor:
#      x y z
#    x 2.081540 0.000000 0.000000 
#    y 0.000000 2.081540 0.000000 
#    z 0.000000 0.000000 2.128230 
# 
# From -- ./inp_files/3623.got.cif
#   From: 2010.05.17/outbox.cif.g08.bks.cpg/sg95_2_cif.got.tgz:3623.got - 2010.06.03 19:46:49.
