data_PCOD9550575
_publ_section_title
;
Structure prediction by ZEFSAII (Michael W. Deem and Ramdas Pophale) SiO2 
 PCOD9550575
Probable space group: P 43 2 2
;
_chemical_formula_sum "Si O2"
_cell_formula_units_Z 36
_cell_length_a 13.996860
_cell_length_b 13.996860
_cell_length_c 9.198925
_cell_angle_alpha 90.000000
_cell_angle_beta 90.000000
_cell_angle_gamma 90.000000
_cell_volume 1802.180621
_symmetry_space_group_name_H-M "P 43 2 2"
_symmetry_group_IT_number 95
_symmetry_cell_setting 'tetragonal'
loop_
_space_group_symop_operation_xyz
x,y,z
-y,x,3/4+z
-x,-y,1/2+z
y,-x,1/4+z
x,-y,1/2-z
-x,y,-z
y,x,1/4-z
-y,-x,3/4-z
loop_
_atom_site_type_symbol
_atom_site_label
_atom_site_fract_x
_atom_site_fract_y
_atom_site_fract_z
Si Si1 0.572423 0.572423 0.625000
Si Si2 0.265485 0.232900 0.794004
Si Si3 0.228440 0.606748 0.496867
Si Si4 0.551577 0.098026 0.163025
Si Si5 0.785030 0.889830 0.733876
O O1 0.500000 0.548217 0.500000
O O2 0.563373 0.684705 0.658378
O O3 0.249126 0.249126 0.625000
O O4 0.353199 0.163885 0.836219
O O5 0.275375 0.337858 0.867775
O O6 0.166986 0.195565 0.867320
O O7 0.152955 0.523814 0.516902
O O8 0.167378 0.692298 0.422897
O O9 0.572252 0.000000 0.250000
O O10 0.500000 0.089363 0.000000
O O11 0.871240 0.871240 0.625000
O O12 0.762503 0.000000 0.750000
#
# Coordination Sequence:
#
# PCOD9550575 Si02
#       5
#     4   8   8   8   8
#     4  12  24  46  68 100 138 192 230 282 358 436
#     4  10  25  43  67 105 146 180 237 306 354 431
#     4  10  21  43  73  94 140 185 235 285 364 424
#     4  12  26  43  74 109 145 189 247 306 374 440
#     4  10  21  42  71 100 135 189 236 290 366 433
#
# _framework density 19.975798999999999
#
# number of rings (size 3 to 8) (size 9 to 14) (size 15 to 20)
#    1.333    0.000    1.111    5.333    3.111    1.778 
#    8.000    2.222    0.000    0.000    0.000    0.000 
#    0.000    0.000    0.000    0.000    0.000    0.000 
#
# Total GULP energy -200427.071203 kJ/mol
# GULP energy per Si atom -5567.418645 kJ/mol
# Density = 1.993033 g / cm^3
# Si number density = 19.975799 Si / 1000 Ang^3
#
#
#
# Elastic Constant Matrix: (Units=GPa)
#
#
# Indices 1 2 3 4 5 6 
#
# 1 112.8326 65.4102 53.0777 0.0000 0.0000 0.0000
# 2 65.4102 112.8326 53.0777 0.0000 0.0000 0.0000
# 3 53.0777 53.0777 143.8486 0.0000 0.0000 0.0000
# 4 0.0000 0.0000 0.0000 -26.5370 0.0000 0.0000
# 5 0.0000 0.0000 0.0000 0.0000 -26.5370 0.0000
# 6 0.0000 0.0000 0.0000 0.0000 0.0000 12.4931
#
#
#
# Elastic Compliance Matrix: (Units=1/GPa)
#
#
# Indices 1 2 3 4 5 6 
#
# 1 0.014139 -0.006948 -0.002653 0.000000 0.000000 0.000000
# 2 -0.006948 0.014139 -0.002653 0.000000 0.000000 0.000000
# 3 -0.002653 -0.002653 0.008910 0.000000 0.000000 0.000000
# 4 0.000000 0.000000 0.000000 -0.037683 0.000000 0.000000
# 5 0.000000 0.000000 0.000000 0.000000 -0.037683 0.000000
# 6 0.000000 0.000000 0.000000 0.000000 0.000000 0.080044
#
#
# Mechanical properties :
#
#
# Convention : Reuss Voigt Hill
#
# Bulk Modulus (GPa) = 78.87690 79.18274 79.02982
# Shear Modulus (GPa) = 70.82146 5.08037 37.95092
#
# Velocity S-wave (km/s) = 5.96075 1.59649 4.36345
# Velocity P-wave (km/s) = 9.32449 6.56687 8.06442
#
# Compressibility (1/GPa) = 0.01267798
#
# Stress axis : x y z
#
# Youngs Moduli (GPa) = 70.72749 70.72749 112.23734
#
# Poissons Ratio (x) = 0.49144 0.29778
# Poissons Ratio (y) = 0.49144 0.29778
# Poissons Ratio (z) = 0.18765 0.18765
#
# Static dielectric constant tensor:
#      x y z
#    x 1.759570 0.000000 0.000000 
#    y 0.000000 1.759570 0.000000 
#    z 0.000000 0.000000 1.752210 
# 
# From -- ./inp_files/2198.got.cif
#   From: 2010.05.17/outbox.cif.g08.bks.cpg/sg95_2_cif.got.tgz:2198.got - 2010.06.03 19:46:49.
