data_PCOD9550752
_publ_section_title
;
Structure prediction by ZEFSAII (Michael W. Deem and Ramdas Pophale) SiO2 
 PCOD9550752
Probable space group: P 43 21 2
;
_chemical_formula_sum "Si O2"
_cell_formula_units_Z 48
_cell_length_a 13.657778
_cell_length_b 13.657778
_cell_length_c 14.093391
_cell_angle_alpha 90.000000
_cell_angle_beta 90.000000
_cell_angle_gamma 90.000000
_cell_volume 2628.909279
_symmetry_space_group_name_H-M "P 43 21 2"
_symmetry_group_IT_number 96
_symmetry_cell_setting 'tetragonal'
loop_
_space_group_symop_operation_xyz
x,y,z
1/2-y,1/2+x,3/4+z
-x,-y,1/2+z
1/2+y,1/2-x,1/4+z
1/2+x,1/2-y,1/4-z
1/2-x,1/2+y,3/4-z
y,x,-z
-y,-x,1/2-z
loop_
_atom_site_type_symbol
_atom_site_label
_atom_site_fract_x
_atom_site_fract_y
_atom_site_fract_z
Si Si1 0.547698 0.454950 0.591916
Si Si2 0.427950 0.142579 0.655902
Si Si3 0.207150 0.183122 0.613653
Si Si4 0.498384 0.891825 0.951584
Si Si5 0.392990 0.204478 0.288459
Si Si6 0.853965 0.080270 0.996192
O O1 0.509009 0.509009 0.500000
O O2 0.621308 0.365613 0.575278
O O3 0.459492 0.412199 0.654603
O O4 0.611899 0.521684 0.662224
O O5 0.310578 0.131481 0.639785
O O6 0.503144 0.056927 0.691850
O O7 0.465731 0.158492 0.548830
O O8 0.435553 0.239330 0.721447
O O9 0.182679 0.182679 0.500000
O O10 0.207392 0.295388 0.646199
O O11 0.523717 0.823391 0.863482
O O12 0.382738 0.900418 0.963258
O O13 0.387886 0.308947 0.240277
#
# Coordination Sequence:
#
# PCOD9550752 Si02
#       6
#     8   8   8   8   8   8
#     4  11  23  38  61  82 119 155 200 250 308 353
#     4  10  20  35  62  90 120 147 195 254 307 358
#     4  11  19  37  61  93 115 149 203 259 303 366
#     4  10  19  34  55  91 118 154 188 241 312 360
#     4  10  22  34  60  85 122 152 197 244 306 368
#     4  10  22  38  59  89 115 153 206 252 298 364
#
# _framework density 18.258523
#
# number of rings (size 3 to 8) (size 9 to 14) (size 15 to 20)
#    0.000    1.667    3.333    3.000    4.667    0.000 
#    6.000    0.000    0.000    0.000    0.000    0.000 
#    0.000    0.000    0.000    0.000    0.000    0.000 
#
# Total GULP energy -267454.350504 kJ/mol
# GULP energy per Si atom -5571.965636 kJ/mol
# Density = 1.821697 g / cm^3
# Si number density = 18.258523 Si / 1000 Ang^3
#
#
#
# Elastic Constant Matrix: (Units=GPa)
#
#
# Indices 1 2 3 4 5 6 
#
# 1 25.4692 43.8643 -4.0952 0.0000 0.0000 0.0000
# 2 43.8643 25.4692 -4.0952 0.0000 0.0000 0.0000
# 3 -4.0952 -4.0952 26.8027 0.0000 0.0000 0.0000
# 4 0.0000 0.0000 0.0000 13.9834 0.0000 0.0000
# 5 0.0000 0.0000 0.0000 0.0000 13.9834 0.0000
# 6 0.0000 0.0000 0.0000 0.0000 0.0000 14.0026
#
#
#
# Elastic Compliance Matrix: (Units=1/GPa)
#
#
# Indices 1 2 3 4 5 6 
#
# 1 -0.019837 0.034525 0.002244 0.000000 0.000000 0.000000
# 2 0.034525 -0.019837 0.002244 0.000000 0.000000 0.000000
# 3 0.002244 0.002244 0.037996 0.000000 0.000000 0.000000
# 4 0.000000 0.000000 0.000000 0.071513 0.000000 0.000000
# 5 0.000000 0.000000 0.000000 0.000000 0.071513 0.000000
# 6 0.000000 0.000000 0.000000 0.000000 0.000000 0.071415
#
#
# Mechanical properties :
#
#
# Convention : Reuss Voigt Hill
#
# Bulk Modulus (GPa) = 13.09780 16.56543 14.83161
# Shear Modulus (GPa) = 31.21378 11.19837 21.20607
#
# Velocity S-wave (km/s) = 4.13915 2.47922 3.41168
# Velocity P-wave (km/s) = 5.48019 4.15786 4.86417
#
# Compressibility (1/GPa) = 0.07634871
#
# Stress axis : x y z
#
# Youngs Moduli (GPa) = -50.41085 -50.41085 26.31890
#
# Poissons Ratio (x) = 1.74044 -0.05907
# Poissons Ratio (y) = 1.74044 -0.05907
# Poissons Ratio (z) = 0.11313 0.11313
#
# Static dielectric constant tensor:
#      x y z
#    x 1.694150 0.000000 0.000000 
#    y 0.000000 1.694150 0.000000 
#    z 0.000000 0.000000 1.609390 
# 
# From -- ./inp_files/2714.got.cif
#   From: 2010.05.17/outbox.cif.g08.bks.cpg/sg96_2_cif.got.tgz:2714.got - 2010.06.03 19:52:08.
