data_PCOD9550164
_publ_section_title
;
Structure prediction by ZEFSAII (Michael W. Deem and Ramdas Pophale) SiO2 
 PCOD9550164
Probable space group: P 42 21 2
;
_chemical_formula_sum "Si O2"
_cell_formula_units_Z 48
_cell_length_a 9.075498
_cell_length_b 9.075498
_cell_length_c 29.921631
_cell_angle_alpha 90.000000
_cell_angle_beta 90.000000
_cell_angle_gamma 90.000000
_cell_volume 2464.485082
_symmetry_space_group_name_H-M "P 42 21 2"
_symmetry_group_IT_number 94
_symmetry_cell_setting 'tetragonal'
loop_
_space_group_symop_operation_xyz
x,y,z
1/2-y,1/2+x,1/2+z
-x,-y,z
1/2+y,1/2-x,1/2+z
1/2+x,1/2-y,1/2-z
1/2-x,1/2+y,1/2-z
y,x,-z
-y,-x,-z
loop_
_atom_site_type_symbol
_atom_site_label
_atom_site_fract_x
_atom_site_fract_y
_atom_site_fract_z
Si Si1 0.472244 0.829058 0.737459
Si Si2 0.104546 0.864044 0.172655
Si Si3 0.318386 0.681615 0.000000
Si Si4 0.836848 0.314587 0.089447
Si Si5 0.657429 0.810930 0.907751
Si Si6 0.799911 0.313927 0.692930
Si Si7 0.669158 0.669158 0.000000
O O1 0.570187 0.721574 0.706620
O O2 0.308855 0.777917 0.724627
O O3 0.535413 0.803409 0.787491
O O4 0.500000 0.000000 0.726903
O O5 0.188274 0.787270 0.132006
O O6 0.985748 0.750638 0.193866
O O7 0.000000 0.000000 0.157019
O O8 0.237377 0.739120 0.044022
O O9 0.494613 0.701202 0.003114
O O10 0.781837 0.482030 0.095566
O O11 0.014028 0.322438 0.086265
O O12 0.717451 0.767973 0.858861
O O13 0.718860 0.737299 0.952700
#
# Coordination Sequence:
#
# PCOD9550164 Si02
#       7
#     8   8   4   8   8   8   4
#     4  11  23  37  59  86 115 153 195 245 288 339
#     4   9  20  39  55  80 120 152 189 241 288 348
#     4   9  18  34  55  84 108 142 187 236 288 327
#     4   9  18  35  58  82 107 153 189 224 286 356
#     4   9  19  35  60  82 110 152 193 225 294 351
#     4  10  22  38  61  85 116 157 194 239 294 348
#     4   9  18  36  58  79 116 140 184 247 280 344
#
# _framework density 19.476685
#
# number of rings (size 3 to 8) (size 9 to 14) (size 15 to 20)
#    0.000    2.500    0.000    1.000    7.000    1.333 
#    9.000    0.000   11.000    0.000    0.000    0.000 
#    0.000    0.000    0.000    0.000    0.000    0.000 
#
# Total GULP energy -267618.586762 kJ/mol
# GULP energy per Si atom -5575.387224 kJ/mol
# Density = 1.943236 g / cm^3
# Si number density = 19.476685 Si / 1000 Ang^3
#
#
#
# Elastic Constant Matrix: (Units=GPa)
#
#
# Indices 1 2 3 4 5 6 
#
# 1 38.5879 14.9587 36.8756 0.0000 0.0000 0.0000
# 2 14.9587 38.5876 36.8755 0.0000 0.0000 0.0000
# 3 36.8756 36.8755 108.6523 0.0000 0.0000 0.0000
# 4 0.0000 0.0000 0.0000 35.3711 0.0000 0.0000
# 5 0.0000 0.0000 0.0000 0.0000 35.3711 0.0000
# 6 0.0000 0.0000 0.0000 0.0000 0.0000 21.5096
#
#
#
# Elastic Compliance Matrix: (Units=1/GPa)
#
#
# Indices 1 2 3 4 5 6 
#
# 1 0.038694 -0.003626 -0.011902 0.000000 0.000000 0.000000
# 2 -0.003626 0.038695 -0.011902 0.000000 0.000000 0.000000
# 3 -0.011902 -0.011902 0.017282 0.000000 0.000000 0.000000
# 4 0.000000 0.000000 0.000000 0.028272 0.000000 0.000000
# 5 0.000000 0.000000 0.000000 0.000000 0.028272 0.000000
# 6 0.000000 0.000000 0.000000 0.000000 0.000000 0.046491
#
#
# Mechanical properties :
#
#
# Convention : Reuss Voigt Hill
#
# Bulk Modulus (GPa) = 25.11843 40.36082 32.73962
# Shear Modulus (GPa) = 18.80860 24.92488 21.86674
#
# Velocity S-wave (km/s) = 3.11094 3.58121 3.35433
# Velocity P-wave (km/s) = 5.08218 6.15368 5.64342
#
# Compressibility (1/GPa) = 0.03981141
#
# Stress axis : x y z
#
# Youngs Moduli (GPa) = 25.84365 25.84335 57.86247
#
# Poissons Ratio (x) = 0.09372 0.68866
# Poissons Ratio (y) = 0.09372 0.68867
# Poissons Ratio (z) = 0.30758 0.30758
#
# Static dielectric constant tensor:
#      x y z
#    x 1.694180 0.000000 0.000000 
#    y 0.000000 1.694180 0.000000 
#    z 0.000000 0.000000 1.701730 
# 
# From -- ./inp_files/5633.got.cif
#   From: 2010.05.17/outbox.cif.g08.bks.cpg/sg94_3_cif.got.tgz:5633.got - 2010.06.03 19:43:16.
