data_PCOD9550270
_publ_section_title
;
Structure prediction by ZEFSAII (Michael W. Deem and Ramdas Pophale) SiO2 
 PCOD9550270
Probable space group: P 42 21 2
;
_chemical_formula_sum "Si O2"
_cell_formula_units_Z 28
_cell_length_a 8.155801
_cell_length_b 8.155801
_cell_length_c 22.561043
_cell_angle_alpha 90.000000
_cell_angle_beta 90.000000
_cell_angle_gamma 90.000000
_cell_volume 1500.694927
_symmetry_space_group_name_H-M "P 42 21 2"
_symmetry_group_IT_number 94
_symmetry_cell_setting 'tetragonal'
loop_
_space_group_symop_operation_xyz
x,y,z
1/2-y,1/2+x,1/2+z
-x,-y,z
1/2+y,1/2-x,1/2+z
1/2+x,1/2-y,1/2-z
1/2-x,1/2+y,1/2-z
y,x,-z
-y,-x,-z
loop_
_atom_site_type_symbol
_atom_site_label
_atom_site_fract_x
_atom_site_fract_y
_atom_site_fract_z
Si Si1 0.664740 0.389407 0.566952
Si Si2 0.000000 0.500000 0.132221
Si Si3 0.179306 0.943674 0.286976
Si Si4 0.920758 0.676736 0.824755
O O1 0.500000 0.500000 0.568604
O O2 0.677002 0.322998 0.500000
O O3 0.619154 0.242973 0.610866
O O4 0.832803 0.474203 0.592621
O O5 0.836164 0.492704 0.174291
O O6 0.173613 0.750886 0.292126
O O7 0.203867 0.977573 0.217474
O O8 0.000000 0.000000 0.308189
O O9 0.000000 0.500000 0.826097
#
# Coordination Sequence:
#
# PCOD9550270 Si02
#       4
#     8   4   8   8
#     4  10  24  43  66  91 123 176 215 262 315 382
#     4  10  24  44  60  94 136 158 218 268 318 386
#     4  11  23  38  62  96 128 165 204 264 333 381
#     4  11  23  38  64  94 128 165 209 267 324 389
#
# _framework density 18.658024000000001
#
# number of rings (size 3 to 8) (size 9 to 14) (size 15 to 20)
#    0.000    1.429    1.429    2.571   14.000    0.000 
#    0.000    0.000    0.000    7.714    0.000    0.000 
#    0.000    0.000    0.000    0.000    0.000    0.000 
#
# Total GULP energy -156053.275249 kJ/mol
# GULP energy per Si atom -5573.331259 kJ/mol
# Density = 1.861556 g / cm^3
# Si number density = 18.658024 Si / 1000 Ang^3
#
#
#
# Elastic Constant Matrix: (Units=GPa)
#
#
# Indices 1 2 3 4 5 6 
#
# 1 104.6432 52.8448 66.3675 0.0000 0.0000 0.0000
# 2 52.8448 104.6432 66.3675 0.0000 0.0000 0.0000
# 3 66.3675 66.3675 128.8915 0.0000 0.0000 0.0000
# 4 0.0000 0.0000 0.0000 30.6915 0.0000 0.0000
# 5 0.0000 0.0000 0.0000 0.0000 30.6915 0.0000
# 6 0.0000 0.0000 0.0000 0.0000 0.0000 28.1916
#
#
#
# Elastic Compliance Matrix: (Units=1/GPa)
#
#
# Indices 1 2 3 4 5 6 
#
# 1 0.015262 -0.004044 -0.005776 0.000000 0.000000 0.000000
# 2 -0.004044 0.015262 -0.005776 0.000000 0.000000 0.000000
# 3 -0.005776 -0.005776 0.013707 0.000000 0.000000 0.000000
# 4 0.000000 0.000000 0.000000 0.032582 0.000000 0.000000
# 5 0.000000 0.000000 0.000000 0.000000 0.032582 0.000000
# 6 0.000000 0.000000 0.000000 0.000000 0.000000 0.035472
#
#
# Mechanical properties :
#
#
# Convention : Reuss Voigt Hill
#
# Bulk Modulus (GPa) = 76.69891 78.81528 77.75710
# Shear Modulus (GPa) = 27.71530 28.08812 27.90171
#
# Velocity S-wave (km/s) = 3.85832 3.88418 3.87127
# Velocity P-wave (km/s) = 7.81318 7.90250 7.85797
#
# Compressibility (1/GPa) = 0.01303799
#
# Stress axis : x y z
#
# Youngs Moduli (GPa) = 65.52275 65.52275 72.95521
#
# Poissons Ratio (x) = 0.26496 0.42141
# Poissons Ratio (y) = 0.26496 0.42141
# Poissons Ratio (z) = 0.37848 0.37848
#
# Static dielectric constant tensor:
#      x y z
#    x 1.595300 0.000000 0.000000 
#    y 0.000000 1.595300 0.000000 
#    z 0.000000 0.000000 1.662740 
# 
# From -- ./inp_files/4302.got.cif
#   From: 2010.05.17/outbox.cif.g08.bks.cpg/sg94_3_cif.got.tgz:4302.got - 2010.06.03 19:43:16.
