data_PCOD9550838
_publ_section_title
;
Structure prediction by ZEFSAII (Michael W. Deem and Ramdas Pophale) SiO2 
 PCOD9550838
Probable space group: P 43 21 2
;
_chemical_formula_sum "Si O2"
_cell_formula_units_Z 48
_cell_length_a 13.378099
_cell_length_b 13.378099
_cell_length_c 12.018988
_cell_angle_alpha 90.000000
_cell_angle_beta 90.000000
_cell_angle_gamma 90.000000
_cell_volume 2151.080744
_symmetry_space_group_name_H-M "P 43 21 2"
_symmetry_group_IT_number 96
_symmetry_cell_setting 'tetragonal'
loop_
_space_group_symop_operation_xyz
x,y,z
1/2-y,1/2+x,3/4+z
-x,-y,1/2+z
1/2+y,1/2-x,1/4+z
1/2+x,1/2-y,1/4-z
1/2-x,1/2+y,3/4-z
y,x,-z
-y,-x,1/2-z
loop_
_atom_site_type_symbol
_atom_site_label
_atom_site_fract_x
_atom_site_fract_y
_atom_site_fract_z
Si Si1 0.054695 0.986738 0.884183
Si Si2 0.937348 0.639076 0.187516
Si Si3 0.652107 0.947667 0.058866
Si Si4 0.148670 0.322563 0.217548
Si Si5 0.228621 0.488271 0.806991
Si Si6 0.716350 0.386970 0.109168
O O1 0.077554 0.103873 0.873763
O O2 0.983882 0.983882 0.000000
O O3 0.162034 0.942406 0.922142
O O4 0.038142 0.961859 0.750000
O O5 0.847114 0.585262 0.248954
O O6 0.956285 0.732915 0.266291
O O7 0.031592 0.565001 0.179339
O O8 0.912331 0.675281 0.065048
O O9 0.691719 0.872434 0.151651
O O10 0.682457 0.064814 0.062982
O O11 0.212733 0.229167 0.174087
O O12 0.035989 0.312200 0.169259
O O13 0.232912 0.584824 0.725014
#
# Coordination Sequence:
#
# PCOD9550838 Si02
#       6
#     8   8   8   8   8   8
#     4   9  20  43  63  91 126 173 223 269 335 407
#     4  11  20  39  64  93 125 175 209 263 340 391
#     4  10  22  37  62  91 130 165 215 266 329 389
#     4  10  21  38  57  95 125 159 213 272 317 382
#     4  10  20  39  66  91 128 168 216 267 332 402
#     4  10  22  40  63  92 131 168 208 274 330 398
#
# _framework density 22.314364999999999
#
# number of rings (size 3 to 8) (size 9 to 14) (size 15 to 20)
#    0.000    2.000    1.667    3.500    2.333    0.667 
#   12.000    5.000    0.000    0.000    0.000    0.000 
#    0.000    0.000    0.000    0.000    0.000    0.000 
#
# Total GULP energy -267287.127724 kJ/mol
# GULP energy per Si atom -5568.481828 kJ/mol
# Density = 2.226358 g / cm^3
# Si number density = 22.314365 Si / 1000 Ang^3
#
#
#
# Elastic Constant Matrix: (Units=GPa)
#
#
# Indices 1 2 3 4 5 6 
#
# 1 31.4075 8.1582 5.9101 0.0000 0.0000 0.0000
# 2 8.1582 31.4075 5.9099 0.0000 0.0000 0.0000
# 3 5.9101 5.9099 134.0354 0.0000 0.0000 0.0000
# 4 0.0000 0.0000 0.0000 27.6594 0.0000 0.0000
# 5 0.0000 0.0000 0.0000 0.0000 27.6595 0.0000
# 6 0.0000 0.0000 0.0000 0.0000 0.0000 10.5317
#
#
#
# Elastic Compliance Matrix: (Units=1/GPa)
#
#
# Indices 1 2 3 4 5 6 
#
# 1 0.034312 -0.008700 -0.001129 0.000000 0.000000 0.000000
# 2 -0.008700 0.034312 -0.001129 0.000000 0.000000 0.000000
# 3 -0.001129 -0.001129 0.007560 0.000000 0.000000 0.000000
# 4 0.000000 0.000000 0.000000 0.036154 0.000000 0.000000
# 5 0.000000 0.000000 0.000000 0.000000 0.036154 0.000000
# 6 0.000000 0.000000 0.000000 0.000000 0.000000 0.094952
#
#
# Mechanical properties :
#
#
# Convention : Reuss Voigt Hill
#
# Bulk Modulus (GPa) = 18.42751 26.31186 22.36969
# Shear Modulus (GPa) = 17.63980 24.96161 21.30070
#
# Velocity S-wave (km/s) = 2.81466 3.34823 3.09297
# Velocity P-wave (km/s) = 4.34041 5.17345 4.77513
#
# Compressibility (1/GPa) = 0.05426668
#
# Stress axis : x y z
#
# Youngs Moduli (GPa) = 29.14442 29.14443 132.26986
#
# Poissons Ratio (x) = 0.25356 0.14937
# Poissons Ratio (y) = 0.25356 0.14937
# Poissons Ratio (z) = 0.03291 0.03291
#
# Static dielectric constant tensor:
#      x y z
#    x 1.874140 0.000000 0.000000 
#    y 0.000000 1.874140 0.000000 
#    z 0.000000 0.000000 1.104780 
# 
# From -- ./inp_files/2198.got.cif
#   From: 2010.05.17/outbox.cif.g08.bks.cpg/sg96_2_cif.got.tgz:2198.got - 2010.06.03 19:52:08.
