data_PCOD9550240
_publ_section_title
;
Structure prediction by ZEFSAII (Michael W. Deem and Ramdas Pophale) SiO2 
 PCOD9550240
Probable space group: P 42 21 2
;
_chemical_formula_sum "Si O2"
_cell_formula_units_Z 32
_cell_length_a 11.341547
_cell_length_b 11.341547
_cell_length_c 11.968314
_cell_angle_alpha 90.000000
_cell_angle_beta 90.000000
_cell_angle_gamma 90.000000
_cell_volume 1539.492468
_symmetry_space_group_name_H-M "P 42 21 2"
_symmetry_group_IT_number 94
_symmetry_cell_setting 'tetragonal'
loop_
_space_group_symop_operation_xyz
x,y,z
1/2-y,1/2+x,1/2+z
-x,-y,z
1/2+y,1/2-x,1/2+z
1/2+x,1/2-y,1/2-z
1/2-x,1/2+y,1/2-z
y,x,-z
-y,-x,-z
loop_
_atom_site_type_symbol
_atom_site_label
_atom_site_fract_x
_atom_site_fract_y
_atom_site_fract_z
Si Si1 0.278880 0.899111 0.441574
Si Si2 0.070090 0.123123 0.705097
Si Si3 0.570805 0.169466 0.227979
Si Si4 0.068883 0.347876 0.848353
O O1 0.181557 0.818444 0.500000
O O2 0.350492 0.841646 0.338960
O O3 0.374366 0.899450 0.539934
O O4 0.205685 0.007498 0.387973
O O5 0.201933 0.082932 0.677256
O O6 0.080477 0.211772 0.812137
O O7 0.000000 0.000000 0.723616
O O8 0.434254 0.130469 0.244252
O O9 0.625967 0.068982 0.150588
#
# Coordination Sequence:
#
# PCOD9550240 Si02
#       4
#     8   8   8   8
#     4  11  22  44  71 100 140 183 222 288 347 407
#     4  11  24  42  73 100 133 181 233 285 344 405
#     4  10  23  42  68  98 140 182 232 286 336 406
#     4  10  23  42  67  99 144 182 225 288 342 406
#
# _framework density 20.786069999999999
#
# number of rings (size 3 to 8) (size 9 to 14) (size 15 to 20)
#    0.000    1.500    2.500    1.500    3.500   11.500 
#    0.000    2.500    0.000    0.000    0.000    0.000 
#    0.000    0.000    0.000    0.000    0.000    0.000 
#
# Total GULP energy -178239.927080 kJ/mol
# GULP energy per Si atom -5569.997721 kJ/mol
# Density = 2.073876 g / cm^3
# Si number density = 20.786070 Si / 1000 Ang^3
#
#
#
# Elastic Constant Matrix: (Units=GPa)
#
#
# Indices 1 2 3 4 5 6 
#
# 1 169.8840 69.9344 46.3597 0.0000 0.0000 0.0000
# 2 69.9344 169.8895 46.3587 0.0000 0.0000 0.0000
# 3 46.3597 46.3587 76.0292 0.0000 0.0000 0.0000
# 4 0.0000 0.0000 0.0000 21.9822 0.0000 0.0000
# 5 0.0000 0.0000 0.0000 0.0000 21.9847 0.0000
# 6 0.0000 0.0000 0.0000 0.0000 0.0000 14.0058
#
#
#
# Elastic Compliance Matrix: (Units=1/GPa)
#
#
# Indices 1 2 3 4 5 6 
#
# 1 0.007731 -0.002274 -0.003327 0.000000 0.000000 0.000000
# 2 -0.002274 0.007730 -0.003327 0.000000 0.000000 0.000000
# 3 -0.003327 -0.003327 0.017210 0.000000 0.000000 0.000000
# 4 0.000000 0.000000 0.000000 0.045491 0.000000 0.000000
# 5 0.000000 0.000000 0.000000 0.000000 0.045486 0.000000
# 6 0.000000 0.000000 0.000000 0.000000 0.000000 0.071399
#
#
# Mechanical properties :
#
#
# Convention : Reuss Voigt Hill
#
# Bulk Modulus (GPa) = 67.50084 82.34537 74.92311
# Shear Modulus (GPa) = 22.95248 28.47120 25.71184
#
# Velocity S-wave (km/s) = 3.32659 3.70499 3.52088
# Velocity P-wave (km/s) = 6.87746 7.61606 7.25616
#
# Compressibility (1/GPa) = 0.01481463
#
# Stress axis : x y z
#
# Youngs Moduli (GPa) = 129.35691 129.36309 58.10599
#
# Poissons Ratio (x) = 0.29422 0.19332
# Poissons Ratio (y) = 0.29421 0.19330
# Poissons Ratio (z) = 0.43037 0.43034
#
# Static dielectric constant tensor:
#      x y z
#    x 1.783050 0.000000 0.000000 
#    y 0.000000 1.783050 0.000000 
#    z 0.000000 0.000000 1.911440 
# 
# From -- ./inp_files/2305.got.cif
#   From: 2010.05.17/outbox.cif.g08.bks.cpg/sg94_2_cif.got.tgz:2305.got - 2010.06.03 19:43:16.
