data_PCOD9550350
_publ_section_title
;
Structure prediction by ZEFSAII (Michael W. Deem and Ramdas Pophale) SiO2 
 PCOD9550350
Probable space group: P 42 21 2
;
_chemical_formula_sum "Si O2"
_cell_formula_units_Z 40
_cell_length_a 13.980749
_cell_length_b 13.980749
_cell_length_c 9.365301
_cell_angle_alpha 90.000000
_cell_angle_beta 90.000000
_cell_angle_gamma 90.000000
_cell_volume 1830.554307
_symmetry_space_group_name_H-M "P 42 21 2"
_symmetry_group_IT_number 94
_symmetry_cell_setting 'tetragonal'
loop_
_space_group_symop_operation_xyz
x,y,z
1/2-y,1/2+x,1/2+z
-x,-y,z
1/2+y,1/2-x,1/2+z
1/2+x,1/2-y,1/2-z
1/2-x,1/2+y,1/2-z
y,x,-z
-y,-x,-z
loop_
_atom_site_type_symbol
_atom_site_label
_atom_site_fract_x
_atom_site_fract_y
_atom_site_fract_z
Si Si1 0.890802 0.890802 0.000000
Si Si2 0.078714 0.749225 0.252914
Si Si3 0.385475 0.385475 0.500000
Si Si4 0.919101 0.756781 0.485520
Si Si5 0.101767 0.265392 0.806318
Si Si6 0.889983 0.536334 0.502785
O O1 0.856662 0.836024 0.860906
O O2 0.001804 0.872423 0.983617
O O3 0.127280 0.825755 0.144407
O O4 0.167272 0.693760 0.317772
O O5 0.002491 0.783590 0.372199
O O6 0.031477 0.665857 0.153896
O O7 0.831587 0.831587 0.500000
O O8 0.947405 0.747707 0.652537
O O9 0.888026 0.647330 0.453598
O O10 0.026392 0.324477 0.900111
O O11 0.000000 0.500000 0.509535
#
# Coordination Sequence:
#
# PCOD9550350 Si02
#       6
#     4   8   4   8   8   8
#     4  11  24  50  74 100 149 198 258 292 391 478
#     4  11  25  46  75 109 153 198 258 322 394 474
#     4  11  24  48  76 102 144 211 242 306 390 473
#     4  11  26  43  71 113 154 191 258 328 389 467
#     4  11  25  44  74 110 144 200 253 322 387 474
#     4  11  24  44  72 110 150 202 253 320 403 474
#
# _framework density 21.851303999999999
#
# number of rings (size 3 to 8) (size 9 to 14) (size 15 to 20)
#    0.000    1.000    4.000    1.200   11.200    0.000 
#    3.600    0.000    0.000    3.600    0.000    0.000 
#    0.000    0.000    0.000    0.000    0.000    0.000 
#
# Total GULP energy -222836.390234 kJ/mol
# GULP energy per Si atom -5570.909756 kJ/mol
# Density = 2.180157 g / cm^3
# Si number density = 21.851304 Si / 1000 Ang^3
#
#
#
# Elastic Constant Matrix: (Units=GPa)
#
#
# Indices 1 2 3 4 5 6 
#
# 1 100.1846 82.6754 55.6416 0.0000 0.0000 0.0000
# 2 82.6754 100.1846 55.6416 0.0000 0.0000 0.0000
# 3 55.6416 55.6416 73.9058 0.0000 0.0000 0.0000
# 4 0.0000 0.0000 0.0000 36.7600 0.0000 0.0000
# 5 0.0000 0.0000 0.0000 0.0000 36.7600 0.0000
# 6 0.0000 0.0000 0.0000 0.0000 0.0000 29.7491
#
#
#
# Elastic Compliance Matrix: (Units=1/GPa)
#
#
# Indices 1 2 3 4 5 6 
#
# 1 0.033603 -0.023510 -0.007599 0.000000 0.000000 0.000000
# 2 -0.023510 0.033603 -0.007599 0.000000 0.000000 0.000000
# 3 -0.007599 -0.007599 0.024973 0.000000 0.000000 0.000000
# 4 0.000000 0.000000 0.000000 0.027203 0.000000 0.000000
# 5 0.000000 0.000000 0.000000 0.000000 0.027203 0.000000
# 6 0.000000 0.000000 0.000000 0.000000 0.000000 0.033614
#
#
# Mechanical properties :
#
#
# Convention : Reuss Voigt Hill
#
# Bulk Modulus (GPa) = 67.73441 73.57692 70.65566
# Shear Modulus (GPa) = 19.04502 26.00825 22.52664
#
# Velocity S-wave (km/s) = 2.95545 3.45373 3.21426
# Velocity P-wave (km/s) = 6.53539 7.04621 6.79560
#
# Compressibility (1/GPa) = 0.01476354
#
# Stress axis : x y z
#
# Youngs Moduli (GPa) = 29.75931 29.75931 40.04397
#
# Poissons Ratio (x) = 0.69964 0.30429
# Poissons Ratio (y) = 0.69964 0.30429
# Poissons Ratio (z) = 0.22613 0.22613
#
# Static dielectric constant tensor:
#      x y z
#    x 1.835850 0.000000 0.000000 
#    y 0.000000 1.835850 0.000000 
#    z 0.000000 0.000000 1.704900 
# 
# From -- ./inp_files/1461.got.cif
#   From: 2010.05.17/outbox.cif.g08.bks.cpg/sg94_1_cif.got.tgz:1461.got - 2010.06.03 19:43:16.
