data_PCOD9550552
_publ_section_title
;
Structure prediction by ZEFSAII (Michael W. Deem and Ramdas Pophale) SiO2 
 PCOD9550552
Probable space group: P 43 2 2
;
_chemical_formula_sum "Si O2"
_cell_formula_units_Z 60
_cell_length_a 19.019656
_cell_length_b 19.019656
_cell_length_c 8.740334
_cell_angle_alpha 90.000000
_cell_angle_beta 90.000000
_cell_angle_gamma 90.000000
_cell_volume 3161.792351
_symmetry_space_group_name_H-M "P 43 2 2"
_symmetry_group_IT_number 95
_symmetry_cell_setting 'tetragonal'
loop_
_space_group_symop_operation_xyz
x,y,z
-y,x,3/4+z
-x,-y,1/2+z
y,-x,1/4+z
x,-y,1/2-z
-x,y,-z
y,x,1/4-z
-y,-x,3/4-z
loop_
_atom_site_type_symbol
_atom_site_label
_atom_site_fract_x
_atom_site_fract_y
_atom_site_fract_z
Si Si1 0.196097 0.844485 0.205779
Si Si2 0.723271 0.560471 0.550284
Si Si3 0.741733 0.309557 0.167877
Si Si4 0.336064 0.867218 0.849738
Si Si5 0.296467 0.030152 0.406553
Si Si6 0.561024 0.438977 0.875000
Si Si7 0.762163 0.405792 0.599129
Si Si8 0.062584 0.213222 0.402977
O O1 0.168128 0.831873 0.375000
O O2 0.244048 0.776160 0.171385
O O3 0.241333 0.911564 0.157128
O O4 0.123442 0.842727 0.116680
O O5 0.746474 0.618819 0.429164
O O6 0.638926 0.558326 0.555737
O O7 0.743906 0.479980 0.521774
O O8 0.753221 0.582583 0.718116
O O9 0.795429 0.317193 0.309455
O O10 0.659541 0.290250 0.188178
O O11 0.387487 0.839102 0.717373
O O12 0.272179 0.901050 0.757973
O O13 0.348772 0.926696 0.980038
O O14 0.329308 0.000000 0.250000
O O15 0.253777 0.971340 0.505563
O O16 0.554417 0.500000 0.750000
O O17 0.000000 0.181801 0.500000
#
# Coordination Sequence:
#
# PCOD9550552 Si02
#       8
#     8   8   8   8   8   4   8   8
#     4  11  20  33  63  92 125 163 208 260 307 368
#     4  11  22  39  60  85 126 173 210 275 325 380
#     4  11  21  36  59  92 125 159 214 263 325 376
#     4  10  23  35  58  89 124 159 203 269 322 369
#     4  10  21  37  59  94 130 166 208 256 314 388
#     4  12  22  44  58  84 122 184 236 258 326 398
#     4  11  20  38  60  84 126 161 212 267 324 372
#     4  10  21  37  58  91 130 163 209 261 312 371
#
# _framework density 18.976578
#
# number of rings (size 3 to 8) (size 9 to 14) (size 15 to 20)
#    0.000    1.333    5.333    1.200    1.867    2.133 
#    4.800    0.000    0.000    2.400    0.000   75.600 
#    0.000    0.000    0.000    0.000    0.000    0.000 
#
# Total GULP energy -334112.391346 kJ/mol
# GULP energy per Si atom -5568.539856 kJ/mol
# Density = 1.893339 g / cm^3
# Si number density = 18.976578 Si / 1000 Ang^3
#
#
#
# Elastic Constant Matrix: (Units=GPa)
#
#
# Indices 1 2 3 4 5 6 
#
# 1 78.5825 37.3956 26.9534 0.0000 0.0000 0.0000
# 2 37.3956 78.5828 26.9532 0.0000 0.0000 0.0000
# 3 26.9534 26.9532 79.0614 0.0000 0.0000 0.0000
# 4 0.0000 0.0000 0.0000 18.9475 0.0000 0.0000
# 5 0.0000 0.0000 0.0000 0.0000 18.9469 0.0000
# 6 0.0000 0.0000 0.0000 0.0000 0.0000 17.2290
#
#
#
# Elastic Compliance Matrix: (Units=1/GPa)
#
#
# Indices 1 2 3 4 5 6 
#
# 1 0.017263 -0.007017 -0.003493 0.000000 0.000000 0.000000
# 2 -0.007017 0.017263 -0.003493 0.000000 0.000000 0.000000
# 3 -0.003493 -0.003493 0.015030 0.000000 0.000000 0.000000
# 4 0.000000 0.000000 0.000000 0.052777 0.000000 0.000000
# 5 0.000000 0.000000 0.000000 0.000000 0.052779 0.000000
# 6 0.000000 0.000000 0.000000 0.000000 0.000000 0.058042
#
#
# Mechanical properties :
#
#
# Convention : Reuss Voigt Hill
#
# Bulk Modulus (GPa) = 46.40411 46.53678 46.47044
# Shear Modulus (GPa) = 20.13352 20.68633 20.40992
#
# Velocity S-wave (km/s) = 3.26078 3.30525 3.28309
# Velocity P-wave (km/s) = 6.21960 6.25641 6.23803
#
# Compressibility (1/GPa) = 0.02154981
#
# Stress axis : x y z
#
# Youngs Moduli (GPa) = 57.92838 57.92870 66.53355
#
# Poissons Ratio (x) = 0.40648 0.23240
# Poissons Ratio (y) = 0.40647 0.23240
# Poissons Ratio (z) = 0.20234 0.20234
#
# Static dielectric constant tensor:
#      x y z
#    x 1.686870 0.000000 0.000000 
#    y 0.000000 1.686870 0.000000 
#    z 0.000000 0.000000 1.871680 
# 
# From -- ./inp_files/2832.got.cif
#   From: 2010.05.17/outbox.cif.g08.bks.cpg/sg95_2_cif.got.tgz:2832.got - 2010.06.03 19:46:49.
