data_PCOD9550955
_publ_section_title
;
Structure prediction by ZEFSAII (Michael W. Deem and Ramdas Pophale) SiO2 
 PCOD9550955
Probable space group: P 43 21 2
;
_chemical_formula_sum "Si O2"
_cell_formula_units_Z 40
_cell_length_a 9.079955
_cell_length_b 9.079955
_cell_length_c 23.958802
_cell_angle_alpha 90.000000
_cell_angle_beta 90.000000
_cell_angle_gamma 90.000000
_cell_volume 1975.297394
_symmetry_space_group_name_H-M "P 43 21 2"
_symmetry_group_IT_number 96
_symmetry_cell_setting 'tetragonal'
loop_
_space_group_symop_operation_xyz
x,y,z
1/2-y,1/2+x,3/4+z
-x,-y,1/2+z
1/2+y,1/2-x,1/4+z
1/2+x,1/2-y,1/4-z
1/2-x,1/2+y,3/4-z
y,x,-z
-y,-x,1/2-z
loop_
_atom_site_type_symbol
_atom_site_label
_atom_site_fract_x
_atom_site_fract_y
_atom_site_fract_z
Si Si1 0.346894 0.916810 0.113157
Si Si2 0.650026 0.846910 0.143862
Si Si3 0.789856 0.594090 0.335613
Si Si4 0.885930 0.122512 0.980524
Si Si5 0.252643 0.844696 0.688596
O O1 0.520624 0.894600 0.102131
O O2 0.269197 0.765117 0.130944
O O3 0.249646 0.960249 0.058812
O O4 0.347645 0.043920 0.159127
O O5 0.728873 0.982724 0.173908
O O6 0.751205 0.071861 0.942101
O O7 0.702408 0.670441 0.285861
O O8 0.718210 0.636920 0.394110
O O9 0.786081 0.419227 0.323251
O O10 0.996942 0.996942 0.000000
O O11 0.198019 0.801982 0.750000
#
# Coordination Sequence:
#
# PCOD9550955 Si02
#       5
#     8   8   8   8   8
#     4   9  21  42  62  94 133 168 225 273 335 397
#     4   9  23  43  64  94 138 168 225 280 332 403
#     4  11  22  39  67  92 130 175 218 283 330 403
#     4  10  22  40  65  94 129 177 222 268 342 397
#     4  11  25  42  65 101 132 173 231 274 337 413
#
# _framework density 20.250116999999999
#
# number of rings (size 3 to 8) (size 9 to 14) (size 15 to 20)
#    1.200    0.800    0.000    3.000    5.600    0.000 
#    3.600    1.000    0.000    0.000    0.000    0.000 
#    0.000    0.000    0.000    0.000    0.000    0.000 
#
# Total GULP energy -222811.781344 kJ/mol
# GULP energy per Si atom -5570.294534 kJ/mol
# Density = 2.020403 g / cm^3
# Si number density = 20.250117 Si / 1000 Ang^3
#
#
#
# Elastic Constant Matrix: (Units=GPa)
#
#
# Indices 1 2 3 4 5 6 
#
# 1 80.3017 54.4536 19.0548 0.0000 0.0000 0.0000
# 2 54.4536 80.3009 19.0545 0.0000 0.0000 0.0000
# 3 19.0548 19.0545 51.7329 0.0000 0.0000 0.0000
# 4 0.0000 0.0000 0.0000 26.2449 0.0000 0.0000
# 5 0.0000 0.0000 0.0000 0.0000 26.2451 0.0000
# 6 0.0000 0.0000 0.0000 0.0000 0.0000 24.2818
#
#
#
# Elastic Compliance Matrix: (Units=1/GPa)
#
#
# Indices 1 2 3 4 5 6 
#
# 1 0.023486 -0.015202 -0.003051 0.000000 0.000000 0.000000
# 2 -0.015202 0.023486 -0.003051 0.000000 0.000000 0.000000
# 3 -0.003051 -0.003051 0.021578 0.000000 0.000000 0.000000
# 4 0.000000 0.000000 0.000000 0.038103 0.000000 0.000000
# 5 0.000000 0.000000 0.000000 0.000000 0.038102 0.000000
# 6 0.000000 0.000000 0.000000 0.000000 0.000000 0.041183
#
#
# Mechanical properties :
#
#
# Convention : Reuss Voigt Hill
#
# Bulk Modulus (GPa) = 38.54952 44.16237 41.35595
# Shear Modulus (GPa) = 21.07983 23.33920 22.20951
#
# Velocity S-wave (km/s) = 3.22991 3.39860 3.31533
# Velocity P-wave (km/s) = 5.74350 6.10381 5.92639
#
# Compressibility (1/GPa) = 0.02594066
#
# Stress axis : x y z
#
# Youngs Moduli (GPa) = 42.57879 42.57846 46.34422
#
# Poissons Ratio (x) = 0.64729 0.14141
# Poissons Ratio (y) = 0.64729 0.14140
# Poissons Ratio (z) = 0.12992 0.12991
#
# Static dielectric constant tensor:
#      x y z
#    x 1.758960 0.000000 0.000000 
#    y 0.000000 1.758960 0.000000 
#    z 0.000000 0.000000 1.698680 
# 
# From -- ./inp_files/3815.got.cif
#   From: 2010.05.17/outbox.cif.g08.bks.cpg/sg96_2_cif.got.tgz:3815.got - 2010.06.03 19:52:08.
