data_PCOD9550157
_publ_section_title
;
Structure prediction by ZEFSAII (Michael W. Deem and Ramdas Pophale) SiO2 
 PCOD9550157
Probable space group: P 42 21 2
;
_chemical_formula_sum "Si O2"
_cell_formula_units_Z 34
_cell_length_a 13.119433
_cell_length_b 13.119433
_cell_length_c 10.186685
_cell_angle_alpha 90.000000
_cell_angle_beta 90.000000
_cell_angle_gamma 90.000000
_cell_volume 1753.327355
_symmetry_space_group_name_H-M "P 42 21 2"
_symmetry_group_IT_number 94
_symmetry_cell_setting 'tetragonal'
loop_
_space_group_symop_operation_xyz
x,y,z
1/2-y,1/2+x,1/2+z
-x,-y,z
1/2+y,1/2-x,1/2+z
1/2+x,1/2-y,1/2-z
1/2-x,1/2+y,1/2-z
y,x,-z
-y,-x,-z
loop_
_atom_site_type_symbol
_atom_site_label
_atom_site_fract_x
_atom_site_fract_y
_atom_site_fract_z
Si Si1 0.789113 0.638425 0.638557
Si Si2 0.473641 0.727888 0.897923
Si Si3 0.000375 0.622603 0.366996
Si Si4 0.227559 0.398404 0.346455
Si Si5 0.000000 0.000000 0.500000
O O1 0.856520 0.737127 0.601632
O O2 0.846240 0.574128 0.748764
O O3 0.773448 0.577886 0.502004
O O4 0.681770 0.683250 0.681837
O O5 0.511290 0.754871 0.753120
O O6 0.521992 0.805557 0.006632
O O7 0.496032 0.609596 0.926247
O O8 0.884994 0.645772 0.321577
O O9 0.000000 0.500000 0.395185
#
# Coordination Sequence:
#
# PCOD9550157 Si02
#       5
#     8   8   8   8   2
#     4  10  22  40  58  94 131 163 216 273 334 383
#     4  11  23  39  65  92 123 180 216 266 327 397
#     4  11  22  38  65  97 131 162 221 281 329 392
#     4  10  22  37  61  90 126 170 211 268 329 387
#     4  12  24  44  64  90 136 180 228 258 340 412
#
# _framework density 19.391701000000001
#
# number of rings (size 3 to 8) (size 9 to 14) (size 15 to 20)
#    0.000    1.412    2.353    4.235    6.588    0.000 
#    0.000    0.000    0.000   19.765    0.000    0.000 
#    0.000    0.000    0.000    0.000    0.000    0.000 
#
# Total GULP energy -189471.532079 kJ/mol
# GULP energy per Si atom -5572.692120 kJ/mol
# Density = 1.934756 g / cm^3
# Si number density = 19.391701 Si / 1000 Ang^3
#
#
#
# Elastic Constant Matrix: (Units=GPa)
#
#
# Indices 1 2 3 4 5 6 
#
# 1 77.9028 15.7058 49.7873 0.0000 0.0000 0.0000
# 2 15.7058 77.9028 49.7873 0.0000 0.0000 0.0000
# 3 49.7873 49.7873 74.8094 0.0000 0.0000 0.0000
# 4 0.0000 0.0000 0.0000 32.4841 0.0000 0.0000
# 5 0.0000 0.0000 0.0000 0.0000 32.4841 0.0000
# 6 0.0000 0.0000 0.0000 0.0000 0.0000 23.6587
#
#
#
# Elastic Compliance Matrix: (Units=1/GPa)
#
#
# Indices 1 2 3 4 5 6 
#
# 1 0.026328 0.010250 -0.024343 0.000000 0.000000 0.000000
# 2 0.010250 0.026328 -0.024343 0.000000 0.000000 0.000000
# 3 -0.024343 -0.024343 0.045769 0.000000 0.000000 0.000000
# 4 0.000000 0.000000 0.000000 0.030784 0.000000 0.000000
# 5 0.000000 0.000000 0.000000 0.000000 0.030784 0.000000
# 6 0.000000 0.000000 0.000000 0.000000 0.000000 0.042268
#
#
# Mechanical properties :
#
#
# Convention : Reuss Voigt Hill
#
# Bulk Modulus (GPa) = 46.40057 51.24175 48.82116
# Shear Modulus (GPa) = 17.46322 25.41436 21.43879
#
# Velocity S-wave (km/s) = 3.00417 3.62412 3.32861
# Velocity P-wave (km/s) = 6.00112 6.63282 6.32486
#
# Compressibility (1/GPa) = 0.02155146
#
# Stress axis : x y z
#
# Youngs Moduli (GPa) = 37.98309 37.98309 21.84899
#
# Poissons Ratio (x) = -0.38931 0.53187
# Poissons Ratio (y) = -0.38931 0.53187
# Poissons Ratio (z) = 0.92462 0.92462
#
# Static dielectric constant tensor:
#      x y z
#    x 1.698070 0.000000 0.000000 
#    y 0.000000 1.698070 0.000000 
#    z 0.000000 0.000000 1.680990 
# 
# From -- ./inp_files/1238.got.cif
#   From: 2010.05.17/outbox.cif.g08.bks.cpg/sg94_1_cif.got.tgz:1238.got - 2010.06.03 19:43:16.
