data_PCOD9550519
_publ_section_title
;
Structure prediction by ZEFSAII (Michael W. Deem and Ramdas Pophale) SiO2 
 PCOD9550519
Probable space group: P 43 2 2
;
_chemical_formula_sum "Si O2"
_cell_formula_units_Z 36
_cell_length_a 14.004504
_cell_length_b 14.004504
_cell_length_c 9.776745
_cell_angle_alpha 90.000000
_cell_angle_beta 90.000000
_cell_angle_gamma 90.000000
_cell_volume 1917.475183
_symmetry_space_group_name_H-M "P 43 2 2"
_symmetry_group_IT_number 95
_symmetry_cell_setting 'tetragonal'
loop_
_space_group_symop_operation_xyz
x,y,z
-y,x,3/4+z
-x,-y,1/2+z
y,-x,1/4+z
x,-y,1/2-z
-x,y,-z
y,x,1/4-z
-y,-x,3/4-z
loop_
_atom_site_type_symbol
_atom_site_label
_atom_site_fract_x
_atom_site_fract_y
_atom_site_fract_z
Si Si1 0.310757 0.899960 0.318492
Si Si2 0.900344 0.000000 0.250000
Si Si3 0.846779 0.778089 0.844744
Si Si4 0.684092 0.352925 0.533854
Si Si5 0.286971 0.574999 0.463456
O O1 0.271433 0.906818 0.472946
O O2 0.226032 0.851406 0.229435
O O3 0.394735 0.821532 0.317935
O O4 0.336432 0.000000 0.250000
O O5 0.834313 0.914282 0.302865
O O6 0.964873 0.035128 0.375000
O O7 0.780611 0.700729 0.919940
O O8 0.664134 0.335867 0.375000
O O9 0.692753 0.465169 0.563838
O O10 0.601363 0.309700 0.629611
O O11 0.355181 0.644820 0.375000
#
# Coordination Sequence:
#
# PCOD9550519 Si02
#       5
#     8   4   8   8   8
#     4  10  20  39  67  87 121 170 210 256 321 384
#     4  12  26  38  62  96 124 166 220 272 322 380
#     4  10  22  41  61  90 129 163 204 272 322 375
#     4  11  23  40  65  93 136 167 209 265 332 385
#     4  11  22  41  66  95 127 172 215 268 320 386
#
# _framework density 18.774688000000001
#
# number of rings (size 3 to 8) (size 9 to 14) (size 15 to 20)
#    0.000    1.333    4.444    3.333    4.667    4.444 
#    2.000    0.000    4.889    0.000    0.000    0.000 
#    0.000    0.000    0.000    0.000    0.000    0.000 
#
# Total GULP energy -201230.560217 kJ/mol
# GULP energy per Si atom -5589.737784 kJ/mol
# Density = 1.873196 g / cm^3
# Si number density = 18.774688 Si / 1000 Ang^3
#
#
#
# Elastic Constant Matrix: (Units=GPa)
#
#
# Indices 1 2 3 4 5 6 
#
# 1 89.5190 41.4862 24.9194 0.0000 0.0000 0.0000
# 2 41.4862 89.5222 24.9174 0.0000 0.0000 0.0000
# 3 24.9194 24.9174 102.4000 0.0000 0.0000 0.0000
# 4 0.0000 0.0000 0.0000 22.4209 0.0000 0.0000
# 5 0.0000 0.0000 0.0000 0.0000 22.4209 0.0000
# 6 0.0000 0.0000 0.0000 0.0000 0.0000 4.7196
#
#
#
# Elastic Compliance Matrix: (Units=1/GPa)
#
#
# Indices 1 2 3 4 5 6 
#
# 1 0.014616 -0.006203 -0.002047 0.000000 0.000000 0.000000
# 2 -0.006203 0.014615 -0.002047 0.000000 0.000000 0.000000
# 3 -0.002047 -0.002047 0.010762 0.000000 0.000000 0.000000
# 4 0.000000 0.000000 0.000000 0.044601 0.000000 0.000000
# 5 0.000000 0.000000 0.000000 0.000000 0.044601 0.000000
# 6 0.000000 0.000000 0.000000 0.000000 0.000000 0.211884
#
#
# Mechanical properties :
#
#
# Convention : Reuss Voigt Hill
#
# Bulk Modulus (GPa) = 51.55242 51.56522 51.55882
# Shear Modulus (GPa) = 13.58182 22.58681 18.08431
#
# Velocity S-wave (km/s) = 2.69255 3.47226 3.10696
# Velocity P-wave (km/s) = 6.09791 6.60306 6.35550
#
# Compressibility (1/GPa) = 0.01939773
#
# Stress axis : x y z
#
# Youngs Moduli (GPa) = 68.42042 68.42381 92.92065
#
# Poissons Ratio (x) = 0.42445 0.19023
# Poissons Ratio (y) = 0.42443 0.19018
# Poissons Ratio (z) = 0.14007 0.14004
#
# Static dielectric constant tensor:
#      x y z
#    x 1.628790 0.000000 0.000000 
#    y 0.000000 1.628780 0.000000 
#    z 0.000000 0.000000 1.662720 
# 
# From -- ./inp_files/2191.got.cif
#   From: 2010.05.17/outbox.cif.g08.bks.cpg/sg95_2_cif.got.tgz:2191.got - 2010.06.03 19:46:49.
