data_PCOD9550486
_publ_section_title
;
Structure prediction by ZEFSAII (Michael W. Deem and Ramdas Pophale) SiO2 
 PCOD9550486
Probable space group: P 43 2 2
;
_chemical_formula_sum "Si O2"
_cell_formula_units_Z 64
_cell_length_a 12.423311
_cell_length_b 12.423311
_cell_length_c 20.106763
_cell_angle_alpha 90.000000
_cell_angle_beta 90.000000
_cell_angle_gamma 90.000000
_cell_volume 3103.250782
_symmetry_space_group_name_H-M "P 43 2 2"
_symmetry_group_IT_number 95
_symmetry_cell_setting 'tetragonal'
loop_
_space_group_symop_operation_xyz
x,y,z
-y,x,3/4+z
-x,-y,1/2+z
y,-x,1/4+z
x,-y,1/2-z
-x,y,-z
y,x,1/4-z
-y,-x,3/4-z
loop_
_atom_site_type_symbol
_atom_site_label
_atom_site_fract_x
_atom_site_fract_y
_atom_site_fract_z
Si Si1 0.814353 0.356381 0.901984
Si Si2 0.231985 0.300460 0.526475
Si Si3 0.756147 0.177957 0.132494
Si Si4 0.880613 0.612913 0.218526
Si Si5 0.046546 0.307857 0.860195
Si Si6 0.472697 0.881305 0.218982
Si Si7 0.110222 0.440115 0.319642
Si Si8 0.964401 0.850830 0.067555
O O1 0.710922 0.289079 0.875000
O O2 0.836333 0.474440 0.869429
O O3 0.922490 0.293937 0.878532
O O4 0.825538 0.387049 0.979982
O O5 0.243554 0.289448 0.445943
O O6 0.330582 0.228958 0.555879
O O7 0.195300 0.423088 0.539607
O O8 0.134009 0.225202 0.548719
O O9 0.874981 0.215029 0.115404
O O10 0.669775 0.176016 0.074456
O O11 0.772609 0.058201 0.159011
O O12 0.848384 0.500000 0.250000
O O13 0.933097 0.678892 0.281139
O O14 0.983854 0.591471 0.171506
O O15 0.091669 0.410467 0.901010
O O16 0.502694 0.000000 0.250000
O O17 0.113290 0.500000 0.250000
O O18 0.930282 0.930282 0.125000
O O19 0.000000 0.908855 0.000000
#
# Coordination Sequence:
#
# PCOD9550486 Si02
#       8
#     8   8   8   8   8   8   8   8
#     4  11  23  40  62  93 123 170 219 256 315 403
#     4  10  20  35  62  90 119 154 205 269 323 386
#     4  10  21  37  59  88 123 161 205 265 326 378
#     4  10  20  37  61  87 118 154 208 256 314 379
#     4  10  22  38  58  88 121 164 207 260 317 383
#     4  10  21  38  62  85 126 165 210 262 322 380
#     4  11  21  37  64  87 117 164 214 259 314 389
#     4  10  21  36  58  93 127 165 213 271 338 409
#
# _framework density 20.623535
#
# number of rings (size 3 to 8) (size 9 to 14) (size 15 to 20)
#    0.000    1.750    3.750    1.875    3.500    1.500 
#    0.000    1.875    2.750    0.000    0.000    0.000 
#    0.000    0.000    0.000    0.000    0.000    0.000 
#
# Total GULP energy -356673.068633 kJ/mol
# GULP energy per Si atom -5573.016697 kJ/mol
# Density = 2.057660 g / cm^3
# Si number density = 20.623535 Si / 1000 Ang^3
#
#
#
# Elastic Constant Matrix: (Units=GPa)
#
#
# Indices 1 2 3 4 5 6 
#
# 1 75.0690 48.6305 13.8637 0.0000 0.0000 0.0000
# 2 48.6305 75.0672 13.8633 0.0000 0.0000 0.0000
# 3 13.8637 13.8633 66.4372 0.0000 0.0000 0.0000
# 4 0.0000 0.0000 0.0000 101.8595 0.0000 0.0000
# 5 0.0000 0.0000 0.0000 0.0000 101.8610 0.0000
# 6 0.0000 0.0000 0.0000 0.0000 0.0000 42.7100
#
#
#
# Elastic Compliance Matrix: (Units=1/GPa)
#
#
# Indices 1 2 3 4 5 6 
#
# 1 0.023153 -0.014672 -0.001770 0.000000 0.000000 0.000000
# 2 -0.014672 0.023153 -0.001770 0.000000 0.000000 0.000000
# 3 -0.001770 -0.001770 0.015790 0.000000 0.000000 0.000000
# 4 0.000000 0.000000 0.000000 0.009817 0.000000 0.000000
# 5 0.000000 0.000000 0.000000 0.000000 0.009817 0.000000
# 6 0.000000 0.000000 0.000000 0.000000 0.000000 0.023414
#
#
# Mechanical properties :
#
#
# Convention : Reuss Voigt Hill
#
# Bulk Modulus (GPa) = 38.95107 41.03206 39.99157
# Shear Modulus (GPa) = 33.30555 58.63383 45.96969
#
# Velocity S-wave (km/s) = 4.02298 5.33781 4.72634
# Velocity P-wave (km/s) = 6.36450 7.61109 7.01553
#
# Compressibility (1/GPa) = 0.02567324
#
# Stress axis : x y z
#
# Youngs Moduli (GPa) = 43.19171 43.19072 63.32970
#
# Poissons Ratio (x) = 0.63369 0.11208
# Poissons Ratio (y) = 0.63371 0.11207
# Poissons Ratio (z) = 0.07644 0.07643
#
# Static dielectric constant tensor:
#      x y z
#    x 1.748320 0.000000 0.000000 
#    y 0.000000 1.748320 0.000000 
#    z 0.000000 0.000000 1.994310 
# 
# From -- ./inp_files/7086.got.cif
#   From: 2010.05.17/outbox.cif.g08.bks.cpg/sg95_4_cif.got.tgz:7086.got - 2010.06.03 19:46:49.
