data_PCOD9550781
_publ_section_title
;
Structure prediction by ZEFSAII (Michael W. Deem and Ramdas Pophale) SiO2 
 PCOD9550781
Probable space group: P 43 21 2
;
_chemical_formula_sum "Si O2"
_cell_formula_units_Z 40
_cell_length_a 12.918094
_cell_length_b 12.918094
_cell_length_c 9.918836
_cell_angle_alpha 90.000000
_cell_angle_beta 90.000000
_cell_angle_gamma 90.000000
_cell_volume 1655.227109
_symmetry_space_group_name_H-M "P 43 21 2"
_symmetry_group_IT_number 96
_symmetry_cell_setting 'tetragonal'
loop_
_space_group_symop_operation_xyz
x,y,z
1/2-y,1/2+x,3/4+z
-x,-y,1/2+z
1/2+y,1/2-x,1/4+z
1/2+x,1/2-y,1/4-z
1/2-x,1/2+y,3/4-z
y,x,-z
-y,-x,1/2-z
loop_
_atom_site_type_symbol
_atom_site_label
_atom_site_fract_x
_atom_site_fract_y
_atom_site_fract_z
Si Si1 0.765206 0.636222 0.277397
Si Si2 0.033064 0.907640 0.899916
Si Si3 0.900964 0.674241 0.541936
Si Si4 0.430374 0.049553 0.572421
Si Si5 0.845944 0.761171 0.822992
O O1 0.826028 0.663443 0.415301
O O2 0.791826 0.516505 0.249892
O O3 0.794239 0.726763 0.172525
O O4 0.749320 0.370281 0.413037
O O5 0.935954 0.830015 0.887773
O O6 0.998486 0.998486 0.000000
O O7 0.051486 0.948515 0.750000
O O8 0.141120 0.857740 0.947940
O O9 0.862377 0.648837 0.887080
O O10 0.897411 0.560653 0.611348
O O11 0.434506 0.032677 0.413031
#
# Coordination Sequence:
#
# PCOD9550781 Si02
#       5
#     8   8   8   8   8
#     4  12  25  45  79 114 149 213 275 321 406 489
#     4  12  26  49  75 116 158 208 268 329 407 490
#     4  11  21  40  73 107 141 196 273 319 366 482
#     4  10  19  39  68 103 137 192 251 311 377 448
#     4  11  23  42  71 103 153 201 247 327 394 468
#
# _framework density 24.165869000000001
#
# number of rings (size 3 to 8) (size 9 to 14) (size 15 to 20)
#    0.000    0.800    6.000    4.200    2.800    0.000 
#    7.200    1.000    0.000    0.000    0.000    0.000 
#    0.000    0.000    0.000    0.000    0.000    0.000 
#
# Total GULP energy -223776.917509 kJ/mol
# GULP energy per Si atom -5594.422938 kJ/mol
# Density = 2.411087 g / cm^3
# Si number density = 24.165869 Si / 1000 Ang^3
#
#
#
# Elastic Constant Matrix: (Units=GPa)
#
#
# Indices 1 2 3 4 5 6 
#
# 1 107.2717 73.0925 43.0405 0.0000 0.0000 0.0000
# 2 73.0925 107.2706 43.0403 0.0000 0.0000 0.0000
# 3 43.0405 43.0403 52.6344 0.0000 0.0000 0.0000
# 4 0.0000 0.0000 0.0000 41.1081 0.0000 0.0000
# 5 0.0000 0.0000 0.0000 0.0000 41.1080 0.0000
# 6 0.0000 0.0000 0.0000 0.0000 0.0000 47.2712
#
#
#
# Elastic Compliance Matrix: (Units=1/GPa)
#
#
# Indices 1 2 3 4 5 6 
#
# 1 0.019175 -0.010082 -0.007436 0.000000 0.000000 0.000000
# 2 -0.010082 0.019176 -0.007436 0.000000 0.000000 0.000000
# 3 -0.007436 -0.007436 0.031160 0.000000 0.000000 0.000000
# 4 0.000000 0.000000 0.000000 0.024326 0.000000 0.000000
# 5 0.000000 0.000000 0.000000 0.000000 0.024326 0.000000
# 6 0.000000 0.000000 0.000000 0.000000 0.000000 0.021155
#
#
# Mechanical properties :
#
#
# Convention : Reuss Voigt Hill
#
# Bulk Modulus (GPa) = 51.01207 65.05815 58.03511
# Shear Modulus (GPa) = 25.54156 33.09768 29.31962
#
# Velocity S-wave (km/s) = 3.25457 3.70483 3.48698
# Velocity P-wave (km/s) = 5.93952 6.72911 6.34661
#
# Compressibility (1/GPa) = 0.01960321
#
# Stress axis : x y z
#
# Youngs Moduli (GPa) = 52.15000 52.14939 32.09288
#
# Poissons Ratio (x) = 0.52579 0.23863
# Poissons Ratio (y) = 0.52580 0.23863
# Poissons Ratio (z) = 0.38777 0.38777
#
# Static dielectric constant tensor:
#      x y z
#    x 1.962730 0.000000 0.000000 
#    y 0.000000 1.962730 0.000000 
#    z 0.000000 0.000000 1.938710 
# 
# From -- ./inp_files/1344.got.cif
#   From: 2010.05.17/outbox.cif.g08.bks.cpg/sg96_1_cif.got.tgz:1344.got - 2010.06.03 19:52:08.
