data_PCOD9550629
_publ_section_title
;
Structure prediction by ZEFSAII (Michael W. Deem and Ramdas Pophale) SiO2 
 PCOD9550629
Probable space group: P 43 2 2
;
_chemical_formula_sum "Si O2"
_cell_formula_units_Z 48
_cell_length_a 8.777913
_cell_length_b 8.777913
_cell_length_c 26.358188
_cell_angle_alpha 90.000000
_cell_angle_beta 90.000000
_cell_angle_gamma 90.000000
_cell_volume 2030.944687
_symmetry_space_group_name_H-M "P 43 2 2"
_symmetry_group_IT_number 95
_symmetry_cell_setting 'tetragonal'
loop_
_space_group_symop_operation_xyz
x,y,z
-y,x,3/4+z
-x,-y,1/2+z
y,-x,1/4+z
x,-y,1/2-z
-x,y,-z
y,x,1/4-z
-y,-x,3/4-z
loop_
_atom_site_type_symbol
_atom_site_label
_atom_site_fract_x
_atom_site_fract_y
_atom_site_fract_z
Si Si1 0.240470 0.500000 0.250000
Si Si2 0.016490 0.490542 0.342248
Si Si3 0.150559 0.006587 0.077533
Si Si4 0.759514 0.546059 0.473285
Si Si5 0.525555 0.323013 0.438785
Si Si6 0.821526 0.341413 0.564295
Si Si7 0.230886 0.000000 0.250000
O O1 0.133466 0.454257 0.296725
O O2 0.354589 0.640959 0.256861
O O3 0.074486 0.419694 0.394017
O O4 0.021681 0.673694 0.343745
O O5 0.846723 0.433812 0.329126
O O6 0.135470 0.834096 0.059732
O O7 0.043986 0.043986 0.125000
O O8 0.107387 0.123958 0.033523
O O9 0.654963 0.453704 0.432885
O O10 0.828928 0.420245 0.510092
O O11 0.895535 0.664137 0.462973
O O12 0.500000 0.312071 0.500000
O O13 0.356038 0.357001 0.418334
#
# Coordination Sequence:
#
# PCOD9550629 Si02
#       7
#     4   8   8   8   8   8   4
#     4  12  22  38  72 108 130 192 248 296 360 432
#     4  11  23  41  75 101 141 190 240 298 372 429
#     4  11  26  46  69 103 148 186 241 300 365 448
#     4  11  23  44  71 106 140 186 245 297 360 442
#     4   9  19  44  71 102 139 182 243 304 357 431
#     4  10  23  44  71 103 139 184 242 305 361 429
#     4  12  26  46  74 106 146 200 240 298 378 448
#
# _framework density 23.634322000000001
#
# number of rings (size 3 to 8) (size 9 to 14) (size 15 to 20)
#    0.000    1.333    5.000    1.000    2.333    0.667 
#    3.000    0.000    0.000    0.000    0.000    0.000 
#    0.000    0.000    0.000    0.000    0.000    0.000 
#
# Total GULP energy -268646.761853 kJ/mol
# GULP energy per Si atom -5596.807539 kJ/mol
# Density = 2.358053 g / cm^3
# Si number density = 23.634322 Si / 1000 Ang^3
#
#
#
# Elastic Constant Matrix: (Units=GPa)
#
#
# Indices 1 2 3 4 5 6 
#
# 1 142.4892 78.0768 33.3708 0.0000 0.0000 0.0000
# 2 78.0768 142.4892 33.3708 0.0000 0.0000 0.0000
# 3 33.3708 33.3708 47.2166 0.0000 0.0000 0.0000
# 4 0.0000 0.0000 0.0000 42.1543 0.0000 0.0000
# 5 0.0000 0.0000 0.0000 0.0000 42.1543 0.0000
# 6 0.0000 0.0000 0.0000 0.0000 0.0000 37.4188
#
#
#
# Elastic Compliance Matrix: (Units=1/GPa)
#
#
# Indices 1 2 3 4 5 6 
#
# 1 0.010646 -0.004879 -0.004076 0.000000 0.000000 0.000000
# 2 -0.004879 0.010646 -0.004076 0.000000 0.000000 0.000000
# 3 -0.004076 -0.004076 0.026940 0.000000 0.000000 0.000000
# 4 0.000000 0.000000 0.000000 0.023722 0.000000 0.000000
# 5 0.000000 0.000000 0.000000 0.000000 0.023722 0.000000
# 6 0.000000 0.000000 0.000000 0.000000 0.000000 0.026725
#
#
# Mechanical properties :
#
#
# Convention : Reuss Voigt Hill
#
# Bulk Modulus (GPa) = 45.10436 69.09244 57.09840
# Shear Modulus (GPa) = 32.08132 36.83725 34.45928
#
# Velocity S-wave (km/s) = 3.68829 3.95224 3.82254
# Velocity P-wave (km/s) = 6.10440 7.07985 6.61014
#
# Compressibility (1/GPa) = 0.02217081
#
# Stress axis : x y z
#
# Youngs Moduli (GPa) = 93.93147 93.93147 37.11888
#
# Poissons Ratio (x) = 0.45828 0.15130
# Poissons Ratio (y) = 0.45828 0.15130
# Poissons Ratio (z) = 0.38286 0.38286
#
# Static dielectric constant tensor:
#      x y z
#    x 1.899680 0.000000 0.000000 
#    y 0.000000 1.899680 0.000000 
#    z 0.000000 0.000000 1.920650 
# 
# From -- ./inp_files/8020.got.cif
#   From: 2010.05.17/outbox.cif.g08.bks.cpg/sg95_5_cif.got.tgz:8020.got - 2010.06.03 19:46:49.
