data_PCOD9550030
_publ_section_title
;
Structure prediction by ZEFSAII (Michael W. Deem and Ramdas Pophale) SiO2 
 PCOD9550030
Probable space group: P 42 21 2
;
_chemical_formula_sum "Si O2"
_cell_formula_units_Z 48
_cell_length_a 8.925854
_cell_length_b 8.925854
_cell_length_c 29.047340
_cell_angle_alpha 90.000000
_cell_angle_beta 90.000000
_cell_angle_gamma 90.000000
_cell_volume 2314.226838
_symmetry_space_group_name_H-M "P 42 21 2"
_symmetry_group_IT_number 94
_symmetry_cell_setting 'tetragonal'
loop_
_space_group_symop_operation_xyz
x,y,z
1/2-y,1/2+x,1/2+z
-x,-y,z
1/2+y,1/2-x,1/2+z
1/2+x,1/2-y,1/2-z
1/2-x,1/2+y,1/2-z
y,x,-z
-y,-x,-z
loop_
_atom_site_type_symbol
_atom_site_label
_atom_site_fract_x
_atom_site_fract_y
_atom_site_fract_z
Si Si1 0.325311 0.047996 0.141293
Si Si2 0.665218 0.242583 0.286561
Si Si3 0.674605 0.549554 0.554868
Si Si4 0.379115 0.254427 0.348810
Si Si5 0.501241 0.822759 0.538426
Si Si6 0.166014 0.053541 0.302048
O O1 0.212656 0.909872 0.151524
O O2 0.300987 0.087910 0.086922
O O3 0.500000 0.000000 0.146423
O O4 0.274846 0.172909 0.177364
O O5 0.499492 0.243919 0.308231
O O6 0.656625 0.322846 0.237773
O O7 0.734015 0.079356 0.281681
O O8 0.500000 0.500000 0.555421
O O9 0.749668 0.528927 0.603795
O O10 0.655774 0.730703 0.548851
O O11 0.755726 0.470550 0.512354
O O12 0.257956 0.124181 0.343956
O O13 0.500000 0.000000 0.532876
O O14 0.000000 0.000000 0.314023
#
# Coordination Sequence:
#
# PCOD9550030 Si02
#       6
#     8   8   8   8   8   8
#     4  10  20  37  61  89 123 160 198 245 307 368
#     4  12  24  40  62  88 118 158 206 253 299 362
#     4  10  20  37  61  89 119 157 204 252 301 358
#     4  11  23  41  62  88 120 156 206 259 302 361
#     4   9  18  32  56  88 120 153 190 238 296 356
#     4  12  26  42  61  87 122 161 201 250 312 371
#
# _framework density 20.741267000000001
#
# number of rings (size 3 to 8) (size 9 to 14) (size 15 to 20)
#    0.000    1.333    0.000    8.000    0.000    4.000 
#    0.000    0.000    0.000    0.000    0.000   14.000 
#    0.000    0.000    0.000    0.000    0.000    0.000 
#
# Total GULP energy -267871.938620 kJ/mol
# GULP energy per Si atom -5580.665388 kJ/mol
# Density = 2.069406 g / cm^3
# Si number density = 20.741267 Si / 1000 Ang^3
#
#
#
# Elastic Constant Matrix: (Units=GPa)
#
#
# Indices 1 2 3 4 5 6 
#
# 1 89.4730 19.5006 12.0592 0.0000 0.0000 0.0000
# 2 19.5006 89.4730 12.0592 0.0000 0.0000 0.0000
# 3 12.0592 12.0592 48.9664 0.0000 0.0000 0.0000
# 4 0.0000 0.0000 0.0000 24.2243 0.0000 0.0000
# 5 0.0000 0.0000 0.0000 0.0000 24.2243 0.0000
# 6 0.0000 0.0000 0.0000 0.0000 0.0000 24.5136
#
#
#
# Elastic Compliance Matrix: (Units=1/GPa)
#
#
# Indices 1 2 3 4 5 6 
#
# 1 0.011998 -0.002293 -0.002390 0.000000 0.000000 0.000000
# 2 -0.002293 0.011998 -0.002390 0.000000 0.000000 0.000000
# 3 -0.002390 -0.002390 0.021599 0.000000 0.000000 0.000000
# 4 0.000000 0.000000 0.000000 0.041281 0.000000 0.000000
# 5 0.000000 0.000000 0.000000 0.000000 0.041281 0.000000
# 6 0.000000 0.000000 0.000000 0.000000 0.000000 0.040794
#
#
# Mechanical properties :
#
#
# Convention : Reuss Voigt Hill
#
# Bulk Modulus (GPa) = 31.79684 35.01668 33.40676
# Shear Modulus (GPa) = 25.82888 26.87866 26.35377
#
# Velocity S-wave (km/s) = 3.53269 3.60377 3.56841
# Velocity P-wave (km/s) = 5.65716 5.85111 5.75495
#
# Compressibility (1/GPa) = 0.03144966
#
# Stress axis : x y z
#
# Youngs Moduli (GPa) = 83.34408 83.34408 46.29740
#
# Poissons Ratio (x) = 0.19110 0.11066
# Poissons Ratio (y) = 0.19110 0.11066
# Poissons Ratio (z) = 0.19921 0.19921
#
# Static dielectric constant tensor:
#      x y z
#    x 1.771360 0.000000 0.000000 
#    y 0.000000 1.771360 0.000000 
#    z 0.000000 0.000000 1.798390 
# 
# From -- ./inp_files/5613.got.cif
#   From: 2010.05.17/outbox.cif.g08.bks.cpg/sg94_3_cif.got.tgz:5613.got - 2010.06.03 19:43:16.
