data_PCOD9550918
_publ_section_title
;
Structure prediction by ZEFSAII (Michael W. Deem and Ramdas Pophale) SiO2 
 PCOD9550918
Probable space group: P 43 21 2
;
_chemical_formula_sum "Si O2"
_cell_formula_units_Z 44
_cell_length_a 8.317859
_cell_length_b 8.317859
_cell_length_c 29.910117
_cell_angle_alpha 90.000000
_cell_angle_beta 90.000000
_cell_angle_gamma 90.000000
_cell_volume 2069.384635
_symmetry_space_group_name_H-M "P 43 21 2"
_symmetry_group_IT_number 96
_symmetry_cell_setting 'tetragonal'
loop_
_space_group_symop_operation_xyz
x,y,z
1/2-y,1/2+x,3/4+z
-x,-y,1/2+z
1/2+y,1/2-x,1/4+z
1/2+x,1/2-y,1/4-z
1/2-x,1/2+y,3/4-z
y,x,-z
-y,-x,1/2-z
loop_
_atom_site_type_symbol
_atom_site_label
_atom_site_fract_x
_atom_site_fract_y
_atom_site_fract_z
Si Si1 0.043762 0.679881 0.013308
Si Si2 0.785545 0.693028 0.401087
Si Si3 0.681955 0.681955 0.000000
Si Si4 0.007066 0.772504 0.477424
Si Si5 0.605336 0.016102 0.431645
Si Si6 0.546388 0.363193 0.035859
O O1 0.197085 0.620161 0.983977
O O2 0.871743 0.670922 0.987870
O O3 0.093601 0.858147 0.027976
O O4 0.024737 0.579386 0.059245
O O5 0.691597 0.857596 0.411479
O O6 0.838853 0.658778 0.350697
O O7 0.676065 0.545741 0.418610
O O8 0.945587 0.694691 0.432023
O O9 0.532948 0.645357 0.965715
O O10 0.056275 0.656304 0.517489
O O11 0.855452 0.855452 0.500000
O O12 0.406509 0.406509 0.000000
#
# Coordination Sequence:
#
# PCOD9550918 Si02
#       6
#     8   8   4   8   8   8
#     4  12  21  43  70 101 135 183 231 295 355 416
#     4  11  23  42  64 101 135 184 237 284 356 433
#     4  10  24  38  70 108 126 186 246 276 356 424
#     4  10  22  44  65  95 137 178 225 289 357 413
#     4  11  24  39  70  99 133 185 238 287 352 430
#     4  10  21  41  65  98 140 181 229 286 344 414
#
# _framework density 21.262359
#
# number of rings (size 3 to 8) (size 9 to 14) (size 15 to 20)
#    0.545    0.727    4.545    1.636    5.091    0.000 
#    0.000    5.455    0.000    0.000    0.000    0.000 
#    0.000    0.000    0.000    0.000    0.000    0.000 
#
# Total GULP energy -244951.017179 kJ/mol
# GULP energy per Si atom -5567.068572 kJ/mol
# Density = 2.121396 g / cm^3
# Si number density = 21.262359 Si / 1000 Ang^3
#
#
#
# Elastic Constant Matrix: (Units=GPa)
#
#
# Indices 1 2 3 4 5 6 
#
# 1 166.2799 -14.1148 11.0654 0.0000 0.0000 0.0000
# 2 -14.1148 166.2799 11.0654 0.0000 0.0000 0.0000
# 3 11.0654 11.0654 39.8780 0.0000 0.0000 0.0000
# 4 0.0000 0.0000 0.0000 10.9650 0.0000 0.0000
# 5 0.0000 0.0000 0.0000 0.0000 10.9650 0.0000
# 6 0.0000 0.0000 0.0000 0.0000 0.0000 44.2045
#
#
#
# Elastic Compliance Matrix: (Units=1/GPa)
#
#
# Indices 1 2 3 4 5 6 
#
# 1 0.006196 0.000652 -0.001900 0.000000 0.000000 0.000000
# 2 0.000652 0.006196 -0.001900 0.000000 0.000000 0.000000
# 3 -0.001900 -0.001900 0.026131 0.000000 0.000000 0.000000
# 4 0.000000 0.000000 0.000000 0.091199 0.000000 0.000000
# 5 0.000000 0.000000 0.000000 0.000000 0.091199 0.000000
# 6 0.000000 0.000000 0.000000 0.000000 0.000000 0.022622
#
#
# Mechanical properties :
#
#
# Convention : Reuss Voigt Hill
#
# Bulk Modulus (GPa) = 31.03040 43.16330 37.09685
# Shear Modulus (GPa) = 19.18787 37.52170 28.35478
#
# Velocity S-wave (km/s) = 3.00731 4.20539 3.65577
# Velocity P-wave (km/s) = 5.16569 6.62758 5.94176
#
# Compressibility (1/GPa) = 0.03222647
#
# Stress axis : x y z
#
# Youngs Moduli (GPa) = 161.39996 161.39996 38.26862
#
# Poissons Ratio (x) = -0.10530 0.07272
# Poissons Ratio (y) = -0.10530 0.07272
# Poissons Ratio (z) = 0.30670 0.30670
#
# Static dielectric constant tensor:
#      x y z
#    x 1.877810 0.000000 0.000000 
#    y 0.000000 1.877810 0.000000 
#    z 0.000000 0.000000 1.783550 
# 
# From -- ./inp_files/4402.got.cif
#   From: 2010.05.17/outbox.cif.g08.bks.cpg/sg96_3_cif.got.tgz:4402.got - 2010.06.03 19:52:08.
