data_PCOD9550153
_publ_section_title
;
Structure prediction by ZEFSAII (Michael W. Deem and Ramdas Pophale) SiO2 
 PCOD9550153
Probable space group: P 42 21 2
;
_chemical_formula_sum "Si O2"
_cell_formula_units_Z 34
_cell_length_a 9.344846
_cell_length_b 9.344846
_cell_length_c 14.917227
_cell_angle_alpha 90.000000
_cell_angle_beta 90.000000
_cell_angle_gamma 90.000000
_cell_volume 1302.663954
_symmetry_space_group_name_H-M "P 42 21 2"
_symmetry_group_IT_number 94
_symmetry_cell_setting 'tetragonal'
loop_
_space_group_symop_operation_xyz
x,y,z
1/2-y,1/2+x,1/2+z
-x,-y,z
1/2+y,1/2-x,1/2+z
1/2+x,1/2-y,1/2-z
1/2-x,1/2+y,1/2-z
y,x,-z
-y,-x,-z
loop_
_atom_site_type_symbol
_atom_site_label
_atom_site_fract_x
_atom_site_fract_y
_atom_site_fract_z
Si Si1 0.853303 0.560835 0.278074
Si Si2 0.400883 0.625656 0.274939
Si Si3 0.692827 0.978211 0.430804
Si Si4 0.246062 0.026492 0.959948
Si Si5 0.500000 0.500000 0.000000
O O1 0.726863 0.466771 0.319180
O O2 0.848517 0.734186 0.280951
O O3 0.843484 0.506745 0.174001
O O4 0.000000 0.500000 0.315853
O O5 0.500000 0.500000 0.235173
O O6 0.484505 0.702187 0.355390
O O7 0.621843 0.835192 0.472070
O O8 0.859788 0.987802 0.440966
O O9 0.632689 0.121329 0.476941
O O10 0.105820 0.105820 0.000000
#
# Coordination Sequence:
#
# PCOD9550153 Si02
#       5
#     8   8   8   8   2
#     4  11  22  45  64  94 138 173 221 288 342 407
#     4  11  24  41  68  97 128 178 227 277 350 409
#     4  10  22  42  67  98 141 173 221 299 336 412
#     4  10  21  46  67  95 141 178 220 281 352 413
#     4  12  24  40  70 104 122 184 242 262 376 420
#
# _framework density 26.100359000000001
#
# number of rings (size 3 to 8) (size 9 to 14) (size 15 to 20)
#    0.000    1.412    5.882    1.412    1.647    2.353 
#    4.235    0.000    0.000    0.000    0.000    0.000 
#    0.000    0.000    0.000    0.000    0.000    0.000 
#
# Total GULP energy -189660.659763 kJ/mol
# GULP energy per Si atom -5578.254699 kJ/mol
# Density = 2.604095 g / cm^3
# Si number density = 26.100359 Si / 1000 Ang^3
#
#
#
# Elastic Constant Matrix: (Units=GPa)
#
#
# Indices 1 2 3 4 5 6 
#
# 1 327.2275 8.3396 20.1491 0.0000 0.0000 0.0000
# 2 8.3396 327.2275 20.1491 0.0000 0.0000 0.0000
# 3 20.1491 20.1491 42.8509 0.0000 0.0000 0.0000
# 4 0.0000 0.0000 0.0000 17.3825 0.0000 0.0000
# 5 0.0000 0.0000 0.0000 0.0000 17.3825 0.0000
# 6 0.0000 0.0000 0.0000 0.0000 0.0000 63.4401
#
#
#
# Elastic Compliance Matrix: (Units=1/GPa)
#
#
# Indices 1 2 3 4 5 6 
#
# 1 0.003147 0.000011 -0.001485 0.000000 0.000000 0.000000
# 2 0.000011 0.003147 -0.001485 0.000000 0.000000 0.000000
# 3 -0.001485 -0.001485 0.024733 0.000000 0.000000 0.000000
# 4 0.000000 0.000000 0.000000 0.057529 0.000000 0.000000
# 5 0.000000 0.000000 0.000000 0.000000 0.057529 0.000000
# 6 0.000000 0.000000 0.000000 0.000000 0.000000 0.015763
#
#
# Mechanical properties :
#
#
# Convention : Reuss Voigt Hill
#
# Bulk Modulus (GPa) = 39.82529 88.28683 64.05606
# Shear Modulus (GPa) = 28.38703 62.88556 45.63630
#
# Velocity S-wave (km/s) = 3.30147 4.91386 4.18603
# Velocity P-wave (km/s) = 5.46119 8.12983 6.92527
#
# Compressibility (1/GPa) = 0.02510967
#
# Stress axis : x y z
#
# Youngs Moduli (GPa) = 317.74913 317.74913 40.43122
#
# Poissons Ratio (x) = -0.00357 0.06004
# Poissons Ratio (y) = -0.00357 0.06004
# Poissons Ratio (z) = 0.47189 0.47189
#
# Static dielectric constant tensor:
#      x y z
#    x 2.262840 0.000000 0.000000 
#    y 0.000000 2.262840 0.000000 
#    z 0.000000 0.000000 2.220070 
# 
# From -- ./inp_files/4510.got.cif
#   From: 2010.05.17/outbox.cif.g08.bks.cpg/sg94_3_cif.got.tgz:4510.got - 2010.06.03 19:43:16.
