data_PCOD9550889
_publ_section_title
;
Structure prediction by ZEFSAII (Michael W. Deem and Ramdas Pophale) SiO2 
 PCOD9550889
Probable space group: P 43 21 2
;
_chemical_formula_sum "Si O2"
_cell_formula_units_Z 52
_cell_length_a 19.772803
_cell_length_b 19.772803
_cell_length_c 6.506864
_cell_angle_alpha 90.000000
_cell_angle_beta 90.000000
_cell_angle_gamma 90.000000
_cell_volume 2543.947875
_symmetry_space_group_name_H-M "P 43 21 2"
_symmetry_group_IT_number 96
_symmetry_cell_setting 'tetragonal'
loop_
_space_group_symop_operation_xyz
x,y,z
1/2-y,1/2+x,3/4+z
-x,-y,1/2+z
1/2+y,1/2-x,1/4+z
1/2+x,1/2-y,1/4-z
1/2-x,1/2+y,3/4-z
y,x,-z
-y,-x,1/2-z
loop_
_atom_site_type_symbol
_atom_site_label
_atom_site_fract_x
_atom_site_fract_y
_atom_site_fract_z
Si Si1 0.726771 0.540077 0.954511
Si Si2 0.782221 0.457705 0.577452
Si Si3 0.688446 0.688446 0.000000
Si Si4 0.657097 0.068592 0.470552
Si Si5 0.915312 0.808641 0.458463
Si Si6 0.715852 0.801877 0.663319
Si Si7 0.423047 0.049536 0.528838
O O1 0.694207 0.612759 0.910043
O O2 0.795274 0.557453 0.079013
O O3 0.687559 0.489498 0.109706
O O4 0.741143 0.497941 0.750014
O O5 0.820004 0.512383 0.436661
O O6 0.734131 0.417226 0.421915
O O7 0.846699 0.422804 0.683548
O O8 0.749239 0.699967 0.157533
O O9 0.667787 0.141748 0.366810
O O10 0.583658 0.057198 0.562006
O O11 0.879652 0.879652 0.500000
O O12 0.865974 0.765390 0.307845
O O13 0.755610 0.755610 0.500000
O O14 0.470608 0.071011 0.718066
#
# Coordination Sequence:
#
# PCOD9550889 Si02
#       7
#     8   8   4   8   8   8   8
#     4  10  21  43  64  92 126 165 209 270 335 385
#     4  11  23  39  61  84 124 171 206 262 325 371
#     4  10  22  40  70 100 128 166 222 274 326 396
#     4  10  22  37  55  84 124 158 212 265 305 372
#     4  10  24  40  63  94 128 167 216 272 323 394
#     4  10  21  36  61  92 123 163 215 266 318 377
#     4  12  24  37  56  89 126 177 221 256 309 387
#
# _framework density 20.440671999999999
#
# number of rings (size 3 to 8) (size 9 to 14) (size 15 to 20)
#    0.000    1.538    1.538    2.769    4.308    8.000 
#    0.000    0.000    3.385    0.000    0.000    0.000 
#    0.000    0.000    0.000    0.000    0.000    0.000 
#
# Total GULP energy -290189.998712 kJ/mol
# GULP energy per Si atom -5580.576898 kJ/mol
# Density = 2.039415 g / cm^3
# Si number density = 20.440672 Si / 1000 Ang^3
#
#
#
# Elastic Constant Matrix: (Units=GPa)
#
#
# Indices 1 2 3 4 5 6 
#
# 1 73.0680 -6.9182 15.1146 0.0000 0.0000 0.0000
# 2 -6.9182 73.0680 15.1146 0.0000 0.0000 0.0000
# 3 15.1146 15.1146 58.0917 0.0000 0.0000 0.0000
# 4 0.0000 0.0000 0.0000 94.3924 0.0000 0.0000
# 5 0.0000 0.0000 0.0000 0.0000 94.3924 0.0000
# 6 0.0000 0.0000 0.0000 0.0000 0.0000 29.0427
#
#
#
# Elastic Compliance Matrix: (Units=1/GPa)
#
#
# Indices 1 2 3 4 5 6 
#
# 1 0.014830 0.002328 -0.004464 0.000000 0.000000 0.000000
# 2 0.002328 0.014830 -0.004464 0.000000 0.000000 0.000000
# 3 -0.004464 -0.004464 0.019537 0.000000 0.000000 0.000000
# 4 0.000000 0.000000 0.000000 0.010594 0.000000 0.000000
# 5 0.000000 0.000000 0.000000 0.000000 0.010594 0.000000
# 6 0.000000 0.000000 0.000000 0.000000 0.000000 0.034432
#
#
# Mechanical properties :
#
#
# Convention : Reuss Voigt Hill
#
# Bulk Modulus (GPa) = 27.78137 27.87216 27.82677
# Shear Modulus (GPa) = 38.45675 55.62663 47.04169
#
# Velocity S-wave (km/s) = 4.34220 5.22233 4.80247
# Velocity P-wave (km/s) = 6.22578 7.07311 6.66293
#
# Compressibility (1/GPa) = 0.03599535
#
# Stress axis : x y z
#
# Youngs Moduli (GPa) = 67.43238 67.43238 51.18465
#
# Poissons Ratio (x) = -0.15695 0.22849
# Poissons Ratio (y) = -0.15695 0.22849
# Poissons Ratio (z) = 0.30102 0.30102
#
# Static dielectric constant tensor:
#      x y z
#    x 0.675730 0.000000 0.000000 
#    y 0.000000 0.675730 0.000000 
#    z 0.000000 0.000000 1.758310 
# 
# From -- ./inp_files/714.got.cif
#   From: 2010.05.17/outbox.cif.g08.bks.cpg/sg96_1_cif.got.tgz:714.got - 2010.06.03 19:52:08.
