data_PCOD9550860
_publ_section_title
;
Structure prediction by ZEFSAII (Michael W. Deem and Ramdas Pophale) SiO2 
 PCOD9550860
Probable space group: P 43 21 2
;
_chemical_formula_sum "Si O2"
_cell_formula_units_Z 36
_cell_length_a 7.631082
_cell_length_b 7.631082
_cell_length_c 27.643293
_cell_angle_alpha 90.000000
_cell_angle_beta 90.000000
_cell_angle_gamma 90.000000
_cell_volume 1609.763284
_symmetry_space_group_name_H-M "P 43 21 2"
_symmetry_group_IT_number 96
_symmetry_cell_setting 'tetragonal'
loop_
_space_group_symop_operation_xyz
x,y,z
1/2-y,1/2+x,3/4+z
-x,-y,1/2+z
1/2+y,1/2-x,1/4+z
1/2+x,1/2-y,1/4-z
1/2-x,1/2+y,3/4-z
y,x,-z
-y,-x,1/2-z
loop_
_atom_site_type_symbol
_atom_site_label
_atom_site_fract_x
_atom_site_fract_y
_atom_site_fract_z
Si Si1 0.543223 0.543223 0.000000
Si Si2 0.068608 0.260910 0.573953
Si Si3 0.428767 0.894948 0.272073
Si Si4 0.918759 0.037286 0.143865
Si Si5 0.513630 0.076551 0.119588
O O1 0.508929 0.754055 0.002890
O O2 0.471326 0.469936 0.050193
O O3 0.233117 0.158390 0.551205
O O4 0.969606 0.321621 0.524879
O O5 0.108191 0.438741 0.602757
O O6 0.998893 0.124644 0.613668
O O7 0.539408 0.995367 0.312067
O O8 0.708489 0.030437 0.138362
O O9 0.974903 0.221966 0.121105
#
# Coordination Sequence:
#
# PCOD9550860 Si02
#       5
#     4   8   8   8   8
#     4  10  20  42  62  92 124 180 230 266 342 406
#     4   9  20  43  66  93 126 178 227 279 331 404
#     4   9  21  42  71  87 126 191 229 263 357 418
#     4  11  25  39  64  98 134 174 227 281 341 407
#     4  11  24  41  64  99 136 173 224 287 337 415
#
# _framework density 22.363538999999999
#
# number of rings (size 3 to 8) (size 9 to 14) (size 15 to 20)
#    0.000    2.222    2.222    0.000    9.333    0.000 
#    0.000    4.444    0.000    0.000    0.000    0.000 
#    0.000    0.000    0.000    0.000    0.000    0.000 
#
# Total GULP energy -200806.423249 kJ/mol
# GULP energy per Si atom -5577.956201 kJ/mol
# Density = 2.231264 g / cm^3
# Si number density = 22.363539 Si / 1000 Ang^3
#
#
#
# Elastic Constant Matrix: (Units=GPa)
#
#
# Indices 1 2 3 4 5 6 
#
# 1 15.9138 41.7005 44.7526 0.0000 0.0000 0.0000
# 2 41.7005 15.9138 44.7526 0.0000 0.0000 0.0000
# 3 44.7526 44.7526 173.6549 0.0000 0.0000 0.0000
# 4 0.0000 0.0000 0.0000 27.6118 0.0000 0.0000
# 5 0.0000 0.0000 0.0000 0.0000 27.6118 0.0000
# 6 0.0000 0.0000 0.0000 0.0000 0.0000 17.3573
#
#
#
# Elastic Compliance Matrix: (Units=1/GPa)
#
#
# Indices 1 2 3 4 5 6 
#
# 1 -0.004917 0.033862 -0.007459 0.000000 0.000000 0.000000
# 2 0.033862 -0.004917 -0.007459 0.000000 0.000000 0.000000
# 3 -0.007459 -0.007459 0.009603 0.000000 0.000000 0.000000
# 4 0.000000 0.000000 0.000000 0.036216 0.000000 0.000000
# 5 0.000000 0.000000 0.000000 0.000000 0.036216 0.000000
# 6 0.000000 0.000000 0.000000 0.000000 0.000000 0.057613
#
#
# Mechanical properties :
#
#
# Convention : Reuss Voigt Hill
#
# Bulk Modulus (GPa) = 26.55623 51.98822 39.27223
# Shear Modulus (GPa) = 47.85630 19.46798 33.66214
#
# Velocity S-wave (km/s) = 4.63095 2.95366 3.88393
# Velocity P-wave (km/s) = 6.36356 5.91012 6.14102
#
# Compressibility (1/GPa) = 0.03765594
#
# Stress axis : x y z
#
# Youngs Moduli (GPa) = -203.36994 -203.36994 104.13062
#
# Poissons Ratio (x) = 6.88660 0.77676
# Poissons Ratio (y) = 6.88660 0.77676
# Poissons Ratio (z) = -1.51704 -1.51704
#
# Static dielectric constant tensor:
#      x y z
#    x 1.873300 0.000000 0.000000 
#    y 0.000000 1.873300 0.000000 
#    z 0.000000 0.000000 1.877500 
# 
# From -- ./inp_files/4077.got.cif
#   From: 2010.05.17/outbox.cif.g08.bks.cpg/sg96_3_cif.got.tgz:4077.got - 2010.06.03 19:52:08.
