data_PCOD9550374
_publ_section_title
;
Structure prediction by ZEFSAII (Michael W. Deem and Ramdas Pophale) SiO2 
 PCOD9550374
Probable space group: P 42 21 2
;
_chemical_formula_sum "Si O2"
_cell_formula_units_Z 36
_cell_length_a 8.063565
_cell_length_b 8.063565
_cell_length_c 22.133618
_cell_angle_alpha 90.000000
_cell_angle_beta 90.000000
_cell_angle_gamma 90.000000
_cell_volume 1439.151758
_symmetry_space_group_name_H-M "P 42 21 2"
_symmetry_group_IT_number 94
_symmetry_cell_setting 'tetragonal'
loop_
_space_group_symop_operation_xyz
x,y,z
1/2-y,1/2+x,1/2+z
-x,-y,z
1/2+y,1/2-x,1/2+z
1/2+x,1/2-y,1/2-z
1/2-x,1/2+y,1/2-z
y,x,-z
-y,-x,-z
loop_
_atom_site_type_symbol
_atom_site_label
_atom_site_fract_x
_atom_site_fract_y
_atom_site_fract_z
Si Si1 0.791249 0.208752 0.500000
Si Si2 0.155414 0.286676 0.554816
Si Si3 0.857074 0.229452 0.713767
Si Si4 0.406237 0.675041 0.391600
Si Si5 0.855951 0.790027 0.324290
O O1 0.738486 0.321585 0.442440
O O2 0.976903 0.238747 0.526524
O O3 0.282130 0.282130 0.500000
O O4 0.186067 0.461856 0.586455
O O5 0.214327 0.151790 0.604088
O O6 0.735039 0.339399 0.673086
O O7 0.850066 0.271845 0.784249
O O8 0.043802 0.246301 0.691199
O O9 0.809300 0.040876 0.699644
O O10 0.500000 0.500000 0.389060
#
# Coordination Sequence:
#
# PCOD9550374 Si02
#       5
#     4   8   8   8   8
#     4  12  24  46  76 106 154 203 259 320 390 470
#     4  12  26  46  78 113 157 205 258 326 392 472
#     4  11  26  48  80 109 155 202 262 322 389 465
#     4  12  27  48  72 113 156 199 259 320 394 472
#     4  11  26  49  77 118 151 209 264 323 396 465
#
# _framework density 25.014734000000001
#
# number of rings (size 3 to 8) (size 9 to 14) (size 15 to 20)
#    0.000    0.444    2.222    5.333    9.333    2.667 
#    0.000    2.222    0.000    0.000    0.000    0.000 
#    0.000    0.000    0.000    0.000    0.000    0.000 
#
# Total GULP energy -201679.027327 kJ/mol
# GULP energy per Si atom -5602.195204 kJ/mol
# Density = 2.495780 g / cm^3
# Si number density = 25.014734 Si / 1000 Ang^3
#
#
#
# Elastic Constant Matrix: (Units=GPa)
#
#
# Indices 1 2 3 4 5 6 
#
# 1 87.7508 48.7916 37.2888 0.0000 0.0000 0.0000
# 2 48.7916 87.7508 37.2887 0.0000 0.0000 0.0000
# 3 37.2888 37.2887 132.1151 0.0000 0.0000 0.0000
# 4 0.0000 0.0000 0.0000 47.7622 0.0000 0.0000
# 5 0.0000 0.0000 0.0000 0.0000 47.7622 0.0000
# 6 0.0000 0.0000 0.0000 0.0000 0.0000 34.9863
#
#
#
# Elastic Compliance Matrix: (Units=1/GPa)
#
#
# Indices 1 2 3 4 5 6 
#
# 1 0.017163 -0.008505 -0.002444 0.000000 0.000000 0.000000
# 2 -0.008505 0.017163 -0.002444 0.000000 0.000000 0.000000
# 3 -0.002444 -0.002444 0.008949 0.000000 0.000000 0.000000
# 4 0.000000 0.000000 0.000000 0.020937 0.000000 0.000000
# 5 0.000000 0.000000 0.000000 0.000000 0.020937 0.000000
# 6 0.000000 0.000000 0.000000 0.000000 0.000000 0.028583
#
#
# Mechanical properties :
#
#
# Convention : Reuss Voigt Hill
#
# Bulk Modulus (GPa) = 60.64128 61.59500 61.11814
# Shear Modulus (GPa) = 34.24347 38.38531 36.31439
#
# Velocity S-wave (km/s) = 3.70392 3.92153 3.81428
# Velocity P-wave (km/s) = 6.52586 6.72172 6.62451
#
# Compressibility (1/GPa) = 0.01649042
#
# Stress axis : x y z
#
# Youngs Moduli (GPa) = 58.26416 58.26422 111.74851
#
# Poissons Ratio (x) = 0.49552 0.27309
# Poissons Ratio (y) = 0.49552 0.27309
# Poissons Ratio (z) = 0.14239 0.14239
#
# Static dielectric constant tensor:
#      x y z
#    x 2.014280 0.000000 0.000000 
#    y 0.000000 2.014280 0.000000 
#    z 0.000000 0.000000 1.978940 
# 
# From -- ./inp_files/4562.got.cif
#   From: 2010.05.17/outbox.cif.g08.bks.cpg/sg94_3_cif.got.tgz:4562.got - 2010.06.03 19:43:16.
