data_PCOD9550443
_publ_section_title
;
Structure prediction by ZEFSAII (Michael W. Deem and Ramdas Pophale) SiO2 
 PCOD9550443
Probable space group: P 43 2 2
;
_chemical_formula_sum "Si O2"
_cell_formula_units_Z 44
_cell_length_a 8.626042
_cell_length_b 8.626042
_cell_length_c 25.749703
_cell_angle_alpha 90.000000
_cell_angle_beta 90.000000
_cell_angle_gamma 90.000000
_cell_volume 1915.999366
_symmetry_space_group_name_H-M "P 43 2 2"
_symmetry_group_IT_number 95
_symmetry_cell_setting 'tetragonal'
loop_
_space_group_symop_operation_xyz
x,y,z
-y,x,3/4+z
-x,-y,1/2+z
y,-x,1/4+z
x,-y,1/2-z
-x,y,-z
y,x,1/4-z
-y,-x,3/4-z
loop_
_atom_site_type_symbol
_atom_site_label
_atom_site_fract_x
_atom_site_fract_y
_atom_site_fract_z
Si Si1 0.089645 0.095333 0.066793
Si Si2 0.248376 0.843553 0.539392
Si Si3 0.412958 0.393506 0.834295
Si Si4 0.870056 0.740774 0.963654
Si Si5 0.612736 0.147423 0.456401
Si Si6 0.629458 0.500000 0.750000
O O1 0.068466 0.908567 0.057256
O O2 0.135483 0.135483 0.125000
O O3 0.926343 0.183570 0.058550
O O4 0.214200 0.134504 0.022639
O O5 0.388354 0.723625 0.538805
O O6 0.303699 0.000578 0.567932
O O7 0.528744 0.471257 0.875000
O O8 0.342690 0.220152 0.833609
O O9 0.267592 0.513321 0.827201
O O10 0.516550 0.392104 0.782695
O O11 0.739212 0.771035 0.007444
O O12 0.000000 0.661908 0.000000
O O13 0.500000 0.075357 0.500000
#
# Coordination Sequence:
#
# PCOD9550443 Si02
#       6
#     8   8   8   8   8   4
#     4  10  21  38  65  94 124 158 216 272 314 378
#     4  10  21  39  64  91 125 168 212 259 328 391
#     4  11  25  42  64  96 133 170 222 272 327 395
#     4  10  18  40  69  90 126 171 215 267 321 388
#     4   9  16  38  63  86 118 170 213 259 304 378
#     4  12  24  42  62  90 136 176 204 270 338 382
#
# _framework density 22.964518000000002
#
# number of rings (size 3 to 8) (size 9 to 14) (size 15 to 20)
#    0.000    1.818    7.273    0.000    2.545    1.455 
#    3.273    0.000    0.000    0.000    0.000    0.000 
#    0.000    0.000    0.000    0.000    0.000    0.000 
#
# Total GULP energy -245014.670860 kJ/mol
# GULP energy per Si atom -5568.515247 kJ/mol
# Density = 2.291225 g / cm^3
# Si number density = 22.964518 Si / 1000 Ang^3
#
#
#
# Elastic Constant Matrix: (Units=GPa)
#
#
# Indices 1 2 3 4 5 6 
#
# 1 89.7749 26.8557 4.7498 0.0000 0.0000 0.0000
# 2 26.8557 89.7752 4.7500 0.0000 0.0000 0.0000
# 3 4.7498 4.7500 55.9910 0.0000 0.0000 0.0000
# 4 0.0000 0.0000 0.0000 19.0394 0.0000 0.0000
# 5 0.0000 0.0000 0.0000 0.0000 19.0395 0.0000
# 6 0.0000 0.0000 0.0000 0.0000 0.0000 16.6362
#
#
#
# Elastic Compliance Matrix: (Units=1/GPa)
#
#
# Indices 1 2 3 4 5 6 
#
# 1 0.012264 -0.003630 -0.000732 0.000000 0.000000 0.000000
# 2 -0.003630 0.012264 -0.000732 0.000000 0.000000 0.000000
# 3 -0.000732 -0.000732 0.017984 0.000000 0.000000 0.000000
# 4 0.000000 0.000000 0.000000 0.052523 0.000000 0.000000
# 5 0.000000 0.000000 0.000000 0.000000 0.052522 0.000000
# 6 0.000000 0.000000 0.000000 0.000000 0.000000 0.060110
#
#
# Mechanical properties :
#
#
# Convention : Reuss Voigt Hill
#
# Bulk Modulus (GPa) = 30.93864 34.25021 32.59443
# Shear Modulus (GPa) = 21.86945 24.22208 23.04577
#
# Velocity S-wave (km/s) = 3.08931 3.25123 3.17130
# Velocity P-wave (km/s) = 5.12120 5.38895 5.25678
#
# Compressibility (1/GPa) = 0.03232204
#
# Stress axis : x y z
#
# Youngs Moduli (GPa) = 81.54234 81.54258 55.60414
#
# Poissons Ratio (x) = 0.29599 0.04072
# Poissons Ratio (y) = 0.29598 0.04073
# Poissons Ratio (z) = 0.05972 0.05973
#
# Static dielectric constant tensor:
#      x y z
#    x 1.894730 0.000000 0.000000 
#    y 0.000000 1.894730 0.000000 
#    z 0.000000 0.000000 1.923040 
# 
# From -- ./inp_files/7818.got.cif
#   From: 2010.05.17/outbox.cif.g08.bks.cpg/sg95_4_cif.got.tgz:7818.got - 2010.06.03 19:46:49.
