data_PCOD9550423
_publ_section_title
;
Structure prediction by ZEFSAII (Michael W. Deem and Ramdas Pophale) SiO2 
 PCOD9550423
Probable space group: P 43 2 2
;
_chemical_formula_sum "Si O2"
_cell_formula_units_Z 48
_cell_length_a 12.209374
_cell_length_b 12.209374
_cell_length_c 15.893379
_cell_angle_alpha 90.000000
_cell_angle_beta 90.000000
_cell_angle_gamma 90.000000
_cell_volume 2369.207150
_symmetry_space_group_name_H-M "P 43 2 2"
_symmetry_group_IT_number 95
_symmetry_cell_setting 'tetragonal'
loop_
_space_group_symop_operation_xyz
x,y,z
-y,x,3/4+z
-x,-y,1/2+z
y,-x,1/4+z
x,-y,1/2-z
-x,y,-z
y,x,1/4-z
-y,-x,3/4-z
loop_
_atom_site_type_symbol
_atom_site_label
_atom_site_fract_x
_atom_site_fract_y
_atom_site_fract_z
Si Si1 0.615446 0.523849 0.039688
Si Si2 0.943905 0.629274 0.252768
Si Si3 0.729355 0.754975 0.225801
Si Si4 0.285398 0.706615 0.510000
Si Si5 0.111185 0.650811 0.109330
Si Si6 0.144499 0.609015 0.374882
O O1 0.579829 0.579829 0.125000
O O2 0.685317 0.621011 0.998250
O O3 0.500000 0.494679 0.000000
O O4 0.681685 0.412058 0.044473
O O5 0.916358 0.500000 0.250000
O O6 0.836188 0.699309 0.264762
O O7 0.001095 0.660013 0.164057
O O8 0.035068 0.643792 0.325343
O O9 0.747976 0.747976 0.125000
O O10 0.703578 0.871927 0.267881
O O11 0.290364 0.796357 0.582648
O O12 0.175778 0.681840 0.455824
O O13 0.371533 0.755822 0.441222
O O14 0.133121 0.519575 0.105566
#
# Coordination Sequence:
#
# PCOD9550423 Si02
#       6
#     8   8   8   8   8   8
#     4  11  21  28  44  76 123 155 179 226 287 359
#     4   9  20  39  60  83 117 158 199 249 297 357
#     4  11  23  37  54  82 114 158 202 242 298 359
#     4  10  18  30  54  84 114 152 199 236 289 354
#     4  10  19  37  57  81 117 158 198 240 298 353
#     4   9  18  34  56  83 114 156 202 239 285 356
#
# _framework density 20.25994
#
# number of rings (size 3 to 8) (size 9 to 14) (size 15 to 20)
#    0.000    2.000    1.667    4.000    2.333    2.000 
#    0.000    0.833    0.000    0.000   26.000    0.000 
#    0.000    0.000    0.000    0.000    0.000    0.000 
#
# Total GULP energy -267665.610203 kJ/mol
# GULP energy per Si atom -5576.366879 kJ/mol
# Density = 2.021383 g / cm^3
# Si number density = 20.259940 Si / 1000 Ang^3
#
#
#
# Elastic Constant Matrix: (Units=GPa)
#
#
# Indices 1 2 3 4 5 6 
#
# 1 38.1337 61.6745 9.0833 0.0000 0.0000 0.0000
# 2 61.6745 38.1337 9.0833 0.0000 0.0000 0.0000
# 3 9.0833 9.0833 60.6838 0.0000 0.0000 0.0000
# 4 0.0000 0.0000 0.0000 17.1043 0.0000 0.0000
# 5 0.0000 0.0000 0.0000 0.0000 17.1043 0.0000
# 6 0.0000 0.0000 0.0000 0.0000 0.0000 14.5566
#
#
#
# Elastic Compliance Matrix: (Units=1/GPa)
#
#
# Indices 1 2 3 4 5 6 
#
# 1 -0.016090 0.026390 -0.001542 0.000000 0.000000 0.000000
# 2 0.026390 -0.016090 -0.001542 0.000000 0.000000 0.000000
# 3 -0.001542 -0.001542 0.016940 0.000000 0.000000 0.000000
# 4 0.000000 0.000000 0.000000 0.058465 0.000000 0.000000
# 5 0.000000 0.000000 0.000000 0.000000 0.058465 0.000000
# 6 0.000000 0.000000 0.000000 0.000000 0.000000 0.068698
#
#
# Mechanical properties :
#
#
# Convention : Reuss Voigt Hill
#
# Bulk Modulus (GPa) = 31.87431 32.95928 32.41679
# Shear Modulus (GPa) = 37.24844 13.56035 25.40440
#
# Velocity S-wave (km/s) = 4.29246 2.58993 3.54492
# Velocity P-wave (km/s) = 6.35089 5.02465 5.72629
#
# Compressibility (1/GPa) = 0.03137323
#
# Stress axis : x y z
#
# Youngs Moduli (GPa) = -62.15136 -62.15136 59.03054
#
# Poissons Ratio (x) = 1.64015 0.09101
# Poissons Ratio (y) = 1.64015 0.09101
# Poissons Ratio (z) = -0.09582 -0.09582
#
# Static dielectric constant tensor:
#      x y z
#    x 1.702030 0.000000 0.000000 
#    y 0.000000 1.702030 0.000000 
#    z 0.000000 0.000000 1.786190 
# 
# From -- ./inp_files/5639.got.cif
#   From: 2010.05.17/outbox.cif.g08.bks.cpg/sg95_3_cif.got.tgz:5639.got - 2010.06.03 19:46:49.
