data_PCOD9550904
_publ_section_title
;
Structure prediction by ZEFSAII (Michael W. Deem and Ramdas Pophale) SiO2 
 PCOD9550904
Probable space group: P 43 21 2
;
_chemical_formula_sum "Si O2"
_cell_formula_units_Z 48
_cell_length_a 10.020016
_cell_length_b 10.020016
_cell_length_c 18.137477
_cell_angle_alpha 90.000000
_cell_angle_beta 90.000000
_cell_angle_gamma 90.000000
_cell_volume 1821.015761
_symmetry_space_group_name_H-M "P 43 21 2"
_symmetry_group_IT_number 96
_symmetry_cell_setting 'tetragonal'
loop_
_space_group_symop_operation_xyz
x,y,z
1/2-y,1/2+x,3/4+z
-x,-y,1/2+z
1/2+y,1/2-x,1/4+z
1/2+x,1/2-y,1/4-z
1/2-x,1/2+y,3/4-z
y,x,-z
-y,-x,1/2-z
loop_
_atom_site_type_symbol
_atom_site_label
_atom_site_fract_x
_atom_site_fract_y
_atom_site_fract_z
Si Si1 0.520664 0.302166 0.833670
Si Si2 0.312370 0.655485 0.474477
Si Si3 0.562798 0.971432 0.701825
Si Si4 0.438377 0.561624 0.750000
Si Si5 0.282348 0.282348 0.500000
Si Si6 0.945706 0.654844 0.676240
Si Si7 0.589098 0.731693 0.855230
O O1 0.450288 0.426213 0.796441
O O2 0.629169 0.224871 0.781580
O O3 0.415919 0.188618 0.853146
O O4 0.600172 0.363496 0.902361
O O5 0.196829 0.557711 0.502227
O O6 0.407436 0.703800 0.539771
O O7 0.217040 0.777743 0.447458
O O8 0.534689 0.847338 0.646981
O O9 0.439070 0.002362 0.755476
O O10 0.617242 0.075822 0.639671
O O11 0.462312 0.682263 0.808256
O O12 0.364796 0.337773 0.430248
#
# Coordination Sequence:
#
# PCOD9550904 Si02
#       7
#     8   8   8   4   4   8   8
#     4  10  21  39  69 101 137 186 240 296 371 429
#     4  11  25  43  69 104 142 188 249 300 362 453
#     4  12  26  45  74 106 141 194 246 303 373 438
#     4  11  24  38  66 102 153 188 230 323 372 430
#     4   9  20  34  62 100 129 168 240 305 340 426
#     4  12  23  46  74 103 141 192 247 304 365 438
#     4  11  23  40  66 103 145 187 247 300 371 430
#
# _framework density 26.358917999999999
#
# number of rings (size 3 to 8) (size 9 to 14) (size 15 to 20)
#    0.000    1.000    6.667    0.000    2.333    1.333 
#    0.000    0.000    0.000    0.000    0.000    0.000 
#    0.000    0.000    0.000    0.000    0.000    0.000 
#
# Total GULP energy -267705.446729 kJ/mol
# GULP energy per Si atom -5577.196807 kJ/mol
# Density = 2.629892 g / cm^3
# Si number density = 26.358918 Si / 1000 Ang^3
#
#
#
# Elastic Constant Matrix: (Units=GPa)
#
#
# Indices 1 2 3 4 5 6 
#
# 1 48.6950 16.1731 27.8004 0.0000 0.0000 0.0000
# 2 16.1731 48.6944 27.8002 0.0000 0.0000 0.0000
# 3 27.8004 27.8002 109.8139 0.0000 0.0000 0.0000
# 4 0.0000 0.0000 0.0000 43.4604 0.0000 0.0000
# 5 0.0000 0.0000 0.0000 0.0000 43.4604 0.0000
# 6 0.0000 0.0000 0.0000 0.0000 0.0000 33.5192
#
#
#
# Elastic Compliance Matrix: (Units=1/GPa)
#
#
# Indices 1 2 3 4 5 6 
#
# 1 0.025218 -0.005530 -0.004984 0.000000 0.000000 0.000000
# 2 -0.005530 0.025219 -0.004984 0.000000 0.000000 0.000000
# 3 -0.004984 -0.004984 0.011630 0.000000 0.000000 0.000000
# 4 0.000000 0.000000 0.000000 0.023009 0.000000 0.000000
# 5 0.000000 0.000000 0.000000 0.000000 0.023009 0.000000
# 6 0.000000 0.000000 0.000000 0.000000 0.000000 0.029834
#
#
# Mechanical properties :
#
#
# Convention : Reuss Voigt Hill
#
# Bulk Modulus (GPa) = 32.18612 38.97231 35.57921
# Shear Modulus (GPa) = 27.89037 33.11663 30.50350
#
# Velocity S-wave (km/s) = 3.25637 3.54838 3.40551
# Velocity P-wave (km/s) = 5.13574 5.62186 5.38429
#
# Compressibility (1/GPa) = 0.03106929
#
# Stress axis : x y z
#
# Youngs Moduli (GPa) = 39.65376 39.65326 85.98523
#
# Poissons Ratio (x) = 0.21930 0.42857
# Poissons Ratio (y) = 0.21930 0.42857
# Poissons Ratio (z) = 0.19764 0.19764
#
# Static dielectric constant tensor:
#      x y z
#    x 2.223510 0.000000 0.000000 
#    y 0.000000 2.223510 0.000000 
#    z 0.000000 0.000000 2.207380 
# 
# From -- ./inp_files/3159.got.cif
#   From: 2010.05.17/outbox.cif.g08.bks.cpg/sg96_2_cif.got.tgz:3159.got - 2010.06.03 19:52:08.
