data_PCOD9550587
_publ_section_title
;
Structure prediction by ZEFSAII (Michael W. Deem and Ramdas Pophale) SiO2 
 PCOD9550587
Probable space group: P 43 2 2
;
_chemical_formula_sum "Si O2"
_cell_formula_units_Z 24
_cell_length_a 8.828492
_cell_length_b 8.828492
_cell_length_c 13.370775
_cell_angle_alpha 90.000000
_cell_angle_beta 90.000000
_cell_angle_gamma 90.000000
_cell_volume 1042.148568
_symmetry_space_group_name_H-M "P 43 2 2"
_symmetry_group_IT_number 95
_symmetry_cell_setting 'tetragonal'
loop_
_space_group_symop_operation_xyz
x,y,z
-y,x,3/4+z
-x,-y,1/2+z
y,-x,1/4+z
x,-y,1/2-z
-x,y,-z
y,x,1/4-z
-y,-x,3/4-z
loop_
_atom_site_type_symbol
_atom_site_label
_atom_site_fract_x
_atom_site_fract_y
_atom_site_fract_z
Si Si1 0.183557 0.300837 0.897538
Si Si2 0.877540 0.632288 0.685547
Si Si3 0.680936 0.451745 0.521911
O O1 0.279801 0.276516 0.796709
O O2 0.006525 0.290996 0.879979
O O3 0.253100 0.197823 0.985884
O O4 0.231624 0.470528 0.931046
O O5 0.954715 0.500000 0.750000
O O6 0.754214 0.541280 0.618121
O O7 0.500000 0.468965 0.500000
#
# Coordination Sequence:
#
# PCOD9550587 Si02
#       3
#     8   8   8
#     4  11  21  38  63  92 124 162 204 258 315 371
#     4  10  22  38  63  93 125 166 207 255 316 371
#     4  11  21  36  63  93 120 158 210 257 304 364
#
# _framework density 23.029347000000001
#
# number of rings (size 3 to 8) (size 9 to 14) (size 15 to 20)
#    0.000    1.333    0.000    9.000    0.000    0.000 
#    0.000    0.000    0.000   68.000    0.000    0.000 
#    0.000    0.000    0.000    0.000    0.000    0.000 
#
# Total GULP energy -133962.278660 kJ/mol
# GULP energy per Si atom -5581.761611 kJ/mol
# Density = 2.297693 g / cm^3
# Si number density = 23.029347 Si / 1000 Ang^3
#
#
#
# Elastic Constant Matrix: (Units=GPa)
#
#
# Indices 1 2 3 4 5 6 
#
# 1 124.8121 48.1571 42.7688 0.0000 0.0000 0.0000
# 2 48.1571 124.8121 42.7688 0.0000 0.0000 0.0000
# 3 42.7688 42.7688 79.7586 0.0000 0.0000 0.0000
# 4 0.0000 0.0000 0.0000 33.9906 0.0000 0.0000
# 5 0.0000 0.0000 0.0000 0.0000 33.9906 0.0000
# 6 0.0000 0.0000 0.0000 0.0000 0.0000 10.8302
#
#
#
# Elastic Compliance Matrix: (Units=1/GPa)
#
#
# Indices 1 2 3 4 5 6 
#
# 1 0.010457 -0.002589 -0.004219 0.000000 0.000000 0.000000
# 2 -0.002589 0.010457 -0.004219 0.000000 0.000000 0.000000
# 3 -0.004219 -0.004219 0.017062 0.000000 0.000000 0.000000
# 4 0.000000 0.000000 0.000000 0.029420 0.000000 0.000000
# 5 0.000000 0.000000 0.000000 0.000000 0.029420 0.000000
# 6 0.000000 0.000000 0.000000 0.000000 0.000000 0.092335
#
#
# Mechanical properties :
#
#
# Convention : Reuss Voigt Hill
#
# Bulk Modulus (GPa) = 62.80505 66.30799 64.55652
# Shear Modulus (GPa) = 23.09356 28.80817 25.95086
#
# Velocity S-wave (km/s) = 3.17012 3.54069 3.36052
# Velocity P-wave (km/s) = 6.38204 6.75060 6.56891
#
# Compressibility (1/GPa) = 0.01592229
#
# Stress axis : x y z
#
# Youngs Moduli (GPa) = 95.63343 95.63343 58.60844
#
# Poissons Ratio (x) = 0.24758 0.24726
# Poissons Ratio (y) = 0.24758 0.24726
# Poissons Ratio (z) = 0.40347 0.40347
#
# Static dielectric constant tensor:
#      x y z
#    x 1.890260 0.000000 0.000000 
#    y 0.000000 1.890260 0.000000 
#    z 0.000000 0.000000 2.028930 
# 
# From -- ./inp_files/5195.got.cif
#   From: 2010.05.17/outbox.cif.g08.bks.cpg/sg95_3_cif.got.tgz:5195.got - 2010.06.03 19:46:49.
