data_PCOD9550970
_publ_section_title
;
Structure prediction by ZEFSAII (Michael W. Deem and Ramdas Pophale) SiO2 
 PCOD9550970
Probable space group: P 43 21 2
;
_chemical_formula_sum "Si O2"
_cell_formula_units_Z 60
_cell_length_a 18.061444
_cell_length_b 18.061444
_cell_length_c 8.260357
_cell_angle_alpha 90.000000
_cell_angle_beta 90.000000
_cell_angle_gamma 90.000000
_cell_volume 2694.658631
_symmetry_space_group_name_H-M "P 43 21 2"
_symmetry_group_IT_number 96
_symmetry_cell_setting 'tetragonal'
loop_
_space_group_symop_operation_xyz
x,y,z
1/2-y,1/2+x,3/4+z
-x,-y,1/2+z
1/2+y,1/2-x,1/4+z
1/2+x,1/2-y,1/4-z
1/2-x,1/2+y,3/4-z
y,x,-z
-y,-x,1/2-z
loop_
_atom_site_type_symbol
_atom_site_label
_atom_site_fract_x
_atom_site_fract_y
_atom_site_fract_z
Si Si1 0.129878 0.350335 0.807146
Si Si2 0.714224 0.642867 0.640729
Si Si3 0.959352 0.800345 0.241712
Si Si4 0.987247 0.739869 0.919907
Si Si5 0.874662 0.213603 0.877325
Si Si6 0.865384 0.700149 0.661302
Si Si7 0.361644 0.638357 0.750000
Si Si8 0.912433 0.487640 0.829559
O O1 0.094266 0.270307 0.770903
O O2 0.209852 0.358645 0.722250
O O3 0.077750 0.407714 0.712832
O O4 0.125402 0.353158 0.002847
O O5 0.701653 0.701653 0.500000
O O6 0.730206 0.560357 0.583478
O O7 0.639109 0.648462 0.742080
O O8 0.787009 0.673407 0.731224
O O9 0.924001 0.861843 0.359926
O O10 0.043675 0.786323 0.301528
O O11 0.960325 0.802880 0.046169
O O12 0.927799 0.706716 0.797012
O O13 0.010654 0.670768 0.034171
O O14 0.811945 0.188056 0.750000
O O15 0.863497 0.783050 0.591430
O O16 0.949294 0.458264 0.666928
#
# Coordination Sequence:
#
# PCOD9550970 Si02
#       8
#     8   8   8   8   8   8   4   8
#     4  10  22  42  67 102 139 180 231 290 356 422
#     4  12  24  42  68 106 139 185 251 290 363 431
#     4  10  23  44  67 103 140 181 235 298 369 430
#     4  11  25  42  68 101 144 183 239 308 368 433
#     4  12  24  43  75 104 143 191 242 311 358 435
#     4  11  23  42  67 104 142 186 231 298 359 436
#     4  10  22  44  68  96 136 184 226 296 368 434
#     4  11  25  44  64  98 143 195 239 285 361 442
#
# _framework density 22.266272000000001
#
# number of rings (size 3 to 8) (size 9 to 14) (size 15 to 20)
#    0.000    1.067    3.333    3.200    7.467    3.733 
#    0.000    0.000    2.933    0.000    0.000    0.000 
#    0.000    0.000    0.000    0.000    0.000    0.000 
#
# Total GULP energy -334612.803452 kJ/mol
# GULP energy per Si atom -5576.880058 kJ/mol
# Density = 2.221559 g / cm^3
# Si number density = 22.266272 Si / 1000 Ang^3
#
#
#
# Elastic Constant Matrix: (Units=GPa)
#
#
# Indices 1 2 3 4 5 6 
#
# 1 80.8558 36.4492 54.3099 0.0000 0.0000 0.0000
# 2 36.4492 80.8542 54.3104 0.0000 0.0000 0.0000
# 3 54.3099 54.3104 102.6580 0.0000 0.0000 0.0000
# 4 0.0000 0.0000 0.0000 38.2430 0.0000 0.0000
# 5 0.0000 0.0000 0.0000 0.0000 38.2437 0.0000
# 6 0.0000 0.0000 0.0000 0.0000 0.0000 22.3184
#
#
#
# Elastic Compliance Matrix: (Units=1/GPa)
#
#
# Indices 1 2 3 4 5 6 
#
# 1 0.019615 -0.002904 -0.008841 0.000000 0.000000 0.000000
# 2 -0.002904 0.019616 -0.008841 0.000000 0.000000 0.000000
# 3 -0.008841 -0.008841 0.019096 0.000000 0.000000 0.000000
# 4 0.000000 0.000000 0.000000 0.026149 0.000000 0.000000
# 5 0.000000 0.000000 0.000000 0.000000 0.026148 0.000000
# 6 0.000000 0.000000 0.000000 0.000000 0.000000 0.044806
#
#
# Mechanical properties :
#
#
# Convention : Reuss Voigt Hill
#
# Bulk Modulus (GPa) = 58.29431 61.61189 59.95310
# Shear Modulus (GPa) = 24.71340 27.71425 26.21383
#
# Velocity S-wave (km/s) = 3.33514 3.53182 3.43489
# Velocity P-wave (km/s) = 6.40845 6.66050 6.53569
#
# Compressibility (1/GPa) = 0.01715433
#
# Stress axis : x y z
#
# Youngs Moduli (GPa) = 50.98133 50.97912 52.36831
#
# Poissons Ratio (x) = 0.14805 0.46297
# Poissons Ratio (y) = 0.14806 0.46300
# Poissons Ratio (z) = 0.45071 0.45072
#
# Static dielectric constant tensor:
#      x y z
#    x 1.832580 0.000000 0.000000 
#    y 0.000000 1.832580 0.000000 
#    z 0.000000 0.000000 2.021630 
# 
# From -- ./inp_files/1628.got.cif
#   From: 2010.05.17/outbox.cif.g08.bks.cpg/sg96_1_cif.got.tgz:1628.got - 2010.06.03 19:52:08.
