data_PCOD9550555
_publ_section_title
;
Structure prediction by ZEFSAII (Michael W. Deem and Ramdas Pophale) SiO2 
 PCOD9550555
Probable space group: P 43 2 2
;
_chemical_formula_sum "Si O2"
_cell_formula_units_Z 60
_cell_length_a 12.225501
_cell_length_b 12.225501
_cell_length_c 20.265152
_cell_angle_alpha 90.000000
_cell_angle_beta 90.000000
_cell_angle_gamma 90.000000
_cell_volume 3028.887874
_symmetry_space_group_name_H-M "P 43 2 2"
_symmetry_group_IT_number 95
_symmetry_cell_setting 'tetragonal'
loop_
_space_group_symop_operation_xyz
x,y,z
-y,x,3/4+z
-x,-y,1/2+z
y,-x,1/4+z
x,-y,1/2-z
-x,y,-z
y,x,1/4-z
-y,-x,3/4-z
loop_
_atom_site_type_symbol
_atom_site_label
_atom_site_fract_x
_atom_site_fract_y
_atom_site_fract_z
Si Si1 0.412286 0.757607 0.904050
Si Si2 0.402983 0.201234 0.887978
Si Si3 0.372943 0.433688 0.189074
Si Si4 0.862280 0.137721 0.875000
Si Si5 0.529974 0.020320 0.328377
Si Si6 0.282371 0.062398 0.348397
Si Si7 0.748912 0.340071 0.197241
Si Si8 0.758422 0.746561 0.506731
O O1 0.340900 0.659101 0.875000
O O2 0.422986 0.863925 0.855886
O O3 0.538731 0.729238 0.918002
O O4 0.356863 0.777283 0.976022
O O5 0.511983 0.257665 0.917332
O O6 0.355583 0.269135 0.825487
O O7 0.319184 0.211800 0.948601
O O8 0.412836 0.077652 0.866704
O O9 0.418383 0.500000 0.250000
O O10 0.445091 0.445091 0.125000
O O11 0.352438 0.308931 0.210122
O O12 0.831436 0.214772 0.813568
O O13 0.983087 0.178046 0.895201
O O14 0.401655 0.007507 0.347450
O O15 0.542432 0.000000 0.250000
O O16 0.286874 0.148978 0.408350
O O17 0.282819 0.130379 0.280243
#
# Coordination Sequence:
#
# PCOD9550555 Si02
#       8
#     8   8   8   4   8   8   8   8
#     4  10  21  40  66  92 124 175 222 261 331 394
#     4  10  22  39  59  91 127 166 213 266 329 382
#     4  10  21  38  59  92 130 175 211 269 334 400
#     4  12  20  34  64  90 116 160 202 264 330 382
#     4  11  22  36  63  94 122 169 216 271 323 393
#     4  10  23  38  62  91 125 162 212 264 332 390
#     4   9  21  43  61  91 130 168 213 273 318 403
#     4  10  21  38  59  86 127 157 207 268 320 383
#
# _framework density 19.809249999999999
#
# number of rings (size 3 to 8) (size 9 to 14) (size 15 to 20)
#    0.000    1.867    0.667    2.800    3.733    0.533 
#   12.000    0.000    5.867    0.000    0.000    0.000 
#    0.000    0.000    0.000    0.000    0.000    0.000 
#
# Total GULP energy -334755.808139 kJ/mol
# GULP energy per Si atom -5579.263469 kJ/mol
# Density = 1.976416 g / cm^3
# Si number density = 19.809250 Si / 1000 Ang^3
#
#
#
# Elastic Constant Matrix: (Units=GPa)
#
#
# Indices 1 2 3 4 5 6 
#
# 1 44.0608 72.8709 33.9352 0.0000 0.0000 0.0000
# 2 72.8709 44.0616 33.9383 0.0000 0.0000 0.0000
# 3 33.9352 33.9383 102.1278 0.0000 0.0000 0.0000
# 4 0.0000 0.0000 0.0000 25.9743 0.0000 0.0000
# 5 0.0000 0.0000 0.0000 0.0000 25.9737 0.0000
# 6 0.0000 0.0000 0.0000 0.0000 0.0000 21.4493
#
#
#
# Elastic Compliance Matrix: (Units=1/GPa)
#
#
# Indices 1 2 3 4 5 6 
#
# 1 -0.012057 0.022653 -0.003522 0.000000 0.000000 0.000000
# 2 0.022653 -0.012058 -0.003520 0.000000 0.000000 0.000000
# 3 -0.003522 -0.003520 0.012132 0.000000 0.000000 0.000000
# 4 0.000000 0.000000 0.000000 0.038500 0.000000 0.000000
# 5 0.000000 0.000000 0.000000 0.000000 0.038500 0.000000
# 6 0.000000 0.000000 0.000000 0.000000 0.000000 0.046622
#
#
# Mechanical properties :
#
#
# Convention : Reuss Voigt Hill
#
# Bulk Modulus (GPa) = 51.97680 52.41545 52.19612
# Shear Modulus (GPa) = 57.58448 17.97985 37.78216
#
# Velocity S-wave (km/s) = 5.39746 3.01599 4.37200
# Velocity P-wave (km/s) = 8.07088 6.21657 7.20364
#
# Compressibility (1/GPa) = 0.01923935
#
# Stress axis : x y z
#
# Youngs Moduli (GPa) = -82.93805 -82.93491 82.42910
#
# Poissons Ratio (x) = 1.87873 0.29028
# Poissons Ratio (y) = 1.87881 0.29018
# Poissons Ratio (z) = -0.29207 -0.29196
#
# Static dielectric constant tensor:
#      x y z
#    x 1.720540 0.000000 0.000000 
#    y 0.000000 1.720540 0.000000 
#    z 0.000000 0.000000 1.728930 
# 
# From -- ./inp_files/6526.got.cif
#   From: 2010.05.17/outbox.cif.g08.bks.cpg/sg95_4_cif.got.tgz:6526.got - 2010.06.03 19:46:49.
