data_PCOD9550623
_publ_section_title
;
Structure prediction by ZEFSAII (Michael W. Deem and Ramdas Pophale) SiO2 
 PCOD9550623
Probable space group: P 43 2 2
;
_chemical_formula_sum "Si O2"
_cell_formula_units_Z 60
_cell_length_a 17.943645
_cell_length_b 17.943645
_cell_length_c 9.129424
_cell_angle_alpha 90.000000
_cell_angle_beta 90.000000
_cell_angle_gamma 90.000000
_cell_volume 2939.440777
_symmetry_space_group_name_H-M "P 43 2 2"
_symmetry_group_IT_number 95
_symmetry_cell_setting 'tetragonal'
loop_
_space_group_symop_operation_xyz
x,y,z
-y,x,3/4+z
-x,-y,1/2+z
y,-x,1/4+z
x,-y,1/2-z
-x,y,-z
y,x,1/4-z
-y,-x,3/4-z
loop_
_atom_site_type_symbol
_atom_site_label
_atom_site_fract_x
_atom_site_fract_y
_atom_site_fract_z
Si Si1 0.418715 0.836607 0.313210
Si Si2 0.319645 0.258011 0.772474
Si Si3 0.605950 0.665470 0.769226
Si Si4 0.721670 0.026590 0.104417
Si Si5 0.500000 0.589016 0.000000
Si Si6 0.130791 0.584029 0.091305
Si Si7 0.716799 0.075532 0.659212
Si Si8 0.176943 0.201389 0.286298
O O1 0.418206 0.749168 0.273981
O O2 0.498487 0.878356 0.292591
O O3 0.409796 0.843034 0.488642
O O4 0.351144 0.874589 0.223162
O O5 0.300543 0.300543 0.625000
O O6 0.336023 0.313279 0.905527
O O7 0.384666 0.199107 0.746809
O O8 0.250245 0.211250 0.833803
O O9 0.613274 0.613274 0.625000
O O10 0.554042 0.637513 0.899426
O O11 0.643535 0.064183 0.155264
O O12 0.771623 0.091328 0.028718
O O13 0.762555 0.000000 0.250000
O O14 0.706038 0.955140 0.004154
O O15 0.458296 0.541705 0.875000
O O16 0.794945 0.118787 0.675668
O O17 0.716771 0.000000 0.750000
O O18 0.213316 0.213316 0.125000
#
# Coordination Sequence:
#
# PCOD9550623 Si02
#       8
#     8   8   8   8   4   8   8   8
#     4  11  23  41  68 101 131 182 230 278 342 415
#     4  11  23  39  65  97 130 173 232 296 337 396
#     4  12  25  44  72  95 132 181 237 297 353 416
#     4  11  26  44  66 102 141 183 225 283 354 412
#     4  12  30  50  68  98 140 182 240 298 378 440
#     4  10  23  42  64  95 140 177 225 276 347 415
#     4  12  22  42  72 100 133 181 235 275 336 421
#     4  11  22  42  71  97 132 178 235 283 331 411
#
# _framework density 20.412044999999999
#
# number of rings (size 3 to 8) (size 9 to 14) (size 15 to 20)
#    0.000    0.800    5.333    2.000    7.467    0.533 
#    0.000    0.000    0.000    2.400    0.000    0.000 
#    0.000    0.000    0.000    0.000    0.000    0.000 
#
# Total GULP energy -334765.420475 kJ/mol
# GULP energy per Si atom -5579.423675 kJ/mol
# Density = 2.036559 g / cm^3
# Si number density = 20.412045 Si / 1000 Ang^3
#
#
#
# Elastic Constant Matrix: (Units=GPa)
#
#
# Indices 1 2 3 4 5 6 
#
# 1 77.8645 46.7791 31.4821 0.0000 0.0000 0.0000
# 2 46.7791 77.8661 31.4820 0.0000 0.0000 0.0000
# 3 31.4821 31.4820 108.8703 0.0000 0.0000 0.0000
# 4 0.0000 0.0000 0.0000 58.2757 0.0000 0.0000
# 5 0.0000 0.0000 0.0000 0.0000 58.3365 0.0000
# 6 0.0000 0.0000 0.0000 0.0000 0.0000 22.5517
#
#
#
# Elastic Compliance Matrix: (Units=1/GPa)
#
#
# Indices 1 2 3 4 5 6 
#
# 1 0.020782 -0.011387 -0.002717 0.000000 0.000000 0.000000
# 2 -0.011387 0.020782 -0.002717 0.000000 0.000000 0.000000
# 3 -0.002717 -0.002717 0.010756 0.000000 0.000000 0.000000
# 4 0.000000 0.000000 0.000000 0.017160 0.000000 0.000000
# 5 0.000000 0.000000 0.000000 0.000000 0.017142 0.000000
# 6 0.000000 0.000000 0.000000 0.000000 0.000000 0.044343
#
#
# Mechanical properties :
#
#
# Convention : Reuss Voigt Hill
#
# Bulk Modulus (GPa) = 53.53417 53.78749 53.66083
# Shear Modulus (GPa) = 29.26857 38.15664 33.71261
#
# Velocity S-wave (km/s) = 3.79078 4.32825 4.06840
# Velocity P-wave (km/s) = 6.74119 7.16843 6.95809
#
# Compressibility (1/GPa) = 0.01867966
#
# Stress axis : x y z
#
# Youngs Moduli (GPa) = 48.11822 48.11940 92.96713
#
# Poissons Ratio (x) = 0.54792 0.25258
# Poissons Ratio (y) = 0.54791 0.25257
# Poissons Ratio (z) = 0.13073 0.13073
#
# Static dielectric constant tensor:
#      x y z
#    x 1.738240 0.000000 0.000000 
#    y 0.000000 1.738110 0.000000 
#    z 0.000000 0.000000 1.758510 
# 
# From -- ./inp_files/2838.got.cif
#   From: 2010.05.17/outbox.cif.g08.bks.cpg/sg95_2_cif.got.tgz:2838.got - 2010.06.03 19:46:49.
