data_PCOD9550080
_publ_section_title
;
Structure prediction by ZEFSAII (Michael W. Deem and Ramdas Pophale) SiO2 
 PCOD9550080
Probable space group: P 42 21 2
;
_chemical_formula_sum "Si O2"
_cell_formula_units_Z 38
_cell_length_a 10.391033
_cell_length_b 10.391033
_cell_length_c 15.607739
_cell_angle_alpha 90.000000
_cell_angle_beta 90.000000
_cell_angle_gamma 90.000000
_cell_volume 1685.223250
_symmetry_space_group_name_H-M "P 42 21 2"
_symmetry_group_IT_number 94
_symmetry_cell_setting 'tetragonal'
loop_
_space_group_symop_operation_xyz
x,y,z
1/2-y,1/2+x,1/2+z
-x,-y,z
1/2+y,1/2-x,1/2+z
1/2+x,1/2-y,1/2-z
1/2-x,1/2+y,1/2-z
y,x,-z
-y,-x,-z
loop_
_atom_site_type_symbol
_atom_site_label
_atom_site_fract_x
_atom_site_fract_y
_atom_site_fract_z
Si Si1 0.500000 0.500000 0.500000
Si Si2 0.398339 0.298638 0.916600
Si Si3 0.821831 0.821831 0.500000
Si Si4 0.402782 0.115720 0.767483
Si Si5 0.974754 0.151390 0.255619
Si Si6 0.289557 0.391970 0.381881
O O1 0.372857 0.487101 0.441178
O O2 0.544852 0.322550 0.947509
O O3 0.398281 0.168770 0.863189
O O4 0.348902 0.400600 0.845863
O O5 0.310735 0.310735 0.000000
O O6 0.803157 0.697345 0.438736
O O7 0.255555 0.086692 0.740990
O O8 0.456752 0.214845 0.696572
O O9 0.500000 0.000000 0.763291
O O10 0.891055 0.194028 0.172657
O O11 0.000000 0.000000 0.240743
#
# Coordination Sequence:
#
# PCOD9550080 Si02
#       6
#     2   8   4   8   8   8
#     4  10  20  44  62 108 132 192 236 284 352 450
#     4  11  23  41  69 102 135 183 241 301 360 435
#     4  11  21  43  71 104 138 182 241 307 359 425
#     4  11  25  45  69 104 146 187 237 306 373 432
#     4  11  22  43  70  98 135 193 242 286 363 449
#     4  10  22  40  71  99 142 185 238 296 363 440
#
# _framework density 22.548942
#
# number of rings (size 3 to 8) (size 9 to 14) (size 15 to 20)
#    0.000    1.263    1.053    5.368    0.000    5.053 
#    1.895   12.632    0.000    0.000    0.000    0.000 
#    0.000    0.000    0.000    0.000    0.000    0.000 
#
# Total GULP energy -212225.081044 kJ/mol
# GULP energy per Si atom -5584.870554 kJ/mol
# Density = 2.249762 g / cm^3
# Si number density = 22.548942 Si / 1000 Ang^3
#
#
#
# Elastic Constant Matrix: (Units=GPa)
#
#
# Indices 1 2 3 4 5 6 
#
# 1 79.5069 38.3420 38.9212 0.0000 0.0000 0.0000
# 2 38.3420 79.5069 38.9212 0.0000 0.0000 0.0000
# 3 38.9212 38.9212 140.2836 0.0000 0.0000 0.0000
# 4 0.0000 0.0000 0.0000 17.6683 0.0000 0.0000
# 5 0.0000 0.0000 0.0000 0.0000 17.6683 0.0000
# 6 0.0000 0.0000 0.0000 0.0000 0.0000 41.6203
#
#
#
# Elastic Compliance Matrix: (Units=1/GPa)
#
#
# Indices 1 2 3 4 5 6 
#
# 1 0.017341 -0.006952 -0.002883 0.000000 0.000000 0.000000
# 2 -0.006952 0.017341 -0.002883 0.000000 0.000000 0.000000
# 3 -0.002883 -0.002883 0.008728 0.000000 0.000000 0.000000
# 4 0.000000 0.000000 0.000000 0.056598 0.000000 0.000000
# 5 0.000000 0.000000 0.000000 0.000000 0.056598 0.000000
# 6 0.000000 0.000000 0.000000 0.000000 0.000000 0.024027
#
#
# Mechanical properties :
#
#
# Convention : Reuss Voigt Hill
#
# Bulk Modulus (GPa) = 55.62758 59.07405 57.35081
# Shear Modulus (GPa) = 23.57837 27.59894 25.58866
#
# Velocity S-wave (km/s) = 3.23716 3.50231 3.37234
# Velocity P-wave (km/s) = 6.22058 6.52762 6.37595
#
# Compressibility (1/GPa) = 0.01797670
#
# Stress axis : x y z
#
# Youngs Moduli (GPa) = 57.66693 57.66693 114.57511
#
# Poissons Ratio (x) = 0.40087 0.33026
# Poissons Ratio (y) = 0.40087 0.33026
# Poissons Ratio (z) = 0.16623 0.16623
#
# Static dielectric constant tensor:
#      x y z
#    x 1.790920 0.000000 0.000000 
#    y 0.000000 1.790920 0.000000 
#    z 0.000000 0.000000 1.856680 
# 
# From -- ./inp_files/3460.got.cif
#   From: 2010.05.17/outbox.cif.g08.bks.cpg/sg94_2_cif.got.tgz:3460.got - 2010.06.03 19:43:16.
