data_PCOD9550221
_publ_section_title
;
Structure prediction by ZEFSAII (Michael W. Deem and Ramdas Pophale) SiO2 
 PCOD9550221
Probable space group: P 42 21 2
;
_chemical_formula_sum "Si O2"
_cell_formula_units_Z 36
_cell_length_a 9.367860
_cell_length_b 9.367860
_cell_length_c 19.442522
_cell_angle_alpha 90.000000
_cell_angle_beta 90.000000
_cell_angle_gamma 90.000000
_cell_volume 1706.213534
_symmetry_space_group_name_H-M "P 42 21 2"
_symmetry_group_IT_number 94
_symmetry_cell_setting 'tetragonal'
loop_
_space_group_symop_operation_xyz
x,y,z
1/2-y,1/2+x,1/2+z
-x,-y,z
1/2+y,1/2-x,1/2+z
1/2+x,1/2-y,1/2-z
1/2-x,1/2+y,1/2-z
y,x,-z
-y,-x,-z
loop_
_atom_site_type_symbol
_atom_site_label
_atom_site_fract_x
_atom_site_fract_y
_atom_site_fract_z
Si Si1 0.410168 0.145878 0.808360
Si Si2 0.770428 0.573367 0.036273
Si Si3 0.748840 0.748840 0.500000
Si Si4 0.912991 0.853597 0.788541
Si Si5 0.484106 0.835077 0.582194
O O1 0.384604 0.200231 0.885972
O O2 0.254977 0.122763 0.773630
O O3 0.504478 0.262850 0.769057
O O4 0.500000 0.000000 0.810617
O O5 0.771014 0.403145 0.033941
O O6 0.626635 0.626635 0.000000
O O7 0.888789 0.643033 0.986109
O O8 0.626627 0.753580 0.557532
O O9 0.920502 0.758662 0.857404
O O10 0.000000 0.000000 0.797841
O O11 0.500000 0.000000 0.607120
#
# Coordination Sequence:
#
# PCOD9550221 Si02
#       5
#     8   8   4   8   8
#     4  12  27  50  74 106 153 198 257 316 392 466
#     4  11  23  45  70 104 145 192 248 312 371 452
#     4  10  23  36  71 102 140 192 238 307 369 442
#     4  12  28  46  76 109 147 200 250 316 390 466
#     4  10  23  44  69 107 147 190 244 307 376 445
#
# _framework density 21.099352
#
# number of rings (size 3 to 8) (size 9 to 14) (size 15 to 20)
#    0.000    0.889    2.222    4.333    9.333    1.778 
#    0.000    0.000    0.000    0.000    0.000    0.000 
#    0.000    0.000    0.000    0.000    0.000    0.000 
#
# Total GULP energy -201199.440824 kJ/mol
# GULP energy per Si atom -5588.873356 kJ/mol
# Density = 2.105133 g / cm^3
# Si number density = 21.099352 Si / 1000 Ang^3
#
#
#
# Elastic Constant Matrix: (Units=GPa)
#
#
# Indices 1 2 3 4 5 6 
#
# 1 112.4978 47.4622 57.4999 0.0000 0.0000 0.0000
# 2 47.4622 112.4978 57.4999 0.0000 0.0000 0.0000
# 3 57.4999 57.4999 115.7407 0.0000 0.0000 0.0000
# 4 0.0000 0.0000 0.0000 9.9897 0.0000 0.0000
# 5 0.0000 0.0000 0.0000 0.0000 9.9897 0.0000
# 6 0.0000 0.0000 0.0000 0.0000 0.0000 33.6602
#
#
#
# Elastic Compliance Matrix: (Units=1/GPa)
#
#
# Indices 1 2 3 4 5 6 
#
# 1 0.012551 -0.002826 -0.004831 0.000000 0.000000 0.000000
# 2 -0.002826 0.012551 -0.004831 0.000000 0.000000 0.000000
# 3 -0.004831 -0.004831 0.013440 0.000000 0.000000 0.000000
# 4 0.000000 0.000000 0.000000 0.100103 0.000000 0.000000
# 5 0.000000 0.000000 0.000000 0.000000 0.100103 0.000000
# 6 0.000000 0.000000 0.000000 0.000000 0.000000 0.029709
#
#
# Mechanical properties :
#
#
# Convention : Reuss Voigt Hill
#
# Bulk Modulus (GPa) = 73.71948 73.96226 73.84087
# Shear Modulus (GPa) = 16.78112 22.61289 19.69700
#
# Velocity S-wave (km/s) = 2.82323 3.27729 3.05870
# Velocity P-wave (km/s) = 6.75593 7.03215 6.89543
#
# Compressibility (1/GPa) = 0.01356493
#
# Stress axis : x y z
#
# Youngs Moduli (GPa) = 79.67763 79.67763 74.40237
#
# Poissons Ratio (x) = 0.22514 0.35946
# Poissons Ratio (y) = 0.22514 0.35946
# Poissons Ratio (z) = 0.38495 0.38495
#
# Static dielectric constant tensor:
#      x y z
#    x 2.180750 0.000000 0.000000 
#    y 0.000000 2.180750 0.000000 
#    z 0.000000 0.000000 1.741080 
# 
# From -- ./inp_files/4529.got.cif
#   From: 2010.05.17/outbox.cif.g08.bks.cpg/sg94_3_cif.got.tgz:4529.got - 2010.06.03 19:43:16.
