data_PCOD9550009
_publ_section_title
;
Structure prediction by ZEFSAII (Michael W. Deem and Ramdas Pophale) SiO2 
 PCOD9550009
Probable space group: P 42 21 2
;
_chemical_formula_sum "Si O2"
_cell_formula_units_Z 34
_cell_length_a 7.581090
_cell_length_b 7.581090
_cell_length_c 27.760286
_cell_angle_alpha 90.000000
_cell_angle_beta 90.000000
_cell_angle_gamma 90.000000
_cell_volume 1595.464852
_symmetry_space_group_name_H-M "P 42 21 2"
_symmetry_group_IT_number 94
_symmetry_cell_setting 'tetragonal'
loop_
_space_group_symop_operation_xyz
x,y,z
1/2-y,1/2+x,1/2+z
-x,-y,z
1/2+y,1/2-x,1/2+z
1/2+x,1/2-y,1/2-z
1/2-x,1/2+y,1/2-z
y,x,-z
-y,-x,-z
loop_
_atom_site_type_symbol
_atom_site_label
_atom_site_fract_x
_atom_site_fract_y
_atom_site_fract_z
Si Si1 0.816148 0.290327 0.296103
Si Si2 0.735316 0.177596 0.188989
Si Si3 0.286521 0.504157 0.128444
Si Si4 0.500000 0.500000 0.500000
Si Si5 0.873750 0.645216 0.031210
O O1 0.802231 0.257114 0.239328
O O2 0.721214 0.470898 0.311758
O O3 0.748736 0.124554 0.326403
O O4 0.022633 0.309321 0.307785
O O5 0.780076 0.302690 0.144288
O O6 0.500000 0.500000 0.121211
O O7 0.192388 0.430365 0.081455
O O8 0.674333 0.486399 0.532538
O O9 0.000000 0.500000 0.007260
O O10 0.704824 0.704824 0.000000
#
# Coordination Sequence:
#
# PCOD9550009 Si02
#       5
#     8   8   8   2   8
#     4  10  20  35  56  88 133 180 217 282 325 389
#     4  10  20  35  57  88 132 173 232 269 327 400
#     4  10  22  39  62  99 125 176 237 273 343 422
#     4   8  24  48  68 108 144 156 238 290 352 448
#     4  10  24  48  74 100 139 174 225 297 361 421
#
# _framework density 21.310403999999998
#
# number of rings (size 3 to 8) (size 9 to 14) (size 15 to 20)
#    0.706    1.412    2.353    0.000    0.000    6.118 
#    8.471    0.000    0.000    0.000    0.000    0.000 
#    0.000    0.000    0.000    0.000    0.000    0.000 
#
# Total GULP energy -189753.159426 kJ/mol
# GULP energy per Si atom -5580.975277 kJ/mol
# Density = 2.126190 g / cm^3
# Si number density = 21.310404 Si / 1000 Ang^3
#
#
#
# Elastic Constant Matrix: (Units=GPa)
#
#
# Indices 1 2 3 4 5 6 
#
# 1 95.0170 27.8737 30.4722 0.0000 0.0000 0.0000
# 2 27.8737 95.0170 30.4722 0.0000 0.0000 0.0000
# 3 30.4722 30.4722 93.3682 0.0000 0.0000 0.0000
# 4 0.0000 0.0000 0.0000 3343.9511 0.0000 0.0000
# 5 0.0000 0.0000 0.0000 0.0000 3343.9511 0.0000
# 6 0.0000 0.0000 0.0000 0.0000 0.0000 22.5265
#
#
#
# Elastic Compliance Matrix: (Units=1/GPa)
#
#
# Indices 1 2 3 4 5 6 
#
# 1 0.012301 -0.002592 -0.003169 0.000000 0.000000 0.000000
# 2 -0.002592 0.012301 -0.003169 0.000000 0.000000 0.000000
# 3 -0.003169 -0.003169 0.012779 0.000000 0.000000 0.000000
# 4 0.000000 0.000000 0.000000 0.000299 0.000000 0.000000
# 5 0.000000 0.000000 0.000000 0.000000 0.000299 0.000000
# 6 0.000000 0.000000 0.000000 0.000000 0.000000 0.044392
#
#
# Mechanical properties :
#
#
# Convention : Reuss Voigt Hill
#
# Bulk Modulus (GPa) = 51.22540 51.22647 51.22594
# Shear Modulus (GPa) = 46.84392 1355.05800 700.95096
#
# Velocity S-wave (km/s) = 4.69355 25.24376 18.15595
# Velocity P-wave (km/s) = 7.31181 29.55932 21.53156
#
# Compressibility (1/GPa) = 0.01952156
#
# Stress axis : x y z
#
# Youngs Moduli (GPa) = 81.29347 81.29347 78.25636
#
# Poissons Ratio (x) = 0.21075 0.24796
# Poissons Ratio (y) = 0.21075 0.24796
# Poissons Ratio (z) = 0.25758 0.25758
#
# Static dielectric constant tensor:
#      x y z
#    x 1.250630 0.000000 0.000000 
#    y 0.000000 1.250630 0.000000 
#    z 0.000000 0.000000 1.714310 
# 
# From -- ./inp_files/5427.got.cif
#   From: 2010.05.17/outbox.cif.g08.bks.cpg/sg94_3_cif.got.tgz:5427.got - 2010.06.03 19:43:16.
