data_PCOD9550066
_publ_section_title
;
Structure prediction by ZEFSAII (Michael W. Deem and Ramdas Pophale) SiO2 
 PCOD9550066
Probable space group: P 42 21 2
;
_chemical_formula_sum "Si O2"
_cell_formula_units_Z 38
_cell_length_a 11.321593
_cell_length_b 11.321593
_cell_length_c 16.003579
_cell_angle_alpha 90.000000
_cell_angle_beta 90.000000
_cell_angle_gamma 90.000000
_cell_volume 2051.314240
_symmetry_space_group_name_H-M "P 42 21 2"
_symmetry_group_IT_number 94
_symmetry_cell_setting 'tetragonal'
loop_
_space_group_symop_operation_xyz
x,y,z
1/2-y,1/2+x,1/2+z
-x,-y,z
1/2+y,1/2-x,1/2+z
1/2+x,1/2-y,1/2-z
1/2-x,1/2+y,1/2-z
y,x,-z
-y,-x,-z
loop_
_atom_site_type_symbol
_atom_site_label
_atom_site_fract_x
_atom_site_fract_y
_atom_site_fract_z
Si Si1 0.219682 0.780319 0.500000
Si Si2 0.693249 0.420693 0.624369
Si Si3 0.881503 0.572583 0.722863
Si Si4 0.813706 0.054917 0.640112
Si Si5 0.000000 0.000000 0.000000
Si Si6 0.159217 0.062110 0.294531
O O1 0.247560 0.686361 0.572844
O O2 0.218048 0.904406 0.547610
O O3 0.796996 0.501451 0.660178
O O4 0.613058 0.492868 0.559664
O O5 0.607845 0.376687 0.700640
O O6 0.800586 0.580953 0.804766
O O7 0.916913 0.702982 0.694273
O O8 0.000000 0.500000 0.738669
O O9 0.927379 0.123069 0.681893
O O10 0.853709 0.919690 0.646973
#
# Coordination Sequence:
#
# PCOD9550066 Si02
#       6
#     4   8   8   8   2   8
#     4  11  20  40  64  93 134 162 200 287 323 357
#     4  10  21  39  62  92 126 169 213 257 327 365
#     4  11  22  39  64  93 120 167 218 258 300 393
#     4  10  22  39  62  90 124 168 210 253 330 367
#     4  10  20  40  64  86 132 170 208 270 320 384
#     4  10  21  40  65  89 122 172 217 250 299 404
#
# _framework density 18.524706999999999
#
# number of rings (size 3 to 8) (size 9 to 14) (size 15 to 20)
#    0.000    1.684    2.105    3.789    2.947    1.684 
#    0.000    7.368    0.000    0.000    0.000    0.000 
#    0.000    0.000    0.000    0.000    0.000    0.000 
#
# Total GULP energy -211930.091949 kJ/mol
# GULP energy per Si atom -5577.107683 kJ/mol
# Density = 1.848254 g / cm^3
# Si number density = 18.524707 Si / 1000 Ang^3
#
#
#
# Elastic Constant Matrix: (Units=GPa)
#
#
# Indices 1 2 3 4 5 6 
#
# 1 80.8501 47.7696 15.0257 0.0000 0.0000 0.0000
# 2 47.7696 80.8520 15.0272 0.0000 0.0000 0.0000
# 3 15.0257 15.0272 65.6585 0.0000 0.0000 0.0000
# 4 0.0000 0.0000 0.0000 19.1202 0.0000 0.0000
# 5 0.0000 0.0000 0.0000 0.0000 19.1198 0.0000
# 6 0.0000 0.0000 0.0000 0.0000 0.0000 22.4299
#
#
#
# Elastic Compliance Matrix: (Units=1/GPa)
#
#
# Indices 1 2 3 4 5 6 
#
# 1 0.019221 -0.011007 -0.001880 0.000000 0.000000 0.000000
# 2 -0.011007 0.019221 -0.001880 0.000000 0.000000 0.000000
# 3 -0.001880 -0.001880 0.016091 0.000000 0.000000 0.000000
# 4 0.000000 0.000000 0.000000 0.052301 0.000000 0.000000
# 5 0.000000 0.000000 0.000000 0.000000 0.052302 0.000000
# 6 0.000000 0.000000 0.000000 0.000000 0.000000 0.044583
#
#
# Mechanical properties :
#
#
# Convention : Reuss Voigt Hill
#
# Bulk Modulus (GPa) = 40.00090 42.55619 41.27854
# Shear Modulus (GPa) = 20.69655 22.10318 21.39987
#
# Velocity S-wave (km/s) = 3.34614 3.45798 3.40252
# Velocity P-wave (km/s) = 6.04723 6.24228 6.14553
#
# Compressibility (1/GPa) = 0.02499944
#
# Stress axis : x y z
#
# Youngs Moduli (GPa) = 52.02540 52.02616 62.14754
#
# Poissons Ratio (x) = 0.57266 0.11681
# Poissons Ratio (y) = 0.57265 0.11685
# Poissons Ratio (z) = 0.09778 0.09782
#
# Static dielectric constant tensor:
#      x y z
#    x 1.646680 0.000000 0.000000 
#    y 0.000000 1.646680 0.000000 
#    z 0.000000 0.000000 1.659780 
# 
# From -- ./inp_files/3439.got.cif
#   From: 2010.05.17/outbox.cif.g08.bks.cpg/sg94_2_cif.got.tgz:3439.got - 2010.06.03 19:43:16.
