data_PCOD9550586
_publ_section_title
;
Structure prediction by ZEFSAII (Michael W. Deem and Ramdas Pophale) SiO2 
 PCOD9550586
Probable space group: P 43 2 2
;
_chemical_formula_sum "Si O2"
_cell_formula_units_Z 28
_cell_length_a 18.219144
_cell_length_b 18.219144
_cell_length_c 4.935678
_cell_angle_alpha 90.000000
_cell_angle_beta 90.000000
_cell_angle_gamma 90.000000
_cell_volume 1638.335175
_symmetry_space_group_name_H-M "P 43 2 2"
_symmetry_group_IT_number 95
_symmetry_cell_setting 'tetragonal'
loop_
_space_group_symop_operation_xyz
x,y,z
-y,x,3/4+z
-x,-y,1/2+z
y,-x,1/4+z
x,-y,1/2-z
-x,y,-z
y,x,1/4-z
-y,-x,3/4-z
loop_
_atom_site_type_symbol
_atom_site_label
_atom_site_fract_x
_atom_site_fract_y
_atom_site_fract_z
Si Si1 0.804058 0.085737 0.790221
Si Si2 0.866487 0.667034 0.873118
Si Si3 0.578626 0.917177 0.867466
Si Si4 0.220117 0.779884 0.875000
O O1 0.882525 0.117476 0.875000
O O2 0.782822 0.147136 0.563433
O O3 0.810161 0.000000 0.750000
O O4 0.738303 0.092736 0.005311
O O5 0.867861 0.606979 0.633269
O O6 0.907253 0.634160 0.133209
O O7 0.789429 0.704177 0.961369
O O8 0.577141 0.000000 0.750000
O O9 0.500000 0.899976 0.000000
#
# Coordination Sequence:
#
# PCOD9550586 Si02
#       4
#     8   8   8   4
#     4  10  22  37  55  77 100 138 190 242 299 350
#     4  11  22  37  57  79 108 142 185 240 279 345
#     4  12  24  36  56  84 114 144 182 231 300 354
#     4  10  22  38  58  82 100 146 200 234 298 354
#
# _framework density 17.090517999999999
#
# number of rings (size 3 to 8) (size 9 to 14) (size 15 to 20)
#    0.000    1.143    2.857    4.286    4.000    3.429 
#    2.571    0.000    0.000    0.000    0.000    0.000 
#    0.000    0.000    0.000    0.000    0.000    5.714 
#
# Total GULP energy -156014.830000 kJ/mol
# GULP energy per Si atom -5571.958214 kJ/mol
# Density = 1.705162 g / cm^3
# Si number density = 17.090518 Si / 1000 Ang^3
#
#
#
# Elastic Constant Matrix: (Units=GPa)
#
#
# Indices 1 2 3 4 5 6 
#
# 1 99.5877 34.8386 42.1885 0.0000 0.0000 0.0000
# 2 34.8386 99.5899 42.1896 0.0000 0.0000 0.0000
# 3 42.1885 42.1896 117.3056 0.0000 0.0000 0.0000
# 4 0.0000 0.0000 0.0000 31.4189 0.0000 0.0000
# 5 0.0000 0.0000 0.0000 0.0000 31.4181 0.0000
# 6 0.0000 0.0000 0.0000 0.0000 0.0000 9.3880
#
#
#
# Elastic Compliance Matrix: (Units=1/GPa)
#
#
# Indices 1 2 3 4 5 6 
#
# 1 0.012526 -0.002918 -0.003455 0.000000 0.000000 0.000000
# 2 -0.002918 0.012526 -0.003456 0.000000 0.000000 0.000000
# 3 -0.003455 -0.003456 0.011010 0.000000 0.000000 0.000000
# 4 0.000000 0.000000 0.000000 0.031828 0.000000 0.000000
# 5 0.000000 0.000000 0.000000 0.000000 0.031829 0.000000
# 6 0.000000 0.000000 0.000000 0.000000 0.000000 0.106519
#
#
# Mechanical properties :
#
#
# Convention : Reuss Voigt Hill
#
# Bulk Modulus (GPa) = 60.96019 61.65740 61.30879
# Shear Modulus (GPa) = 21.61100 27.59610 24.60355
#
# Velocity S-wave (km/s) = 3.55984 4.02270 3.79833
# Velocity P-wave (km/s) = 7.25556 7.59812 7.42881
#
# Compressibility (1/GPa) = 0.01640415
#
# Stress axis : x y z
#
# Youngs Moduli (GPa) = 79.83357 79.83493 90.82418
#
# Poissons Ratio (x) = 0.23296 0.31384
# Poissons Ratio (y) = 0.23296 0.31385
# Poissons Ratio (z) = 0.27586 0.27587
#
# Static dielectric constant tensor:
#      x y z
#    x 1.604310 0.000000 0.000000 
#    y 0.000000 1.604310 0.000000 
#    z 0.000000 0.000000 1.717200 
# 
# From -- ./inp_files/542.got.cif
#   From: 2010.05.17/outbox.cif.g08.bks.cpg/sg95_1_cif.got.tgz:542.got - 2010.06.03 19:46:49.
