data_PCOD9550086
_publ_section_title
;
Structure prediction by ZEFSAII (Michael W. Deem and Ramdas Pophale) SiO2 
 PCOD9550086
Probable space group: P 42 21 2
;
_chemical_formula_sum "Si O2"
_cell_formula_units_Z 40
_cell_length_a 9.058830
_cell_length_b 9.058830
_cell_length_c 24.959989
_cell_angle_alpha 90.000000
_cell_angle_beta 90.000000
_cell_angle_gamma 90.000000
_cell_volume 2048.276625
_symmetry_space_group_name_H-M "P 42 21 2"
_symmetry_group_IT_number 94
_symmetry_cell_setting 'tetragonal'
loop_
_space_group_symop_operation_xyz
x,y,z
1/2-y,1/2+x,1/2+z
-x,-y,z
1/2+y,1/2-x,1/2+z
1/2+x,1/2-y,1/2-z
1/2-x,1/2+y,1/2-z
y,x,-z
-y,-x,-z
loop_
_atom_site_type_symbol
_atom_site_label
_atom_site_fract_x
_atom_site_fract_y
_atom_site_fract_z
Si Si1 0.633062 0.891811 0.353968
Si Si2 0.346750 0.590000 0.776944
Si Si3 0.934770 0.338701 0.365013
Si Si4 0.373371 0.621691 0.939875
Si Si5 0.152017 0.090086 0.847937
O O1 0.750320 0.858284 0.306368
O O2 0.742863 0.929860 0.403000
O O3 0.531679 0.757728 0.373649
O O4 0.500000 0.000000 0.337274
O O5 0.500000 0.500000 0.780415
O O6 0.235908 0.485966 0.809469
O O7 0.307046 0.608099 0.714987
O O8 0.756545 0.340855 0.371025
O O9 0.000000 0.500000 0.363846
O O10 0.030661 0.254133 0.409767
O O11 0.500000 0.500000 0.942966
O O12 0.331911 0.668089 0.000000
O O13 0.000000 0.000000 0.848817
#
# Coordination Sequence:
#
# PCOD9550086 Si02
#       5
#     8   8   8   8   8
#     4  11  21  35  58  85 114 147 195 250 291 341
#     4  10  21  36  54  81 119 163 200 227 277 356
#     4  11  22  38  58  83 118 155 194 243 295 349
#     4  10  22  42  64  84 109 149 197 243 299 364
#     4  11  22  35  55  85 121 157 191 234 289 346
#
# _framework density 19.528614000000001
#
# number of rings (size 3 to 8) (size 9 to 14) (size 15 to 20)
#    0.000    1.400    0.000    8.400    0.000    7.200 
#    0.000    0.000    0.000    4.200    0.000    0.000 
#    0.000    0.000    0.000    0.000    0.000    0.000 
#
# Total GULP energy -222929.050075 kJ/mol
# GULP energy per Si atom -5573.226252 kJ/mol
# Density = 1.948417 g / cm^3
# Si number density = 19.528614 Si / 1000 Ang^3
#
#
#
# Elastic Constant Matrix: (Units=GPa)
#
#
# Indices 1 2 3 4 5 6 
#
# 1 126.9921 17.1247 9.3008 0.0000 0.0000 0.0000
# 2 17.1247 126.9921 9.3008 0.0000 0.0000 0.0000
# 3 9.3008 9.3008 37.1994 0.0000 0.0000 0.0000
# 4 0.0000 0.0000 0.0000 1.4921 0.0000 0.0000
# 5 0.0000 0.0000 0.0000 0.0000 1.4921 0.0000
# 6 0.0000 0.0000 0.0000 0.0000 0.0000 33.8105
#
#
#
# Elastic Compliance Matrix: (Units=1/GPa)
#
#
# Indices 1 2 3 4 5 6 
#
# 1 0.008136 -0.000966 -0.001793 0.000000 0.000000 0.000000
# 2 -0.000966 0.008136 -0.001793 0.000000 0.000000 0.000000
# 3 -0.001793 -0.001793 0.027779 0.000000 0.000000 0.000000
# 4 0.000000 0.000000 0.000000 0.670196 0.000000 0.000000
# 5 0.000000 0.000000 0.000000 0.000000 0.670196 0.000000
# 6 0.000000 0.000000 0.000000 0.000000 0.000000 0.029577
#
#
# Mechanical properties :
#
#
# Convention : Reuss Voigt Hill
#
# Bulk Modulus (GPa) = 28.61384 40.29292 34.45338
# Shear Modulus (GPa) = 3.48488 24.38942 13.93715
#
# Velocity S-wave (km/s) = 1.33730 3.53782 2.67437
# Velocity P-wave (km/s) = 4.13141 6.11276 5.21701
#
# Compressibility (1/GPa) = 0.03494812
#
# Stress axis : x y z
#
# Youngs Moduli (GPa) = 122.90986 122.90986 35.99888
#
# Poissons Ratio (x) = 0.11871 0.06454
# Poissons Ratio (y) = 0.11871 0.06454
# Poissons Ratio (z) = 0.22034 0.22034
#
# Static dielectric constant tensor:
#      x y z
#    x 2.290060 0.000000 0.000000 
#    y 0.000000 2.290060 0.000000 
#    z 0.000000 0.000000 1.789340 
# 
# From -- ./inp_files/5260.got.cif
#   From: 2010.05.17/outbox.cif.g08.bks.cpg/sg94_3_cif.got.tgz:5260.got - 2010.06.03 19:43:16.
