data_PCOD9550722
_publ_section_title
;
Structure prediction by ZEFSAII (Michael W. Deem and Ramdas Pophale) SiO2 
 PCOD9550722
Probable space group: P 43 21 2
;
_chemical_formula_sum "Si O2"
_cell_formula_units_Z 32
_cell_length_a 13.553347
_cell_length_b 13.553347
_cell_length_c 7.906022
_cell_angle_alpha 90.000000
_cell_angle_beta 90.000000
_cell_angle_gamma 90.000000
_cell_volume 1452.282598
_symmetry_space_group_name_H-M "P 43 21 2"
_symmetry_group_IT_number 96
_symmetry_cell_setting 'tetragonal'
loop_
_space_group_symop_operation_xyz
x,y,z
1/2-y,1/2+x,3/4+z
-x,-y,1/2+z
1/2+y,1/2-x,1/4+z
1/2+x,1/2-y,1/4-z
1/2-x,1/2+y,3/4-z
y,x,-z
-y,-x,1/2-z
loop_
_atom_site_type_symbol
_atom_site_label
_atom_site_fract_x
_atom_site_fract_y
_atom_site_fract_z
Si Si1 0.398773 0.756369 0.685002
Si Si2 0.118453 0.960954 0.068507
Si Si3 0.824672 0.979694 0.077222
Si Si4 0.465860 0.118279 0.766446
O O1 0.301222 0.698779 0.750000
O O2 0.490677 0.726443 0.808115
O O3 0.437711 0.710151 0.506873
O O4 0.378831 0.871142 0.644807
O O5 0.079548 0.920453 0.250000
O O6 0.086486 0.876705 0.936514
O O7 0.050682 0.050682 0.000000
O O8 0.726168 0.996102 0.971707
O O9 0.900532 0.900532 0.000000
O O10 0.433766 0.055407 0.608971
#
# Coordination Sequence:
#
# PCOD9550722 Si02
#       4
#     8   8   8   8
#     4  10  20  36  59  89 120 158 197 238 298 359
#     4  10  18  31  57  90 120 152 194 248 297 344
#     4  10  20  38  61  87 118 152 201 254 297 350
#     4  10  24  41  59  84 119 160 196 242 303 363
#
# _framework density 22.034279999999999
#
# number of rings (size 3 to 8) (size 9 to 14) (size 15 to 20)
#    0.000    2.000    0.000    6.750    0.000    8.000 
#    0.000    7.500    0.000    0.000    0.000    0.000 
#    0.000    0.000    0.000    0.000    0.000    0.000 
#
# Total GULP energy -178342.457976 kJ/mol
# GULP energy per Si atom -5573.201812 kJ/mol
# Density = 2.198413 g / cm^3
# Si number density = 22.034280 Si / 1000 Ang^3
#
#
#
# Elastic Constant Matrix: (Units=GPa)
#
#
# Indices 1 2 3 4 5 6 
#
# 1 45.7470 65.4629 5.7352 0.0000 0.0000 0.0000
# 2 65.4629 45.7435 5.7350 0.0000 0.0000 0.0000
# 3 5.7352 5.7350 72.5596 0.0000 0.0000 0.0000
# 4 0.0000 0.0000 0.0000 24.1030 0.0000 0.0000
# 5 0.0000 0.0000 0.0000 0.0000 24.1037 0.0000
# 6 0.0000 0.0000 0.0000 0.0000 0.0000 24.0915
#
#
#
# Elastic Compliance Matrix: (Units=1/GPa)
#
#
# Indices 1 2 3 4 5 6 
#
# 1 -0.020824 0.029891 -0.000717 0.000000 0.000000 0.000000
# 2 0.029891 -0.020826 -0.000717 0.000000 0.000000 0.000000
# 3 -0.000717 -0.000717 0.013895 0.000000 0.000000 0.000000
# 4 0.000000 0.000000 0.000000 0.041489 0.000000 0.000000
# 5 0.000000 0.000000 0.000000 0.000000 0.041487 0.000000
# 6 0.000000 0.000000 0.000000 0.000000 0.000000 0.041508
#
#
# Mechanical properties :
#
#
# Convention : Reuss Voigt Hill
#
# Bulk Modulus (GPa) = 34.29256 35.32403 34.80830
# Shear Modulus (GPa) = 100.94135 20.26745 60.60440
#
# Velocity S-wave (km/s) = 6.77573 3.03613 5.25017
# Velocity P-wave (km/s) = 8.76419 5.32513 7.25149
#
# Compressibility (1/GPa) = 0.02916084
#
# Stress axis : x y z
#
# Youngs Moduli (GPa) = -48.02091 -48.01721 71.96804
#
# Poissons Ratio (x) = 1.43529 0.05157
# Poissons Ratio (y) = 1.43540 0.05157
# Poissons Ratio (z) = -0.03441 -0.03441
#
# Static dielectric constant tensor:
#      x y z
#    x 1.874040 0.000000 0.000000 
#    y 0.000000 1.874040 0.000000 
#    z 0.000000 0.000000 1.865770 
# 
# From -- ./inp_files/1135.got.cif
#   From: 2010.05.17/outbox.cif.g08.bks.cpg/sg96_1_cif.got.tgz:1135.got - 2010.06.03 19:52:08.
