data_PCOD9550246
_publ_section_title
;
Structure prediction by ZEFSAII (Michael W. Deem and Ramdas Pophale) SiO2 
 PCOD9550246
Probable space group: P 42 21 2
;
_chemical_formula_sum "Si O2"
_cell_formula_units_Z 26
_cell_length_a 10.093603
_cell_length_b 10.093603
_cell_length_c 10.288911
_cell_angle_alpha 90.000000
_cell_angle_beta 90.000000
_cell_angle_gamma 90.000000
_cell_volume 1048.242705
_symmetry_space_group_name_H-M "P 42 21 2"
_symmetry_group_IT_number 94
_symmetry_cell_setting 'tetragonal'
loop_
_space_group_symop_operation_xyz
x,y,z
1/2-y,1/2+x,1/2+z
-x,-y,z
1/2+y,1/2-x,1/2+z
1/2+x,1/2-y,1/2-z
1/2-x,1/2+y,1/2-z
y,x,-z
-y,-x,-z
loop_
_atom_site_type_symbol
_atom_site_label
_atom_site_fract_x
_atom_site_fract_y
_atom_site_fract_z
Si Si1 0.675361 0.886774 0.256172
Si Si2 0.022586 0.313052 0.030259
Si Si3 0.312668 0.395042 0.131004
Si Si4 0.500000 0.500000 0.500000
O O1 0.587596 0.886977 0.386118
O O2 0.658562 0.733876 0.216827
O O3 0.809904 0.962184 0.300304
O O4 0.649181 0.969499 0.123029
O O5 0.002744 0.154727 0.047677
O O6 0.164126 0.353087 0.087592
O O7 0.395135 0.395135 0.000000
#
# Coordination Sequence:
#
# PCOD9550246 Si02
#       4
#     8   8   8   2
#     4  11  23  44  73 108 149 206 259 329 396 476
#     4  11  24  43  75 107 154 200 271 327 406 477
#     4  10  23  43  66 106 149 194 262 323 382 479
#     4  12  20  48  76 112 152 218 256 342 412 472
#
# _framework density 24.803417
#
# number of rings (size 3 to 8) (size 9 to 14) (size 15 to 20)
#    0.000    1.231    4.615    2.769    0.000    9.846 
#    0.000    0.000    0.000    5.538    0.000    0.000 
#    0.000    0.000    0.000    0.000    0.000    0.000 
#
# Total GULP energy -144743.067146 kJ/mol
# GULP energy per Si atom -5567.041044 kJ/mol
# Density = 2.474696 g / cm^3
# Si number density = 24.803417 Si / 1000 Ang^3
#
#
#
# Elastic Constant Matrix: (Units=GPa)
#
#
# Indices 1 2 3 4 5 6 
#
# 1 91.1863 54.3059 43.4396 0.0000 0.0000 0.0000
# 2 54.3059 91.1863 43.4396 0.0000 0.0000 0.0000
# 3 43.4396 43.4396 155.6591 0.0000 0.0000 0.0000
# 4 0.0000 0.0000 0.0000 13.4801 0.0000 0.0000
# 5 0.0000 0.0000 0.0000 0.0000 13.4801 0.0000
# 6 0.0000 0.0000 0.0000 0.0000 0.0000 32.3752
#
#
#
# Elastic Compliance Matrix: (Units=1/GPa)
#
#
# Indices 1 2 3 4 5 6 
#
# 1 0.017681 -0.009434 -0.002302 0.000000 0.000000 0.000000
# 2 -0.009434 0.017681 -0.002302 0.000000 0.000000 0.000000
# 3 -0.002302 -0.002302 0.007709 0.000000 0.000000 0.000000
# 4 0.000000 0.000000 0.000000 0.074183 0.000000 0.000000
# 5 0.000000 0.000000 0.000000 0.000000 0.074183 0.000000
# 6 0.000000 0.000000 0.000000 0.000000 0.000000 0.030888
#
#
# Mechanical properties :
#
#
# Convention : Reuss Voigt Hill
#
# Bulk Modulus (GPa) = 66.67748 68.93357 67.80553
# Shear Modulus (GPa) = 19.57723 24.99018 22.28371
#
# Velocity S-wave (km/s) = 2.81249 3.17760 3.00061
# Velocity P-wave (km/s) = 6.12271 6.42769 6.27705
#
# Compressibility (1/GPa) = 0.01499757
#
# Stress axis : x y z
#
# Youngs Moduli (GPa) = 56.55744 56.55744 129.71951
#
# Poissons Ratio (x) = 0.53354 0.29857
# Poissons Ratio (y) = 0.53354 0.29857
# Poissons Ratio (z) = 0.13018 0.13018
#
# Static dielectric constant tensor:
#      x y z
#    x 1.996710 0.000000 0.000000 
#    y 0.000000 1.996710 0.000000 
#    z 0.000000 0.000000 2.312100 
# 
# From -- ./inp_files/1003.got.cif
#   From: 2010.05.17/outbox.cif.g08.bks.cpg/sg94_1_cif.got.tgz:1003.got - 2010.06.03 19:43:16.
