data_PCOD9550291
_publ_section_title
;
Structure prediction by ZEFSAII (Michael W. Deem and Ramdas Pophale) SiO2 
 PCOD9550291
Probable space group: P 42 21 2
;
_chemical_formula_sum "Si O2"
_cell_formula_units_Z 40
_cell_length_a 8.343032
_cell_length_b 8.343032
_cell_length_c 23.528028
_cell_angle_alpha 90.000000
_cell_angle_beta 90.000000
_cell_angle_gamma 90.000000
_cell_volume 1637.696221
_symmetry_space_group_name_H-M "P 42 21 2"
_symmetry_group_IT_number 94
_symmetry_cell_setting 'tetragonal'
loop_
_space_group_symop_operation_xyz
x,y,z
1/2-y,1/2+x,1/2+z
-x,-y,z
1/2+y,1/2-x,1/2+z
1/2+x,1/2-y,1/2-z
1/2-x,1/2+y,1/2-z
y,x,-z
-y,-x,-z
loop_
_atom_site_type_symbol
_atom_site_label
_atom_site_fract_x
_atom_site_fract_y
_atom_site_fract_z
Si Si1 0.399661 0.664244 0.344808
Si Si2 0.000000 0.500000 0.176411
Si Si3 0.212903 0.787098 0.000000
Si Si4 0.392020 0.660874 0.782313
Si Si5 0.907329 0.827820 0.406214
Si Si6 0.314157 0.132575 0.046273
O O1 0.500000 0.500000 0.346645
O O2 0.485298 0.833044 0.356665
O O3 0.336713 0.681992 0.280237
O O4 0.270276 0.648673 0.393118
O O5 0.832819 0.476483 0.210039
O O6 0.255498 0.669628 0.052461
O O7 0.246386 0.968861 0.019020
O O8 0.500000 0.500000 0.781622
O O9 0.291730 0.636058 0.840547
O O10 0.007866 0.684081 0.434901
O O11 0.000000 0.000000 0.407628
O O12 0.264092 0.264092 0.000000
#
# Coordination Sequence:
#
# PCOD9550291 Si02
#       6
#     8   4   4   8   8   8
#     4  11  27  50  78 120 163 210 277 345 407 516
#     4  12  28  46  86 112 166 226 246 356 426 482
#     4  12  26  46  74 116 156 218 260 338 418 478
#     4  10  26  50  77 123 159 207 287 334 414 507
#     4  11  25  49  78 113 156 210 280 338 405 508
#     4  12  27  49  75 112 162 207 271 344 406 500
#
# _framework density 24.424554000000001
#
# number of rings (size 3 to 8) (size 9 to 14) (size 15 to 20)
#    0.000    0.800    0.000    6.000   14.000    0.000 
#    0.000    0.000    0.000    0.000    0.000    0.000 
#    0.000    0.000    0.000    0.000    0.000    0.000 
#
# Total GULP energy -223401.535228 kJ/mol
# GULP energy per Si atom -5585.038381 kJ/mol
# Density = 2.436896 g / cm^3
# Si number density = 24.424554 Si / 1000 Ang^3
#
#
#
# Elastic Constant Matrix: (Units=GPa)
#
#
# Indices 1 2 3 4 5 6 
#
# 1 127.0854 48.6287 36.0559 0.0000 0.0000 0.0000
# 2 48.6287 127.0857 36.0561 0.0000 0.0000 0.0000
# 3 36.0559 36.0561 192.5571 0.0000 0.0000 0.0000
# 4 0.0000 0.0000 0.0000 51.3945 0.0000 0.0000
# 5 0.0000 0.0000 0.0000 0.0000 51.3861 0.0000
# 6 0.0000 0.0000 0.0000 0.0000 0.0000 17.0148
#
#
#
# Elastic Compliance Matrix: (Units=1/GPa)
#
#
# Indices 1 2 3 4 5 6 
#
# 1 0.009455 -0.003291 -0.001154 0.000000 0.000000 0.000000
# 2 -0.003291 0.009455 -0.001154 0.000000 0.000000 0.000000
# 3 -0.001154 -0.001154 0.005626 0.000000 0.000000 0.000000
# 4 0.000000 0.000000 0.000000 0.019457 0.000000 0.000000
# 5 0.000000 0.000000 0.000000 0.000000 0.019461 0.000000
# 6 0.000000 0.000000 0.000000 0.000000 0.000000 0.058772
#
#
# Mechanical properties :
#
#
# Convention : Reuss Voigt Hill
#
# Bulk Modulus (GPa) = 74.97510 76.46774 75.72142
# Shear Modulus (GPa) = 36.26586 45.69158 40.97872
#
# Velocity S-wave (km/s) = 3.85751 4.32988 4.10050
# Velocity P-wave (km/s) = 7.11363 7.50818 7.31357
#
# Compressibility (1/GPa) = 0.01333776
#
# Stress axis : x y z
#
# Youngs Moduli (GPa) = 105.76039 105.76059 177.75992
#
# Poissons Ratio (x) = 0.34801 0.20520
# Poissons Ratio (y) = 0.34801 0.20520
# Poissons Ratio (z) = 0.12208 0.12209
#
# Static dielectric constant tensor:
#      x y z
#    x 1.915180 0.000000 0.000000 
#    y 0.000000 1.915170 0.000000 
#    z 0.000000 0.000000 1.931960 
# 
# From -- ./inp_files/5002.got.cif
#   From: 2010.05.17/outbox.cif.g08.bks.cpg/sg94_3_cif.got.tgz:5002.got - 2010.06.03 19:43:16.
