data_PCOD9550363
_publ_section_title
;
Structure prediction by ZEFSAII (Michael W. Deem and Ramdas Pophale) SiO2 
 PCOD9550363
Probable space group: P 42 21 2
;
_chemical_formula_sum "Si O2"
_cell_formula_units_Z 38
_cell_length_a 8.207476
_cell_length_b 8.207476
_cell_length_c 23.863668
_cell_angle_alpha 90.000000
_cell_angle_beta 90.000000
_cell_angle_gamma 90.000000
_cell_volume 1607.520208
_symmetry_space_group_name_H-M "P 42 21 2"
_symmetry_group_IT_number 94
_symmetry_cell_setting 'tetragonal'
loop_
_space_group_symop_operation_xyz
x,y,z
1/2-y,1/2+x,1/2+z
-x,-y,z
1/2+y,1/2-x,1/2+z
1/2+x,1/2-y,1/2-z
1/2-x,1/2+y,1/2-z
y,x,-z
-y,-x,-z
loop_
_atom_site_type_symbol
_atom_site_label
_atom_site_fract_x
_atom_site_fract_y
_atom_site_fract_z
Si Si1 0.822484 0.535232 0.424500
Si Si2 0.160746 0.091230 0.434476
Si Si3 0.500000 0.500000 0.500000
Si Si4 0.000000 0.500000 0.609452
Si Si5 0.732852 0.943709 0.198017
Si Si6 0.561235 0.753130 0.290858
O O1 0.821132 0.727145 0.410635
O O2 0.664634 0.501542 0.462776
O O3 0.810543 0.431275 0.367480
O O4 0.000000 0.500000 0.450756
O O5 0.125463 0.125463 0.500000
O O6 0.329773 0.993402 0.424762
O O7 0.000000 0.000000 0.411584
O O8 0.851911 0.532629 0.651979
O O9 0.599426 0.868070 0.238580
O O10 0.896994 0.848292 0.213585
O O11 0.787661 0.129226 0.206597
#
# Coordination Sequence:
#
# PCOD9550363 Si02
#       6
#     8   8   2   4   8   8
#     4  12  29  51  86 118 164 219 276 348 426 507
#     4  11  28  52  80 124 164 216 280 349 429 506
#     4  12  28  60  82 130 168 228 288 358 432 516
#     4  12  26  50  82 114 162 226 276 356 420 506
#     4  11  26  50  74 118 159 214 274 340 422 500
#     4  11  25  47  79 109 162 212 272 341 416 510
#
# _framework density 23.638894000000001
#
# number of rings (size 3 to 8) (size 9 to 14) (size 15 to 20)
#    0.000    0.632    3.158    2.526    8.842    1.684 
#    3.789    0.000    0.000    0.000    0.000    0.000 
#    0.000    0.000    0.000    0.000    0.000    0.000 
#
# Total GULP energy -212544.456283 kJ/mol
# GULP energy per Si atom -5593.275165 kJ/mol
# Density = 2.358509 g / cm^3
# Si number density = 23.638894 Si / 1000 Ang^3
#
#
#
# Elastic Constant Matrix: (Units=GPa)
#
#
# Indices 1 2 3 4 5 6 
#
# 1 163.7720 87.8794 72.1054 0.0000 0.0000 0.0000
# 2 87.8794 163.7720 72.1054 0.0000 0.0000 0.0000
# 3 72.1054 72.1054 136.8550 0.0000 0.0000 0.0000
# 4 0.0000 0.0000 0.0000 37.9173 0.0000 0.0000
# 5 0.0000 0.0000 0.0000 0.0000 37.9173 0.0000
# 6 0.0000 0.0000 0.0000 0.0000 0.0000 56.8468
#
#
#
# Elastic Compliance Matrix: (Units=1/GPa)
#
#
# Indices 1 2 3 4 5 6 
#
# 1 0.009435 -0.003742 -0.002999 0.000000 0.000000 0.000000
# 2 -0.003742 0.009435 -0.002999 0.000000 0.000000 0.000000
# 3 -0.002999 -0.002999 0.010467 0.000000 0.000000 0.000000
# 4 0.000000 0.000000 0.000000 0.026373 0.000000 0.000000
# 5 0.000000 0.000000 0.000000 0.000000 0.026373 0.000000
# 6 0.000000 0.000000 0.000000 0.000000 0.000000 0.017591
#
#
# Mechanical properties :
#
#
# Convention : Reuss Voigt Hill
#
# Bulk Modulus (GPa) = 101.46618 103.17550 102.32084
# Shear Modulus (GPa) = 40.83633 42.02354 41.42994
#
# Velocity S-wave (km/s) = 4.16084 4.22089 4.19097
# Velocity P-wave (km/s) = 8.13019 8.21558 8.17300
#
# Compressibility (1/GPa) = 0.00985550
#
# Stress axis : x y z
#
# Youngs Moduli (GPa) = 105.99395 105.99395 95.53448
#
# Poissons Ratio (x) = 0.39663 0.28653
# Poissons Ratio (y) = 0.39663 0.28653
# Poissons Ratio (z) = 0.31790 0.31790
#
# Static dielectric constant tensor:
#      x y z
#    x 1.864580 0.000000 0.000000 
#    y 0.000000 1.864580 0.000000 
#    z 0.000000 0.000000 1.925000 
# 
# From -- ./inp_files/5012.got.cif
#   From: 2010.05.17/outbox.cif.g08.bks.cpg/sg94_3_cif.got.tgz:5012.got - 2010.06.03 19:43:16.
