data_PCOD9550015
_publ_section_title
;
Structure prediction by ZEFSAII (Michael W. Deem and Ramdas Pophale) SiO2 
 PCOD9550015
Probable space group: P 42 21 2
;
_chemical_formula_sum "Si O2"
_cell_formula_units_Z 42
_cell_length_a 10.602834
_cell_length_b 10.602834
_cell_length_c 17.665184
_cell_angle_alpha 90.000000
_cell_angle_beta 90.000000
_cell_angle_gamma 90.000000
_cell_volume 1985.921555
_symmetry_space_group_name_H-M "P 42 21 2"
_symmetry_group_IT_number 94
_symmetry_cell_setting 'tetragonal'
loop_
_space_group_symop_operation_xyz
x,y,z
1/2-y,1/2+x,1/2+z
-x,-y,z
1/2+y,1/2-x,1/2+z
1/2+x,1/2-y,1/2-z
1/2-x,1/2+y,1/2-z
y,x,-z
-y,-x,-z
loop_
_atom_site_type_symbol
_atom_site_label
_atom_site_fract_x
_atom_site_fract_y
_atom_site_fract_z
Si Si1 0.038224 0.370617 0.683302
Si Si2 0.000000 0.000000 0.500000
Si Si3 0.581631 0.773719 0.669550
Si Si4 0.877060 0.844584 0.373761
Si Si5 0.978363 0.197520 0.219192
Si Si6 0.902211 0.879707 0.915416
O O1 0.061001 0.243495 0.635231
O O2 0.172616 0.401969 0.721418
O O3 0.000000 0.500000 0.641364
O O4 0.945469 0.352033 0.754833
O O5 0.971026 0.886547 0.440370
O O6 0.702887 0.820399 0.622999
O O7 0.600551 0.632929 0.701592
O O8 0.465703 0.748925 0.614117
O O9 0.950897 0.841210 0.294596
O O10 0.073549 0.195998 0.147918
O O11 0.856459 0.856459 0.000000
O O12 0.000000 0.000000 0.921045
#
# Coordination Sequence:
#
# PCOD9550015 Si02
#       6
#     8   2   8   8   8   8
#     4  11  21  37  67  97 130 169 228 279 330 402
#     4  12  28  44  68  96 140 184 222 284 348 440
#     4  10  20  35  63  94 127 170 223 281 322 399
#     4  11  23  41  66  94 129 178 227 270 346 405
#     4  10  20  36  65  95 123 175 224 276 332 405
#     4   9  18  34  60  94 123 159 215 275 329 388
#
# _framework density 21.148869999999999
#
# number of rings (size 3 to 8) (size 9 to 14) (size 15 to 20)
#    0.000    1.714    3.810    1.143    1.333    4.571 
#    0.000    0.000   12.571    0.000    0.000    0.000 
#    0.000    0.000    0.000    0.000    0.000    0.000 
#
# Total GULP energy -233951.673989 kJ/mol
# GULP energy per Si atom -5570.277952 kJ/mol
# Density = 2.110073 g / cm^3
# Si number density = 21.148870 Si / 1000 Ang^3
#
#
#
# Elastic Constant Matrix: (Units=GPa)
#
#
# Indices 1 2 3 4 5 6 
#
# 1 47.4150 14.9639 24.0336 0.0000 0.0000 0.0000
# 2 14.9639 47.4150 24.0336 0.0000 0.0000 0.0000
# 3 24.0336 24.0336 110.1343 0.0000 0.0000 0.0000
# 4 0.0000 0.0000 0.0000 8.0491 0.0000 0.0000
# 5 0.0000 0.0000 0.0000 0.0000 8.0491 0.0000
# 6 0.0000 0.0000 0.0000 0.0000 0.0000 29.7316
#
#
#
# Elastic Compliance Matrix: (Units=1/GPa)
#
#
# Indices 1 2 3 4 5 6 
#
# 1 0.025044 -0.005772 -0.004205 0.000000 0.000000 0.000000
# 2 -0.005772 0.025044 -0.004205 0.000000 0.000000 0.000000
# 3 -0.004205 -0.004205 0.010915 0.000000 0.000000 0.000000
# 4 0.000000 0.000000 0.000000 0.124237 0.000000 0.000000
# 5 0.000000 0.000000 0.000000 0.000000 0.124237 0.000000
# 6 0.000000 0.000000 0.000000 0.000000 0.000000 0.033634
#
#
# Mechanical properties :
#
#
# Convention : Reuss Voigt Hill
#
# Bulk Modulus (GPa) = 30.64037 36.78071 33.71054
# Shear Modulus (GPa) = 13.07685 18.62820 15.85252
#
# Velocity S-wave (km/s) = 2.48931 2.97107 2.74079
# Velocity P-wave (km/s) = 4.77301 5.40359 5.09806
#
# Compressibility (1/GPa) = 0.03263668
#
# Stress axis : x y z
#
# Youngs Moduli (GPa) = 39.93037 39.93037 91.61478
#
# Poissons Ratio (x) = 0.23048 0.38528
# Poissons Ratio (y) = 0.23048 0.38528
# Poissons Ratio (z) = 0.16793 0.16793
#
# Static dielectric constant tensor:
#      x y z
#    x 1.837790 0.000000 0.000000 
#    y 0.000000 1.837790 0.000000 
#    z 0.000000 0.000000 1.790670 
# 
# From -- ./inp_files/4022.got.cif
#   From: 2010.05.17/outbox.cif.g08.bks.cpg/sg94_3_cif.got.tgz:4022.got - 2010.06.03 19:43:16.
