data_PCOD9550674
_publ_section_title
;
Structure prediction by ZEFSAII (Michael W. Deem and Ramdas Pophale) SiO2 
 PCOD9550674
Probable space group: P 43 2 2
;
_chemical_formula_sum "Si O2"
_cell_formula_units_Z 56
_cell_length_a 14.682541
_cell_length_b 14.682541
_cell_length_c 11.701162
_cell_angle_alpha 90.000000
_cell_angle_beta 90.000000
_cell_angle_gamma 90.000000
_cell_volume 2522.501520
_symmetry_space_group_name_H-M "P 43 2 2"
_symmetry_group_IT_number 95
_symmetry_cell_setting 'tetragonal'
loop_
_space_group_symop_operation_xyz
x,y,z
-y,x,3/4+z
-x,-y,1/2+z
y,-x,1/4+z
x,-y,1/2-z
-x,y,-z
y,x,1/4-z
-y,-x,3/4-z
loop_
_atom_site_type_symbol
_atom_site_label
_atom_site_fract_x
_atom_site_fract_y
_atom_site_fract_z
Si Si1 0.817368 0.413919 0.383775
Si Si2 0.096175 0.405472 0.963624
Si Si3 0.285062 0.903475 0.684249
Si Si4 0.626729 0.469373 0.462250
Si Si5 0.353799 0.335836 0.935041
Si Si6 0.169789 0.272065 0.820267
Si Si7 0.140764 0.398637 0.223079
O O1 0.861874 0.514461 0.384602
O O2 0.850504 0.367394 0.501553
O O3 0.711673 0.438631 0.383614
O O4 0.833149 0.331881 0.294791
O O5 0.085742 0.311079 0.893535
O O6 0.140073 0.386179 0.087066
O O7 0.000000 0.444901 0.000000
O O8 0.198327 0.833725 0.693024
O O9 0.323153 0.909450 0.553770
O O10 0.271718 0.000000 0.750000
O O11 0.543183 0.456818 0.375000
O O12 0.636972 0.404880 0.569449
O O13 0.640568 0.571485 0.504252
O O14 0.251908 0.312233 0.897086
O O15 0.394090 0.246082 0.989776
O O16 0.104057 0.500000 0.250000
#
# Coordination Sequence:
#
# PCOD9550674 Si02
#       7
#     8   8   8   8   8   8   8
#     4  12  21  42  68 101 139 178 237 292 351 429
#     4  12  27  43  67 105 143 188 235 290 377 444
#     4  11  24  43  70 102 135 184 244 303 357 431
#     4  12  21  38  60  91 132 184 246 281 331 406
#     4  11  24  39  60  87 129 186 233 283 335 407
#     4  11  24  43  70  98 139 185 229 294 362 425
#     4  11  24  44  60  92 142 183 235 296 359 426
#
# _framework density 22.200185000000001
#
# number of rings (size 3 to 8) (size 9 to 14) (size 15 to 20)
#    0.000    0.571    7.143    1.714    2.000    3.429 
#    0.000    1.429    0.000    0.000    0.000    5.000 
#    0.000    0.000    0.000    0.000    0.000    0.000 
#
# Total GULP energy -312645.012370 kJ/mol
# GULP energy per Si atom -5582.946649 kJ/mol
# Density = 2.214966 g / cm^3
# Si number density = 22.200185 Si / 1000 Ang^3
#
#
#
# Elastic Constant Matrix: (Units=GPa)
#
#
# Indices 1 2 3 4 5 6 
#
# 1 92.2038 0.7781 32.4466 0.0000 0.0000 0.0000
# 2 0.7781 92.2035 32.4467 0.0000 0.0000 0.0000
# 3 32.4466 32.4467 123.2144 0.0000 0.0000 0.0000
# 4 0.0000 0.0000 0.0000 20.8897 0.0000 0.0000
# 5 0.0000 0.0000 0.0000 0.0000 20.8898 0.0000
# 6 0.0000 0.0000 0.0000 0.0000 0.0000 15.1280
#
#
#
# Elastic Compliance Matrix: (Units=1/GPa)
#
#
# Indices 1 2 3 4 5 6 
#
# 1 0.012057 0.001119 -0.003470 0.000000 0.000000 0.000000
# 2 0.001119 0.012057 -0.003470 0.000000 0.000000 0.000000
# 3 -0.003470 -0.003470 0.009943 0.000000 0.000000 0.000000
# 4 0.000000 0.000000 0.000000 0.047870 0.000000 0.000000
# 5 0.000000 0.000000 0.000000 0.000000 0.047870 0.000000
# 6 0.000000 0.000000 0.000000 0.000000 0.000000 0.066103
#
#
# Mechanical properties :
#
#
# Convention : Reuss Voigt Hill
#
# Bulk Modulus (GPa) = 44.60903 48.77384 46.69144
# Shear Modulus (GPa) = 23.25431 27.51153 25.38292
#
# Velocity S-wave (km/s) = 3.23999 3.52411 3.38504
# Velocity P-wave (km/s) = 5.84246 6.21103 6.02956
#
# Compressibility (1/GPa) = 0.02241698
#
# Stress axis : x y z
#
# Youngs Moduli (GPa) = 82.93854 82.93821 100.56934
#
# Poissons Ratio (x) = -0.09283 0.34896
# Poissons Ratio (y) = -0.09283 0.34896
# Poissons Ratio (z) = 0.28778 0.28778
#
# Static dielectric constant tensor:
#      x y z
#    x 1.871620 0.000000 0.000000 
#    y 0.000000 1.871620 0.000000 
#    z 0.000000 0.000000 1.910240 
# 
# From -- ./inp_files/3976.got.cif
#   From: 2010.05.17/outbox.cif.g08.bks.cpg/sg95_2_cif.got.tgz:3976.got - 2010.06.03 19:46:49.
