data_PCOD9550071
_publ_section_title
;
Structure prediction by ZEFSAII (Michael W. Deem and Ramdas Pophale) SiO2 
 PCOD9550071
Probable space group: P 42 21 2
;
_chemical_formula_sum "Si O2"
_cell_formula_units_Z 40
_cell_length_a 13.765872
_cell_length_b 13.765872
_cell_length_c 7.905238
_cell_angle_alpha 90.000000
_cell_angle_beta 90.000000
_cell_angle_gamma 90.000000
_cell_volume 1498.036529
_symmetry_space_group_name_H-M "P 42 21 2"
_symmetry_group_IT_number 94
_symmetry_cell_setting 'tetragonal'
loop_
_space_group_symop_operation_xyz
x,y,z
1/2-y,1/2+x,1/2+z
-x,-y,z
1/2+y,1/2-x,1/2+z
1/2+x,1/2-y,1/2-z
1/2-x,1/2+y,1/2-z
y,x,-z
-y,-x,-z
loop_
_atom_site_type_symbol
_atom_site_label
_atom_site_fract_x
_atom_site_fract_y
_atom_site_fract_z
Si Si1 0.310477 0.975201 0.850260
Si Si2 0.500000 0.500000 0.500000
Si Si3 0.468029 0.672604 0.770242
Si Si4 0.500000 0.500000 0.000000
Si Si5 0.198900 0.256763 0.188132
Si Si6 0.672673 0.672673 0.500000
Si Si7 0.476089 0.890754 0.699037
O O1 0.210507 0.925763 0.908115
O O2 0.359363 0.907170 0.708816
O O3 0.500000 0.000000 0.757782
O O4 0.376596 0.973659 0.019129
O O5 0.498122 0.594311 0.622821
O O6 0.353669 0.682030 0.745872
O O7 0.497973 0.786339 0.784157
O O8 0.499263 0.609210 0.926667
O O9 0.255458 0.308540 0.340686
O O10 0.089259 0.299373 0.182125
O O11 0.247387 0.247387 0.000000
#
# Coordination Sequence:
#
# PCOD9550071 Si02
#       7
#     8   2   8   2   8   4   8
#     4  12  26  51  82 117 164 224 277 351 428 518
#     4  10  20  40  84 122 172 210 286 338 424 504
#     4  11  22  47  78 125 161 218 274 354 428 501
#     4  10  26  42  84 118 170 214 282 360 410 526
#     4  12  24  51  84 116 173 218 283 356 426 514
#     4  12  27  47  83 125 161 228 283 342 434 514
#     4  12  26  47  79 112 165 216 275 340 427 517
#
# _framework density 26.701619999999998
#
# number of rings (size 3 to 8) (size 9 to 14) (size 15 to 20)
#    0.000    0.400    5.000    2.400    0.000    4.800 
#    0.000    2.000   11.000    0.000    0.000    0.000 
#    0.000    0.000    0.000    0.000    0.000    0.000 
#
# Total GULP energy -223075.615416 kJ/mol
# GULP energy per Si atom -5576.890385 kJ/mol
# Density = 2.664085 g / cm^3
# Si number density = 26.701620 Si / 1000 Ang^3
#
#
#
# Elastic Constant Matrix: (Units=GPa)
#
#
# Indices 1 2 3 4 5 6 
#
# 1 173.0977 17.1146 31.1330 0.0000 0.0000 0.0000
# 2 17.1146 173.0977 31.1330 0.0000 0.0000 0.0000
# 3 31.1330 31.1330 40.3999 0.0000 0.0000 0.0000
# 4 0.0000 0.0000 0.0000 35.6129 0.0000 0.0000
# 5 0.0000 0.0000 0.0000 0.0000 35.6129 0.0000
# 6 0.0000 0.0000 0.0000 0.0000 0.0000 43.1455
#
#
#
# Elastic Compliance Matrix: (Units=1/GPa)
#
#
# Indices 1 2 3 4 5 6 
#
# 1 0.006721 0.000310 -0.005418 0.000000 0.000000 0.000000
# 2 0.000310 0.006721 -0.005418 0.000000 0.000000 0.000000
# 3 -0.005418 -0.005418 0.033103 0.000000 0.000000 0.000000
# 4 0.000000 0.000000 0.000000 0.028080 0.000000 0.000000
# 5 0.000000 0.000000 0.000000 0.000000 0.028080 0.000000
# 6 0.000000 0.000000 0.000000 0.000000 0.000000 0.023177
#
#
# Mechanical properties :
#
#
# Convention : Reuss Voigt Hill
#
# Bulk Modulus (GPa) = 39.22738 60.59516 49.91127
# Shear Modulus (GPa) = 32.16839 43.35525 37.76182
#
# Velocity S-wave (km/s) = 3.47470 4.03388 3.76468
# Velocity P-wave (km/s) = 5.55166 6.66625 6.13432
#
# Compressibility (1/GPa) = 0.02549240
#
# Stress axis : x y z
#
# Youngs Moduli (GPa) = 148.78877 148.78877 30.20851
#
# Poissons Ratio (x) = -0.04612 0.16367
# Poissons Ratio (y) = -0.04612 0.16367
# Poissons Ratio (z) = 0.80616 0.80616
#
# Static dielectric constant tensor:
#      x y z
#    x 2.295820 0.000000 0.000000 
#    y 0.000000 2.295820 0.000000 
#    z 0.000000 0.000000 2.067960 
# 
# From -- ./inp_files/1502.got.cif
#   From: 2010.05.17/outbox.cif.g08.bks.cpg/sg94_1_cif.got.tgz:1502.got - 2010.06.03 19:43:16.
