data_PCOD9550294
_publ_section_title
;
Structure prediction by ZEFSAII (Michael W. Deem and Ramdas Pophale) SiO2 
 PCOD9550294
Probable space group: P 42 21 2
;
_chemical_formula_sum "Si O2"
_cell_formula_units_Z 48
_cell_length_a 9.075367
_cell_length_b 9.075367
_cell_length_c 28.660668
_cell_angle_alpha 90.000000
_cell_angle_beta 90.000000
_cell_angle_gamma 90.000000
_cell_volume 2360.558140
_symmetry_space_group_name_H-M "P 42 21 2"
_symmetry_group_IT_number 94
_symmetry_cell_setting 'tetragonal'
loop_
_space_group_symop_operation_xyz
x,y,z
1/2-y,1/2+x,1/2+z
-x,-y,z
1/2+y,1/2-x,1/2+z
1/2+x,1/2-y,1/2-z
1/2-x,1/2+y,1/2-z
y,x,-z
-y,-x,-z
loop_
_atom_site_type_symbol
_atom_site_label
_atom_site_fract_x
_atom_site_fract_y
_atom_site_fract_z
Si Si1 0.999573 0.757503 0.445685
Si Si2 0.880021 0.696034 0.345733
Si Si3 0.024690 0.335570 0.648371
Si Si4 0.837488 0.994610 0.201499
Si Si5 0.249278 0.988126 0.452532
Si Si6 0.705270 0.664856 0.790919
O O1 0.955460 0.685003 0.396763
O O2 0.158451 0.836711 0.445331
O O3 0.998246 0.679748 0.496283
O O4 0.877337 0.886746 0.449794
O O5 0.790447 0.551205 0.332457
O O6 0.008201 0.734414 0.308821
O O7 0.754365 0.824182 0.343282
O O8 0.010228 0.345536 0.592790
O O9 0.898054 0.231321 0.668825
O O10 0.000000 0.500000 0.668723
O O11 0.848630 0.104605 0.245343
O O12 0.781022 0.835765 0.217794
O O13 0.000000 0.000000 0.179314
#
# Coordination Sequence:
#
# PCOD9550294 Si02
#       6
#     8   8   8   8   8   8
#     4   8  14  29  57  87 116 151 199 247 296 357
#     4  11  22  40  64  89 118 162 207 254 308 371
#     4  11  21  35  59  91 123 156 198 250 312 365
#     4  12  26  42  61  87 120 157 203 259 313 369
#     4   8  14  28  54  89 119 151 193 248 300 353
#     4  12  24  42  62  85 116 158 207 253 306 373
#
# _framework density 20.334174000000001
#
# number of rings (size 3 to 8) (size 9 to 14) (size 15 to 20)
#    0.000    1.667    1.667    6.000    0.000    1.333 
#    0.000    1.667    0.000    0.000    0.000    8.167 
#    0.000    0.000    0.000    0.000    0.000    0.000 
#
# Total GULP energy -267826.963271 kJ/mol
# GULP energy per Si atom -5579.728401 kJ/mol
# Density = 2.028789 g / cm^3
# Si number density = 20.334174 Si / 1000 Ang^3
#
#
#
# Elastic Constant Matrix: (Units=GPa)
#
#
# Indices 1 2 3 4 5 6 
#
# 1 63.5620 17.1247 4.7427 0.0000 0.0000 0.0000
# 2 17.1247 63.5620 4.7427 0.0000 0.0000 0.0000
# 3 4.7427 4.7427 100.5140 0.0000 0.0000 0.0000
# 4 0.0000 0.0000 0.0000 17.7588 0.0000 0.0000
# 5 0.0000 0.0000 0.0000 0.0000 17.7588 0.0000
# 6 0.0000 0.0000 0.0000 0.0000 0.0000 26.0169
#
#
#
# Elastic Compliance Matrix: (Units=1/GPa)
#
#
# Indices 1 2 3 4 5 6 
#
# 1 0.016999 -0.004536 -0.000588 0.000000 0.000000 0.000000
# 2 -0.004536 0.016999 -0.000588 0.000000 0.000000 0.000000
# 3 -0.000588 -0.000588 0.010004 0.000000 0.000000 0.000000
# 4 0.000000 0.000000 0.000000 0.056310 0.000000 0.000000
# 5 0.000000 0.000000 0.000000 0.000000 0.056310 0.000000
# 6 0.000000 0.000000 0.000000 0.000000 0.000000 0.038437
#
#
# Mechanical properties :
#
#
# Convention : Reuss Voigt Hill
#
# Bulk Modulus (GPa) = 30.69591 31.20649 30.95120
# Shear Modulus (GPa) = 23.00531 25.70878 24.35704
#
# Velocity S-wave (km/s) = 3.36722 3.55958 3.46473
# Velocity P-wave (km/s) = 5.49964 5.68104 5.59108
#
# Compressibility (1/GPa) = 0.03257763
#
# Stress axis : x y z
#
# Youngs Moduli (GPa) = 58.82843 58.82843 99.95645
#
# Poissons Ratio (x) = 0.26684 0.05878
# Poissons Ratio (y) = 0.26684 0.05878
# Poissons Ratio (z) = 0.03459 0.03459
#
# Static dielectric constant tensor:
#      x y z
#    x 1.736780 0.000000 0.000000 
#    y 0.000000 1.736780 0.000000 
#    z 0.000000 0.000000 1.760990 
# 
# From -- ./inp_files/5590.got.cif
#   From: 2010.05.17/outbox.cif.g08.bks.cpg/sg94_3_cif.got.tgz:5590.got - 2010.06.03 19:43:16.
