data_PCOD9550478
_publ_section_title
;
Structure prediction by ZEFSAII (Michael W. Deem and Ramdas Pophale) SiO2 
 PCOD9550478
Probable space group: P 43 2 2
;
_chemical_formula_sum "Si O2"
_cell_formula_units_Z 56
_cell_length_a 16.706788
_cell_length_b 16.706788
_cell_length_c 11.312096
_cell_angle_alpha 90.000000
_cell_angle_beta 90.000000
_cell_angle_gamma 90.000000
_cell_volume 3157.395644
_symmetry_space_group_name_H-M "P 43 2 2"
_symmetry_group_IT_number 95
_symmetry_cell_setting 'tetragonal'
loop_
_space_group_symop_operation_xyz
x,y,z
-y,x,3/4+z
-x,-y,1/2+z
y,-x,1/4+z
x,-y,1/2-z
-x,y,-z
y,x,1/4-z
-y,-x,3/4-z
loop_
_atom_site_type_symbol
_atom_site_label
_atom_site_fract_x
_atom_site_fract_y
_atom_site_fract_z
Si Si1 0.745997 0.801787 0.337056
Si Si2 0.673226 0.078709 0.330826
Si Si3 0.152128 0.339002 0.917043
Si Si4 0.891635 0.904325 0.260356
Si Si5 0.240007 0.021225 0.432492
Si Si6 0.510406 0.950335 0.869407
Si Si7 0.712126 0.839486 0.587536
O O1 0.699628 0.837516 0.226158
O O2 0.782699 0.712575 0.343429
O O3 0.820242 0.866426 0.338570
O O4 0.693430 0.810938 0.455287
O O5 0.719489 0.060567 0.451256
O O6 0.578314 0.080469 0.344307
O O7 0.691855 0.000000 0.250000
O O8 0.077129 0.277050 0.918498
O O9 0.118049 0.422032 0.868479
O O10 0.177230 0.347571 0.054091
O O11 0.968847 0.855476 0.305675
O O12 0.897244 0.000000 0.250000
O O13 0.877644 0.877644 0.125000
O O14 0.270802 0.932574 0.424493
O O15 0.533381 0.000000 0.750000
O O16 0.500000 0.991742 0.000000
O O17 0.792168 0.792168 0.625000
#
# Coordination Sequence:
#
# PCOD9550478 Si02
#       7
#     8   8   8   8   8   8   8
#     4  10  20  36  54  74  98 145 186 224 281 344
#     4  11  20  33  58  79 104 141 188 238 282 346
#     4  10  22  35  54  74 108 142 181 232 290 346
#     4  11  21  31  46  68  95 132 181 241 278 322
#     4  11  19  32  51  67 100 136 183 232 286 321
#     4  11  23  37  56  86 113 143 186 246 300 349
#     4  10  20  34  51  70  99 140 184 226 280 346
#
# _framework density 17.736135000000001
#
# number of rings (size 3 to 8) (size 9 to 14) (size 15 to 20)
#    0.000    1.429    4.286    2.571    0.000    0.571 
#    0.000    0.000    0.000    0.000    0.000    0.000 
#    0.000    0.000    0.000   15.429    0.000    0.000 
#
# Total GULP energy -311884.941654 kJ/mol
# GULP energy per Si atom -5569.373958 kJ/mol
# Density = 1.769577 g / cm^3
# Si number density = 17.736135 Si / 1000 Ang^3
#
#
#
# Elastic Constant Matrix: (Units=GPa)
#
#
# Indices 1 2 3 4 5 6 
#
# 1 61.5000 13.4165 11.5809 0.0000 0.0000 0.0000
# 2 13.4165 61.5000 11.5809 0.0000 0.0000 0.0000
# 3 11.5809 11.5809 108.4055 0.0000 0.0000 0.0000
# 4 0.0000 0.0000 0.0000 18.5957 0.0000 0.0000
# 5 0.0000 0.0000 0.0000 0.0000 18.5957 0.0000
# 6 0.0000 0.0000 0.0000 0.0000 0.0000 13.1533
#
#
#
# Elastic Compliance Matrix: (Units=1/GPa)
#
#
# Indices 1 2 3 4 5 6 
#
# 1 0.017301 -0.003497 -0.001475 0.000000 0.000000 0.000000
# 2 -0.003497 0.017301 -0.001475 0.000000 0.000000 0.000000
# 3 -0.001475 -0.001475 0.009540 0.000000 0.000000 0.000000
# 4 0.000000 0.000000 0.000000 0.053776 0.000000 0.000000
# 5 0.000000 0.000000 0.000000 0.000000 0.053776 0.000000
# 6 0.000000 0.000000 0.000000 0.000000 0.000000 0.076026
#
#
# Mechanical properties :
#
#
# Convention : Reuss Voigt Hill
#
# Bulk Modulus (GPa) = 32.00081 33.84023 32.92052
# Shear Modulus (GPa) = 19.91815 23.05742 21.48779
#
# Velocity S-wave (km/s) = 3.35479 3.60950 3.48447
# Velocity P-wave (km/s) = 5.75222 6.04091 5.89833
#
# Compressibility (1/GPa) = 0.03124921
#
# Stress axis : x y z
#
# Youngs Moduli (GPa) = 57.80134 57.80134 104.82506
#
# Poissons Ratio (x) = 0.20210 0.15458
# Poissons Ratio (y) = 0.20210 0.15458
# Poissons Ratio (z) = 0.08524 0.08524
#
# Static dielectric constant tensor:
#      x y z
#    x 1.614940 0.000000 0.000000 
#    y 0.000000 1.614940 0.000000 
#    z 0.000000 0.000000 1.741900 
# 
# From -- ./inp_files/4046.got.cif
#   From: 2010.05.17/outbox.cif.g08.bks.cpg/sg95_3_cif.got.tgz:4046.got - 2010.06.03 19:46:49.
