data_PCOD9550680
_publ_section_title
;
Structure prediction by ZEFSAII (Michael W. Deem and Ramdas Pophale) SiO2 
 PCOD9550680
Probable space group: P 43 2 2
;
_chemical_formula_sum "Si O2"
_cell_formula_units_Z 36
_cell_length_a 9.040723
_cell_length_b 9.040723
_cell_length_c 21.149803
_cell_angle_alpha 90.000000
_cell_angle_beta 90.000000
_cell_angle_gamma 90.000000
_cell_volume 1728.672219
_symmetry_space_group_name_H-M "P 43 2 2"
_symmetry_group_IT_number 95
_symmetry_cell_setting 'tetragonal'
loop_
_space_group_symop_operation_xyz
x,y,z
-y,x,3/4+z
-x,-y,1/2+z
y,-x,1/4+z
x,-y,1/2-z
-x,y,-z
y,x,1/4-z
-y,-x,3/4-z
loop_
_atom_site_type_symbol
_atom_site_label
_atom_site_fract_x
_atom_site_fract_y
_atom_site_fract_z
Si Si1 0.867298 0.933883 0.551876
Si Si2 0.281212 0.332544 0.275011
Si Si3 0.804771 0.804771 0.125000
Si Si4 0.147365 0.753464 0.090792
Si Si5 0.672802 0.622098 0.016020
O O1 0.909971 0.909971 0.625000
O O2 0.769022 0.798912 0.527217
O O3 0.000000 0.947202 0.500000
O O4 0.792065 0.094163 0.559450
O O5 0.265197 0.500000 0.250000
O O6 0.202363 0.292101 0.340398
O O7 0.453841 0.305081 0.288579
O O8 0.707461 0.747950 0.066890
O O9 0.971878 0.777830 0.100679
O O10 0.211912 0.635954 0.041833
O O11 0.500000 0.635228 0.000000
#
# Coordination Sequence:
#
# PCOD9550680 Si02
#       5
#     8   8   4   8   8
#     4  12  24  46  71 103 142 179 232 294 353 415
#     4  11  27  45  68 103 142 184 233 291 353 425
#     4  12  24  46  68 102 136 180 240 284 352 418
#     4  12  24  45  72 101 138 186 232 296 350 416
#     4  11  26  46  69  99 144 186 232 291 354 420
#
# _framework density 20.825233000000001
#
# number of rings (size 3 to 8) (size 9 to 14) (size 15 to 20)
#    0.000    0.444    3.333    4.667    3.111    8.889 
#    0.000    0.000    0.000    0.000    0.000    0.000 
#    0.000    0.000    0.000    0.000    0.000    0.000 
#
# Total GULP energy -200886.185720 kJ/mol
# GULP energy per Si atom -5580.171826 kJ/mol
# Density = 2.077783 g / cm^3
# Si number density = 20.825233 Si / 1000 Ang^3
#
#
#
# Elastic Constant Matrix: (Units=GPa)
#
#
# Indices 1 2 3 4 5 6 
#
# 1 63.8787 46.1161 22.3046 0.0000 0.0000 0.0000
# 2 46.1161 63.8787 22.3046 0.0000 0.0000 0.0000
# 3 22.3046 22.3046 126.3107 0.0000 0.0000 0.0000
# 4 0.0000 0.0000 0.0000 24.3166 0.0000 0.0000
# 5 0.0000 0.0000 0.0000 0.0000 24.3166 0.0000
# 6 0.0000 0.0000 0.0000 0.0000 0.0000 31.1063
#
#
#
# Elastic Compliance Matrix: (Units=1/GPa)
#
#
# Indices 1 2 3 4 5 6 
#
# 1 0.033045 -0.023253 -0.001729 0.000000 0.000000 0.000000
# 2 -0.023253 0.033045 -0.001729 0.000000 0.000000 0.000000
# 3 -0.001729 -0.001729 0.008528 0.000000 0.000000 0.000000
# 4 0.000000 0.000000 0.000000 0.041124 0.000000 0.000000
# 5 0.000000 0.000000 0.000000 0.000000 0.041124 0.000000
# 6 0.000000 0.000000 0.000000 0.000000 0.000000 0.032148
#
#
# Mechanical properties :
#
#
# Convention : Reuss Voigt Hill
#
# Bulk Modulus (GPa) = 47.17861 48.39097 47.78479
# Shear Modulus (GPa) = 20.03992 26.83744 23.43868
#
# Velocity S-wave (km/s) = 3.10545 3.59374 3.35848
# Velocity P-wave (km/s) = 5.96340 6.36452 6.16722
#
# Compressibility (1/GPa) = 0.02119605
#
# Stress axis : x y z
#
# Youngs Moduli (GPa) = 30.26147 30.26147 117.26493
#
# Poissons Ratio (x) = 0.70366 0.20278
# Poissons Ratio (y) = 0.70366 0.20278
# Poissons Ratio (z) = 0.05233 0.05233
#
# Static dielectric constant tensor:
#      x y z
#    x 1.792300 0.000000 0.000000 
#    y 0.000000 1.792300 0.000000 
#    z 0.000000 0.000000 1.753900 
# 
# From -- ./inp_files/6205.got.cif
#   From: 2010.05.17/outbox.cif.g08.bks.cpg/sg95_4_cif.got.tgz:6205.got - 2010.06.03 19:46:49.
