data_PCOD9550202
_publ_section_title
;
Structure prediction by ZEFSAII (Michael W. Deem and Ramdas Pophale) SiO2 
 PCOD9550202
Probable space group: P 42 21 2
;
_chemical_formula_sum "Si O2"
_cell_formula_units_Z 32
_cell_length_a 9.281663
_cell_length_b 9.281663
_cell_length_c 19.042432
_cell_angle_alpha 90.000000
_cell_angle_beta 90.000000
_cell_angle_gamma 90.000000
_cell_volume 1640.491579
_symmetry_space_group_name_H-M "P 42 21 2"
_symmetry_group_IT_number 94
_symmetry_cell_setting 'tetragonal'
loop_
_space_group_symop_operation_xyz
x,y,z
1/2-y,1/2+x,1/2+z
-x,-y,z
1/2+y,1/2-x,1/2+z
1/2+x,1/2-y,1/2-z
1/2-x,1/2+y,1/2-z
y,x,-z
-y,-x,-z
loop_
_atom_site_type_symbol
_atom_site_label
_atom_site_fract_x
_atom_site_fract_y
_atom_site_fract_z
Si Si1 0.113942 0.368320 0.785971
Si Si2 0.363831 0.401295 0.299838
Si Si3 0.865436 0.309701 0.442675
Si Si4 0.638336 0.809064 0.557097
O O1 0.251822 0.403375 0.738233
O O2 0.183516 0.318646 0.860640
O O3 0.000000 0.500000 0.797937
O O4 0.010860 0.241207 0.757113
O O5 0.500000 0.500000 0.318239
O O6 0.272106 0.362242 0.368755
O O7 0.791729 0.208272 0.500000
O O8 0.835959 0.473848 0.465518
O O9 0.036287 0.285921 0.438624
O O10 0.713397 0.713397 0.500000
#
# Coordination Sequence:
#
# PCOD9550202 Si02
#       4
#     8   8   8   8
#     4  11  22  46  64  95 139 166 222 278 327 406
#     4  11  24  39  69  96 125 180 215 272 340 392
#     4  10  22  43  65  87 129 173 206 270 326 378
#     4  10  23  42  61  95 127 161 220 264 315 393
#
# _framework density 19.506349
#
# number of rings (size 3 to 8) (size 9 to 14) (size 15 to 20)
#    0.000    1.500    5.000    1.500    7.000    2.500 
#    4.500    0.000    0.000    0.000    0.000    0.000 
#    0.000    0.000    0.000    0.000    0.000    0.000 
#
# Total GULP energy -178358.659331 kJ/mol
# GULP energy per Si atom -5573.708104 kJ/mol
# Density = 1.946195 g / cm^3
# Si number density = 19.506349 Si / 1000 Ang^3
#
#
#
# Elastic Constant Matrix: (Units=GPa)
#
#
# Indices 1 2 3 4 5 6 
#
# 1 82.4655 40.1630 47.3559 0.0000 0.0000 0.0000
# 2 40.1630 82.4637 47.3560 0.0000 0.0000 0.0000
# 3 47.3559 47.3560 75.7355 0.0000 0.0000 0.0000
# 4 0.0000 0.0000 0.0000 21.6481 0.0000 0.0000
# 5 0.0000 0.0000 0.0000 0.0000 21.6471 0.0000
# 6 0.0000 0.0000 0.0000 0.0000 0.0000 31.1727
#
#
#
# Elastic Compliance Matrix: (Units=1/GPa)
#
#
# Indices 1 2 3 4 5 6 
#
# 1 0.019705 -0.003934 -0.009861 0.000000 0.000000 0.000000
# 2 -0.003934 0.019706 -0.009862 0.000000 0.000000 0.000000
# 3 -0.009861 -0.009862 0.025536 0.000000 0.000000 0.000000
# 4 0.000000 0.000000 0.000000 0.046194 0.000000 0.000000
# 5 0.000000 0.000000 0.000000 0.000000 0.046196 0.000000
# 6 0.000000 0.000000 0.000000 0.000000 0.000000 0.032079
#
#
# Mechanical properties :
#
#
# Convention : Reuss Voigt Hill
#
# Bulk Modulus (GPa) = 56.71216 56.71272 56.71244
# Shear Modulus (GPa) = 20.60939 21.94624 21.27781
#
# Velocity S-wave (km/s) = 3.25398 3.35786 3.30633
# Velocity P-wave (km/s) = 6.57683 6.64611 6.61156
#
# Compressibility (1/GPa) = 0.01763290
#
# Stress axis : x y z
#
# Youngs Moduli (GPa) = 50.74798 50.74623 39.15997
#
# Poissons Ratio (x) = 0.19965 0.38617
# Poissons Ratio (y) = 0.19965 0.38619
# Poissons Ratio (z) = 0.50044 0.50045
#
# Static dielectric constant tensor:
#      x y z
#    x 1.713700 0.000000 0.000000 
#    y 0.000000 1.713700 0.000000 
#    z 0.000000 0.000000 1.676300 
# 
# From -- ./inp_files/4368.got.cif
#   From: 2010.05.17/outbox.cif.g08.bks.cpg/sg94_3_cif.got.tgz:4368.got - 2010.06.03 19:43:16.
