data_PCOD9550788
_publ_section_title
;
Structure prediction by ZEFSAII (Michael W. Deem and Ramdas Pophale) SiO2 
 PCOD9550788
Probable space group: P 43 21 2
;
_chemical_formula_sum "Si O2"
_cell_formula_units_Z 40
_cell_length_a 13.854507
_cell_length_b 13.854507
_cell_length_c 8.860898
_cell_angle_alpha 90.000000
_cell_angle_beta 90.000000
_cell_angle_gamma 90.000000
_cell_volume 1700.826016
_symmetry_space_group_name_H-M "P 43 21 2"
_symmetry_group_IT_number 96
_symmetry_cell_setting 'tetragonal'
loop_
_space_group_symop_operation_xyz
x,y,z
1/2-y,1/2+x,3/4+z
-x,-y,1/2+z
1/2+y,1/2-x,1/4+z
1/2+x,1/2-y,1/4-z
1/2-x,1/2+y,3/4-z
y,x,-z
-y,-x,1/2-z
loop_
_atom_site_type_symbol
_atom_site_label
_atom_site_fract_x
_atom_site_fract_y
_atom_site_fract_z
Si Si1 0.132651 0.132651 0.000000
Si Si2 0.525389 0.673740 0.497824
Si Si3 0.226972 0.600826 0.500365
Si Si4 0.614705 0.385296 0.750000
Si Si5 0.469057 0.886789 0.447094
Si Si6 0.709489 0.127339 0.733200
O O1 0.128740 0.233225 0.911650
O O2 0.131453 0.044076 0.880643
O O3 0.632492 0.632492 0.500000
O O4 0.483788 0.633450 0.338242
O O5 0.517740 0.788403 0.502090
O O6 0.306979 0.630187 0.378272
O O7 0.226798 0.485696 0.494422
O O8 0.137520 0.657820 0.430639
O O9 0.539294 0.939331 0.327874
O O10 0.372544 0.851703 0.358669
O O11 0.803877 0.196124 0.750000
#
# Coordination Sequence:
#
# PCOD9550788 Si02
#       6
#     4   8   8   4   8   8
#     4  10  25  46  70 120 154 201 252 338 387 458
#     4  11  23  45  76 111 152 195 255 325 392 466
#     4  11  23  45  78 108 156 202 261 320 392 471
#     4  10  19  44  74 104 154 197 240 324 401 454
#     4  12  27  52  76 108 155 210 256 323 396 468
#     4  12  23  45  81 113 146 211 260 312 400 476
#
# _framework density 23.517983999999998
#
# number of rings (size 3 to 8) (size 9 to 14) (size 15 to 20)
#    0.000    0.800    5.000    1.800    0.000    8.000 
#    5.400    0.000    4.400    0.000    0.000    0.000 
#    0.000    0.000    0.000    0.000    0.000    0.000 
#
# Total GULP energy -223784.199093 kJ/mol
# GULP energy per Si atom -5594.604977 kJ/mol
# Density = 2.346446 g / cm^3
# Si number density = 23.517984 Si / 1000 Ang^3
#
#
#
# Elastic Constant Matrix: (Units=GPa)
#
#
# Indices 1 2 3 4 5 6 
#
# 1 90.5667 83.8857 33.9463 0.0000 0.0000 0.0000
# 2 83.8857 90.5664 33.9454 0.0000 0.0000 0.0000
# 3 33.9463 33.9454 92.1461 0.0000 0.0000 0.0000
# 4 0.0000 0.0000 0.0000 35.3438 0.0000 0.0000
# 5 0.0000 0.0000 0.0000 0.0000 35.3438 0.0000
# 6 0.0000 0.0000 0.0000 0.0000 0.0000 41.2022
#
#
#
# Elastic Compliance Matrix: (Units=1/GPa)
#
#
# Indices 1 2 3 4 5 6 
#
# 1 0.078187 -0.071495 -0.002466 0.000000 0.000000 0.000000
# 2 -0.071495 0.078186 -0.002464 0.000000 0.000000 0.000000
# 3 -0.002466 -0.002464 0.012669 0.000000 0.000000 0.000000
# 4 0.000000 0.000000 0.000000 0.028294 0.000000 0.000000
# 5 0.000000 0.000000 0.000000 0.000000 0.028294 0.000000
# 6 0.000000 0.000000 0.000000 0.000000 0.000000 0.024271
#
#
# Mechanical properties :
#
#
# Convention : Reuss Voigt Hill
#
# Bulk Modulus (GPa) = 61.76170 64.09268 62.92719
# Shear Modulus (GPa) = 12.25049 30.47806 21.36428
#
# Velocity S-wave (km/s) = 2.28480 3.60383 3.01728
# Velocity P-wave (km/s) = 5.76879 6.68046 6.24129
#
# Compressibility (1/GPa) = 0.01619126
#
# Stress axis : x y z
#
# Youngs Moduli (GPa) = 12.78990 12.78995 78.93538
#
# Poissons Ratio (x) = 0.91442 0.19464
# Poissons Ratio (y) = 0.91441 0.19453
# Poissons Ratio (z) = 0.03154 0.03152
#
# Static dielectric constant tensor:
#      x y z
#    x 1.951510 0.000000 0.000000 
#    y 0.000000 1.951500 0.000000 
#    z 0.000000 0.000000 1.920230 
# 
# From -- ./inp_files/1371.got.cif
#   From: 2010.05.17/outbox.cif.g08.bks.cpg/sg96_1_cif.got.tgz:1371.got - 2010.06.03 19:52:08.
