data_PCOD9550252
_publ_section_title
;
Structure prediction by ZEFSAII (Michael W. Deem and Ramdas Pophale) SiO2 
 PCOD9550252
Probable space group: P 42 21 2
;
_chemical_formula_sum "Si O2"
_cell_formula_units_Z 60
_cell_length_a 12.112864
_cell_length_b 12.112864
_cell_length_c 19.997315
_cell_angle_alpha 90.000000
_cell_angle_beta 90.000000
_cell_angle_gamma 90.000000
_cell_volume 2934.035538
_symmetry_space_group_name_H-M "P 42 21 2"
_symmetry_group_IT_number 94
_symmetry_cell_setting 'tetragonal'
loop_
_space_group_symop_operation_xyz
x,y,z
1/2-y,1/2+x,1/2+z
-x,-y,z
1/2+y,1/2-x,1/2+z
1/2+x,1/2-y,1/2-z
1/2-x,1/2+y,1/2-z
y,x,-z
-y,-x,-z
loop_
_atom_site_type_symbol
_atom_site_label
_atom_site_fract_x
_atom_site_fract_y
_atom_site_fract_z
Si Si1 0.377978 0.497138 0.339204
Si Si2 0.000000 0.000000 0.619274
Si Si3 0.592859 0.678429 0.221248
Si Si4 0.689062 0.336154 0.102550
Si Si5 0.397573 0.248192 0.543052
Si Si6 0.970548 0.627631 0.221559
Si Si7 0.613901 0.062606 0.921755
Si Si8 0.690657 0.283401 0.260734
O O1 0.500000 0.500000 0.370691
O O2 0.382137 0.396749 0.285953
O O3 0.287857 0.467677 0.394277
O O4 0.359220 0.612835 0.301454
O O5 0.088784 0.933311 0.664808
O O6 0.919770 0.910061 0.584995
O O7 0.490873 0.763035 0.232707
O O8 0.683755 0.772737 0.213377
O O9 0.686335 0.213783 0.069603
O O10 0.805187 0.389697 0.080978
O O11 0.696467 0.316849 0.182503
O O12 0.350360 0.350360 0.500000
O O13 0.464862 0.180323 0.488385
O O14 0.025586 0.658344 0.150792
O O15 0.000000 0.500000 0.238065
O O16 0.841718 0.654740 0.219140
O O17 0.500000 0.000000 0.925545
#
# Coordination Sequence:
#
# PCOD9550252 Si02
#       8
#     8   4   8   8   8   8   8   8
#     4  12  22  40  66  97 136 169 213 282 339 411
#     4  12  24  40  63 100 137 174 214 280 336 410
#     4  12  21  38  61  95 139 167 209 265 338 416
#     4  11  21  41  69  96 133 177 219 273 346 414
#     4  10  23  44  68  91 127 181 231 272 331 405
#     4  11  23  38  62  93 131 176 220 266 337 405
#     4  10  23  44  68  91 126 180 231 273 330 397
#     4  12  24  37  62 103 135 169 217 272 346 410
#
# _framework density 20.449650999999999
#
# number of rings (size 3 to 8) (size 9 to 14) (size 15 to 20)
#    0.000    0.800    7.333    0.800    5.600    0.267 
#    2.400    3.667    0.000    3.200    0.000    0.000 
#    0.000    0.000    0.000    0.000    0.000    0.000 
#
# Total GULP energy -334003.210309 kJ/mol
# GULP energy per Si atom -5566.720172 kJ/mol
# Density = 2.040311 g / cm^3
# Si number density = 20.449651 Si / 1000 Ang^3
#
#
#
# Elastic Constant Matrix: (Units=GPa)
#
#
# Indices 1 2 3 4 5 6 
#
# 1 63.8763 27.5337 31.5842 0.0000 0.0000 0.0000
# 2 27.5337 63.8763 31.5842 0.0000 0.0000 0.0000
# 3 31.5842 31.5842 53.6583 0.0000 0.0000 0.0000
# 4 0.0000 0.0000 0.0000 19.6323 0.0000 0.0000
# 5 0.0000 0.0000 0.0000 0.0000 19.6323 0.0000
# 6 0.0000 0.0000 0.0000 0.0000 0.0000 -31.0761
#
#
#
# Elastic Compliance Matrix: (Units=1/GPa)
#
#
# Indices 1 2 3 4 5 6 
#
# 1 0.022978 -0.004538 -0.010854 0.000000 0.000000 0.000000
# 2 -0.004538 0.022978 -0.010854 0.000000 0.000000 0.000000
# 3 -0.010854 -0.010854 0.031415 0.000000 0.000000 0.000000
# 4 0.000000 0.000000 0.000000 0.050937 0.000000 0.000000
# 5 0.000000 0.000000 0.000000 0.000000 0.050937 0.000000
# 6 0.000000 0.000000 0.000000 0.000000 0.000000 -0.032179
#
#
# Mechanical properties :
#
#
# Convention : Reuss Voigt Hill
#
# Bulk Modulus (GPa) = 40.19599 40.31276 40.25438
# Shear Modulus (GPa) = 24.05566 7.68493 15.87029
#
# Velocity S-wave (km/s) = 3.43350 1.94065 2.78882
# Velocity P-wave (km/s) = 5.95124 4.97770 5.48611
#
# Compressibility (1/GPa) = 0.02487810
#
# Stress axis : x y z
#
# Youngs Moduli (GPa) = 43.51931 43.51931 31.83225
#
# Poissons Ratio (x) = 0.19748 0.34552
# Poissons Ratio (y) = 0.19748 0.34552
# Poissons Ratio (z) = 0.47238 0.47238
#
# Static dielectric constant tensor:
#      x y z
#    x 1.874080 0.000000 0.000000 
#    y 0.000000 1.874080 0.000000 
#    z 0.000000 0.000000 1.945400 
# 
# From -- ./inp_files/4783.got.cif
#   From: 2010.05.17/outbox.cif.g08.bks.cpg/sg94_3_cif.got.tgz:4783.got - 2010.06.03 19:43:16.
