data_PCOD9550081
_publ_section_title
;
Structure prediction by ZEFSAII (Michael W. Deem and Ramdas Pophale) SiO2 
 PCOD9550081
Probable space group: P 42 21 2
;
_chemical_formula_sum "Si O2"
_cell_formula_units_Z 38
_cell_length_a 7.706242
_cell_length_b 7.706242
_cell_length_c 24.498563
_cell_angle_alpha 90.000000
_cell_angle_beta 90.000000
_cell_angle_gamma 90.000000
_cell_volume 1454.875723
_symmetry_space_group_name_H-M "P 42 21 2"
_symmetry_group_IT_number 94
_symmetry_cell_setting 'tetragonal'
loop_
_space_group_symop_operation_xyz
x,y,z
1/2-y,1/2+x,1/2+z
-x,-y,z
1/2+y,1/2-x,1/2+z
1/2+x,1/2-y,1/2-z
1/2-x,1/2+y,1/2-z
y,x,-z
-y,-x,-z
loop_
_atom_site_type_symbol
_atom_site_label
_atom_site_fract_x
_atom_site_fract_y
_atom_site_fract_z
Si Si1 0.500000 0.500000 0.500000
Si Si2 0.396066 0.742456 0.579761
Si Si3 0.190862 0.073450 0.334288
Si Si4 0.607337 0.266555 0.056954
Si Si5 0.906676 0.669675 0.242632
Si Si6 0.000000 0.000000 0.176070
O O1 0.356546 0.568218 0.545133
O O2 0.573602 0.814254 0.552755
O O3 0.453884 0.666643 0.638266
O O4 0.263381 0.904458 0.575330
O O5 0.217330 0.138501 0.395554
O O6 0.307845 0.924777 0.307501
O O7 0.181929 0.233339 0.292693
O O8 0.000000 0.000000 0.335011
O O9 0.636540 0.363461 0.000000
O O10 0.000000 0.500000 0.267337
O O11 0.002648 0.831954 0.214656
#
# Coordination Sequence:
#
# PCOD9550081 Si02
#       6
#     2   8   8   8   8   4
#     4  10  20  44  66 100 134 196 246 298 366 444
#     4  10  23  42  73 105 147 197 258 319 382 477
#     4  12  27  47  75 111 152 204 259 333 412 486
#     4  11  25  45  71 109 153 201 254 326 399 482
#     4  12  27  48  76 113 156 202 265 332 416 502
#     4  11  24  49  76 112 151 206 267 336 408 502
#
# _framework density 26.119069
#
# number of rings (size 3 to 8) (size 9 to 14) (size 15 to 20)
#    0.000    0.842    2.105    3.789    5.895    5.474 
#    3.789    0.000    0.000    0.000    0.000    0.000 
#    0.000    0.000    0.000    0.000    0.000    0.000 
#
# Total GULP energy -211950.278333 kJ/mol
# GULP energy per Si atom -5577.638904 kJ/mol
# Density = 2.605962 g / cm^3
# Si number density = 26.119069 Si / 1000 Ang^3
#
#
#
# Elastic Constant Matrix: (Units=GPa)
#
#
# Indices 1 2 3 4 5 6 
#
# 1 134.2350 45.0805 59.1725 0.0000 0.0000 0.0000
# 2 45.0805 134.2344 59.1721 0.0000 0.0000 0.0000
# 3 59.1725 59.1721 195.8545 0.0000 0.0000 0.0000
# 4 0.0000 0.0000 0.0000 17.7862 0.0000 0.0000
# 5 0.0000 0.0000 0.0000 0.0000 17.7864 0.0000
# 6 0.0000 0.0000 0.0000 0.0000 0.0000 50.1831
#
#
#
# Elastic Compliance Matrix: (Units=1/GPa)
#
#
# Indices 1 2 3 4 5 6 
#
# 1 0.009091 -0.002125 -0.002105 0.000000 0.000000 0.000000
# 2 -0.002125 0.009091 -0.002105 0.000000 0.000000 0.000000
# 3 -0.002105 -0.002105 0.006377 0.000000 0.000000 0.000000
# 4 0.000000 0.000000 0.000000 0.056223 0.000000 0.000000
# 5 0.000000 0.000000 0.000000 0.000000 0.056223 0.000000
# 6 0.000000 0.000000 0.000000 0.000000 0.000000 0.019927
#
#
# Mechanical properties :
#
#
# Convention : Reuss Voigt Hill
#
# Bulk Modulus (GPa) = 84.09818 87.90822 86.00320
# Shear Modulus (GPa) = 28.80761 37.21106 33.00933
#
# Velocity S-wave (km/s) = 3.32465 3.77858 3.55886
# Velocity P-wave (km/s) = 6.85606 7.26406 7.06301
#
# Compressibility (1/GPa) = 0.01189086
#
# Stress axis : x y z
#
# Youngs Moduli (GPa) = 109.99774 109.99735 156.80188
#
# Poissons Ratio (x) = 0.23379 0.32999
# Poissons Ratio (y) = 0.23379 0.32999
# Poissons Ratio (z) = 0.23149 0.23149
#
# Static dielectric constant tensor:
#      x y z
#    x 2.226370 0.000000 0.000000 
#    y 0.000000 2.226370 0.000000 
#    z 0.000000 0.000000 2.095740 
# 
# From -- ./inp_files/5035.got.cif
#   From: 2010.05.17/outbox.cif.g08.bks.cpg/sg94_3_cif.got.tgz:5035.got - 2010.06.03 19:43:16.
