data_PCOD9550070
_publ_section_title
;
Structure prediction by ZEFSAII (Michael W. Deem and Ramdas Pophale) SiO2 
 PCOD9550070
Probable space group: P 42 21 2
;
_chemical_formula_sum "Si O2"
_cell_formula_units_Z 52
_cell_length_a 16.268227
_cell_length_b 16.268227
_cell_length_c 9.010758
_cell_angle_alpha 90.000000
_cell_angle_beta 90.000000
_cell_angle_gamma 90.000000
_cell_volume 2384.744048
_symmetry_space_group_name_H-M "P 42 21 2"
_symmetry_group_IT_number 94
_symmetry_cell_setting 'tetragonal'
loop_
_space_group_symop_operation_xyz
x,y,z
1/2-y,1/2+x,1/2+z
-x,-y,z
1/2+y,1/2-x,1/2+z
1/2+x,1/2-y,1/2-z
1/2-x,1/2+y,1/2-z
y,x,-z
-y,-x,-z
loop_
_atom_site_type_symbol
_atom_site_label
_atom_site_fract_x
_atom_site_fract_y
_atom_site_fract_z
Si Si1 0.815662 0.651346 0.752210
Si Si2 0.988664 0.375086 0.769335
Si Si3 0.883390 0.855663 0.247876
Si Si4 0.942546 0.166877 0.187250
Si Si5 0.500000 0.000000 0.978854
Si Si6 0.533487 0.690510 0.666465
Si Si7 0.782525 0.782525 0.500000
Si Si8 0.213653 0.213653 0.000000
O O1 0.911865 0.632648 0.759065
O O2 0.757105 0.572957 0.751898
O O3 0.791678 0.701257 0.600611
O O4 0.792745 0.709142 0.891596
O O5 0.964885 0.428202 0.625963
O O6 0.953399 0.284361 0.786051
O O7 0.967722 0.428560 0.913869
O O8 0.854454 0.800129 0.383454
O O9 0.864104 0.797215 0.107877
O O10 0.978124 0.875261 0.255440
O O11 0.835562 0.942193 0.223908
O O12 0.865920 0.108088 0.222135
O O13 0.959489 0.176933 0.011139
#
# Coordination Sequence:
#
# PCOD9550070 Si02
#       8
#     8   8   8   8   4   8   4   4
#     4  11  23  41  64  95 133 170 223 276 336 400
#     4  11  22  46  67  98 133 174 229 284 340 402
#     4  11  20  42  68  93 127 178 221 271 332 407
#     4  11  23  38  66 103 131 172 219 273 338 404
#     4  10  26  40  72  98 126 182 234 288 338 398
#     4  11  21  41  67  95 133 174 220 271 333 415
#     4  10  22  40  65  90 129 178 214 268 336 396
#     4  10  20  40  67  88 121 178 228 262 324 412
#
# _framework density 21.805275999999999
#
# number of rings (size 3 to 8) (size 9 to 14) (size 15 to 20)
#    0.000    1.231    4.615    2.308    0.000    3.692 
#    2.769    8.462    0.000    0.000    0.000    0.000 
#    0.000    0.000    0.000    0.000    0.000    0.000 
#
# Total GULP energy -290537.231328 kJ/mol
# GULP energy per Si atom -5587.254449 kJ/mol
# Density = 2.175565 g / cm^3
# Si number density = 21.805276 Si / 1000 Ang^3
#
#
#
# Elastic Constant Matrix: (Units=GPa)
#
#
# Indices 1 2 3 4 5 6 
#
# 1 80.6417 -17.8487 19.2118 0.0000 0.0000 0.0000
# 2 -17.8487 80.6417 19.2118 0.0000 0.0000 0.0000
# 3 19.2118 19.2118 98.8309 0.0000 0.0000 0.0000
# 4 0.0000 0.0000 0.0000 -5.3976 0.0000 0.0000
# 5 0.0000 0.0000 0.0000 0.0000 -5.3976 0.0000
# 6 0.0000 0.0000 0.0000 0.0000 0.0000 38.1081
#
#
#
# Elastic Compliance Matrix: (Units=1/GPa)
#
#
# Indices 1 2 3 4 5 6 
#
# 1 0.014114 0.003961 -0.003514 0.000000 0.000000 0.000000
# 2 0.003961 0.014114 -0.003514 0.000000 0.000000 0.000000
# 3 -0.003514 -0.003514 0.011484 0.000000 0.000000 0.000000
# 4 0.000000 0.000000 0.000000 -0.185267 0.000000 0.000000
# 5 0.000000 0.000000 0.000000 0.000000 -0.185267 0.000000
# 6 0.000000 0.000000 0.000000 0.000000 0.000000 0.026241
#
#
# Mechanical properties :
#
#
# Convention : Reuss Voigt Hill
#
# Bulk Modulus (GPa) = 29.77928 33.47380 31.62654
# Shear Modulus (GPa) = -17.40617 21.43187 2.01285
#
# Velocity S-wave (km/s) = -2.82841 3.13849 0.96182
# Velocity P-wave (km/s) = 1.73783 5.34023 3.97102
#
# Compressibility (1/GPa) = 0.03358039
#
# Stress axis : x y z
#
# Youngs Moduli (GPa) = 70.84993 70.84993 87.07501
#
# Poissons Ratio (x) = -0.28064 0.30595
# Poissons Ratio (y) = -0.28064 0.30595
# Poissons Ratio (z) = 0.24894 0.24894
#
# Static dielectric constant tensor:
#      x y z
#    x 1.887470 0.000000 0.000000 
#    y 0.000000 1.887470 0.000000 
#    z 0.000000 0.000000 1.738620 
# 
# From -- ./inp_files/1706.got.cif
#   From: 2010.05.17/outbox.cif.g08.bks.cpg/sg94_1_cif.got.tgz:1706.got - 2010.06.03 19:43:16.
