data_PCOD9550755
_publ_section_title
;
Structure prediction by ZEFSAII (Michael W. Deem and Ramdas Pophale) SiO2 
 PCOD9550755
Probable space group: P 43 21 2
;
_chemical_formula_sum "Si O2"
_cell_formula_units_Z 52
_cell_length_a 19.564092
_cell_length_b 19.564092
_cell_length_c 6.201203
_cell_angle_alpha 90.000000
_cell_angle_beta 90.000000
_cell_angle_gamma 90.000000
_cell_volume 2373.533367
_symmetry_space_group_name_H-M "P 43 21 2"
_symmetry_group_IT_number 96
_symmetry_cell_setting 'tetragonal'
loop_
_space_group_symop_operation_xyz
x,y,z
1/2-y,1/2+x,3/4+z
-x,-y,1/2+z
1/2+y,1/2-x,1/4+z
1/2+x,1/2-y,1/4-z
1/2-x,1/2+y,3/4-z
y,x,-z
-y,-x,1/2-z
loop_
_atom_site_type_symbol
_atom_site_label
_atom_site_fract_x
_atom_site_fract_y
_atom_site_fract_z
Si Si1 0.422478 0.422478 0.500000
Si Si2 0.944364 0.944364 0.000000
Si Si3 0.475902 0.803235 0.789132
Si Si4 0.775851 0.071593 0.837258
Si Si5 0.545580 0.303841 0.925388
Si Si6 0.370996 0.802990 0.159636
Si Si7 0.279134 0.279134 0.500000
Si Si8 0.911098 0.454956 0.571979
O O1 0.478486 0.436404 0.677370
O O2 0.433238 0.343951 0.438995
O O3 0.936259 0.883899 0.824510
O O4 0.539111 0.784592 0.945705
O O5 0.459149 0.736155 0.647828
O O6 0.485153 0.866417 0.627106
O O7 0.411222 0.816703 0.940545
O O8 0.774619 0.151650 0.891434
O O9 0.788711 0.025167 0.045977
O O10 0.600133 0.265139 0.774235
O O11 0.291421 0.788529 0.123202
O O12 0.396776 0.863469 0.319880
O O13 0.925909 0.517147 0.735641
#
# Coordination Sequence:
#
# PCOD9550755 Si02
#       8
#     4   4   8   8   8   8   4   8
#     4   9  20  34  53  96 122 170 229 280 334 399
#     4  10  19  34  63  86 130 168 223 288 325 394
#     4  10  23  43  72  96 134 182 228 281 357 414
#     4   9  21  41  61  91 135 179 219 283 342 403
#     4   9  20  42  61  91 130 171 221 279 343 401
#     4  10  24  44  67 100 137 179 229 287 352 416
#     4  11  23  40  70  92 140 182 226 288 337 421
#     4  11  28  44  73 108 138 177 234 289 353 433
#
# _framework density 21.908266000000001
#
# number of rings (size 3 to 8) (size 9 to 14) (size 15 to 20)
#    0.000    2.154    0.000    0.462   12.923    0.000 
#    0.000   15.385    0.000    0.000    0.000    0.000 
#    0.000    0.000    0.000    0.000    0.000    0.000 
#
# Total GULP energy -290097.436016 kJ/mol
# GULP energy per Si atom -5578.796846 kJ/mol
# Density = 2.185840 g / cm^3
# Si number density = 21.908266 Si / 1000 Ang^3
#
#
#
# Elastic Constant Matrix: (Units=GPa)
#
#
# Indices 1 2 3 4 5 6 
#
# 1 44.9695 118.6715 24.5134 0.0000 0.0000 0.0000
# 2 118.6715 44.9695 24.5134 0.0000 0.0000 0.0000
# 3 24.5134 24.5134 59.3798 0.0000 0.0000 0.0000
# 4 0.0000 0.0000 0.0000 12.6331 0.0000 0.0000
# 5 0.0000 0.0000 0.0000 0.0000 12.6331 0.0000
# 6 0.0000 0.0000 0.0000 0.0000 0.0000 23.2416
#
#
#
# Elastic Compliance Matrix: (Units=1/GPa)
#
#
# Indices 1 2 3 4 5 6 
#
# 1 -0.003297 0.010271 -0.002879 0.000000 0.000000 0.000000
# 2 0.010271 -0.003297 -0.002879 0.000000 0.000000 0.000000
# 3 -0.002879 -0.002879 0.019218 0.000000 0.000000 0.000000
# 4 0.000000 0.000000 0.000000 0.079157 0.000000 0.000000
# 5 0.000000 0.000000 0.000000 0.000000 0.079157 0.000000
# 6 0.000000 0.000000 0.000000 0.000000 0.000000 0.043026
#
#
# Mechanical properties :
#
#
# Convention : Reuss Voigt Hill
#
# Bulk Modulus (GPa) = 46.19088 53.85724 50.02406
# Shear Modulus (GPa) = 23.56788 8.47627 16.02207
#
# Velocity S-wave (km/s) = 3.28343 1.96911 2.70724
# Velocity P-wave (km/s) = 5.95853 5.45951 5.71447
#
# Compressibility (1/GPa) = 0.02164930
#
# Stress axis : x y z
#
# Youngs Moduli (GPa) = -303.27241 -303.27241 52.03557
#
# Poissons Ratio (x) = 3.11485 0.14980
# Poissons Ratio (y) = 3.11485 0.14980
# Poissons Ratio (z) = -0.87306 -0.87306
#
# Static dielectric constant tensor:
#      x y z
#    x 1.842420 0.000000 0.000000 
#    y 0.000000 1.842420 0.000000 
#    z 0.000000 0.000000 1.779690 
# 
# From -- ./inp_files/732.got.cif
#   From: 2010.05.17/outbox.cif.g08.bks.cpg/sg96_1_cif.got.tgz:732.got - 2010.06.03 19:52:08.
