data_PCOD9550802
_publ_section_title
;
Structure prediction by ZEFSAII (Michael W. Deem and Ramdas Pophale) SiO2 
 PCOD9550802
Probable space group: P 43 21 2
;
_chemical_formula_sum "Si O2"
_cell_formula_units_Z 60
_cell_length_a 14.600136
_cell_length_b 14.600136
_cell_length_c 15.186154
_cell_angle_alpha 90.000000
_cell_angle_beta 90.000000
_cell_angle_gamma 90.000000
_cell_volume 3237.140894
_symmetry_space_group_name_H-M "P 43 21 2"
_symmetry_group_IT_number 96
_symmetry_cell_setting 'tetragonal'
loop_
_space_group_symop_operation_xyz
x,y,z
1/2-y,1/2+x,3/4+z
-x,-y,1/2+z
1/2+y,1/2-x,1/4+z
1/2+x,1/2-y,1/4-z
1/2-x,1/2+y,3/4-z
y,x,-z
-y,-x,1/2-z
loop_
_atom_site_type_symbol
_atom_site_label
_atom_site_fract_x
_atom_site_fract_y
_atom_site_fract_z
Si Si1 0.021854 0.021854 0.500000
Si Si2 0.692593 0.551000 0.668552
Si Si3 0.427757 0.036438 0.318624
Si Si4 0.410095 0.615660 0.850261
Si Si5 0.064491 0.611975 0.004651
Si Si6 0.952236 0.692518 0.354162
Si Si7 0.245043 0.842300 0.836447
Si Si8 0.042291 0.232326 0.239022
O O1 0.995179 0.126828 0.490163
O O2 0.973160 0.973452 0.583902
O O3 0.797302 0.549000 0.698419
O O4 0.667529 0.657647 0.651070
O O5 0.684387 0.492282 0.578615
O O6 0.475522 0.133299 0.339412
O O7 0.353760 0.041888 0.241408
O O8 0.513502 0.972606 0.291823
O O9 0.382475 0.987183 0.402292
O O10 0.371014 0.628987 0.750000
O O11 0.470781 0.700670 0.881741
O O12 0.332496 0.598200 0.922853
O O13 0.172693 0.592794 0.010931
O O14 0.845205 0.686308 0.381758
O O15 0.214235 0.785766 0.750000
O O16 0.254652 0.948290 0.811309
#
# Coordination Sequence:
#
# PCOD9550802 Si02
#       8
#     4   8   8   8   8   8   8   8
#     4  10  24  42  62  92 132 162 210 276 314 382
#     4  11  23  40  66  92 126 172 218 259 319 388
#     4  10  24  37  61  91 127 168 207 254 327 380
#     4  10  23  39  61  91 128 160 209 267 328 373
#     4  11  21  42  62  93 127 170 211 263 315 388
#     4  11  22  37  60  89 129 165 202 264 315 387
#     4  10  20  34  60  96 119 159 209 261 326 373
#     4  11  21  39  65  89 129 161 217 258 321 381
#
# _framework density 18.534875
#
# number of rings (size 3 to 8) (size 9 to 14) (size 15 to 20)
#    0.400    1.067    4.000    1.200    3.733    2.133 
#    0.000    0.000    0.000    0.000    0.000    0.000 
#    0.000    0.000    0.000    0.000    0.000    0.000 
#
# Total GULP energy -334596.209951 kJ/mol
# GULP energy per Si atom -5576.603499 kJ/mol
# Density = 1.849269 g / cm^3
# Si number density = 18.534875 Si / 1000 Ang^3
#
#
#
# Elastic Constant Matrix: (Units=GPa)
#
#
# Indices 1 2 3 4 5 6 
#
# 1 39.9736 35.7585 13.9578 0.0000 0.0000 0.0000
# 2 35.7585 39.9738 13.9580 0.0000 0.0000 0.0000
# 3 13.9578 13.9580 38.1163 0.0000 0.0000 0.0000
# 4 0.0000 0.0000 0.0000 11.9139 0.0000 0.0000
# 5 0.0000 0.0000 0.0000 0.0000 11.9138 0.0000
# 6 0.0000 0.0000 0.0000 0.0000 0.0000 26.6232
#
#
#
# Elastic Compliance Matrix: (Units=1/GPa)
#
#
# Indices 1 2 3 4 5 6 
#
# 1 0.126252 -0.110988 -0.005589 0.000000 0.000000 0.000000
# 2 -0.110988 0.126252 -0.005591 0.000000 0.000000 0.000000
# 3 -0.005589 -0.005591 0.030329 0.000000 0.000000 0.000000
# 4 0.000000 0.000000 0.000000 0.083936 0.000000 0.000000
# 5 0.000000 0.000000 0.000000 0.000000 0.083936 0.000000
# 6 0.000000 0.000000 0.000000 0.000000 0.000000 0.037561
#
#
# Mechanical properties :
#
#
# Convention : Reuss Voigt Hill
#
# Bulk Modulus (GPa) = 25.97422 27.26803 26.62112
# Shear Modulus (GPa) = 6.70749 13.71614 10.21182
#
# Velocity S-wave (km/s) = 1.90439 2.72328 2.34978
# Velocity P-wave (km/s) = 4.34508 4.96306 4.66432
#
# Compressibility (1/GPa) = 0.03849971
#
# Stress axis : x y z
#
# Youngs Moduli (GPa) = 7.92064 7.92064 32.97125
#
# Poissons Ratio (x) = 0.87909 0.18428
# Poissons Ratio (y) = 0.87909 0.18433
# Poissons Ratio (z) = 0.04427 0.04428
#
# Static dielectric constant tensor:
#      x y z
#    x 1.638100 0.000000 0.000000 
#    y 0.000000 1.638100 0.000000 
#    z 0.000000 0.000000 1.660450 
# 
# From -- ./inp_files/2806.got.cif
#   From: 2010.05.17/outbox.cif.g08.bks.cpg/sg96_2_cif.got.tgz:2806.got - 2010.06.03 19:52:08.
