data_PCOD9550997
_publ_section_title
;
Structure prediction by ZEFSAII (Michael W. Deem and Ramdas Pophale) SiO2 
 PCOD9550997
Probable space group: P 43 21 2
;
_chemical_formula_sum "Si O2"
_cell_formula_units_Z 36
_cell_length_a 10.532399
_cell_length_b 10.532399
_cell_length_c 15.960101
_cell_angle_alpha 90.000000
_cell_angle_beta 90.000000
_cell_angle_gamma 90.000000
_cell_volume 1770.476806
_symmetry_space_group_name_H-M "P 43 21 2"
_symmetry_group_IT_number 96
_symmetry_cell_setting 'tetragonal'
loop_
_space_group_symop_operation_xyz
x,y,z
1/2-y,1/2+x,3/4+z
-x,-y,1/2+z
1/2+y,1/2-x,1/4+z
1/2+x,1/2-y,1/4-z
1/2-x,1/2+y,3/4-z
y,x,-z
-y,-x,1/2-z
loop_
_atom_site_type_symbol
_atom_site_label
_atom_site_fract_x
_atom_site_fract_y
_atom_site_fract_z
Si Si1 0.274724 0.725277 0.750000
Si Si2 0.152960 0.847041 0.250000
Si Si3 0.828378 0.444619 0.714636
Si Si4 0.052367 0.052367 0.500000
Si Si5 0.521429 0.195113 0.980374
Si Si6 0.414837 0.581038 0.610291
O O1 0.308910 0.640215 0.670058
O O2 0.130119 0.696482 0.770589
O O3 0.127467 0.698263 0.233785
O O4 0.055076 0.880978 0.323168
O O5 0.700883 0.464187 0.769698
O O6 0.921445 0.562901 0.733245
O O7 0.792810 0.439220 0.616348
O O8 0.952149 0.026804 0.425673
O O9 0.558520 0.316082 0.038006
#
# Coordination Sequence:
#
# PCOD9550997 Si02
#       6
#     4   4   8   4   8   8
#     4  11  25  43  67 104 130 184 235 285 345 429
#     4  11  25  45  67 104 134 186 229 289 349 419
#     4  11  25  43  70 101 142 179 239 286 356 412
#     4  10  22  46  68 104 138 188 226 288 350 430
#     4  12  24  46  69 102 139 185 230 296 350 421
#     4  11  24  43  72  95 141 177 232 282 353 414
#
# _framework density 20.333506
#
# number of rings (size 3 to 8) (size 9 to 14) (size 15 to 20)
#    0.000    0.889    2.222    4.667    3.111    1.778 
#    4.000    0.000    0.000    0.000    0.000    0.000 
#    0.000    0.000    0.000    0.000    0.000    0.000 
#
# Total GULP energy -200925.100271 kJ/mol
# GULP energy per Si atom -5581.252785 kJ/mol
# Density = 2.028723 g / cm^3
# Si number density = 20.333506 Si / 1000 Ang^3
#
#
#
# Elastic Constant Matrix: (Units=GPa)
#
#
# Indices 1 2 3 4 5 6 
#
# 1 100.4755 36.3351 12.0446 0.0000 0.0000 0.0000
# 2 36.3351 100.4738 12.0441 0.0000 0.0000 0.0000
# 3 12.0446 12.0441 77.9100 0.0000 0.0000 0.0000
# 4 0.0000 0.0000 0.0000 24.7129 0.0000 0.0000
# 5 0.0000 0.0000 0.0000 0.0000 24.7108 0.0000
# 6 0.0000 0.0000 0.0000 0.0000 0.0000 30.1455
#
#
#
# Elastic Compliance Matrix: (Units=1/GPa)
#
#
# Indices 1 2 3 4 5 6 
#
# 1 0.011552 -0.004039 -0.001162 0.000000 0.000000 0.000000
# 2 -0.004039 0.011553 -0.001162 0.000000 0.000000 0.000000
# 3 -0.001162 -0.001162 0.013194 0.000000 0.000000 0.000000
# 4 0.000000 0.000000 0.000000 0.040465 0.000000 0.000000
# 5 0.000000 0.000000 0.000000 0.000000 0.040468 0.000000
# 6 0.000000 0.000000 0.000000 0.000000 0.000000 0.033172
#
#
# Mechanical properties :
#
#
# Convention : Reuss Voigt Hill
#
# Bulk Modulus (GPa) = 42.41608 44.41186 43.41397
# Shear Modulus (GPa) = 29.24203 30.47622 29.85912
#
# Velocity S-wave (km/s) = 3.79637 3.87566 3.83622
# Velocity P-wave (km/s) = 6.33420 6.47431 6.40464
#
# Compressibility (1/GPa) = 0.02357596
#
# Stress axis : x y z
#
# Youngs Moduli (GPa) = 86.56226 86.56085 75.78934
#
# Poissons Ratio (x) = 0.34958 0.08804
# Poissons Ratio (y) = 0.34958 0.08803
# Poissons Ratio (z) = 0.10055 0.10055
#
# Static dielectric constant tensor:
#      x y z
#    x 1.720770 0.000000 0.000000 
#    y 0.000000 1.720770 0.000000 
#    z 0.000000 0.000000 1.685720 
# 
# From -- ./inp_files/2598.got.cif
#   From: 2010.05.17/outbox.cif.g08.bks.cpg/sg96_2_cif.got.tgz:2598.got - 2010.06.03 19:52:08.
