data_PCOD9550057
_publ_section_title
;
Structure prediction by ZEFSAII (Michael W. Deem and Ramdas Pophale) SiO2 
 PCOD9550057
Probable space group: P 42 21 2
;
_chemical_formula_sum "Si O2"
_cell_formula_units_Z 52
_cell_length_a 16.944185
_cell_length_b 16.944185
_cell_length_c 8.633889
_cell_angle_alpha 90.000000
_cell_angle_beta 90.000000
_cell_angle_gamma 90.000000
_cell_volume 2478.836201
_symmetry_space_group_name_H-M "P 42 21 2"
_symmetry_group_IT_number 94
_symmetry_cell_setting 'tetragonal'
loop_
_space_group_symop_operation_xyz
x,y,z
1/2-y,1/2+x,1/2+z
-x,-y,z
1/2+y,1/2-x,1/2+z
1/2+x,1/2-y,1/2-z
1/2-x,1/2+y,1/2-z
y,x,-z
-y,-x,-z
loop_
_atom_site_type_symbol
_atom_site_label
_atom_site_fract_x
_atom_site_fract_y
_atom_site_fract_z
Si Si1 0.078648 0.283633 0.253699
Si Si2 0.352129 0.352129 0.000000
Si Si3 0.440634 0.204364 0.019578
Si Si4 0.997112 0.174495 0.024940
Si Si5 0.577325 0.542323 0.255967
Si Si6 0.189164 0.411620 0.338763
Si Si7 0.528307 0.083697 0.479867
O O1 0.161690 0.320328 0.313549
O O2 0.019839 0.266811 0.395910
O O3 0.067111 0.215552 0.123498
O O4 0.041442 0.356774 0.160040
O O5 0.370105 0.264793 0.061099
O O6 0.368498 0.419020 0.127299
O O7 0.422448 0.113654 0.061945
O O8 0.445410 0.203248 0.833185
O O9 0.952870 0.115757 0.141080
O O10 0.016529 0.122792 0.872755
O O11 0.935433 0.239046 0.953057
O O12 0.500000 0.500000 0.191638
O O13 0.116987 0.460214 0.411207
O O14 0.500000 0.000000 0.420949
#
# Coordination Sequence:
#
# PCOD9550057 Si02
#       7
#     8   4   8   8   8   8   8
#     4  10  21  34  58  93 129 167 203 270 322 391
#     4  12  23  44  66  94 132 168 224 279 348 394
#     4  11  22  36  60  88 130 169 216 267 329 398
#     4  10  20  39  62  94 126 161 212 268 332 390
#     4  11  23  42  73  96 115 167 236 289 325 391
#     4  10  21  36  61  91 132 167 214 258 328 399
#     4  10  21  35  60  95 129 168 223 266 314 399
#
# _framework density 20.977587
#
# number of rings (size 3 to 8) (size 9 to 14) (size 15 to 20)
#    0.000    1.538    4.615    1.154    4.308    0.000 
#    0.000    0.000   30.462    3.692    0.000    0.000 
#    0.000    0.000    0.000    0.000    0.000    0.000 
#
# Total GULP energy -289788.240263 kJ/mol
# GULP energy per Si atom -5572.850774 kJ/mol
# Density = 2.092984 g / cm^3
# Si number density = 20.977587 Si / 1000 Ang^3
#
#
#
# Elastic Constant Matrix: (Units=GPa)
#
#
# Indices 1 2 3 4 5 6 
#
# 1 58.3141 10.5742 -1.0011 0.0000 0.0000 0.0000
# 2 10.5742 58.3141 -1.0011 0.0000 0.0000 0.0000
# 3 -1.0011 -1.0011 49.8687 0.0000 0.0000 0.0000
# 4 0.0000 0.0000 0.0000 18.9754 0.0000 0.0000
# 5 0.0000 0.0000 0.0000 0.0000 18.9754 0.0000
# 6 0.0000 0.0000 0.0000 0.0000 0.0000 23.9085
#
#
#
# Elastic Compliance Matrix: (Units=1/GPa)
#
#
# Indices 1 2 3 4 5 6 
#
# 1 0.017736 -0.003211 0.000292 0.000000 0.000000 0.000000
# 2 -0.003211 0.017736 0.000292 0.000000 0.000000 0.000000
# 3 0.000292 0.000292 0.020064 0.000000 0.000000 0.000000
# 4 0.000000 0.000000 0.000000 0.052700 0.000000 0.000000
# 5 0.000000 0.000000 0.000000 0.000000 0.052700 0.000000
# 6 0.000000 0.000000 0.000000 0.000000 0.000000 0.041826
#
#
# Mechanical properties :
#
#
# Convention : Reuss Voigt Hill
#
# Bulk Modulus (GPa) = 19.88854 20.40452 20.14653
# Shear Modulus (GPa) = 22.24421 22.90018 22.57220
#
# Velocity S-wave (km/s) = 3.25988 3.30760 3.28383
# Velocity P-wave (km/s) = 4.86524 4.93304 4.89925
#
# Compressibility (1/GPa) = 0.05028020
#
# Stress axis : x y z
#
# Youngs Moduli (GPa) = 56.38318 56.38318 49.83956
#
# Poissons Ratio (x) = 0.18105 -0.01453
# Poissons Ratio (y) = 0.18105 -0.01453
# Poissons Ratio (z) = -0.01644 -0.01644
#
# Static dielectric constant tensor:
#      x y z
#    x 1.804160 0.000000 0.000000 
#    y 0.000000 1.804160 0.000000 
#    z 0.000000 0.000000 1.778250 
# 
# From -- ./inp_files/1693.got.cif
#   From: 2010.05.17/outbox.cif.g08.bks.cpg/sg94_1_cif.got.tgz:1693.got - 2010.06.03 19:43:16.
