data_PCOD9550897
_publ_section_title
;
Structure prediction by ZEFSAII (Michael W. Deem and Ramdas Pophale) SiO2 
 PCOD9550897
Probable space group: P 43 21 2
;
_chemical_formula_sum "Si O2"
_cell_formula_units_Z 44
_cell_length_a 13.665989
_cell_length_b 13.665989
_cell_length_c 11.072775
_cell_angle_alpha 90.000000
_cell_angle_beta 90.000000
_cell_angle_gamma 90.000000
_cell_volume 2067.943214
_symmetry_space_group_name_H-M "P 43 21 2"
_symmetry_group_IT_number 96
_symmetry_cell_setting 'tetragonal'
loop_
_space_group_symop_operation_xyz
x,y,z
1/2-y,1/2+x,3/4+z
-x,-y,1/2+z
1/2+y,1/2-x,1/4+z
1/2+x,1/2-y,1/4-z
1/2-x,1/2+y,3/4-z
y,x,-z
-y,-x,1/2-z
loop_
_atom_site_type_symbol
_atom_site_label
_atom_site_fract_x
_atom_site_fract_y
_atom_site_fract_z
Si Si1 0.217773 0.217773 0.500000
Si Si2 0.416404 0.416404 0.000000
Si Si3 0.226276 0.427035 0.544047
Si Si4 0.541715 0.941095 0.626969
Si Si5 0.350335 0.608642 0.488091
Si Si6 0.780801 0.073798 0.452752
Si Si7 0.854282 0.854282 0.500000
O O1 0.197566 0.332132 0.470301
O O2 0.157087 0.186035 0.616535
O O3 0.397263 0.532010 0.010466
O O4 0.377225 0.357565 0.114851
O O5 0.137195 0.497037 0.582771
O O6 0.306977 0.498883 0.490709
O O7 0.264682 0.378713 0.668261
O O8 0.466033 0.972262 0.734574
O O9 0.558348 0.824981 0.641651
O O10 0.315808 0.664525 0.612725
O O11 0.827211 0.968041 0.486119
#
# Coordination Sequence:
#
# PCOD9550897 Si02
#       7
#     4   4   8   8   8   8   4
#     4  12  25  39  64  98 123 161 228 276 316 396
#     4  10  21  38  63  96 128 158 214 274 312 380
#     4  10  22  43  62  85 129 173 204 261 340 396
#     4  10  21  39  63  88 123 167 211 257 317 386
#     4  10  21  39  65  94 125 167 212 264 334 388
#     4   9  19  39  63  90 124 170 209 251 326 390
#     4   8  18  37  61  86 123 163 206 256 314 386
#
# _framework density 21.277180000000001
#
# number of rings (size 3 to 8) (size 9 to 14) (size 15 to 20)
#    0.000    2.182    0.000    2.727    0.000    8.727 
#    0.000   23.636    0.000    2.182    0.000    0.000 
#    0.000    0.000    0.000    0.000    0.000    0.000 
#
# Total GULP energy -245188.469354 kJ/mol
# GULP energy per Si atom -5572.465213 kJ/mol
# Density = 2.122875 g / cm^3
# Si number density = 21.277180 Si / 1000 Ang^3
#
#
#
# Elastic Constant Matrix: (Units=GPa)
#
#
# Indices 1 2 3 4 5 6 
#
# 1 53.9742 42.4990 37.5586 0.0000 0.0000 0.0000
# 2 42.4990 53.9742 37.5586 0.0000 0.0000 0.0000
# 3 37.5586 37.5586 145.3218 0.0000 0.0000 0.0000
# 4 0.0000 0.0000 0.0000 23.8225 0.0000 0.0000
# 5 0.0000 0.0000 0.0000 0.0000 23.8225 0.0000
# 6 0.0000 0.0000 0.0000 0.0000 0.0000 22.1626
#
#
#
# Elastic Compliance Matrix: (Units=1/GPa)
#
#
# Indices 1 2 3 4 5 6 
#
# 1 0.050061 -0.037084 -0.003354 0.000000 0.000000 0.000000
# 2 -0.037084 0.050061 -0.003354 0.000000 0.000000 0.000000
# 3 -0.003354 -0.003354 0.008615 0.000000 0.000000 0.000000
# 4 0.000000 0.000000 0.000000 0.041977 0.000000 0.000000
# 5 0.000000 0.000000 0.000000 0.000000 0.041977 0.000000
# 6 0.000000 0.000000 0.000000 0.000000 0.000000 0.045121
#
#
# Mechanical properties :
#
#
# Convention : Reuss Voigt Hill
#
# Bulk Modulus (GPa) = 47.27395 54.27807 50.77601
# Shear Modulus (GPa) = 15.04001 23.00513 19.02257
#
# Velocity S-wave (km/s) = 2.66157 3.29174 2.99329
# Velocity P-wave (km/s) = 5.63131 6.32557 5.98851
#
# Compressibility (1/GPa) = 0.02115330
#
# Stress axis : x y z
#
# Youngs Moduli (GPa) = 19.97566 19.97566 116.07745
#
# Poissons Ratio (x) = 0.74077 0.38932
# Poissons Ratio (y) = 0.74077 0.38932
# Poissons Ratio (z) = 0.06700 0.06700
#
# Static dielectric constant tensor:
#      x y z
#    x 1.766690 0.000000 0.000000 
#    y 0.000000 1.766690 0.000000 
#    z 0.000000 0.000000 1.900450 
# 
# From -- ./inp_files/2152.got.cif
#   From: 2010.05.17/outbox.cif.g08.bks.cpg/sg96_2_cif.got.tgz:2152.got - 2010.06.03 19:52:08.
