data_PCOD9550421
_publ_section_title
;
Structure prediction by ZEFSAII (Michael W. Deem and Ramdas Pophale) SiO2 
 PCOD9550421
Probable space group: P 43 2 2
;
_chemical_formula_sum "Si O2"
_cell_formula_units_Z 56
_cell_length_a 20.082768
_cell_length_b 20.082768
_cell_length_c 8.541942
_cell_angle_alpha 90.000000
_cell_angle_beta 90.000000
_cell_angle_gamma 90.000000
_cell_volume 3445.115295
_symmetry_space_group_name_H-M "P 43 2 2"
_symmetry_group_IT_number 95
_symmetry_cell_setting 'tetragonal'
loop_
_space_group_symop_operation_xyz
x,y,z
-y,x,3/4+z
-x,-y,1/2+z
y,-x,1/4+z
x,-y,1/2-z
-x,y,-z
y,x,1/4-z
-y,-x,3/4-z
loop_
_atom_site_type_symbol
_atom_site_label
_atom_site_fract_x
_atom_site_fract_y
_atom_site_fract_z
Si Si1 0.344470 0.495760 0.916408
Si Si2 0.712378 0.386715 0.584627
Si Si3 0.426765 0.838942 0.508704
Si Si4 0.300099 0.799343 0.898740
Si Si5 0.103269 0.500000 0.750000
Si Si6 0.383715 0.383715 0.125000
Si Si7 0.625298 0.074282 0.281772
Si Si8 0.593336 0.790128 0.833441
O O1 0.379689 0.500000 0.750000
O O2 0.276371 0.451498 0.897874
O O3 0.329940 0.570210 0.966464
O O4 0.377766 0.457187 0.057438
O O5 0.771021 0.435316 0.643416
O O6 0.752336 0.332316 0.486624
O O7 0.667523 0.368695 0.733503
O O8 0.500000 0.869276 0.500000
O O9 0.386207 0.889736 0.614789
O O10 0.395694 0.812830 0.346190
O O11 0.223224 0.776777 0.875000
O O12 0.322871 0.875316 0.865850
O O13 0.340250 0.783524 0.060574
O O14 0.070074 0.444920 0.632231
O O15 0.150872 0.547352 0.649040
O O16 0.649195 0.000000 0.250000
#
# Coordination Sequence:
#
# PCOD9550421 Si02
#       8
#     8   8   8   8   4   4   8   8
#     4  12  21  35  52  68  98 121 159 214 274 329
#     4  11  21  33  51  75  98 120 161 215 263 320
#     4  11  18  31  50  73 104 136 169 214 253 303
#     4  10  21  36  54  78 102 132 174 218 266 317
#     4  10  18  28  50  70 100 138 172 206 246 320
#     4  12  24  32  50  80  88 120 166 208 280 328
#     4  10  22  34  48  75 109 148 182 216 263 320
#     4  11  17  32  51  76  98 130 168 209 258 309
#
# _framework density 16.254899000000002
#
# number of rings (size 3 to 8) (size 9 to 14) (size 15 to 20)
#    0.000    1.143    6.429    2.143    1.000    0.000 
#    0.000    2.143    0.000    6.857    0.000    0.000 
#    0.000    0.000    0.000    2.571    0.000    0.000 
#
# Total GULP energy -311929.362859 kJ/mol
# GULP energy per Si atom -5570.167194 kJ/mol
# Density = 1.621790 g / cm^3
# Si number density = 16.254899 Si / 1000 Ang^3
#
#
#
# Elastic Constant Matrix: (Units=GPa)
#
#
# Indices 1 2 3 4 5 6 
#
# 1 44.4308 35.4681 12.8650 0.0000 0.0000 0.0000
# 2 35.4681 44.4280 12.8647 0.0000 0.0000 0.0000
# 3 12.8650 12.8647 81.8824 0.0000 0.0000 0.0000
# 4 0.0000 0.0000 0.0000 12.8483 0.0000 0.0000
# 5 0.0000 0.0000 0.0000 0.0000 12.8486 0.0000
# 6 0.0000 0.0000 0.0000 0.0000 0.0000 11.5098
#
#
#
# Elastic Compliance Matrix: (Units=1/GPa)
#
#
# Indices 1 2 3 4 5 6 
#
# 1 0.062385 -0.049204 -0.002071 0.000000 0.000000 0.000000
# 2 -0.049204 0.062389 -0.002071 0.000000 0.000000 0.000000
# 3 -0.002071 -0.002071 0.012863 0.000000 0.000000 0.000000
# 4 0.000000 0.000000 0.000000 0.077832 0.000000 0.000000
# 5 0.000000 0.000000 0.000000 0.000000 0.077830 0.000000
# 6 0.000000 0.000000 0.000000 0.000000 0.000000 0.086882
#
#
# Mechanical properties :
#
#
# Convention : Reuss Voigt Hill
#
# Bulk Modulus (GPa) = 32.31580 32.57076 32.44328
# Shear Modulus (GPa) = 10.05651 14.74422 12.40037
#
# Velocity S-wave (km/s) = 2.49002 3.01502 2.76501
# Velocity P-wave (km/s) = 5.30949 5.67463 5.49510
#
# Compressibility (1/GPa) = 0.03094461
#
# Stress axis : x y z
#
# Youngs Moduli (GPa) = 16.02939 16.02836 77.73951
#
# Poissons Ratio (x) = 0.78867 0.16101
# Poissons Ratio (y) = 0.78872 0.16103
# Poissons Ratio (z) = 0.03320 0.03320
#
# Static dielectric constant tensor:
#      x y z
#    x 1.571180 0.000000 0.000000 
#    y 0.000000 1.571180 0.000000 
#    z 0.000000 0.000000 1.638580 
# 
# From -- ./inp_files/2933.got.cif
#   From: 2010.05.17/outbox.cif.g08.bks.cpg/sg95_2_cif.got.tgz:2933.got - 2010.06.03 19:46:49.
