data_PCOD9550899
_publ_section_title
;
Structure prediction by ZEFSAII (Michael W. Deem and Ramdas Pophale) SiO2 
 PCOD9550899
Probable space group: P 43 21 2
;
_chemical_formula_sum "Si O2"
_cell_formula_units_Z 52
_cell_length_a 22.375560
_cell_length_b 22.375560
_cell_length_c 4.963063
_cell_angle_alpha 90.000000
_cell_angle_beta 90.000000
_cell_angle_gamma 90.000000
_cell_volume 2484.835338
_symmetry_space_group_name_H-M "P 43 21 2"
_symmetry_group_IT_number 96
_symmetry_cell_setting 'tetragonal'
loop_
_space_group_symop_operation_xyz
x,y,z
1/2-y,1/2+x,3/4+z
-x,-y,1/2+z
1/2+y,1/2-x,1/4+z
1/2+x,1/2-y,1/4-z
1/2-x,1/2+y,3/4-z
y,x,-z
-y,-x,1/2-z
loop_
_atom_site_type_symbol
_atom_site_label
_atom_site_fract_x
_atom_site_fract_y
_atom_site_fract_z
Si Si1 0.014767 0.252306 0.182036
Si Si2 0.226680 0.773321 0.750000
Si Si3 0.530301 0.469700 0.250000
Si Si4 0.643395 0.196925 0.038065
Si Si5 0.382138 0.876167 0.047086
Si Si6 0.161752 0.838249 0.250000
Si Si7 0.050035 0.863172 0.570372
Si Si8 0.673422 0.009643 0.824500
O O1 0.086226 0.258755 0.226795
O O2 0.007380 0.271877 0.872564
O O3 0.981945 0.190025 0.228840
O O4 0.982145 0.299394 0.379734
O O5 0.296131 0.780088 0.671053
O O6 0.193796 0.806379 0.501045
O O7 0.505496 0.505496 0.500000
O O8 0.597130 0.494306 0.214944
O O9 0.626140 0.141462 0.235545
O O10 0.651048 0.173119 0.734825
O O11 0.358577 0.937259 0.169001
O O12 0.452443 0.869189 0.098078
O O13 0.091616 0.835223 0.335101
O O14 0.095626 0.904375 0.750000
#
# Coordination Sequence:
#
# PCOD9550899 Si02
#       8
#     8   4   4   8   8   4   8   8
#     4  10  24  39  64  90 125 167 213 259 318 392
#     4  12  26  39  65  92 132 167 212 274 317 382
#     4  10  22  41  60  83 126 164 197 260 305 380
#     4  10  23  42  58  89 122 166 213 247 322 381
#     4  10  21  39  61  87 120 157 202 255 311 377
#     4  12  26  38  61 105 126 161 215 280 324 384
#     4  11  25  42  65  98 131 168 222 268 336 383
#     4  10  22  39  62  89 120 165 201 259 316 378
#
# _framework density 20.926939999999998
#
# number of rings (size 3 to 8) (size 9 to 14) (size 15 to 20)
#    0.000    1.538    1.538    1.846    8.615    0.615 
#    0.000    4.615    0.000    3.692    0.000    0.000 
#    0.000    0.000    0.000    0.000    0.000    0.000 
#
# Total GULP energy -289766.446998 kJ/mol
# GULP energy per Si atom -5572.431673 kJ/mol
# Density = 2.087931 g / cm^3
# Si number density = 20.926940 Si / 1000 Ang^3
#
#
#
# Elastic Constant Matrix: (Units=GPa)
#
#
# Indices 1 2 3 4 5 6 
#
# 1 62.4984 80.6775 4.3561 0.0000 0.0000 0.0000
# 2 80.6775 62.4946 4.3568 0.0000 0.0000 0.0000
# 3 4.3561 4.3568 104.0851 0.0000 0.0000 0.0000
# 4 0.0000 0.0000 0.0000 17.1661 0.0000 0.0000
# 5 0.0000 0.0000 0.0000 0.0000 17.1661 0.0000
# 6 0.0000 0.0000 0.0000 0.0000 0.0000 26.2904
#
#
#
# Elastic Compliance Matrix: (Units=1/GPa)
#
#
# Indices 1 2 3 4 5 6 
#
# 1 -0.023999 0.031002 -0.000293 0.000000 0.000000 0.000000
# 2 0.031002 -0.024001 -0.000293 0.000000 0.000000 0.000000
# 3 -0.000293 -0.000293 0.009632 0.000000 0.000000 0.000000
# 4 0.000000 0.000000 0.000000 0.058254 0.000000 0.000000
# 5 0.000000 0.000000 0.000000 0.000000 0.058254 0.000000
# 6 0.000000 0.000000 0.000000 0.000000 0.000000 0.038037
#
#
# Mechanical properties :
#
#
# Convention : Reuss Voigt Hill
#
# Bulk Modulus (GPa) = 44.51484 45.31766 44.91625
# Shear Modulus (GPa) = 79.57569 21.43702 50.50636
#
# Velocity S-wave (km/s) = 6.17317 3.20406 4.91803
# Velocity P-wave (km/s) = 8.49285 5.94896 7.33207
#
# Compressibility (1/GPa) = 0.02246442
#
# Stress axis : x y z
#
# Youngs Moduli (GPa) = -41.66797 -41.66536 103.81997
#
# Poissons Ratio (x) = 1.29172 0.03045
# Poissons Ratio (y) = 1.29180 0.03041
# Poissons Ratio (z) = -0.01222 -0.01220
#
# Static dielectric constant tensor:
#      x y z
#    x 1.781370 0.000000 0.000000 
#    y 0.000000 1.781360 0.000000 
#    z 0.000000 0.000000 1.785090 
# 
# From -- ./inp_files/721.got.cif
#   From: 2010.05.17/outbox.cif.g08.bks.cpg/sg96_1_cif.got.tgz:721.got - 2010.06.03 19:52:08.
