data_PCOD9550220
_publ_section_title
;
Structure prediction by ZEFSAII (Michael W. Deem and Ramdas Pophale) SiO2 
 PCOD9550220
Probable space group: P 42 21 2
;
_chemical_formula_sum "Si O2"
_cell_formula_units_Z 26
_cell_length_a 8.970279
_cell_length_b 8.970279
_cell_length_c 13.743582
_cell_angle_alpha 90.000000
_cell_angle_beta 90.000000
_cell_angle_gamma 90.000000
_cell_volume 1105.889768
_symmetry_space_group_name_H-M "P 42 21 2"
_symmetry_group_IT_number 94
_symmetry_cell_setting 'tetragonal'
loop_
_space_group_symop_operation_xyz
x,y,z
1/2-y,1/2+x,1/2+z
-x,-y,z
1/2+y,1/2-x,1/2+z
1/2+x,1/2-y,1/2-z
1/2-x,1/2+y,1/2-z
y,x,-z
-y,-x,-z
loop_
_atom_site_type_symbol
_atom_site_label
_atom_site_fract_x
_atom_site_fract_y
_atom_site_fract_z
Si Si1 0.681168 0.318833 0.500000
Si Si2 0.647081 0.096988 0.676588
Si Si3 0.155504 0.172644 0.654281
Si Si4 0.500000 0.500000 0.000000
Si Si5 0.660849 0.660849 0.500000
O O1 0.693535 0.198213 0.584985
O O2 0.690369 0.491703 0.532035
O O3 0.613243 0.208885 0.764885
O O4 0.500000 0.000000 0.656744
O O5 0.781097 0.981208 0.698280
O O6 0.290617 0.239103 0.590603
O O7 0.027483 0.135640 0.575223
#
# Coordination Sequence:
#
# PCOD9550220 Si02
#       5
#     4   8   8   2   4
#     4  11  23  46  77 111 154 206 262 326 386 466
#     4  12  26  46  76 113 152 205 263 320 391 470
#     4  11  25  47  71 113 150 208 256 323 390 464
#     4  10  26  46  74 104 160 196 250 318 386 448
#     4  10  22  46  72 106 154 204 260 322 388 458
#
# _framework density 23.510482
#
# number of rings (size 3 to 8) (size 9 to 14) (size 15 to 20)
#    0.000    0.923    3.077    2.769    4.308    2.462 
#   11.077    0.000    0.000    0.000    0.000    0.000 
#    0.000    0.000    0.000    0.000    0.000    0.000 
#
# Total GULP energy -145390.537205 kJ/mol
# GULP energy per Si atom -5591.943739 kJ/mol
# Density = 2.345697 g / cm^3
# Si number density = 23.510482 Si / 1000 Ang^3
#
#
#
# Elastic Constant Matrix: (Units=GPa)
#
#
# Indices 1 2 3 4 5 6 
#
# 1 123.7745 74.6053 69.2468 0.0000 0.0000 0.0000
# 2 74.6053 123.7763 69.2461 0.0000 0.0000 0.0000
# 3 69.2468 69.2461 148.8191 0.0000 0.0000 0.0000
# 4 0.0000 0.0000 0.0000 28.8692 0.0000 0.0000
# 5 0.0000 0.0000 0.0000 0.0000 28.8693 0.0000
# 6 0.0000 0.0000 0.0000 0.0000 0.0000 42.4071
#
#
#
# Elastic Compliance Matrix: (Units=1/GPa)
#
#
# Indices 1 2 3 4 5 6 
#
# 1 0.013902 -0.006436 -0.003474 0.000000 0.000000 0.000000
# 2 -0.006436 0.013902 -0.003474 0.000000 0.000000 0.000000
# 3 -0.003474 -0.003474 0.009953 0.000000 0.000000 0.000000
# 4 0.000000 0.000000 0.000000 0.034639 0.000000 0.000000
# 5 0.000000 0.000000 0.000000 0.000000 0.034639 0.000000
# 6 0.000000 0.000000 0.000000 0.000000 0.000000 0.023581
#
#
# Mechanical properties :
#
#
# Convention : Reuss Voigt Hill
#
# Bulk Modulus (GPa) = 91.00312 91.39625 91.19968
# Shear Modulus (GPa) = 31.04714 32.24723 31.64718
#
# Velocity S-wave (km/s) = 3.63790 3.70754 3.67289
# Velocity P-wave (km/s) = 7.51247 7.56881 7.54070
#
# Compressibility (1/GPa) = 0.01098863
#
# Stress axis : x y z
#
# Youngs Moduli (GPa) = 71.93196 71.93392 100.47701
#
# Poissons Ratio (x) = 0.46295 0.34907
# Poissons Ratio (y) = 0.46294 0.34904
# Poissons Ratio (z) = 0.24990 0.24989
#
# Static dielectric constant tensor:
#      x y z
#    x 1.927230 0.000000 0.000000 
#    y 0.000000 1.927230 0.000000 
#    z 0.000000 0.000000 1.847060 
# 
# From -- ./inp_files/3122.got.cif
#   From: 2010.05.17/outbox.cif.g08.bks.cpg/sg94_2_cif.got.tgz:3122.got - 2010.06.03 19:43:16.
