data_PCOD9550799
_publ_section_title
;
Structure prediction by ZEFSAII (Michael W. Deem and Ramdas Pophale) SiO2 
 PCOD9550799
Probable space group: P 43 21 2
;
_chemical_formula_sum "Si O2"
_cell_formula_units_Z 40
_cell_length_a 20.179537
_cell_length_b 20.179537
_cell_length_c 5.088361
_cell_angle_alpha 90.000000
_cell_angle_beta 90.000000
_cell_angle_gamma 90.000000
_cell_volume 2072.050379
_symmetry_space_group_name_H-M "P 43 21 2"
_symmetry_group_IT_number 96
_symmetry_cell_setting 'tetragonal'
loop_
_space_group_symop_operation_xyz
x,y,z
1/2-y,1/2+x,3/4+z
-x,-y,1/2+z
1/2+y,1/2-x,1/4+z
1/2+x,1/2-y,1/4-z
1/2-x,1/2+y,3/4-z
y,x,-z
-y,-x,1/2-z
loop_
_atom_site_type_symbol
_atom_site_label
_atom_site_fract_x
_atom_site_fract_y
_atom_site_fract_z
Si Si1 0.755128 0.860090 0.460207
Si Si2 0.586761 0.526355 0.748854
Si Si3 0.601750 0.886333 0.577582
Si Si4 0.478027 0.146425 0.562657
Si Si5 0.053559 0.220034 0.550441
O O1 0.788849 0.788849 0.500000
O O2 0.676666 0.863181 0.516769
O O3 0.768948 0.892174 0.176899
O O4 0.789182 0.907843 0.675948
O O5 0.571060 0.571060 0.500000
O O6 0.534139 0.465861 0.750000
O O7 0.658233 0.493212 0.744012
O O8 0.570860 0.570860 0.000000
O O9 0.561067 0.885293 0.306481
O O10 0.605018 0.959836 0.701653
O O11 0.568602 0.843143 0.808800
O O12 0.509485 0.214283 0.669340
#
# Coordination Sequence:
#
# PCOD9550799 Si02
#       5
#     8   8   8   8   8
#     4  11  22  39  64  89 115 152 200 244 286 342
#     4  10  20  34  55  85 118 151 192 236 282 346
#     4  11  23  41  62  89 118 153 192 241 295 346
#     4  11  23  41  62  85 119 152 194 244 293 351
#     4  11  22  39  61  86 119 156 194 243 296 343
#
# _framework density 19.304551
#
# number of rings (size 3 to 8) (size 9 to 14) (size 15 to 20)
#    0.000    1.200    0.000    9.000    0.000    3.200 
#    0.000    5.000    0.000    0.000    0.000    0.000 
#    0.000    0.000    0.000    0.000    0.000    0.000 
#
# Total GULP energy -223607.349945 kJ/mol
# GULP energy per Si atom -5590.183749 kJ/mol
# Density = 1.926061 g / cm^3
# Si number density = 19.304551 Si / 1000 Ang^3
#
#
#
# Elastic Constant Matrix: (Units=GPa)
#
#
# Indices 1 2 3 4 5 6 
#
# 1 59.3057 49.3674 23.8763 0.0000 0.0000 0.0000
# 2 49.3674 59.3013 23.8773 0.0000 0.0000 0.0000
# 3 23.8763 23.8773 114.8592 0.0000 0.0000 0.0000
# 4 0.0000 0.0000 0.0000 38.8973 0.0000 0.0000
# 5 0.0000 0.0000 0.0000 0.0000 38.8890 0.0000
# 6 0.0000 0.0000 0.0000 0.0000 0.0000 25.4837
#
#
#
# Elastic Compliance Matrix: (Units=1/GPa)
#
#
# Indices 1 2 3 4 5 6 
#
# 1 0.055383 -0.045258 -0.002104 0.000000 0.000000 0.000000
# 2 -0.045258 0.055388 -0.002106 0.000000 0.000000 0.000000
# 3 -0.002104 -0.002106 0.009582 0.000000 0.000000 0.000000
# 4 0.000000 0.000000 0.000000 0.025709 0.000000 0.000000
# 5 0.000000 0.000000 0.000000 0.000000 0.025714 0.000000
# 6 0.000000 0.000000 0.000000 0.000000 0.000000 0.039241
#
#
# Mechanical properties :
#
#
# Convention : Reuss Voigt Hill
#
# Bulk Modulus (GPa) = 46.69610 47.52313 47.10962
# Shear Modulus (GPa) = 15.76836 29.74369 22.75602
#
# Velocity S-wave (km/s) = 2.86111 3.92951 3.43708
# Velocity P-wave (km/s) = 5.92927 6.72749 6.34095
#
# Compressibility (1/GPa) = 0.02141506
#
# Stress axis : x y z
#
# Youngs Moduli (GPa) = 18.05618 18.05459 104.36692
#
# Poissons Ratio (x) = 0.81711 0.21962
# Poissons Ratio (y) = 0.81719 0.21982
# Poissons Ratio (z) = 0.03800 0.03803
#
# Static dielectric constant tensor:
#      x y z
#    x 1.663800 0.000000 0.000000 
#    y 0.000000 1.663800 0.000000 
#    z 0.000000 0.000000 1.666630 
# 
# From -- ./inp_files/533.got.cif
#   From: 2010.05.17/outbox.cif.g08.bks.cpg/sg96_1_cif.got.tgz:533.got - 2010.06.03 19:52:08.
