data_PCOD9550989
_publ_section_title
;
Structure prediction by ZEFSAII (Michael W. Deem and Ramdas Pophale) SiO2 
 PCOD9550989
Probable space group: P 43 21 2
;
_chemical_formula_sum "Si O2"
_cell_formula_units_Z 56
_cell_length_a 15.061730
_cell_length_b 15.061730
_cell_length_c 10.963783
_cell_angle_alpha 90.000000
_cell_angle_beta 90.000000
_cell_angle_gamma 90.000000
_cell_volume 2487.196783
_symmetry_space_group_name_H-M "P 43 21 2"
_symmetry_group_IT_number 96
_symmetry_cell_setting 'tetragonal'
loop_
_space_group_symop_operation_xyz
x,y,z
1/2-y,1/2+x,3/4+z
-x,-y,1/2+z
1/2+y,1/2-x,1/4+z
1/2+x,1/2-y,1/4-z
1/2-x,1/2+y,3/4-z
y,x,-z
-y,-x,1/2-z
loop_
_atom_site_type_symbol
_atom_site_label
_atom_site_fract_x
_atom_site_fract_y
_atom_site_fract_z
Si Si1 0.446684 0.745675 0.660634
Si Si2 0.245872 0.224357 0.745679
Si Si3 0.343598 0.506033 0.417388
Si Si4 0.296467 0.069523 0.173713
Si Si5 0.029545 0.970456 0.750000
Si Si6 0.625288 0.620803 0.292318
Si Si7 0.821999 0.821999 0.000000
Si Si8 0.944403 0.503769 0.403052
O O1 0.365189 0.726227 0.570666
O O2 0.410125 0.747887 0.797217
O O3 0.536564 0.688054 0.675720
O O4 0.476915 0.843827 0.622774
O O5 0.161377 0.290643 0.753086
O O6 0.325560 0.284238 0.799465
O O7 0.250969 0.193776 0.605254
O O8 0.256559 0.496158 0.499644
O O9 0.422889 0.538278 0.506528
O O10 0.376837 0.422229 0.339353
O O11 0.321760 0.583381 0.319568
O O12 0.394162 0.042949 0.136170
O O13 0.098656 0.949058 0.642591
O O14 0.004327 0.457194 0.298765
#
# Coordination Sequence:
#
# PCOD9550989 Si02
#       8
#     8   8   8   8   4   8   4   8
#     4  11  24  43  67 100 140 182 239 303 350 433
#     4  11  25  43  69 101 138 193 238 294 361 428
#     4  11  23  44  68 105 142 186 228 304 378 429
#     4  10  22  44  68  93 137 179 234 294 355 430
#     4  12  24  39  70 103 148 172 232 296 370 440
#     4  12  25  42  69 107 138 192 242 289 367 458
#     4  10  22  47  60  95 148 178 230 296 350 420
#     4  10  23  46  69  98 136 184 240 297 359 427
#
# _framework density 22.515305999999999
#
# number of rings (size 3 to 8) (size 9 to 14) (size 15 to 20)
#    0.000    1.143    2.857    3.000    2.000    4.000 
#    7.714    0.000    0.000    0.000    0.000    0.000 
#    0.000    0.000    0.000    0.000    0.000    0.000 
#
# Total GULP energy -312127.565476 kJ/mol
# GULP energy per Si atom -5573.706526 kJ/mol
# Density = 2.246406 g / cm^3
# Si number density = 22.515306 Si / 1000 Ang^3
#
#
#
# Elastic Constant Matrix: (Units=GPa)
#
#
# Indices 1 2 3 4 5 6 
#
# 1 59.7118 25.2775 2.7304 0.0000 0.0000 0.0000
# 2 25.2775 59.7120 2.7304 0.0000 0.0000 0.0000
# 3 2.7304 2.7304 36.5950 0.0000 0.0000 0.0000
# 4 0.0000 0.0000 0.0000 33.2423 0.0000 0.0000
# 5 0.0000 0.0000 0.0000 0.0000 33.2421 0.0000
# 6 0.0000 0.0000 0.0000 0.0000 0.0000 20.8214
#
#
#
# Elastic Compliance Matrix: (Units=1/GPa)
#
#
# Indices 1 2 3 4 5 6 
#
# 1 0.020432 -0.008609 -0.000882 0.000000 0.000000 0.000000
# 2 -0.008609 0.020432 -0.000882 0.000000 0.000000 0.000000
# 3 -0.000882 -0.000882 0.027458 0.000000 0.000000 0.000000
# 4 0.000000 0.000000 0.000000 0.030082 0.000000 0.000000
# 5 0.000000 0.000000 0.000000 0.000000 0.030082 0.000000
# 6 0.000000 0.000000 0.000000 0.000000 0.000000 0.048027
#
#
# Mechanical properties :
#
#
# Convention : Reuss Voigt Hill
#
# Bulk Modulus (GPa) = 21.01946 24.16617 22.59281
# Shear Modulus (GPa) = 23.46118 25.81319 24.63719
#
# Velocity S-wave (km/s) = 3.23152 3.38963 3.31152
# Velocity P-wave (km/s) = 4.82489 5.10647 4.96767
#
# Compressibility (1/GPa) = 0.04757496
#
# Stress axis : x y z
#
# Youngs Moduli (GPa) = 48.94325 48.94337 36.41961
#
# Poissons Ratio (x) = 0.42135 0.03213
# Poissons Ratio (y) = 0.42135 0.03213
# Poissons Ratio (z) = 0.04317 0.04317
#
# Static dielectric constant tensor:
#      x y z
#    x 1.870330 0.000000 0.000000 
#    y 0.000000 1.870330 0.000000 
#    z 0.000000 0.000000 2.130420 
# 
# From -- ./inp_files/2331.got.cif
#   From: 2010.05.17/outbox.cif.g08.bks.cpg/sg96_2_cif.got.tgz:2331.got - 2010.06.03 19:52:08.
