data_PCOD9550186
_publ_section_title
;
Structure prediction by ZEFSAII (Michael W. Deem and Ramdas Pophale) SiO2 
 PCOD9550186
Probable space group: P 42 21 2
;
_chemical_formula_sum "Si O2"
_cell_formula_units_Z 32
_cell_length_a 12.770353
_cell_length_b 12.770353
_cell_length_c 7.622495
_cell_angle_alpha 90.000000
_cell_angle_beta 90.000000
_cell_angle_gamma 90.000000
_cell_volume 1243.091087
_symmetry_space_group_name_H-M "P 42 21 2"
_symmetry_group_IT_number 94
_symmetry_cell_setting 'tetragonal'
loop_
_space_group_symop_operation_xyz
x,y,z
1/2-y,1/2+x,1/2+z
-x,-y,z
1/2+y,1/2-x,1/2+z
1/2+x,1/2-y,1/2-z
1/2-x,1/2+y,1/2-z
y,x,-z
-y,-x,-z
loop_
_atom_site_type_symbol
_atom_site_label
_atom_site_fract_x
_atom_site_fract_y
_atom_site_fract_z
Si Si1 0.506627 0.876009 0.501826
Si Si2 0.866792 0.866792 0.500000
Si Si3 0.298177 0.386768 0.678836
Si Si4 0.500000 0.500000 0.217546
Si Si5 0.679501 0.829193 0.778083
O O1 0.571868 0.819028 0.345207
O O2 0.567983 0.848228 0.679409
O O3 0.395946 0.823312 0.455948
O O4 0.500000 0.000000 0.488892
O O5 0.768197 0.863860 0.632569
O O6 0.890147 0.970612 0.382149
O O7 0.328573 0.328573 0.500000
O O8 0.389862 0.472271 0.694396
O O9 0.305142 0.292423 0.811588
#
# Coordination Sequence:
#
# PCOD9550186 Si02
#       5
#     8   4   8   4   8
#     4  11  23  42  67  96 135 181 222 280 352 413
#     4  11  22  40  66  91 134 174 222 281 338 406
#     4  10  22  41  69  97 132 180 223 286 338 411
#     4  11  23  40  68  94 127 181 234 278 336 409
#     4  11  23  44  67  99 139 178 230 286 350 407
#
# _framework density 25.742280000000001
#
# number of rings (size 3 to 8) (size 9 to 14) (size 15 to 20)
#    0.000    1.250    6.250    1.125    3.500    0.000 
#    0.000    0.000    0.000    0.000    0.000    0.000 
#    0.000    0.000    0.000    0.000    0.000    0.000 
#
# Total GULP energy -178402.154404 kJ/mol
# GULP energy per Si atom -5575.067325 kJ/mol
# Density = 2.568369 g / cm^3
# Si number density = 25.742280 Si / 1000 Ang^3
#
#
#
# Elastic Constant Matrix: (Units=GPa)
#
#
# Indices 1 2 3 4 5 6 
#
# 1 114.8789 45.0788 17.8663 0.0000 0.0000 0.0000
# 2 45.0788 114.8789 17.8663 0.0000 0.0000 0.0000
# 3 17.8663 17.8663 75.0647 0.0000 0.0000 0.0000
# 4 0.0000 0.0000 0.0000 15.1101 0.0000 0.0000
# 5 0.0000 0.0000 0.0000 0.0000 15.1101 0.0000
# 6 0.0000 0.0000 0.0000 0.0000 0.0000 44.5930
#
#
#
# Elastic Compliance Matrix: (Units=1/GPa)
#
#
# Indices 1 2 3 4 5 6 
#
# 1 0.010465 -0.003862 -0.001572 0.000000 0.000000 0.000000
# 2 -0.003862 0.010465 -0.001572 0.000000 0.000000 0.000000
# 3 -0.001572 -0.001572 0.014070 0.000000 0.000000 0.000000
# 4 0.000000 0.000000 0.000000 0.066181 0.000000 0.000000
# 5 0.000000 0.000000 0.000000 0.000000 0.066181 0.000000
# 6 0.000000 0.000000 0.000000 0.000000 0.000000 0.022425
#
#
# Mechanical properties :
#
#
# Convention : Reuss Voigt Hill
#
# Bulk Modulus (GPa) = 47.64342 51.82724 49.73533
# Shear Modulus (GPa) = 23.71996 29.89669 26.80832
#
# Velocity S-wave (km/s) = 3.03882 3.41161 3.23059
# Velocity P-wave (km/s) = 5.55523 5.97458 5.76871
#
# Compressibility (1/GPa) = 0.02098926
#
# Stress axis : x y z
#
# Youngs Moduli (GPa) = 95.55968 95.55968 71.07357
#
# Poissons Ratio (x) = 0.36905 0.11169
# Poissons Ratio (y) = 0.36905 0.11169
# Poissons Ratio (z) = 0.15017 0.15017
#
# Static dielectric constant tensor:
#      x y z
#    x 2.074440 0.000000 0.000000 
#    y 0.000000 2.074440 0.000000 
#    z 0.000000 0.000000 2.177820 
# 
# From -- ./inp_files/2356.got.cif
#   From: 2010.05.17/outbox.cif.g08.bks.cpg/sg94_2_cif.got.tgz:2356.got - 2010.06.03 19:43:16.
