data_PCOD9550723
_publ_section_title
;
Structure prediction by ZEFSAII (Michael W. Deem and Ramdas Pophale) SiO2 
 PCOD9550723
Probable space group: P 43 21 2
;
_chemical_formula_sum "Si O2"
_cell_formula_units_Z 48
_cell_length_a 23.779624
_cell_length_b 23.779624
_cell_length_c 5.470732
_cell_angle_alpha 90.000000
_cell_angle_beta 90.000000
_cell_angle_gamma 90.000000
_cell_volume 3093.537656
_symmetry_space_group_name_H-M "P 43 21 2"
_symmetry_group_IT_number 96
_symmetry_cell_setting 'tetragonal'
loop_
_space_group_symop_operation_xyz
x,y,z
1/2-y,1/2+x,3/4+z
-x,-y,1/2+z
1/2+y,1/2-x,1/4+z
1/2+x,1/2-y,1/4-z
1/2-x,1/2+y,3/4-z
y,x,-z
-y,-x,1/2-z
loop_
_atom_site_type_symbol
_atom_site_label
_atom_site_fract_x
_atom_site_fract_y
_atom_site_fract_z
Si Si1 0.179083 0.728287 0.258269
Si Si2 0.942243 0.697345 0.420024
Si Si3 0.992555 0.378395 0.297403
Si Si4 0.087171 0.579835 0.418542
Si Si5 0.822394 0.729979 0.510116
Si Si6 0.056204 0.698209 0.177074
O O1 0.213307 0.786694 0.250000
O O2 0.195380 0.700498 0.521278
O O3 0.112141 0.733546 0.220511
O O4 0.200570 0.693232 0.019397
O O5 0.962337 0.655270 0.634232
O O6 0.998929 0.721892 0.297965
O O7 0.917386 0.652968 0.226955
O O8 0.889860 0.735317 0.494222
O O9 0.952078 0.420567 0.154416
O O10 0.956624 0.325795 0.407318
O O11 0.025818 0.414106 0.498324
O O12 0.068464 0.638231 0.303595
O O13 0.788511 0.788511 0.500000
#
# Coordination Sequence:
#
# PCOD9550723 Si02
#       6
#     8   8   8   8   8   8
#     4  10  20  34  54  76  98 127 165 209 251 299
#     4  10  20  32  51  66  94 127 162 200 252 292
#     4  10  20  30  50  62  84 126 158 214 236 294
#     4  10  18  32  48  58  86 118 168 198 250 284
#     4  10  20  34  54  76  98 127 165 209 251 299
#     4  10  20  32  51  66  94 127 162 200 252 292
#
# _framework density 15.516216999999999
#
# number of rings (size 3 to 8) (size 9 to 14) (size 15 to 20)
#    0.000    2.000    1.667    3.000    4.667    0.000 
#    0.000    0.000  132.000    0.000    0.000    0.000 
#    0.000    0.000    5.667    0.000    0.000    0.000 
#
# Total GULP energy -267281.705630 kJ/mol
# GULP energy per Si atom -5568.368867 kJ/mol
# Density = 1.548090 g / cm^3
# Si number density = 15.516217 Si / 1000 Ang^3
#
#
#
# Elastic Constant Matrix: (Units=GPa)
#
#
# Indices 1 2 3 4 5 6 
#
# 1 70.9374 37.3364 11.7372 0.0000 0.0000 0.0000
# 2 37.3364 70.9403 11.7368 0.0000 0.0000 0.0000
# 3 11.7372 11.7368 57.3633 0.0000 0.0000 0.0000
# 4 0.0000 0.0000 0.0000 13.1095 0.0000 0.0000
# 5 0.0000 0.0000 0.0000 0.0000 13.1095 0.0000
# 6 0.0000 0.0000 0.0000 0.0000 0.0000 29.9153
#
#
#
# Elastic Compliance Matrix: (Units=1/GPa)
#
#
# Indices 1 2 3 4 5 6 
#
# 1 0.019713 -0.010048 -0.001978 0.000000 0.000000 0.000000
# 2 -0.010048 0.019712 -0.001977 0.000000 0.000000 0.000000
# 3 -0.001978 -0.001977 0.018242 0.000000 0.000000 0.000000
# 4 0.000000 0.000000 0.000000 0.076281 0.000000 0.000000
# 5 0.000000 0.000000 0.000000 0.000000 0.076281 0.000000
# 6 0.000000 0.000000 0.000000 0.000000 0.000000 0.033428
#
#
# Mechanical properties :
#
#
# Convention : Reuss Voigt Hill
#
# Bulk Modulus (GPa) = 33.71416 35.65130 34.68273
# Shear Modulus (GPa) = 17.75901 20.45556 19.10729
#
# Velocity S-wave (km/s) = 3.38678 3.63483 3.51299
# Velocity P-wave (km/s) = 6.08845 6.37516 6.23345
#
# Compressibility (1/GPa) = 0.02966113
#
# Stress axis : x y z
#
# Youngs Moduli (GPa) = 50.72918 50.73140 54.81870
#
# Poissons Ratio (x) = 0.50973 0.10841
# Poissons Ratio (y) = 0.50971 0.10839
# Poissons Ratio (z) = 0.10032 0.10031
#
# Static dielectric constant tensor:
#      x y z
#    x 1.521970 0.000000 0.000000 
#    y 0.000000 1.521970 0.000000 
#    z 0.000000 0.000000 1.698980 
# 
# From -- ./inp_files/769.got.cif
#   From: 2010.05.17/outbox.cif.g08.bks.cpg/sg96_1_cif.got.tgz:769.got - 2010.06.03 19:52:08.
