data_PCOD9550144
_publ_section_title
;
Structure prediction by ZEFSAII (Michael W. Deem and Ramdas Pophale) SiO2 
 PCOD9550144
Probable space group: P 42 21 2
;
_chemical_formula_sum "Si O2"
_cell_formula_units_Z 32
_cell_length_a 12.368141
_cell_length_b 12.368141
_cell_length_c 9.538137
_cell_angle_alpha 90.000000
_cell_angle_beta 90.000000
_cell_angle_gamma 90.000000
_cell_volume 1459.057514
_symmetry_space_group_name_H-M "P 42 21 2"
_symmetry_group_IT_number 94
_symmetry_cell_setting 'tetragonal'
loop_
_space_group_symop_operation_xyz
x,y,z
1/2-y,1/2+x,1/2+z
-x,-y,z
1/2+y,1/2-x,1/2+z
1/2+x,1/2-y,1/2-z
1/2-x,1/2+y,1/2-z
y,x,-z
-y,-x,-z
loop_
_atom_site_type_symbol
_atom_site_label
_atom_site_fract_x
_atom_site_fract_y
_atom_site_fract_z
Si Si1 0.779643 0.349506 0.114599
Si Si2 0.606071 0.684815 0.220385
Si Si3 0.823054 0.887899 0.851833
Si Si4 0.411219 0.196530 0.923164
O O1 0.863202 0.253693 0.142724
O O2 0.716004 0.353488 0.260737
O O3 0.837118 0.463640 0.086148
O O4 0.693136 0.306865 0.000000
O O5 0.488613 0.643172 0.257420
O O6 0.699320 0.601046 0.179646
O O7 0.601405 0.760239 0.081777
O O8 0.692025 0.877320 0.881129
O O9 0.881573 0.881573 0.000000
#
# Coordination Sequence:
#
# PCOD9550144 Si02
#       4
#     8   8   8   8
#     4  11  22  40  67  95 122 169 219 257 317 393
#     4  10  22  42  65  92 130 170 207 263 324 379
#     4  11  22  42  65  95 133 162 215 273 314 379
#     4  10  21  43  65  90 132 170 205 264 328 379
#
# _framework density 21.931965000000002
#
# number of rings (size 3 to 8) (size 9 to 14) (size 15 to 20)
#    0.000    1.500    7.500    0.000    0.000    6.000 
#    0.000    3.750    0.000    0.000    0.000    0.000 
#    0.000    0.000    0.000    0.000    0.000    0.000 
#
# Total GULP energy -178426.618809 kJ/mol
# GULP energy per Si atom -5575.831838 kJ/mol
# Density = 2.188205 g / cm^3
# Si number density = 21.931965 Si / 1000 Ang^3
#
#
#
# Elastic Constant Matrix: (Units=GPa)
#
#
# Indices 1 2 3 4 5 6 
#
# 1 67.7188 -5.3624 7.3081 0.0000 0.0000 0.0000
# 2 -5.3624 67.7183 7.3077 0.0000 0.0000 0.0000
# 3 7.3081 7.3077 73.8979 0.0000 0.0000 0.0000
# 4 0.0000 0.0000 0.0000 25.7608 0.0000 0.0000
# 5 0.0000 0.0000 0.0000 0.0000 25.7610 0.0000
# 6 0.0000 0.0000 0.0000 0.0000 0.0000 6.0753
#
#
#
# Elastic Compliance Matrix: (Units=1/GPa)
#
#
# Indices 1 2 3 4 5 6 
#
# 1 0.015050 0.001367 -0.001624 0.000000 0.000000 0.000000
# 2 0.001367 0.015051 -0.001624 0.000000 0.000000 0.000000
# 3 -0.001624 -0.001624 0.013853 0.000000 0.000000 0.000000
# 4 0.000000 0.000000 0.000000 0.038819 0.000000 0.000000
# 5 0.000000 0.000000 0.000000 0.000000 0.038818 0.000000
# 6 0.000000 0.000000 0.000000 0.000000 0.000000 0.164600
#
#
# Mechanical properties :
#
#
# Convention : Reuss Voigt Hill
#
# Bulk Modulus (GPa) = 24.87935 25.31577 25.09756
# Shear Modulus (GPa) = 16.48265 24.85819 20.67042
#
# Velocity S-wave (km/s) = 2.74439 3.37029 3.07331
# Velocity P-wave (km/s) = 4.62717 5.16847 4.90529
#
# Compressibility (1/GPa) = 0.04019397
#
# Stress axis : x y z
#
# Youngs Moduli (GPa) = 66.44341 66.44296 72.18499
#
# Poissons Ratio (x) = -0.09083 0.11720
# Poissons Ratio (y) = -0.09083 0.11719
# Poissons Ratio (z) = 0.10788 0.10787
#
# Static dielectric constant tensor:
#      x y z
#    x 1.834100 0.000000 0.000000 
#    y 0.000000 1.834100 0.000000 
#    z 0.000000 0.000000 1.760170 
# 
# From -- ./inp_files/1212.got.cif
#   From: 2010.05.17/outbox.cif.g08.bks.cpg/sg94_1_cif.got.tgz:1212.got - 2010.06.03 19:43:16.
