data_PCOD9550118
_publ_section_title
;
Structure prediction by ZEFSAII (Michael W. Deem and Ramdas Pophale) SiO2 
 PCOD9550118
Probable space group: P 42 21 2
;
_chemical_formula_sum "Si O2"
_cell_formula_units_Z 40
_cell_length_a 10.446316
_cell_length_b 10.446316
_cell_length_c 14.202485
_cell_angle_alpha 90.000000
_cell_angle_beta 90.000000
_cell_angle_gamma 90.000000
_cell_volume 1549.853532
_symmetry_space_group_name_H-M "P 42 21 2"
_symmetry_group_IT_number 94
_symmetry_cell_setting 'tetragonal'
loop_
_space_group_symop_operation_xyz
x,y,z
1/2-y,1/2+x,1/2+z
-x,-y,z
1/2+y,1/2-x,1/2+z
1/2+x,1/2-y,1/2-z
1/2-x,1/2+y,1/2-z
y,x,-z
-y,-x,-z
loop_
_atom_site_type_symbol
_atom_site_label
_atom_site_fract_x
_atom_site_fract_y
_atom_site_fract_z
Si Si1 0.048216 0.179179 0.588028
Si Si2 0.392367 0.108738 0.691053
Si Si3 0.137611 0.041628 0.200980
Si Si4 0.424111 0.129962 0.479390
Si Si5 0.709298 0.844227 0.887588
O O1 0.091993 0.091993 0.500000
O O2 0.073792 0.115315 0.688541
O O3 0.138134 0.305391 0.589518
O O4 0.902487 0.241628 0.585101
O O5 0.432117 0.256490 0.704384
O O6 0.358139 0.109137 0.580632
O O7 0.320551 0.083486 0.788635
O O8 0.500000 0.000000 0.692800
O O9 0.208876 0.153406 0.142460
O O10 0.000000 0.000000 0.161532
O O11 0.540131 0.226467 0.462464
O O12 0.500000 0.000000 0.456698
#
# Coordination Sequence:
#
# PCOD9550118 Si02
#       5
#     8   8   8   8   8
#     4  10  21  40  65  95 129 177 240 296 356 430
#     4  10  21  40  65  91 124 177 234 279 343 426
#     4  11  25  41  61  97 139 178 223 289 367 438
#     4   9  19  37  63  92 122 169 228 283 344 419
#     4  10  21  40  63  92 135 176 223 291 355 425
#
# _framework density 25.808890999999999
#
# number of rings (size 3 to 8) (size 9 to 14) (size 15 to 20)
#    0.000    2.000    0.000    4.200    0.000    9.200 
#    0.000    9.000    0.000    0.000    0.000    0.000 
#    0.000    0.000    0.000    0.000    0.000    0.000 
#
# Total GULP energy -222856.604228 kJ/mol
# GULP energy per Si atom -5571.415106 kJ/mol
# Density = 2.575015 g / cm^3
# Si number density = 25.808891 Si / 1000 Ang^3
#
#
#
# Elastic Constant Matrix: (Units=GPa)
#
#
# Indices 1 2 3 4 5 6 
#
# 1 70.8576 33.4182 45.8698 0.0000 0.0000 0.0000
# 2 33.4182 70.8576 45.8698 0.0000 0.0000 0.0000
# 3 45.8698 45.8698 96.8341 0.0000 0.0000 0.0000
# 4 0.0000 0.0000 0.0000 8.6819 0.0000 0.0000
# 5 0.0000 0.0000 0.0000 0.0000 8.6819 0.0000
# 6 0.0000 0.0000 0.0000 0.0000 0.0000 25.7241
#
#
#
# Elastic Compliance Matrix: (Units=1/GPa)
#
#
# Indices 1 2 3 4 5 6 
#
# 1 0.021576 -0.005134 -0.007789 0.000000 0.000000 0.000000
# 2 -0.005134 0.021576 -0.007789 0.000000 0.000000 0.000000
# 3 -0.007789 -0.007789 0.017706 0.000000 0.000000 0.000000
# 4 0.000000 0.000000 0.000000 0.115183 0.000000 0.000000
# 5 0.000000 0.000000 0.000000 0.000000 0.115183 0.000000
# 6 0.000000 0.000000 0.000000 0.000000 0.000000 0.038874
#
#
# Mechanical properties :
#
#
# Convention : Reuss Voigt Hill
#
# Bulk Modulus (GPa) = 51.45142 54.31834 52.88488
# Shear Modulus (GPa) = 13.22760 16.17699 14.70229
#
# Velocity S-wave (km/s) = 2.26635 2.50631 2.38934
# Velocity P-wave (km/s) = 5.17950 5.42840 5.30541
#
# Compressibility (1/GPa) = 0.01943581
#
# Stress axis : x y z
#
# Youngs Moduli (GPa) = 46.34778 46.34778 56.47879
#
# Poissons Ratio (x) = 0.23794 0.43989
# Poissons Ratio (y) = 0.23794 0.43989
# Poissons Ratio (z) = 0.36098 0.36098
#
# Static dielectric constant tensor:
#      x y z
#    x 2.162030 0.000000 0.000000 
#    y 0.000000 2.162030 0.000000 
#    z 0.000000 0.000000 2.164320 
# 
# From -- ./inp_files/3400.got.cif
#   From: 2010.05.17/outbox.cif.g08.bks.cpg/sg94_2_cif.got.tgz:3400.got - 2010.06.03 19:43:16.
