data_PCOD9550295
_publ_section_title
;
Structure prediction by ZEFSAII (Michael W. Deem and Ramdas Pophale) SiO2 
 PCOD9550295
Probable space group: P 42 21 2
;
_chemical_formula_sum "Si O2"
_cell_formula_units_Z 40
_cell_length_a 19.507445
_cell_length_b 19.507445
_cell_length_c 4.842577
_cell_angle_alpha 90.000000
_cell_angle_beta 90.000000
_cell_angle_gamma 90.000000
_cell_volume 1842.796239
_symmetry_space_group_name_H-M "P 42 21 2"
_symmetry_group_IT_number 94
_symmetry_cell_setting 'tetragonal'
loop_
_space_group_symop_operation_xyz
x,y,z
1/2-y,1/2+x,1/2+z
-x,-y,z
1/2+y,1/2-x,1/2+z
1/2+x,1/2-y,1/2-z
1/2-x,1/2+y,1/2-z
y,x,-z
-y,-x,-z
loop_
_atom_site_type_symbol
_atom_site_label
_atom_site_fract_x
_atom_site_fract_y
_atom_site_fract_z
Si Si1 0.753039 0.413842 0.064488
Si Si2 0.325182 0.787638 0.432126
Si Si3 0.111351 0.049040 0.737157
Si Si4 0.182866 0.916136 0.873042
Si Si5 0.565741 0.772701 0.879647
O O1 0.778614 0.350905 0.879435
O O2 0.678389 0.429791 0.939994
O O3 0.757415 0.384847 0.372583
O O4 0.791684 0.487315 0.047024
O O5 0.256263 0.743738 0.500000
O O6 0.319459 0.869899 0.460208
O O7 0.054022 0.054022 0.500000
O O8 0.127199 0.976275 0.875323
O O9 0.096572 0.096572 0.000000
O O10 0.205398 0.915152 0.557433
O O11 0.152330 0.847670 0.000000
O O12 0.248480 0.934624 0.061733
#
# Coordination Sequence:
#
# PCOD9550295 Si02
#       5
#     8   8   8   8   8
#     4  11  23  39  60  86 121 156 191 251 318 363
#     4  12  23  38  66  95 118 154 211 259 295 368
#     4  11  21  36  56  81 117 159 202 246 297 361
#     4  11  22  38  57  81 119 163 202 245 300 363
#     4  11  24  41  61  88 124 159 195 255 324 369
#
# _framework density 21.706146
#
# number of rings (size 3 to 8) (size 9 to 14) (size 15 to 20)
#    0.000    0.800    0.000   11.400    0.000    0.400 
#    0.000    3.000    0.000    3.600    0.000    0.000 
#    0.000    0.000    0.000    0.000    0.000    0.000 
#
# Total GULP energy -223290.539335 kJ/mol
# GULP energy per Si atom -5582.263483 kJ/mol
# Density = 2.165674 g / cm^3
# Si number density = 21.706146 Si / 1000 Ang^3
#
#
#
# Elastic Constant Matrix: (Units=GPa)
#
#
# Indices 1 2 3 4 5 6 
#
# 1 41.4835 43.8514 2.4860 0.0000 0.0000 0.0000
# 2 43.8514 41.4845 2.4872 0.0000 0.0000 0.0000
# 3 2.4860 2.4872 82.2188 0.0000 0.0000 0.0000
# 4 0.0000 0.0000 0.0000 14.8513 0.0000 0.0000
# 5 0.0000 0.0000 0.0000 0.0000 14.8522 0.0000
# 6 0.0000 0.0000 0.0000 0.0000 0.0000 28.4476
#
#
#
# Elastic Compliance Matrix: (Units=1/GPa)
#
#
# Indices 1 2 3 4 5 6 
#
# 1 -0.205328 0.217065 -0.000358 0.000000 0.000000 0.000000
# 2 0.217065 -0.205324 -0.000352 0.000000 0.000000 0.000000
# 3 -0.000358 -0.000352 0.012184 0.000000 0.000000 0.000000
# 4 0.000000 0.000000 0.000000 0.067334 0.000000 0.000000
# 5 0.000000 0.000000 0.000000 0.000000 0.067330 0.000000
# 6 0.000000 0.000000 0.000000 0.000000 0.000000 0.035152
#
#
# Mechanical properties :
#
#
# Convention : Reuss Voigt Hill
#
# Bulk Modulus (GPa) = 29.20365 29.20402 29.20383
# Shear Modulus (GPa) = -7.69292 19.38769 5.84738
#
# Velocity S-wave (km/s) = -1.88463 2.99187 1.64309
# Velocity P-wave (km/s) = 2.95763 5.04168 4.13316
#
# Compressibility (1/GPa) = 0.03424229
#
# Stress axis : x y z
#
# Youngs Moduli (GPa) = -4.87024 -4.87035 82.07388
#
# Poissons Ratio (x) = 1.05718 0.02938
# Poissons Ratio (y) = 1.05716 0.02889
# Poissons Ratio (z) = -0.00174 -0.00171
#
# Static dielectric constant tensor:
#      x y z
#    x 1.855700 0.000000 0.000000 
#    y 0.000000 1.855700 0.000000 
#    z 0.000000 0.000000 1.768620 
# 
# From -- ./inp_files/352.got.cif
#   From: 2010.05.17/outbox.cif.g08.bks.cpg/sg94_1_cif.got.tgz:352.got - 2010.06.03 19:43:16.
