data_PCOD9550635
_publ_section_title
;
Structure prediction by ZEFSAII (Michael W. Deem and Ramdas Pophale) SiO2 
 PCOD9550635
Probable space group: P 43 2 2
;
_chemical_formula_sum "Si O2"
_cell_formula_units_Z 56
_cell_length_a 14.862689
_cell_length_b 14.862689
_cell_length_c 13.185338
_cell_angle_alpha 90.000000
_cell_angle_beta 90.000000
_cell_angle_gamma 90.000000
_cell_volume 2912.634892
_symmetry_space_group_name_H-M "P 43 2 2"
_symmetry_group_IT_number 95
_symmetry_cell_setting 'tetragonal'
loop_
_space_group_symop_operation_xyz
x,y,z
-y,x,3/4+z
-x,-y,1/2+z
y,-x,1/4+z
x,-y,1/2-z
-x,y,-z
y,x,1/4-z
-y,-x,3/4-z
loop_
_atom_site_type_symbol
_atom_site_label
_atom_site_fract_x
_atom_site_fract_y
_atom_site_fract_z
Si Si1 0.441513 0.851895 0.406656
Si Si2 0.513745 0.656661 0.677471
Si Si3 0.113804 0.000000 0.750000
Si Si4 0.039687 0.814962 0.782030
Si Si5 0.708307 0.154540 0.613354
Si Si6 0.571518 0.682201 0.908845
Si Si7 0.000000 0.382149 0.000000
Si Si8 0.761563 0.157276 0.974032
O O1 0.500000 0.886697 0.500000
O O2 0.478300 0.755376 0.371339
O O3 0.435516 0.928497 0.320193
O O4 0.341601 0.828904 0.445151
O O5 0.584219 0.584219 0.625000
O O6 0.533306 0.670779 0.795826
O O7 0.411479 0.624253 0.671090
O O8 0.170088 0.031077 0.652475
O O9 0.053403 0.087478 0.770624
O O10 0.119340 0.753358 0.739977
O O11 0.946016 0.773950 0.749344
O O12 0.631490 0.227602 0.592214
O O13 0.674489 0.066590 0.676150
O O14 0.781392 0.204105 0.684164
O O15 0.500000 0.687859 0.000000
O O16 0.818006 0.181995 0.875000
#
# Coordination Sequence:
#
# PCOD9550635 Si02
#       8
#     8   8   4   8   8   8   4   8
#     4  12  25  43  69 100 137 184 233 292 351 421
#     4  12  23  46  75 107 138 178 230 302 360 435
#     4  10  24  43  61  96 138 182 234 288 349 413
#     4  11  23  41  66  95 139 181 234 289 346 412
#     4  12  23  45  69  99 141 185 235 295 346 425
#     4  12  26  45  73 105 143 181 231 292 372 436
#     4  12  24  45  67  98 136 182 234 284 345 415
#     4  12  22  39  69 103 129 173 235 290 351 406
#
# _framework density 19.226578
#
# number of rings (size 3 to 8) (size 9 to 14) (size 15 to 20)
#    0.000    0.286    5.714    4.714    2.000    1.143 
#    5.143    0.714    0.000    0.000    0.000    0.000 
#    0.000    0.000    0.000    0.000    0.000    0.000 
#
# Total GULP energy -312830.303190 kJ/mol
# GULP energy per Si atom -5586.255414 kJ/mol
# Density = 1.918282 g / cm^3
# Si number density = 19.226578 Si / 1000 Ang^3
#
#
#
# Elastic Constant Matrix: (Units=GPa)
#
#
# Indices 1 2 3 4 5 6 
#
# 1 87.4537 64.8194 44.4084 0.0000 0.0000 0.0000
# 2 64.8194 87.4528 44.4068 0.0000 0.0000 0.0000
# 3 44.4084 44.4068 133.5751 0.0000 0.0000 0.0000
# 4 0.0000 0.0000 0.0000 38.0644 0.0000 0.0000
# 5 0.0000 0.0000 0.0000 0.0000 38.0643 0.0000
# 6 0.0000 0.0000 0.0000 0.0000 0.0000 26.9739
#
#
#
# Elastic Compliance Matrix: (Units=1/GPa)
#
#
# Indices 1 2 3 4 5 6 
#
# 1 0.026164 -0.018017 -0.002709 0.000000 0.000000 0.000000
# 2 -0.018017 0.026164 -0.002708 0.000000 0.000000 0.000000
# 3 -0.002709 -0.002708 0.009287 0.000000 0.000000 0.000000
# 4 0.000000 0.000000 0.000000 0.026271 0.000000 0.000000
# 5 0.000000 0.000000 0.000000 0.000000 0.026271 0.000000
# 6 0.000000 0.000000 0.000000 0.000000 0.000000 0.037073
#
#
# Mechanical properties :
#
#
# Convention : Reuss Voigt Hill
#
# Bulk Modulus (GPa) = 67.80925 68.41676 68.11300
# Shear Modulus (GPa) = 24.62866 30.94366 27.78616
#
# Velocity S-wave (km/s) = 3.58295 4.01611 3.80570
# Velocity P-wave (km/s) = 7.24305 7.56090 7.40368
#
# Compressibility (1/GPa) = 0.01474725
#
# Stress axis : x y z
#
# Youngs Moduli (GPa) = 38.22007 38.22018 107.67374
#
# Poissons Ratio (x) = 0.68862 0.29166
# Poissons Ratio (y) = 0.68862 0.29160
# Poissons Ratio (z) = 0.10353 0.10351
#
# Static dielectric constant tensor:
#      x y z
#    x 1.686440 0.000000 0.000000 
#    y 0.000000 1.686430 0.000000 
#    z 0.000000 0.000000 1.694240 
# 
# From -- ./inp_files/4005.got.cif
#   From: 2010.05.17/outbox.cif.g08.bks.cpg/sg95_3_cif.got.tgz:4005.got - 2010.06.03 19:46:49.
