data_PCOD9550579
_publ_section_title
;
Structure prediction by ZEFSAII (Michael W. Deem and Ramdas Pophale) SiO2 
 PCOD9550579
Probable space group: P 43 2 2
;
_chemical_formula_sum "Si O2"
_cell_formula_units_Z 32
_cell_length_a 10.996035
_cell_length_b 10.996035
_cell_length_c 10.904226
_cell_angle_alpha 90.000000
_cell_angle_beta 90.000000
_cell_angle_gamma 90.000000
_cell_volume 1318.460342
_symmetry_space_group_name_H-M "P 43 2 2"
_symmetry_group_IT_number 95
_symmetry_cell_setting 'tetragonal'
loop_
_space_group_symop_operation_xyz
x,y,z
-y,x,3/4+z
-x,-y,1/2+z
y,-x,1/4+z
x,-y,1/2-z
-x,y,-z
y,x,1/4-z
-y,-x,3/4-z
loop_
_atom_site_type_symbol
_atom_site_label
_atom_site_fract_x
_atom_site_fract_y
_atom_site_fract_z
Si Si1 0.657200 0.000000 0.750000
Si Si2 0.389050 0.324975 0.916119
Si Si3 0.782678 0.782678 0.625000
Si Si4 0.080454 0.000000 0.750000
Si Si5 0.203103 0.522522 0.918061
Si Si6 0.793065 0.206936 0.375000
O O1 0.742049 0.083370 0.835175
O O2 0.565460 0.087584 0.675315
O O3 0.314651 0.441407 0.872090
O O4 0.438270 0.242414 0.806391
O O5 0.500000 0.367023 0.000000
O O6 0.300462 0.252704 0.008253
O O7 0.163348 0.879713 0.763669
O O8 0.004937 0.004937 0.625000
O O9 0.184238 0.651195 0.852633
#
# Coordination Sequence:
#
# PCOD9550579 Si02
#       6
#     4   8   4   4   8   4
#     4  10  21  44  72 113 152 209 271 342 430 512
#     4  11  20  41  68 115 162 204 261 343 438 530
#     4  10  22  43  78 111 152 212 272 339 425 512
#     4   8  19  44  80 107 164 225 297 376 426 518
#     4  11  24  39  74 113 161 209 268 347 432 519
#     4  10  22  41  70 121 162 228 292 353 443 516
#
# _framework density 24.270731000000001
#
# number of rings (size 3 to 8) (size 9 to 14) (size 15 to 20)
#    0.750    1.000    5.000    0.750    3.500    0.000 
#    0.000   15.000    2.750   10.500    0.000    1.750 
#    0.000    0.000    0.000    0.000    0.000    0.000 
#
# Total GULP energy -179119.058678 kJ/mol
# GULP energy per Si atom -5597.470584 kJ/mol
# Density = 2.421549 g / cm^3
# Si number density = 24.270731 Si / 1000 Ang^3
#
#
#
# Elastic Constant Matrix: (Units=GPa)
#
#
# Indices 1 2 3 4 5 6 
#
# 1 196.7727 95.5209 58.2394 0.0000 0.0000 0.0000
# 2 95.5209 196.7734 58.2393 0.0000 0.0000 0.0000
# 3 58.2394 58.2393 142.1090 0.0000 0.0000 0.0000
# 4 0.0000 0.0000 0.0000 39.1903 0.0000 0.0000
# 5 0.0000 0.0000 0.0000 0.0000 39.1903 0.0000
# 6 0.0000 0.0000 0.0000 0.0000 0.0000 44.6379
#
#
#
# Elastic Compliance Matrix: (Units=1/GPa)
#
#
# Indices 1 2 3 4 5 6 
#
# 1 0.006983 -0.002894 -0.001676 0.000000 0.000000 0.000000
# 2 -0.002894 0.006983 -0.001676 0.000000 0.000000 0.000000
# 3 -0.001676 -0.001676 0.008410 0.000000 0.000000 0.000000
# 4 0.000000 0.000000 0.000000 0.025517 0.000000 0.000000
# 5 0.000000 0.000000 0.000000 0.000000 0.025517 0.000000
# 6 0.000000 0.000000 0.000000 0.000000 0.000000 0.022402
#
#
# Mechanical properties :
#
#
# Convention : Reuss Voigt Hill
#
# Bulk Modulus (GPa) = 101.15994 106.62825 103.89409
# Shear Modulus (GPa) = 44.80418 46.18073 45.49246
#
# Velocity S-wave (km/s) = 4.30119 4.36677 4.33410
# Velocity P-wave (km/s) = 8.15091 8.33385 8.24289
#
# Compressibility (1/GPa) = 0.00988534
#
# Stress axis : x y z
#
# Youngs Moduli (GPa) = 143.21142 143.21214 118.90072
#
# Poissons Ratio (x) = 0.41441 0.19925
# Poissons Ratio (y) = 0.41441 0.19925
# Poissons Ratio (z) = 0.23999 0.23999
#
# Static dielectric constant tensor:
#      x y z
#    x 1.924740 0.000000 0.000000 
#    y 0.000000 1.924740 0.000000 
#    z 0.000000 0.000000 1.968580 
# 
# From -- ./inp_files/3509.got.cif
#   From: 2010.05.17/outbox.cif.g08.bks.cpg/sg95_2_cif.got.tgz:3509.got - 2010.06.03 19:46:49.
