data_PCOD9550318
_publ_section_title
;
Structure prediction by ZEFSAII (Michael W. Deem and Ramdas Pophale) SiO2 
 PCOD9550318
Probable space group: P 42 21 2
;
_chemical_formula_sum "Si O2"
_cell_formula_units_Z 42
_cell_length_a 8.831117
_cell_length_b 8.831117
_cell_length_c 25.411016
_cell_angle_alpha 90.000000
_cell_angle_beta 90.000000
_cell_angle_gamma 90.000000
_cell_volume 1981.770260
_symmetry_space_group_name_H-M "P 42 21 2"
_symmetry_group_IT_number 94
_symmetry_cell_setting 'tetragonal'
loop_
_space_group_symop_operation_xyz
x,y,z
1/2-y,1/2+x,1/2+z
-x,-y,z
1/2+y,1/2-x,1/2+z
1/2+x,1/2-y,1/2-z
1/2-x,1/2+y,1/2-z
y,x,-z
-y,-x,-z
loop_
_atom_site_type_symbol
_atom_site_label
_atom_site_fract_x
_atom_site_fract_y
_atom_site_fract_z
Si Si1 0.500000 0.000000 0.460473
Si Si2 0.245353 0.929844 0.233244
Si Si3 0.211719 0.062523 0.793087
Si Si4 0.293754 0.914737 0.554196
Si Si5 0.000000 0.000000 0.500000
Si Si6 0.068964 0.167774 0.082489
Si Si7 0.000000 0.500000 0.351932
O O1 0.365021 0.988097 0.502024
O O2 0.505156 0.833937 0.431968
O O3 0.354132 0.867490 0.278904
O O4 0.356748 0.963324 0.184437
O O5 0.113697 0.806535 0.221271
O O6 0.151364 0.083851 0.240525
O O7 0.171235 0.078895 0.854222
O O8 0.326644 0.736214 0.557670
O O9 0.361182 0.977527 0.608217
O O10 0.125343 0.958779 0.543678
O O11 0.000000 0.000000 0.068309
#
# Coordination Sequence:
#
# PCOD9550318 Si02
#       7
#     4   8   8   8   2   8   4
#     4  11  26  43  78 114 136 205 248 305 398 456
#     4  11  23  44  69 102 144 182 247 304 377 451
#     4  11  24  44  69 106 141 192 244 318 374 455
#     4  11  25  46  68 108 149 192 246 316 386 447
#     4  12  24  48  62  96 158 172 240 322 352 468
#     4  12  24  51  76 112 154 195 266 321 388 472
#     4  11  22  45  74  98 134 199 240 297 386 454
#
# _framework density 21.193173999999999
#
# number of rings (size 3 to 8) (size 9 to 14) (size 15 to 20)
#    0.000    0.762    5.714    1.143    0.000    8.381 
#    3.429    0.000    0.000    0.000    0.000    0.000 
#    0.000    0.000    0.000    0.000    0.000    0.000 
#
# Total GULP energy -233906.077886 kJ/mol
# GULP energy per Si atom -5569.192331 kJ/mol
# Density = 2.114494 g / cm^3
# Si number density = 21.193174 Si / 1000 Ang^3
#
#
#
# Elastic Constant Matrix: (Units=GPa)
#
#
# Indices 1 2 3 4 5 6 
#
# 1 56.0154 129.6732 29.3610 0.0000 0.0000 0.0000
# 2 129.6732 56.0154 29.3610 0.0000 0.0000 0.0000
# 3 29.3610 29.3610 57.5760 0.0000 0.0000 0.0000
# 4 0.0000 0.0000 0.0000 -115.2742 0.0000 0.0000
# 5 0.0000 0.0000 0.0000 0.0000 -115.2742 0.0000
# 6 0.0000 0.0000 0.0000 0.0000 0.0000 44.8257
#
#
#
# Elastic Compliance Matrix: (Units=1/GPa)
#
#
# Indices 1 2 3 4 5 6 
#
# 1 -0.003578 0.009999 -0.003274 0.000000 0.000000 0.000000
# 2 0.009999 -0.003578 -0.003274 0.000000 0.000000 0.000000
# 3 -0.003274 -0.003274 0.020708 0.000000 0.000000 0.000000
# 4 0.000000 0.000000 0.000000 -0.008675 0.000000 0.000000
# 5 0.000000 0.000000 0.000000 0.000000 -0.008675 0.000000
# 6 0.000000 0.000000 0.000000 0.000000 0.000000 0.022309
#
#
# Mechanical properties :
#
#
# Convention : Reuss Voigt Hill
#
# Bulk Modulus (GPa) = 48.89443 60.71079 54.80261
# Shear Modulus (GPa) = 271.31701 -38.39713 116.45994
#
# Velocity S-wave (km/s) = 11.32691 -4.26111 7.42098
# Velocity P-wave (km/s) = 13.93507 2.12114 9.96708
#
# Compressibility (1/GPa) = 0.02045223
#
# Stress axis : x y z
#
# Youngs Moduli (GPa) = -279.50661 -279.50661 48.29092
#
# Poissons Ratio (x) = 2.79466 0.15812
# Poissons Ratio (y) = 2.79466 0.15812
# Poissons Ratio (z) = -0.91519 -0.91519
#
# Static dielectric constant tensor:
#      x y z
#    x 7.079730 0.000000 0.000000 
#    y 0.000000 7.079730 0.000000 
#    z 0.000000 0.000000 1.763440 
# 
# From -- ./inp_files/5336.got.cif
#   From: 2010.05.17/outbox.cif.g08.bks.cpg/sg94_3_cif.got.tgz:5336.got - 2010.06.03 19:43:16.
