data_PCOD9550037
_publ_section_title
;
Structure prediction by ZEFSAII (Michael W. Deem and Ramdas Pophale) SiO2 
 PCOD9550037
Probable space group: P 42 21 2
;
_chemical_formula_sum "Si O2"
_cell_formula_units_Z 40
_cell_length_a 8.813337
_cell_length_b 8.813337
_cell_length_c 23.947468
_cell_angle_alpha 90.000000
_cell_angle_beta 90.000000
_cell_angle_gamma 90.000000
_cell_volume 1860.117399
_symmetry_space_group_name_H-M "P 42 21 2"
_symmetry_group_IT_number 94
_symmetry_cell_setting 'tetragonal'
loop_
_space_group_symop_operation_xyz
x,y,z
1/2-y,1/2+x,1/2+z
-x,-y,z
1/2+y,1/2-x,1/2+z
1/2+x,1/2-y,1/2-z
1/2-x,1/2+y,1/2-z
y,x,-z
-y,-x,-z
loop_
_atom_site_type_symbol
_atom_site_label
_atom_site_fract_x
_atom_site_fract_y
_atom_site_fract_z
Si Si1 0.605893 0.269386 0.587639
Si Si2 0.161908 0.080985 0.294976
Si Si3 0.219819 0.837629 0.875565
Si Si4 0.672429 0.009603 0.972827
Si Si5 0.160699 0.281916 0.184221
O O1 0.461386 0.330434 0.621879
O O2 0.530991 0.171950 0.538211
O O3 0.705694 0.392562 0.553707
O O4 0.722095 0.222470 0.636164
O O5 0.201071 0.201044 0.343386
O O6 0.167199 0.172028 0.237113
O O7 0.288456 0.948969 0.298283
O O8 0.000000 0.000000 0.300563
O O9 0.270274 0.840730 0.940766
O O10 0.270735 0.991940 0.842980
O O11 0.500000 0.000000 0.952839
#
# Coordination Sequence:
#
# PCOD9550037 Si02
#       5
#     8   8   8   8   8
#     4  10  21  38  64  93 123 166 222 269 317 392
#     4  12  25  40  63  96 132 168 215 276 336 394
#     4  11  22  41  66  91 125 173 221 263 320 397
#     4  10  20  37  63  93 123 163 213 268 323 382
#     4  11  22  41  63  89 126 171 217 265 327 401
#
# _framework density 21.504017999999999
#
# number of rings (size 3 to 8) (size 9 to 14) (size 15 to 20)
#    0.000    1.200    0.000    9.600    0.000    4.800 
#    0.000    4.000    0.000    1.200    0.000    0.000 
#    0.000    0.000    0.000    0.000    0.000    0.000 
#
# Total GULP energy -222833.012823 kJ/mol
# GULP energy per Si atom -5570.825321 kJ/mol
# Density = 2.145507 g / cm^3
# Si number density = 21.504018 Si / 1000 Ang^3
#
#
#
# Elastic Constant Matrix: (Units=GPa)
#
#
# Indices 1 2 3 4 5 6 
#
# 1 239.9356 -118.8954 31.9493 0.0000 0.0000 0.0000
# 2 -118.8954 239.9356 31.9493 0.0000 0.0000 0.0000
# 3 31.9493 31.9493 138.0615 0.0000 0.0000 0.0000
# 4 0.0000 0.0000 0.0000 24.5191 0.0000 0.0000
# 5 0.0000 0.0000 0.0000 0.0000 24.5191 0.0000
# 6 0.0000 0.0000 0.0000 0.0000 0.0000 23.1475
#
#
#
# Elastic Compliance Matrix: (Units=1/GPa)
#
#
# Indices 1 2 3 4 5 6 
#
# 1 0.006099 0.003312 -0.002178 0.000000 0.000000 0.000000
# 2 0.003312 0.006099 -0.002178 0.000000 0.000000 0.000000
# 3 -0.002178 -0.002178 0.008251 0.000000 0.000000 0.000000
# 4 0.000000 0.000000 0.000000 0.040785 0.000000 0.000000
# 5 0.000000 0.000000 0.000000 0.000000 0.040785 0.000000
# 6 0.000000 0.000000 0.000000 0.000000 0.000000 0.043201
#
#
# Mechanical properties :
#
#
# Convention : Reuss Voigt Hill
#
# Bulk Modulus (GPa) = 54.45927 56.43768 55.44847
# Shear Modulus (GPa) = 32.58864 59.29911 45.94388
#
# Velocity S-wave (km/s) = 3.89712 5.25697 4.62727
# Velocity P-wave (km/s) = 6.75502 7.94668 7.37496
#
# Compressibility (1/GPa) = 0.01836235
#
# Stress axis : x y z
#
# Youngs Moduli (GPa) = 163.95721 163.95721 121.19515
#
# Poissons Ratio (x) = -0.54308 0.26396
# Poissons Ratio (y) = -0.54308 0.26396
# Poissons Ratio (z) = 0.35709 0.35709
#
# Static dielectric constant tensor:
#      x y z
#    x 1.835370 0.000000 0.000000 
#    y 0.000000 1.835370 0.000000 
#    z 0.000000 0.000000 1.846960 
# 
# From -- ./inp_files/4945.got.cif
#   From: 2010.05.17/outbox.cif.g08.bks.cpg/sg94_3_cif.got.tgz:4945.got - 2010.06.03 19:43:16.
