data_PCOD9550382
_publ_section_title
;
Structure prediction by ZEFSAII (Michael W. Deem and Ramdas Pophale) SiO2 
 PCOD9550382
Probable space group: P 42 21 2
;
_chemical_formula_sum "Si O2"
_cell_formula_units_Z 32
_cell_length_a 8.844100
_cell_length_b 8.844100
_cell_length_c 18.926177
_cell_angle_alpha 90.000000
_cell_angle_beta 90.000000
_cell_angle_gamma 90.000000
_cell_volume 1480.369696
_symmetry_space_group_name_H-M "P 42 21 2"
_symmetry_group_IT_number 94
_symmetry_cell_setting 'tetragonal'
loop_
_space_group_symop_operation_xyz
x,y,z
1/2-y,1/2+x,1/2+z
-x,-y,z
1/2+y,1/2-x,1/2+z
1/2+x,1/2-y,1/2-z
1/2-x,1/2+y,1/2-z
y,x,-z
-y,-x,-z
loop_
_atom_site_type_symbol
_atom_site_label
_atom_site_fract_x
_atom_site_fract_y
_atom_site_fract_z
Si Si1 0.000000 0.000000 0.607251
Si Si2 0.500000 0.000000 0.091840
Si Si3 0.116432 0.308614 0.534231
Si Si4 0.729038 0.171851 0.684945
Si Si5 0.015141 0.668209 0.177031
O O1 0.139802 0.935591 0.652535
O O2 0.950296 0.848771 0.564603
O O3 0.375713 0.074582 0.144021
O O4 0.526731 0.131530 0.033472
O O5 0.278204 0.278204 0.500000
O O6 0.143327 0.418922 0.599224
O O7 0.758809 0.349683 0.674741
O O8 0.738578 0.133599 0.768334
O O9 0.000000 0.500000 0.207149
#
# Coordination Sequence:
#
# PCOD9550382 Si02
#       5
#     4   4   8   8   8
#     4  12  23  46  80 106 143 206 250 314 381 474
#     4  12  26  44  72 112 146 196 246 326 372 462
#     4  12  25  45  74 108 147 189 252 305 387 452
#     4  12  27  45  78 105 153 196 260 310 387 456
#     4  12  26  49  72 112 152 199 249 319 382 464
#
# _framework density 21.616223999999999
#
# number of rings (size 3 to 8) (size 9 to 14) (size 15 to 20)
#    0.000    0.000    7.500    1.875    0.000    3.000 
#    0.000    1.250    0.000    0.000    0.000    0.000 
#    0.000    0.000    0.000    0.000    0.000    0.000 
#
# Total GULP energy -178340.403020 kJ/mol
# GULP energy per Si atom -5573.137594 kJ/mol
# Density = 2.156702 g / cm^3
# Si number density = 21.616224 Si / 1000 Ang^3
#
#
#
# Elastic Constant Matrix: (Units=GPa)
#
#
# Indices 1 2 3 4 5 6 
#
# 1 95.0082 38.5064 46.9105 0.0000 0.0000 0.0000
# 2 38.5064 95.0082 46.9105 0.0000 0.0000 0.0000
# 3 46.9105 46.9105 157.6124 0.0000 0.0000 0.0000
# 4 0.0000 0.0000 0.0000 82.6345 0.0000 0.0000
# 5 0.0000 0.0000 0.0000 0.0000 82.6345 0.0000
# 6 0.0000 0.0000 0.0000 0.0000 0.0000 37.6240
#
#
#
# Elastic Compliance Matrix: (Units=1/GPa)
#
#
# Indices 1 2 3 4 5 6 
#
# 1 0.013585 -0.004114 -0.002819 0.000000 0.000000 0.000000
# 2 -0.004114 0.013585 -0.002819 0.000000 0.000000 0.000000
# 3 -0.002819 -0.002819 0.008023 0.000000 0.000000 0.000000
# 4 0.000000 0.000000 0.000000 0.012101 0.000000 0.000000
# 5 0.000000 0.000000 0.000000 0.000000 0.012101 0.000000
# 6 0.000000 0.000000 0.000000 0.000000 0.000000 0.026579
#
#
# Mechanical properties :
#
#
# Convention : Reuss Voigt Hill
#
# Bulk Modulus (GPa) = 63.74009 68.03153 65.88581
# Shear Modulus (GPa) = 45.16469 54.93202 50.04835
#
# Velocity S-wave (km/s) = 4.57594 5.04654 4.81699
# Velocity P-wave (km/s) = 7.58091 8.09305 7.84116
#
# Compressibility (1/GPa) = 0.01568871
#
# Stress axis : x y z
#
# Youngs Moduli (GPa) = 73.61303 73.61303 124.64824
#
# Poissons Ratio (x) = 0.30284 0.35135
# Poissons Ratio (y) = 0.30284 0.35135
# Poissons Ratio (z) = 0.20750 0.20750
#
# Static dielectric constant tensor:
#      x y z
#    x 1.462190 0.000000 0.000000 
#    y 0.000000 1.462190 0.000000 
#    z 0.000000 0.000000 1.977950 
# 
# From -- ./inp_files/4438.got.cif
#   From: 2010.05.17/outbox.cif.g08.bks.cpg/sg94_3_cif.got.tgz:4438.got - 2010.06.03 19:43:16.
