data_PCOD9550482
_publ_section_title
;
Structure prediction by ZEFSAII (Michael W. Deem and Ramdas Pophale) SiO2 
 PCOD9550482
Probable space group: P 43 2 2
;
_chemical_formula_sum "Si O2"
_cell_formula_units_Z 60
_cell_length_a 11.417799
_cell_length_b 11.417799
_cell_length_c 19.891579
_cell_angle_alpha 90.000000
_cell_angle_beta 90.000000
_cell_angle_gamma 90.000000
_cell_volume 2593.188253
_symmetry_space_group_name_H-M "P 43 2 2"
_symmetry_group_IT_number 95
_symmetry_cell_setting 'tetragonal'
loop_
_space_group_symop_operation_xyz
x,y,z
-y,x,3/4+z
-x,-y,1/2+z
y,-x,1/4+z
x,-y,1/2-z
-x,y,-z
y,x,1/4-z
-y,-x,3/4-z
loop_
_atom_site_type_symbol
_atom_site_label
_atom_site_fract_x
_atom_site_fract_y
_atom_site_fract_z
Si Si1 0.317489 0.857521 0.338904
Si Si2 0.286971 0.500000 0.250000
Si Si3 0.105544 0.033134 0.326305
Si Si4 0.101320 0.426988 0.362483
Si Si5 0.397374 0.380366 0.554677
Si Si6 0.368612 0.121137 0.528504
Si Si7 0.222727 0.238648 0.848056
Si Si8 0.594121 0.269025 0.716020
O O1 0.259296 0.740705 0.375000
O O2 0.438383 0.915711 0.364768
O O3 0.348665 0.829131 0.262071
O O4 0.214861 0.950054 0.344071
O O5 0.200659 0.452946 0.306982
O O6 0.368938 0.612253 0.255544
O O7 0.155719 0.157607 0.347793
O O8 0.074935 0.000000 0.250000
O O9 0.999505 0.000496 0.375000
O O10 0.164148 0.340620 0.415653
O O11 0.990155 0.363844 0.327873
O O12 0.500000 0.383347 0.500000
O O13 0.437214 0.437214 0.625000
O O14 0.366270 0.245441 0.565613
O O15 0.284083 0.455575 0.534970
O O16 0.500000 0.108366 0.500000
O O17 0.278661 0.143364 0.465588
O O18 0.257001 0.354523 0.890909
#
# Coordination Sequence:
#
# PCOD9550482 Si02
#       8
#     8   4   8   8   8   8   8   8
#     4  11  22  38  66 106 142 174 231 303 369 434
#     4  10  20  34  58  98 136 184 228 282 368 430
#     4  11  25  44  71 103 141 191 246 314 376 433
#     4  11  23  40  69  99 140 192 238 299 366 439
#     4  11  24  41  65  99 140 192 237 288 365 456
#     4  11  23  43  68  96 142 195 241 291 371 467
#     4  11  25  42  68 104 136 185 249 299 372 453
#     4  11  20  38  62  98 146 173 232 296 367 436
#
# _framework density 23.137540999999999
#
# number of rings (size 3 to 8) (size 9 to 14) (size 15 to 20)
#    0.000    1.067    4.000    3.200    1.867    1.600 
#    0.000    0.667    0.000    0.000    0.000    0.000 
#    0.000    0.000    0.000    0.000    0.000    0.000 
#
# Total GULP energy -334491.767270 kJ/mol
# GULP energy per Si atom -5574.862788 kJ/mol
# Density = 2.308488 g / cm^3
# Si number density = 23.137541 Si / 1000 Ang^3
#
#
#
# Elastic Constant Matrix: (Units=GPa)
#
#
# Indices 1 2 3 4 5 6 
#
# 1 80.5160 30.9486 27.1192 0.0000 0.0000 0.0000
# 2 30.9486 80.5158 27.1188 0.0000 0.0000 0.0000
# 3 27.1192 27.1188 96.6140 0.0000 0.0000 0.0000
# 4 0.0000 0.0000 0.0000 31.5382 0.0000 0.0000
# 5 0.0000 0.0000 0.0000 0.0000 31.5381 0.0000
# 6 0.0000 0.0000 0.0000 0.0000 0.0000 32.7519
#
#
#
# Elastic Compliance Matrix: (Units=1/GPa)
#
#
# Indices 1 2 3 4 5 6 
#
# 1 0.015283 -0.004892 -0.002917 0.000000 0.000000 0.000000
# 2 -0.004892 0.015283 -0.002917 0.000000 0.000000 0.000000
# 3 -0.002917 -0.002917 0.011988 0.000000 0.000000 0.000000
# 4 0.000000 0.000000 0.000000 0.031708 0.000000 0.000000
# 5 0.000000 0.000000 0.000000 0.000000 0.031708 0.000000
# 6 0.000000 0.000000 0.000000 0.000000 0.000000 0.030533
#
#
# Mechanical properties :
#
#
# Convention : Reuss Voigt Hill
#
# Bulk Modulus (GPa) = 47.38721 47.55767 47.47244
# Shear Modulus (GPa) = 30.30570 30.66292 30.48431
#
# Velocity S-wave (km/s) = 3.62305 3.64434 3.63371
# Velocity P-wave (km/s) = 6.16661 6.18929 6.17796
#
# Compressibility (1/GPa) = 0.02110274
#
# Stress axis : x y z
#
# Youngs Moduli (GPa) = 65.43373 65.43380 83.41810
#
# Poissons Ratio (x) = 0.32010 0.24330
# Poissons Ratio (y) = 0.32010 0.24329
# Poissons Ratio (z) = 0.19085 0.19084
#
# Static dielectric constant tensor:
#      x y z
#    x 1.959200 0.000000 0.000000 
#    y 0.000000 1.959200 0.000000 
#    z 0.000000 0.000000 1.919360 
# 
# From -- ./inp_files/6524.got.cif
#   From: 2010.05.17/outbox.cif.g08.bks.cpg/sg95_4_cif.got.tgz:6524.got - 2010.06.03 19:46:49.
