data_PCOD9550126
_publ_section_title
;
Structure prediction by ZEFSAII (Michael W. Deem and Ramdas Pophale) SiO2 
 PCOD9550126
Probable space group: P 42 21 2
;
_chemical_formula_sum "Si O2"
_cell_formula_units_Z 48
_cell_length_a 8.598631
_cell_length_b 8.598631
_cell_length_c 27.704486
_cell_angle_alpha 90.000000
_cell_angle_beta 90.000000
_cell_angle_gamma 90.000000
_cell_volume 2048.371484
_symmetry_space_group_name_H-M "P 42 21 2"
_symmetry_group_IT_number 94
_symmetry_cell_setting 'tetragonal'
loop_
_space_group_symop_operation_xyz
x,y,z
1/2-y,1/2+x,1/2+z
-x,-y,z
1/2+y,1/2-x,1/2+z
1/2+x,1/2-y,1/2-z
1/2-x,1/2+y,1/2-z
y,x,-z
-y,-x,-z
loop_
_atom_site_type_symbol
_atom_site_label
_atom_site_fract_x
_atom_site_fract_y
_atom_site_fract_z
Si Si1 0.500000 0.500000 0.687897
Si Si2 0.710589 0.349567 0.950293
Si Si3 0.285412 0.626809 0.767268
Si Si4 0.192075 0.807926 0.500000
Si Si5 0.938311 0.322217 0.692002
Si Si6 0.659077 0.082676 0.142639
Si Si7 0.334230 0.917292 0.416185
O O1 0.357825 0.519032 0.725486
O O2 0.481180 0.332485 0.659604
O O3 0.711121 0.527642 0.970423
O O4 0.814209 0.308440 0.904611
O O5 0.541124 0.297943 0.931147
O O6 0.743176 0.256825 0.000000
O O7 0.185671 0.730736 0.730904
O O8 0.417511 0.711961 0.797614
O O9 0.166851 0.586615 0.809665
O O10 0.206744 0.679747 0.541643
O O11 0.000000 0.500000 0.698958
O O12 0.869822 0.307553 0.638633
O O13 0.500000 0.000000 0.125334
O O14 0.500000 0.000000 0.417696
#
# Coordination Sequence:
#
# PCOD9550126 Si02
#       7
#     4   8   8   4   8   8   8
#     4  12  30  46  75 116 167 208 276 332 402 492
#     4  10  22  46  74 103 148 191 256 328 384 479
#     4  12  25  46  71 108 153 204 258 319 391 481
#     4  10  23  46  72 106 141 190 261 314 378 474
#     4  11  24  43  69 103 144 197 249 308 384 462
#     4  12  28  50  79 115 161 213 269 340 416 493
#     4  10  21  40  72 103 141 189 246 311 380 456
#
# _framework density 23.433249
#
# number of rings (size 3 to 8) (size 9 to 14) (size 15 to 20)
#    0.000    1.000    3.333    3.750    4.667    5.333 
#    0.000    0.417    0.000    0.000    0.000    0.000 
#    0.000    0.000    0.000    0.000    0.000    0.000 
#
# Total GULP energy -267247.957793 kJ/mol
# GULP energy per Si atom -5567.665787 kJ/mol
# Density = 2.337991 g / cm^3
# Si number density = 23.433249 Si / 1000 Ang^3
#
#
#
# Elastic Constant Matrix: (Units=GPa)
#
#
# Indices 1 2 3 4 5 6 
#
# 1 57.4833 12.4259 28.4768 0.0000 0.0000 0.0000
# 2 12.4259 57.4837 28.4767 0.0000 0.0000 0.0000
# 3 28.4768 28.4767 203.7996 0.0000 0.0000 0.0000
# 4 0.0000 0.0000 0.0000 35.1039 0.0000 0.0000
# 5 0.0000 0.0000 0.0000 0.0000 35.1039 0.0000
# 6 0.0000 0.0000 0.0000 0.0000 0.0000 7.6739
#
#
#
# Elastic Compliance Matrix: (Units=1/GPa)
#
#
# Indices 1 2 3 4 5 6 
#
# 1 0.019168 -0.003026 -0.002255 0.000000 0.000000 0.000000
# 2 -0.003026 0.019168 -0.002255 0.000000 0.000000 0.000000
# 3 -0.002255 -0.002255 0.005537 0.000000 0.000000 0.000000
# 4 0.000000 0.000000 0.000000 0.028487 0.000000 0.000000
# 5 0.000000 0.000000 0.000000 0.000000 0.028487 0.000000
# 6 0.000000 0.000000 0.000000 0.000000 0.000000 0.130311
#
#
# Mechanical properties :
#
#
# Convention : Reuss Voigt Hill
#
# Bulk Modulus (GPa) = 34.72388 50.83617 42.78002
# Shear Modulus (GPa) = 19.54415 32.20216 25.87316
#
# Velocity S-wave (km/s) = 2.89110 3.71105 3.32644
# Velocity P-wave (km/s) = 5.09853 6.33275 5.74886
#
# Compressibility (1/GPa) = 0.02879862
#
# Stress axis : x y z
#
# Youngs Moduli (GPa) = 52.17078 52.17118 180.60033
#
# Poissons Ratio (x) = 0.15787 0.40734
# Poissons Ratio (y) = 0.15787 0.40734
# Poissons Ratio (z) = 0.11767 0.11767
#
# Static dielectric constant tensor:
#      x y z
#    x 2.179500 0.000000 0.000000 
#    y 0.000000 2.179500 0.000000 
#    z 0.000000 0.000000 1.860890 
# 
# From -- ./inp_files/5658.got.cif
#   From: 2010.05.17/outbox.cif.g08.bks.cpg/sg94_3_cif.got.tgz:5658.got - 2010.06.03 19:43:16.
