data_PCOD9550285
_publ_section_title
;
Structure prediction by ZEFSAII (Michael W. Deem and Ramdas Pophale) SiO2 
 PCOD9550285
Probable space group: P 42 21 2
;
_chemical_formula_sum "Si O2"
_cell_formula_units_Z 26
_cell_length_a 9.963517
_cell_length_b 9.963517
_cell_length_c 12.352072
_cell_angle_alpha 90.000000
_cell_angle_beta 90.000000
_cell_angle_gamma 90.000000
_cell_volume 1226.210828
_symmetry_space_group_name_H-M "P 42 21 2"
_symmetry_group_IT_number 94
_symmetry_cell_setting 'tetragonal'
loop_
_space_group_symop_operation_xyz
x,y,z
1/2-y,1/2+x,1/2+z
-x,-y,z
1/2+y,1/2-x,1/2+z
1/2+x,1/2-y,1/2-z
1/2-x,1/2+y,1/2-z
y,x,-z
-y,-x,-z
loop_
_atom_site_type_symbol
_atom_site_label
_atom_site_fract_x
_atom_site_fract_y
_atom_site_fract_z
Si Si1 0.717370 0.968250 0.621231
Si Si2 0.500000 0.500000 0.000000
Si Si3 0.524259 0.202531 0.570743
Si Si4 0.554149 0.348794 0.343374
O O1 0.863661 0.988012 0.569305
O O2 0.626681 0.833490 0.608031
O O3 0.748103 0.984978 0.748242
O O4 0.618941 0.072990 0.562583
O O5 0.282818 0.517627 0.541731
O O6 0.613982 0.288766 0.654423
O O7 0.500000 0.500000 0.332713
#
# Coordination Sequence:
#
# PCOD9550285 Si02
#       4
#     8   2   8   8
#     4  11  26  43  70 105 138 187 232 301 352 419
#     4  12  24  40  68 104 142 172 244 300 352 404
#     4  10  25  45  69  99 142 184 240 285 350 437
#     4  11  24  45  72  99 138 190 230 286 363 424
#
# _framework density 21.203531999999999
#
# number of rings (size 3 to 8) (size 9 to 14) (size 15 to 20)
#    0.000    1.231    1.538    3.692    8.615    7.385 
#    0.000    0.000    0.000    0.000    0.000    0.000 
#    0.000    0.000    0.000    0.000    0.000    0.000 
#
# Total GULP energy -144801.953003 kJ/mol
# GULP energy per Si atom -5569.305885 kJ/mol
# Density = 2.115527 g / cm^3
# Si number density = 21.203532 Si / 1000 Ang^3
#
#
#
# Elastic Constant Matrix: (Units=GPa)
#
#
# Indices 1 2 3 4 5 6 
#
# 1 105.8968 29.3632 40.3109 0.0000 0.0000 0.0000
# 2 29.3632 105.8968 40.3109 0.0000 0.0000 0.0000
# 3 40.3109 40.3109 104.4458 0.0000 0.0000 0.0000
# 4 0.0000 0.0000 0.0000 24.9959 0.0000 0.0000
# 5 0.0000 0.0000 0.0000 0.0000 24.9959 0.0000
# 6 0.0000 0.0000 0.0000 0.0000 0.0000 51.1222
#
#
#
# Elastic Compliance Matrix: (Units=1/GPa)
#
#
# Indices 1 2 3 4 5 6 
#
# 1 0.011334 -0.001732 -0.003706 0.000000 0.000000 0.000000
# 2 -0.001732 0.011334 -0.003706 0.000000 0.000000 0.000000
# 3 -0.003706 -0.003706 0.012435 0.000000 0.000000 0.000000
# 4 0.000000 0.000000 0.000000 0.040007 0.000000 0.000000
# 5 0.000000 0.000000 0.000000 0.000000 0.040007 0.000000
# 6 0.000000 0.000000 0.000000 0.000000 0.000000 0.019561
#
#
# Mechanical properties :
#
#
# Convention : Reuss Voigt Hill
#
# Bulk Modulus (GPa) = 59.46926 59.57883 59.52404
# Shear Modulus (GPa) = 31.53175 33.97309 32.75242
#
# Velocity S-wave (km/s) = 3.86048 4.00714 3.93449
# Velocity P-wave (km/s) = 6.92667 7.04053 6.98383
#
# Compressibility (1/GPa) = 0.01681541
#
# Stress axis : x y z
#
# Youngs Moduli (GPa) = 88.22913 88.22913 80.41842
#
# Poissons Ratio (x) = 0.15282 0.29803
# Poissons Ratio (y) = 0.15282 0.29803
# Poissons Ratio (z) = 0.32697 0.32697
#
# Static dielectric constant tensor:
#      x y z
#    x 2.345360 0.000000 0.000000 
#    y 0.000000 2.345360 0.000000 
#    z 0.000000 0.000000 1.754240 
# 
# From -- ./inp_files/3866.got.cif
#   From: 2010.05.17/outbox.cif.g08.bks.cpg/sg94_2_cif.got.tgz:3866.got - 2010.06.03 19:43:16.
