data_PCOD9550472
_publ_section_title
;
Structure prediction by ZEFSAII (Michael W. Deem and Ramdas Pophale) SiO2 
 PCOD9550472
Probable space group: P 43 2 2
;
_chemical_formula_sum "Si O2"
_cell_formula_units_Z 36
_cell_length_a 7.839418
_cell_length_b 7.839418
_cell_length_c 24.956055
_cell_angle_alpha 90.000000
_cell_angle_beta 90.000000
_cell_angle_gamma 90.000000
_cell_volume 1533.711160
_symmetry_space_group_name_H-M "P 43 2 2"
_symmetry_group_IT_number 95
_symmetry_cell_setting 'tetragonal'
loop_
_space_group_symop_operation_xyz
x,y,z
-y,x,3/4+z
-x,-y,1/2+z
y,-x,1/4+z
x,-y,1/2-z
-x,y,-z
y,x,1/4-z
-y,-x,3/4-z
loop_
_atom_site_type_symbol
_atom_site_label
_atom_site_fract_x
_atom_site_fract_y
_atom_site_fract_z
Si Si1 0.362659 0.004169 0.851852
Si Si2 0.665339 0.768248 0.047976
Si Si3 0.154504 0.062798 0.455857
Si Si4 0.676974 0.845054 0.707364
Si Si5 0.474106 0.500000 0.250000
O O1 0.530425 0.106060 0.835105
O O2 0.193060 0.116198 0.842236
O O3 0.324668 0.845045 0.812226
O O4 0.369426 0.914867 0.909159
O O5 0.539797 0.607796 0.047660
O O6 0.692017 0.859053 0.990789
O O7 0.174303 0.869973 0.437491
O O8 0.000000 0.059675 0.500000
O O9 0.629629 0.667798 0.736113
O O10 0.673556 0.000000 0.750000
#
# Coordination Sequence:
#
# PCOD9550472 Si02
#       5
#     8   8   8   8   4
#     4  10  19  43  66  93 132 178 224 275 337 414
#     4  10  21  39  69  96 132 183 226 272 350 410
#     4   9  19  39  68  93 126 178 218 278 337 391
#     4  11  21  41  66  94 133 174 217 284 337 402
#     4  12  22  40  68  98 138 182 218 286 354 390
#
# _framework density 23.472479
#
# number of rings (size 3 to 8) (size 9 to 14) (size 15 to 20)
#    0.000    1.778    4.444    0.667    0.000    0.889 
#   16.000    0.000    0.000   18.667    0.000    0.000 
#    0.000    0.000    0.000    0.000    0.000    0.000 
#
# Total GULP energy -201245.529683 kJ/mol
# GULP energy per Si atom -5590.153602 kJ/mol
# Density = 2.341905 g / cm^3
# Si number density = 23.472479 Si / 1000 Ang^3
#
#
#
# Elastic Constant Matrix: (Units=GPa)
#
#
# Indices 1 2 3 4 5 6 
#
# 1 132.1692 32.2472 29.5116 0.0000 0.0000 0.0000
# 2 32.2472 132.1692 29.5116 0.0000 0.0000 0.0000
# 3 29.5116 29.5116 59.5163 0.0000 0.0000 0.0000
# 4 0.0000 0.0000 0.0000 17.3214 0.0000 0.0000
# 5 0.0000 0.0000 0.0000 0.0000 17.3214 0.0000
# 6 0.0000 0.0000 0.0000 0.0000 0.0000 9.6880
#
#
#
# Elastic Compliance Matrix: (Units=1/GPa)
#
#
# Indices 1 2 3 4 5 6 
#
# 1 0.008704 -0.001304 -0.003669 0.000000 0.000000 0.000000
# 2 -0.001304 0.008704 -0.003669 0.000000 0.000000 0.000000
# 3 -0.003669 -0.003669 0.020441 0.000000 0.000000 0.000000
# 4 0.000000 0.000000 0.000000 0.057732 0.000000 0.000000
# 5 0.000000 0.000000 0.000000 0.000000 0.057732 0.000000
# 6 0.000000 0.000000 0.000000 0.000000 0.000000 0.103220
#
#
# Mechanical properties :
#
#
# Convention : Reuss Voigt Hill
#
# Bulk Modulus (GPa) = 48.63037 56.26617 52.44827
# Shear Modulus (GPa) = 17.81445 24.37178 21.09311
#
# Velocity S-wave (km/s) = 2.75789 3.22578 3.00097
# Velocity P-wave (km/s) = 5.55917 6.15609 5.86522
#
# Compressibility (1/GPa) = 0.02056328
#
# Stress axis : x y z
#
# Youngs Moduli (GPa) = 114.89611 114.89611 48.92207
#
# Poissons Ratio (x) = 0.14986 0.17949
# Poissons Ratio (y) = 0.14986 0.17949
# Poissons Ratio (z) = 0.42155 0.42155
#
# Static dielectric constant tensor:
#      x y z
#    x 1.912310 0.000000 0.000000 
#    y 0.000000 1.912310 0.000000 
#    z 0.000000 0.000000 1.898430 
# 
# From -- ./inp_files/7286.got.cif
#   From: 2010.05.17/outbox.cif.g08.bks.cpg/sg95_4_cif.got.tgz:7286.got - 2010.06.03 19:46:49.
