data_PCOD9550476
_publ_section_title
;
Structure prediction by ZEFSAII (Michael W. Deem and Ramdas Pophale) SiO2 
 PCOD9550476
Probable space group: P 43 2 2
;
_chemical_formula_sum "Si O2"
_cell_formula_units_Z 56
_cell_length_a 15.570917
_cell_length_b 15.570917
_cell_length_c 13.560421
_cell_angle_alpha 90.000000
_cell_angle_beta 90.000000
_cell_angle_gamma 90.000000
_cell_volume 3287.770939
_symmetry_space_group_name_H-M "P 43 2 2"
_symmetry_group_IT_number 95
_symmetry_cell_setting 'tetragonal'
loop_
_space_group_symop_operation_xyz
x,y,z
-y,x,3/4+z
-x,-y,1/2+z
y,-x,1/4+z
x,-y,1/2-z
-x,y,-z
y,x,1/4-z
-y,-x,3/4-z
loop_
_atom_site_type_symbol
_atom_site_label
_atom_site_fract_x
_atom_site_fract_y
_atom_site_fract_z
Si Si1 0.130758 0.410520 0.189784
Si Si2 0.566691 0.066600 0.591247
Si Si3 0.144261 0.144261 0.625000
Si Si4 0.219993 0.000000 0.750000
Si Si5 0.317364 0.845249 0.637295
Si Si6 0.308041 0.438783 0.657096
Si Si7 0.294624 0.197303 0.483569
Si Si8 0.818314 0.499915 0.992984
O O1 0.137771 0.500000 0.250000
O O2 0.148954 0.336958 0.270414
O O3 0.031762 0.404859 0.156176
O O4 0.187007 0.426912 0.091574
O O5 0.500000 0.076517 0.500000
O O6 0.646759 0.129531 0.573537
O O7 0.519727 0.099747 0.688610
O O8 0.159116 0.057128 0.682036
O O9 0.225228 0.151128 0.551990
O O10 0.276043 0.068055 0.814900
O O11 0.259523 0.762838 0.665428
O O12 0.408740 0.831836 0.690640
O O13 0.317699 0.500000 0.750000
O O14 0.397204 0.397204 0.625000
O O15 0.249340 0.359710 0.695689
O O16 0.260797 0.488213 0.568171
#
# Coordination Sequence:
#
# PCOD9550476 Si02
#       8
#     8   8   4   4   8   8   8   8
#     4   9  21  32  46  77 116 148 174 221 287 347
#     4  11  20  30  51  81 111 146 187 228 283 346
#     4  10  20  32  54  90 110 146 176 244 288 330
#     4  10  20  32  56  84 116 142 194 234 286 338
#     4  10  21  33  53  80 117 148 181 237 283 337
#     4  12  21  37  61  81 109 142 188 238 278 332
#     4  11  18  32  54  82 111 142 184 227 287 327
#     4  11  19  32  53  80 109 147 178 229 293 335
#
# _framework density 17.032817000000001
#
# number of rings (size 3 to 8) (size 9 to 14) (size 15 to 20)
#    0.000    1.429    5.000    2.143    6.000    0.000 
#    0.000    0.714    3.143    0.000   22.286    0.000 
#    0.000    0.000    0.000    0.000    0.000    0.000 
#
# Total GULP energy -312328.677196 kJ/mol
# GULP energy per Si atom -5577.297807 kJ/mol
# Density = 1.699405 g / cm^3
# Si number density = 17.032817 Si / 1000 Ang^3
#
#
#
# Elastic Constant Matrix: (Units=GPa)
#
#
# Indices 1 2 3 4 5 6 
#
# 1 75.6434 43.5593 55.0726 0.0000 0.0000 0.0000
# 2 43.5593 75.6434 55.0726 0.0000 0.0000 0.0000
# 3 55.0726 55.0726 126.0441 0.0000 0.0000 0.0000
# 4 0.0000 0.0000 0.0000 43.7288 0.0000 0.0000
# 5 0.0000 0.0000 0.0000 0.0000 43.7288 0.0000
# 6 0.0000 0.0000 0.0000 0.0000 0.0000 -13.2790
#
#
#
# Elastic Compliance Matrix: (Units=1/GPa)
#
#
# Indices 1 2 3 4 5 6 
#
# 1 0.022619 -0.008549 -0.006147 0.000000 0.000000 0.000000
# 2 -0.008549 0.022619 -0.006147 0.000000 0.000000 0.000000
# 3 -0.006147 -0.006147 0.013306 0.000000 0.000000 0.000000
# 4 0.000000 0.000000 0.000000 0.022868 0.000000 0.000000
# 5 0.000000 0.000000 0.000000 0.000000 0.022868 0.000000
# 6 0.000000 0.000000 0.000000 0.000000 0.000000 -0.075307
#
#
# Mechanical properties :
#
#
# Convention : Reuss Voigt Hill
#
# Bulk Modulus (GPa) = 59.32970 64.97109 62.15039
# Shear Modulus (GPa) = 65.54895 23.07750 44.31323
#
# Velocity S-wave (km/s) = 6.21027 3.68487 5.10616
# Velocity P-wave (km/s) = 9.29147 7.50545 8.44581
#
# Compressibility (1/GPa) = 0.01685497
#
# Stress axis : x y z
#
# Youngs Moduli (GPa) = 44.21128 44.21128 75.15610
#
# Poissons Ratio (x) = 0.37798 0.46201
# Poissons Ratio (y) = 0.37798 0.46201
# Poissons Ratio (z) = 0.27178 0.27178
#
# Static dielectric constant tensor:
#      x y z
#    x 1.569380 0.000000 0.000000 
#    y 0.000000 1.569380 0.000000 
#    z 0.000000 0.000000 1.593150 
# 
# From -- ./inp_files/5018.got.cif
#   From: 2010.05.17/outbox.cif.g08.bks.cpg/sg95_3_cif.got.tgz:5018.got - 2010.06.03 19:46:49.
