data_PCOD9550129
_publ_section_title
;
Structure prediction by ZEFSAII (Michael W. Deem and Ramdas Pophale) SiO2 
 PCOD9550129
Probable space group: P 42 21 2
;
_chemical_formula_sum "Si O2"
_cell_formula_units_Z 56
_cell_length_a 14.631004
_cell_length_b 14.631004
_cell_length_c 12.297303
_cell_angle_alpha 90.000000
_cell_angle_beta 90.000000
_cell_angle_gamma 90.000000
_cell_volume 2632.437883
_symmetry_space_group_name_H-M "P 42 21 2"
_symmetry_group_IT_number 94
_symmetry_cell_setting 'tetragonal'
loop_
_space_group_symop_operation_xyz
x,y,z
1/2-y,1/2+x,1/2+z
-x,-y,z
1/2+y,1/2-x,1/2+z
1/2+x,1/2-y,1/2-z
1/2-x,1/2+y,1/2-z
y,x,-z
-y,-x,-z
loop_
_atom_site_type_symbol
_atom_site_label
_atom_site_fract_x
_atom_site_fract_y
_atom_site_fract_z
Si Si1 0.545812 0.832465 0.629660
Si Si2 0.185420 0.869686 0.622405
Si Si3 0.674147 0.185391 0.311888
Si Si4 0.613050 0.190098 0.979180
Si Si5 0.107617 0.217158 0.750480
Si Si6 0.062715 0.123919 0.392927
Si Si7 0.124235 0.411050 0.971242
O O1 0.616836 0.867168 0.722090
O O2 0.617182 0.816481 0.530214
O O3 0.472968 0.758014 0.675450
O O4 0.472635 0.904512 0.585133
O O5 0.150646 0.849355 0.500000
O O6 0.158381 0.781441 0.689170
O O7 0.295012 0.880795 0.611240
O O8 0.146067 0.965746 0.656863
O O9 0.681431 0.294951 0.298172
O O10 0.631283 0.158544 0.427304
O O11 0.629462 0.217039 0.853754
O O12 0.511103 0.148475 0.985059
O O13 0.603998 0.279118 0.059021
O O14 0.072617 0.127026 0.690266
O O15 0.064130 0.064130 0.500000
#
# Coordination Sequence:
#
# PCOD9550129 Si02
#       7
#     8   8   8   8   8   8   8
#     4  12  23  40  65  96 140 180 218 279 346 413
#     4   9  19  36  61  90 122 162 219 278 329 388
#     4  11  22  42  67  94 132 184 223 267 350 416
#     4  10  21  41  63  97 132 164 221 287 334 399
#     4  11  22  42  67  94 132 184 223 267 350 416
#     4   9  19  36  61  90 122 162 219 278 329 388
#     4  10  21  41  63  97 132 164 221 287 334 399
#
# _framework density 21.273057000000001
#
# number of rings (size 3 to 8) (size 9 to 14) (size 15 to 20)
#    0.000    1.714    4.286    0.429    2.000    0.286 
#    7.714    0.000    0.000    0.000    3.714    0.000 
#    0.000    0.000    0.000    0.000    0.000    0.000 
#
# Total GULP energy -312014.123223 kJ/mol
# GULP energy per Si atom -5571.680772 kJ/mol
# Density = 2.122464 g / cm^3
# Si number density = 21.273057 Si / 1000 Ang^3
#
#
#
# Elastic Constant Matrix: (Units=GPa)
#
#
# Indices 1 2 3 4 5 6 
#
# 1 158.6131 -35.6119 30.2171 0.0000 0.0000 0.0000
# 2 -35.6119 158.6102 30.2182 0.0000 0.0000 0.0000
# 3 30.2171 30.2182 53.4195 0.0000 0.0000 0.0000
# 4 0.0000 0.0000 0.0000 18.4523 0.0000 0.0000
# 5 0.0000 0.0000 0.0000 0.0000 18.4523 0.0000
# 6 0.0000 0.0000 0.0000 0.0000 0.0000 32.6744
#
#
#
# Elastic Compliance Matrix: (Units=1/GPa)
#
#
# Indices 1 2 3 4 5 6 
#
# 1 0.008204 0.003055 -0.006369 0.000000 0.000000 0.000000
# 2 0.003055 0.008204 -0.006369 0.000000 0.000000 0.000000
# 3 -0.006369 -0.006369 0.025925 0.000000 0.000000 0.000000
# 4 0.000000 0.000000 0.000000 0.054194 0.000000 0.000000
# 5 0.000000 0.000000 0.000000 0.000000 0.054194 0.000000
# 6 0.000000 0.000000 0.000000 0.000000 0.000000 0.030605
#
#
# Mechanical properties :
#
#
# Convention : Reuss Voigt Hill
#
# Bulk Modulus (GPa) = 43.53907 46.69884 45.11896
# Shear Modulus (GPa) = 23.99830 36.97041 30.48436
#
# Velocity S-wave (km/s) = 3.36238 4.17333 3.78961
# Velocity P-wave (km/s) = 5.96534 6.72473 6.35639
#
# Compressibility (1/GPa) = 0.02296788
#
# Stress axis : x y z
#
# Youngs Moduli (GPa) = 121.89167 121.88808 38.57221
#
# Poissons Ratio (x) = -0.37242 0.24567
# Poissons Ratio (y) = -0.37243 0.24568
# Poissons Ratio (z) = 0.77633 0.77634
#
# Static dielectric constant tensor:
#      x y z
#    x 1.829980 0.000000 0.000000 
#    y 0.000000 1.829980 0.000000 
#    z 0.000000 0.000000 1.804690 
# 
# From -- ./inp_files/2736.got.cif
#   From: 2010.05.17/outbox.cif.g08.bks.cpg/sg94_2_cif.got.tgz:2736.got - 2010.06.03 19:43:16.
