data_PCOD9550477
_publ_section_title
;
Structure prediction by ZEFSAII (Michael W. Deem and Ramdas Pophale) SiO2 
 PCOD9550477
Probable space group: P 43 2 2
;
_chemical_formula_sum "Si O2"
_cell_formula_units_Z 48
_cell_length_a 22.341920
_cell_length_b 22.341920
_cell_length_c 5.337812
_cell_angle_alpha 90.000000
_cell_angle_beta 90.000000
_cell_angle_gamma 90.000000
_cell_volume 2664.429654
_symmetry_space_group_name_H-M "P 43 2 2"
_symmetry_group_IT_number 95
_symmetry_cell_setting 'tetragonal'
loop_
_space_group_symop_operation_xyz
x,y,z
-y,x,3/4+z
-x,-y,1/2+z
y,-x,1/4+z
x,-y,1/2-z
-x,y,-z
y,x,1/4-z
-y,-x,3/4-z
loop_
_atom_site_type_symbol
_atom_site_label
_atom_site_fract_x
_atom_site_fract_y
_atom_site_fract_z
Si Si1 0.250528 0.000000 0.250000
Si Si2 0.935185 0.064816 0.875000
Si Si3 0.632933 0.137523 0.006795
Si Si4 0.500000 0.887788 0.500000
Si Si5 0.190110 0.755887 0.119098
Si Si6 0.545468 0.000000 0.250000
Si Si7 0.355052 0.059296 0.492675
Si Si8 0.065548 0.183748 0.374303
O O1 0.295148 0.978547 0.034618
O O2 0.210329 0.946356 0.346205
O O3 0.923656 0.113913 0.661961
O O4 0.929095 0.000000 0.750000
O O5 0.561253 0.149869 0.990422
O O6 0.685770 0.185347 0.051541
O O7 0.640975 0.096802 0.253740
O O8 0.644590 0.101842 0.749027
O O9 0.510219 0.938038 0.284175
O O10 0.210281 0.789720 0.375000
O O11 0.124130 0.780916 0.037384
O O12 0.231132 0.768869 0.875000
O O13 0.590430 0.012824 0.479185
O O14 0.000000 0.189255 0.500000
#
# Coordination Sequence:
#
# PCOD9550477 Si02
#       8
#     4   4   8   4   8   4   8   8
#     4  12  22  39  56  84 105 138 178 234 280 364
#     4  12  26  44  56  74  92 122 168 234 312 388
#     4  11  23  40  59  85 115 153 191 237 279 341
#     4  10  20  34  56  84 122 154 194 226 280 342
#     4  12  27  46  66  86 114 148 195 244 297 353
#     4  10  20  33  54  88 123 168 178 224 280 354
#     4  11  22  35  57  85 120 149 187 223 281 343
#     4  12  27  40  64  81 102 137 181 238 307 374
#
# _framework density 18.015112999999999
#
# number of rings (size 3 to 8) (size 9 to 14) (size 15 to 20)
#    0.000    0.667    3.333    5.500    5.833    2.000 
#    0.000    0.000    0.000    0.000    0.000    0.000 
#    0.000    0.000    0.000    0.000    0.000    1.667 
#
# Total GULP energy -267876.425915 kJ/mol
# GULP energy per Si atom -5580.758873 kJ/mol
# Density = 1.797411 g / cm^3
# Si number density = 18.015113 Si / 1000 Ang^3
#
#
#
# Elastic Constant Matrix: (Units=GPa)
#
#
# Indices 1 2 3 4 5 6 
#
# 1 109.5775 28.3589 24.0777 0.0000 0.0000 0.0000
# 2 28.3589 109.5757 24.0775 0.0000 0.0000 0.0000
# 3 24.0777 24.0775 109.0818 0.0000 0.0000 0.0000
# 4 0.0000 0.0000 0.0000 28.6423 0.0000 0.0000
# 5 0.0000 0.0000 0.0000 0.0000 28.6423 0.0000
# 6 0.0000 0.0000 0.0000 0.0000 0.0000 14.1985
#
#
#
# Elastic Compliance Matrix: (Units=1/GPa)
#
#
# Indices 1 2 3 4 5 6 
#
# 1 0.010084 -0.002229 -0.001734 0.000000 0.000000 0.000000
# 2 -0.002229 0.010084 -0.001734 0.000000 0.000000 0.000000
# 3 -0.001734 -0.001734 0.009933 0.000000 0.000000 0.000000
# 4 0.000000 0.000000 0.000000 0.034913 0.000000 0.000000
# 5 0.000000 0.000000 0.000000 0.000000 0.034913 0.000000
# 6 0.000000 0.000000 0.000000 0.000000 0.000000 0.070430
#
#
# Mechanical properties :
#
#
# Convention : Reuss Voigt Hill
#
# Bulk Modulus (GPa) = 53.45417 53.47368 53.46392
# Shear Modulus (GPa) = 26.59772 31.07801 28.83786
#
# Velocity S-wave (km/s) = 3.84658 4.15795 4.00529
# Velocity P-wave (km/s) = 7.03310 7.26626 7.15063
#
# Compressibility (1/GPa) = 0.01870761
#
# Stress axis : x y z
#
# Youngs Moduli (GPa) = 99.16947 99.16781 100.67597
#
# Poissons Ratio (x) = 0.22102 0.17456
# Poissons Ratio (y) = 0.22102 0.17456
# Poissons Ratio (z) = 0.17194 0.17194
#
# Static dielectric constant tensor:
#      x y z
#    x 1.672380 0.000000 0.000000 
#    y 0.000000 1.672380 0.000000 
#    z 0.000000 0.000000 1.726180 
# 
# From -- ./inp_files/1354.got.cif
#   From: 2010.05.17/outbox.cif.g08.bks.cpg/sg95_1_cif.got.tgz:1354.got - 2010.06.03 19:46:49.
