data_PCOD9550992
_publ_section_title
;
Structure prediction by ZEFSAII (Michael W. Deem and Ramdas Pophale) SiO2 
 PCOD9550992
Probable space group: P 43 21 2
;
_chemical_formula_sum "Si O2"
_cell_formula_units_Z 32
_cell_length_a 8.721170
_cell_length_b 8.721170
_cell_length_c 15.103810
_cell_angle_alpha 90.000000
_cell_angle_beta 90.000000
_cell_angle_gamma 90.000000
_cell_volume 1148.777757
_symmetry_space_group_name_H-M "P 43 21 2"
_symmetry_group_IT_number 96
_symmetry_cell_setting 'tetragonal'
loop_
_space_group_symop_operation_xyz
x,y,z
1/2-y,1/2+x,3/4+z
-x,-y,1/2+z
1/2+y,1/2-x,1/4+z
1/2+x,1/2-y,1/4-z
1/2-x,1/2+y,3/4-z
y,x,-z
-y,-x,1/2-z
loop_
_atom_site_type_symbol
_atom_site_label
_atom_site_fract_x
_atom_site_fract_y
_atom_site_fract_z
Si Si1 0.923135 0.371510 0.967747
Si Si2 0.588493 0.213418 0.820605
Si Si3 0.294441 0.055548 0.763715
Si Si4 0.847422 0.983119 0.671224
O O1 0.160770 0.039265 0.835880
O O2 0.097690 0.407472 0.995912
O O3 0.877511 0.529242 0.914155
O O4 0.808234 0.394840 0.048205
O O5 0.689510 0.310491 0.750000
O O6 0.415751 0.188868 0.786806
O O7 0.923638 0.216767 0.911360
O O8 0.217547 0.090281 0.668583
O O9 0.911823 0.088178 0.750000
#
# Coordination Sequence:
#
# PCOD9550992 Si02
#       4
#     8   8   8   8
#     4  10  23  46  67 110 153 187 258 335 380 457
#     4  10  22  44  73 106 150 203 254 317 389 474
#     4  10  25  44  70 112 157 198 258 325 402 466
#     4  12  27  44  77 108 145 208 263 324 399 478
#
# _framework density 27.855692000000001
#
# number of rings (size 3 to 8) (size 9 to 14) (size 15 to 20)
#    1.500    0.000    2.500    0.750   10.500    2.000 
#    0.000    3.750    0.000    0.000    0.000    0.000 
#    0.000    0.000    0.000    0.000    0.000    0.000 
#
# Total GULP energy -178604.492866 kJ/mol
# GULP energy per Si atom -5581.390402 kJ/mol
# Density = 2.779229 g / cm^3
# Si number density = 27.855692 Si / 1000 Ang^3
#
#
#
# Elastic Constant Matrix: (Units=GPa)
#
#
# Indices 1 2 3 4 5 6 
#
# 1 105.8281 36.9246 26.3342 0.0000 0.0000 0.0000
# 2 36.9246 105.8276 26.3341 0.0000 0.0000 0.0000
# 3 26.3342 26.3341 102.2439 0.0000 0.0000 0.0000
# 4 0.0000 0.0000 0.0000 45.2189 0.0000 0.0000
# 5 0.0000 0.0000 0.0000 0.0000 45.2188 0.0000
# 6 0.0000 0.0000 0.0000 0.0000 0.0000 47.1112
#
#
#
# Elastic Compliance Matrix: (Units=1/GPa)
#
#
# Indices 1 2 3 4 5 6 
#
# 1 0.011127 -0.003386 -0.001994 0.000000 0.000000 0.000000
# 2 -0.003386 0.011127 -0.001994 0.000000 0.000000 0.000000
# 3 -0.001994 -0.001994 0.010808 0.000000 0.000000 0.000000
# 4 0.000000 0.000000 0.000000 0.022115 0.000000 0.000000
# 5 0.000000 0.000000 0.000000 0.000000 0.022115 0.000000
# 6 0.000000 0.000000 0.000000 0.000000 0.000000 0.021226
#
#
# Mechanical properties :
#
#
# Convention : Reuss Voigt Hill
#
# Bulk Modulus (GPa) = 54.60268 54.78725 54.69496
# Shear Modulus (GPa) = 41.88690 42.46355 42.17522
#
# Velocity S-wave (km/s) = 3.88198 3.90861 3.89532
# Velocity P-wave (km/s) = 6.30377 6.33092 6.31736
#
# Compressibility (1/GPa) = 0.01831412
#
# Stress axis : x y z
#
# Youngs Moduli (GPa) = 89.87241 89.87203 92.52795
#
# Poissons Ratio (x) = 0.30432 0.18447
# Poissons Ratio (y) = 0.30433 0.18447
# Poissons Ratio (z) = 0.17918 0.17918
#
# Static dielectric constant tensor:
#      x y z
#    x 2.249050 0.000000 0.000000 
#    y 0.000000 2.249050 0.000000 
#    z 0.000000 0.000000 2.206330 
# 
# From -- ./inp_files/3713.got.cif
#   From: 2010.05.17/outbox.cif.g08.bks.cpg/sg96_2_cif.got.tgz:3713.got - 2010.06.03 19:52:08.
