data_PCOD9550894
_publ_section_title
;
Structure prediction by ZEFSAII (Michael W. Deem and Ramdas Pophale) SiO2 
 PCOD9550894
Probable space group: P 43 21 2
;
_chemical_formula_sum "Si O2"
_cell_formula_units_Z 36
_cell_length_a 14.011625
_cell_length_b 14.011625
_cell_length_c 7.728441
_cell_angle_alpha 90.000000
_cell_angle_beta 90.000000
_cell_angle_gamma 90.000000
_cell_volume 1517.291088
_symmetry_space_group_name_H-M "P 43 21 2"
_symmetry_group_IT_number 96
_symmetry_cell_setting 'tetragonal'
loop_
_space_group_symop_operation_xyz
x,y,z
1/2-y,1/2+x,3/4+z
-x,-y,1/2+z
1/2+y,1/2-x,1/4+z
1/2+x,1/2-y,1/4-z
1/2-x,1/2+y,3/4-z
y,x,-z
-y,-x,1/2-z
loop_
_atom_site_type_symbol
_atom_site_label
_atom_site_fract_x
_atom_site_fract_y
_atom_site_fract_z
Si Si1 0.771833 0.929861 0.856063
Si Si2 0.594636 0.594636 0.000000
Si Si3 0.376942 0.471902 0.833715
Si Si4 0.446479 0.112005 0.726186
Si Si5 0.363771 0.740909 0.507522
O O1 0.780187 0.837571 0.734684
O O2 0.866763 0.991565 0.817330
O O3 0.681236 0.998835 0.841909
O O4 0.767305 0.897797 0.056302
O O5 0.652474 0.599903 0.179447
O O6 0.462025 0.537976 0.750000
O O7 0.417497 0.417497 0.000000
O O8 0.294699 0.545706 0.883586
O O9 0.516627 0.085707 0.879962
O O10 0.349694 0.162014 0.790544
#
# Coordination Sequence:
#
# PCOD9550894 Si02
#       5
#     8   4   8   8   8
#     4  10  21  37  66  93 129 177 225 283 346 412
#     4  12  22  34  64 104 138 176 220 288 366 406
#     4  12  20  33  61 101 139 171 215 283 356 408
#     4  10  24  46  67  89 136 187 228 285 347 424
#     4  10  21  39  62  94 137 171 222 290 342 405
#
# _framework density 23.726495
#
# number of rings (size 3 to 8) (size 9 to 14) (size 15 to 20)
#    0.000    1.333    5.556    0.000    0.000    5.333 
#    0.000    0.000    4.889    0.000    0.000    0.000 
#    0.000    0.000    0.000    0.000    0.000    0.000 
#
# Total GULP energy -200838.192214 kJ/mol
# GULP energy per Si atom -5578.838673 kJ/mol
# Density = 2.367249 g / cm^3
# Si number density = 23.726495 Si / 1000 Ang^3
#
#
#
# Elastic Constant Matrix: (Units=GPa)
#
#
# Indices 1 2 3 4 5 6 
#
# 1 86.5088 23.2375 0.0876 0.0000 0.0000 0.0000
# 2 23.2375 86.5088 0.0877 0.0000 0.0000 0.0000
# 3 0.0876 0.0877 87.9546 0.0000 0.0000 0.0000
# 4 0.0000 0.0000 0.0000 14.9388 0.0000 0.0000
# 5 0.0000 0.0000 0.0000 0.0000 14.9386 0.0000
# 6 0.0000 0.0000 0.0000 0.0000 0.0000 20.3113
#
#
#
# Elastic Compliance Matrix: (Units=1/GPa)
#
#
# Indices 1 2 3 4 5 6 
#
# 1 0.012458 -0.003347 -0.000009 0.000000 0.000000 0.000000
# 2 -0.003347 0.012458 -0.000009 0.000000 0.000000 0.000000
# 3 -0.000009 -0.000009 0.011370 0.000000 0.000000 0.000000
# 4 0.000000 0.000000 0.000000 0.066940 0.000000 0.000000
# 5 0.000000 0.000000 0.000000 0.000000 0.066941 0.000000
# 6 0.000000 0.000000 0.000000 0.000000 0.000000 0.049234
#
#
# Mechanical properties :
#
#
# Convention : Reuss Voigt Hill
#
# Bulk Modulus (GPa) = 33.83286 34.19977 34.01631
# Shear Modulus (GPa) = 21.18805 25.87505 23.53155
#
# Velocity S-wave (km/s) = 2.99157 3.30594 3.15268
# Velocity P-wave (km/s) = 5.12086 5.38681 5.25552
#
# Compressibility (1/GPa) = 0.02955706
#
# Stress axis : x y z
#
# Youngs Moduli (GPa) = 80.26687 80.26682 87.95450
#
# Poissons Ratio (x) = 0.26861 0.00080
# Poissons Ratio (y) = 0.26861 0.00080
# Poissons Ratio (z) = 0.00073 0.00073
#
# Static dielectric constant tensor:
#      x y z
#    x 1.982690 0.000000 0.000000 
#    y 0.000000 1.982690 0.000000 
#    z 0.000000 0.000000 1.951380 
# 
# From -- ./inp_files/1246.got.cif
#   From: 2010.05.17/outbox.cif.g08.bks.cpg/sg96_1_cif.got.tgz:1246.got - 2010.06.03 19:52:08.
