data_PCOD9550336
_publ_section_title
;
Structure prediction by ZEFSAII (Michael W. Deem and Ramdas Pophale) SiO2 
 PCOD9550336
Probable space group: P 42 21 2
;
_chemical_formula_sum "Si O2"
_cell_formula_units_Z 44
_cell_length_a 8.779321
_cell_length_b 8.779321
_cell_length_c 28.625247
_cell_angle_alpha 90.000000
_cell_angle_beta 90.000000
_cell_angle_gamma 90.000000
_cell_volume 2206.333198
_symmetry_space_group_name_H-M "P 42 21 2"
_symmetry_group_IT_number 94
_symmetry_cell_setting 'tetragonal'
loop_
_space_group_symop_operation_xyz
x,y,z
1/2-y,1/2+x,1/2+z
-x,-y,z
1/2+y,1/2-x,1/2+z
1/2+x,1/2-y,1/2-z
1/2-x,1/2+y,1/2-z
y,x,-z
-y,-x,-z
loop_
_atom_site_type_symbol
_atom_site_label
_atom_site_fract_x
_atom_site_fract_y
_atom_site_fract_z
Si Si1 0.500000 0.000000 0.928379
Si Si2 0.164577 0.932373 0.702633
Si Si3 0.830773 0.936959 0.880621
Si Si4 0.000516 0.249482 0.493076
Si Si5 0.665468 0.931470 0.788258
Si Si6 0.428068 0.158532 0.111191
O O1 0.332998 0.008650 0.903011
O O2 0.502629 0.138883 0.963799
O O3 0.158104 0.751192 0.710371
O O4 0.213529 0.967687 0.649404
O O5 0.284758 0.005027 0.738284
O O6 0.000000 0.000000 0.712325
O O7 0.795348 0.972309 0.826241
O O8 0.843461 0.755616 0.889579
O O9 0.000000 0.000000 0.894073
O O10 0.853483 0.146518 0.500000
O O11 0.991857 0.314209 0.440759
O O12 0.146598 0.146598 0.500000
O O13 0.500000 0.000000 0.800918
O O14 0.500000 0.000000 0.128025
#
# Coordination Sequence:
#
# PCOD9550336 Si02
#       6
#     4   8   8   8   8   8
#     4  12  24  46  70 106 134 182 238 292 348 430
#     4  11  25  41  68 100 136 183 231 281 355 415
#     4  11  26  44  71 103 141 182 231 289 358 415
#     4  11  25  43  69  96 136 177 225 284 352 409
#     4  11  23  44  67 100 141 181 229 288 345 430
#     4  11  25  45  65 100 136 177 234 287 340 429
#
# _framework density 19.942591
#
# number of rings (size 3 to 8) (size 9 to 14) (size 15 to 20)
#    0.000    0.909    3.636    2.182    5.091    5.818 
#    0.000    0.909    0.000    0.000    0.000    0.000 
#    0.000    0.000    0.000    0.000    0.000    0.000 
#
# Total GULP energy -245482.549350 kJ/mol
# GULP energy per Si atom -5579.148849 kJ/mol
# Density = 1.989720 g / cm^3
# Si number density = 19.942591 Si / 1000 Ang^3
#
#
#
# Elastic Constant Matrix: (Units=GPa)
#
#
# Indices 1 2 3 4 5 6 
#
# 1 101.5707 52.2332 32.8416 0.0000 0.0000 0.0000
# 2 52.2332 101.5701 32.8406 0.0000 0.0000 0.0000
# 3 32.8416 32.8406 98.2670 0.0000 0.0000 0.0000
# 4 0.0000 0.0000 0.0000 53.9976 0.0000 0.0000
# 5 0.0000 0.0000 0.0000 0.0000 53.9966 0.0000
# 6 0.0000 0.0000 0.0000 0.0000 0.0000 38.3123
#
#
#
# Elastic Compliance Matrix: (Units=1/GPa)
#
#
# Indices 1 2 3 4 5 6 
#
# 1 0.013926 -0.006342 -0.002535 0.000000 0.000000 0.000000
# 2 -0.006342 0.013926 -0.002535 0.000000 0.000000 0.000000
# 3 -0.002535 -0.002535 0.011871 0.000000 0.000000 0.000000
# 4 0.000000 0.000000 0.000000 0.018519 0.000000 0.000000
# 5 0.000000 0.000000 0.000000 0.000000 0.018520 0.000000
# 6 0.000000 0.000000 0.000000 0.000000 0.000000 0.026101
#
#
# Mechanical properties :
#
#
# Convention : Reuss Voigt Hill
#
# Bulk Modulus (GPa) = 59.17044 59.69317 59.43181
# Shear Modulus (GPa) = 38.07483 41.49413 39.78448
#
# Velocity S-wave (km/s) = 4.37420 4.56639 4.47133
# Velocity P-wave (km/s) = 7.43279 7.60264 7.51819
#
# Compressibility (1/GPa) = 0.01690033
#
# Stress axis : x y z
#
# Youngs Moduli (GPa) = 71.80570 71.80572 84.24213
#
# Poissons Ratio (x) = 0.45541 0.21353
# Poissons Ratio (y) = 0.45541 0.21352
# Poissons Ratio (z) = 0.18201 0.18200
#
# Static dielectric constant tensor:
#      x y z
#    x 1.696830 0.000000 0.000000 
#    y 0.000000 1.696830 0.000000 
#    z 0.000000 0.000000 1.709980 
# 
# From -- ./inp_files/5489.got.cif
#   From: 2010.05.17/outbox.cif.g08.bks.cpg/sg94_3_cif.got.tgz:5489.got - 2010.06.03 19:43:16.
