data_PCOD9550012
_publ_section_title
;
Structure prediction by ZEFSAII (Michael W. Deem and Ramdas Pophale) SiO2 
 PCOD9550012
Probable space group: P 42 21 2
;
_chemical_formula_sum "Si O2"
_cell_formula_units_Z 40
_cell_length_a 8.266505
_cell_length_b 8.266505
_cell_length_c 25.345296
_cell_angle_alpha 90.000000
_cell_angle_beta 90.000000
_cell_angle_gamma 90.000000
_cell_volume 1731.973461
_symmetry_space_group_name_H-M "P 42 21 2"
_symmetry_group_IT_number 94
_symmetry_cell_setting 'tetragonal'
loop_
_space_group_symop_operation_xyz
x,y,z
1/2-y,1/2+x,1/2+z
-x,-y,z
1/2+y,1/2-x,1/2+z
1/2+x,1/2-y,1/2-z
1/2-x,1/2+y,1/2-z
y,x,-z
-y,-x,-z
loop_
_atom_site_type_symbol
_atom_site_label
_atom_site_fract_x
_atom_site_fract_y
_atom_site_fract_z
Si Si1 0.605540 0.755040 0.551413
Si Si2 0.389180 0.254681 0.052740
Si Si3 0.823965 0.417631 0.760004
Si Si4 0.167960 0.926973 0.162573
Si Si5 0.769558 0.190142 0.667025
O O1 0.665750 0.665750 0.500000
O O2 0.414868 0.792433 0.546053
O O3 0.640511 0.651198 0.603992
O O4 0.700322 0.924495 0.557761
O O5 0.335311 0.337488 0.108230
O O6 0.356761 0.356761 0.000000
O O7 0.813880 0.255316 0.795813
O O8 0.807157 0.350889 0.700547
O O9 0.709888 0.539761 0.793035
O O10 0.000000 0.500000 0.760080
O O11 0.292138 0.076890 0.156603
O O12 0.000000 0.000000 0.181659
#
# Coordination Sequence:
#
# PCOD9550012 Si02
#       5
#     8   8   8   8   8
#     4  10  22  39  63  92 119 164 217 262 319 397
#     4  10  22  42  62  89 130 166 208 272 334 383
#     4  10  20  38  62  91 125 166 215 263 330 400
#     4  10  20  35  61  91 122 159 209 268 325 377
#     4  10  20  38  61  87 127 165 206 271 331 390
#
# _framework density 23.095041999999999
#
# number of rings (size 3 to 8) (size 9 to 14) (size 15 to 20)
#    0.000    2.000    2.000    1.200    5.600    0.400 
#    3.600    2.000    8.800    0.000    0.000    0.000 
#    0.000    0.000    0.000    0.000    0.000    0.000 
#
# Total GULP energy -223178.433414 kJ/mol
# GULP energy per Si atom -5579.460835 kJ/mol
# Density = 2.304248 g / cm^3
# Si number density = 23.095042 Si / 1000 Ang^3
#
#
#
# Elastic Constant Matrix: (Units=GPa)
#
#
# Indices 1 2 3 4 5 6 
#
# 1 47.1092 13.9360 34.5640 0.0000 0.0000 0.0000
# 2 13.9360 47.1092 34.5640 0.0000 0.0000 0.0000
# 3 34.5640 34.5640 190.5381 0.0000 0.0000 0.0000
# 4 0.0000 0.0000 0.0000 31.9254 0.0000 0.0000
# 5 0.0000 0.0000 0.0000 0.0000 31.9254 0.0000
# 6 0.0000 0.0000 0.0000 0.0000 0.0000 24.6287
#
#
#
# Elastic Compliance Matrix: (Units=1/GPa)
#
#
# Indices 1 2 3 4 5 6 
#
# 1 0.025381 -0.004764 -0.003740 0.000000 0.000000 0.000000
# 2 -0.004764 0.025381 -0.003740 0.000000 0.000000 0.000000
# 3 -0.003740 -0.003740 0.006605 0.000000 0.000000 0.000000
# 4 0.000000 0.000000 0.000000 0.031323 0.000000 0.000000
# 5 0.000000 0.000000 0.000000 0.000000 0.031323 0.000000
# 6 0.000000 0.000000 0.000000 0.000000 0.000000 0.040603
#
#
# Mechanical properties :
#
#
# Convention : Reuss Voigt Hill
#
# Bulk Modulus (GPa) = 30.41513 50.09831 40.25672
# Shear Modulus (GPa) = 25.50204 31.14205 28.32204
#
# Velocity S-wave (km/s) = 3.32659 3.67608 3.50569
# Velocity P-wave (km/s) = 5.28706 6.30535 5.81853
#
# Compressibility (1/GPa) = 0.03287837
#
# Stress axis : x y z
#
# Youngs Moduli (GPa) = 39.40023 39.40023 151.39754
#
# Poissons Ratio (x) = 0.18771 0.56620
# Poissons Ratio (y) = 0.18771 0.56620
# Poissons Ratio (z) = 0.14735 0.14735
#
# Static dielectric constant tensor:
#      x y z
#    x 1.900880 0.000000 0.000000 
#    y 0.000000 1.900880 0.000000 
#    z 0.000000 0.000000 1.907530 
# 
# From -- ./inp_files/4963.got.cif
#   From: 2010.05.17/outbox.cif.g08.bks.cpg/sg94_3_cif.got.tgz:4963.got - 2010.06.03 19:43:16.
