data_PCOD9550834
_publ_section_title
;
Structure prediction by ZEFSAII (Michael W. Deem and Ramdas Pophale) SiO2 
 PCOD9550834
Probable space group: P 43 21 2
;
_chemical_formula_sum "Si O2"
_cell_formula_units_Z 56
_cell_length_a 14.173096
_cell_length_b 14.173096
_cell_length_c 11.827411
_cell_angle_alpha 90.000000
_cell_angle_beta 90.000000
_cell_angle_gamma 90.000000
_cell_volume 2375.850703
_symmetry_space_group_name_H-M "P 43 21 2"
_symmetry_group_IT_number 96
_symmetry_cell_setting 'tetragonal'
loop_
_space_group_symop_operation_xyz
x,y,z
1/2-y,1/2+x,3/4+z
-x,-y,1/2+z
1/2+y,1/2-x,1/4+z
1/2+x,1/2-y,1/4-z
1/2-x,1/2+y,3/4-z
y,x,-z
-y,-x,1/2-z
loop_
_atom_site_type_symbol
_atom_site_label
_atom_site_fract_x
_atom_site_fract_y
_atom_site_fract_z
Si Si1 0.901553 0.246744 0.776005
Si Si2 0.655886 0.449832 0.906246
Si Si3 0.532593 0.026234 0.265700
Si Si4 0.359683 0.853602 0.422413
Si Si5 0.808452 0.000377 0.100840
Si Si6 0.787330 0.697677 0.235179
Si Si7 0.705930 0.151660 0.260450
O O1 0.798853 0.201148 0.750000
O O2 0.918535 0.322939 0.679236
O O3 0.889254 0.283053 0.899469
O O4 0.977564 0.166774 0.757833
O O5 0.555458 0.398959 0.898353
O O6 0.674307 0.503329 0.785483
O O7 0.736221 0.372295 0.938589
O O8 0.467842 0.013311 0.151780
O O9 0.601302 0.114443 0.238962
O O10 0.590352 0.927345 0.254803
O O11 0.424687 0.775450 0.363916
O O12 0.271062 0.801162 0.479876
O O13 0.775433 0.086758 0.181917
O O14 0.787234 0.645994 0.354447
O O15 0.739446 0.260554 0.250000
#
# Coordination Sequence:
#
# PCOD9550834 Si02
#       7
#     8   8   8   8   8   8   8
#     4  10  21  34  64  96 121 159 217 267 316 382
#     4  10  20  38  66  88 126 164 215 274 319 381
#     4  11  26  44  66  99 136 175 218 273 339 393
#     4   9  19  38  64  91 125 162 218 264 322 389
#     4   9  20  40  61  93 120 171 215 261 327 391
#     4  10  21  40  61  95 123 164 217 265 319 396
#     4  11  25  42  67  93 133 178 214 261 334 410
#
# _framework density 23.570506000000002
#
# number of rings (size 3 to 8) (size 9 to 14) (size 15 to 20)
#    0.000    2.000    1.429    0.857    8.000    4.000 
#    0.000    0.714    0.000    0.000    0.000    0.000 
#    0.000    0.000    0.000    0.000    0.000    0.000 
#
# Total GULP energy -311958.739897 kJ/mol
# GULP energy per Si atom -5570.691784 kJ/mol
# Density = 2.351686 g / cm^3
# Si number density = 23.570506 Si / 1000 Ang^3
#
#
#
# Elastic Constant Matrix: (Units=GPa)
#
#
# Indices 1 2 3 4 5 6 
#
# 1 38.7826 40.8191 16.1131 0.0000 0.0000 0.0000
# 2 40.8191 38.7804 16.1136 0.0000 0.0000 0.0000
# 3 16.1131 16.1136 105.0956 0.0000 0.0000 0.0000
# 4 0.0000 0.0000 0.0000 26.0322 0.0000 0.0000
# 5 0.0000 0.0000 0.0000 0.0000 26.0329 0.0000
# 6 0.0000 0.0000 0.0000 0.0000 0.0000 36.5113
#
#
#
# Elastic Compliance Matrix: (Units=1/GPa)
#
#
# Indices 1 2 3 4 5 6 
#
# 1 -0.238690 0.252092 -0.002056 0.000000 0.000000 0.000000
# 2 0.252092 -0.238706 -0.002051 0.000000 0.000000 0.000000
# 3 -0.002056 -0.002051 0.010145 0.000000 0.000000 0.000000
# 4 0.000000 0.000000 0.000000 0.038414 0.000000 0.000000
# 5 0.000000 0.000000 0.000000 0.000000 0.038413 0.000000
# 6 0.000000 0.000000 0.000000 0.000000 0.000000 0.027389
#
#
# Mechanical properties :
#
#
# Convention : Reuss Voigt Hill
#
# Bulk Modulus (GPa) = 34.82049 36.52781 35.67415
# Shear Modulus (GPa) = -5.88628 25.02282 9.56827
#
# Velocity S-wave (km/s) = -1.58200 3.26178 2.01699
# Velocity P-wave (km/s) = 3.38644 5.45128 4.53787
#
# Compressibility (1/GPa) = 0.02871872
#
# Stress axis : x y z
#
# Youngs Moduli (GPa) = -4.18953 -4.18926 98.57199
#
# Poissons Ratio (x) = 1.05608 0.20266
# Poissons Ratio (y) = 1.05615 0.20220
# Poissons Ratio (z) = -0.00861 -0.00859
#
# Static dielectric constant tensor:
#      x y z
#    x 1.959780 0.000000 0.000000 
#    y 0.000000 1.959780 0.000000 
#    z 0.000000 0.000000 2.036870 
# 
# From -- ./inp_files/2274.got.cif
#   From: 2010.05.17/outbox.cif.g08.bks.cpg/sg96_2_cif.got.tgz:2274.got - 2010.06.03 19:52:08.
