data_PCOD9550644
_publ_section_title
;
Structure prediction by ZEFSAII (Michael W. Deem and Ramdas Pophale) SiO2 
 PCOD9550644
Probable space group: P 43 2 2
;
_chemical_formula_sum "Si O2"
_cell_formula_units_Z 40
_cell_length_a 15.199282
_cell_length_b 15.199282
_cell_length_c 9.156300
_cell_angle_alpha 90.000000
_cell_angle_beta 90.000000
_cell_angle_gamma 90.000000
_cell_volume 2115.271700
_symmetry_space_group_name_H-M "P 43 2 2"
_symmetry_group_IT_number 95
_symmetry_cell_setting 'tetragonal'
loop_
_space_group_symop_operation_xyz
x,y,z
-y,x,3/4+z
-x,-y,1/2+z
y,-x,1/4+z
x,-y,1/2-z
-x,y,-z
y,x,1/4-z
-y,-x,3/4-z
loop_
_atom_site_type_symbol
_atom_site_label
_atom_site_fract_x
_atom_site_fract_y
_atom_site_fract_z
Si Si1 0.428114 0.428114 0.625000
Si Si2 0.464285 0.226851 0.664572
Si Si3 0.723227 0.133674 0.329142
Si Si4 0.738408 0.951539 0.488329
Si Si5 0.441132 0.915562 0.354706
Si Si6 0.070586 0.070586 0.125000
O O1 0.500000 0.439839 0.500000
O O2 0.443568 0.330023 0.690259
O O3 0.500000 0.220591 0.500000
O O4 0.372146 0.176878 0.672499
O O5 0.530106 0.173830 0.771505
O O6 0.796404 0.203597 0.375000
O O7 0.740797 0.099306 0.165779
O O8 0.722807 0.052592 0.441843
O O9 0.659381 0.917938 0.590451
O O10 0.831193 0.941551 0.566254
O O11 0.500000 0.924836 0.500000
O O12 0.456838 0.000000 0.250000
O O13 0.054195 0.000000 0.250000
#
# Coordination Sequence:
#
# PCOD9550644 Si02
#       6
#     4   8   8   8   8   4
#     4  10  24  48  68  96 132 178 228 276 336 416
#     4  11  23  42  69  98 134 179 222 278 349 414
#     4  11  22  42  68  96 133 178 226 280 344 424
#     4  11  25  42  65  98 136 173 229 285 344 406
#     4  12  23  40  65 101 139 171 220 285 351 410
#     4  12  28  46  66  96 132 186 236 278 338 406
#
# _framework density 18.910101000000001
#
# number of rings (size 3 to 8) (size 9 to 14) (size 15 to 20)
#    0.000    0.800    3.000    4.800    4.200    2.400 
#    0.000    0.000    0.000    0.000    0.000    0.000 
#    0.000    0.000    0.000    0.000    0.000    0.000 
#
# Total GULP energy -223708.408477 kJ/mol
# GULP energy per Si atom -5592.710212 kJ/mol
# Density = 1.886706 g / cm^3
# Si number density = 18.910101 Si / 1000 Ang^3
#
#
#
# Elastic Constant Matrix: (Units=GPa)
#
#
# Indices 1 2 3 4 5 6 
#
# 1 124.5137 109.3957 78.2990 0.0000 0.0000 0.0000
# 2 109.3957 124.5193 78.2971 0.0000 0.0000 0.0000
# 3 78.2990 78.2971 112.2466 0.0000 0.0000 0.0000
# 4 0.0000 0.0000 0.0000 31.6403 0.0000 0.0000
# 5 0.0000 0.0000 0.0000 0.0000 31.6349 0.0000
# 6 0.0000 0.0000 0.0000 0.0000 0.0000 31.6401
#
#
#
# Elastic Compliance Matrix: (Units=1/GPa)
#
#
# Indices 1 2 3 4 5 6 
#
# 1 0.037080 -0.029057 -0.005597 0.000000 0.000000 0.000000
# 2 -0.029057 0.037075 -0.005593 0.000000 0.000000 0.000000
# 3 -0.005597 -0.005593 0.016714 0.000000 0.000000 0.000000
# 4 0.000000 0.000000 0.000000 0.031605 0.000000 0.000000
# 5 0.000000 0.000000 0.000000 0.000000 0.031611 0.000000
# 6 0.000000 0.000000 0.000000 0.000000 0.000000 0.031605
#
#
# Mechanical properties :
#
#
# Convention : Reuss Voigt Hill
#
# Bulk Modulus (GPa) = 96.37332 99.25146 97.81239
# Shear Modulus (GPa) = 18.54312 25.33560 21.93936
#
# Velocity S-wave (km/s) = 3.13484 3.66429 3.40986
# Velocity P-wave (km/s) = 8.01109 8.39658 8.20610
#
# Compressibility (1/GPa) = 0.01037632
#
# Stress axis : x y z
#
# Youngs Moduli (GPa) = 26.96907 26.97225 59.82874
#
# Poissons Ratio (x) = 0.78372 0.33486
# Poissons Ratio (y) = 0.78363 0.33461
# Poissons Ratio (z) = 0.15094 0.15085
#
# Static dielectric constant tensor:
#      x y z
#    x 1.637630 0.000000 0.000000 
#    y 0.000000 1.637630 0.000000 
#    z 0.000000 0.000000 1.610860 
# 
# From -- ./inp_files/2425.got.cif
#   From: 2010.05.17/outbox.cif.g08.bks.cpg/sg95_2_cif.got.tgz:2425.got - 2010.06.03 19:46:49.
