data_PCOD9550874
_publ_section_title
;
Structure prediction by ZEFSAII (Michael W. Deem and Ramdas Pophale) SiO2 
 PCOD9550874
Probable space group: P 43 21 2
;
_chemical_formula_sum "Si O2"
_cell_formula_units_Z 64
_cell_length_a 10.142830
_cell_length_b 10.142830
_cell_length_c 26.379739
_cell_angle_alpha 90.000000
_cell_angle_beta 90.000000
_cell_angle_gamma 90.000000
_cell_volume 2713.868420
_symmetry_space_group_name_H-M "P 43 21 2"
_symmetry_group_IT_number 96
_symmetry_cell_setting 'tetragonal'
loop_
_space_group_symop_operation_xyz
x,y,z
1/2-y,1/2+x,3/4+z
-x,-y,1/2+z
1/2+y,1/2-x,1/4+z
1/2+x,1/2-y,1/4-z
1/2-x,1/2+y,3/4-z
y,x,-z
-y,-x,1/2-z
loop_
_atom_site_type_symbol
_atom_site_label
_atom_site_fract_x
_atom_site_fract_y
_atom_site_fract_z
Si Si1 0.552887 0.755122 0.702131
Si Si2 0.860796 0.949479 0.729165
Si Si3 0.666990 0.152348 0.763480
Si Si4 0.237695 0.453257 0.375948
Si Si5 0.520209 0.914468 0.513904
Si Si6 0.123310 0.521478 0.629255
Si Si7 0.214648 0.282007 0.276187
Si Si8 0.035715 0.077926 0.881643
O O1 0.668023 0.688558 0.736364
O O2 0.360634 0.512126 0.830712
O O3 0.451393 0.843700 0.735670
O O4 0.611252 0.869575 0.665186
O O5 0.995636 0.004365 0.750000
O O6 0.763792 0.076058 0.724021
O O7 0.896197 0.899424 0.673523
O O8 0.777346 0.875711 0.772860
O O9 0.695619 0.304382 0.750000
O O10 0.700781 0.120460 0.821784
O O11 0.525472 0.091549 0.753553
O O12 0.122532 0.561834 0.368336
O O13 0.224078 0.353365 0.328768
O O14 0.393176 0.492715 0.375254
O O15 0.436218 0.791585 0.494566
O O16 0.545369 0.917043 0.573296
O O17 0.272551 0.504607 0.647955
#
# Coordination Sequence:
#
# PCOD9550874 Si02
#       8
#     8   8   8   8   8   8   8   8
#     4  12  26  50  74 111 159 199 253 325 398 467
#     4  11  22  46  72  98 142 196 247 301 388 461
#     4  10  20  44  75 102 136 194 242 312 384 456
#     4  11  25  42  75 112 141 194 263 315 383 460
#     4  11  24  47  73 108 148 202 251 310 393 468
#     4  11  25  49  76 104 155 206 252 317 398 478
#     4  12  25  47  71 107 151 191 254 322 382 471
#     4  12  25  47  78 110 149 202 256 324 390 469
#
# _framework density 23.582574000000001
#
# number of rings (size 3 to 8) (size 9 to 14) (size 15 to 20)
#    0.000    0.750    6.250    1.500    1.750    2.000 
#   15.750    0.000    0.000    0.000    0.000    0.000 
#    0.000    0.000    0.000    0.000    0.000    0.000 
#
# Total GULP energy -357149.057506 kJ/mol
# GULP energy per Si atom -5580.454024 kJ/mol
# Density = 2.352890 g / cm^3
# Si number density = 23.582574 Si / 1000 Ang^3
#
#
#
# Elastic Constant Matrix: (Units=GPa)
#
#
# Indices 1 2 3 4 5 6 
#
# 1 71.0611 32.0357 28.9882 0.0000 0.0000 0.0000
# 2 32.0357 71.0602 28.9882 0.0000 0.0000 0.0000
# 3 28.9882 28.9882 121.8034 0.0000 0.0000 0.0000
# 4 0.0000 0.0000 0.0000 40.6579 0.0000 0.0000
# 5 0.0000 0.0000 0.0000 0.0000 40.6580 0.0000
# 6 0.0000 0.0000 0.0000 0.0000 0.0000 44.7834
#
#
#
# Elastic Compliance Matrix: (Units=1/GPa)
#
#
# Indices 1 2 3 4 5 6 
#
# 1 0.018411 -0.007213 -0.002665 0.000000 0.000000 0.000000
# 2 -0.007213 0.018412 -0.002665 0.000000 0.000000 0.000000
# 3 -0.002665 -0.002665 0.009479 0.000000 0.000000 0.000000
# 4 0.000000 0.000000 0.000000 0.024595 0.000000 0.000000
# 5 0.000000 0.000000 0.000000 0.000000 0.024595 0.000000
# 6 0.000000 0.000000 0.000000 0.000000 0.000000 0.022330
#
#
# Mechanical properties :
#
#
# Convention : Reuss Voigt Hill
#
# Bulk Modulus (GPa) = 47.13692 49.32768 48.23230
# Shear Modulus (GPa) = 33.33769 36.81404 35.07587
#
# Velocity S-wave (km/s) = 3.76394 3.95532 3.86082
# Velocity P-wave (km/s) = 6.23868 6.46698 6.35386
#
# Compressibility (1/GPa) = 0.02121479
#
# Stress axis : x y z
#
# Youngs Moduli (GPa) = 54.31424 54.31348 105.50180
#
# Poissons Ratio (x) = 0.39177 0.28117
# Poissons Ratio (y) = 0.39177 0.28118
# Poissons Ratio (z) = 0.14475 0.14475
#
# Static dielectric constant tensor:
#      x y z
#    x 1.989530 0.000000 0.000000 
#    y 0.000000 1.989530 0.000000 
#    z 0.000000 0.000000 1.915380 
# 
# From -- ./inp_files/4204.got.cif
#   From: 2010.05.17/outbox.cif.g08.bks.cpg/sg96_3_cif.got.tgz:4204.got - 2010.06.03 19:52:08.
