data_PCOD9550671
_publ_section_title
;
Structure prediction by ZEFSAII (Michael W. Deem and Ramdas Pophale) SiO2 
 PCOD9550671
Probable space group: P 43 2 2
;
_chemical_formula_sum "Si O2"
_cell_formula_units_Z 48
_cell_length_a 8.677613
_cell_length_b 8.677613
_cell_length_c 30.818829
_cell_angle_alpha 90.000000
_cell_angle_beta 90.000000
_cell_angle_gamma 90.000000
_cell_volume 2320.687637
_symmetry_space_group_name_H-M "P 43 2 2"
_symmetry_group_IT_number 95
_symmetry_cell_setting 'tetragonal'
loop_
_space_group_symop_operation_xyz
x,y,z
-y,x,3/4+z
-x,-y,1/2+z
y,-x,1/4+z
x,-y,1/2-z
-x,y,-z
y,x,1/4-z
-y,-x,3/4-z
loop_
_atom_site_type_symbol
_atom_site_label
_atom_site_fract_x
_atom_site_fract_y
_atom_site_fract_z
Si Si1 0.500000 0.791182 0.000000
Si Si2 0.118695 0.079373 0.960101
Si Si3 0.590548 0.715151 0.455072
Si Si4 0.759220 0.466167 0.399817
Si Si5 0.165765 0.269588 0.524156
Si Si6 0.997732 0.594457 0.668297
Si Si7 0.084448 0.084448 0.125000
O O1 0.658647 0.693323 0.007563
O O2 0.439548 0.903049 0.038417
O O3 0.187000 0.908219 0.962991
O O4 0.248016 0.205921 0.967521
O O5 0.047515 0.088725 0.911865
O O6 0.000000 0.093591 0.000000
O O7 0.500000 0.681697 0.500000
O O8 0.636542 0.575807 0.423680
O O9 0.502384 0.843067 0.426364
O O10 0.663722 0.336279 0.375000
O O11 0.858412 0.381760 0.436060
O O12 0.880568 0.547815 0.368639
O O13 0.000000 0.274968 0.500000
O O14 0.939667 0.763866 0.654666
#
# Coordination Sequence:
#
# PCOD9550671 Si02
#       7
#     4   8   8   8   8   8   4
#     4  12  22  46  76 100 150 196 248 318 386 454
#     4  11  23  44  74 104 137 189 252 306 368 448
#     4  12  25  46  71 104 144 194 239 308 387 463
#     4  12  27  47  70 107 149 193 248 312 382 468
#     4  11  25  45  71 105 140 196 248 302 377 459
#     4  12  25  47  71 103 144 191 249 310 382 457
#     4  12  26  44  72 108 142 192 252 322 370 460
#
# _framework density 20.683526000000001
#
# number of rings (size 3 to 8) (size 9 to 14) (size 15 to 20)
#    0.000    0.333    5.833    3.000    5.833    2.000 
#    3.000    0.000    0.000    0.000    0.000    0.000 
#    0.000    0.000    0.000    0.000    0.000    0.000 
#
# Total GULP energy -267715.228372 kJ/mol
# GULP energy per Si atom -5577.400591 kJ/mol
# Density = 2.063645 g / cm^3
# Si number density = 20.683526 Si / 1000 Ang^3
#
#
#
# Elastic Constant Matrix: (Units=GPa)
#
#
# Indices 1 2 3 4 5 6 
#
# 1 48.1483 52.8636 42.0990 0.0000 0.0000 0.0000
# 2 52.8636 48.1509 42.1003 0.0000 0.0000 0.0000
# 3 42.0990 42.1003 114.9352 0.0000 0.0000 0.0000
# 4 0.0000 0.0000 0.0000 25.5990 0.0000 0.0000
# 5 0.0000 0.0000 0.0000 0.0000 25.5980 0.0000
# 6 0.0000 0.0000 0.0000 0.0000 0.0000 6.2959
#
#
#
# Elastic Compliance Matrix: (Units=1/GPa)
#
#
# Indices 1 2 3 4 5 6 
#
# 1 -0.098945 0.113193 -0.005220 0.000000 0.000000 0.000000
# 2 0.113193 -0.098940 -0.005220 0.000000 0.000000 0.000000
# 3 -0.005220 -0.005220 0.012525 0.000000 0.000000 0.000000
# 4 0.000000 0.000000 0.000000 0.039064 0.000000 0.000000
# 5 0.000000 0.000000 0.000000 0.000000 0.039066 0.000000
# 6 0.000000 0.000000 0.000000 0.000000 0.000000 0.158834
#
#
# Mechanical properties :
#
#
# Convention : Reuss Voigt Hill
#
# Bulk Modulus (GPa) = 49.63665 53.92891 51.78278
# Shear Modulus (GPa) = -33.97054 16.44334 -8.76360
#
# Velocity S-wave (km/s) = -4.05705 2.82263 -2.06063
# Velocity P-wave (km/s) = 1.45055 6.06242 4.40778
#
# Compressibility (1/GPa) = 0.02014640
#
# Stress axis : x y z
#
# Youngs Moduli (GPa) = -10.10667 -10.10718 79.84317
#
# Poissons Ratio (x) = 1.14406 0.41679
# Poissons Ratio (y) = 1.14400 0.41675
# Poissons Ratio (z) = -0.05276 -0.05276
#
# Static dielectric constant tensor:
#      x y z
#    x 1.772140 0.000000 0.000000 
#    y 0.000000 1.772150 0.000000 
#    z 0.000000 0.000000 1.776600 
# 
# From -- ./inp_files/8007.got.cif
#   From: 2010.05.17/outbox.cif.g08.bks.cpg/sg95_5_cif.got.tgz:8007.got - 2010.06.03 19:46:49.
