data_PCOD9550836
_publ_section_title
;
Structure prediction by ZEFSAII (Michael W. Deem and Ramdas Pophale) SiO2 
 PCOD9550836
Probable space group: P 43 21 2
;
_chemical_formula_sum "Si O2"
_cell_formula_units_Z 60
_cell_length_a 11.401277
_cell_length_b 11.401277
_cell_length_c 18.890745
_cell_angle_alpha 90.000000
_cell_angle_beta 90.000000
_cell_angle_gamma 90.000000
_cell_volume 2455.591266
_symmetry_space_group_name_H-M "P 43 21 2"
_symmetry_group_IT_number 96
_symmetry_cell_setting 'tetragonal'
loop_
_space_group_symop_operation_xyz
x,y,z
1/2-y,1/2+x,3/4+z
-x,-y,1/2+z
1/2+y,1/2-x,1/4+z
1/2+x,1/2-y,1/4-z
1/2-x,1/2+y,3/4-z
y,x,-z
-y,-x,1/2-z
loop_
_atom_site_type_symbol
_atom_site_label
_atom_site_fract_x
_atom_site_fract_y
_atom_site_fract_z
Si Si1 0.639247 0.855715 0.167320
Si Si2 0.440292 0.831924 0.677692
Si Si3 0.069316 0.239049 0.537642
Si Si4 0.051324 0.507950 0.673442
Si Si5 0.080630 0.080630 0.000000
Si Si6 0.243936 0.877188 0.155894
Si Si7 0.799759 0.071056 0.186615
Si Si8 0.987379 0.058054 0.628718
O O1 0.553543 0.801110 0.227540
O O2 0.702104 0.744761 0.130493
O O3 0.554240 0.926860 0.110890
O O4 0.735312 0.945019 0.198397
O O5 0.526037 0.866493 0.613867
O O6 0.474513 0.920544 0.743294
O O7 0.434949 0.701385 0.707797
O O8 0.306777 0.856752 0.653764
O O9 0.129116 0.129116 0.500000
O O10 0.167244 0.338336 0.533374
O O11 0.044702 0.185378 0.616238
O O12 0.172143 0.453745 0.643677
O O13 0.073223 0.974149 0.054596
O O14 0.125446 0.941817 0.178622
O O15 0.852707 0.147294 0.250000
O O16 0.912767 0.035062 0.142116
#
# Coordination Sequence:
#
# PCOD9550836 Si02
#       8
#     8   8   8   8   4   8   8   8
#     4   9  21  40  67  98 142 185 227 300 358 436
#     4  11  25  47  73 100 144 190 244 306 367 440
#     4  10  20  38  68  99 134 179 225 279 360 436
#     4  10  23  45  71 104 140 189 243 295 369 446
#     4  12  24  44  74  96 136 184 242 304 366 436
#     4  10  20  41  64  96 140 171 230 284 362 421
#     4  11  24  45  64  97 144 184 241 295 361 436
#     4  11  23  42  65 103 133 179 230 295 355 433
#
# _framework density 24.434035999999999
#
# number of rings (size 3 to 8) (size 9 to 14) (size 15 to 20)
#    0.000    1.600    4.000    0.000    1.867    3.733 
#    2.400    0.000    0.000    0.000    0.000    0.000 
#    0.000    0.000    0.000    0.000    0.000    0.000 
#
# Total GULP energy -334629.275545 kJ/mol
# GULP energy per Si atom -5577.154592 kJ/mol
# Density = 2.437842 g / cm^3
# Si number density = 24.434036 Si / 1000 Ang^3
#
#
#
# Elastic Constant Matrix: (Units=GPa)
#
#
# Indices 1 2 3 4 5 6 
#
# 1 141.5309 18.2102 15.5502 0.0000 0.0000 0.0000
# 2 18.2102 141.5278 15.5491 0.0000 0.0000 0.0000
# 3 15.5502 15.5491 58.9714 0.0000 0.0000 0.0000
# 4 0.0000 0.0000 0.0000 28.9358 0.0000 0.0000
# 5 0.0000 0.0000 0.0000 0.0000 28.9354 0.0000
# 6 0.0000 0.0000 0.0000 0.0000 0.0000 51.7102
#
#
#
# Elastic Compliance Matrix: (Units=1/GPa)
#
#
# Indices 1 2 3 4 5 6 
#
# 1 0.007354 -0.000755 -0.001740 0.000000 0.000000 0.000000
# 2 -0.000755 0.007354 -0.001740 0.000000 0.000000 0.000000
# 3 -0.001740 -0.001740 0.017875 0.000000 0.000000 0.000000
# 4 0.000000 0.000000 0.000000 0.034559 0.000000 0.000000
# 5 0.000000 0.000000 0.000000 0.000000 0.034560 0.000000
# 6 0.000000 0.000000 0.000000 0.000000 0.000000 0.019339
#
#
# Mechanical properties :
#
#
# Convention : Reuss Voigt Hill
#
# Bulk Modulus (GPa) = 41.47172 48.96102 45.21637
# Shear Modulus (GPa) = 36.35087 41.43099 38.89093
#
# Velocity S-wave (km/s) = 3.86127 4.12227 3.99390
# Velocity P-wave (km/s) = 6.07363 6.53750 6.30983
#
# Compressibility (1/GPa) = 0.02411282
#
# Stress axis : x y z
#
# Youngs Moduli (GPa) = 135.98176 135.97922 55.94409
#
# Poissons Ratio (x) = 0.10267 0.09735
# Poissons Ratio (y) = 0.10267 0.09734
# Poissons Ratio (z) = 0.23662 0.23660
#
# Static dielectric constant tensor:
#      x y z
#    x 1.991920 0.000000 0.000000 
#    y 0.000000 1.991920 0.000000 
#    z 0.000000 0.000000 2.012250 
# 
# From -- ./inp_files/3605.got.cif
#   From: 2010.05.17/outbox.cif.g08.bks.cpg/sg96_2_cif.got.tgz:3605.got - 2010.06.03 19:52:08.
