data_PCOD9550858
_publ_section_title
;
Structure prediction by ZEFSAII (Michael W. Deem and Ramdas Pophale) SiO2 
 PCOD9550858
Probable space group: P 43 21 2
;
_chemical_formula_sum "Si O2"
_cell_formula_units_Z 48
_cell_length_a 8.318231
_cell_length_b 8.318231
_cell_length_c 28.406755
_cell_angle_alpha 90.000000
_cell_angle_beta 90.000000
_cell_angle_gamma 90.000000
_cell_volume 1965.547660
_symmetry_space_group_name_H-M "P 43 21 2"
_symmetry_group_IT_number 96
_symmetry_cell_setting 'tetragonal'
loop_
_space_group_symop_operation_xyz
x,y,z
1/2-y,1/2+x,3/4+z
-x,-y,1/2+z
1/2+y,1/2-x,1/4+z
1/2+x,1/2-y,1/4-z
1/2-x,1/2+y,3/4-z
y,x,-z
-y,-x,1/2-z
loop_
_atom_site_type_symbol
_atom_site_label
_atom_site_fract_x
_atom_site_fract_y
_atom_site_fract_z
Si Si1 0.147541 0.449972 0.155141
Si Si2 0.801608 0.315737 0.840595
Si Si3 0.111583 0.374148 0.693659
Si Si4 0.476754 0.310078 0.144548
Si Si5 0.402980 0.442111 0.290828
Si Si6 0.021264 0.966467 0.301831
O O1 0.227563 0.627531 0.150372
O O2 0.292643 0.325330 0.160998
O O3 0.022510 0.488092 0.197246
O O4 0.050232 0.365839 0.112483
O O5 0.890110 0.322052 0.890271
O O6 0.742619 0.488157 0.821700
O O7 0.920894 0.220361 0.805693
O O8 0.263112 0.378353 0.727423
O O9 0.046460 0.194844 0.691095
O O10 0.564311 0.430179 0.180328
O O11 0.488875 0.397848 0.093070
O O12 0.429189 0.570812 0.250000
O O13 0.975617 0.024384 0.250000
#
# Coordination Sequence:
#
# PCOD9550858 Si02
#       6
#     8   8   8   8   8   8
#     4  10  22  38  67  89 127 178 219 265 340 392
#     4  10  20  41  68  95 127 179 223 271 329 397
#     4  11  20  43  67  92 129 176 224 272 323 401
#     4  11  22  41  62  94 133 175 216 282 335 394
#     4  11  22  38  67  96 134 174 227 270 340 400
#     4  11  23  39  65  98 132 170 222 274 329 394
#
# _framework density 24.420674999999999
#
# number of rings (size 3 to 8) (size 9 to 14) (size 15 to 20)
#    0.000    1.333    5.000    2.500    0.000    2.667 
#    0.000    3.333    7.333    0.000    0.000    0.000 
#    0.000    0.000    0.000    0.000    0.000    0.000 
#
# Total GULP energy -267754.903165 kJ/mol
# GULP energy per Si atom -5578.227149 kJ/mol
# Density = 2.436509 g / cm^3
# Si number density = 24.420675 Si / 1000 Ang^3
#
#
#
# Elastic Constant Matrix: (Units=GPa)
#
#
# Indices 1 2 3 4 5 6 
#
# 1 62.1265 41.6546 -8.1038 0.0000 0.0000 0.0000
# 2 41.6546 62.1268 -8.1025 0.0000 0.0000 0.0000
# 3 -8.1038 -8.1025 57.0455 0.0000 0.0000 0.0000
# 4 0.0000 0.0000 0.0000 17.9499 0.0000 0.0000
# 5 0.0000 0.0000 0.0000 0.0000 17.9505 0.0000
# 6 0.0000 0.0000 0.0000 0.0000 0.0000 29.9525
#
#
#
# Elastic Compliance Matrix: (Units=1/GPa)
#
#
# Indices 1 2 3 4 5 6 
#
# 1 0.029351 -0.019497 0.001400 0.000000 0.000000 0.000000
# 2 -0.019497 0.029351 0.001399 0.000000 0.000000 0.000000
# 3 0.001400 0.001399 0.017928 0.000000 0.000000 0.000000
# 4 0.000000 0.000000 0.000000 0.055711 0.000000 0.000000
# 5 0.000000 0.000000 0.000000 0.000000 0.055709 0.000000
# 6 0.000000 0.000000 0.000000 0.000000 0.000000 0.033386
#
#
# Mechanical properties :
#
#
# Convention : Reuss Voigt Hill
#
# Bulk Modulus (GPa) = 23.12937 25.79949 24.46443
# Shear Modulus (GPa) = 18.57076 23.56058 21.06567
#
# Velocity S-wave (km/s) = 2.76062 3.10946 2.94022
# Velocity P-wave (km/s) = 4.43319 4.84553 4.64394
#
# Compressibility (1/GPa) = 0.04323507
#
# Stress axis : x y z
#
# Youngs Moduli (GPa) = 34.07050 34.07088 55.78011
#
# Poissons Ratio (x) = 0.66426 -0.07811
# Poissons Ratio (y) = 0.66426 -0.07805
# Poissons Ratio (z) = -0.04771 -0.04767
#
# Static dielectric constant tensor:
#      x y z
#    x 2.033290 0.000000 0.000000 
#    y 0.000000 2.033290 0.000000 
#    z 0.000000 0.000000 2.056770 
# 
# From -- ./inp_files/4491.got.cif
#   From: 2010.05.17/outbox.cif.g08.bks.cpg/sg96_3_cif.got.tgz:4491.got - 2010.06.03 19:52:08.
