data_PCOD9550651
_publ_section_title
;
Structure prediction by ZEFSAII (Michael W. Deem and Ramdas Pophale) SiO2 
 PCOD9550651
Probable space group: P 43 2 2
;
_chemical_formula_sum "Si O2"
_cell_formula_units_Z 40
_cell_length_a 11.556258
_cell_length_b 11.556258
_cell_length_c 14.557150
_cell_angle_alpha 90.000000
_cell_angle_beta 90.000000
_cell_angle_gamma 90.000000
_cell_volume 1944.065152
_symmetry_space_group_name_H-M "P 43 2 2"
_symmetry_group_IT_number 95
_symmetry_cell_setting 'tetragonal'
loop_
_space_group_symop_operation_xyz
x,y,z
-y,x,3/4+z
-x,-y,1/2+z
y,-x,1/4+z
x,-y,1/2-z
-x,y,-z
y,x,1/4-z
-y,-x,3/4-z
loop_
_atom_site_type_symbol
_atom_site_label
_atom_site_fract_x
_atom_site_fract_y
_atom_site_fract_z
Si Si1 0.180117 0.118919 0.311533
Si Si2 0.862854 0.569849 0.497511
Si Si3 0.502229 0.690570 0.394783
Si Si4 0.921462 0.862205 0.225940
Si Si5 0.500019 0.307958 0.604194
O O1 0.296254 0.173409 0.270044
O O2 0.193220 0.109560 0.423518
O O3 0.054628 0.174407 0.293768
O O4 0.172520 0.000000 0.250000
O O5 0.804173 0.517695 0.586692
O O6 0.803893 0.498414 0.416532
O O7 0.000000 0.564257 0.500000
O O8 0.500000 0.719534 0.500000
O O9 0.397211 0.602790 0.375000
O O10 0.615338 0.615253 0.371168
O O11 0.855672 0.855672 0.125000
O O12 0.919023 0.000000 0.250000
O O13 0.500000 0.272784 0.500000
O O14 0.394122 0.394122 0.625000
#
# Coordination Sequence:
#
# PCOD9550651 Si02
#       5
#     8   8   8   8   8
#     4   9  17  30  50  83 125 168 224 279 337 391
#     4  11  24  37  58 101 138 163 206 270 343 405
#     4  11  20  39  70 101 124 166 225 278 325 390
#     4   8  14  28  52  76 114 179 236 276 317 394
#     4  11  20  41  72  95 122 170 224 268 315 387
#
# _framework density 20.575441000000001
#
# number of rings (size 3 to 8) (size 9 to 14) (size 15 to 20)
#    0.000    2.000    4.000    3.000    0.000    4.000 
#    0.000    1.000    0.000    1.200    0.000    0.000 
#    0.000    3.200    0.000    0.000    0.000    0.000 
#
# Total GULP energy -222865.739747 kJ/mol
# GULP energy per Si atom -5571.643494 kJ/mol
# Density = 2.052861 g / cm^3
# Si number density = 20.575441 Si / 1000 Ang^3
#
#
#
# Elastic Constant Matrix: (Units=GPa)
#
#
# Indices 1 2 3 4 5 6 
#
# 1 65.6655 25.2332 33.4493 0.0000 0.0000 0.0000
# 2 25.2332 65.6662 33.4490 0.0000 0.0000 0.0000
# 3 33.4493 33.4490 208.1357 0.0000 0.0000 0.0000
# 4 0.0000 0.0000 0.0000 126.6292 0.0000 0.0000
# 5 0.0000 0.0000 0.0000 0.0000 129.4749 0.0000
# 6 0.0000 0.0000 0.0000 0.0000 0.0000 352.9632
#
#
#
# Elastic Compliance Matrix: (Units=1/GPa)
#
#
# Indices 1 2 3 4 5 6 
#
# 1 0.018605 -0.006128 -0.002005 0.000000 0.000000 0.000000
# 2 -0.006128 0.018605 -0.002005 0.000000 0.000000 0.000000
# 3 -0.002005 -0.002005 0.005449 0.000000 0.000000 0.000000
# 4 0.000000 0.000000 0.000000 0.007897 0.000000 0.000000
# 5 0.000000 0.000000 0.000000 0.000000 0.007724 0.000000
# 6 0.000000 0.000000 0.000000 0.000000 0.000000 0.002833
#
#
# Mechanical properties :
#
#
# Convention : Reuss Voigt Hill
#
# Bulk Modulus (GPa) = 44.67811 58.19225 51.43518
# Shear Modulus (GPa) = 56.27520 138.30253 97.28887
#
# Velocity S-wave (km/s) = 5.23546 8.20751 6.88379
# Velocity P-wave (km/s) = 7.63598 10.87021 9.39334
#
# Compressibility (1/GPa) = 0.02238232
#
# Stress axis : x y z
#
# Youngs Moduli (GPa) = 53.74952 53.75019 183.51832
#
# Poissons Ratio (x) = 0.32937 0.36799
# Poissons Ratio (y) = 0.32936 0.36797
# Poissons Ratio (z) = 0.10778 0.10777
#
# Static dielectric constant tensor:
#      x y z
#    x 1.219370 0.000000 0.000000 
#    y 0.000000 1.207940 0.000000 
#    z 0.000000 0.000000 1.757210 
# 
# From -- ./inp_files/4781.got.cif
#   From: 2010.05.17/outbox.cif.g08.bks.cpg/sg95_3_cif.got.tgz:4781.got - 2010.06.03 19:46:49.
