data_PCOD9550549
_publ_section_title
;
Structure prediction by ZEFSAII (Michael W. Deem and Ramdas Pophale) SiO2 
 PCOD9550549
Probable space group: P 43 2 2
;
_chemical_formula_sum "Si O2"
_cell_formula_units_Z 40
_cell_length_a 7.417747
_cell_length_b 7.417747
_cell_length_c 33.323740
_cell_angle_alpha 90.000000
_cell_angle_beta 90.000000
_cell_angle_gamma 90.000000
_cell_volume 1833.571165
_symmetry_space_group_name_H-M "P 43 2 2"
_symmetry_group_IT_number 95
_symmetry_cell_setting 'tetragonal'
loop_
_space_group_symop_operation_xyz
x,y,z
-y,x,3/4+z
-x,-y,1/2+z
y,-x,1/4+z
x,-y,1/2-z
-x,y,-z
y,x,1/4-z
-y,-x,3/4-z
loop_
_atom_site_type_symbol
_atom_site_label
_atom_site_fract_x
_atom_site_fract_y
_atom_site_fract_z
Si Si1 0.004534 0.639501 0.393368
Si Si2 0.797401 0.283531 0.249586
Si Si3 0.328966 0.489368 0.062146
Si Si4 0.096131 0.773981 0.310083
Si Si5 0.278116 0.639439 0.917595
O O1 0.185796 0.520834 0.401438
O O2 0.989483 0.673617 0.346123
O O3 0.050839 0.820575 0.418001
O O4 0.842737 0.536552 0.413333
O O5 0.829695 0.500000 0.250000
O O6 0.615564 0.256035 0.223462
O O7 0.759634 0.223281 0.294678
O O8 0.965141 0.198522 0.226693
O O9 0.336555 0.278890 0.049191
O O10 0.482408 0.572610 0.924619
O O11 0.262771 0.737230 0.875000
#
# Coordination Sequence:
#
# PCOD9550549 Si02
#       5
#     8   8   8   8   8
#     4   9  19  37  67  92 131 170 215 258 332 391
#     4  10  21  36  65  95 131 170 219 271 325 386
#     4   9  20  39  66  91 129 171 211 273 321 384
#     4   9  19  38  64  95 129 169 214 271 316 390
#     4  11  21  38  67  95 130 175 219 267 334 391
#
# _framework density 21.815355
#
# number of rings (size 3 to 8) (size 9 to 14) (size 15 to 20)
#    1.200    1.200    0.000    3.600    0.000    3.200 
#    0.000    2.000   39.600    0.000    0.000    0.000 
#    0.000    0.000    0.000    0.000    0.000    0.000 
#
# Total GULP energy -223228.083085 kJ/mol
# GULP energy per Si atom -5580.702077 kJ/mol
# Density = 2.176570 g / cm^3
# Si number density = 21.815355 Si / 1000 Ang^3
#
#
#
# Elastic Constant Matrix: (Units=GPa)
#
#
# Indices 1 2 3 4 5 6 
#
# 1 53.4863 17.1518 47.8200 0.0000 0.0000 0.0000
# 2 17.1518 53.4875 47.8201 0.0000 0.0000 0.0000
# 3 47.8200 47.8201 164.8306 0.0000 0.0000 0.0000
# 4 0.0000 0.0000 0.0000 54.1838 0.0000 0.0000
# 5 0.0000 0.0000 0.0000 0.0000 54.1355 0.0000
# 6 0.0000 0.0000 0.0000 0.0000 0.0000 15.0498
#
#
#
# Elastic Compliance Matrix: (Units=1/GPa)
#
#
# Indices 1 2 3 4 5 6 
#
# 1 0.025418 -0.002104 -0.006764 0.000000 0.000000 0.000000
# 2 -0.002104 0.025418 -0.006764 0.000000 0.000000 0.000000
# 3 -0.006764 -0.006764 0.009991 0.000000 0.000000 0.000000
# 4 0.000000 0.000000 0.000000 0.018456 0.000000 0.000000
# 5 0.000000 0.000000 0.000000 0.000000 0.018472 0.000000
# 6 0.000000 0.000000 0.000000 0.000000 0.000000 0.066446
#
#
# Mechanical properties :
#
#
# Convention : Reuss Voigt Hill
#
# Bulk Modulus (GPa) = 33.82413 55.26536 44.54475
# Shear Modulus (GPa) = 24.35233 35.27465 29.81349
#
# Velocity S-wave (km/s) = 3.34472 4.02551 3.70080
# Velocity P-wave (km/s) = 5.51857 6.85526 6.22291
#
# Compressibility (1/GPa) = 0.02956469
#
# Stress axis : x y z
#
# Youngs Moduli (GPa) = 39.34162 39.34275 100.08548
#
# Poissons Ratio (x) = 0.08276 0.67698
# Poissons Ratio (y) = 0.08276 0.67696
# Poissons Ratio (z) = 0.26611 0.26611
#
# Static dielectric constant tensor:
#      x y z
#    x 1.805970 0.000000 0.000000 
#    y 0.000000 1.805980 0.000000 
#    z 0.000000 0.000000 1.787190 
# 
# From -- ./inp_files/7365.got.cif
#   From: 2010.05.17/outbox.cif.g08.bks.cpg/sg95_4_cif.got.tgz:7365.got - 2010.06.03 19:46:49.
