data_PCOD9550435
_publ_section_title
;
Structure prediction by ZEFSAII (Michael W. Deem and Ramdas Pophale) SiO2 
 PCOD9550435
Probable space group: P 43 2 2
;
_chemical_formula_sum "Si O2"
_cell_formula_units_Z 48
_cell_length_a 8.750302
_cell_length_b 8.750302
_cell_length_c 27.584054
_cell_angle_alpha 90.000000
_cell_angle_beta 90.000000
_cell_angle_gamma 90.000000
_cell_volume 2112.049919
_symmetry_space_group_name_H-M "P 43 2 2"
_symmetry_group_IT_number 95
_symmetry_cell_setting 'tetragonal'
loop_
_space_group_symop_operation_xyz
x,y,z
-y,x,3/4+z
-x,-y,1/2+z
y,-x,1/4+z
x,-y,1/2-z
-x,y,-z
y,x,1/4-z
-y,-x,3/4-z
loop_
_atom_site_type_symbol
_atom_site_label
_atom_site_fract_x
_atom_site_fract_y
_atom_site_fract_z
Si Si1 0.800626 0.341217 0.095583
Si Si2 0.120232 0.985401 0.580261
Si Si3 0.466025 0.982250 0.596639
Si Si4 0.777522 0.000000 0.250000
Si Si5 0.732510 0.366883 0.553008
Si Si6 0.500000 0.175452 0.500000
Si Si7 0.512179 0.350245 0.943728
O O1 0.942107 0.445264 0.109361
O O2 0.732573 0.288982 0.148074
O O3 0.654083 0.419676 0.070692
O O4 0.858647 0.192939 0.066051
O O5 0.002965 0.002965 0.625000
O O6 0.286965 0.015476 0.602698
O O7 0.083297 0.102450 0.537081
O O8 0.497866 0.069553 0.546617
O O9 0.515276 0.807507 0.586657
O O10 0.664610 0.900918 0.283676
O O11 0.638795 0.288627 0.509340
O O12 0.650653 0.530184 0.562213
O O13 0.500000 0.308095 0.000000
#
# Coordination Sequence:
#
# PCOD9550435 Si02
#       7
#     8   8   8   4   8   4   8
#     4  10  24  43  72 102 136 196 246 305 376 439
#     4  11  23  44  72 103 143 187 247 309 364 458
#     4  10  22  41  73  99 140 189 242 296 381 440
#     4  12  24  42  76 112 152 196 254 308 388 460
#     4  11  22  41  71 106 146 184 249 304 365 451
#     4  10  18  36  68 102 124 192 234 294 358 436
#     4  11  23  43  72 105 147 186 246 312 373 446
#
# _framework density 22.726738000000001
#
# number of rings (size 3 to 8) (size 9 to 14) (size 15 to 20)
#    0.000    1.333    5.000    0.500    0.000    4.000 
#    0.000    3.333    3.667    1.000    0.000    0.000 
#    0.000    0.000    0.000    0.000    0.000    0.000 
#
# Total GULP energy -267758.495791 kJ/mol
# GULP energy per Si atom -5578.301996 kJ/mol
# Density = 2.267501 g / cm^3
# Si number density = 22.726738 Si / 1000 Ang^3
#
#
#
# Elastic Constant Matrix: (Units=GPa)
#
#
# Indices 1 2 3 4 5 6 
#
# 1 107.1320 76.9521 44.6008 0.0000 0.0000 0.0000
# 2 76.9521 107.1320 44.6008 0.0000 0.0000 0.0000
# 3 44.6008 44.6008 78.2561 0.0000 0.0000 0.0000
# 4 0.0000 0.0000 0.0000 31.8574 0.0000 0.0000
# 5 0.0000 0.0000 0.0000 0.0000 31.8574 0.0000
# 6 0.0000 0.0000 0.0000 0.0000 0.0000 31.9838
#
#
#
# Elastic Compliance Matrix: (Units=1/GPa)
#
#
# Indices 1 2 3 4 5 6 
#
# 1 0.020320 -0.012815 -0.004277 0.000000 0.000000 0.000000
# 2 -0.012815 0.020320 -0.004277 0.000000 0.000000 0.000000
# 3 -0.004277 -0.004277 0.017654 0.000000 0.000000 0.000000
# 4 0.000000 0.000000 0.000000 0.031390 0.000000 0.000000
# 5 0.000000 0.000000 0.000000 0.000000 0.031390 0.000000
# 6 0.000000 0.000000 0.000000 0.000000 0.000000 0.031266
#
#
# Mechanical properties :
#
#
# Convention : Reuss Voigt Hill
#
# Bulk Modulus (GPa) = 64.28909 69.42530 66.85719
# Shear Modulus (GPa) = 24.96714 27.56414 26.26564
#
# Velocity S-wave (km/s) = 3.31808 3.48638 3.40327
# Velocity P-wave (km/s) = 6.55963 6.84256 6.70259
#
# Compressibility (1/GPa) = 0.01555474
#
# Stress axis : x y z
#
# Youngs Moduli (GPa) = 49.21315 49.21315 56.64390
#
# Poissons Ratio (x) = 0.63066 0.24229
# Poissons Ratio (y) = 0.63066 0.24229
# Poissons Ratio (z) = 0.21050 0.21050
#
# Static dielectric constant tensor:
#      x y z
#    x 1.913360 0.000000 0.000000 
#    y 0.000000 1.913360 0.000000 
#    z 0.000000 0.000000 1.832800 
# 
# From -- ./inp_files/7994.got.cif
#   From: 2010.05.17/outbox.cif.g08.bks.cpg/sg95_4_cif.got.tgz:7994.got - 2010.06.03 19:46:49.
