data_PCOD9550306
_publ_section_title
;
Structure prediction by ZEFSAII (Michael W. Deem and Ramdas Pophale) SiO2 
 PCOD9550306
Probable space group: P 42 21 2
;
_chemical_formula_sum "Si O2"
_cell_formula_units_Z 60
_cell_length_a 14.340151
_cell_length_b 14.340151
_cell_length_c 13.413186
_cell_angle_alpha 90.000000
_cell_angle_beta 90.000000
_cell_angle_gamma 90.000000
_cell_volume 2758.286640
_symmetry_space_group_name_H-M "P 42 21 2"
_symmetry_group_IT_number 94
_symmetry_cell_setting 'tetragonal'
loop_
_space_group_symop_operation_xyz
x,y,z
1/2-y,1/2+x,1/2+z
-x,-y,z
1/2+y,1/2-x,1/2+z
1/2+x,1/2-y,1/2-z
1/2-x,1/2+y,1/2-z
y,x,-z
-y,-x,-z
loop_
_atom_site_type_symbol
_atom_site_label
_atom_site_fract_x
_atom_site_fract_y
_atom_site_fract_z
Si Si1 0.204717 0.709942 0.329272
Si Si2 0.548409 0.205014 0.836665
Si Si3 0.461138 0.336295 0.433692
Si Si4 0.165943 0.676823 0.983474
Si Si5 0.834641 0.834641 0.000000
Si Si6 0.432701 0.586106 0.882106
Si Si7 0.640175 0.145115 0.251122
Si Si8 0.722542 0.517488 0.772526
O O1 0.196853 0.633660 0.241650
O O2 0.245922 0.665235 0.428766
O O3 0.279483 0.788630 0.297506
O O4 0.101713 0.750802 0.344486
O O5 0.527738 0.315354 0.847592
O O6 0.457552 0.153086 0.796139
O O7 0.588485 0.172899 0.943607
O O8 0.418901 0.418901 0.500000
O O9 0.417400 0.243700 0.480787
O O10 0.571891 0.337029 0.435832
O O11 0.435130 0.334903 0.317676
O O12 0.148769 0.653534 0.868492
O O13 0.259185 0.740816 0.000000
O O14 0.500000 0.500000 0.859245
O O15 0.337785 0.561662 0.825559
O O16 0.414631 0.585370 0.000000
O O17 0.537718 0.188395 0.270417
#
# Coordination Sequence:
#
# PCOD9550306 Si02
#       8
#     8   8   8   8   4   8   8   8
#     4  12  25  45  68 102 148 190 241 303 368 441
#     4  12  23  44  75 102 146 197 245 304 368 444
#     4  11  23  44  73 104 139 187 247 303 365 431
#     4  11  21  43  75 102 142 195 243 296 369 445
#     4  12  25  42  68 108 149 184 240 314 374 419
#     4  11  24  42  71 109 141 185 247 298 367 436
#     4  12  25  44  73 109 142 193 247 304 371 441
#     4  12  24  46  70 100 149 192 238 303 364 442
#
# _framework density 21.752635999999999
#
# number of rings (size 3 to 8) (size 9 to 14) (size 15 to 20)
#    0.000    0.400    5.333    3.800    0.000    5.867 
#    0.000    0.000    0.000    0.000    0.000    0.000 
#    0.000    0.000    0.000    0.000    0.000    0.000 
#
# Total GULP energy -335818.326466 kJ/mol
# GULP energy per Si atom -5596.972108 kJ/mol
# Density = 2.170313 g / cm^3
# Si number density = 21.752636 Si / 1000 Ang^3
#
#
#
# Elastic Constant Matrix: (Units=GPa)
#
#
# Indices 1 2 3 4 5 6 
#
# 1 80.5048 20.9436 7.7108 0.0000 0.0000 0.0000
# 2 20.9436 80.5046 7.7110 0.0000 0.0000 0.0000
# 3 7.7108 7.7110 61.3403 0.0000 0.0000 0.0000
# 4 0.0000 0.0000 0.0000 28.4458 0.0000 0.0000
# 5 0.0000 0.0000 0.0000 0.0000 28.4458 0.0000
# 6 0.0000 0.0000 0.0000 0.0000 0.0000 41.4247
#
#
#
# Elastic Compliance Matrix: (Units=1/GPa)
#
#
# Indices 1 2 3 4 5 6 
#
# 1 0.013419 -0.003370 -0.001263 0.000000 0.000000 0.000000
# 2 -0.003370 0.013419 -0.001263 0.000000 0.000000 0.000000
# 3 -0.001263 -0.001263 0.016620 0.000000 0.000000 0.000000
# 4 0.000000 0.000000 0.000000 0.035155 0.000000 0.000000
# 5 0.000000 0.000000 0.000000 0.000000 0.035155 0.000000
# 6 0.000000 0.000000 0.000000 0.000000 0.000000 0.024140
#
#
# Mechanical properties :
#
#
# Convention : Reuss Voigt Hill
#
# Bulk Modulus (GPa) = 31.58003 32.78672 32.18337
# Shear Modulus (GPa) = 31.19995 32.06221 31.63108
#
# Velocity S-wave (km/s) = 3.79133 3.84337 3.81744
# Velocity P-wave (km/s) = 5.80645 5.89920 5.85301
#
# Compressibility (1/GPa) = 0.03166559
#
# Stress axis : x y z
#
# Youngs Moduli (GPa) = 74.51928 74.51901 60.16816
#
# Poissons Ratio (x) = 0.25114 0.07601
# Poissons Ratio (y) = 0.25114 0.07601
# Poissons Ratio (z) = 0.09413 0.09414
#
# Static dielectric constant tensor:
#      x y z
#    x 1.804310 0.000000 0.000000 
#    y 0.000000 1.804310 0.000000 
#    z 0.000000 0.000000 1.752190 
# 
# From -- ./inp_files/3604.got.cif
#   From: 2010.05.17/outbox.cif.g08.bks.cpg/sg94_2_cif.got.tgz:3604.got - 2010.06.03 19:43:16.
