data_PCOD9550241
_publ_section_title
;
Structure prediction by ZEFSAII (Michael W. Deem and Ramdas Pophale) SiO2 
 PCOD9550241
Probable space group: P 42 21 2
;
_chemical_formula_sum "Si O2"
_cell_formula_units_Z 54
_cell_length_a 15.290551
_cell_length_b 15.290551
_cell_length_c 10.636849
_cell_angle_alpha 90.000000
_cell_angle_beta 90.000000
_cell_angle_gamma 90.000000
_cell_volume 2486.905400
_symmetry_space_group_name_H-M "P 42 21 2"
_symmetry_group_IT_number 94
_symmetry_cell_setting 'tetragonal'
loop_
_space_group_symop_operation_xyz
x,y,z
1/2-y,1/2+x,1/2+z
-x,-y,z
1/2+y,1/2-x,1/2+z
1/2+x,1/2-y,1/2-z
1/2-x,1/2+y,1/2-z
y,x,-z
-y,-x,-z
loop_
_atom_site_type_symbol
_atom_site_label
_atom_site_fract_x
_atom_site_fract_y
_atom_site_fract_z
Si Si1 0.793151 0.793151 0.000000
Si Si2 0.500000 0.500000 0.000000
Si Si3 0.909594 0.280185 0.799705
Si Si4 0.326767 0.252388 0.236072
Si Si5 0.585053 0.045737 0.981859
Si Si6 0.488397 0.689475 0.116217
Si Si7 0.068895 0.282295 0.639030
Si Si8 0.293169 0.085712 0.839706
O O1 0.768913 0.731300 0.885224
O O2 0.769235 0.889290 0.955263
O O3 0.586460 0.499995 0.911188
O O4 0.840758 0.200949 0.809794
O O5 0.861459 0.338165 0.693354
O O6 0.005314 0.252707 0.751250
O O7 0.919008 0.346586 0.915536
O O8 0.421639 0.268995 0.172373
O O9 0.301597 0.169152 0.323130
O O10 0.539681 0.121819 0.903687
O O11 0.500000 0.000000 0.043866
O O12 0.644939 0.992320 0.884401
O O13 0.423355 0.727857 0.221599
O O14 0.451941 0.723863 0.982395
#
# Coordination Sequence:
#
# PCOD9550241 Si02
#       8
#     4   2   8   8   8   8   8   8
#     4  10  23  42  68  94 138 189 230 278 368 440
#     4  12  30  48  80  98 148 202 272 312 362 456
#     4  11  25  42  69 106 144 193 243 297 382 454
#     4  11  25  48  71 105 153 192 247 319 375 445
#     4  12  25  40  69 108 146 183 237 302 380 454
#     4  12  26  48  72 108 142 194 259 311 372 454
#     4  12  25  42  77 106 149 192 243 312 384 447
#     4  11  23  44  67 101 143 181 234 302 366 448
#
# _framework density 21.713730999999999
#
# number of rings (size 3 to 8) (size 9 to 14) (size 15 to 20)
#    0.000    0.593    4.444    4.000    8.296    0.593 
#    2.667    0.000    0.000    0.000    0.000    0.000 
#    0.000    0.000    0.000    0.000    0.000    0.000 
#
# Total GULP energy -300933.751574 kJ/mol
# GULP energy per Si atom -5572.847251 kJ/mol
# Density = 2.166431 g / cm^3
# Si number density = 21.713731 Si / 1000 Ang^3
#
#
#
# Elastic Constant Matrix: (Units=GPa)
#
#
# Indices 1 2 3 4 5 6 
#
# 1 212.9145 -99.4617 31.7772 0.0000 0.0000 0.0000
# 2 -99.4617 212.9145 31.7772 0.0000 0.0000 0.0000
# 3 31.7772 31.7772 76.2366 0.0000 0.0000 0.0000
# 4 0.0000 0.0000 0.0000 22.5934 0.0000 0.0000
# 5 0.0000 0.0000 0.0000 0.0000 22.5934 0.0000
# 6 0.0000 0.0000 0.0000 0.0000 0.0000 38.6636
#
#
#
# Elastic Compliance Matrix: (Units=1/GPa)
#
#
# Indices 1 2 3 4 5 6 
#
# 1 0.007350 0.004149 -0.004793 0.000000 0.000000 0.000000
# 2 0.004149 0.007350 -0.004793 0.000000 0.000000 0.000000
# 3 -0.004793 -0.004793 0.017113 0.000000 0.000000 0.000000
# 4 0.000000 0.000000 0.000000 0.044261 0.000000 0.000000
# 5 0.000000 0.000000 0.000000 0.000000 0.044261 0.000000
# 6 0.000000 0.000000 0.000000 0.000000 0.000000 0.025864
#
#
# Mechanical properties :
#
#
# Convention : Reuss Voigt Hill
#
# Bulk Modulus (GPa) = 47.75829 47.80565 47.78197
# Shear Modulus (GPa) = 30.47788 52.63492 41.55640
#
# Velocity S-wave (km/s) = 3.75056 4.92879 4.37948
# Velocity P-wave (km/s) = 6.38732 7.37935 6.90118
#
# Compressibility (1/GPa) = 0.02093877
#
# Stress axis : x y z
#
# Youngs Moduli (GPa) = 136.04924 136.04924 58.43553
#
# Poissons Ratio (x) = -0.56447 0.28009
# Poissons Ratio (y) = -0.56447 0.28009
# Poissons Ratio (z) = 0.65211 0.65211
#
# Static dielectric constant tensor:
#      x y z
#    x 1.927390 0.000000 0.000000 
#    y 0.000000 1.927390 0.000000 
#    z 0.000000 0.000000 1.870540 
# 
# From -- ./inp_files/2769.got.cif
#   From: 2010.05.17/outbox.cif.g08.bks.cpg/sg94_2_cif.got.tgz:2769.got - 2010.06.03 19:43:16.
