data_PCOD9550193
_publ_section_title
;
Structure prediction by ZEFSAII (Michael W. Deem and Ramdas Pophale) SiO2 
 PCOD9550193
Probable space group: P 42 21 2
;
_chemical_formula_sum "Si O2"
_cell_formula_units_Z 20
_cell_length_a 8.931247
_cell_length_b 8.931247
_cell_length_c 10.601657
_cell_angle_alpha 90.000000
_cell_angle_beta 90.000000
_cell_angle_gamma 90.000000
_cell_volume 845.664208
_symmetry_space_group_name_H-M "P 42 21 2"
_symmetry_group_IT_number 94
_symmetry_cell_setting 'tetragonal'
loop_
_space_group_symop_operation_xyz
x,y,z
1/2-y,1/2+x,1/2+z
-x,-y,z
1/2+y,1/2-x,1/2+z
1/2+x,1/2-y,1/2-z
1/2-x,1/2+y,1/2-z
y,x,-z
-y,-x,-z
loop_
_atom_site_type_symbol
_atom_site_label
_atom_site_fract_x
_atom_site_fract_y
_atom_site_fract_z
Si Si1 0.801094 0.751517 0.866097
Si Si2 0.944781 0.783380 0.611415
Si Si3 0.000000 0.500000 0.471099
O O1 0.857411 0.824269 0.738258
O O2 0.623353 0.719727 0.864515
O O3 0.896804 0.601136 0.883306
O O4 0.832176 0.832176 0.000000
O O5 0.889610 0.889610 0.500000
O O6 0.910576 0.614756 0.561273
#
# Coordination Sequence:
#
# PCOD9550193 Si02
#       3
#     8   8   4
#     4  10  23  42  70 102 139 185 234 291 357 425
#     4  11  23  43  72 104 140 183 235 292 358 433
#     4  10  22  42  68 100 136 182 232 294 354 418
#
# _framework density 23.650047000000001
#
# number of rings (size 3 to 8) (size 9 to 14) (size 15 to 20)
#    0.000    1.600    0.000    3.600    0.000   16.800 
#    0.000    0.000    0.000   51.600    0.000    0.000 
#    0.000    0.000    0.000    0.000    0.000    0.000 
#
# Total GULP energy -111835.290587 kJ/mol
# GULP energy per Si atom -5591.764529 kJ/mol
# Density = 2.359622 g / cm^3
# Si number density = 23.650047 Si / 1000 Ang^3
#
#
#
# Elastic Constant Matrix: (Units=GPa)
#
#
# Indices 1 2 3 4 5 6 
#
# 1 118.5674 17.1919 57.3731 0.0000 0.0000 0.0000
# 2 17.1919 118.5674 57.3731 0.0000 0.0000 0.0000
# 3 57.3731 57.3731 239.9999 0.0000 0.0000 0.0000
# 4 0.0000 0.0000 0.0000 18.0169 0.0000 0.0000
# 5 0.0000 0.0000 0.0000 0.0000 18.0169 0.0000
# 6 0.0000 0.0000 0.0000 0.0000 0.0000 36.2561
#
#
#
# Elastic Compliance Matrix: (Units=1/GPa)
#
#
# Indices 1 2 3 4 5 6 
#
# 1 0.009548 -0.000317 -0.002207 0.000000 0.000000 0.000000
# 2 -0.000317 0.009548 -0.002207 0.000000 0.000000 0.000000
# 3 -0.002207 -0.002207 0.005222 0.000000 0.000000 0.000000
# 4 0.000000 0.000000 0.000000 0.055503 0.000000 0.000000
# 5 0.000000 0.000000 0.000000 0.000000 0.055503 0.000000
# 6 0.000000 0.000000 0.000000 0.000000 0.000000 0.027582
#
#
# Mechanical properties :
#
#
# Convention : Reuss Voigt Hill
#
# Bulk Modulus (GPa) = 67.30811 82.33457 74.82134
# Shear Modulus (GPa) = 28.19793 37.47109 32.83451
#
# Velocity S-wave (km/s) = 3.45671 3.98477 3.73010
# Velocity P-wave (km/s) = 6.66736 7.48735 7.08922
#
# Compressibility (1/GPa) = 0.01485705
#
# Stress axis : x y z
#
# Youngs Moduli (GPa) = 104.73680 104.73680 191.50707
#
# Poissons Ratio (x) = 0.03316 0.42261
# Poissons Ratio (y) = 0.03316 0.42261
# Poissons Ratio (z) = 0.23113 0.23113
#
# Static dielectric constant tensor:
#      x y z
#    x 1.938510 0.000000 0.000000 
#    y 0.000000 1.938510 0.000000 
#    z 0.000000 0.000000 1.946540 
# 
# From -- ./inp_files/1958.got.cif
#   From: 2010.05.17/outbox.cif.g08.bks.cpg/sg94_1_cif.got.tgz:1958.got - 2010.06.03 19:43:16.
