data_PCOD9550239
_publ_section_title
;
Structure prediction by ZEFSAII (Michael W. Deem and Ramdas Pophale) SiO2 
 PCOD9550239
Probable space group: P 42 21 2
;
_chemical_formula_sum "Si O2"
_cell_formula_units_Z 40
_cell_length_a 12.862862
_cell_length_b 12.862862
_cell_length_c 12.678585
_cell_angle_alpha 90.000000
_cell_angle_beta 90.000000
_cell_angle_gamma 90.000000
_cell_volume 2097.712698
_symmetry_space_group_name_H-M "P 42 21 2"
_symmetry_group_IT_number 94
_symmetry_cell_setting 'tetragonal'
loop_
_space_group_symop_operation_xyz
x,y,z
1/2-y,1/2+x,1/2+z
-x,-y,z
1/2+y,1/2-x,1/2+z
1/2+x,1/2-y,1/2-z
1/2-x,1/2+y,1/2-z
y,x,-z
-y,-x,-z
loop_
_atom_site_type_symbol
_atom_site_label
_atom_site_fract_x
_atom_site_fract_y
_atom_site_fract_z
Si Si1 0.048472 0.387335 0.580776
Si Si2 0.461374 0.619353 0.250427
Si Si3 0.161786 0.281117 0.758186
Si Si4 0.733589 0.583238 0.935171
Si Si5 0.889029 0.220999 0.088391
O O1 0.069981 0.343509 0.698429
O O2 0.165607 0.400012 0.536673
O O3 0.000000 0.500000 0.584470
O O4 0.981597 0.306948 0.513415
O O5 0.500000 0.500000 0.252707
O O6 0.661937 0.370076 0.261956
O O7 0.505227 0.673805 0.144394
O O8 0.512884 0.683231 0.346050
O O9 0.197322 0.337282 0.864789
O O10 0.258023 0.298995 0.676021
O O11 0.649804 0.649804 0.000000
O O12 0.859441 0.140560 0.000000
#
# Coordination Sequence:
#
# PCOD9550239 Si02
#       5
#     8   8   8   8   8
#     4  10  23  42  67  96 131 180 226 275 350 407
#     4  11  23  42  65  99 133 176 229 283 343 407
#     4   9  23  42  64  96 134 169 223 289 325 412
#     4  11  24  40  70 100 134 181 230 287 341 413
#     4   9  21  42  65  93 130 179 215 279 346 399
#
# _framework density 19.068387999999999
#
# number of rings (size 3 to 8) (size 9 to 14) (size 15 to 20)
#    1.200    0.800    0.000    2.400    2.800    4.800 
#    0.000    0.000    0.000    0.000    0.000    0.000 
#    0.000    0.000    0.000    0.000    0.000    0.000 
#
# Total GULP energy -222972.511357 kJ/mol
# GULP energy per Si atom -5574.312784 kJ/mol
# Density = 1.902499 g / cm^3
# Si number density = 19.068388 Si / 1000 Ang^3
#
#
#
# Elastic Constant Matrix: (Units=GPa)
#
#
# Indices 1 2 3 4 5 6 
#
# 1 81.6433 27.2400 15.0429 0.0000 0.0000 0.0000
# 2 27.2400 81.6434 15.0424 0.0000 0.0000 0.0000
# 3 15.0429 15.0424 62.3100 0.0000 0.0000 0.0000
# 4 0.0000 0.0000 0.0000 36.5493 0.0000 0.0000
# 5 0.0000 0.0000 0.0000 0.0000 36.5453 0.0000
# 6 0.0000 0.0000 0.0000 0.0000 0.0000 28.2116
#
#
#
# Elastic Compliance Matrix: (Units=1/GPa)
#
#
# Indices 1 2 3 4 5 6 
#
# 1 0.014111 -0.004270 -0.002376 0.000000 0.000000 0.000000
# 2 -0.004270 0.014111 -0.002376 0.000000 0.000000 0.000000
# 3 -0.002376 -0.002376 0.017196 0.000000 0.000000 0.000000
# 4 0.000000 0.000000 0.000000 0.027360 0.000000 0.000000
# 5 0.000000 0.000000 0.000000 0.000000 0.027363 0.000000
# 6 0.000000 0.000000 0.000000 0.000000 0.000000 0.035446
#
#
# Mechanical properties :
#
#
# Convention : Reuss Voigt Hill
#
# Bulk Modulus (GPa) = 36.53065 37.80525 37.16795
# Shear Modulus (GPa) = 30.72090 31.47935 31.10013
#
# Velocity S-wave (km/s) = 4.01819 4.06749 4.04292
# Velocity P-wave (km/s) = 6.38178 6.47522 6.42867
#
# Compressibility (1/GPa) = 0.02737428
#
# Stress axis : x y z
#
# Youngs Moduli (GPa) = 70.86711 70.86746 58.15359
#
# Poissons Ratio (x) = 0.30263 0.13816
# Poissons Ratio (y) = 0.30263 0.13815
# Poissons Ratio (z) = 0.16836 0.16835
#
# Static dielectric constant tensor:
#      x y z
#    x 1.636940 0.000000 0.000000 
#    y 0.000000 1.636940 0.000000 
#    z 0.000000 0.000000 1.662230 
# 
# From -- ./inp_files/3371.got.cif
#   From: 2010.05.17/outbox.cif.g08.bks.cpg/sg94_2_cif.got.tgz:3371.got - 2010.06.03 19:43:16.
