data_PCOD9550949
_publ_section_title
;
Structure prediction by ZEFSAII (Michael W. Deem and Ramdas Pophale) SiO2 
 PCOD9550949
Probable space group: P 43 21 2
;
_chemical_formula_sum "Si O2"
_cell_formula_units_Z 40
_cell_length_a 8.822221
_cell_length_b 8.822221
_cell_length_c 24.847169
_cell_angle_alpha 90.000000
_cell_angle_beta 90.000000
_cell_angle_gamma 90.000000
_cell_volume 1933.894506
_symmetry_space_group_name_H-M "P 43 21 2"
_symmetry_group_IT_number 96
_symmetry_cell_setting 'tetragonal'
loop_
_space_group_symop_operation_xyz
x,y,z
1/2-y,1/2+x,3/4+z
-x,-y,1/2+z
1/2+y,1/2-x,1/4+z
1/2+x,1/2-y,1/4-z
1/2-x,1/2+y,3/4-z
y,x,-z
-y,-x,1/2-z
loop_
_atom_site_type_symbol
_atom_site_label
_atom_site_fract_x
_atom_site_fract_y
_atom_site_fract_z
Si Si1 0.931514 0.776415 0.179692
Si Si2 0.646515 0.881718 0.990479
Si Si3 0.256768 0.711791 0.692864
Si Si4 0.795663 0.479075 0.516237
Si Si5 0.295951 0.436713 0.616313
O O1 0.799607 0.682627 0.151504
O O2 0.047328 0.661489 0.207614
O O3 0.032699 0.879090 0.140493
O O4 0.854033 0.883950 0.223739
O O5 0.572570 0.787548 0.941275
O O6 0.626834 0.058640 0.981057
O O7 0.813110 0.813110 0.000000
O O8 0.336511 0.663490 0.750000
O O9 0.080112 0.710164 0.711901
O O10 0.303259 0.887887 0.688121
O O11 0.287885 0.599412 0.644842
#
# Coordination Sequence:
#
# PCOD9550949 Si02
#       5
#     8   8   8   8   8
#     4  11  22  41  64  95 131 170 220 281 322 409
#     4  10  22  39  63  93 130 172 216 275 329 394
#     4   8  20  39  63  88 128 165 220 270 328 395
#     4   9  20  41  61  89 130 167 210 279 324 382
#     4  11  22  39  64  93 131 174 221 267 345 395
#
# _framework density 20.683654000000001
#
# number of rings (size 3 to 8) (size 9 to 14) (size 15 to 20)
#    1.200    0.800    2.000    1.200    8.400    1.600 
#    0.000   14.000    0.000    0.000    0.000    0.000 
#    0.000    0.000    0.000    0.000    0.000    0.000 
#
# Total GULP energy -222960.669654 kJ/mol
# GULP energy per Si atom -5574.016741 kJ/mol
# Density = 2.063658 g / cm^3
# Si number density = 20.683654 Si / 1000 Ang^3
#
#
#
# Elastic Constant Matrix: (Units=GPa)
#
#
# Indices 1 2 3 4 5 6 
#
# 1 80.0085 51.2846 2.6396 0.0000 0.0000 0.0000
# 2 51.2846 80.0087 2.6396 0.0000 0.0000 0.0000
# 3 2.6396 2.6396 29.5494 0.0000 0.0000 0.0000
# 4 0.0000 0.0000 0.0000 22.6042 0.0000 0.0000
# 5 0.0000 0.0000 0.0000 0.0000 22.6042 0.0000
# 6 0.0000 0.0000 0.0000 0.0000 0.0000 32.6859
#
#
#
# Elastic Compliance Matrix: (Units=1/GPa)
#
#
# Indices 1 2 3 4 5 6 
#
# 1 0.021229 -0.013585 -0.000683 0.000000 0.000000 0.000000
# 2 -0.013585 0.021229 -0.000683 0.000000 0.000000 0.000000
# 3 -0.000683 -0.000683 0.033964 0.000000 0.000000 0.000000
# 4 0.000000 0.000000 0.000000 0.044240 0.000000 0.000000
# 5 0.000000 0.000000 0.000000 0.000000 0.044240 0.000000
# 6 0.000000 0.000000 0.000000 0.000000 0.000000 0.030594
#
#
# Mechanical properties :
#
#
# Convention : Reuss Voigt Hill
#
# Bulk Modulus (GPa) = 21.49599 33.63267 27.56433
# Shear Modulus (GPa) = 20.75522 24.44571 22.60046
#
# Velocity S-wave (km/s) = 3.17118 3.44159 3.30915
# Velocity P-wave (km/s) = 4.88096 5.66467 5.28736
#
# Compressibility (1/GPa) = 0.04652030
#
# Stress axis : x y z
#
# Youngs Moduli (GPa) = 47.10522 47.10533 29.44331
#
# Poissons Ratio (x) = 0.63993 0.02010
# Poissons Ratio (y) = 0.63993 0.02010
# Poissons Ratio (z) = 0.03216 0.03216
#
# Static dielectric constant tensor:
#      x y z
#    x 1.736250 0.000000 0.000000 
#    y 0.000000 1.736250 0.000000 
#    z 0.000000 0.000000 1.773930 
# 
# From -- ./inp_files/4106.got.cif
#   From: 2010.05.17/outbox.cif.g08.bks.cpg/sg96_3_cif.got.tgz:4106.got - 2010.06.03 19:52:08.
