data_PCOD9550462
_publ_section_title
;
Structure prediction by ZEFSAII (Michael W. Deem and Ramdas Pophale) SiO2 
 PCOD9550462
Probable space group: P 43 2 2
;
_chemical_formula_sum "Si O2"
_cell_formula_units_Z 48
_cell_length_a 9.346636
_cell_length_b 9.346636
_cell_length_c 28.741766
_cell_angle_alpha 90.000000
_cell_angle_beta 90.000000
_cell_angle_gamma 90.000000
_cell_volume 2510.869311
_symmetry_space_group_name_H-M "P 43 2 2"
_symmetry_group_IT_number 95
_symmetry_cell_setting 'tetragonal'
loop_
_space_group_symop_operation_xyz
x,y,z
-y,x,3/4+z
-x,-y,1/2+z
y,-x,1/4+z
x,-y,1/2-z
-x,y,-z
y,x,1/4-z
-y,-x,3/4-z
loop_
_atom_site_type_symbol
_atom_site_label
_atom_site_fract_x
_atom_site_fract_y
_atom_site_fract_z
Si Si1 0.782092 0.428827 0.392700
Si Si2 0.463793 0.903520 0.369237
Si Si3 0.695758 0.288260 0.162536
Si Si4 0.140459 0.271883 0.028307
Si Si5 0.331111 0.508429 0.995831
Si Si6 0.017701 0.814674 0.334271
O O1 0.721601 0.278400 0.375000
O O2 0.724430 0.553100 0.357590
O O3 0.724958 0.449059 0.445020
O O4 0.951448 0.451191 0.391660
O O5 0.581273 0.781422 0.372747
O O6 0.355540 0.870186 0.327053
O O7 0.349644 0.927241 0.409650
O O8 0.617517 0.281725 0.212891
O O9 0.846510 0.202615 0.164265
O O10 0.140009 0.103056 0.038157
O O11 0.273491 0.347851 0.004195
O O12 0.000000 0.311157 0.000000
O O13 0.500000 0.510417 0.000000
O O14 0.080407 0.919594 0.375000
#
# Coordination Sequence:
#
# PCOD9550462 Si02
#       6
#     8   8   8   8   8   8
#     4  11  21  37  58  83 117 151 192 244 295 345
#     4   9  20  37  58  79 112 150 191 231 289 351
#     4  10  22  38  60  86 118 154 195 244 298 352
#     4  10  19  37  58  83 111 148 192 237 284 347
#     4  11  22  37  60  87 115 152 199 242 296 357
#     4   9  20  38  59  85 115 151 195 242 287 348
#
# _framework density 19.116883999999999
#
# number of rings (size 3 to 8) (size 9 to 14) (size 15 to 20)
#    0.000    2.000    3.333    0.000    2.333    1.333 
#    3.000    2.500    0.000    0.000    0.000    0.000 
#    0.000    0.000    0.000    0.000    0.000    0.000 
#
# Total GULP energy -267312.924509 kJ/mol
# GULP energy per Si atom -5569.019261 kJ/mol
# Density = 1.907337 g / cm^3
# Si number density = 19.116884 Si / 1000 Ang^3
#
#
#
# Elastic Constant Matrix: (Units=GPa)
#
#
# Indices 1 2 3 4 5 6 
#
# 1 57.0466 11.1530 -5.4232 0.0000 0.0000 0.0000
# 2 11.1530 57.0470 -5.4230 0.0000 0.0000 0.0000
# 3 -5.4232 -5.4230 49.3549 0.0000 0.0000 0.0000
# 4 0.0000 0.0000 0.0000 18.3475 0.0000 0.0000
# 5 0.0000 0.0000 0.0000 0.0000 18.3479 0.0000
# 6 0.0000 0.0000 0.0000 0.0000 0.0000 22.2780
#
#
#
# Elastic Compliance Matrix: (Units=1/GPa)
#
#
# Indices 1 2 3 4 5 6 
#
# 1 0.018357 -0.003433 0.001640 0.000000 0.000000 0.000000
# 2 -0.003433 0.018356 0.001640 0.000000 0.000000 0.000000
# 3 0.001640 0.001640 0.020622 0.000000 0.000000 0.000000
# 4 0.000000 0.000000 0.000000 0.054503 0.000000 0.000000
# 5 0.000000 0.000000 0.000000 0.000000 0.054502 0.000000
# 6 0.000000 0.000000 0.000000 0.000000 0.000000 0.044887
#
#
# Mechanical properties :
#
#
# Convention : Reuss Voigt Hill
#
# Bulk Modulus (GPa) = 17.53522 18.22914 17.88218
# Shear Modulus (GPa) = 21.68788 22.67080 22.17934
#
# Velocity S-wave (km/s) = 3.37187 3.44743 3.40986
# Velocity P-wave (km/s) = 4.93476 5.04011 4.98772
#
# Compressibility (1/GPa) = 0.05702808
#
# Stress axis : x y z
#
# Youngs Moduli (GPa) = 54.47636 54.47681 48.49248
#
# Poissons Ratio (x) = 0.18701 -0.07952
# Poissons Ratio (y) = 0.18701 -0.07951
# Poissons Ratio (z) = -0.08933 -0.08933
#
# Static dielectric constant tensor:
#      x y z
#    x 1.660310 0.000000 0.000000 
#    y 0.000000 1.660310 0.000000 
#    z 0.000000 0.000000 1.713010 
# 
# From -- ./inp_files/7906.got.cif
#   From: 2010.05.17/outbox.cif.g08.bks.cpg/sg95_4_cif.got.tgz:7906.got - 2010.06.03 19:46:49.
