data_PCOD9550119
_publ_section_title
;
Structure prediction by ZEFSAII (Michael W. Deem and Ramdas Pophale) SiO2 
 PCOD9550119
Probable space group: P 42 21 2
;
_chemical_formula_sum "Si O2"
_cell_formula_units_Z 48
_cell_length_a 8.661615
_cell_length_b 8.661615
_cell_length_c 32.257306
_cell_angle_alpha 90.000000
_cell_angle_beta 90.000000
_cell_angle_gamma 90.000000
_cell_volume 2420.058397
_symmetry_space_group_name_H-M "P 42 21 2"
_symmetry_group_IT_number 94
_symmetry_cell_setting 'tetragonal'
loop_
_space_group_symop_operation_xyz
x,y,z
1/2-y,1/2+x,1/2+z
-x,-y,z
1/2+y,1/2-x,1/2+z
1/2+x,1/2-y,1/2-z
1/2-x,1/2+y,1/2-z
y,x,-z
-y,-x,-z
loop_
_atom_site_type_symbol
_atom_site_label
_atom_site_fract_x
_atom_site_fract_y
_atom_site_fract_z
Si Si1 0.247057 0.286970 0.451415
Si Si2 0.000000 0.000000 0.908156
Si Si3 0.141904 0.213290 0.703232
Si Si4 0.751363 0.806723 0.137349
Si Si5 0.500000 0.000000 0.588374
Si Si6 0.212664 0.867111 0.721088
Si Si7 0.682591 0.964119 0.384475
O O1 0.256933 0.256933 0.500000
O O2 0.383264 0.401987 0.436347
O O3 0.266688 0.131283 0.424591
O O4 0.091169 0.376015 0.439168
O O5 0.119442 0.091473 0.879209
O O6 0.221659 0.334269 0.733713
O O7 0.134911 0.271585 0.656132
O O8 0.965355 0.185360 0.717704
O O9 0.221746 0.046276 0.708041
O O10 0.733190 0.802522 0.186727
O O11 0.737372 0.630632 0.121338
O O12 0.619067 0.909817 0.117251
O O13 0.500000 0.000000 0.384981
#
# Coordination Sequence:
#
# PCOD9550119 Si02
#       7
#     8   4   8   8   4   8   8
#     4  11  24  41  67  97 132 170 222 272 337 399
#     4  10  21  40  64  96 130 174 214 274 325 396
#     4  10  24  39  61  90 127 168 216 267 324 378
#     4  10  22  42  66  93 130 173 217 263 330 385
#     4  10  24  42  64  96 132 166 212 280 326 396
#     4  10  23  40  60  92 127 168 218 268 310 394
#     4  11  23  43  69  93 130 178 217 270 334 405
#
# _framework density 19.834233000000001
#
# number of rings (size 3 to 8) (size 9 to 14) (size 15 to 20)
#    0.000    1.667    1.667    1.250    5.833    7.333 
#    0.000    1.667    0.000    0.000    0.000    0.000 
#    0.000    0.000    0.000    0.000    0.000    0.000 
#
# Total GULP energy -268413.289954 kJ/mol
# GULP energy per Si atom -5591.943541 kJ/mol
# Density = 1.978909 g / cm^3
# Si number density = 19.834233 Si / 1000 Ang^3
#
#
#
# Elastic Constant Matrix: (Units=GPa)
#
#
# Indices 1 2 3 4 5 6 
#
# 1 52.8771 14.8892 40.3637 0.0000 0.0000 0.0000
# 2 14.8892 52.8771 40.3637 0.0000 0.0000 0.0000
# 3 40.3637 40.3637 152.0700 0.0000 0.0000 0.0000
# 4 0.0000 0.0000 0.0000 17.7899 0.0000 0.0000
# 5 0.0000 0.0000 0.0000 0.0000 17.7899 0.0000
# 6 0.0000 0.0000 0.0000 0.0000 0.0000 30.6503
#
#
#
# Elastic Compliance Matrix: (Units=1/GPa)
#
#
# Indices 1 2 3 4 5 6 
#
# 1 0.023952 -0.002372 -0.005728 0.000000 0.000000 0.000000
# 2 -0.002372 0.023952 -0.005728 0.000000 0.000000 0.000000
# 3 -0.005728 -0.005728 0.009617 0.000000 0.000000 0.000000
# 4 0.000000 0.000000 0.000000 0.056212 0.000000 0.000000
# 5 0.000000 0.000000 0.000000 0.000000 0.056212 0.000000
# 6 0.000000 0.000000 0.000000 0.000000 0.000000 0.032626
#
#
# Mechanical properties :
#
#
# Convention : Reuss Voigt Hill
#
# Bulk Modulus (GPa) = 33.48406 49.89527 41.68966
# Shear Modulus (GPa) = 20.81757 24.05983 22.43870
#
# Velocity S-wave (km/s) = 3.24323 3.48666 3.36715
# Velocity P-wave (km/s) = 5.56267 6.43582 6.01511
#
# Compressibility (1/GPa) = 0.02986496
#
# Stress axis : x y z
#
# Youngs Moduli (GPa) = 41.74992 41.74992 103.98627
#
# Poissons Ratio (x) = 0.09903 0.59563
# Poissons Ratio (y) = 0.09903 0.59563
# Poissons Ratio (z) = 0.23914 0.23914
#
# Static dielectric constant tensor:
#      x y z
#    x 1.704740 0.000000 0.000000 
#    y 0.000000 1.704740 0.000000 
#    z 0.000000 0.000000 1.647350 
# 
# From -- ./inp_files/5663.got.cif
#   From: 2010.05.17/outbox.cif.g08.bks.cpg/sg94_3_cif.got.tgz:5663.got - 2010.06.03 19:43:16.
