data_PCOD9550539
_publ_section_title
;
Structure prediction by ZEFSAII (Michael W. Deem and Ramdas Pophale) SiO2 
 PCOD9550539
Probable space group: P 43 2 2
;
_chemical_formula_sum "Si O2"
_cell_formula_units_Z 24
_cell_length_a 8.815972
_cell_length_b 8.815972
_cell_length_c 11.509416
_cell_angle_alpha 90.000000
_cell_angle_beta 90.000000
_cell_angle_gamma 90.000000
_cell_volume 894.527491
_symmetry_space_group_name_H-M "P 43 2 2"
_symmetry_group_IT_number 95
_symmetry_cell_setting 'tetragonal'
loop_
_space_group_symop_operation_xyz
x,y,z
-y,x,3/4+z
-x,-y,1/2+z
y,-x,1/4+z
x,-y,1/2-z
-x,y,-z
y,x,1/4-z
-y,-x,3/4-z
loop_
_atom_site_type_symbol
_atom_site_label
_atom_site_fract_x
_atom_site_fract_y
_atom_site_fract_z
Si Si1 0.164235 0.591586 0.641793
Si Si2 0.672648 0.826242 0.516041
Si Si3 0.952044 0.952044 0.125000
Si Si4 0.351807 0.000000 0.750000
O O1 0.236659 0.500000 0.750000
O O2 0.248786 0.737403 0.592628
O O3 0.129661 0.470917 0.538707
O O4 0.001967 0.650355 0.690921
O O5 0.500000 0.777365 0.500000
O O6 0.753625 0.753625 0.625000
O O7 0.024349 0.000000 0.250000
O O8 0.774439 0.980729 0.148362
#
# Coordination Sequence:
#
# PCOD9550539 Si02
#       4
#     8   8   4   4
#     4  11  25  48  89 123 179 226 302 386 458 550
#     4  11  24  49  85 127 169 235 296 371 457 549
#     4   8  20  42  82 124 184 244 308 384 482 562
#     4  10  20  44  82 122 176 232 310 386 464 560
#
# _framework density 26.829806999999999
#
# number of rings (size 3 to 8) (size 9 to 14) (size 15 to 20)
#    1.000    0.667    3.333    0.000    0.000    6.667 
#    3.000    0.000   18.333   32.000    0.000    0.000 
#    0.000    0.000    0.000    0.000    0.000    0.000 
#
# Total GULP energy -133764.458476 kJ/mol
# GULP energy per Si atom -5573.519103 kJ/mol
# Density = 2.676874 g / cm^3
# Si number density = 26.829807 Si / 1000 Ang^3
#
#
#
# Elastic Constant Matrix: (Units=GPa)
#
#
# Indices 1 2 3 4 5 6 
#
# 1 22.0816 227.5959 63.5398 0.0000 0.0000 0.0000
# 2 227.5959 22.0816 63.5398 0.0000 0.0000 0.0000
# 3 63.5398 63.5398 163.2081 0.0000 0.0000 0.0000
# 4 0.0000 0.0000 0.0000 53.5511 0.0000 0.0000
# 5 0.0000 0.0000 0.0000 0.0000 53.5511 0.0000
# 6 0.0000 0.0000 0.0000 0.0000 0.0000 -5.0728
#
#
#
# Elastic Compliance Matrix: (Units=1/GPa)
#
#
# Indices 1 2 3 4 5 6 
#
# 1 0.000065 0.004930 -0.001945 0.000000 0.000000 0.000000
# 2 0.004930 0.000065 -0.001945 0.000000 0.000000 0.000000
# 3 -0.001945 -0.001945 0.007641 0.000000 0.000000 0.000000
# 4 0.000000 0.000000 0.000000 0.018674 0.000000 0.000000
# 5 0.000000 0.000000 0.000000 0.000000 0.018674 0.000000
# 6 0.000000 0.000000 0.000000 0.000000 0.000000 -0.197129
#
#
# Mechanical properties :
#
#
# Convention : Reuss Voigt Hill
#
# Bulk Modulus (GPa) = 101.49512 101.85805 101.67658
# Shear Modulus (GPa) = -33.15448 10.58561 -11.28443
#
# Velocity S-wave (km/s) = -3.51911 1.98847 -2.05306
# Velocity P-wave (km/s) = 4.62592 6.58171 5.68850
#
# Compressibility (1/GPa) = 0.00985269
#
# Stress axis : x y z
#
# Youngs Moduli (GPa) = 15493.89960 15493.89960 130.86797
#
# Poissons Ratio (x) = -76.39087 0.25449
# Poissons Ratio (y) = -76.39087 0.25449
# Poissons Ratio (z) = 30.12963 30.12963
#
# Static dielectric constant tensor:
#      x y z
#    x 2.375890 0.000000 0.000000 
#    y 0.000000 2.375890 0.000000 
#    z 0.000000 0.000000 2.590720 
# 
# From -- ./inp_files/1866.got.cif
#   From: 2010.05.17/outbox.cif.g08.bks.cpg/sg95_1_cif.got.tgz:1866.got - 2010.06.03 19:46:49.
