data_PCOD9550813
_publ_section_title
;
Structure prediction by ZEFSAII (Michael W. Deem and Ramdas Pophale) SiO2 
 PCOD9550813
Probable space group: P 43 21 2
;
_chemical_formula_sum "Si O2"
_cell_formula_units_Z 40
_cell_length_a 13.912876
_cell_length_b 13.912876
_cell_length_c 10.257004
_cell_angle_alpha 90.000000
_cell_angle_beta 90.000000
_cell_angle_gamma 90.000000
_cell_volume 1985.428967
_symmetry_space_group_name_H-M "P 43 21 2"
_symmetry_group_IT_number 96
_symmetry_cell_setting 'tetragonal'
loop_
_space_group_symop_operation_xyz
x,y,z
1/2-y,1/2+x,3/4+z
-x,-y,1/2+z
1/2+y,1/2-x,1/4+z
1/2+x,1/2-y,1/4-z
1/2-x,1/2+y,3/4-z
y,x,-z
-y,-x,1/2-z
loop_
_atom_site_type_symbol
_atom_site_label
_atom_site_fract_x
_atom_site_fract_y
_atom_site_fract_z
Si Si1 0.463032 0.739061 0.908570
Si Si2 0.258963 0.233638 0.763286
Si Si3 0.239549 0.025195 0.859260
Si Si4 0.443554 0.954734 0.859422
Si Si5 0.834269 0.165732 0.750000
Si Si6 0.646334 0.646334 0.500000
O O1 0.357670 0.735751 0.973338
O O2 0.453664 0.707154 0.756970
O O3 0.486956 0.852402 0.897965
O O4 0.552353 0.686269 0.975906
O O5 0.278516 0.121367 0.792312
O O6 0.295586 0.276566 0.626858
O O7 0.313605 0.293460 0.876526
O O8 0.329281 0.952367 0.869808
O O9 0.163375 0.965994 0.776866
O O10 0.469384 0.979278 0.713086
#
# Coordination Sequence:
#
# PCOD9550813 Si02
#       6
#     8   8   8   8   4   4
#     4  11  22  46  65  91 143 186 220 288 363 401
#     4  12  24  45  69  99 140 182 233 287 347 423
#     4  11  22  40  70  98 130 182 234 285 337 421
#     4  10  20  36  60  93 123 168 220 272 340 395
#     4  12  28  43  70 107 146 182 234 304 354 424
#     4  12  20  43  68  95 128 180 230 268 346 422
#
# _framework density 20.146781000000001
#
# number of rings (size 3 to 8) (size 9 to 14) (size 15 to 20)
#    0.000    0.800    6.000    2.400    2.800    2.400 
#    0.000    0.000    0.000    0.000    0.000    0.000 
#    0.000    0.000    0.000    0.000    0.000    0.000 
#
# Total GULP energy -223225.723311 kJ/mol
# GULP energy per Si atom -5580.643083 kJ/mol
# Density = 2.010093 g / cm^3
# Si number density = 20.146781 Si / 1000 Ang^3
#
#
#
# Elastic Constant Matrix: (Units=GPa)
#
#
# Indices 1 2 3 4 5 6 
#
# 1 69.9517 -4.7381 17.4336 0.0000 0.0000 0.0000
# 2 -4.7381 69.9511 17.4332 0.0000 0.0000 0.0000
# 3 17.4336 17.4332 119.2149 0.0000 0.0000 0.0000
# 4 0.0000 0.0000 0.0000 27.0972 0.0000 0.0000
# 5 0.0000 0.0000 0.0000 0.0000 27.0974 0.0000
# 6 0.0000 0.0000 0.0000 0.0000 0.0000 27.2247
#
#
#
# Elastic Compliance Matrix: (Units=1/GPa)
#
#
# Indices 1 2 3 4 5 6 
#
# 1 0.015012 0.001623 -0.002433 0.000000 0.000000 0.000000
# 2 0.001623 0.015012 -0.002433 0.000000 0.000000 0.000000
# 3 -0.002433 -0.002433 0.009100 0.000000 0.000000 0.000000
# 4 0.000000 0.000000 0.000000 0.036904 0.000000 0.000000
# 5 0.000000 0.000000 0.000000 0.000000 0.036904 0.000000
# 6 0.000000 0.000000 0.000000 0.000000 0.000000 0.036731
#
#
# Mechanical properties :
#
#
# Convention : Reuss Voigt Hill
#
# Bulk Modulus (GPa) = 30.63813 35.48612 33.06213
# Shear Modulus (GPa) = 29.93532 31.54979 30.74256
#
# Velocity S-wave (km/s) = 3.85887 3.96156 3.91055
# Velocity P-wave (km/s) = 5.92410 6.21106 6.06928
#
# Compressibility (1/GPa) = 0.03263906
#
# Stress axis : x y z
#
# Youngs Moduli (GPa) = 66.61436 66.61388 109.89398
#
# Poissons Ratio (x) = -0.10812 0.26733
# Poissons Ratio (y) = -0.10812 0.26733
# Poissons Ratio (z) = 0.16205 0.16204
#
# Static dielectric constant tensor:
#      x y z
#    x 1.764940 0.000000 0.000000 
#    y 0.000000 1.764940 0.000000 
#    z 0.000000 0.000000 1.710280 
# 
# From -- ./inp_files/1364.got.cif
#   From: 2010.05.17/outbox.cif.g08.bks.cpg/sg96_1_cif.got.tgz:1364.got - 2010.06.03 19:52:08.
