data_PCOD9550930
_publ_section_title
;
Structure prediction by ZEFSAII (Michael W. Deem and Ramdas Pophale) SiO2 
 PCOD9550930
Probable space group: P 43 21 2
;
_chemical_formula_sum "Si O2"
_cell_formula_units_Z 40
_cell_length_a 10.164423
_cell_length_b 10.164423
_cell_length_c 16.431615
_cell_angle_alpha 90.000000
_cell_angle_beta 90.000000
_cell_angle_gamma 90.000000
_cell_volume 1697.640436
_symmetry_space_group_name_H-M "P 43 21 2"
_symmetry_group_IT_number 96
_symmetry_cell_setting 'tetragonal'
loop_
_space_group_symop_operation_xyz
x,y,z
1/2-y,1/2+x,3/4+z
-x,-y,1/2+z
1/2+y,1/2-x,1/4+z
1/2+x,1/2-y,1/4-z
1/2-x,1/2+y,3/4-z
y,x,-z
-y,-x,1/2-z
loop_
_atom_site_type_symbol
_atom_site_label
_atom_site_fract_x
_atom_site_fract_y
_atom_site_fract_z
Si Si1 0.482430 0.803979 0.480209
Si Si2 0.879675 0.103418 0.866220
Si Si3 0.774739 0.342535 0.942785
Si Si4 0.081642 0.081642 0.000000
Si Si5 0.342415 0.991070 0.917030
Si Si6 0.035609 0.964392 0.750000
O O1 0.331128 0.763370 0.478358
O O2 0.537368 0.824291 0.571532
O O3 0.539981 0.666230 0.447760
O O4 0.526976 0.921084 0.424411
O O5 0.830271 0.253381 0.867694
O O6 0.943390 0.082158 0.953466
O O7 0.784955 0.981822 0.839856
O O8 0.009913 0.085191 0.809991
O O9 0.877340 0.361486 0.016103
O O10 0.215337 0.075233 0.946972
#
# Coordination Sequence:
#
# PCOD9550930 Si02
#       6
#     8   8   8   4   8   4
#     4  11  25  42  70  99 133 175 233 286 343 409
#     4  10  22  44  64 100 136 182 226 284 344 422
#     4  10  26  43  65 102 140 180 232 276 360 407
#     4  10  21  43  70  94 130 176 227 282 345 410
#     4  11  25  42  70  99 133 175 233 286 343 409
#     4  10  21  43  70  94 130 176 227 282 345 410
#
# _framework density 23.562118000000002
#
# number of rings (size 3 to 8) (size 9 to 14) (size 15 to 20)
#    0.000    1.600    2.000    0.600    8.400    4.000 
#    0.000    0.000    0.000    0.000    0.000    0.000 
#    0.000    0.000    0.000    0.000    0.000    0.000 
#
# Total GULP energy -222759.021477 kJ/mol
# GULP energy per Si atom -5568.975537 kJ/mol
# Density = 2.350849 g / cm^3
# Si number density = 23.562118 Si / 1000 Ang^3
#
#
#
# Elastic Constant Matrix: (Units=GPa)
#
#
# Indices 1 2 3 4 5 6 
#
# 1 57.2253 32.1802 -1.8996 0.0000 0.0000 0.0000
# 2 32.1802 57.2258 -1.8993 0.0000 0.0000 0.0000
# 3 -1.8996 -1.8993 42.5403 0.0000 0.0000 0.0000
# 4 0.0000 0.0000 0.0000 29.4915 0.0000 0.0000
# 5 0.0000 0.0000 0.0000 0.0000 29.4914 0.0000
# 6 0.0000 0.0000 0.0000 0.0000 0.0000 44.4274
#
#
#
# Elastic Compliance Matrix: (Units=1/GPa)
#
#
# Indices 1 2 3 4 5 6 
#
# 1 0.025567 -0.014361 0.000500 0.000000 0.000000 0.000000
# 2 -0.014361 0.025567 0.000500 0.000000 0.000000 0.000000
# 3 0.000500 0.000500 0.023552 0.000000 0.000000 0.000000
# 4 0.000000 0.000000 0.000000 0.033908 0.000000 0.000000
# 5 0.000000 0.000000 0.000000 0.000000 0.033908 0.000000
# 6 0.000000 0.000000 0.000000 0.000000 0.000000 0.022509
#
#
# Mechanical properties :
#
#
# Convention : Reuss Voigt Hill
#
# Bulk Modulus (GPa) = 20.84822 23.75043 22.29932
# Shear Modulus (GPa) = 24.07099 29.25606 26.66353
#
# Velocity S-wave (km/s) = 3.19971 3.52754 3.36762
# Velocity P-wave (km/s) = 4.74534 5.16654 4.96042
#
# Compressibility (1/GPa) = 0.04796573
#
# Stress axis : x y z
#
# Youngs Moduli (GPa) = 39.11288 39.11328 42.45961
#
# Poissons Ratio (x) = 0.56169 -0.02125
# Poissons Ratio (y) = 0.56169 -0.02124
# Poissons Ratio (z) = -0.01958 -0.01957
#
# Static dielectric constant tensor:
#      x y z
#    x 1.985430 0.000000 0.000000 
#    y 0.000000 1.985440 0.000000 
#    z 0.000000 0.000000 1.960030 
# 
# From -- ./inp_files/2664.got.cif
#   From: 2010.05.17/outbox.cif.g08.bks.cpg/sg96_2_cif.got.tgz:2664.got - 2010.06.03 19:52:08.
