data_PCOD9550547
_publ_section_title
;
Structure prediction by ZEFSAII (Michael W. Deem and Ramdas Pophale) SiO2 
 PCOD9550547
Probable space group: P 43 2 2
;
_chemical_formula_sum "Si O2"
_cell_formula_units_Z 56
_cell_length_a 12.183372
_cell_length_b 12.183372
_cell_length_c 19.570893
_cell_angle_alpha 90.000000
_cell_angle_beta 90.000000
_cell_angle_gamma 90.000000
_cell_volume 2904.996760
_symmetry_space_group_name_H-M "P 43 2 2"
_symmetry_group_IT_number 95
_symmetry_cell_setting 'tetragonal'
loop_
_space_group_symop_operation_xyz
x,y,z
-y,x,3/4+z
-x,-y,1/2+z
y,-x,1/4+z
x,-y,1/2-z
-x,y,-z
y,x,1/4-z
-y,-x,3/4-z
loop_
_atom_site_type_symbol
_atom_site_label
_atom_site_fract_x
_atom_site_fract_y
_atom_site_fract_z
Si Si1 0.563985 0.368545 0.641759
Si Si2 0.004468 0.587648 0.354265
Si Si3 0.805193 0.717742 0.697744
Si Si4 0.685379 0.500000 0.750000
Si Si5 0.667048 0.162051 0.706844
Si Si6 0.547767 0.885029 0.289620
Si Si7 0.171848 0.500000 0.750000
Si Si8 0.341064 0.634863 0.996212
O O1 0.615659 0.466001 0.684770
O O2 0.638195 0.260559 0.655046
O O3 0.449409 0.345172 0.682041
O O4 0.582388 0.395745 0.562080
O O5 0.951194 0.652165 0.417810
O O6 0.907009 0.535233 0.311211
O O7 0.071717 0.677551 0.312825
O O8 0.080390 0.488674 0.383898
O O9 0.754195 0.754195 0.625000
O O10 0.749259 0.608271 0.727590
O O11 0.776993 0.811715 0.752412
O O12 0.566699 0.163258 0.760426
O O13 0.630923 0.784851 0.274654
O O14 0.574126 0.000000 0.250000
O O15 0.248480 0.396787 0.728092
#
# Coordination Sequence:
#
# PCOD9550547 Si02
#       8
#     8   8   8   4   8   8   4   8
#     4  10  21  36  57  84 127 175 203 252 309 396
#     4  11  21  40  60  87 131 161 221 259 327 387
#     4  11  21  35  60  91 120 160 206 261 324 383
#     4  10  22  30  50  88 126 150 196 244 308 380
#     4   9  19  38  58  88 121 160 207 257 317 374
#     4   9  19  38  67  92 121 172 217 263 313 395
#     4  12  26  40  58  94 136 178 208 278 322 420
#     4  11  23  41  60  92 134 177 221 258 338 400
#
# _framework density 19.27713
#
# number of rings (size 3 to 8) (size 9 to 14) (size 15 to 20)
#    0.000    1.714    2.857    1.714    4.000    2.857 
#    0.000    0.000    0.000    0.000    3.714    0.000 
#    0.000    0.000    0.000    0.000    0.000    0.000 
#
# Total GULP energy -312131.453178 kJ/mol
# GULP energy per Si atom -5573.775950 kJ/mol
# Density = 1.923325 g / cm^3
# Si number density = 19.277130 Si / 1000 Ang^3
#
#
#
# Elastic Constant Matrix: (Units=GPa)
#
#
# Indices 1 2 3 4 5 6 
#
# 1 84.2516 40.8648 28.3994 0.0000 0.0000 0.0000
# 2 40.8648 84.2516 28.3994 0.0000 0.0000 0.0000
# 3 28.3994 28.3994 102.9908 0.0000 0.0000 0.0000
# 4 0.0000 0.0000 0.0000 30.3370 0.0000 0.0000
# 5 0.0000 0.0000 0.0000 0.0000 30.3370 0.0000
# 6 0.0000 0.0000 0.0000 0.0000 0.0000 22.5116
#
#
#
# Elastic Compliance Matrix: (Units=1/GPa)
#
#
# Indices 1 2 3 4 5 6 
#
# 1 0.016092 -0.006956 -0.002519 0.000000 0.000000 0.000000
# 2 -0.006956 0.016092 -0.002519 0.000000 0.000000 0.000000
# 3 -0.002519 -0.002519 0.011099 0.000000 0.000000 0.000000
# 4 0.000000 0.000000 0.000000 0.032963 0.000000 0.000000
# 5 0.000000 0.000000 0.000000 0.000000 0.032963 0.000000
# 6 0.000000 0.000000 0.000000 0.000000 0.000000 0.044422
#
#
# Mechanical properties :
#
#
# Convention : Reuss Voigt Hill
#
# Bulk Modulus (GPa) = 51.82883 51.86904 51.84894
# Shear Modulus (GPa) = 27.16620 28.22581 27.69601
#
# Velocity S-wave (km/s) = 3.75806 3.83065 3.79453
# Velocity P-wave (km/s) = 6.76574 6.82134 6.79360
#
# Compressibility (1/GPa) = 0.01929428
#
# Stress axis : x y z
#
# Youngs Moduli (GPa) = 62.14121 62.14121 90.09836
#
# Poissons Ratio (x) = 0.43226 0.22698
# Poissons Ratio (y) = 0.43226 0.22698
# Poissons Ratio (z) = 0.15655 0.15655
#
# Static dielectric constant tensor:
#      x y z
#    x 1.704110 0.000000 0.000000 
#    y 0.000000 1.704110 0.000000 
#    z 0.000000 0.000000 1.787960 
# 
# From -- ./inp_files/6484.got.cif
#   From: 2010.05.17/outbox.cif.g08.bks.cpg/sg95_4_cif.got.tgz:6484.got - 2010.06.03 19:46:49.
