data_PCOD9550333
_publ_section_title
;
Structure prediction by ZEFSAII (Michael W. Deem and Ramdas Pophale) SiO2 
 PCOD9550333
Probable space group: P 42 21 2
;
_chemical_formula_sum "Si O2"
_cell_formula_units_Z 32
_cell_length_a 8.993099
_cell_length_b 8.993099
_cell_length_c 17.865837
_cell_angle_alpha 90.000000
_cell_angle_beta 90.000000
_cell_angle_gamma 90.000000
_cell_volume 1444.914389
_symmetry_space_group_name_H-M "P 42 21 2"
_symmetry_group_IT_number 94
_symmetry_cell_setting 'tetragonal'
loop_
_space_group_symop_operation_xyz
x,y,z
1/2-y,1/2+x,1/2+z
-x,-y,z
1/2+y,1/2-x,1/2+z
1/2+x,1/2-y,1/2-z
1/2-x,1/2+y,1/2-z
y,x,-z
-y,-x,-z
loop_
_atom_site_type_symbol
_atom_site_label
_atom_site_fract_x
_atom_site_fract_y
_atom_site_fract_z
Si Si1 0.533494 0.170225 0.434607
Si Si2 0.670500 0.678440 0.670358
Si Si3 0.127401 0.302106 0.893726
Si Si4 0.025123 0.165403 0.315654
O O1 0.400617 0.273666 0.405239
O O2 0.679873 0.241380 0.397245
O O3 0.561431 0.179126 0.523138
O O4 0.500000 0.000000 0.413059
O O5 0.507752 0.746825 0.657614
O O6 0.667326 0.558841 0.736453
O O7 0.788704 0.804606 0.691500
O O8 0.206527 0.450683 0.865913
O O9 0.000000 0.000000 0.347785
#
# Coordination Sequence:
#
# PCOD9550333 Si02
#       4
#     8   8   8   8
#     4  11  23  43  68  97 133 175 225 278 336 402
#     4  12  24  42  68  96 133 178 227 280 339 404
#     4  11  25  44  67  98 135 177 225 276 337 409
#     4  12  25  42  66  99 136 176 224 280 342 402
#
# _framework density 22.146643000000001
#
# number of rings (size 3 to 8) (size 9 to 14) (size 15 to 20)
#    0.000    0.500    0.000    9.750    0.000    4.000 
#    0.000    7.500    0.000    0.000    0.000    0.000 
#    0.000    0.000    0.000    0.000    0.000    0.000 
#
# Total GULP energy -179275.669659 kJ/mol
# GULP energy per Si atom -5602.364677 kJ/mol
# Density = 2.209624 g / cm^3
# Si number density = 22.146643 Si / 1000 Ang^3
#
#
#
# Elastic Constant Matrix: (Units=GPa)
#
#
# Indices 1 2 3 4 5 6 
#
# 1 106.5913 29.3526 19.2387 0.0000 0.0000 0.0000
# 2 29.3526 106.5913 19.2387 0.0000 0.0000 0.0000
# 3 19.2387 19.2387 74.8014 0.0000 0.0000 0.0000
# 4 0.0000 0.0000 0.0000 29.5947 0.0000 0.0000
# 5 0.0000 0.0000 0.0000 0.0000 29.5947 0.0000
# 6 0.0000 0.0000 0.0000 0.0000 0.0000 51.5481
#
#
#
# Elastic Compliance Matrix: (Units=1/GPa)
#
#
# Indices 1 2 3 4 5 6 
#
# 1 0.010440 -0.002507 -0.002040 0.000000 0.000000 0.000000
# 2 -0.002507 0.010440 -0.002040 0.000000 0.000000 0.000000
# 3 -0.002040 -0.002040 0.014418 0.000000 0.000000 0.000000
# 4 0.000000 0.000000 0.000000 0.033790 0.000000 0.000000
# 5 0.000000 0.000000 0.000000 0.000000 0.033790 0.000000
# 6 0.000000 0.000000 0.000000 0.000000 0.000000 0.019399
#
#
# Mechanical properties :
#
#
# Convention : Reuss Voigt Hill
#
# Bulk Modulus (GPa) = 45.20092 47.07159 46.13625
# Shear Modulus (GPa) = 35.00726 36.82442 35.91584
#
# Velocity S-wave (km/s) = 3.98012 4.08211 4.03144
# Velocity P-wave (km/s) = 6.44794 6.59688 6.52284
#
# Compressibility (1/GPa) = 0.02212344
#
# Stress axis : x y z
#
# Youngs Moduli (GPa) = 95.78366 95.78366 69.35606
#
# Poissons Ratio (x) = 0.24010 0.14152
# Poissons Ratio (y) = 0.24010 0.14152
# Poissons Ratio (z) = 0.19544 0.19544
#
# Static dielectric constant tensor:
#      x y z
#    x 1.799150 0.000000 0.000000 
#    y 0.000000 1.799150 0.000000 
#    z 0.000000 0.000000 1.796720 
# 
# From -- ./inp_files/4394.got.cif
#   From: 2010.05.17/outbox.cif.g08.bks.cpg/sg94_3_cif.got.tgz:4394.got - 2010.06.03 19:43:16.
