data_PCOD9550780
_publ_section_title
;
Structure prediction by ZEFSAII (Michael W. Deem and Ramdas Pophale) SiO2 
 PCOD9550780
Probable space group: P 43 21 2
;
_chemical_formula_sum "Si O2"
_cell_formula_units_Z 60
_cell_length_a 10.898014
_cell_length_b 10.898014
_cell_length_c 23.988400
_cell_angle_alpha 90.000000
_cell_angle_beta 90.000000
_cell_angle_gamma 90.000000
_cell_volume 2849.023326
_symmetry_space_group_name_H-M "P 43 21 2"
_symmetry_group_IT_number 96
_symmetry_cell_setting 'tetragonal'
loop_
_space_group_symop_operation_xyz
x,y,z
1/2-y,1/2+x,3/4+z
-x,-y,1/2+z
1/2+y,1/2-x,1/4+z
1/2+x,1/2-y,1/4-z
1/2-x,1/2+y,3/4-z
y,x,-z
-y,-x,1/2-z
loop_
_atom_site_type_symbol
_atom_site_label
_atom_site_fract_x
_atom_site_fract_y
_atom_site_fract_z
Si Si1 0.522134 0.477867 0.750000
Si Si2 0.049984 0.363596 0.354399
Si Si3 0.187651 0.400186 0.776113
Si Si4 0.212555 0.018882 0.076132
Si Si5 0.425221 0.789432 0.279347
Si Si6 0.143975 0.422186 0.573116
Si Si7 0.403300 0.762097 0.632923
Si Si8 0.194364 0.635892 0.987481
O O1 0.514361 0.585367 0.795316
O O2 0.523681 0.347463 0.779599
O O3 0.119982 0.317763 0.409115
O O4 0.085145 0.507214 0.348877
O O5 0.084116 0.288527 0.299128
O O6 0.901989 0.355935 0.360528
O O7 0.191501 0.493061 0.723677
O O8 0.242622 0.475917 0.828370
O O9 0.262142 0.277075 0.763219
O O10 0.051600 0.358220 0.790790
O O11 0.192243 0.158592 0.096403
O O12 0.256034 0.936715 0.128185
O O13 0.346629 0.818525 0.224166
O O14 0.547730 0.871926 0.271288
O O15 0.425753 0.744924 0.566871
#
# Coordination Sequence:
#
# PCOD9550780 Si02
#       8
#     4   8   8   8   8   8   8   8
#     4  12  24  40  66  88 130 180 214 264 340 400
#     4   9  21  39  65  93 127 174 211 272 331 401
#     4  11  20  36  63  93 128 174 206 279 327 393
#     4  12  21  38  65 101 128 175 222 273 339 401
#     4  10  21  42  60  92 126 171 218 262 331 400
#     4  10  22  38  67  97 126 165 223 276 322 395
#     4  10  20  36  59  98 129 164 221 273 328 400
#     4  10  19  39  63  90 129 166 215 266 332 393
#
# _framework density 21.059850000000001
#
# number of rings (size 3 to 8) (size 9 to 14) (size 15 to 20)
#    0.000    1.600    4.000    0.800    0.000    4.267 
#    2.400    0.000    0.000    0.000    0.000    0.000 
#    0.000    0.000    0.000    0.000    0.000    0.000 
#
# Total GULP energy -334724.783755 kJ/mol
# GULP energy per Si atom -5578.746396 kJ/mol
# Density = 2.101192 g / cm^3
# Si number density = 21.059850 Si / 1000 Ang^3
#
#
#
# Elastic Constant Matrix: (Units=GPa)
#
#
# Indices 1 2 3 4 5 6 
#
# 1 68.0856 24.4928 55.9048 0.0000 0.0000 0.0000
# 2 24.4928 68.0860 55.9048 0.0000 0.0000 0.0000
# 3 55.9048 55.9048 191.8238 0.0000 0.0000 0.0000
# 4 0.0000 0.0000 0.0000 32.6631 0.0000 0.0000
# 5 0.0000 0.0000 0.0000 0.0000 32.6630 0.0000
# 6 0.0000 0.0000 0.0000 0.0000 0.0000 21.8885
#
#
#
# Elastic Compliance Matrix: (Units=1/GPa)
#
#
# Indices 1 2 3 4 5 6 
#
# 1 0.019804 -0.003135 -0.004858 0.000000 0.000000 0.000000
# 2 -0.003135 0.019804 -0.004858 0.000000 0.000000 0.000000
# 3 -0.004858 -0.004858 0.008045 0.000000 0.000000 0.000000
# 4 0.000000 0.000000 0.000000 0.030616 0.000000 0.000000
# 5 0.000000 0.000000 0.000000 0.000000 0.030616 0.000000
# 6 0.000000 0.000000 0.000000 0.000000 0.000000 0.045686
#
#
# Mechanical properties :
#
#
# Convention : Reuss Voigt Hill
#
# Bulk Modulus (GPa) = 45.55728 66.73337 56.14532
# Shear Modulus (GPa) = 26.65398 30.22244 28.43821
#
# Velocity S-wave (km/s) = 3.56143 3.79235 3.67870
# Velocity P-wave (km/s) = 6.21216 7.13668 6.69041
#
# Compressibility (1/GPa) = 0.02195039
#
# Stress axis : x y z
#
# Youngs Moduli (GPa) = 50.49455 50.49496 124.30612
#
# Poissons Ratio (x) = 0.15832 0.60387
# Poissons Ratio (y) = 0.15832 0.60386
# Poissons Ratio (z) = 0.24530 0.24530
#
# Static dielectric constant tensor:
#      x y z
#    x 1.779210 0.000000 0.000000 
#    y 0.000000 1.779210 0.000000 
#    z 0.000000 0.000000 1.808730 
# 
# From -- ./inp_files/3644.got.cif
#   From: 2010.05.17/outbox.cif.g08.bks.cpg/sg96_2_cif.got.tgz:3644.got - 2010.06.03 19:52:08.
