data_PCOD9550679
_publ_section_title
;
Structure prediction by ZEFSAII (Michael W. Deem and Ramdas Pophale) SiO2 
 PCOD9550679
Probable space group: P 43 2 2
;
_chemical_formula_sum "Si O2"
_cell_formula_units_Z 32
_cell_length_a 8.524084
_cell_length_b 8.524084
_cell_length_c 18.768300
_cell_angle_alpha 90.000000
_cell_angle_beta 90.000000
_cell_angle_gamma 90.000000
_cell_volume 1363.704829
_symmetry_space_group_name_H-M "P 43 2 2"
_symmetry_group_IT_number 95
_symmetry_cell_setting 'tetragonal'
loop_
_space_group_symop_operation_xyz
x,y,z
-y,x,3/4+z
-x,-y,1/2+z
y,-x,1/4+z
x,-y,1/2-z
-x,y,-z
y,x,1/4-z
-y,-x,3/4-z
loop_
_atom_site_type_symbol
_atom_site_label
_atom_site_fract_x
_atom_site_fract_y
_atom_site_fract_z
Si Si1 0.177122 0.177122 0.625000
Si Si2 0.803828 0.450234 0.124533
Si Si3 0.004791 0.000000 0.250000
Si Si4 0.431152 0.431152 0.125000
Si Si5 0.245147 0.754880 0.496290
Si Si6 0.015092 0.500000 0.250000
O O1 0.161915 0.364962 0.617215
O O2 0.095340 0.097579 0.556838
O O3 0.618857 0.416754 0.134847
O O4 0.840457 0.353923 0.053743
O O5 0.905857 0.410812 0.193692
O O6 0.124255 0.122510 0.212910
O O7 0.349564 0.345554 0.191876
O O8 0.372571 0.868820 0.534385
#
# Coordination Sequence:
#
# PCOD9550679 Si02
#       6
#     4   8   4   4   8   4
#     4  11  27  50  74 110 159 209 266 318 402 479
#     4  11  27  47  78 111 154 212 259 327 396 477
#     4  12  28  48  76 112 162 204 252 338 392 458
#     4  11  25  48  78 108 155 205 272 320 392 487
#     4  12  27  48  77 115 156 206 264 331 394 477
#     4  12  26  48  72 116 156 196 262 326 396 482
#
# _framework density 23.465489000000002
#
# number of rings (size 3 to 8) (size 9 to 14) (size 15 to 20)
#    0.000    0.500    5.000    0.750   14.000    1.000 
#    0.000    0.000    0.000    0.000    0.000    0.000 
#    0.000    0.000    0.000    0.000    0.000    0.000 
#
# Total GULP energy -178836.278335 kJ/mol
# GULP energy per Si atom -5588.633698 kJ/mol
# Density = 2.341208 g / cm^3
# Si number density = 23.465489 Si / 1000 Ang^3
#
#
#
# Elastic Constant Matrix: (Units=GPa)
#
#
# Indices 1 2 3 4 5 6 
#
# 1 145.9411 87.5619 73.0971 0.0000 0.0000 0.0000
# 2 87.5619 145.9411 73.0971 0.0000 0.0000 0.0000
# 3 73.0971 73.0971 147.0810 0.0000 0.0000 0.0000
# 4 0.0000 0.0000 0.0000 21.2224 0.0000 0.0000
# 5 0.0000 0.0000 0.0000 0.0000 21.2224 0.0000
# 6 0.0000 0.0000 0.0000 0.0000 0.0000 57.4792
#
#
#
# Elastic Compliance Matrix: (Units=1/GPa)
#
#
# Indices 1 2 3 4 5 6 
#
# 1 0.011673 -0.005456 -0.003090 0.000000 0.000000 0.000000
# 2 -0.005456 0.011673 -0.003090 0.000000 0.000000 0.000000
# 3 -0.003090 -0.003090 0.009870 0.000000 0.000000 0.000000
# 4 0.000000 0.000000 0.000000 0.047120 0.000000 0.000000
# 5 0.000000 0.000000 0.000000 0.000000 0.047120 0.000000
# 6 0.000000 0.000000 0.000000 0.000000 0.000000 0.017398
#
#
# Mechanical properties :
#
#
# Convention : Reuss Voigt Hill
#
# Bulk Modulus (GPa) = 100.55179 100.71949 100.63564
# Shear Modulus (GPa) = 29.16456 33.66527 31.41491
#
# Velocity S-wave (km/s) = 3.52926 3.79181 3.66289
# Velocity P-wave (km/s) = 7.71696 7.88581 7.80185
#
# Compressibility (1/GPa) = 0.00994512
#
# Stress axis : x y z
#
# Youngs Moduli (GPa) = 85.66603 85.66603 101.31562
#
# Poissons Ratio (x) = 0.46741 0.31305
# Poissons Ratio (y) = 0.46741 0.31305
# Poissons Ratio (z) = 0.26469 0.26469
#
# Static dielectric constant tensor:
#      x y z
#    x 1.914640 0.000000 0.000000 
#    y 0.000000 1.914640 0.000000 
#    z 0.000000 0.000000 1.904820 
# 
# From -- ./inp_files/6178.got.cif
#   From: 2010.05.17/outbox.cif.g08.bks.cpg/sg95_4_cif.got.tgz:6178.got - 2010.06.03 19:46:49.
