data_PCOD9550053
_publ_section_title
;
Structure prediction by ZEFSAII (Michael W. Deem and Ramdas Pophale) SiO2 
 PCOD9550053
Probable space group: P 42 21 2
;
_chemical_formula_sum "Si O2"
_cell_formula_units_Z 60
_cell_length_a 11.610820
_cell_length_b 11.610820
_cell_length_c 22.090489
_cell_angle_alpha 90.000000
_cell_angle_beta 90.000000
_cell_angle_gamma 90.000000
_cell_volume 2978.044029
_symmetry_space_group_name_H-M "P 42 21 2"
_symmetry_group_IT_number 94
_symmetry_cell_setting 'tetragonal'
loop_
_space_group_symop_operation_xyz
x,y,z
1/2-y,1/2+x,1/2+z
-x,-y,z
1/2+y,1/2-x,1/2+z
1/2+x,1/2-y,1/2-z
1/2-x,1/2+y,1/2-z
y,x,-z
-y,-x,-z
loop_
_atom_site_type_symbol
_atom_site_label
_atom_site_fract_x
_atom_site_fract_y
_atom_site_fract_z
Si Si1 0.392786 0.076916 0.300030
Si Si2 0.605735 0.218650 0.922362
Si Si3 0.169158 0.830843 0.000000
Si Si4 0.467301 0.633115 0.135171
Si Si5 0.968209 0.803732 0.797933
Si Si6 0.515552 0.673028 0.273577
Si Si7 0.689914 0.011895 0.074018
Si Si8 0.184373 0.479459 0.955919
O O1 0.361392 0.055501 0.369929
O O2 0.432742 0.208152 0.295405
O O3 0.500000 0.000000 0.279796
O O4 0.282448 0.055160 0.257628
O O5 0.635951 0.338214 0.890202
O O6 0.724627 0.176211 0.952556
O O7 0.517460 0.227668 0.978107
O O8 0.197709 0.944506 0.037813
O O9 0.500000 0.500000 0.136184
O O10 0.483435 0.679763 0.202658
O O11 0.540257 0.709768 0.088939
O O12 0.076558 0.886143 0.783008
O O13 0.989015 0.728135 0.857491
O O14 0.865597 0.896799 0.805564
O O15 0.590376 0.110701 0.068984
O O16 0.628290 0.901165 0.045103
#
# Coordination Sequence:
#
# PCOD9550053 Si02
#       8
#     8   8   4   8   8   8   8   8
#     4  12  28  39  72 102 137 180 227 284 343 415
#     4  11  21  42  60 100 133 173 229 275 344 408
#     4  10  20  38  71  93 122 188 220 284 334 399
#     4  12  21  42  66  95 135 179 219 279 356 408
#     4  11  24  46  67 100 135 187 221 278 352 407
#     4  11  25  45  68 100 144 173 226 288 341 421
#     4  10  21  40  69  94 134 174 237 278 332 410
#     4  10  23  38  67  99 132 177 234 286 329 408
#
# _framework density 20.147452999999999
#
# number of rings (size 3 to 8) (size 9 to 14) (size 15 to 20)
#    0.000    1.067    5.333    1.600    9.333    1.067 
#    2.400    0.000    0.000   12.000    0.000    0.000 
#    0.000    0.000    0.000    0.000    0.000    0.000 
#
# Total GULP energy -335239.178669 kJ/mol
# GULP energy per Si atom -5587.319644 kJ/mol
# Density = 2.010160 g / cm^3
# Si number density = 20.147453 Si / 1000 Ang^3
#
#
#
# Elastic Constant Matrix: (Units=GPa)
#
#
# Indices 1 2 3 4 5 6 
#
# 1 35.4869 -6.3160 1.0918 0.0000 0.0000 0.0000
# 2 -6.3160 35.4866 1.0924 0.0000 0.0000 0.0000
# 3 1.0918 1.0924 73.5081 0.0000 0.0000 0.0000
# 4 0.0000 0.0000 0.0000 -1.6325 0.0000 0.0000
# 5 0.0000 0.0000 0.0000 0.0000 -1.6307 0.0000
# 6 0.0000 0.0000 0.0000 0.0000 0.0000 28.9070
#
#
#
# Elastic Compliance Matrix: (Units=1/GPa)
#
#
# Indices 1 2 3 4 5 6 
#
# 1 0.029120 0.005199 -0.000510 0.000000 0.000000 0.000000
# 2 0.005199 0.029121 -0.000510 0.000000 0.000000 0.000000
# 3 -0.000510 -0.000510 0.013619 0.000000 0.000000 0.000000
# 4 0.000000 0.000000 0.000000 -0.612555 0.000000 0.000000
# 5 0.000000 0.000000 0.000000 0.000000 -0.613250 0.000000
# 6 0.000000 0.000000 0.000000 0.000000 0.000000 0.034594
#
#
# Mechanical properties :
#
#
# Convention : Reuss Voigt Hill
#
# Bulk Modulus (GPa) = 12.46608 15.13534 13.80071
# Shear Modulus (GPa) = -4.54145 15.03633 5.24744
#
# Velocity S-wave (km/s) = -1.50300 2.73484 1.61560
# Velocity P-wave (km/s) = 1.78574 4.18343 3.21636
#
# Compressibility (1/GPa) = 0.08021770
#
# Stress axis : x y z
#
# Youngs Moduli (GPa) = 34.34026 34.33994 73.42632
#
# Poissons Ratio (x) = -0.17852 0.03743
# Poissons Ratio (y) = -0.17852 0.03745
# Poissons Ratio (z) = 0.01751 0.01751
#
# Static dielectric constant tensor:
#      x y z
#    x 1.721310 0.000000 0.000000 
#    y 0.000000 1.721310 0.000000 
#    z 0.000000 0.000000 1.700740 
# 
# From -- ./inp_files/4818.got.cif
#   From: 2010.05.17/outbox.cif.g08.bks.cpg/sg94_3_cif.got.tgz:4818.got - 2010.06.03 19:43:16.
