data_PCOD9550594
_publ_section_title
;
Structure prediction by ZEFSAII (Michael W. Deem and Ramdas Pophale) SiO2 
 PCOD9550594
Probable space group: P 43 2 2
;
_chemical_formula_sum "Si O2"
_cell_formula_units_Z 60
_cell_length_a 18.769585
_cell_length_b 18.769585
_cell_length_c 8.501375
_cell_angle_alpha 90.000000
_cell_angle_beta 90.000000
_cell_angle_gamma 90.000000
_cell_volume 2995.011638
_symmetry_space_group_name_H-M "P 43 2 2"
_symmetry_group_IT_number 95
_symmetry_cell_setting 'tetragonal'
loop_
_space_group_symop_operation_xyz
x,y,z
-y,x,3/4+z
-x,-y,1/2+z
y,-x,1/4+z
x,-y,1/2-z
-x,y,-z
y,x,1/4-z
-y,-x,3/4-z
loop_
_atom_site_type_symbol
_atom_site_label
_atom_site_fract_x
_atom_site_fract_y
_atom_site_fract_z
Si Si1 0.940778 0.129988 0.745637
Si Si2 0.094713 0.822600 0.756419
Si Si3 0.673695 0.920324 0.815849
Si Si4 0.232689 0.319947 0.499826
Si Si5 0.262046 0.843445 0.452370
Si Si6 0.417027 0.187917 0.470865
Si Si7 0.626443 0.668018 0.806136
Si Si8 0.500000 0.410322 0.500000
O O1 0.882422 0.106137 0.623316
O O2 0.906152 0.203364 0.809641
O O3 0.016954 0.153757 0.681607
O O4 0.932872 0.067129 0.875000
O O5 0.092323 0.744990 0.674806
O O6 0.158070 0.841931 0.875000
O O7 0.677565 0.871058 0.661405
O O8 0.607863 0.889678 0.913055
O O9 0.670978 0.000000 0.750000
O O10 0.264217 0.264217 0.625000
O O11 0.177245 0.286261 0.376305
O O12 0.201126 0.379999 0.611118
O O13 0.300204 0.347796 0.399634
O O14 0.225530 0.774471 0.375000
O O15 0.500000 0.195008 0.500000
O O16 0.388783 0.248206 0.346626
O O17 0.641549 0.641549 0.625000
O O18 0.559157 0.631816 0.895633
O O19 0.542893 0.457108 0.375000
#
# Coordination Sequence:
#
# PCOD9550594 Si02
#       8
#     8   8   8   8   8   8   8   4
#     4  11  22  38  60  86 136 172 224 266 332 411
#     4  12  25  39  60  98 129 177 221 278 336 404
#     4  12  24  45  68  91 131 176 226 281 356 422
#     4  10  22  40  68 101 128 165 223 288 339 396
#     4  11  20  37  68  96 125 166 225 281 338 408
#     4  11  25  46  70  99 136 173 222 292 357 405
#     4  11  23  42  71 104 142 186 227 279 341 405
#     4  12  24  42  62 104 154 196 232 264 332 428
#
# _framework density 20.03331
#
# number of rings (size 3 to 8) (size 9 to 14) (size 15 to 20)
#    0.000    0.800    4.667    5.200    1.867    1.600 
#    0.000    4.000    0.000    0.000    0.000    0.000 
#    0.000    0.000    0.000    0.000    0.000    0.000 
#
# Total GULP energy -334617.947261 kJ/mol
# GULP energy per Si atom -5576.965788 kJ/mol
# Density = 1.998771 g / cm^3
# Si number density = 20.033310 Si / 1000 Ang^3
#
#
#
# Elastic Constant Matrix: (Units=GPa)
#
#
# Indices 1 2 3 4 5 6 
#
# 1 53.6053 60.5738 50.2490 0.0000 0.0000 0.0000
# 2 60.5738 53.6060 50.2472 0.0000 0.0000 0.0000
# 3 50.2490 50.2472 128.7894 0.0000 0.0000 0.0000
# 4 0.0000 0.0000 0.0000 16.9307 0.0000 0.0000
# 5 0.0000 0.0000 0.0000 0.0000 16.9296 0.0000
# 6 0.0000 0.0000 0.0000 0.0000 0.0000 22.9897
#
#
#
# Elastic Compliance Matrix: (Units=1/GPa)
#
#
# Indices 1 2 3 4 5 6 
#
# 1 -0.065088 0.078424 -0.005202 0.000000 0.000000 0.000000
# 2 0.078424 -0.065084 -0.005206 0.000000 0.000000 0.000000
# 3 -0.005202 -0.005206 0.011825 0.000000 0.000000 0.000000
# 4 0.000000 0.000000 0.000000 0.059064 0.000000 0.000000
# 5 0.000000 0.000000 0.000000 0.000000 0.059068 0.000000
# 6 0.000000 0.000000 0.000000 0.000000 0.000000 0.043498
#
#
# Mechanical properties :
#
#
# Convention : Reuss Voigt Hill
#
# Bulk Modulus (GPa) = 56.54153 62.01563 59.27858
# Shear Modulus (GPa) = -57.56887 16.36538 -20.60175
#
# Velocity S-wave (km/s) = -5.36647 2.86126 -3.21031
# Velocity P-wave (km/s) = 3.18019 6.47605 3.98909
#
# Compressibility (1/GPa) = 0.01768612
#
# Stress axis : x y z
#
# Youngs Moduli (GPa) = -15.36388 -15.36482 84.56306
#
# Poissons Ratio (x) = 1.20498 0.43993
# Poissons Ratio (y) = 1.20490 0.44023
# Poissons Ratio (z) = -0.07993 -0.07999
#
# Static dielectric constant tensor:
#      x y z
#    x 1.721020 0.000000 0.000000 
#    y 0.000000 1.720930 0.000000 
#    z 0.000000 0.000000 1.760810 
# 
# From -- ./inp_files/2820.got.cif
#   From: 2010.05.17/outbox.cif.g08.bks.cpg/sg95_2_cif.got.tgz:2820.got - 2010.06.03 19:46:49.
