data_PCOD9550206
_publ_section_title
;
Structure prediction by ZEFSAII (Michael W. Deem and Ramdas Pophale) SiO2 
 PCOD9550206
Probable space group: P 42 21 2
;
_chemical_formula_sum "Si O2"
_cell_formula_units_Z 44
_cell_length_a 8.290151
_cell_length_b 8.290151
_cell_length_c 27.675926
_cell_angle_alpha 90.000000
_cell_angle_beta 90.000000
_cell_angle_gamma 90.000000
_cell_volume 1902.072396
_symmetry_space_group_name_H-M "P 42 21 2"
_symmetry_group_IT_number 94
_symmetry_cell_setting 'tetragonal'
loop_
_space_group_symop_operation_xyz
x,y,z
1/2-y,1/2+x,1/2+z
-x,-y,z
1/2+y,1/2-x,1/2+z
1/2+x,1/2-y,1/2-z
1/2-x,1/2+y,1/2-z
y,x,-z
-y,-x,-z
loop_
_atom_site_type_symbol
_atom_site_label
_atom_site_fract_x
_atom_site_fract_y
_atom_site_fract_z
Si Si1 0.758305 0.390297 0.955653
Si Si2 0.428346 0.675493 0.723653
Si Si3 0.500000 0.000000 0.974775
Si Si4 0.193745 0.466130 0.375974
Si Si5 0.308817 0.262470 0.912365
Si Si6 0.935147 0.327544 0.684251
O O1 0.803749 0.285385 0.908039
O O2 0.711054 0.566909 0.937923
O O3 0.641523 0.358478 0.000000
O O4 0.921861 0.377409 0.987108
O O5 0.500000 0.500000 0.731516
O O6 0.530651 0.756174 0.679912
O O7 0.242894 0.663748 0.707743
O O8 0.447621 0.769053 0.773656
O O9 0.595540 0.868603 0.943668
O O10 0.282899 0.623935 0.398192
O O11 0.000000 0.500000 0.378193
O O12 0.408471 0.282249 0.862656
O O13 0.000000 0.500000 0.667224
#
# Coordination Sequence:
#
# PCOD9550206 Si02
#       6
#     8   8   4   8   8   8
#     4  11  24  42  71 100 137 189 237 295 346 414
#     4  11  24  41  71 103 140 177 233 287 352 433
#     4  12  22  42  68  94 144 178 232 286 350 404
#     4   9  20  43  67  96 137 187 228 286 353 415
#     4  10  22  43  69  98 137 183 231 293 347 423
#     4  11  23  46  71 101 138 183 226 290 360 428
#
# _framework density 23.132664999999999
#
# number of rings (size 3 to 8) (size 9 to 14) (size 15 to 20)
#    0.000    1.455    3.636    2.182    0.000    7.273 
#    6.545    0.909    0.000    0.000    0.000    0.000 
#    0.000    0.000    0.000    0.000    0.000    0.000 
#
# Total GULP energy -245616.924436 kJ/mol
# GULP energy per Si atom -5582.202828 kJ/mol
# Density = 2.308001 g / cm^3
# Si number density = 23.132665 Si / 1000 Ang^3
#
#
#
# Elastic Constant Matrix: (Units=GPa)
#
#
# Indices 1 2 3 4 5 6 
#
# 1 58.8785 10.9717 35.9297 0.0000 0.0000 0.0000
# 2 10.9717 58.8780 35.9299 0.0000 0.0000 0.0000
# 3 35.9297 35.9299 136.2188 0.0000 0.0000 0.0000
# 4 0.0000 0.0000 0.0000 -7.6377 0.0000 0.0000
# 5 0.0000 0.0000 0.0000 0.0000 -7.6130 0.0000
# 6 0.0000 0.0000 0.0000 0.0000 0.0000 31.8731
#
#
#
# Elastic Compliance Matrix: (Units=1/GPa)
#
#
# Indices 1 2 3 4 5 6 
#
# 1 0.020261 -0.000613 -0.005182 0.000000 0.000000 0.000000
# 2 -0.000613 0.020261 -0.005183 0.000000 0.000000 0.000000
# 3 -0.005182 -0.005183 0.010075 0.000000 0.000000 0.000000
# 4 0.000000 0.000000 0.000000 -0.130930 0.000000 0.000000
# 5 0.000000 0.000000 0.000000 0.000000 -0.131355 0.000000
# 6 0.000000 0.000000 0.000000 0.000000 0.000000 0.031374
#
#
# Mechanical properties :
#
#
# Convention : Reuss Voigt Hill
#
# Bulk Modulus (GPa) = 34.91483 46.62646 40.77065
# Shear Modulus (GPa) = -33.59993 14.73407 -9.43293
#
# Velocity S-wave (km/s) = -3.81529 2.52650 -2.02154
# Velocity P-wave (km/s) = 2.06942 5.35825 3.49488
#
# Compressibility (1/GPa) = 0.02864112
#
# Stress axis : x y z
#
# Youngs Moduli (GPa) = 49.35628 49.35568 99.25521
#
# Poissons Ratio (x) = 0.03026 0.51438
# Poissons Ratio (y) = 0.03026 0.51439
# Poissons Ratio (z) = 0.25578 0.25579
#
# Static dielectric constant tensor:
#      x y z
#    x 2.424530 0.000000 0.000000 
#    y 0.000000 2.424190 0.000000 
#    z 0.000000 0.000000 1.865750 
# 
# From -- ./inp_files/5478.got.cif
#   From: 2010.05.17/outbox.cif.g08.bks.cpg/sg94_3_cif.got.tgz:5478.got - 2010.06.03 19:43:16.
