data_PCOD9550851
_publ_section_title
;
Structure prediction by ZEFSAII (Michael W. Deem and Ramdas Pophale) SiO2 
 PCOD9550851
Probable space group: P 43 21 2
;
_chemical_formula_sum "Si O2"
_cell_formula_units_Z 28
_cell_length_a 8.372498
_cell_length_b 8.372498
_cell_length_c 14.270454
_cell_angle_alpha 90.000000
_cell_angle_beta 90.000000
_cell_angle_gamma 90.000000
_cell_volume 1000.340599
_symmetry_space_group_name_H-M "P 43 21 2"
_symmetry_group_IT_number 96
_symmetry_cell_setting 'tetragonal'
loop_
_space_group_symop_operation_xyz
x,y,z
1/2-y,1/2+x,3/4+z
-x,-y,1/2+z
1/2+y,1/2-x,1/4+z
1/2+x,1/2-y,1/4-z
1/2-x,1/2+y,3/4-z
y,x,-z
-y,-x,1/2-z
loop_
_atom_site_type_symbol
_atom_site_label
_atom_site_fract_x
_atom_site_fract_y
_atom_site_fract_z
Si Si1 0.269135 0.055885 0.592592
Si Si2 0.110253 0.388502 0.864006
Si Si3 0.908806 0.091195 0.250000
Si Si4 0.824121 0.137268 0.565947
O O1 0.440095 0.980471 0.625756
O O2 0.127928 0.038501 0.670643
O O3 0.204505 0.967356 0.499689
O O4 0.302586 0.241715 0.599088
O O5 0.180287 0.370906 0.760387
O O6 0.251862 0.407949 0.936598
O O7 0.032789 0.214936 0.887498
#
# Coordination Sequence:
#
# PCOD9550851 Si02
#       4
#     8   8   4   8
#     4  11  22  45  70 105 138 186 237 300 343 429
#     4  11  22  45  70 105 138 186 237 300 343 429
#     4  10  20  40  72  90 132 184 230 274 348 422
#     4  11  24  45  75  96 147 182 234 297 360 413
#
# _framework density 27.990462999999998
#
# number of rings (size 3 to 8) (size 9 to 14) (size 15 to 20)
#    0.000    1.143    5.714    0.000    0.000    0.000 
#   10.286    2.857    0.000    0.000    0.000    0.000 
#    0.000    0.000    0.000    0.000    0.000    0.000 
#
# Total GULP energy -156473.747167 kJ/mol
# GULP energy per Si atom -5588.348113 kJ/mol
# Density = 2.792676 g / cm^3
# Si number density = 27.990463 Si / 1000 Ang^3
#
#
#
# Elastic Constant Matrix: (Units=GPa)
#
#
# Indices 1 2 3 4 5 6 
#
# 1 98.1443 31.0966 29.0815 0.0000 0.0000 0.0000
# 2 31.0966 98.1451 29.0822 0.0000 0.0000 0.0000
# 3 29.0815 29.0822 138.2692 0.0000 0.0000 0.0000
# 4 0.0000 0.0000 0.0000 40.6217 0.0000 0.0000
# 5 0.0000 0.0000 0.0000 0.0000 40.6216 0.0000
# 6 0.0000 0.0000 0.0000 0.0000 0.0000 40.4798
#
#
#
# Elastic Compliance Matrix: (Units=1/GPa)
#
#
# Indices 1 2 3 4 5 6 
#
# 1 0.011731 -0.003184 -0.001798 0.000000 0.000000 0.000000
# 2 -0.003184 0.011731 -0.001798 0.000000 0.000000 0.000000
# 3 -0.001798 -0.001798 0.007988 0.000000 0.000000 0.000000
# 4 0.000000 0.000000 0.000000 0.024617 0.000000 0.000000
# 5 0.000000 0.000000 0.000000 0.000000 0.024617 0.000000
# 6 0.000000 0.000000 0.000000 0.000000 0.000000 0.024704
#
#
# Mechanical properties :
#
#
# Convention : Reuss Voigt Hill
#
# Bulk Modulus (GPa) = 55.89379 57.00881 56.45130
# Shear Modulus (GPa) = 40.02879 40.69786 40.36333
#
# Velocity S-wave (km/s) = 3.78575 3.81726 3.80154
# Velocity P-wave (km/s) = 6.25471 6.31190 6.28337
#
# Compressibility (1/GPa) = 0.01789108
#
# Stress axis : x y z
#
# Youngs Moduli (GPa) = 85.24729 85.24771 125.18128
#
# Poissons Ratio (x) = 0.27144 0.22502
# Poissons Ratio (y) = 0.27144 0.22502
# Poissons Ratio (z) = 0.15323 0.15324
#
# Static dielectric constant tensor:
#      x y z
#    x 2.320280 0.000000 0.000000 
#    y 0.000000 2.320270 0.000000 
#    z 0.000000 0.000000 2.178560 
# 
# From -- ./inp_files/2913.got.cif
#   From: 2010.05.17/outbox.cif.g08.bks.cpg/sg96_2_cif.got.tgz:2913.got - 2010.06.03 19:52:08.
