data_PCOD9550589
_publ_section_title
;
Structure prediction by ZEFSAII (Michael W. Deem and Ramdas Pophale) SiO2 
 PCOD9550589
Probable space group: P 43 2 2
;
_chemical_formula_sum "Si O2"
_cell_formula_units_Z 40
_cell_length_a 19.446507
_cell_length_b 19.446507
_cell_length_c 5.089291
_cell_angle_alpha 90.000000
_cell_angle_beta 90.000000
_cell_angle_gamma 90.000000
_cell_volume 1924.600049
_symmetry_space_group_name_H-M "P 43 2 2"
_symmetry_group_IT_number 95
_symmetry_cell_setting 'tetragonal'
loop_
_space_group_symop_operation_xyz
x,y,z
-y,x,3/4+z
-x,-y,1/2+z
y,-x,1/4+z
x,-y,1/2-z
-x,y,-z
y,x,1/4-z
-y,-x,3/4-z
loop_
_atom_site_type_symbol
_atom_site_label
_atom_site_fract_x
_atom_site_fract_y
_atom_site_fract_z
Si Si1 0.000000 0.318681 0.000000
Si Si2 0.573763 0.426238 0.375000
Si Si3 0.283516 0.547555 0.011148
Si Si4 0.434843 0.067059 0.866958
Si Si5 0.253137 0.143433 0.162270
Si Si6 0.660370 0.174221 0.354304
O O1 0.965298 0.372923 0.793248
O O2 0.934326 0.266295 0.023294
O O3 0.577490 0.500000 0.250000
O O4 0.639190 0.425654 0.562892
O O5 0.261577 0.500000 0.250000
O O6 0.279815 0.500000 0.750000
O O7 0.238850 0.615073 0.972311
O O8 0.396805 0.113079 0.647858
O O9 0.469898 0.000000 0.750000
O O10 0.500000 0.104900 0.000000
O O11 0.177835 0.177835 0.125000
O O12 0.298400 0.184757 0.377493
O O13 0.287937 0.153167 0.878025
#
# Coordination Sequence:
#
# PCOD9550589 Si02
#       6
#     4   4   8   8   8   8
#     4  10  22  40  58  94 128 166 218 262 310 376
#     4  10  22  40  64  84 110 148 212 272 328 382
#     4  11  24  41  60  85 116 158 204 265 328 375
#     4  11  20  34  59  87 131 175 217 262 318 382
#     4  11  24  41  66  92 126 169 209 259 315 377
#     4  11  24  41  61  93 127 165 213 263 314 389
#
# _framework density 20.783536999999999
#
# number of rings (size 3 to 8) (size 9 to 14) (size 15 to 20)
#    0.000    1.200    3.000    3.000    2.800    4.800 
#    0.000    0.000    0.000    0.000    0.000    2.800 
#    0.000    0.000    0.000    0.000    0.000    0.000 
#
# Total GULP energy -222805.586483 kJ/mol
# GULP energy per Si atom -5570.139662 kJ/mol
# Density = 2.073623 g / cm^3
# Si number density = 20.783537 Si / 1000 Ang^3
#
#
#
# Elastic Constant Matrix: (Units=GPa)
#
#
# Indices 1 2 3 4 5 6 
#
# 1 110.3241 41.3065 -0.2005 0.0000 0.0000 0.0000
# 2 41.3065 110.3248 -0.2007 0.0000 0.0000 0.0000
# 3 -0.2005 -0.2007 62.6899 0.0000 0.0000 0.0000
# 4 0.0000 0.0000 0.0000 22.4906 0.0000 0.0000
# 5 0.0000 0.0000 0.0000 0.0000 22.4870 0.0000
# 6 0.0000 0.0000 0.0000 0.0000 0.0000 42.0720
#
#
#
# Elastic Compliance Matrix: (Units=1/GPa)
#
#
# Indices 1 2 3 4 5 6 
#
# 1 0.010542 -0.003947 0.000021 0.000000 0.000000 0.000000
# 2 -0.003947 0.010542 0.000021 0.000000 0.000000 0.000000
# 3 0.000021 0.000021 0.015952 0.000000 0.000000 0.000000
# 4 0.000000 0.000000 0.000000 0.044463 0.000000 0.000000
# 5 0.000000 0.000000 0.000000 0.000000 0.044470 0.000000
# 6 0.000000 0.000000 0.000000 0.000000 0.000000 0.023769
#
#
# Mechanical properties :
#
#
# Convention : Reuss Voigt Hill
#
# Bulk Modulus (GPa) = 34.21597 40.57215 37.39406
# Shear Modulus (GPa) = 29.88835 33.57215 31.73025
#
# Velocity S-wave (km/s) = 3.79631 4.02347 3.91154
# Velocity P-wave (km/s) = 5.97618 6.41468 6.19931
#
# Compressibility (1/GPa) = 0.02922612
#
# Stress axis : x y z
#
# Youngs Moduli (GPa) = 94.85834 94.85895 62.68938
#
# Poissons Ratio (x) = 0.37441 -0.00132
# Poissons Ratio (y) = 0.37440 -0.00132
# Poissons Ratio (z) = -0.00200 -0.00200
#
# Static dielectric constant tensor:
#      x y z
#    x 2.005600 0.000000 0.000000 
#    y 0.000000 2.005760 0.000000 
#    z 0.000000 0.000000 1.802620 
# 
# From -- ./inp_files/849.got.cif
#   From: 2010.05.17/outbox.cif.g08.bks.cpg/sg95_1_cif.got.tgz:849.got - 2010.06.03 19:46:49.
