data_PCOD9550666
_publ_section_title
;
Structure prediction by ZEFSAII (Michael W. Deem and Ramdas Pophale) SiO2 
 PCOD9550666
Probable space group: P 43 2 2
;
_chemical_formula_sum "Si O2"
_cell_formula_units_Z 48
_cell_length_a 8.277047
_cell_length_b 8.277047
_cell_length_c 30.490581
_cell_angle_alpha 90.000000
_cell_angle_beta 90.000000
_cell_angle_gamma 90.000000
_cell_volume 2088.894674
_symmetry_space_group_name_H-M "P 43 2 2"
_symmetry_group_IT_number 95
_symmetry_cell_setting 'tetragonal'
loop_
_space_group_symop_operation_xyz
x,y,z
-y,x,3/4+z
-x,-y,1/2+z
y,-x,1/4+z
x,-y,1/2-z
-x,y,-z
y,x,1/4-z
-y,-x,3/4-z
loop_
_atom_site_type_symbol
_atom_site_label
_atom_site_fract_x
_atom_site_fract_y
_atom_site_fract_z
Si Si1 0.355430 0.351402 0.965819
Si Si2 0.506411 0.770151 0.625854
Si Si3 0.750802 0.981859 0.869132
Si Si4 0.291657 0.724324 0.957456
Si Si5 0.655145 0.256808 0.559850
Si Si6 0.066089 0.141464 0.285023
O O1 0.416084 0.283904 0.918461
O O2 0.263091 0.526129 0.956789
O O3 0.274684 0.188029 0.986866
O O4 0.500000 0.396105 0.000000
O O5 0.663508 0.663508 0.625000
O O6 0.420746 0.721243 0.670395
O O7 0.568186 0.951614 0.630067
O O8 0.753019 0.869997 0.911466
O O9 0.811270 0.905690 0.824160
O O10 0.881222 0.118779 0.875000
O O11 0.462789 0.745441 0.933037
O O12 0.188110 0.887422 0.945822
O O13 0.314509 0.759396 0.008980
O O14 0.042371 0.000000 0.250000
#
# Coordination Sequence:
#
# PCOD9550666 Si02
#       6
#     8   8   8   8   8   8
#     4  12  25  46  77 109 142 200 256 313 387 465
#     4  11  22  43  75 104 139 185 249 312 364 464
#     4  11  26  46  69 104 148 196 243 304 386 458
#     4  11  25  46  73 104 147 192 252 312 378 463
#     4  11  22  45  70 104 139 190 247 310 378 438
#     4  12  29  47  69 110 150 199 250 314 394 461
#
# _framework density 22.978659
#
# number of rings (size 3 to 8) (size 9 to 14) (size 15 to 20)
#    0.000    0.667    5.000    2.000   11.667    0.667 
#    6.000    0.000    0.000    0.000    0.000    0.000 
#    0.000    0.000    0.000    0.000    0.000    0.000 
#
# Total GULP energy -267220.691738 kJ/mol
# GULP energy per Si atom -5567.097745 kJ/mol
# Density = 2.292636 g / cm^3
# Si number density = 22.978659 Si / 1000 Ang^3
#
#
#
# Elastic Constant Matrix: (Units=GPa)
#
#
# Indices 1 2 3 4 5 6 
#
# 1 37.5820 59.2089 0.5120 0.0000 0.0000 0.0000
# 2 59.2089 37.5787 0.5125 0.0000 0.0000 0.0000
# 3 0.5120 0.5125 45.4409 0.0000 0.0000 0.0000
# 4 0.0000 0.0000 0.0000 15.8857 0.0000 0.0000
# 5 0.0000 0.0000 0.0000 0.0000 15.8921 0.0000
# 6 0.0000 0.0000 0.0000 0.0000 0.0000 8.4250
#
#
#
# Elastic Compliance Matrix: (Units=1/GPa)
#
#
# Indices 1 2 3 4 5 6 
#
# 1 -0.017950 0.028284 -0.000117 0.000000 0.000000 0.000000
# 2 0.028284 -0.017952 -0.000116 0.000000 0.000000 0.000000
# 3 -0.000117 -0.000116 0.022009 0.000000 0.000000 0.000000
# 4 0.000000 0.000000 0.000000 0.062950 0.000000 0.000000
# 5 0.000000 0.000000 0.000000 0.000000 0.062924 0.000000
# 6 0.000000 0.000000 0.000000 0.000000 0.000000 0.118694
#
#
# Mechanical properties :
#
#
# Convention : Reuss Voigt Hill
#
# Bulk Modulus (GPa) = 23.69151 26.78539 25.23845
# Shear Modulus (GPa) = 26.50520 12.06512 19.28516
#
# Velocity S-wave (km/s) = 3.39996 2.29390 2.90015
# Velocity P-wave (km/s) = 5.07401 4.32411 4.71400
#
# Compressibility (1/GPa) = 0.04220921
#
# Stress axis : x y z
#
# Youngs Moduli (GPa) = -55.70919 -55.70423 45.43547
#
# Poissons Ratio (x) = 1.57555 0.00530
# Poissons Ratio (y) = 1.57569 0.00528
# Poissons Ratio (z) = -0.00650 -0.00648
#
# Static dielectric constant tensor:
#      x y z
#    x 2.151950 0.000000 0.000000 
#    y 0.000000 2.151930 0.000000 
#    z 0.000000 0.000000 1.845020 
# 
# From -- ./inp_files/7962.got.cif
#   From: 2010.05.17/outbox.cif.g08.bks.cpg/sg95_4_cif.got.tgz:7962.got - 2010.06.03 19:46:49.
