data_PCOD9550256
_publ_section_title
;
Structure prediction by ZEFSAII (Michael W. Deem and Ramdas Pophale) SiO2 
 PCOD9550256
Probable space group: P 42 21 2
;
_chemical_formula_sum "Si O2"
_cell_formula_units_Z 28
_cell_length_a 8.311301
_cell_length_b 8.311301
_cell_length_c 16.532910
_cell_angle_alpha 90.000000
_cell_angle_beta 90.000000
_cell_angle_gamma 90.000000
_cell_volume 1142.055799
_symmetry_space_group_name_H-M "P 42 21 2"
_symmetry_group_IT_number 94
_symmetry_cell_setting 'tetragonal'
loop_
_space_group_symop_operation_xyz
x,y,z
1/2-y,1/2+x,1/2+z
-x,-y,z
1/2+y,1/2-x,1/2+z
1/2+x,1/2-y,1/2-z
1/2-x,1/2+y,1/2-z
y,x,-z
-y,-x,-z
loop_
_atom_site_type_symbol
_atom_site_label
_atom_site_fract_x
_atom_site_fract_y
_atom_site_fract_z
Si Si1 0.225738 0.225738 0.000000
Si Si2 0.392069 0.252327 0.708025
Si Si3 0.317525 0.550574 0.918096
Si Si4 0.225073 0.095149 0.838018
O O1 0.231802 0.388286 0.947953
O O2 0.228034 0.084515 0.934710
O O3 0.292117 0.138595 0.647274
O O4 0.378570 0.176416 0.796873
O O5 0.573370 0.291600 0.683828
O O6 0.306009 0.424399 0.701928
O O7 0.500000 0.500000 0.890604
O O8 0.346155 0.653845 0.000000
#
# Coordination Sequence:
#
# PCOD9550256 Si02
#       4
#     4   8   8   8
#     4  10  23  45  66 104 138 180 244 292 356 436
#     4  11  26  46  72  99 147 188 240 300 358 437
#     4   9  22  43  70  96 137 182 232 291 360 420
#     4  11  27  45  70 105 143 188 244 293 368 418
#
# _framework density 24.517192000000001
#
# number of rings (size 3 to 8) (size 9 to 14) (size 15 to 20)
#    0.000    2.000    0.000    1.714   16.000    5.714 
#    5.143    0.000    0.000    0.000    0.000    0.000 
#    0.000    0.000    0.000    0.000    0.000    0.000 
#
# Total GULP energy -156843.352737 kJ/mol
# GULP energy per Si atom -5601.548312 kJ/mol
# Density = 2.446139 g / cm^3
# Si number density = 24.517192 Si / 1000 Ang^3
#
#
#
# Elastic Constant Matrix: (Units=GPa)
#
#
# Indices 1 2 3 4 5 6 
#
# 1 39.7573 46.1930 19.6024 0.0000 0.0000 0.0000
# 2 46.1930 39.7573 19.6024 0.0000 0.0000 0.0000
# 3 19.6024 19.6024 84.4837 0.0000 0.0000 0.0000
# 4 0.0000 0.0000 0.0000 42.0947 0.0000 0.0000
# 5 0.0000 0.0000 0.0000 0.0000 42.0947 0.0000
# 6 0.0000 0.0000 0.0000 0.0000 0.0000 42.3188
#
#
#
# Elastic Compliance Matrix: (Units=1/GPa)
#
#
# Indices 1 2 3 4 5 6 
#
# 1 -0.071186 0.084197 -0.003019 0.000000 0.000000 0.000000
# 2 0.084197 -0.071186 -0.003019 0.000000 0.000000 0.000000
# 3 -0.003019 -0.003019 0.013238 0.000000 0.000000 0.000000
# 4 0.000000 0.000000 0.000000 0.023756 0.000000 0.000000
# 5 0.000000 0.000000 0.000000 0.000000 0.023756 0.000000
# 6 0.000000 0.000000 0.000000 0.000000 0.000000 0.023630
#
#
# Mechanical properties :
#
#
# Convention : Reuss Voigt Hill
#
# Bulk Modulus (GPa) = 36.78522 37.19931 36.99226
# Shear Modulus (GPa) = -24.36074 30.54166 3.09046
#
# Velocity S-wave (km/s) = -3.15559 3.53331 1.12395
# Velocity P-wave (km/s) = 1.32643 5.64370 4.09944
#
# Compressibility (1/GPa) = 0.02718483
#
# Stress axis : x y z
#
# Youngs Moduli (GPa) = -14.04778 -14.04778 75.54238
#
# Poissons Ratio (x) = 1.18279 0.22807
# Poissons Ratio (y) = 1.18279 0.22807
# Poissons Ratio (z) = -0.04241 -0.04241
#
# Static dielectric constant tensor:
#      x y z
#    x 1.936950 0.000000 0.000000 
#    y 0.000000 1.936950 0.000000 
#    z 0.000000 0.000000 2.001720 
# 
# From -- ./inp_files/3820.got.cif
#   From: 2010.05.17/outbox.cif.g08.bks.cpg/sg94_2_cif.got.tgz:3820.got - 2010.06.03 19:43:16.
