data_PCOD9550340
_publ_section_title
;
Structure prediction by ZEFSAII (Michael W. Deem and Ramdas Pophale) SiO2 
 PCOD9550340
Probable space group: P 42 21 2
;
_chemical_formula_sum "Si O2"
_cell_formula_units_Z 24
_cell_length_a 7.445942
_cell_length_b 7.445942
_cell_length_c 17.316147
_cell_angle_alpha 90.000000
_cell_angle_beta 90.000000
_cell_angle_gamma 90.000000
_cell_volume 960.042727
_symmetry_space_group_name_H-M "P 42 21 2"
_symmetry_group_IT_number 94
_symmetry_cell_setting 'tetragonal'
loop_
_space_group_symop_operation_xyz
x,y,z
1/2-y,1/2+x,1/2+z
-x,-y,z
1/2+y,1/2-x,1/2+z
1/2+x,1/2-y,1/2-z
1/2-x,1/2+y,1/2-z
y,x,-z
-y,-x,-z
loop_
_atom_site_type_symbol
_atom_site_label
_atom_site_fract_x
_atom_site_fract_y
_atom_site_fract_z
Si Si1 0.322245 0.779785 0.138826
Si Si2 0.644408 0.230677 0.581914
Si Si3 0.586242 0.814700 0.804780
O O1 0.535308 0.805052 0.119480
O O2 0.246338 0.848309 0.221997
O O3 0.284214 0.567319 0.144719
O O4 0.245799 0.930034 0.080226
O O5 0.734541 0.265460 0.500000
O O6 0.743281 0.357438 0.642505
O O7 0.500000 0.000000 0.781308
#
# Coordination Sequence:
#
# PCOD9550340 Si02
#       3
#     8   8   8
#     4  11  23  46  73 103 145 201 251 309 381 456
#     4  11  26  47  70 108 155 193 250 317 395 459
#     4  12  23  42  73 105 143 191 256 314 368 462
#
# _framework density 24.998885999999999
#
# number of rings (size 3 to 8) (size 9 to 14) (size 15 to 20)
#    0.000    0.667    6.667    1.000    4.667    4.000 
#    0.000    1.667    0.000    0.000    0.000    0.000 
#    0.000    0.000    0.000    0.000    0.000    0.000 
#
# Total GULP energy -133859.429339 kJ/mol
# GULP energy per Si atom -5577.476222 kJ/mol
# Density = 2.494199 g / cm^3
# Si number density = 24.998886 Si / 1000 Ang^3
#
#
#
# Elastic Constant Matrix: (Units=GPa)
#
#
# Indices 1 2 3 4 5 6 
#
# 1 85.7153 50.3295 30.8517 0.0000 0.0000 0.0000
# 2 50.3295 85.7158 30.8517 0.0000 0.0000 0.0000
# 3 30.8517 30.8517 136.8920 0.0000 0.0000 0.0000
# 4 0.0000 0.0000 0.0000 21.3110 0.0000 0.0000
# 5 0.0000 0.0000 0.0000 0.0000 21.3112 0.0000
# 6 0.0000 0.0000 0.0000 0.0000 0.0000 38.9881
#
#
#
# Elastic Compliance Matrix: (Units=1/GPa)
#
#
# Indices 1 2 3 4 5 6 
#
# 1 0.018224 -0.010036 -0.001845 0.000000 0.000000 0.000000
# 2 -0.010036 0.018224 -0.001845 0.000000 0.000000 0.000000
# 3 -0.001845 -0.001845 0.008137 0.000000 0.000000 0.000000
# 4 0.000000 0.000000 0.000000 0.046924 0.000000 0.000000
# 5 0.000000 0.000000 0.000000 0.000000 0.046924 0.000000
# 6 0.000000 0.000000 0.000000 0.000000 0.000000 0.025649
#
#
# Mechanical properties :
#
#
# Convention : Reuss Voigt Hill
#
# Bulk Modulus (GPa) = 58.37476 59.15434 58.76455
# Shear Modulus (GPa) = 25.34931 29.40807 27.37869
#
# Velocity S-wave (km/s) = 3.18782 3.43355 3.31297
# Velocity P-wave (km/s) = 6.07875 6.27959 6.17999
#
# Compressibility (1/GPa) = 0.01713069
#
# Stress axis : x y z
#
# Youngs Moduli (GPa) = 54.87377 54.87410 122.89920
#
# Poissons Ratio (x) = 0.55073 0.22678
# Poissons Ratio (y) = 0.55072 0.22677
# Poissons Ratio (z) = 0.10125 0.10125
#
# Static dielectric constant tensor:
#      x y z
#    x 2.153100 0.000000 0.000000 
#    y 0.000000 2.153080 0.000000 
#    z 0.000000 0.000000 1.930560 
# 
# From -- ./inp_files/3072.got.cif
#   From: 2010.05.17/outbox.cif.g08.bks.cpg/sg94_2_cif.got.tgz:3072.got - 2010.06.03 19:43:16.
