data_PCOD9550822
_publ_section_title
;
Structure prediction by ZEFSAII (Michael W. Deem and Ramdas Pophale) SiO2 
 PCOD9550822
Probable space group: P 43 21 2
;
_chemical_formula_sum "Si O2"
_cell_formula_units_Z 48
_cell_length_a 13.425494
_cell_length_b 13.425494
_cell_length_c 15.572759
_cell_angle_alpha 90.000000
_cell_angle_beta 90.000000
_cell_angle_gamma 90.000000
_cell_volume 2806.894647
_symmetry_space_group_name_H-M "P 43 21 2"
_symmetry_group_IT_number 96
_symmetry_cell_setting 'tetragonal'
loop_
_space_group_symop_operation_xyz
x,y,z
1/2-y,1/2+x,3/4+z
-x,-y,1/2+z
1/2+y,1/2-x,1/4+z
1/2+x,1/2-y,1/4-z
1/2-x,1/2+y,3/4-z
y,x,-z
-y,-x,1/2-z
loop_
_atom_site_type_symbol
_atom_site_label
_atom_site_fract_x
_atom_site_fract_y
_atom_site_fract_z
Si Si1 0.642080 0.702547 0.235463
Si Si2 0.335026 0.144617 0.333086
Si Si3 0.543407 0.924147 0.996905
Si Si4 0.341037 0.445599 0.078916
Si Si5 0.867363 0.936033 0.907359
Si Si6 0.639868 0.931108 0.181719
O O1 0.745525 0.656342 0.204339
O O2 0.617299 0.677843 0.334215
O O3 0.549138 0.664056 0.178178
O O4 0.650313 0.821194 0.221376
O O5 0.400577 0.127169 0.418107
O O6 0.222047 0.119618 0.359664
O O7 0.370886 0.059626 0.267954
O O8 0.614232 0.920079 0.080597
O O9 0.524771 0.039547 0.973542
O O10 0.420501 0.531509 0.104425
O O11 0.237777 0.502624 0.057522
O O12 0.380913 0.380913 0.000000
O O13 0.885325 0.885325 0.000000
#
# Coordination Sequence:
#
# PCOD9550822 Si02
#       6
#     8   8   8   8   8   8
#     4  11  22  39  63  91 122 158 208 257 301 367
#     4  11  22  36  61  93 124 151 206 257 313 344
#     4  10  21  36  62  95 116 155 201 264 303 362
#     4  11  24  40  62  86 127 175 199 237 318 386
#     4  10  20  37  61  89 115 154 204 251 304 366
#     4  11  19  39  64  86 119 159 207 246 307 366
#
# _framework density 17.100749
#
# number of rings (size 3 to 8) (size 9 to 14) (size 15 to 20)
#    0.000    1.333    6.667    1.000    0.000    4.000 
#    0.000    0.000    0.000    0.000    0.000    0.000 
#    0.000    0.000    0.000    0.000    0.000    0.000 
#
# Total GULP energy -268011.142944 kJ/mol
# GULP energy per Si atom -5583.565478 kJ/mol
# Density = 1.706183 g / cm^3
# Si number density = 17.100749 Si / 1000 Ang^3
#
#
#
# Elastic Constant Matrix: (Units=GPa)
#
#
# Indices 1 2 3 4 5 6 
#
# 1 114.5479 66.9841 56.2926 0.0000 0.0000 0.0000
# 2 66.9841 114.5479 56.2926 0.0000 0.0000 0.0000
# 3 56.2926 56.2926 98.4377 0.0000 0.0000 0.0000
# 4 0.0000 0.0000 0.0000 19.9615 0.0000 0.0000
# 5 0.0000 0.0000 0.0000 0.0000 19.9615 0.0000
# 6 0.0000 0.0000 0.0000 0.0000 0.0000 27.9880
#
#
#
# Elastic Compliance Matrix: (Units=1/GPa)
#
#
# Indices 1 2 3 4 5 6 
#
# 1 0.014780 -0.006244 -0.004881 0.000000 0.000000 0.000000
# 2 -0.006244 0.014780 -0.004881 0.000000 0.000000 0.000000
# 3 -0.004881 -0.004881 0.015742 0.000000 0.000000 0.000000
# 4 0.000000 0.000000 0.000000 0.050096 0.000000 0.000000
# 5 0.000000 0.000000 0.000000 0.000000 0.050096 0.000000
# 6 0.000000 0.000000 0.000000 0.000000 0.000000 0.035730
#
#
# Mechanical properties :
#
#
# Convention : Reuss Voigt Hill
#
# Bulk Modulus (GPa) = 75.25519 76.29690 75.77605
# Shear Modulus (GPa) = 22.97076 23.44649 23.20862
#
# Velocity S-wave (km/s) = 3.66903 3.70683 3.68798
# Velocity P-wave (km/s) = 7.87728 7.93938 7.90839
#
# Compressibility (1/GPa) = 0.01328812
#
# Stress axis : x y z
#
# Youngs Moduli (GPa) = 67.65782 67.65782 63.52533
#
# Poissons Ratio (x) = 0.42246 0.31010
# Poissons Ratio (y) = 0.42246 0.31010
# Poissons Ratio (z) = 0.33027 0.33027
#
# Static dielectric constant tensor:
#      x y z
#    x 1.573930 0.000000 0.000000 
#    y 0.000000 1.573930 0.000000 
#    z 0.000000 0.000000 1.570930 
# 
# From -- ./inp_files/3105.got.cif
#   From: 2010.05.17/outbox.cif.g08.bks.cpg/sg96_2_cif.got.tgz:3105.got - 2010.06.03 19:52:08.
