data_PCOD9550976
_publ_section_title
;
Structure prediction by ZEFSAII (Michael W. Deem and Ramdas Pophale) SiO2 
 PCOD9550976
Probable space group: P 43 21 2
;
_chemical_formula_sum "Si O2"
_cell_formula_units_Z 44
_cell_length_a 15.061438
_cell_length_b 15.061438
_cell_length_c 9.787415
_cell_angle_alpha 90.000000
_cell_angle_beta 90.000000
_cell_angle_gamma 90.000000
_cell_volume 2220.244895
_symmetry_space_group_name_H-M "P 43 21 2"
_symmetry_group_IT_number 96
_symmetry_cell_setting 'tetragonal'
loop_
_space_group_symop_operation_xyz
x,y,z
1/2-y,1/2+x,3/4+z
-x,-y,1/2+z
1/2+y,1/2-x,1/4+z
1/2+x,1/2-y,1/4-z
1/2-x,1/2+y,3/4-z
y,x,-z
-y,-x,1/2-z
loop_
_atom_site_type_symbol
_atom_site_label
_atom_site_fract_x
_atom_site_fract_y
_atom_site_fract_z
Si Si1 0.242120 0.242120 0.000000
Si Si2 0.423397 0.960312 0.863360
Si Si3 0.120970 0.970166 0.005048
Si Si4 0.051882 0.760121 0.753320
Si Si5 0.022677 0.170368 0.530413
Si Si6 0.246024 0.576154 0.562849
O O1 0.234495 0.346117 0.039122
O O2 0.171761 0.225634 0.878093
O O3 0.475519 0.964489 0.723248
O O4 0.322285 0.985701 0.832006
O O5 0.428323 0.859337 0.917138
O O6 0.157942 0.950592 0.853145
O O7 0.067859 0.884843 0.060587
O O8 0.201505 0.002423 0.099171
O O9 0.050363 0.050363 0.000000
O O10 0.998152 0.778084 0.890595
O O11 0.096658 0.096658 0.500000
O O12 0.227244 0.057755 0.342955
#
# Coordination Sequence:
#
# PCOD9550976 Si02
#       6
#     4   8   8   8   8   8
#     4  10  22  42  68  84 138 186 220 252 336 424
#     4  11  26  45  69  90 125 179 235 284 331 397
#     4  11  20  40  67  98 140 174 214 271 343 412
#     4  11  22  43  67  98 131 181 221 264 349 410
#     4  11  24  38  67 108 139 167 219 281 339 403
#     4  11  23  41  64  97 132 175 226 274 330 396
#
# _framework density 19.817634000000002
#
# number of rings (size 3 to 8) (size 9 to 14) (size 15 to 20)
#    0.000    1.091    4.545    1.636    2.545    2.909 
#    0.000    1.818    0.000    0.000    0.000    0.000 
#    0.000    0.000    0.000    0.000    0.000    0.000 
#
# Total GULP energy -245832.360640 kJ/mol
# GULP energy per Si atom -5587.099105 kJ/mol
# Density = 1.977253 g / cm^3
# Si number density = 19.817634 Si / 1000 Ang^3
#
#
#
# Elastic Constant Matrix: (Units=GPa)
#
#
# Indices 1 2 3 4 5 6 
#
# 1 23.8608 45.0043 34.3413 0.0000 0.0000 0.0000
# 2 45.0043 23.8608 34.3413 0.0000 0.0000 0.0000
# 3 34.3413 34.3413 124.6439 0.0000 0.0000 0.0000
# 4 0.0000 0.0000 0.0000 36.6446 0.0000 0.0000
# 5 0.0000 0.0000 0.0000 0.0000 36.6446 0.0000
# 6 0.0000 0.0000 0.0000 0.0000 0.0000 22.6373
#
#
#
# Elastic Compliance Matrix: (Units=1/GPa)
#
#
# Indices 1 2 3 4 5 6 
#
# 1 -0.013636 0.033660 -0.005517 0.000000 0.000000 0.000000
# 2 0.033660 -0.013636 -0.005517 0.000000 0.000000 0.000000
# 3 -0.005517 -0.005517 0.011063 0.000000 0.000000 0.000000
# 4 0.000000 0.000000 0.000000 0.027289 0.000000 0.000000
# 5 0.000000 0.000000 0.000000 0.000000 0.027289 0.000000
# 6 0.000000 0.000000 0.000000 0.000000 0.000000 0.044175
#
#
# Mechanical properties :
#
#
# Convention : Reuss Voigt Hill
#
# Bulk Modulus (GPa) = 34.43243 44.41546 39.42394
# Shear Modulus (GPa) = 106.44733 23.09723 64.77228
#
# Velocity S-wave (km/s) = 7.33690 3.41763 5.72321
# Velocity P-wave (km/s) = 9.44382 6.16720 7.97559
#
# Compressibility (1/GPa) = 0.02904239
#
# Stress axis : x y z
#
# Youngs Moduli (GPa) = -73.33347 -73.33347 90.39362
#
# Poissons Ratio (x) = 2.46837 0.49868
# Poissons Ratio (y) = 2.46837 0.49868
# Poissons Ratio (z) = -0.40456 -0.40456
#
# Static dielectric constant tensor:
#      x y z
#    x 1.710730 0.000000 0.000000 
#    y 0.000000 1.710730 0.000000 
#    z 0.000000 0.000000 1.664650 
# 
# From -- ./inp_files/2128.got.cif
#   From: 2010.05.17/outbox.cif.g08.bks.cpg/sg96_2_cif.got.tgz:2128.got - 2010.06.03 19:52:08.
