data_PCOD9550450
_publ_section_title
;
Structure prediction by ZEFSAII (Michael W. Deem and Ramdas Pophale) SiO2 
 PCOD9550450
Probable space group: P 43 2 2
;
_chemical_formula_sum "Si O2"
_cell_formula_units_Z 48
_cell_length_a 9.341000
_cell_length_b 9.341000
_cell_length_c 31.716364
_cell_angle_alpha 90.000000
_cell_angle_beta 90.000000
_cell_angle_gamma 90.000000
_cell_volume 2767.388537
_symmetry_space_group_name_H-M "P 43 2 2"
_symmetry_group_IT_number 95
_symmetry_cell_setting 'tetragonal'
loop_
_space_group_symop_operation_xyz
x,y,z
-y,x,3/4+z
-x,-y,1/2+z
y,-x,1/4+z
x,-y,1/2-z
-x,y,-z
y,x,1/4-z
-y,-x,3/4-z
loop_
_atom_site_type_symbol
_atom_site_label
_atom_site_fract_x
_atom_site_fract_y
_atom_site_fract_z
Si Si1 0.432693 0.090377 0.293497
Si Si2 0.739535 0.169768 0.329206
Si Si3 0.333606 0.753985 0.501461
Si Si4 0.335490 0.094622 0.506383
Si Si5 0.143690 0.768993 0.420662
Si Si6 0.924502 0.921471 0.953960
O O1 0.577567 0.144914 0.314648
O O2 0.335510 0.226956 0.281106
O O3 0.460827 0.000000 0.250000
O O4 0.347561 0.980995 0.323794
O O5 0.763985 0.236016 0.375000
O O6 0.819916 0.269267 0.295222
O O7 0.816059 0.014834 0.324988
O O8 0.500000 0.711009 0.500000
O O9 0.265937 0.738372 0.455034
O O10 0.325879 0.922723 0.513293
O O11 0.500000 0.132014 0.500000
O O12 0.236810 0.124649 0.465398
O O13 0.211258 0.788743 0.375000
O O14 0.077304 0.921638 0.434277
O O15 0.000000 0.928250 0.000000
#
# Coordination Sequence:
#
# PCOD9550450 Si02
#       6
#     8   8   8   8   8   8
#     4  10  20  36  55  75 104 141 176 211 262 322
#     4  11  22  34  51  80 109 135 173 223 266 307
#     4   9  19  36  57  76 103 142 178 211 260 328
#     4   9  18  34  55  77 103 138 175 209 255 320
#     4  10  19  33  55  81 103 132 178 225 259 301
#     4   9  17  33  54  75 102 138 174 207 257 318
#
# _framework density 17.344871000000001
#
# number of rings (size 3 to 8) (size 9 to 14) (size 15 to 20)
#    0.000    2.333    0.000    5.500    0.000    4.667 
#    0.000    0.833    0.000    0.000    0.000    0.000 
#    0.000    0.000    0.000    0.000    0.000    0.000 
#
# Total GULP energy -267696.954110 kJ/mol
# GULP energy per Si atom -5577.019877 kJ/mol
# Density = 1.730539 g / cm^3
# Si number density = 17.344871 Si / 1000 Ang^3
#
#
#
# Elastic Constant Matrix: (Units=GPa)
#
#
# Indices 1 2 3 4 5 6 
#
# 1 115.7953 75.3509 57.1585 0.0000 0.0000 0.0000
# 2 75.3509 115.7951 57.1583 0.0000 0.0000 0.0000
# 3 57.1585 57.1583 83.2733 0.0000 0.0000 0.0000
# 4 0.0000 0.0000 0.0000 9.6125 0.0000 0.0000
# 5 0.0000 0.0000 0.0000 0.0000 9.6124 0.0000
# 6 0.0000 0.0000 0.0000 0.0000 0.0000 4.6263
#
#
#
# Elastic Compliance Matrix: (Units=1/GPa)
#
#
# Indices 1 2 3 4 5 6 
#
# 1 0.016800 -0.007925 -0.006092 0.000000 0.000000 0.000000
# 2 -0.007925 0.016800 -0.006092 0.000000 0.000000 0.000000
# 3 -0.006092 -0.006092 0.020371 0.000000 0.000000 0.000000
# 4 0.000000 0.000000 0.000000 0.104031 0.000000 0.000000
# 5 0.000000 0.000000 0.000000 0.000000 0.104032 0.000000
# 6 0.000000 0.000000 0.000000 0.000000 0.000000 0.216154
#
#
# Mechanical properties :
#
#
# Convention : Reuss Voigt Hill
#
# Bulk Modulus (GPa) = 72.70469 77.13324 74.91897
# Shear Modulus (GPa) = 9.56042 13.11665 11.33854
#
# Velocity S-wave (km/s) = 2.35030 2.75294 2.55955
# Velocity P-wave (km/s) = 7.02662 7.39404 7.21267
#
# Compressibility (1/GPa) = 0.01375427
#
# Stress axis : x y z
#
# Youngs Moduli (GPa) = 59.52362 59.52365 49.08912
#
# Poissons Ratio (x) = 0.47174 0.29903
# Poissons Ratio (y) = 0.47174 0.29903
# Poissons Ratio (z) = 0.36259 0.36259
#
# Static dielectric constant tensor:
#      x y z
#    x 1.593170 0.000000 0.000000 
#    y 0.000000 1.593170 0.000000 
#    z 0.000000 0.000000 1.592020 
# 
# From -- ./inp_files/7918.got.cif
#   From: 2010.05.17/outbox.cif.g08.bks.cpg/sg95_4_cif.got.tgz:7918.got - 2010.06.03 19:46:49.
