data_PCOD9550326
_publ_section_title
;
Structure prediction by ZEFSAII (Michael W. Deem and Ramdas Pophale) SiO2 
 PCOD9550326
Probable space group: P 42 21 2
;
_chemical_formula_sum "Si O2"
_cell_formula_units_Z 52
_cell_length_a 20.484493
_cell_length_b 20.484493
_cell_length_c 6.003634
_cell_angle_alpha 90.000000
_cell_angle_beta 90.000000
_cell_angle_gamma 90.000000
_cell_volume 2519.211600
_symmetry_space_group_name_H-M "P 42 21 2"
_symmetry_group_IT_number 94
_symmetry_cell_setting 'tetragonal'
loop_
_space_group_symop_operation_xyz
x,y,z
1/2-y,1/2+x,1/2+z
-x,-y,z
1/2+y,1/2-x,1/2+z
1/2+x,1/2-y,1/2-z
1/2-x,1/2+y,1/2-z
y,x,-z
-y,-x,-z
loop_
_atom_site_type_symbol
_atom_site_label
_atom_site_fract_x
_atom_site_fract_y
_atom_site_fract_z
Si Si1 0.249900 0.000508 0.678245
Si Si2 0.810923 0.272535 0.798402
Si Si3 0.751353 0.877700 0.382061
Si Si4 0.197783 0.197783 0.000000
Si Si5 0.844427 0.122004 0.752687
Si Si6 0.434126 0.153911 0.828659
Si Si7 0.658682 0.947874 0.052455
O O1 0.201438 0.941505 0.737049
O O2 0.307260 0.968905 0.528424
O O3 0.223914 0.063867 0.540923
O O4 0.281590 0.029901 0.898385
O O5 0.771262 0.304666 0.594389
O O6 0.809505 0.193917 0.770831
O O7 0.885998 0.293517 0.785631
O O8 0.778312 0.313833 0.998051
O O9 0.690021 0.907645 0.253032
O O10 0.804545 0.852314 0.203506
O O11 0.876193 0.123808 0.500000
O O12 0.880095 0.119906 0.000000
O O13 0.487110 0.128757 0.655699
O O14 0.391042 0.095306 0.916926
#
# Coordination Sequence:
#
# PCOD9550326 Si02
#       7
#     8   8   8   4   8   8   8
#     4  11  24  44  64  93 143 187 229 310 378 443
#     4  12  22  40  66 100 135 178 236 308 367 434
#     4  11  24  39  64  96 141 187 229 301 383 445
#     4  12  20  36  64 100 132 173 234 288 369 444
#     4  12  25  40  68 108 136 185 240 304 381 446
#     4  11  23  41  63  87 129 184 242 299 363 426
#     4  11  25  41  63  87 128 191 244 301 365 424
#
# _framework density 20.641380999999999
#
# number of rings (size 3 to 8) (size 9 to 14) (size 15 to 20)
#    0.000    0.615    5.385    2.308    6.462    0.000 
#    0.000    2.308    0.000    0.000    0.000    0.000 
#    0.000   17.231    0.000    0.000    0.000    0.000 
#
# Total GULP energy -290053.763698 kJ/mol
# GULP energy per Si atom -5577.956994 kJ/mol
# Density = 2.059440 g / cm^3
# Si number density = 20.641381 Si / 1000 Ang^3
#
#
#
# Elastic Constant Matrix: (Units=GPa)
#
#
# Indices 1 2 3 4 5 6 
#
# 1 64.4891 37.6407 15.6633 0.0000 0.0000 0.0000
# 2 37.6407 64.4914 15.6658 0.0000 0.0000 0.0000
# 3 15.6633 15.6658 90.0943 0.0000 0.0000 0.0000
# 4 0.0000 0.0000 0.0000 31.4341 0.0000 0.0000
# 5 0.0000 0.0000 0.0000 0.0000 31.4339 0.0000
# 6 0.0000 0.0000 0.0000 0.0000 0.0000 26.4737
#
#
#
# Elastic Compliance Matrix: (Units=1/GPa)
#
#
# Indices 1 2 3 4 5 6 
#
# 1 0.023794 -0.013451 -0.001798 0.000000 0.000000 0.000000
# 2 -0.013451 0.023793 -0.001799 0.000000 0.000000 0.000000
# 3 -0.001798 -0.001799 0.011725 0.000000 0.000000 0.000000
# 4 0.000000 0.000000 0.000000 0.031813 0.000000 0.000000
# 5 0.000000 0.000000 0.000000 0.000000 0.031813 0.000000
# 6 0.000000 0.000000 0.000000 0.000000 0.000000 0.037773
#
#
# Mechanical properties :
#
#
# Convention : Reuss Voigt Hill
#
# Bulk Modulus (GPa) = 39.65495 39.66826 39.66160
# Shear Modulus (GPa) = 24.60489 27.87535 26.24012
#
# Velocity S-wave (km/s) = 3.45631 3.67885 3.56931
# Velocity P-wave (km/s) = 5.93137 6.10776 6.02021
#
# Compressibility (1/GPa) = 0.02521753
#
# Stress axis : x y z
#
# Youngs Moduli (GPa) = 42.02735 42.02835 85.28912
#
# Poissons Ratio (x) = 0.56531 0.15334
# Poissons Ratio (y) = 0.56530 0.15342
# Poissons Ratio (z) = 0.07556 0.07560
#
# Static dielectric constant tensor:
#      x y z
#    x 1.736730 0.000000 0.000000 
#    y 0.000000 1.736730 0.000000 
#    z 0.000000 0.000000 1.856830 
# 
# From -- ./inp_files/565.got.cif
#   From: 2010.05.17/outbox.cif.g08.bks.cpg/sg94_1_cif.got.tgz:565.got - 2010.06.03 19:43:16.
