data_PCOD9550259
_publ_section_title
;
Structure prediction by ZEFSAII (Michael W. Deem and Ramdas Pophale) SiO2 
 PCOD9550259
Probable space group: P 42 21 2
;
_chemical_formula_sum "Si O2"
_cell_formula_units_Z 48
_cell_length_a 9.167249
_cell_length_b 9.167249
_cell_length_c 24.452024
_cell_angle_alpha 90.000000
_cell_angle_beta 90.000000
_cell_angle_gamma 90.000000
_cell_volume 2054.910300
_symmetry_space_group_name_H-M "P 42 21 2"
_symmetry_group_IT_number 94
_symmetry_cell_setting 'tetragonal'
loop_
_space_group_symop_operation_xyz
x,y,z
1/2-y,1/2+x,1/2+z
-x,-y,z
1/2+y,1/2-x,1/2+z
1/2+x,1/2-y,1/2-z
1/2-x,1/2+y,1/2-z
y,x,-z
-y,-x,-z
loop_
_atom_site_type_symbol
_atom_site_label
_atom_site_fract_x
_atom_site_fract_y
_atom_site_fract_z
Si Si1 0.344186 0.643952 0.420377
Si Si2 0.078049 0.630184 0.069314
Si Si3 0.916429 0.235174 0.771771
Si Si4 0.957930 0.252073 0.472389
Si Si5 0.707362 0.416022 0.706568
Si Si6 0.288656 0.845476 0.109356
O O1 0.466425 0.743097 0.451202
O O2 0.190945 0.698498 0.443193
O O3 0.385649 0.680755 0.357666
O O4 0.313781 0.469938 0.419556
O O5 0.189111 0.704245 0.109598
O O6 0.000000 0.500000 0.100208
O O7 0.160311 0.542722 0.020754
O O8 0.855514 0.343538 0.726628
O O9 0.904118 0.316999 0.830354
O O10 0.079344 0.177001 0.763723
O O11 0.823136 0.084377 0.778556
O O12 0.897947 0.102054 0.500000
O O13 0.073587 0.287901 0.424320
#
# Coordination Sequence:
#
# PCOD9550259 Si02
#       6
#     8   8   8   8   8   8
#     4  11  24  47  74  99 141 187 242 296 351 433
#     4  12  24  44  69  99 136 185 238 297 346 424
#     4  10  23  45  71 107 138 175 236 285 352 427
#     4  12  27  45  66 103 147 182 238 299 359 425
#     4  10  23  45  73 104 139 177 227 294 349 428
#     4  11  25  45  74  99 139 192 235 288 363 422
#
# _framework density 23.358685000000001
#
# number of rings (size 3 to 8) (size 9 to 14) (size 15 to 20)
#    0.000    1.000    3.333    2.500    2.333    3.333 
#    0.000    1.667    0.000    0.000    0.000    0.000 
#    0.000    0.000    0.000    0.000    0.000    0.000 
#
# Total GULP energy -267548.341322 kJ/mol
# GULP energy per Si atom -5573.923778 kJ/mol
# Density = 2.330552 g / cm^3
# Si number density = 23.358685 Si / 1000 Ang^3
#
#
#
# Elastic Constant Matrix: (Units=GPa)
#
#
# Indices 1 2 3 4 5 6 
#
# 1 85.9529 59.6526 23.4092 0.0000 0.0000 0.0000
# 2 59.6526 85.9539 23.4091 0.0000 0.0000 0.0000
# 3 23.4092 23.4091 37.7042 0.0000 0.0000 0.0000
# 4 0.0000 0.0000 0.0000 33.5732 0.0000 0.0000
# 5 0.0000 0.0000 0.0000 0.0000 33.5731 0.0000
# 6 0.0000 0.0000 0.0000 0.0000 0.0000 53.9004
#
#
#
# Elastic Compliance Matrix: (Units=1/GPa)
#
#
# Indices 1 2 3 4 5 6 
#
# 1 0.023301 -0.014720 -0.005328 0.000000 0.000000 0.000000
# 2 -0.014720 0.023301 -0.005327 0.000000 0.000000 0.000000
# 3 -0.005328 -0.005327 0.033138 0.000000 0.000000 0.000000
# 4 0.000000 0.000000 0.000000 0.029786 0.000000 0.000000
# 5 0.000000 0.000000 0.000000 0.000000 0.029786 0.000000
# 6 0.000000 0.000000 0.000000 0.000000 0.000000 0.018553
#
#
# Mechanical properties :
#
#
# Convention : Reuss Voigt Hill
#
# Bulk Modulus (GPa) = 34.49566 46.95031 40.72298
# Shear Modulus (GPa) = 22.90653 31.08533 26.99593
#
# Velocity S-wave (km/s) = 3.13492 3.65195 3.40327
# Velocity P-wave (km/s) = 5.28238 6.15838 5.73712
#
# Compressibility (1/GPa) = 0.02898916
#
# Stress axis : x y z
#
# Youngs Moduli (GPa) = 42.91578 42.91649 30.17717
#
# Poissons Ratio (x) = 0.63175 0.16078
# Poissons Ratio (y) = 0.63174 0.16077
# Poissons Ratio (z) = 0.22864 0.22863
#
# Static dielectric constant tensor:
#      x y z
#    x 1.914440 0.000000 0.000000 
#    y 0.000000 1.914440 0.000000 
#    z 0.000000 0.000000 1.914740 
# 
# From -- ./inp_files/5563.got.cif
#   From: 2010.05.17/outbox.cif.g08.bks.cpg/sg94_3_cif.got.tgz:5563.got - 2010.06.03 19:43:16.
