data_PCOD9550523
_publ_section_title
;
Structure prediction by ZEFSAII (Michael W. Deem and Ramdas Pophale) SiO2 
 PCOD9550523
Probable space group: P 43 2 2
;
_chemical_formula_sum "Si O2"
_cell_formula_units_Z 32
_cell_length_a 9.033415
_cell_length_b 9.033415
_cell_length_c 17.240090
_cell_angle_alpha 90.000000
_cell_angle_beta 90.000000
_cell_angle_gamma 90.000000
_cell_volume 1406.835937
_symmetry_space_group_name_H-M "P 43 2 2"
_symmetry_group_IT_number 95
_symmetry_cell_setting 'tetragonal'
loop_
_space_group_symop_operation_xyz
x,y,z
-y,x,3/4+z
-x,-y,1/2+z
y,-x,1/4+z
x,-y,1/2-z
-x,y,-z
y,x,1/4-z
-y,-x,3/4-z
loop_
_atom_site_type_symbol
_atom_site_label
_atom_site_fract_x
_atom_site_fract_y
_atom_site_fract_z
Si Si1 0.099568 0.623381 0.804395
Si Si2 0.272828 0.352295 0.446454
Si Si3 0.797368 0.419236 0.063224
Si Si4 0.896224 0.127848 0.646969
O O1 0.023946 0.500000 0.750000
O O2 0.259148 0.347156 0.734014
O O3 0.120804 0.546466 0.887208
O O4 0.009388 0.774420 0.802928
O O5 0.372581 0.342177 0.368500
O O6 0.137337 0.244175 0.422806
O O7 0.237223 0.511811 0.480311
O O8 0.887236 0.265626 0.065476
O O9 0.977539 0.977539 0.625000
#
# Coordination Sequence:
#
# PCOD9550523 Si02
#       4
#     8   8   8   8
#     4  10  20  40  61  86 134 183 235 285 341 440
#     4   9  20  39  67  96 131 180 239 293 351 431
#     4   9  20  38  67  99 132 177 241 295 350 430
#     4  10  22  38  67  99 131 183 236 303 363 432
#
# _framework density 22.746079999999999
#
# number of rings (size 3 to 8) (size 9 to 14) (size 15 to 20)
#    1.500    1.000    0.000    2.250    0.000    4.000 
#    0.000   11.250    0.000    0.000    0.000    0.000 
#    0.000    0.000    0.000    0.000    0.000    0.000 
#
# Total GULP energy -178183.885208 kJ/mol
# GULP energy per Si atom -5568.246413 kJ/mol
# Density = 2.269431 g / cm^3
# Si number density = 22.746080 Si / 1000 Ang^3
#
#
#
# Elastic Constant Matrix: (Units=GPa)
#
#
# Indices 1 2 3 4 5 6 
#
# 1 96.7995 50.8405 35.7517 0.0000 0.0000 0.0000
# 2 50.8405 96.7995 35.7517 0.0000 0.0000 0.0000
# 3 35.7517 35.7517 68.4348 0.0000 0.0000 0.0000
# 4 0.0000 0.0000 0.0000 33.9079 0.0000 0.0000
# 5 0.0000 0.0000 0.0000 0.0000 33.9079 0.0000
# 6 0.0000 0.0000 0.0000 0.0000 0.0000 11.9860
#
#
#
# Elastic Compliance Matrix: (Units=1/GPa)
#
#
# Indices 1 2 3 4 5 6 
#
# 1 0.015413 -0.006346 -0.004737 0.000000 0.000000 0.000000
# 2 -0.006346 0.015413 -0.004737 0.000000 0.000000 0.000000
# 3 -0.004737 -0.004737 0.019562 0.000000 0.000000 0.000000
# 4 0.000000 0.000000 0.000000 0.029492 0.000000 0.000000
# 5 0.000000 0.000000 0.000000 0.000000 0.029492 0.000000
# 6 0.000000 0.000000 0.000000 0.000000 0.000000 0.083431
#
#
# Mechanical properties :
#
#
# Convention : Reuss Voigt Hill
#
# Bulk Modulus (GPa) = 53.33704 56.30238 54.81971
# Shear Modulus (GPa) = 21.67408 25.27302 23.47355
#
# Velocity S-wave (km/s) = 3.09021 3.33692 3.21593
# Velocity P-wave (km/s) = 6.01933 6.29707 6.15976
#
# Compressibility (1/GPa) = 0.01874870
#
# Stress axis : x y z
#
# Youngs Moduli (GPa) = 64.88048 64.88048 51.11993
#
# Poissons Ratio (x) = 0.41170 0.24215
# Poissons Ratio (y) = 0.41170 0.24215
# Poissons Ratio (z) = 0.30734 0.30734
#
# Static dielectric constant tensor:
#      x y z
#    x 1.902570 0.000000 0.000000 
#    y 0.000000 1.902570 0.000000 
#    z 0.000000 0.000000 1.944780 
# 
# From -- ./inp_files/6723.got.cif
#   From: 2010.05.17/outbox.cif.g08.bks.cpg/sg95_4_cif.got.tgz:6723.got - 2010.06.03 19:46:49.
