data_PCOD9550775
_publ_section_title
;
Structure prediction by ZEFSAII (Michael W. Deem and Ramdas Pophale) SiO2 
 PCOD9550775
Probable space group: P 43 21 2
;
_chemical_formula_sum "Si O2"
_cell_formula_units_Z 60
_cell_length_a 11.320194
_cell_length_b 11.320194
_cell_length_c 20.156026
_cell_angle_alpha 90.000000
_cell_angle_beta 90.000000
_cell_angle_gamma 90.000000
_cell_volume 2582.930075
_symmetry_space_group_name_H-M "P 43 21 2"
_symmetry_group_IT_number 96
_symmetry_cell_setting 'tetragonal'
loop_
_space_group_symop_operation_xyz
x,y,z
1/2-y,1/2+x,3/4+z
-x,-y,1/2+z
1/2+y,1/2-x,1/4+z
1/2+x,1/2-y,1/4-z
1/2-x,1/2+y,3/4-z
y,x,-z
-y,-x,1/2-z
loop_
_atom_site_type_symbol
_atom_site_label
_atom_site_fract_x
_atom_site_fract_y
_atom_site_fract_z
Si Si1 0.658569 0.556673 0.662616
Si Si2 0.762362 0.429574 0.776863
Si Si3 0.928329 0.201919 0.195320
Si Si4 0.071741 0.153046 0.807193
Si Si5 0.574484 0.425517 0.250000
Si Si6 0.957053 0.644473 0.486852
Si Si7 0.508843 0.099759 0.406194
Si Si8 0.871190 0.965181 0.841075
O O1 0.752729 0.528243 0.719050
O O2 0.653587 0.672631 0.617989
O O3 0.528817 0.549637 0.696855
O O4 0.650198 0.448220 0.611420
O O5 0.678376 0.321625 0.750000
O O6 0.892357 0.391263 0.798163
O O7 0.710029 0.483176 0.845075
O O8 0.897365 0.102636 0.250000
O O9 0.901278 0.324665 0.227936
O O10 0.064799 0.179733 0.178520
O O11 0.063595 0.184558 0.729520
O O12 0.073580 0.274851 0.844208
O O13 0.955955 0.077478 0.827938
O O14 0.712468 0.449761 0.234703
O O15 0.021361 0.586728 0.421971
O O16 0.009304 0.595462 0.556008
#
# Coordination Sequence:
#
# PCOD9550775 Si02
#       8
#     8   8   8   8   4   8   8   8
#     4  10  19  38  69 103 128 175 241 287 346 432
#     4  10  22  41  66 101 143 181 231 287 361 435
#     4  11  21  43  71 100 129 181 245 290 347 425
#     4  10  20  39  73  98 133 174 234 286 351 437
#     4  12  22  46  76  98 136 188 242 306 364 426
#     4  12  28  49  67 101 151 189 242 305 370 437
#     4  12  28  47  64 106 150 184 235 302 375 441
#     4   9  16  36  64 100 130 168 226 279 335 424
#
# _framework density 23.229434000000001
#
# number of rings (size 3 to 8) (size 9 to 14) (size 15 to 20)
#    0.000    1.333    5.333    3.200    1.867    1.067 
#    7.200    0.000    0.000    0.000    0.000    0.000 
#    0.000    0.000    0.000    0.000    0.000    0.000 
#
# Total GULP energy -334890.413947 kJ/mol
# GULP energy per Si atom -5581.506899 kJ/mol
# Density = 2.317656 g / cm^3
# Si number density = 23.229434 Si / 1000 Ang^3
#
#
#
# Elastic Constant Matrix: (Units=GPa)
#
#
# Indices 1 2 3 4 5 6 
#
# 1 70.0359 14.7071 9.6450 0.0000 0.0000 0.0000
# 2 14.7071 70.0362 9.6454 0.0000 0.0000 0.0000
# 3 9.6450 9.6454 119.0627 0.0000 0.0000 0.0000
# 4 0.0000 0.0000 0.0000 23.7908 0.0000 0.0000
# 5 0.0000 0.0000 0.0000 0.0000 23.7904 0.0000
# 6 0.0000 0.0000 0.0000 0.0000 0.0000 16.6675
#
#
#
# Elastic Compliance Matrix: (Units=1/GPa)
#
#
# Indices 1 2 3 4 5 6 
#
# 1 0.015048 -0.003026 -0.000974 0.000000 0.000000 0.000000
# 2 -0.003026 0.015048 -0.000974 0.000000 0.000000 0.000000
# 3 -0.000974 -0.000974 0.008557 0.000000 0.000000 0.000000
# 4 0.000000 0.000000 0.000000 0.042033 0.000000 0.000000
# 5 0.000000 0.000000 0.000000 0.000000 0.042034 0.000000
# 6 0.000000 0.000000 0.000000 0.000000 0.000000 0.059997
#
#
# Mechanical properties :
#
#
# Convention : Reuss Voigt Hill
#
# Bulk Modulus (GPa) = 34.83682 36.34774 35.59228
# Shear Modulus (GPa) = 24.72409 27.85890 26.29150
#
# Velocity S-wave (km/s) = 3.26597 3.46684 3.36790
# Velocity P-wave (km/s) = 5.40846 5.63086 5.52078
#
# Compressibility (1/GPa) = 0.02870526
#
# Stress axis : x y z
#
# Youngs Moduli (GPa) = 66.45443 66.45461 116.86718
#
# Poissons Ratio (x) = 0.20108 0.11381
# Poissons Ratio (y) = 0.20108 0.11382
# Poissons Ratio (z) = 0.06472 0.06472
#
# Static dielectric constant tensor:
#      x y z
#    x 1.889060 0.000000 0.000000 
#    y 0.000000 1.889060 0.000000 
#    z 0.000000 0.000000 1.964710 
# 
# From -- ./inp_files/3636.got.cif
#   From: 2010.05.17/outbox.cif.g08.bks.cpg/sg96_2_cif.got.tgz:3636.got - 2010.06.03 19:52:08.
