data_PCOD9550573
_publ_section_title
;
Structure prediction by ZEFSAII (Michael W. Deem and Ramdas Pophale) SiO2 
 PCOD9550573
Probable space group: P 43 2 2
;
_chemical_formula_sum "Si O2"
_cell_formula_units_Z 36
_cell_length_a 13.602625
_cell_length_b 13.602625
_cell_length_c 8.346961
_cell_angle_alpha 90.000000
_cell_angle_beta 90.000000
_cell_angle_gamma 90.000000
_cell_volume 1544.449937
_symmetry_space_group_name_H-M "P 43 2 2"
_symmetry_group_IT_number 95
_symmetry_cell_setting 'tetragonal'
loop_
_space_group_symop_operation_xyz
x,y,z
-y,x,3/4+z
-x,-y,1/2+z
y,-x,1/4+z
x,-y,1/2-z
-x,y,-z
y,x,1/4-z
-y,-x,3/4-z
loop_
_atom_site_type_symbol
_atom_site_label
_atom_site_fract_x
_atom_site_fract_y
_atom_site_fract_z
Si Si1 0.924662 0.672536 0.775128
Si Si2 0.621387 0.802278 0.761652
Si Si3 0.409423 0.590578 0.375000
Si Si4 0.488521 0.000000 0.750000
Si Si5 0.000000 0.188233 0.000000
Si Si6 0.826094 0.171003 0.555860
O O1 0.827922 0.655416 0.668972
O O2 0.984808 0.740525 0.652909
O O3 0.885295 0.729278 0.925883
O O4 0.978844 0.580241 0.847327
O O5 0.584744 0.690922 0.734986
O O6 0.549684 0.898361 0.782560
O O7 0.712405 0.809828 0.887615
O O8 0.410366 0.500000 0.250000
O O9 0.904174 0.132381 0.059274
O O10 0.852779 0.147222 0.375000
#
# Coordination Sequence:
#
# PCOD9550573 Si02
#       6
#     8   8   4   4   4   8
#     4  11  22  42  67 105 147 190 238 323 398 466
#     4  11  23  46  74 102 158 204 255 330 406 476
#     4  12  26  52  74 102 158 232 276 326 410 498
#     4  12  25  40  78 123 146 192 268 337 404 482
#     4  10  21  42  68  99 146 198 248 307 400 486
#     4  11  23  42  70 105 145 199 248 310 400 479
#
# _framework density 23.309270000000001
#
# number of rings (size 3 to 8) (size 9 to 14) (size 15 to 20)
#    0.000    0.889    2.222    8.000    0.000    1.778 
#    2.000    4.444    0.000   16.000    0.000    0.000 
#    0.000    0.000    0.000    0.000    0.000    0.000 
#
# Total GULP energy -200606.106251 kJ/mol
# GULP energy per Si atom -5572.391840 kJ/mol
# Density = 2.325622 g / cm^3
# Si number density = 23.309270 Si / 1000 Ang^3
#
#
#
# Elastic Constant Matrix: (Units=GPa)
#
#
# Indices 1 2 3 4 5 6 
#
# 1 131.7680 50.1786 25.5502 0.0000 0.0000 0.0000
# 2 50.1786 131.7680 25.5497 0.0000 0.0000 0.0000
# 3 25.5502 25.5497 94.2205 0.0000 0.0000 0.0000
# 4 0.0000 0.0000 0.0000 26.7123 0.0000 0.0000
# 5 0.0000 0.0000 0.0000 0.0000 26.7115 0.0000
# 6 0.0000 0.0000 0.0000 0.0000 0.0000 20.6427
#
#
#
# Elastic Compliance Matrix: (Units=1/GPa)
#
#
# Indices 1 2 3 4 5 6 
#
# 1 0.009103 -0.003154 -0.001613 0.000000 0.000000 0.000000
# 2 -0.003154 0.009103 -0.001613 0.000000 0.000000 0.000000
# 3 -0.001613 -0.001613 0.011488 0.000000 0.000000 0.000000
# 4 0.000000 0.000000 0.000000 0.037436 0.000000 0.000000
# 5 0.000000 0.000000 0.000000 0.000000 0.037437 0.000000
# 6 0.000000 0.000000 0.000000 0.000000 0.000000 0.048443
#
#
# Mechanical properties :
#
#
# Convention : Reuss Voigt Hill
#
# Bulk Modulus (GPa) = 59.05379 62.25708 60.65543
# Shear Modulus (GPa) = 29.16894 31.91182 30.54038
#
# Velocity S-wave (km/s) = 3.54133 3.70410 3.62363
# Velocity P-wave (km/s) = 6.48932 6.71274 6.60198
#
# Compressibility (1/GPa) = 0.01693371
#
# Stress axis : x y z
#
# Youngs Moduli (GPa) = 109.85554 109.85583 87.04479
#
# Poissons Ratio (x) = 0.34645 0.14043
# Poissons Ratio (y) = 0.34645 0.14042
# Poissons Ratio (z) = 0.17723 0.17722
#
# Static dielectric constant tensor:
#      x y z
#    x 2.162400 0.000000 0.000000 
#    y 0.000000 2.162420 0.000000 
#    z 0.000000 0.000000 2.135940 
# 
# From -- ./inp_files/2294.got.cif
#   From: 2010.05.17/outbox.cif.g08.bks.cpg/sg95_2_cif.got.tgz:2294.got - 2010.06.03 19:46:49.
