data_PCOD9550180
_publ_section_title
;
Structure prediction by ZEFSAII (Michael W. Deem and Ramdas Pophale) SiO2 
 PCOD9550180
Probable space group: P 42 21 2
;
_chemical_formula_sum "Si O2"
_cell_formula_units_Z 28
_cell_length_a 8.230360
_cell_length_b 8.230360
_cell_length_c 16.840591
_cell_angle_alpha 90.000000
_cell_angle_beta 90.000000
_cell_angle_gamma 90.000000
_cell_volume 1140.761859
_symmetry_space_group_name_H-M "P 42 21 2"
_symmetry_group_IT_number 94
_symmetry_cell_setting 'tetragonal'
loop_
_space_group_symop_operation_xyz
x,y,z
1/2-y,1/2+x,1/2+z
-x,-y,z
1/2+y,1/2-x,1/2+z
1/2+x,1/2-y,1/2-z
1/2-x,1/2+y,1/2-z
y,x,-z
-y,-x,-z
loop_
_atom_site_type_symbol
_atom_site_label
_atom_site_fract_x
_atom_site_fract_y
_atom_site_fract_z
Si Si1 0.500000 0.000000 0.835975
Si Si2 0.018619 0.186216 0.350102
Si Si3 0.687322 0.655247 0.588069
Si Si4 0.592278 0.265514 0.708596
O O1 0.661940 0.036947 0.888414
O O2 0.507981 0.153449 0.776245
O O3 0.155492 0.257775 0.407025
O O4 0.098414 0.178322 0.261935
O O5 0.855077 0.290137 0.340609
O O6 0.000000 0.000000 0.374031
O O7 0.626360 0.626360 0.500000
O O8 0.542582 0.661023 0.651575
#
# Coordination Sequence:
#
# PCOD9550180 Si02
#       4
#     4   8   8   8
#     4  10  22  40  70 106 142 200 262 304 370 472
#     4  11  23  41  75 104 141 191 258 314 378 463
#     4  11  25  42  73 106 154 197 245 323 390 454
#     4  11  23  44  73 108 141 199 260 317 380 466
#
# _framework density 24.544999000000001
#
# number of rings (size 3 to 8) (size 9 to 14) (size 15 to 20)
#    0.000    1.143    2.857    3.429    8.000    0.571 
#    0.000    0.000    0.000   21.429    0.000    0.000 
#    0.000    0.000    0.000    0.000    0.000    0.000 
#
# Total GULP energy -156736.564393 kJ/mol
# GULP energy per Si atom -5597.734443 kJ/mol
# Density = 2.448913 g / cm^3
# Si number density = 24.544999 Si / 1000 Ang^3
#
#
#
# Elastic Constant Matrix: (Units=GPa)
#
#
# Indices 1 2 3 4 5 6 
#
# 1 133.2550 62.2533 35.9520 0.0000 0.0000 0.0000
# 2 62.2533 133.2550 35.9520 0.0000 0.0000 0.0000
# 3 35.9520 35.9520 137.4860 0.0000 0.0000 0.0000
# 4 0.0000 0.0000 0.0000 -49.4124 0.0000 0.0000
# 5 0.0000 0.0000 0.0000 0.0000 -49.4124 0.0000
# 6 0.0000 0.0000 0.0000 0.0000 0.0000 74.8140
#
#
#
# Elastic Compliance Matrix: (Units=1/GPa)
#
#
# Indices 1 2 3 4 5 6 
#
# 1 0.009872 -0.004213 -0.001480 0.000000 0.000000 0.000000
# 2 -0.004213 0.009872 -0.001480 0.000000 0.000000 0.000000
# 3 -0.001480 -0.001480 0.008047 0.000000 0.000000 0.000000
# 4 0.000000 0.000000 0.000000 -0.020238 0.000000 0.000000
# 5 0.000000 0.000000 0.000000 0.000000 -0.020238 0.000000
# 6 0.000000 0.000000 0.000000 0.000000 0.000000 0.013366
#
#
# Mechanical properties :
#
#
# Convention : Reuss Voigt Hill
#
# Bulk Modulus (GPa) = 74.36985 74.70120 74.53553
# Shear Modulus (GPa) = 256.30431 13.18707 134.74569
#
# Velocity S-wave (km/s) = 10.22980 2.32040 7.41732
# Velocity P-wave (km/s) = 13.03446 6.13836 10.18765
#
# Compressibility (1/GPa) = 0.01344631
#
# Stress axis : x y z
#
# Youngs Moduli (GPa) = 101.30016 101.30016 124.26358
#
# Poissons Ratio (x) = 0.42673 0.18389
# Poissons Ratio (y) = 0.42673 0.18389
# Poissons Ratio (z) = 0.14991 0.14991
#
# Static dielectric constant tensor:
#      x y z
#    x 2.186090 0.000000 0.000000 
#    y 0.000000 2.186090 0.000000 
#    z 0.000000 0.000000 1.891730 
# 
# From -- ./inp_files/3812.got.cif
#   From: 2010.05.17/outbox.cif.g08.bks.cpg/sg94_2_cif.got.tgz:3812.got - 2010.06.03 19:43:16.
