data_PCOD9550912
_publ_section_title
;
Structure prediction by ZEFSAII (Michael W. Deem and Ramdas Pophale) SiO2 
 PCOD9550912
Probable space group: P 43 21 2
;
_chemical_formula_sum "Si O2"
_cell_formula_units_Z 64
_cell_length_a 23.897777
_cell_length_b 23.897777
_cell_length_c 5.477189
_cell_angle_alpha 90.000000
_cell_angle_beta 90.000000
_cell_angle_gamma 90.000000
_cell_volume 3128.043153
_symmetry_space_group_name_H-M "P 43 21 2"
_symmetry_group_IT_number 96
_symmetry_cell_setting 'tetragonal'
loop_
_space_group_symop_operation_xyz
x,y,z
1/2-y,1/2+x,3/4+z
-x,-y,1/2+z
1/2+y,1/2-x,1/4+z
1/2+x,1/2-y,1/4-z
1/2-x,1/2+y,3/4-z
y,x,-z
-y,-x,1/2-z
loop_
_atom_site_type_symbol
_atom_site_label
_atom_site_fract_x
_atom_site_fract_y
_atom_site_fract_z
Si Si1 0.955454 0.293643 0.036806
Si Si2 0.379262 0.331402 0.752780
Si Si3 0.161165 0.513484 0.178055
Si Si4 0.100478 0.626770 0.146606
Si Si5 0.714532 0.149195 0.167314
Si Si6 0.246345 0.703955 0.497254
Si Si7 0.663615 0.387339 0.996742
Si Si8 0.784853 0.005274 0.839033
O O1 0.921893 0.334629 0.862829
O O2 0.967107 0.235360 0.912294
O O3 0.915563 0.282693 0.262646
O O4 0.010061 0.324046 0.140112
O O5 0.360242 0.360242 0.500000
O O6 0.342990 0.273629 0.783466
O O7 0.445058 0.316332 0.730553
O O8 0.365398 0.365398 0.000000
O O9 0.125361 0.568197 0.229944
O O10 0.124989 0.457452 0.239583
O O11 0.223295 0.513121 0.302890
O O12 0.150159 0.660693 0.006918
O O13 0.706164 0.182488 0.418603
O O14 0.271462 0.728539 0.750000
O O15 0.276060 0.643910 0.482939
O O16 0.264161 0.735840 0.250000
O O17 0.632017 0.367984 0.750000
O O18 0.676551 0.452623 0.969734
O O19 0.633018 0.366983 0.250000
#
# Coordination Sequence:
#
# PCOD9550912 Si02
#       8
#     8   8   8   8   8   8   8   8
#     4  10  21  40  65  90 135 171 238 273 339 409
#     4  12  26  43  69 100 137 177 226 285 350 423
#     4  10  23  41  64  98 129 189 230 298 336 412
#     4  10  23  40  62  95 132 179 247 279 349 395
#     4  11  23  38  60  96 133 176 222 276 339 422
#     4  10  24  39  57  94 136 175 215 266 344 409
#     4  10  25  44  68 102 136 178 228 280 341 417
#     4  11  24  43  68  97 132 178 229 278 352 421
#
# _framework density 20.460075
#
# number of rings (size 3 to 8) (size 9 to 14) (size 15 to 20)
#    0.000    1.500    3.750    1.125    7.000    6.000 
#    2.250    0.000    0.000    1.500    0.000    0.000 
#    0.000    0.000    0.000    0.000    0.000    0.000 
#
# Total GULP energy -356586.716628 kJ/mol
# GULP energy per Si atom -5571.667447 kJ/mol
# Density = 2.041351 g / cm^3
# Si number density = 20.460075 Si / 1000 Ang^3
#
#
#
# Elastic Constant Matrix: (Units=GPa)
#
#
# Indices 1 2 3 4 5 6 
#
# 1 94.6534 62.9589 35.8633 0.0000 0.0000 0.0000
# 2 62.9589 94.6521 35.8685 0.0000 0.0000 0.0000
# 3 35.8633 35.8685 99.4907 0.0000 0.0000 0.0000
# 4 0.0000 0.0000 0.0000 15.3464 0.0000 0.0000
# 5 0.0000 0.0000 0.0000 0.0000 15.3497 0.0000
# 6 0.0000 0.0000 0.0000 0.0000 0.0000 32.0744
#
#
#
# Elastic Compliance Matrix: (Units=1/GPa)
#
#
# Indices 1 2 3 4 5 6 
#
# 1 0.019570 -0.011981 -0.002735 0.000000 0.000000 0.000000
# 2 -0.011981 0.019572 -0.002737 0.000000 0.000000 0.000000
# 3 -0.002735 -0.002737 0.012024 0.000000 0.000000 0.000000
# 4 0.000000 0.000000 0.000000 0.065162 0.000000 0.000000
# 5 0.000000 0.000000 0.000000 0.000000 0.065148 0.000000
# 6 0.000000 0.000000 0.000000 0.000000 0.000000 0.031178
#
#
# Mechanical properties :
#
#
# Convention : Reuss Voigt Hill
#
# Bulk Modulus (GPa) = 61.50332 62.01974 61.76153
# Shear Modulus (GPa) = 19.76449 22.82781 21.29615
#
# Velocity S-wave (km/s) = 3.11143 3.34387 3.22974
# Velocity P-wave (km/s) = 6.55999 6.72956 6.64531
#
# Compressibility (1/GPa) = 0.01625928
#
# Stress axis : x y z
#
# Youngs Moduli (GPa) = 51.09778 51.09468 83.16754
#
# Poissons Ratio (x) = 0.61216 0.22747
# Poissons Ratio (y) = 0.61220 0.22765
# Poissons Ratio (z) = 0.13976 0.13986
#
# Static dielectric constant tensor:
#      x y z
#    x 3.050880 0.000000 0.000000 
#    y 0.000000 3.051040 0.000000 
#    z 0.000000 0.000000 1.873800 
# 
# From -- ./inp_files/846.got.cif
#   From: 2010.05.17/outbox.cif.g08.bks.cpg/sg96_1_cif.got.tgz:846.got - 2010.06.03 19:52:08.
