data_PCOD9550219
_publ_section_title
;
Structure prediction by ZEFSAII (Michael W. Deem and Ramdas Pophale) SiO2 
 PCOD9550219
Probable space group: P 42 21 2
;
_chemical_formula_sum "Si O2"
_cell_formula_units_Z 38
_cell_length_a 11.187540
_cell_length_b 11.187540
_cell_length_c 14.932333
_cell_angle_alpha 90.000000
_cell_angle_beta 90.000000
_cell_angle_gamma 90.000000
_cell_volume 1868.946496
_symmetry_space_group_name_H-M "P 42 21 2"
_symmetry_group_IT_number 94
_symmetry_cell_setting 'tetragonal'
loop_
_space_group_symop_operation_xyz
x,y,z
1/2-y,1/2+x,1/2+z
-x,-y,z
1/2+y,1/2-x,1/2+z
1/2+x,1/2-y,1/2-z
1/2-x,1/2+y,1/2-z
y,x,-z
-y,-x,-z
loop_
_atom_site_type_symbol
_atom_site_label
_atom_site_fract_x
_atom_site_fract_y
_atom_site_fract_z
Si Si1 0.784269 0.351421 0.421686
Si Si2 0.500000 0.500000 0.000000
Si Si3 0.776226 0.223775 0.000000
Si Si4 0.851032 0.109511 0.351223
Si Si5 0.557066 0.623862 0.645952
Si Si6 0.011766 0.364352 0.544797
O O1 0.696141 0.303860 0.500000
O O2 0.801397 0.242819 0.354253
O O3 0.728670 0.463847 0.373953
O O4 0.910857 0.373245 0.468220
O O5 0.458939 0.402494 0.075771
O O6 0.841762 0.170981 0.087360
O O7 0.816316 0.362733 0.003981
O O8 0.886980 0.080010 0.251159
O O9 0.742283 0.027286 0.387734
O O10 0.500000 0.500000 0.613834
O O11 0.000000 0.500000 0.585030
#
# Coordination Sequence:
#
# PCOD9550219 Si02
#       6
#     8   2   4   8   8   8
#     4  10  22  46  68  93 140 179 222 299 348 403
#     4  12  18  48  72  96 130 176 238 288 330 426
#     4  12  26  42  71 105 140 188 226 296 360 426
#     4  11  25  43  71  98 133 185 231 286 351 416
#     4  12  26  44  70 102 137 186 240 283 348 435
#     4  11  23  45  68 100 141 183 230 290 365 420
#
# _framework density 20.332312000000002
#
# number of rings (size 3 to 8) (size 9 to 14) (size 15 to 20)
#    0.000    0.842    6.316    2.211    5.895    0.000 
#    3.789    0.000    0.000    0.000    0.000    0.000 
#    0.000    0.000    0.000    0.000    0.000    0.000 
#
# Total GULP energy -211803.044511 kJ/mol
# GULP energy per Si atom -5573.764329 kJ/mol
# Density = 2.028603 g / cm^3
# Si number density = 20.332312 Si / 1000 Ang^3
#
#
#
# Elastic Constant Matrix: (Units=GPa)
#
#
# Indices 1 2 3 4 5 6 
#
# 1 64.7226 21.2131 28.3736 0.0000 0.0000 0.0000
# 2 21.2131 64.7219 28.3752 0.0000 0.0000 0.0000
# 3 28.3736 28.3752 112.0140 0.0000 0.0000 0.0000
# 4 0.0000 0.0000 0.0000 8.4347 0.0000 0.0000
# 5 0.0000 0.0000 0.0000 0.0000 8.4351 0.0000
# 6 0.0000 0.0000 0.0000 0.0000 0.0000 25.5122
#
#
#
# Elastic Compliance Matrix: (Units=1/GPa)
#
#
# Indices 1 2 3 4 5 6 
#
# 1 0.018479 -0.004505 -0.003540 0.000000 0.000000 0.000000
# 2 -0.004505 0.018479 -0.003540 0.000000 0.000000 0.000000
# 3 -0.003540 -0.003540 0.010721 0.000000 0.000000 0.000000
# 4 0.000000 0.000000 0.000000 0.118557 0.000000 0.000000
# 5 0.000000 0.000000 0.000000 0.000000 0.118552 0.000000
# 6 0.000000 0.000000 0.000000 0.000000 0.000000 0.039197
#
#
# Mechanical properties :
#
#
# Convention : Reuss Voigt Hill
#
# Bulk Modulus (GPa) = 40.79972 44.15359 42.47665
# Shear Modulus (GPa) = 14.07166 19.37619 16.72392
#
# Velocity S-wave (km/s) = 2.63360 3.09038 2.87109
# Velocity P-wave (km/s) = 5.41829 5.87342 5.65044
#
# Compressibility (1/GPa) = 0.02450997
#
# Stress axis : x y z
#
# Youngs Moduli (GPa) = 54.11634 54.11490 93.27654
#
# Poissons Ratio (x) = 0.24377 0.33016
# Poissons Ratio (y) = 0.24378 0.33020
# Poissons Ratio (z) = 0.19155 0.19157
#
# Static dielectric constant tensor:
#      x y z
#    x 1.788950 0.000000 0.000000 
#    y 0.000000 1.788950 0.000000 
#    z 0.000000 0.000000 1.684140 
# 
# From -- ./inp_files/3469.got.cif
#   From: 2010.05.17/outbox.cif.g08.bks.cpg/sg94_2_cif.got.tgz:3469.got - 2010.06.03 19:43:16.
