data_PCOD9550215
_publ_section_title
;
Structure prediction by ZEFSAII (Michael W. Deem and Ramdas Pophale) SiO2 
 PCOD9550215
Probable space group: P 42 21 2
;
_chemical_formula_sum "Si O2"
_cell_formula_units_Z 40
_cell_length_a 11.937836
_cell_length_b 11.937836
_cell_length_c 13.705316
_cell_angle_alpha 90.000000
_cell_angle_beta 90.000000
_cell_angle_gamma 90.000000
_cell_volume 1953.171012
_symmetry_space_group_name_H-M "P 42 21 2"
_symmetry_group_IT_number 94
_symmetry_cell_setting 'tetragonal'
loop_
_space_group_symop_operation_xyz
x,y,z
1/2-y,1/2+x,1/2+z
-x,-y,z
1/2+y,1/2-x,1/2+z
1/2+x,1/2-y,1/2-z
1/2-x,1/2+y,1/2-z
y,x,-z
-y,-x,-z
loop_
_atom_site_type_symbol
_atom_site_label
_atom_site_fract_x
_atom_site_fract_y
_atom_site_fract_z
Si Si1 0.605644 0.224899 0.553126
Si Si2 0.372113 0.989032 0.665932
Si Si3 0.398615 0.579562 0.287170
Si Si4 0.282176 0.955263 0.873652
Si Si5 0.787956 0.807512 0.609840
O O1 0.699586 0.300415 0.500000
O O2 0.665831 0.123074 0.609420
O O3 0.544912 0.307186 0.631536
O O4 0.515528 0.182676 0.473726
O O5 0.364014 0.967520 0.781672
O O6 0.500000 0.000000 0.638669
O O7 0.306436 0.100964 0.636194
O O8 0.500000 0.500000 0.257104
O O9 0.469892 0.678023 0.338268
O O10 0.330833 0.620066 0.192984
O O11 0.255370 0.823955 0.886765
O O12 0.828799 0.828799 0.500000
#
# Coordination Sequence:
#
# PCOD9550215 Si02
#       5
#     8   8   8   8   8
#     4  10  22  45  69 100 135 177 229 282 347 400
#     4  11  24  43  66  99 136 175 223 279 343 408
#     4  10  23  42  66  98 128 173 227 279 328 399
#     4  10  23  40  69  98 128 175 220 279 332 402
#     4  11  24  42  65  99 134 175 223 273 346 407
#
# _framework density 20.479517000000001
#
# number of rings (size 3 to 8) (size 9 to 14) (size 15 to 20)
#    0.000    1.600    2.000    1.200    5.600    5.600 
#    7.200    0.000    0.000    0.000    0.000    0.000 
#    0.000    0.000    0.000    0.000    0.000    0.000 
#
# Total GULP energy -223118.798816 kJ/mol
# GULP energy per Si atom -5577.969970 kJ/mol
# Density = 2.043290 g / cm^3
# Si number density = 20.479517 Si / 1000 Ang^3
#
#
#
# Elastic Constant Matrix: (Units=GPa)
#
#
# Indices 1 2 3 4 5 6 
#
# 1 73.9676 11.0418 51.4979 0.0000 0.0000 0.0000
# 2 11.0418 73.9677 51.4979 0.0000 0.0000 0.0000
# 3 51.4979 51.4979 171.2994 0.0000 0.0000 0.0000
# 4 0.0000 0.0000 0.0000 22.5146 0.0000 0.0000
# 5 0.0000 0.0000 0.0000 0.0000 22.5146 0.0000
# 6 0.0000 0.0000 0.0000 0.0000 0.0000 16.4520
#
#
#
# Elastic Compliance Matrix: (Units=1/GPa)
#
#
# Indices 1 2 3 4 5 6 
#
# 1 0.017197 0.001306 -0.005563 0.000000 0.000000 0.000000
# 2 0.001306 0.017197 -0.005563 0.000000 0.000000 0.000000
# 3 -0.005563 -0.005563 0.009182 0.000000 0.000000 0.000000
# 4 0.000000 0.000000 0.000000 0.044416 0.000000 0.000000
# 5 0.000000 0.000000 0.000000 0.000000 0.044416 0.000000
# 6 0.000000 0.000000 0.000000 0.000000 0.000000 0.060783
#
#
# Mechanical properties :
#
#
# Convention : Reuss Voigt Hill
#
# Bulk Modulus (GPa) = 41.77487 60.81223 51.29355
# Shear Modulus (GPa) = 22.64399 25.97605 24.31002
#
# Velocity S-wave (km/s) = 3.32880 3.56531 3.44908
# Velocity P-wave (km/s) = 5.93441 6.83427 6.40017
#
# Compressibility (1/GPa) = 0.02393784
#
# Stress axis : x y z
#
# Youngs Moduli (GPa) = 58.14868 58.14878 108.90548
#
# Poissons Ratio (x) = -0.07592 0.60579
# Poissons Ratio (y) = -0.07592 0.60579
# Poissons Ratio (z) = 0.32345 0.32345
#
# Static dielectric constant tensor:
#      x y z
#    x 1.778210 0.000000 0.000000 
#    y 0.000000 1.778210 0.000000 
#    z 0.000000 0.000000 1.754860 
# 
# From -- ./inp_files/3382.got.cif
#   From: 2010.05.17/outbox.cif.g08.bks.cpg/sg94_2_cif.got.tgz:3382.got - 2010.06.03 19:43:16.
