data_PCOD9550934
_publ_section_title
;
Structure prediction by ZEFSAII (Michael W. Deem and Ramdas Pophale) SiO2 
 PCOD9550934
Probable space group: P 43 21 2
;
_chemical_formula_sum "Si O2"
_cell_formula_units_Z 60
_cell_length_a 16.756887
_cell_length_b 16.756887
_cell_length_c 9.669656
_cell_angle_alpha 90.000000
_cell_angle_beta 90.000000
_cell_angle_gamma 90.000000
_cell_volume 2715.174250
_symmetry_space_group_name_H-M "P 43 21 2"
_symmetry_group_IT_number 96
_symmetry_cell_setting 'tetragonal'
loop_
_space_group_symop_operation_xyz
x,y,z
1/2-y,1/2+x,3/4+z
-x,-y,1/2+z
1/2+y,1/2-x,1/4+z
1/2+x,1/2-y,1/4-z
1/2-x,1/2+y,3/4-z
y,x,-z
-y,-x,1/2-z
loop_
_atom_site_type_symbol
_atom_site_label
_atom_site_fract_x
_atom_site_fract_y
_atom_site_fract_z
Si Si1 0.862213 0.137788 0.250000
Si Si2 0.716285 0.076304 0.086406
Si Si3 0.470150 0.756191 0.827628
Si Si4 0.175240 0.127703 0.291947
Si Si5 0.108062 0.025465 0.888818
Si Si6 0.234129 0.605564 0.185593
Si Si7 0.244556 0.378734 0.477573
Si Si8 0.040277 0.420314 0.071429
O O1 0.776696 0.123444 0.183966
O O2 0.933860 0.120371 0.144529
O O3 0.625589 0.100008 0.111143
O O4 0.717474 0.981805 0.120750
O O5 0.743380 0.089702 0.929256
O O6 0.396680 0.744243 0.934447
O O7 0.450947 0.689870 0.713995
O O8 0.548964 0.738368 0.918328
O O9 0.485931 0.839477 0.754079
O O10 0.089461 0.096585 0.234989
O O11 0.160806 0.221027 0.323338
O O12 0.203998 0.093327 0.438190
O O13 0.038951 0.038951 0.000000
O O14 0.160347 0.656263 0.244355
O O15 0.309405 0.309405 0.500000
O O16 0.983986 0.449644 0.196306
#
# Coordination Sequence:
#
# PCOD9550934 Si02
#       8
#     4   8   8   8   8   8   8   8
#     4  12  24  44  70  98 144 184 232 300 360 436
#     4  12  27  47  70 106 148 188 246 313 362 444
#     4  11  26  46  70 104 146 184 243 304 362 448
#     4  10  21  44  72  98 134 191 235 295 362 445
#     4  10  23  43  66 100 139 180 232 290 363 435
#     4  11  23  43  73  96 137 192 244 291 372 443
#     4  12  26  43  72 108 146 189 245 306 372 436
#     4  12  31  49  77 107 146 198 249 310 374 442
#
# _framework density 22.098027999999999
#
# number of rings (size 3 to 8) (size 9 to 14) (size 15 to 20)
#    0.000    0.800    4.000    2.400    7.467    2.133 
#    6.000    0.000    0.000    0.000    0.000    0.000 
#    0.000    0.000    0.000    0.000    0.000    0.000 
#
# Total GULP energy -335293.557455 kJ/mol
# GULP energy per Si atom -5588.225958 kJ/mol
# Density = 2.204773 g / cm^3
# Si number density = 22.098028 Si / 1000 Ang^3
#
#
#
# Elastic Constant Matrix: (Units=GPa)
#
#
# Indices 1 2 3 4 5 6 
#
# 1 104.5580 -18.0478 31.8044 0.0000 0.0000 0.0000
# 2 -18.0478 104.5529 31.8095 0.0000 0.0000 0.0000
# 3 31.8044 31.8095 85.6000 0.0000 0.0000 0.0000
# 4 0.0000 0.0000 0.0000 24.7242 0.0000 0.0000
# 5 0.0000 0.0000 0.0000 0.0000 24.7262 0.0000
# 6 0.0000 0.0000 0.0000 0.0000 0.0000 17.1619
#
#
#
# Elastic Compliance Matrix: (Units=1/GPa)
#
#
# Indices 1 2 3 4 5 6 
#
# 1 0.012031 0.003875 -0.005910 0.000000 0.000000 0.000000
# 2 0.003875 0.012032 -0.005911 0.000000 0.000000 0.000000
# 3 -0.005910 -0.005911 0.016074 0.000000 0.000000 0.000000
# 4 0.000000 0.000000 0.000000 0.040446 0.000000 0.000000
# 5 0.000000 0.000000 0.000000 0.000000 0.040443 0.000000
# 6 0.000000 0.000000 0.000000 0.000000 0.000000 0.058269
#
#
# Mechanical properties :
#
#
# Convention : Reuss Voigt Hill
#
# Bulk Modulus (GPa) = 41.24540 42.87147 42.05844
# Shear Modulus (GPa) = 24.59813 29.93211 27.26512
#
# Velocity S-wave (km/s) = 3.33999 3.68437 3.51640
# Velocity P-wave (km/s) = 5.79477 6.12716 5.96328
#
# Compressibility (1/GPa) = 0.02424513
#
# Stress axis : x y z
#
# Youngs Moduli (GPa) = 83.12203 83.11411 62.21059
#
# Poissons Ratio (x) = -0.32204 0.36765
# Poissons Ratio (y) = -0.32207 0.36771
# Poissons Ratio (z) = 0.49123 0.49126
#
# Static dielectric constant tensor:
#      x y z
#    x 1.840750 0.000000 0.000000 
#    y 0.000000 1.840730 0.000000 
#    z 0.000000 0.000000 1.727850 
# 
# From -- ./inp_files/1621.got.cif
#   From: 2010.05.17/outbox.cif.g08.bks.cpg/sg96_1_cif.got.tgz:1621.got - 2010.06.03 19:52:08.
