data_PCOD9550415
_publ_section_title
;
Structure prediction by ZEFSAII (Michael W. Deem and Ramdas Pophale) SiO2 
 PCOD9550415
Probable space group: P 43 2 2
;
_chemical_formula_sum "Si O2"
_cell_formula_units_Z 40
_cell_length_a 22.721057
_cell_length_b 22.721057
_cell_length_c 5.106499
_cell_angle_alpha 90.000000
_cell_angle_beta 90.000000
_cell_angle_gamma 90.000000
_cell_volume 2636.211885
_symmetry_space_group_name_H-M "P 43 2 2"
_symmetry_group_IT_number 95
_symmetry_cell_setting 'tetragonal'
loop_
_space_group_symop_operation_xyz
x,y,z
-y,x,3/4+z
-x,-y,1/2+z
y,-x,1/4+z
x,-y,1/2-z
-x,y,-z
y,x,1/4-z
-y,-x,3/4-z
loop_
_atom_site_type_symbol
_atom_site_label
_atom_site_fract_x
_atom_site_fract_y
_atom_site_fract_z
Si Si1 0.184378 0.721713 0.856315
Si Si2 0.334277 0.239044 0.107391
Si Si3 0.673146 0.936742 0.201804
Si Si4 0.590116 0.064138 0.795251
Si Si5 0.193830 0.460757 0.000267
O O1 0.215542 0.784459 0.875000
O O2 0.196838 0.700636 0.560906
O O3 0.217292 0.677577 0.061137
O O4 0.117435 0.717148 0.943722
O O5 0.302881 0.302881 0.125000
O O6 0.400727 0.230201 0.204041
O O7 0.621810 0.930568 0.422230
O O8 0.701354 0.000000 0.250000
O O9 0.640937 0.936757 0.922898
O O10 0.553985 0.123605 0.746060
O O11 0.559575 0.000000 0.750000
O O12 0.204846 0.500000 0.250000
O O13 0.208789 0.500000 0.750000
#
# Coordination Sequence:
#
# PCOD9550415 Si02
#       5
#     8   8   8   8   8
#     4  10  17  29  49  67  85 115 157 194 231 277
#     4  10  20  34  50  67  90 117 150 189 236 274
#     4  10  17  29  46  63  89 121 156 194 230 270
#     4  10  20  32  45  61  92 129 161 189 221 259
#     4  12  22  32  49  68  94 120 158 196 225 268
#
# _framework density 15.173285
#
# number of rings (size 3 to 8) (size 9 to 14) (size 15 to 20)
#    0.000    1.600    4.000    2.400    0.000    0.800 
#    0.000    0.000    0.000    0.000    0.000    0.000 
#    0.000    1.600    0.000   10.800    0.000    0.000 
#
# Total GULP energy -222918.766653 kJ/mol
# GULP energy per Si atom -5572.969166 kJ/mol
# Density = 1.513875 g / cm^3
# Si number density = 15.173285 Si / 1000 Ang^3
#
#
#
# Elastic Constant Matrix: (Units=GPa)
#
#
# Indices 1 2 3 4 5 6 
#
# 1 74.6180 47.8233 12.6205 0.0000 0.0000 0.0000
# 2 47.8233 74.6160 12.6198 0.0000 0.0000 0.0000
# 3 12.6205 12.6198 63.2251 0.0000 0.0000 0.0000
# 4 0.0000 0.0000 0.0000 14.5699 0.0000 0.0000
# 5 0.0000 0.0000 0.0000 0.0000 14.5702 0.0000
# 6 0.0000 0.0000 0.0000 0.0000 0.0000 21.1592
#
#
#
# Elastic Compliance Matrix: (Units=1/GPa)
#
#
# Indices 1 2 3 4 5 6 
#
# 1 0.022920 -0.014402 -0.001700 0.000000 0.000000 0.000000
# 2 -0.014402 0.022920 -0.001700 0.000000 0.000000 0.000000
# 3 -0.001700 -0.001700 0.016495 0.000000 0.000000 0.000000
# 4 0.000000 0.000000 0.000000 0.068634 0.000000 0.000000
# 5 0.000000 0.000000 0.000000 0.000000 0.068633 0.000000
# 6 0.000000 0.000000 0.000000 0.000000 0.000000 0.047261
#
#
# Mechanical properties :
#
#
# Convention : Reuss Voigt Hill
#
# Bulk Modulus (GPa) = 37.41125 39.84293 38.62709
# Shear Modulus (GPa) = 17.15978 19.35290 18.25634
#
# Velocity S-wave (km/s) = 3.36656 3.57523 3.47247
# Velocity P-wave (km/s) = 6.31040 6.58473 6.44902
#
# Compressibility (1/GPa) = 0.02672993
#
# Stress axis : x y z
#
# Youngs Moduli (GPa) = 43.63060 43.62957 60.62355
#
# Poissons Ratio (x) = 0.62836 0.10308
# Poissons Ratio (y) = 0.62838 0.10306
# Poissons Ratio (z) = 0.07419 0.07417
#
# Static dielectric constant tensor:
#      x y z
#    x 1.515610 0.000000 0.000000 
#    y 0.000000 1.515610 0.000000 
#    z 0.000000 0.000000 1.519640 
# 
# From -- ./inp_files/1077.got.cif
#   From: 2010.05.17/outbox.cif.g08.bks.cpg/sg95_1_cif.got.tgz:1077.got - 2010.06.03 19:46:49.
