data_PCOD9550006
_publ_section_title
;
Structure prediction by ZEFSAII (Michael W. Deem and Ramdas Pophale) SiO2 
 PCOD9550006
Probable space group: P 42 21 2
;
_chemical_formula_sum "Si O2"
_cell_formula_units_Z 48
_cell_length_a 10.823524
_cell_length_b 10.823524
_cell_length_c 17.579010
_cell_angle_alpha 90.000000
_cell_angle_beta 90.000000
_cell_angle_gamma 90.000000
_cell_volume 2059.357673
_symmetry_space_group_name_H-M "P 42 21 2"
_symmetry_group_IT_number 94
_symmetry_cell_setting 'tetragonal'
loop_
_space_group_symop_operation_xyz
x,y,z
1/2-y,1/2+x,1/2+z
-x,-y,z
1/2+y,1/2-x,1/2+z
1/2+x,1/2-y,1/2-z
1/2-x,1/2+y,1/2-z
y,x,-z
-y,-x,-z
loop_
_atom_site_type_symbol
_atom_site_label
_atom_site_fract_x
_atom_site_fract_y
_atom_site_fract_z
Si Si1 0.140756 0.451746 0.242945
Si Si2 0.685059 0.818253 0.438965
Si Si3 0.692588 0.905853 0.903010
Si Si4 0.283356 0.579479 0.837522
Si Si5 0.387979 0.577524 0.307343
Si Si6 0.452915 0.133491 0.047846
O O1 0.147491 0.411584 0.154393
O O2 0.142758 0.331133 0.295096
O O3 0.257629 0.527766 0.274283
O O4 0.000000 0.500000 0.250952
O O5 0.708148 0.708148 0.500000
O O6 0.556221 0.803929 0.394415
O O7 0.809580 0.832200 0.390115
O O8 0.670543 0.938186 0.490443
O O9 0.818816 0.855576 0.869014
O O10 0.661987 0.880592 0.991151
O O11 0.369214 0.544069 0.768018
O O12 0.234140 0.463239 0.886008
O O13 0.500000 0.500000 0.343634
O O14 0.500000 0.000000 0.077624
#
# Coordination Sequence:
#
# PCOD9550006 Si02
#       6
#     8   8   8   8   8   8
#     4  11  22  38  62  89 120 163 217 264 320 397
#     4   9  17  33  61  92 124 164 209 259 322 393
#     4  10  20  36  63  91 126 168 214 269 328 403
#     4  10  20  34  60  90 123 161 204 265 325 386
#     4  11  24  40  63  95 130 166 215 279 342 396
#     4   9  17  33  59  89 122 166 213 255 315 397
#
# _framework density 23.308237999999999
#
# number of rings (size 3 to 8) (size 9 to 14) (size 15 to 20)
#    0.000    2.000    0.000    5.000    0.000    4.000 
#    0.000    0.000    0.000   62.000    0.000    0.000 
#    0.000    0.000    0.000    0.000    0.000    0.000 
#
# Total GULP energy -267843.285371 kJ/mol
# GULP energy per Si atom -5580.068445 kJ/mol
# Density = 2.325519 g / cm^3
# Si number density = 23.308238 Si / 1000 Ang^3
#
#
#
# Elastic Constant Matrix: (Units=GPa)
#
#
# Indices 1 2 3 4 5 6 
#
# 1 75.1656 32.1336 24.4837 0.0000 0.0000 0.0000
# 2 32.1336 75.1656 24.4837 0.0000 0.0000 0.0000
# 3 24.4837 24.4837 79.7218 0.0000 0.0000 0.0000
# 4 0.0000 0.0000 0.0000 40.3041 0.0000 0.0000
# 5 0.0000 0.0000 0.0000 0.0000 40.3041 0.0000
# 6 0.0000 0.0000 0.0000 0.0000 0.0000 32.0888
#
#
#
# Elastic Compliance Matrix: (Units=1/GPa)
#
#
# Indices 1 2 3 4 5 6 
#
# 1 0.017039 -0.006200 -0.003329 0.000000 0.000000 0.000000
# 2 -0.006200 0.017039 -0.003329 0.000000 0.000000 0.000000
# 3 -0.003329 -0.003329 0.014588 0.000000 0.000000 0.000000
# 4 0.000000 0.000000 0.000000 0.024811 0.000000 0.000000
# 5 0.000000 0.000000 0.000000 0.000000 0.024811 0.000000
# 6 0.000000 0.000000 0.000000 0.000000 0.000000 0.031164
#
#
# Mechanical properties :
#
#
# Convention : Reuss Voigt Hill
#
# Bulk Modulus (GPa) = 43.57130 43.58390 43.57760
# Shear Modulus (GPa) = 30.70934 32.46953 31.58944
#
# Velocity S-wave (km/s) = 3.63372 3.73641 3.68542
# Velocity P-wave (km/s) = 6.02821 6.11178 6.07014
#
# Compressibility (1/GPa) = 0.02295089
#
# Stress axis : x y z
#
# Youngs Moduli (GPa) = 58.68995 58.68995 68.54841
#
# Poissons Ratio (x) = 0.36387 0.22818
# Poissons Ratio (y) = 0.36387 0.22818
# Poissons Ratio (z) = 0.19536 0.19536
#
# Static dielectric constant tensor:
#      x y z
#    x 1.921360 0.000000 0.000000 
#    y 0.000000 1.921360 0.000000 
#    z 0.000000 0.000000 1.895570 
# 
# From -- ./inp_files/4128.got.cif
#   From: 2010.05.17/outbox.cif.g08.bks.cpg/sg94_3_cif.got.tgz:4128.got - 2010.06.03 19:43:16.
