data_PCOD9550911
_publ_section_title
;
Structure prediction by ZEFSAII (Michael W. Deem and Ramdas Pophale) SiO2 
 PCOD9550911
Probable space group: P 43 21 2
;
_chemical_formula_sum "Si O2"
_cell_formula_units_Z 60
_cell_length_a 13.564799
_cell_length_b 13.564799
_cell_length_c 14.581585
_cell_angle_alpha 90.000000
_cell_angle_beta 90.000000
_cell_angle_gamma 90.000000
_cell_volume 2683.066640
_symmetry_space_group_name_H-M "P 43 21 2"
_symmetry_group_IT_number 96
_symmetry_cell_setting 'tetragonal'
loop_
_space_group_symop_operation_xyz
x,y,z
1/2-y,1/2+x,3/4+z
-x,-y,1/2+z
1/2+y,1/2-x,1/4+z
1/2+x,1/2-y,1/4-z
1/2-x,1/2+y,3/4-z
y,x,-z
-y,-x,1/2-z
loop_
_atom_site_type_symbol
_atom_site_label
_atom_site_fract_x
_atom_site_fract_y
_atom_site_fract_z
Si Si1 0.654835 0.788104 0.447515
Si Si2 0.616223 0.121380 0.563415
Si Si3 0.251933 0.490173 0.307986
Si Si4 0.185167 0.041639 0.635915
Si Si5 0.123814 0.320391 0.227859
Si Si6 0.328158 0.382123 0.593843
Si Si7 0.076896 0.593740 0.647389
Si Si8 0.513122 0.513122 0.000000
O O1 0.695228 0.695228 0.500000
O O2 0.547715 0.759096 0.412024
O O3 0.714713 0.808659 0.356025
O O4 0.650578 0.875991 0.520414
O O5 0.560976 0.212152 0.612240
O O6 0.725764 0.109123 0.604707
O O7 0.616698 0.118261 0.453194
O O8 0.558206 0.022297 0.594295
O O9 0.301715 0.547120 0.222844
O O10 0.162326 0.422096 0.271461
O O11 0.329292 0.410381 0.344838
O O12 0.237564 0.126468 0.694279
O O13 0.078939 0.016877 0.680069
O O14 0.021623 0.346044 0.174850
O O15 0.318512 0.318512 0.500000
O O16 0.383721 0.480641 0.557034
#
# Coordination Sequence:
#
# PCOD9550911 Si02
#       8
#     8   8   8   8   8   8   8   4
#     4  10  21  40  64  99 138 175 236 279 338 414
#     4  12  25  43  73  97 148 179 230 297 363 420
#     4  11  26  44  73 104 139 189 236 295 354 438
#     4  10  23  42  73  96 136 190 231 286 355 423
#     4  10  23  41  66 107 138 171 243 284 348 435
#     4  10  27  48  64 102 140 181 243 289 348 439
#     4  11  23  41  69 103 138 188 221 292 365 414
#     4  10  24  50  68  90 146 182 238 296 360 426
#
# _framework density 22.362472
#
# number of rings (size 3 to 8) (size 9 to 14) (size 15 to 20)
#    0.400    1.067    2.000    1.600   11.200    2.667 
#    0.000    0.000    0.000    0.000    0.000    0.000 
#    0.000    0.000    0.000    0.000    0.000    0.000 
#
# Total GULP energy -334795.181526 kJ/mol
# GULP energy per Si atom -5579.919692 kJ/mol
# Density = 2.231157 g / cm^3
# Si number density = 22.362472 Si / 1000 Ang^3
#
#
#
# Elastic Constant Matrix: (Units=GPa)
#
#
# Indices 1 2 3 4 5 6 
#
# 1 39.1404 7.4582 22.7037 0.0000 0.0000 0.0000
# 2 7.4582 39.1404 22.7037 0.0000 0.0000 0.0000
# 3 22.7037 22.7037 124.1469 0.0000 0.0000 0.0000
# 4 0.0000 0.0000 0.0000 26.3327 0.0000 0.0000
# 5 0.0000 0.0000 0.0000 0.0000 26.3327 0.0000
# 6 0.0000 0.0000 0.0000 0.0000 0.0000 23.6089
#
#
#
# Elastic Compliance Matrix: (Units=1/GPa)
#
#
# Indices 1 2 3 4 5 6 
#
# 1 0.028838 -0.002725 -0.004776 0.000000 0.000000 0.000000
# 2 -0.002725 0.028838 -0.004776 0.000000 0.000000 0.000000
# 3 -0.004776 -0.004776 0.009802 0.000000 0.000000 0.000000
# 4 0.000000 0.000000 0.000000 0.037976 0.000000 0.000000
# 5 0.000000 0.000000 0.000000 0.000000 0.037976 0.000000
# 6 0.000000 0.000000 0.000000 0.000000 0.000000 0.042357
#
#
# Mechanical properties :
#
#
# Convention : Reuss Voigt Hill
#
# Bulk Modulus (GPa) = 23.29586 34.23991 28.76788
# Shear Modulus (GPa) = 22.25709 25.22567 23.74138
#
# Velocity S-wave (km/s) = 3.15824 3.36227 3.26185
# Velocity P-wave (km/s) = 4.87230 5.51522 5.20370
#
# Compressibility (1/GPa) = 0.04292608
#
# Stress axis : x y z
#
# Youngs Moduli (GPa) = 34.67601 34.67601 102.02351
#
# Poissons Ratio (x) = 0.09449 0.48722
# Poissons Ratio (y) = 0.09449 0.48722
# Poissons Ratio (z) = 0.16560 0.16560
#
# Static dielectric constant tensor:
#      x y z
#    x 1.863840 0.000000 0.000000 
#    y 0.000000 1.863840 0.000000 
#    z 0.000000 0.000000 1.889300 
# 
# From -- ./inp_files/2813.got.cif
#   From: 2010.05.17/outbox.cif.g08.bks.cpg/sg96_2_cif.got.tgz:2813.got - 2010.06.03 19:52:08.
