data_PCOD9550601
_publ_section_title
;
Structure prediction by ZEFSAII (Michael W. Deem and Ramdas Pophale) SiO2 
 PCOD9550601
Probable space group: P 43 2 2
;
_chemical_formula_sum "Si O2"
_cell_formula_units_Z 56
_cell_length_a 14.906605
_cell_length_b 14.906605
_cell_length_c 11.656196
_cell_angle_alpha 90.000000
_cell_angle_beta 90.000000
_cell_angle_gamma 90.000000
_cell_volume 2590.086860
_symmetry_space_group_name_H-M "P 43 2 2"
_symmetry_group_IT_number 95
_symmetry_cell_setting 'tetragonal'
loop_
_space_group_symop_operation_xyz
x,y,z
-y,x,3/4+z
-x,-y,1/2+z
y,-x,1/4+z
x,-y,1/2-z
-x,y,-z
y,x,1/4-z
-y,-x,3/4-z
loop_
_atom_site_type_symbol
_atom_site_label
_atom_site_fract_x
_atom_site_fract_y
_atom_site_fract_z
Si Si1 0.825102 0.358329 0.573320
Si Si2 0.893501 0.166812 0.498522
Si Si3 0.381912 0.601750 0.252195
Si Si4 0.835733 0.987341 0.621172
Si Si5 0.524179 0.053657 0.867531
Si Si6 0.357637 0.585930 0.001382
Si Si7 0.840885 0.701513 0.681872
O O1 0.853036 0.263924 0.521885
O O2 0.903690 0.428640 0.587183
O O3 0.749352 0.410089 0.504068
O O4 0.794841 0.332193 0.701863
O O5 0.863287 0.136714 0.375000
O O6 0.000000 0.171733 0.500000
O O7 0.859839 0.086444 0.579594
O O8 0.342600 0.500000 0.250000
O O9 0.353787 0.646214 0.375000
O O10 0.379063 0.638879 0.120697
O O11 0.489213 0.599546 0.269893
O O12 0.925565 0.925565 0.625000
O O13 0.761050 0.932336 0.549370
O O14 0.800211 0.000000 0.750000
O O15 0.607683 0.123996 0.878096
O O16 0.547450 0.000000 0.750000
O O17 0.500000 0.017598 0.000000
O O18 0.384004 0.615997 0.875000
O O19 0.775540 0.775540 0.625000
#
# Coordination Sequence:
#
# PCOD9550601 Si02
#       7
#     8   8   8   8   8   8   8
#     4  11  25  40  57  88 130 171 214 266 321 393
#     4  12  23  39  63  90 125 169 209 256 327 401
#     4   9  19  36  61  87 114 155 203 262 336 401
#     4  11  21  37  62  95 124 150 197 263 327 387
#     4  10  23  45  69  93 128 178 227 275 334 410
#     4  11  21  37  58  86 122 159 207 268 328 384
#     4  10  22  42  66  93 127 166 219 280 333 396
#
# _framework density 21.620898
#
# number of rings (size 3 to 8) (size 9 to 14) (size 15 to 20)
#    0.000    1.429    0.000    7.286    0.000    8.000 
#    0.000    2.857    0.000    0.000    0.000    0.000 
#    0.000    0.000    0.000    0.000    0.000    0.000 
#
# Total GULP energy -311889.140574 kJ/mol
# GULP energy per Si atom -5569.448939 kJ/mol
# Density = 2.157169 g / cm^3
# Si number density = 21.620898 Si / 1000 Ang^3
#
#
#
# Elastic Constant Matrix: (Units=GPa)
#
#
# Indices 1 2 3 4 5 6 
#
# 1 67.0657 10.1342 5.3549 0.0000 0.0000 0.0000
# 2 10.1342 67.0683 5.3566 0.0000 0.0000 0.0000
# 3 5.3549 5.3566 147.0157 0.0000 0.0000 0.0000
# 4 0.0000 0.0000 0.0000 25.6658 0.0000 0.0000
# 5 0.0000 0.0000 0.0000 0.0000 25.6596 0.0000
# 6 0.0000 0.0000 0.0000 0.0000 0.0000 80.3795
#
#
#
# Elastic Compliance Matrix: (Units=1/GPa)
#
#
# Indices 1 2 3 4 5 6 
#
# 1 0.015292 -0.002273 -0.000474 0.000000 0.000000 0.000000
# 2 -0.002273 0.015291 -0.000474 0.000000 0.000000 0.000000
# 3 -0.000474 -0.000474 0.006837 0.000000 0.000000 0.000000
# 4 0.000000 0.000000 0.000000 0.038962 0.000000 0.000000
# 5 0.000000 0.000000 0.000000 0.000000 0.038972 0.000000
# 6 0.000000 0.000000 0.000000 0.000000 0.000000 0.012441
#
#
# Mechanical properties :
#
#
# Convention : Reuss Voigt Hill
#
# Bulk Modulus (GPa) = 32.28163 35.87124 34.07643
# Shear Modulus (GPa) = 34.58681 43.69458 39.14070
#
# Velocity S-wave (km/s) = 4.00396 4.50037 4.25940
# Velocity P-wave (km/s) = 6.02816 6.60541 6.32337
#
# Compressibility (1/GPa) = 0.03097737
#
# Stress axis : x y z
#
# Youngs Moduli (GPa) = 65.39340 65.39585 146.27263
#
# Poissons Ratio (x) = 0.14863 0.06936
# Poissons Ratio (y) = 0.14863 0.06939
# Poissons Ratio (z) = 0.03101 0.03102
#
# Static dielectric constant tensor:
#      x y z
#    x 1.793110 0.000000 0.000000 
#    y 0.000000 1.793110 0.000000 
#    z 0.000000 0.000000 1.871830 
# 
# From -- ./inp_files/3984.got.cif
#   From: 2010.05.17/outbox.cif.g08.bks.cpg/sg95_2_cif.got.tgz:3984.got - 2010.06.03 19:46:49.
