data_PCOD9550667
_publ_section_title
;
Structure prediction by ZEFSAII (Michael W. Deem and Ramdas Pophale) SiO2 
 PCOD9550667
Probable space group: P 43 2 2
;
_chemical_formula_sum "Si O2"
_cell_formula_units_Z 56
_cell_length_a 14.755342
_cell_length_b 14.755342
_cell_length_c 11.654605
_cell_angle_alpha 90.000000
_cell_angle_beta 90.000000
_cell_angle_gamma 90.000000
_cell_volume 2537.441970
_symmetry_space_group_name_H-M "P 43 2 2"
_symmetry_group_IT_number 95
_symmetry_cell_setting 'tetragonal'
loop_
_space_group_symop_operation_xyz
x,y,z
-y,x,3/4+z
-x,-y,1/2+z
y,-x,1/4+z
x,-y,1/2-z
-x,y,-z
y,x,1/4-z
-y,-x,3/4-z
loop_
_atom_site_type_symbol
_atom_site_label
_atom_site_fract_x
_atom_site_fract_y
_atom_site_fract_z
Si Si1 0.828245 0.408651 0.401224
Si Si2 0.094117 0.403736 0.966577
Si Si3 0.265593 0.903223 0.682573
Si Si4 0.637504 0.463633 0.459653
Si Si5 0.340685 0.339108 0.927174
Si Si6 0.156658 0.275421 0.804243
Si Si7 0.168912 0.303359 0.186535
O O1 0.860809 0.512427 0.398966
O O2 0.858804 0.358946 0.518495
O O3 0.721187 0.421484 0.388230
O O4 0.857938 0.333025 0.310015
O O5 0.080325 0.312593 0.890280
O O6 0.135302 0.367835 0.085261
O O7 0.000000 0.446743 0.000000
O O8 0.184693 0.829627 0.710079
O O9 0.275995 0.898237 0.542685
O O10 0.253537 0.000000 0.750000
O O11 0.552944 0.447057 0.375000
O O12 0.641448 0.409318 0.575987
O O13 0.659129 0.566197 0.491246
O O14 0.244311 0.317765 0.868558
O O15 0.356069 0.252536 0.004464
O O16 0.214798 0.214798 0.125000
#
# Coordination Sequence:
#
# PCOD9550667 Si02
#       7
#     8   8   8   8   8   8   8
#     4  12  22  42  66 104 143 187 241 299 375 440
#     4  12  27  44  69 108 143 191 244 300 384 455
#     4  11  24  42  70 108 140 188 256 310 360 445
#     4  12  21  38  65  95 137 190 248 296 346 429
#     4  11  23  41  64  94 135 191 247 295 354 431
#     4  11  22  44  71  97 145 193 233 298 381 440
#     4  11  22  48  67  96 147 192 237 301 385 444
#
# _framework density 22.069469999999999
#
# number of rings (size 3 to 8) (size 9 to 14) (size 15 to 20)
#    0.000    0.571    8.571    1.714    2.000    0.571 
#    5.143    6.429    0.000    0.000    0.000    8.000 
#    0.000    0.000    0.000    0.000    0.000    0.000 
#
# Total GULP energy -312240.115020 kJ/mol
# GULP energy per Si atom -5575.716340 kJ/mol
# Density = 2.201924 g / cm^3
# Si number density = 22.069470 Si / 1000 Ang^3
#
#
#
# Elastic Constant Matrix: (Units=GPa)
#
#
# Indices 1 2 3 4 5 6 
#
# 1 84.3798 11.1851 25.5218 0.0000 0.0000 0.0000
# 2 11.1851 84.3785 25.5217 0.0000 0.0000 0.0000
# 3 25.5218 25.5217 125.3566 0.0000 0.0000 0.0000
# 4 0.0000 0.0000 0.0000 19.2762 0.0000 0.0000
# 5 0.0000 0.0000 0.0000 0.0000 19.2764 0.0000
# 6 0.0000 0.0000 0.0000 0.0000 0.0000 18.5241
#
#
#
# Elastic Compliance Matrix: (Units=1/GPa)
#
#
# Indices 1 2 3 4 5 6 
#
# 1 0.012702 -0.000961 -0.002390 0.000000 0.000000 0.000000
# 2 -0.000961 0.012702 -0.002390 0.000000 0.000000 0.000000
# 3 -0.002390 -0.002390 0.008951 0.000000 0.000000 0.000000
# 4 0.000000 0.000000 0.000000 0.051877 0.000000 0.000000
# 5 0.000000 0.000000 0.000000 0.000000 0.051877 0.000000
# 6 0.000000 0.000000 0.000000 0.000000 0.000000 0.053984
#
#
# Mechanical properties :
#
#
# Convention : Reuss Voigt Hill
#
# Bulk Modulus (GPa) = 43.72363 46.50802 45.11583
# Shear Modulus (GPa) = 23.67440 26.87442 25.27441
#
# Velocity S-wave (km/s) = 3.27880 3.49337 3.38778
# Velocity P-wave (km/s) = 5.84712 6.11480 5.98246
#
# Compressibility (1/GPa) = 0.02287093
#
# Stress axis : x y z
#
# Youngs Moduli (GPa) = 78.73077 78.72952 111.72468
#
# Poissons Ratio (x) = 0.07563 0.26706
# Poissons Ratio (y) = 0.07564 0.26707
# Poissons Ratio (z) = 0.18819 0.18819
#
# Static dielectric constant tensor:
#      x y z
#    x 1.848720 0.000000 0.000000 
#    y 0.000000 1.848720 0.000000 
#    z 0.000000 0.000000 1.898960 
# 
# From -- ./inp_files/3977.got.cif
#   From: 2010.05.17/outbox.cif.g08.bks.cpg/sg95_2_cif.got.tgz:3977.got - 2010.06.03 19:46:49.
