data_PCOD9550475
_publ_section_title
;
Structure prediction by ZEFSAII (Michael W. Deem and Ramdas Pophale) SiO2 
 PCOD9550475
Probable space group: P 43 2 2
;
_chemical_formula_sum "Si O2"
_cell_formula_units_Z 48
_cell_length_a 16.970475
_cell_length_b 16.970475
_cell_length_c 10.331711
_cell_angle_alpha 90.000000
_cell_angle_beta 90.000000
_cell_angle_gamma 90.000000
_cell_volume 2975.501997
_symmetry_space_group_name_H-M "P 43 2 2"
_symmetry_group_IT_number 95
_symmetry_cell_setting 'tetragonal'
loop_
_space_group_symop_operation_xyz
x,y,z
-y,x,3/4+z
-x,-y,1/2+z
y,-x,1/4+z
x,-y,1/2-z
-x,y,-z
y,x,1/4-z
-y,-x,3/4-z
loop_
_atom_site_type_symbol
_atom_site_label
_atom_site_fract_x
_atom_site_fract_y
_atom_site_fract_z
Si Si1 0.699962 0.049281 0.466050
Si Si2 0.814048 0.138650 0.655197
Si Si3 0.748554 0.748554 0.625000
Si Si4 0.885095 0.300780 0.559141
Si Si5 0.438040 0.978250 0.387933
Si Si6 0.928279 0.000000 0.750000
Si Si7 0.590217 0.808979 0.512137
O O1 0.770574 0.085388 0.548293
O O2 0.681699 0.103283 0.341952
O O3 0.634296 0.033640 0.574507
O O4 0.708810 0.965407 0.393289
O O5 0.763214 0.181819 0.768696
O O6 0.847083 0.215137 0.580179
O O7 0.875742 0.077952 0.720456
O O8 0.661058 0.756824 0.567442
O O9 0.839509 0.373183 0.626320
O O10 0.500000 0.990520 0.500000
O O11 0.471806 0.000000 0.250000
O O12 0.414716 0.886908 0.397763
O O13 0.980634 0.980634 0.625000
O O14 0.500000 0.779201 0.500000
#
# Coordination Sequence:
#
# PCOD9550475 Si02
#       7
#     8   8   4   8   8   4   8
#     4  10  20  32  54  68 103 134 183 217 274 316
#     4  11  21  35  52  73  99 143 184 232 277 320
#     4  10  20  36  56  78 106 136 180 220 288 332
#     4   9  20  35  49  77 101 142 172 230 271 324
#     4  10  21  31  50  77 106 140 175 216 270 320
#     4  12  26  38  54  72 106 144 202 250 278 320
#     4   9  19  33  55  76 111 134 174 219 272 330
#
# _framework density 16.131730999999998
#
# number of rings (size 3 to 8) (size 9 to 14) (size 15 to 20)
#    0.000    2.000    0.833    2.500   12.833    2.667 
#    0.000    0.000    0.000    0.000    0.000    0.000 
#   10.000    0.000    0.000    0.000    0.000    0.000 
#
# Total GULP energy -267262.069936 kJ/mol
# GULP energy per Si atom -5567.959790 kJ/mol
# Density = 1.609501 g / cm^3
# Si number density = 16.131731 Si / 1000 Ang^3
#
#
#
# Elastic Constant Matrix: (Units=GPa)
#
#
# Indices 1 2 3 4 5 6 
#
# 1 39.8645 44.6236 26.2374 0.0000 0.0000 0.0000
# 2 44.6236 39.8645 26.2374 0.0000 0.0000 0.0000
# 3 26.2374 26.2374 103.9624 0.0000 0.0000 0.0000
# 4 0.0000 0.0000 0.0000 18.0585 0.0000 0.0000
# 5 0.0000 0.0000 0.0000 0.0000 18.0585 0.0000
# 6 0.0000 0.0000 0.0000 0.0000 0.0000 -25.4472
#
#
#
# Elastic Compliance Matrix: (Units=1/GPa)
#
#
# Indices 1 2 3 4 5 6 
#
# 1 -0.098044 0.112080 -0.003542 0.000000 0.000000 0.000000
# 2 0.112080 -0.098044 -0.003542 0.000000 0.000000 0.000000
# 3 -0.003542 -0.003542 0.011407 0.000000 0.000000 0.000000
# 4 0.000000 0.000000 0.000000 0.055376 0.000000 0.000000
# 5 0.000000 0.000000 0.000000 0.000000 0.055376 0.000000
# 6 0.000000 0.000000 0.000000 0.000000 0.000000 -0.039297
#
#
# Mechanical properties :
#
#
# Convention : Reuss Voigt Hill
#
# Bulk Modulus (GPa) = 39.51055 41.98755 40.74905
# Shear Modulus (GPa) = -15.88411 7.90683 -3.98864
#
# Velocity S-wave (km/s) = -3.14132 2.21632 -1.57414
# Velocity P-wave (km/s) = 3.37468 5.71260 4.69160
#
# Compressibility (1/GPa) = 0.02530970
#
# Stress axis : x y z
#
# Youngs Moduli (GPa) = -10.19954 -10.19954 87.66663
#
# Poissons Ratio (x) = 1.14316 0.31055
# Poissons Ratio (y) = 1.14316 0.31055
# Poissons Ratio (z) = -0.03613 -0.03613
#
# Static dielectric constant tensor:
#      x y z
#    x 1.581560 0.000000 0.000000 
#    y 0.000000 1.581560 0.000000 
#    z 0.000000 0.000000 1.540600 
# 
# From -- ./inp_files/3931.got.cif
#   From: 2010.05.17/outbox.cif.g08.bks.cpg/sg95_2_cif.got.tgz:3931.got - 2010.06.03 19:46:49.
