data_PCOD9550262
_publ_section_title
;
Structure prediction by ZEFSAII (Michael W. Deem and Ramdas Pophale) SiO2 
 PCOD9550262
Probable space group: P 42 21 2
;
_chemical_formula_sum "Si O2"
_cell_formula_units_Z 28
_cell_length_a 8.268543
_cell_length_b 8.268543
_cell_length_c 17.709047
_cell_angle_alpha 90.000000
_cell_angle_beta 90.000000
_cell_angle_gamma 90.000000
_cell_volume 1210.746352
_symmetry_space_group_name_H-M "P 42 21 2"
_symmetry_group_IT_number 94
_symmetry_cell_setting 'tetragonal'
loop_
_space_group_symop_operation_xyz
x,y,z
1/2-y,1/2+x,1/2+z
-x,-y,z
1/2+y,1/2-x,1/2+z
1/2+x,1/2-y,1/2-z
1/2-x,1/2+y,1/2-z
y,x,-z
-y,-x,-z
loop_
_atom_site_type_symbol
_atom_site_label
_atom_site_fract_x
_atom_site_fract_y
_atom_site_fract_z
Si Si1 0.309769 0.938206 0.194627
Si Si2 0.742131 0.418236 0.935188
Si Si3 0.500000 0.000000 0.452163
Si Si4 0.738701 0.216761 0.354431
O O1 0.308824 0.785238 0.137299
O O2 0.248976 0.877032 0.275054
O O3 0.500000 0.000000 0.199509
O O4 0.212098 0.093900 0.164757
O O5 0.714270 0.595017 0.901159
O O6 0.615470 0.384530 0.000000
O O7 0.898269 0.397739 0.988122
O O8 0.605821 0.120517 0.402105
#
# Coordination Sequence:
#
# PCOD9550262 Si02
#       4
#     8   8   4   8
#     4  10  23  48  71 108 150 190 253 309 379 455
#     4  11  26  47  74 110 142 192 247 310 376 442
#     4  12  24  46  72  98 152 186 242 308 364 436
#     4  11  24  47  75 103 147 200 242 311 375 454
#
# _framework density 23.12623
#
# number of rings (size 3 to 8) (size 9 to 14) (size 15 to 20)
#    0.000    1.143    5.714    0.857    4.000    2.286 
#    5.143    8.571    0.000    0.000    0.000    0.000 
#    0.000    0.000    0.000    0.000    0.000    0.000 
#
# Total GULP energy -156347.557301 kJ/mol
# GULP energy per Si atom -5583.841332 kJ/mol
# Density = 2.307359 g / cm^3
# Si number density = 23.126230 Si / 1000 Ang^3
#
#
#
# Elastic Constant Matrix: (Units=GPa)
#
#
# Indices 1 2 3 4 5 6 
#
# 1 92.9549 -2.0094 64.4425 0.0000 0.0000 0.0000
# 2 -2.0094 92.9718 64.4439 0.0000 0.0000 0.0000
# 3 64.4425 64.4439 217.8413 0.0000 0.0000 0.0000
# 4 0.0000 0.0000 0.0000 51.9188 0.0000 0.0000
# 5 0.0000 0.0000 0.0000 0.0000 51.9184 0.0000
# 6 0.0000 0.0000 0.0000 0.0000 0.0000 39.2466
#
#
#
# Elastic Compliance Matrix: (Units=1/GPa)
#
#
# Indices 1 2 3 4 5 6 
#
# 1 0.014731 0.004200 -0.005600 0.000000 0.000000 0.000000
# 2 0.004200 0.014728 -0.005600 0.000000 0.000000 0.000000
# 3 -0.005600 -0.005600 0.007904 0.000000 0.000000 0.000000
# 4 0.000000 0.000000 0.000000 0.019261 0.000000 0.000000
# 5 0.000000 0.000000 0.000000 0.000000 0.019261 0.000000
# 6 0.000000 0.000000 0.000000 0.000000 0.000000 0.025480
#
#
# Mechanical properties :
#
#
# Convention : Reuss Voigt Hill
#
# Bulk Modulus (GPa) = 42.80117 73.05802 57.92960
# Shear Modulus (GPa) = 40.60017 47.07616 43.83817
#
# Velocity S-wave (km/s) = 4.19452 4.51668 4.35858
# Velocity P-wave (km/s) = 6.48124 7.67203 7.10164
#
# Compressibility (1/GPa) = 0.02336385
#
# Stress axis : x y z
#
# Youngs Moduli (GPa) = 67.88265 67.89737 126.52199
#
# Poissons Ratio (x) = -0.28519 0.70858
# Poissons Ratio (y) = -0.28513 0.70847
# Poissons Ratio (z) = 0.38017 0.38020
#
# Static dielectric constant tensor:
#      x y z
#    x 1.640500 0.000000 0.000000 
#    y 0.000000 1.640480 0.000000 
#    z 0.000000 0.000000 1.834790 
# 
# From -- ./inp_files/3822.got.cif
#   From: 2010.05.17/outbox.cif.g08.bks.cpg/sg94_2_cif.got.tgz:3822.got - 2010.06.03 19:43:16.
