data_PCOD9550110
_publ_section_title
;
Structure prediction by ZEFSAII (Michael W. Deem and Ramdas Pophale) SiO2 
 PCOD9550110
Probable space group: P 42 21 2
;
_chemical_formula_sum "Si O2"
_cell_formula_units_Z 40
_cell_length_a 9.291419
_cell_length_b 9.291419
_cell_length_c 21.727883
_cell_angle_alpha 90.000000
_cell_angle_beta 90.000000
_cell_angle_gamma 90.000000
_cell_volume 1875.778287
_symmetry_space_group_name_H-M "P 42 21 2"
_symmetry_group_IT_number 94
_symmetry_cell_setting 'tetragonal'
loop_
_space_group_symop_operation_xyz
x,y,z
1/2-y,1/2+x,1/2+z
-x,-y,z
1/2+y,1/2-x,1/2+z
1/2+x,1/2-y,1/2-z
1/2-x,1/2+y,1/2-z
y,x,-z
-y,-x,-z
loop_
_atom_site_type_symbol
_atom_site_label
_atom_site_fract_x
_atom_site_fract_y
_atom_site_fract_z
Si Si1 0.857127 0.395603 0.376054
Si Si2 0.656677 0.569401 0.150149
Si Si3 0.159083 0.441410 0.485493
Si Si4 0.560245 0.662517 0.708817
Si Si5 0.215193 0.717204 0.099519
O O1 0.866742 0.225247 0.379147
O O2 0.773727 0.447800 0.437276
O O3 0.766090 0.436843 0.316706
O O4 0.000000 0.500000 0.372177
O O5 0.500000 0.500000 0.153610
O O6 0.703698 0.592318 0.220930
O O7 0.751291 0.448574 0.115443
O O8 0.228545 0.415871 0.551329
O O9 0.163201 0.294767 0.443635
O O10 0.000000 0.500000 0.497203
O O11 0.500000 0.500000 0.705794
O O12 0.693582 0.688682 0.661874
#
# Coordination Sequence:
#
# PCOD9550110 Si02
#       5
#     8   8   8   8   8
#     4  10  21  40  61  86 123 162 202 257 317 373
#     4  11  21  37  64  93 122 161 209 259 314 377
#     4   9  19  39  59  82 122 157 196 255 308 361
#     4  10  22  39  59  90 127 163 205 256 316 374
#     4  10  21  39  60  87 123 163 209 258 307 378
#
# _framework density 21.324480999999999
#
# number of rings (size 3 to 8) (size 9 to 14) (size 15 to 20)
#    0.000    2.000    0.000    4.800    0.000    3.200 
#    0.000   30.000    0.000    0.000    0.000    0.000 
#    0.000    0.000    0.000    0.000    0.000    0.000 
#
# Total GULP energy -222735.872867 kJ/mol
# GULP energy per Si atom -5568.396822 kJ/mol
# Density = 2.127595 g / cm^3
# Si number density = 21.324481 Si / 1000 Ang^3
#
#
#
# Elastic Constant Matrix: (Units=GPa)
#
#
# Indices 1 2 3 4 5 6 
#
# 1 103.6662 23.1493 35.9768 0.0000 0.0000 0.0000
# 2 23.1493 103.6662 35.9768 0.0000 0.0000 0.0000
# 3 35.9768 35.9768 128.6436 0.0000 0.0000 0.0000
# 4 0.0000 0.0000 0.0000 11.3244 0.0000 0.0000
# 5 0.0000 0.0000 0.0000 0.0000 11.3244 0.0000
# 6 0.0000 0.0000 0.0000 0.0000 0.0000 29.0098
#
#
#
# Elastic Compliance Matrix: (Units=1/GPa)
#
#
# Indices 1 2 3 4 5 6 
#
# 1 0.010896 -0.001524 -0.002621 0.000000 0.000000 0.000000
# 2 -0.001524 0.010896 -0.002621 0.000000 0.000000 0.000000
# 3 -0.002621 -0.002621 0.009240 0.000000 0.000000 0.000000
# 4 0.000000 0.000000 0.000000 0.088305 0.000000 0.000000
# 5 0.000000 0.000000 0.000000 0.000000 0.088305 0.000000
# 6 0.000000 0.000000 0.000000 0.000000 0.000000 0.034471
#
#
# Mechanical properties :
#
#
# Convention : Reuss Voigt Hill
#
# Bulk Modulus (GPa) = 57.14238 58.46464 57.80351
# Shear Modulus (GPa) = 19.12203 26.38991 22.75597
#
# Velocity S-wave (km/s) = 2.99777 3.52169 3.27024
# Velocity P-wave (km/s) = 6.23193 6.63420 6.43621
#
# Compressibility (1/GPa) = 0.01750015
#
# Stress axis : x y z
#
# Youngs Moduli (GPa) = 91.77489 91.77489 108.23078
#
# Poissons Ratio (x) = 0.13982 0.28369
# Poissons Ratio (y) = 0.13982 0.28369
# Poissons Ratio (z) = 0.24056 0.24056
#
# Static dielectric constant tensor:
#      x y z
#    x 1.841820 0.000000 0.000000 
#    y 0.000000 1.841820 0.000000 
#    z 0.000000 0.000000 1.788430 
# 
# From -- ./inp_files/4952.got.cif
#   From: 2010.05.17/outbox.cif.g08.bks.cpg/sg94_3_cif.got.tgz:4952.got - 2010.06.03 19:43:16.
