data_PCOD9550004
_publ_section_title
;
Structure prediction by ZEFSAII (Michael W. Deem and Ramdas Pophale) SiO2 
 PCOD9550004
Probable space group: P 42 21 2
;
_chemical_formula_sum "Si O2"
_cell_formula_units_Z 32
_cell_length_a 7.140212
_cell_length_b 7.140212
_cell_length_c 24.991030
_cell_angle_alpha 90.000000
_cell_angle_beta 90.000000
_cell_angle_gamma 90.000000
_cell_volume 1274.108371
_symmetry_space_group_name_H-M "P 42 21 2"
_symmetry_group_IT_number 94
_symmetry_cell_setting 'tetragonal'
loop_
_space_group_symop_operation_xyz
x,y,z
1/2-y,1/2+x,1/2+z
-x,-y,z
1/2+y,1/2-x,1/2+z
1/2+x,1/2-y,1/2-z
1/2-x,1/2+y,1/2-z
y,x,-z
-y,-x,-z
loop_
_atom_site_type_symbol
_atom_site_label
_atom_site_fract_x
_atom_site_fract_y
_atom_site_fract_z
Si Si1 0.760844 0.630849 0.804281
Si Si2 0.000000 0.500000 0.392486
Si Si3 0.209368 0.293293 0.566736
Si Si4 0.500000 0.500000 0.000000
Si Si5 0.500000 0.500000 0.500000
Si Si6 0.882076 0.706651 0.684999
O O1 0.816017 0.635260 0.742448
O O2 0.604840 0.785136 0.812438
O O3 0.683010 0.423912 0.815070
O O4 0.914572 0.650321 0.850259
O O5 0.117481 0.354954 0.427603
O O6 0.032668 0.185114 0.538374
O O7 0.315004 0.463610 0.536447
O O8 0.173468 0.360873 0.626691
#
# Coordination Sequence:
#
# PCOD9550004 Si02
#       6
#     8   4   8   2   2   8
#     4  10  20  34  55  86 117 149 191 238 300 383
#     4  10  20  36  58  84 116 148 192 242 304 374
#     4  10  21  38  59  82 114 156 202 258 310 365
#     4  10  20  40  60  76 108 160 216 246 300 374
#     4  10  24  40  56  84 116 152 208 266 312 354
#     4  10  20  35  56  83 117 154 191 240 305 371
#
# _framework density 25.115604999999999
#
# number of rings (size 3 to 8) (size 9 to 14) (size 15 to 20)
#    0.000    2.000    0.000    6.000    0.000    5.000 
#    0.000    0.000    0.000    1.500    0.000    0.000 
#    0.000    0.000    0.000    0.000    0.000    0.000 
#
# Total GULP energy -178465.326076 kJ/mol
# GULP energy per Si atom -5577.041440 kJ/mol
# Density = 2.505844 g / cm^3
# Si number density = 25.115605 Si / 1000 Ang^3
#
#
#
# Elastic Constant Matrix: (Units=GPa)
#
#
# Indices 1 2 3 4 5 6 
#
# 1 82.7125 40.3932 61.1071 0.0000 0.0000 0.0000
# 2 40.3932 82.7125 61.1071 0.0000 0.0000 0.0000
# 3 61.1071 61.1071 190.7113 0.0000 0.0000 0.0000
# 4 0.0000 0.0000 0.0000 -80.8561 0.0000 0.0000
# 5 0.0000 0.0000 0.0000 0.0000 -80.8561 0.0000
# 6 0.0000 0.0000 0.0000 0.0000 0.0000 45.3135
#
#
#
# Elastic Compliance Matrix: (Units=1/GPa)
#
#
# Indices 1 2 3 4 5 6 
#
# 1 0.017771 -0.005859 -0.003817 0.000000 0.000000 0.000000
# 2 -0.005859 0.017771 -0.003817 0.000000 0.000000 0.000000
# 3 -0.003817 -0.003817 0.007690 0.000000 0.000000 0.000000
# 4 0.000000 0.000000 0.000000 -0.012368 0.000000 0.000000
# 5 0.000000 0.000000 0.000000 0.000000 -0.012368 0.000000
# 6 0.000000 0.000000 0.000000 0.000000 0.000000 0.022068
#
#
# Mechanical properties :
#
#
# Convention : Reuss Voigt Hill
#
# Bulk Modulus (GPa) = 61.55132 75.70568 68.62850
# Shear Modulus (GPa) = 68.52537 -10.37781 29.07378
#
# Velocity S-wave (km/s) = 5.22907 -2.03494 3.40604
# Velocity P-wave (km/s) = 7.81140 4.96860 6.54618
#
# Compressibility (1/GPa) = 0.01624661
#
# Stress axis : x y z
#
# Youngs Moduli (GPa) = 56.27109 56.27109 130.04662
#
# Poissons Ratio (x) = 0.32968 0.49638
# Poissons Ratio (y) = 0.32968 0.49638
# Poissons Ratio (z) = 0.21478 0.21478
#
# Static dielectric constant tensor:
#      x y z
#    x 2.217190 0.000000 0.000000 
#    y 0.000000 2.217190 0.000000 
#    z 0.000000 0.000000 1.961630 
# 
# From -- ./inp_files/4892.got.cif
#   From: 2010.05.17/outbox.cif.g08.bks.cpg/sg94_3_cif.got.tgz:4892.got - 2010.06.03 19:43:16.
