data_PCOD9550031
_publ_section_title
;
Structure prediction by ZEFSAII (Michael W. Deem and Ramdas Pophale) SiO2 
 PCOD9550031
Probable space group: P 42 21 2
;
_chemical_formula_sum "Si O2"
_cell_formula_units_Z 56
_cell_length_a 13.235045
_cell_length_b 13.235045
_cell_length_c 13.571449
_cell_angle_alpha 90.000000
_cell_angle_beta 90.000000
_cell_angle_gamma 90.000000
_cell_volume 2377.262083
_symmetry_space_group_name_H-M "P 42 21 2"
_symmetry_group_IT_number 94
_symmetry_cell_setting 'tetragonal'
loop_
_space_group_symop_operation_xyz
x,y,z
1/2-y,1/2+x,1/2+z
-x,-y,z
1/2+y,1/2-x,1/2+z
1/2+x,1/2-y,1/2-z
1/2-x,1/2+y,1/2-z
y,x,-z
-y,-x,-z
loop_
_atom_site_type_symbol
_atom_site_label
_atom_site_fract_x
_atom_site_fract_y
_atom_site_fract_z
Si Si1 0.997733 0.285314 0.657765
Si Si2 0.303495 0.273727 0.153618
Si Si3 0.364628 0.932012 0.533695
Si Si4 0.149860 0.094026 0.188954
Si Si5 0.044185 0.730244 0.953888
Si Si6 0.108344 0.585673 0.797399
Si Si7 0.726333 0.533894 0.675771
O O1 0.884790 0.241110 0.649999
O O2 0.010171 0.340091 0.553798
O O3 0.988639 0.374049 0.738249
O O4 0.064921 0.197093 0.704278
O O5 0.214961 0.191491 0.156442
O O6 0.372262 0.268613 0.250870
O O7 0.373850 0.237385 0.064176
O O8 0.454406 0.851540 0.520926
O O9 0.395246 0.994485 0.628179
O O10 0.033477 0.125247 0.188452
O O11 0.181170 0.008065 0.110625
O O12 0.072475 0.763828 0.063701
O O13 0.122878 0.678250 0.877016
O O14 0.187536 0.545128 0.715690
#
# Coordination Sequence:
#
# PCOD9550031 Si02
#       7
#     8   8   8   8   8   8   8
#     4  11  21  40  64  87 129 164 204 261 306 364
#     4  10  22  39  63  93 121 168 212 248 314 373
#     4  10  20  37  61  92 123 160 208 255 315 369
#     4  10  22  39  63  93 121 168 212 248 314 373
#     4  10  20  37  61  92 123 160 208 255 315 369
#     4  10  21  36  56  92 120 155 200 254 309 366
#     4  11  21  40  64  87 129 164 204 261 306 364
#
# _framework density 23.556508999999998
#
# number of rings (size 3 to 8) (size 9 to 14) (size 15 to 20)
#    0.000    1.714    2.857    1.286    2.000    4.000 
#    0.000    7.143    0.000    6.857    0.000    0.000 
#    0.000    0.000    0.000    0.000    0.000    0.000 
#
# Total GULP energy -312691.652051 kJ/mol
# GULP energy per Si atom -5583.779501 kJ/mol
# Density = 2.350289 g / cm^3
# Si number density = 23.556509 Si / 1000 Ang^3
#
#
#
# Elastic Constant Matrix: (Units=GPa)
#
#
# Indices 1 2 3 4 5 6 
#
# 1 47.5007 5.4742 13.0976 0.0000 0.0000 0.0000
# 2 5.4742 47.5007 13.0976 0.0000 0.0000 0.0000
# 3 13.0976 13.0976 151.0560 0.0000 0.0000 0.0000
# 4 0.0000 0.0000 0.0000 21.4014 0.0000 0.0000
# 5 0.0000 0.0000 0.0000 0.0000 21.4014 0.0000
# 6 0.0000 0.0000 0.0000 0.0000 0.0000 34.0611
#
#
#
# Elastic Compliance Matrix: (Units=1/GPa)
#
#
# Indices 1 2 3 4 5 6 
#
# 1 0.021758 -0.002036 -0.001710 0.000000 0.000000 0.000000
# 2 -0.002036 0.021758 -0.001710 0.000000 0.000000 0.000000
# 3 -0.001710 -0.001710 0.006917 0.000000 0.000000 0.000000
# 4 0.000000 0.000000 0.000000 0.046726 0.000000 0.000000
# 5 0.000000 0.000000 0.000000 0.000000 0.046726 0.000000
# 6 0.000000 0.000000 0.000000 0.000000 0.000000 0.029359
#
#
# Mechanical properties :
#
#
# Convention : Reuss Voigt Hill
#
# Bulk Modulus (GPa) = 25.30285 34.37736 29.84010
# Shear Modulus (GPa) = 25.33822 29.66533 27.50178
#
# Velocity S-wave (km/s) = 3.28325 3.55255 3.42055
# Velocity P-wave (km/s) = 5.01374 5.60827 5.31932
#
# Compressibility (1/GPa) = 0.03952124
#
# Stress axis : x y z
#
# Youngs Moduli (GPa) = 45.95908 45.95908 144.57947
#
# Poissons Ratio (x) = 0.09357 0.24724
# Poissons Ratio (y) = 0.09357 0.24724
# Poissons Ratio (z) = 0.07859 0.07859
#
# Static dielectric constant tensor:
#      x y z
#    x 1.968010 0.000000 0.000000 
#    y 0.000000 1.968010 0.000000 
#    z 0.000000 0.000000 1.909220 
# 
# From -- ./inp_files/2718.got.cif
#   From: 2010.05.17/outbox.cif.g08.bks.cpg/sg94_2_cif.got.tgz:2718.got - 2010.06.03 19:43:16.
