data_PCOD9550060
_publ_section_title
;
Structure prediction by ZEFSAII (Michael W. Deem and Ramdas Pophale) SiO2 
 PCOD9550060
Probable space group: P 42 21 2
;
_chemical_formula_sum "Si O2"
_cell_formula_units_Z 40
_cell_length_a 11.108545
_cell_length_b 11.108545
_cell_length_c 14.139565
_cell_angle_alpha 90.000000
_cell_angle_beta 90.000000
_cell_angle_gamma 90.000000
_cell_volume 1744.819097
_symmetry_space_group_name_H-M "P 42 21 2"
_symmetry_group_IT_number 94
_symmetry_cell_setting 'tetragonal'
loop_
_space_group_symop_operation_xyz
x,y,z
1/2-y,1/2+x,1/2+z
-x,-y,z
1/2+y,1/2-x,1/2+z
1/2+x,1/2-y,1/2-z
1/2-x,1/2+y,1/2-z
y,x,-z
-y,-x,-z
loop_
_atom_site_type_symbol
_atom_site_label
_atom_site_fract_x
_atom_site_fract_y
_atom_site_fract_z
Si Si1 0.555307 0.690896 0.766030
Si Si2 0.863527 0.873841 0.892550
Si Si3 0.011970 0.192838 0.525791
Si Si4 0.119437 0.544886 0.696294
Si Si5 0.710285 0.102574 0.641619
O O1 0.473472 0.635767 0.683275
O O2 0.611858 0.823782 0.752161
O O3 0.660655 0.602882 0.803764
O O4 0.483930 0.714141 0.863562
O O5 0.745216 0.949876 0.861476
O O6 0.814461 0.736989 0.891089
O O7 0.901610 0.901610 0.000000
O O8 0.138318 0.138318 0.500000
O O9 0.977309 0.294640 0.452184
O O10 0.908083 0.091918 0.500000
O O11 0.124350 0.445691 0.778322
O O12 0.000000 0.500000 0.640602
#
# Coordination Sequence:
#
# PCOD9550060 Si02
#       5
#     8   8   8   8   8
#     4  10  21  40  63  94 132 167 218 274 331 391
#     4  11  23  42  65  95 136 180 223 277 340 404
#     4   9  17  33  61  91 116 155 215 271 318 378
#     4  11  22  41  64  94 130 176 220 274 332 397
#     4  10  20  39  65  96 128 171 223 276 332 403
#
# _framework density 22.925013
#
# number of rings (size 3 to 8) (size 9 to 14) (size 15 to 20)
#    0.000    1.800    2.000    4.200    0.000    2.400 
#    7.200    2.000    0.000    0.000    0.000    0.000 
#    0.000    0.000    0.000    0.000    0.000    0.000 
#
# Total GULP energy -222977.972764 kJ/mol
# GULP energy per Si atom -5574.449319 kJ/mol
# Density = 2.287283 g / cm^3
# Si number density = 22.925013 Si / 1000 Ang^3
#
#
#
# Elastic Constant Matrix: (Units=GPa)
#
#
# Indices 1 2 3 4 5 6 
#
# 1 22.8628 33.7412 37.5540 0.0000 0.0000 0.0000
# 2 33.7412 22.8624 37.5539 0.0000 0.0000 0.0000
# 3 37.5540 37.5539 159.2670 0.0000 0.0000 0.0000
# 4 0.0000 0.0000 0.0000 22.0786 0.0000 0.0000
# 5 0.0000 0.0000 0.0000 0.0000 22.0785 0.0000
# 6 0.0000 0.0000 0.0000 0.0000 0.0000 34.5160
#
#
#
# Elastic Compliance Matrix: (Units=1/GPa)
#
#
# Indices 1 2 3 4 5 6 
#
# 1 -0.033106 0.058817 -0.006063 0.000000 0.000000 0.000000
# 2 0.058817 -0.033107 -0.006062 0.000000 0.000000 0.000000
# 3 -0.006063 -0.006062 0.009138 0.000000 0.000000 0.000000
# 4 0.000000 0.000000 0.000000 0.045293 0.000000 0.000000
# 5 0.000000 0.000000 0.000000 0.000000 0.045293 0.000000
# 6 0.000000 0.000000 0.000000 0.000000 0.000000 0.028972
#
#
# Mechanical properties :
#
#
# Convention : Reuss Voigt Hill
#
# Bulk Modulus (GPa) = 27.54073 46.96560 37.25317
# Shear Modulus (GPa) = -265.98429 22.14414 -121.92008
#
# Velocity S-wave (km/s) = -10.78311 3.11133 -7.30052
# Velocity P-wave (km/s) = 11.95803 5.78258 7.40123
#
# Compressibility (1/GPa) = 0.03630986
#
# Stress axis : x y z
#
# Youngs Moduli (GPa) = -30.20614 -30.20549 109.43638
#
# Poissons Ratio (x) = 1.77660 0.66346
# Poissons Ratio (y) = 1.77664 0.66345
# Poissons Ratio (z) = -0.18313 -0.18312
#
# Static dielectric constant tensor:
#      x y z
#    x 1.959010 0.000000 0.000000 
#    y 0.000000 1.959010 0.000000 
#    z 0.000000 0.000000 1.872340 
# 
# From -- ./inp_files/3404.got.cif
#   From: 2010.05.17/outbox.cif.g08.bks.cpg/sg94_2_cif.got.tgz:3404.got - 2010.06.03 19:43:16.
