data_PCOD9550269
_publ_section_title
;
Structure prediction by ZEFSAII (Michael W. Deem and Ramdas Pophale) SiO2 
 PCOD9550269
Probable space group: P 42 21 2
;
_chemical_formula_sum "Si O2"
_cell_formula_units_Z 24
_cell_length_a 9.897165
_cell_length_b 9.897165
_cell_length_c 9.458220
_cell_angle_alpha 90.000000
_cell_angle_beta 90.000000
_cell_angle_gamma 90.000000
_cell_volume 926.469300
_symmetry_space_group_name_H-M "P 42 21 2"
_symmetry_group_IT_number 94
_symmetry_cell_setting 'tetragonal'
loop_
_space_group_symop_operation_xyz
x,y,z
1/2-y,1/2+x,1/2+z
-x,-y,z
1/2+y,1/2-x,1/2+z
1/2+x,1/2-y,1/2-z
1/2-x,1/2+y,1/2-z
y,x,-z
-y,-x,-z
loop_
_atom_site_type_symbol
_atom_site_label
_atom_site_fract_x
_atom_site_fract_y
_atom_site_fract_z
Si Si1 0.772423 0.445197 0.277914
Si Si2 0.163904 0.613911 0.967678
Si Si3 0.111248 0.829552 0.341214
O O1 0.850885 0.520291 0.403062
O O2 0.776823 0.287046 0.315466
O O3 0.641747 0.541833 0.256749
O O4 0.840393 0.455192 0.122032
O O5 0.246114 0.527637 0.850047
O O6 0.252542 0.747459 0.000000
O O7 0.117315 0.882686 0.500000
#
# Coordination Sequence:
#
# PCOD9550269 Si02
#       3
#     8   8   8
#     4  11  23  47  70 109 149 199 258 314 391 462
#     4  11  24  47  75 110 152 201 257 324 389 464
#     4  10  24  42  72 105 147 197 256 318 386 460
#
# _framework density 25.904799000000001
#
# number of rings (size 3 to 8) (size 9 to 14) (size 15 to 20)
#    0.000    1.333    3.333    1.000    0.000   16.667 
#    0.000    0.000    0.000    0.000    0.000    0.000 
#    0.000    0.000    0.000    0.000    0.000    0.000 
#
# Total GULP energy -134061.386135 kJ/mol
# GULP energy per Si atom -5585.891089 kJ/mol
# Density = 2.584584 g / cm^3
# Si number density = 25.904799 Si / 1000 Ang^3
#
#
#
# Elastic Constant Matrix: (Units=GPa)
#
#
# Indices 1 2 3 4 5 6 
#
# 1 101.1282 32.0649 14.7489 0.0000 0.0000 0.0000
# 2 32.0649 101.1247 14.7482 0.0000 0.0000 0.0000
# 3 14.7489 14.7482 70.6666 0.0000 0.0000 0.0000
# 4 0.0000 0.0000 0.0000 41.4797 0.0000 0.0000
# 5 0.0000 0.0000 0.0000 0.0000 41.4808 0.0000
# 6 0.0000 0.0000 0.0000 0.0000 0.0000 32.5373
#
#
#
# Elastic Compliance Matrix: (Units=1/GPa)
#
#
# Indices 1 2 3 4 5 6 
#
# 1 0.011176 -0.003304 -0.001643 0.000000 0.000000 0.000000
# 2 -0.003304 0.011176 -0.001643 0.000000 0.000000 0.000000
# 3 -0.001643 -0.001643 0.014837 0.000000 0.000000 0.000000
# 4 0.000000 0.000000 0.000000 0.024108 0.000000 0.000000
# 5 0.000000 0.000000 0.000000 0.000000 0.024108 0.000000
# 6 0.000000 0.000000 0.000000 0.000000 0.000000 0.030734
#
#
# Mechanical properties :
#
#
# Convention : Reuss Voigt Hill
#
# Bulk Modulus (GPa) = 41.65138 44.00482 42.82810
# Shear Modulus (GPa) = 36.41115 37.19007 36.80061
#
# Velocity S-wave (km/s) = 3.75317 3.79310 3.77319
# Velocity P-wave (km/s) = 5.90722 6.01727 5.96250
#
# Compressibility (1/GPa) = 0.02400881
#
# Stress axis : x y z
#
# Youngs Moduli (GPa) = 89.48021 89.47727 67.40033
#
# Poissons Ratio (x) = 0.29563 0.11073
# Poissons Ratio (y) = 0.29564 0.11073
# Poissons Ratio (z) = 0.14701 0.14700
#
# Static dielectric constant tensor:
#      x y z
#    x 2.187240 0.000000 0.000000 
#    y 0.000000 2.187240 0.000000 
#    z 0.000000 0.000000 1.973760 
# 
# From -- ./inp_files/958.got.cif
#   From: 2010.05.17/outbox.cif.g08.bks.cpg/sg94_1_cif.got.tgz:958.got - 2010.06.03 19:43:16.
