data_PCOD9550542
_publ_section_title
;
Structure prediction by ZEFSAII (Michael W. Deem and Ramdas Pophale) SiO2 
 PCOD9550542
Probable space group: P 43 2 2
;
_chemical_formula_sum "Si O2"
_cell_formula_units_Z 56
_cell_length_a 13.972112
_cell_length_b 13.972112
_cell_length_c 12.949192
_cell_angle_alpha 90.000000
_cell_angle_beta 90.000000
_cell_angle_gamma 90.000000
_cell_volume 2527.940145
_symmetry_space_group_name_H-M "P 43 2 2"
_symmetry_group_IT_number 95
_symmetry_cell_setting 'tetragonal'
loop_
_space_group_symop_operation_xyz
x,y,z
-y,x,3/4+z
-x,-y,1/2+z
y,-x,1/4+z
x,-y,1/2-z
-x,y,-z
y,x,1/4-z
-y,-x,3/4-z
loop_
_atom_site_type_symbol
_atom_site_label
_atom_site_fract_x
_atom_site_fract_y
_atom_site_fract_z
Si Si1 0.923353 0.273266 0.588490
Si Si2 0.203248 0.412438 0.543962
Si Si3 0.191999 0.208578 0.235140
Si Si4 0.310912 0.612056 0.266557
Si Si5 0.484814 0.629122 0.118750
Si Si6 0.380644 0.895319 0.204526
Si Si7 0.610773 0.070838 0.475310
O O1 0.838241 0.335162 0.535222
O O2 0.876854 0.196712 0.666760
O O3 0.000000 0.241270 0.500000
O O4 0.985967 0.342945 0.661061
O O5 0.313086 0.440899 0.557324
O O6 0.152239 0.515766 0.529556
O O7 0.164401 0.379166 0.655029
O O8 0.163457 0.163457 0.125000
O O9 0.215743 0.322620 0.230550
O O10 0.297275 0.166093 0.247856
O O11 0.289539 0.500000 0.250000
O O12 0.364274 0.635727 0.375000
O O13 0.381648 0.640362 0.171357
O O14 0.519690 0.519690 0.125000
O O15 0.500000 0.661901 0.000000
O O16 0.386820 0.000000 0.250000
O O17 0.348610 0.907505 0.086423
O O18 0.500000 0.050306 0.500000
#
# Coordination Sequence:
#
# PCOD9550542 Si02
#       7
#     8   8   8   8   8   8   8
#     4  10  22  40  61  89 127 165 207 266 334 405
#     4  10  21  34  58  86 119 165 217 275 322 378
#     4  11  25  39  61  94 127 164 219 272 332 400
#     4  11  24  40  55  83 128 183 237 275 320 383
#     4  12  24  37  57  80 122 178 237 280 315 368
#     4  11  20  37  62  86 122 162 213 269 329 388
#     4   9  18  35  57  86 115 153 207 260 321 379
#
# _framework density 22.152424
#
# number of rings (size 3 to 8) (size 9 to 14) (size 15 to 20)
#    0.000    1.429    1.429    6.000    4.000    0.571 
#    0.000    2.143    0.000    0.000    0.000    8.000 
#    0.000    0.000    0.000    0.000    0.000    0.000 
#
# Total GULP energy -312726.801353 kJ/mol
# GULP energy per Si atom -5584.407167 kJ/mol
# Density = 2.210200 g / cm^3
# Si number density = 22.152424 Si / 1000 Ang^3
#
#
#
# Elastic Constant Matrix: (Units=GPa)
#
#
# Indices 1 2 3 4 5 6 
#
# 1 44.1246 -11.9621 21.2436 0.0000 0.0000 0.0000
# 2 -11.9621 44.1248 21.2437 0.0000 0.0000 0.0000
# 3 21.2436 21.2437 134.4438 0.0000 0.0000 0.0000
# 4 0.0000 0.0000 0.0000 -13.3871 0.0000 0.0000
# 5 0.0000 0.0000 0.0000 0.0000 -13.3864 0.0000
# 6 0.0000 0.0000 0.0000 0.0000 0.0000 13.8016
#
#
#
# Elastic Compliance Matrix: (Units=1/GPa)
#
#
# Indices 1 2 3 4 5 6 
#
# 1 0.028562 0.010732 -0.006209 0.000000 0.000000 0.000000
# 2 0.010732 0.028562 -0.006209 0.000000 0.000000 0.000000
# 3 -0.006209 -0.006209 0.009400 0.000000 0.000000 0.000000
# 4 0.000000 0.000000 0.000000 -0.074699 0.000000 0.000000
# 5 0.000000 0.000000 0.000000 0.000000 -0.074703 0.000000
# 6 0.000000 0.000000 0.000000 0.000000 0.000000 0.072455
#
#
# Mechanical properties :
#
#
# Convention : Reuss Voigt Hill
#
# Bulk Modulus (GPa) = 15.83463 31.52708 23.68086
# Shear Modulus (GPa) = 357.15078 10.21682 183.68380
#
# Velocity S-wave (km/s) = 12.71119 2.14990 9.11582
# Velocity P-wave (km/s) = 14.91965 4.51946 11.02319
#
# Compressibility (1/GPa) = 0.06315271
#
# Stress axis : x y z
#
# Youngs Moduli (GPa) = 35.01173 35.01187 106.38057
#
# Poissons Ratio (x) = -0.37576 0.66051
# Poissons Ratio (y) = -0.37576 0.66051
# Poissons Ratio (z) = 0.21738 0.21739
#
# Static dielectric constant tensor:
#      x y z
#    x 1.819600 0.000000 0.000000 
#    y 0.000000 1.819600 0.000000 
#    z 0.000000 0.000000 1.782650 
# 
# From -- ./inp_files/3975.got.cif
#   From: 2010.05.17/outbox.cif.g08.bks.cpg/sg95_2_cif.got.tgz:3975.got - 2010.06.03 19:46:49.
