data_PCOD9550694
_publ_section_title
;
Structure prediction by ZEFSAII (Michael W. Deem and Ramdas Pophale) SiO2 
 PCOD9550694
Probable space group: P 43 2 2
;
_chemical_formula_sum "Si O2"
_cell_formula_units_Z 32
_cell_length_a 12.155226
_cell_length_b 12.155226
_cell_length_c 10.366692
_cell_angle_alpha 90.000000
_cell_angle_beta 90.000000
_cell_angle_gamma 90.000000
_cell_volume 1531.673758
_symmetry_space_group_name_H-M "P 43 2 2"
_symmetry_group_IT_number 95
_symmetry_cell_setting 'tetragonal'
loop_
_space_group_symop_operation_xyz
x,y,z
-y,x,3/4+z
-x,-y,1/2+z
y,-x,1/4+z
x,-y,1/2-z
-x,y,-z
y,x,1/4-z
-y,-x,3/4-z
loop_
_atom_site_type_symbol
_atom_site_label
_atom_site_fract_x
_atom_site_fract_y
_atom_site_fract_z
Si Si1 0.811931 0.379387 0.604613
Si Si2 0.500000 0.381911 0.000000
Si Si3 0.052682 0.052682 0.125000
Si Si4 0.000000 0.543306 0.500000
Si Si5 0.283056 0.001987 0.469618
Si Si6 0.781676 0.781676 0.125000
O O1 0.705723 0.415827 0.685870
O O2 0.892958 0.473269 0.544460
O O3 0.896144 0.313983 0.695981
O O4 0.769546 0.305037 0.488918
O O5 0.450238 0.450238 0.125000
O O6 0.030279 0.180451 0.132557
O O7 0.000581 0.000000 0.250000
O O8 0.031203 0.617010 0.624289
O O9 0.243496 0.099596 0.562732
#
# Coordination Sequence:
#
# PCOD9550694 Si02
#       6
#     8   4   4   4   8   4
#     4  12  27  49  79 109 155 205 261 331 397 481
#     4  12  32  56  80 114 160 208 280 346 412 470
#     4  12  25  42  70 105 154 192 242 308 399 470
#     4  12  24  50  74 110 146 206 268 312 392 492
#     4  12  25  46  73 112 151 204 254 320 394 494
#     4  12  27  44  76 115 158 194 264 318 409 474
#
# _framework density 20.892175999999999
#
# number of rings (size 3 to 8) (size 9 to 14) (size 15 to 20)
#    0.000    0.000    6.250    2.250    7.000    0.000 
#    0.000    0.000    0.000    0.000    0.000    0.000 
#    0.000    0.000    0.000    0.000    0.000    0.000 
#
# Total GULP energy -178768.284751 kJ/mol
# GULP energy per Si atom -5586.508898 kJ/mol
# Density = 2.084462 g / cm^3
# Si number density = 20.892176 Si / 1000 Ang^3
#
#
#
# Elastic Constant Matrix: (Units=GPa)
#
#
# Indices 1 2 3 4 5 6 
#
# 1 88.7409 52.2532 71.6297 0.0000 0.0000 0.0000
# 2 52.2532 88.7409 71.6297 0.0000 0.0000 0.0000
# 3 71.6297 71.6297 187.5333 0.0000 0.0000 0.0000
# 4 0.0000 0.0000 0.0000 74.5959 0.0000 0.0000
# 5 0.0000 0.0000 0.0000 0.0000 74.5959 0.0000
# 6 0.0000 0.0000 0.0000 0.0000 0.0000 32.0693
#
#
#
# Elastic Compliance Matrix: (Units=1/GPa)
#
#
# Indices 1 2 3 4 5 6 
#
# 1 0.019499 -0.007908 -0.004427 0.000000 0.000000 0.000000
# 2 -0.007908 0.019499 -0.004427 0.000000 0.000000 0.000000
# 3 -0.004427 -0.004427 0.008714 0.000000 0.000000 0.000000
# 4 0.000000 0.000000 0.000000 0.013406 0.000000 0.000000
# 5 0.000000 0.000000 0.000000 0.000000 0.013406 0.000000
# 6 0.000000 0.000000 0.000000 0.000000 0.000000 0.031182
#
#
# Mechanical properties :
#
#
# Convention : Reuss Voigt Hill
#
# Bulk Modulus (GPa) = 70.48588 84.00449 77.24518
# Shear Modulus (GPa) = 34.73213 47.55236 41.14225
#
# Velocity S-wave (km/s) = 4.08173 4.77601 4.44246
# Velocity P-wave (km/s) = 7.48500 8.40890 7.96036
#
# Compressibility (1/GPa) = 0.01418724
#
# Stress axis : x y z
#
# Youngs Moduli (GPa) = 51.28555 51.28555 114.75273
#
# Poissons Ratio (x) = 0.40556 0.50803
# Poissons Ratio (y) = 0.40556 0.50803
# Poissons Ratio (z) = 0.22705 0.22705
#
# Static dielectric constant tensor:
#      x y z
#    x 1.738060 0.000000 0.000000 
#    y 0.000000 1.738060 0.000000 
#    z 0.000000 0.000000 1.748100 
# 
# From -- ./inp_files/3516.got.cif
#   From: 2010.05.17/outbox.cif.g08.bks.cpg/sg95_2_cif.got.tgz:3516.got - 2010.06.03 19:46:49.
