data_PCOD9550139
_publ_section_title
;
Structure prediction by ZEFSAII (Michael W. Deem and Ramdas Pophale) SiO2 
 PCOD9550139
Probable space group: P 42 21 2
;
_chemical_formula_sum "Si O2"
_cell_formula_units_Z 32
_cell_length_a 11.709954
_cell_length_b 11.709954
_cell_length_c 10.578217
_cell_angle_alpha 90.000000
_cell_angle_beta 90.000000
_cell_angle_gamma 90.000000
_cell_volume 1450.517090
_symmetry_space_group_name_H-M "P 42 21 2"
_symmetry_group_IT_number 94
_symmetry_cell_setting 'tetragonal'
loop_
_space_group_symop_operation_xyz
x,y,z
1/2-y,1/2+x,1/2+z
-x,-y,z
1/2+y,1/2-x,1/2+z
1/2+x,1/2-y,1/2-z
1/2-x,1/2+y,1/2-z
y,x,-z
-y,-x,-z
loop_
_atom_site_type_symbol
_atom_site_label
_atom_site_fract_x
_atom_site_fract_y
_atom_site_fract_z
Si Si1 0.541078 0.683788 0.686608
Si Si2 0.648281 0.340624 0.132227
Si Si3 0.912292 0.261015 0.100165
Si Si4 0.395706 0.070125 0.730404
O O1 0.424735 0.640483 0.748220
O O2 0.647797 0.597668 0.687899
O O3 0.544922 0.721692 0.538441
O O4 0.567732 0.801159 0.760067
O O5 0.783396 0.310336 0.110747
O O6 0.585341 0.220148 0.151434
O O7 0.606855 0.393146 0.000000
O O8 0.997377 0.355783 0.150333
O O9 0.500000 0.000000 0.669350
#
# Coordination Sequence:
#
# PCOD9550139 Si02
#       4
#     8   8   8   8
#     4  10  22  42  68  92 136 182 226 287 351 410
#     4  11  22  43  68 100 138 175 234 295 341 419
#     4  10  21  42  66  96 138 185 228 287 355 428
#     4  11  22  38  69  99 131 183 229 275 350 418
#
# _framework density 22.061097
#
# number of rings (size 3 to 8) (size 9 to 14) (size 15 to 20)
#    0.000    1.500    7.500    0.000    0.000    5.000 
#    0.000    5.000    0.000    0.000    0.000    0.000 
#    0.000    0.000    0.000    0.000    0.000    0.000 
#
# Total GULP energy -178425.713536 kJ/mol
# GULP energy per Si atom -5575.803548 kJ/mol
# Density = 2.201089 g / cm^3
# Si number density = 22.061097 Si / 1000 Ang^3
#
#
#
# Elastic Constant Matrix: (Units=GPa)
#
#
# Indices 1 2 3 4 5 6 
#
# 1 125.8405 59.5896 49.0806 0.0000 0.0000 0.0000
# 2 59.5896 125.8399 49.0806 0.0000 0.0000 0.0000
# 3 49.0806 49.0806 69.2396 0.0000 0.0000 0.0000
# 4 0.0000 0.0000 0.0000 22.6871 0.0000 0.0000
# 5 0.0000 0.0000 0.0000 0.0000 22.6872 0.0000
# 6 0.0000 0.0000 0.0000 0.0000 0.0000 44.5305
#
#
#
# Elastic Compliance Matrix: (Units=1/GPa)
#
#
# Indices 1 2 3 4 5 6 
#
# 1 0.011863 -0.003231 -0.006119 0.000000 0.000000 0.000000
# 2 -0.003231 0.011863 -0.006119 0.000000 0.000000 0.000000
# 3 -0.006119 -0.006119 0.023117 0.000000 0.000000 0.000000
# 4 0.000000 0.000000 0.000000 0.044078 0.000000 0.000000
# 5 0.000000 0.000000 0.000000 0.000000 0.044078 0.000000
# 6 0.000000 0.000000 0.000000 0.000000 0.000000 0.022457
#
#
# Mechanical properties :
#
#
# Convention : Reuss Voigt Hill
#
# Bulk Modulus (GPa) = 62.86926 70.71352 66.79139
# Shear Modulus (GPa) = 25.81376 28.85888 27.33632
#
# Velocity S-wave (km/s) = 3.42439 3.62074 3.52393
# Velocity P-wave (km/s) = 6.64792 7.04292 6.84827
#
# Compressibility (1/GPa) = 0.01590602
#
# Stress axis : x y z
#
# Youngs Moduli (GPa) = 84.29522 84.29468 43.25770
#
# Poissons Ratio (x) = 0.27237 0.26468
# Poissons Ratio (y) = 0.27237 0.26469
# Poissons Ratio (z) = 0.51578 0.51579
#
# Static dielectric constant tensor:
#      x y z
#    x 1.841140 0.000000 0.000000 
#    y 0.000000 1.841140 0.000000 
#    z 0.000000 0.000000 1.838730 
# 
# From -- ./inp_files/2304.got.cif
#   From: 2010.05.17/outbox.cif.g08.bks.cpg/sg94_2_cif.got.tgz:2304.got - 2010.06.03 19:43:16.
