data_PCOD9550814
_publ_section_title
;
Structure prediction by ZEFSAII (Michael W. Deem and Ramdas Pophale) SiO2 
 PCOD9550814
Probable space group: P 43 21 2
;
_chemical_formula_sum "Si O2"
_cell_formula_units_Z 44
_cell_length_a 6.907114
_cell_length_b 6.907114
_cell_length_c 33.033907
_cell_angle_alpha 90.000000
_cell_angle_beta 90.000000
_cell_angle_gamma 90.000000
_cell_volume 1575.989028
_symmetry_space_group_name_H-M "P 43 21 2"
_symmetry_group_IT_number 96
_symmetry_cell_setting 'tetragonal'
loop_
_space_group_symop_operation_xyz
x,y,z
1/2-y,1/2+x,3/4+z
-x,-y,1/2+z
1/2+y,1/2-x,1/4+z
1/2+x,1/2-y,1/4-z
1/2-x,1/2+y,3/4-z
y,x,-z
-y,-x,1/2-z
loop_
_atom_site_type_symbol
_atom_site_label
_atom_site_fract_x
_atom_site_fract_y
_atom_site_fract_z
Si Si1 0.001525 0.784841 0.352950
Si Si2 0.742346 0.528590 0.582178
Si Si3 0.131655 0.868346 0.750000
Si Si4 0.771820 0.596432 0.190639
Si Si5 0.569437 0.206129 0.833065
Si Si6 0.253912 0.811104 0.971238
O O1 0.966782 0.776844 0.401228
O O2 0.225079 0.719106 0.347903
O O3 0.889533 0.663564 0.318475
O O4 0.980801 0.010750 0.341744
O O5 0.749182 0.656419 0.541725
O O6 0.806870 0.312110 0.569024
O O7 0.827113 0.561882 0.626968
O O8 0.906254 0.821309 0.737050
O O9 0.747728 0.564299 0.238220
O O10 0.003022 0.608439 0.187321
O O11 0.456570 0.323893 0.799433
#
# Coordination Sequence:
#
# PCOD9550814 Si02
#       6
#     8   8   4   8   8   8
#     4   9  19  38  60  87 131 166 209 275 324 389
#     4   8  16  34  59  86 120 164 206 263 320 379
#     4   8  16  34  60  80 118 168 198 252 322 376
#     4   9  19  38  56  90 125 162 218 261 323 398
#     4  10  20  36  62  92 117 171 213 257 332 390
#     4  10  20  38  63  89 125 167 217 265 324 399
#
# _framework density 27.918973999999999
#
# number of rings (size 3 to 8) (size 9 to 14) (size 15 to 20)
#    0.000    2.909    0.000    1.091    0.000    2.909 
#   19.636    0.000    4.000    0.000    0.000    0.000 
#    0.000    0.000    0.000    0.000    0.000    0.000 
#
# Total GULP energy -246005.670892 kJ/mol
# GULP energy per Si atom -5591.037975 kJ/mol
# Density = 2.785543 g / cm^3
# Si number density = 27.918974 Si / 1000 Ang^3
#
#
#
# Elastic Constant Matrix: (Units=GPa)
#
#
# Indices 1 2 3 4 5 6 
#
# 1 83.6182 7.4064 70.3970 0.0000 0.0000 0.0000
# 2 7.4064 83.6184 70.3970 0.0000 0.0000 0.0000
# 3 70.3970 70.3970 337.4020 0.0000 0.0000 0.0000
# 4 0.0000 0.0000 0.0000 66.6717 0.0000 0.0000
# 5 0.0000 0.0000 0.0000 0.0000 66.6716 0.0000
# 6 0.0000 0.0000 0.0000 0.0000 0.0000 20.1576
#
#
#
# Elastic Compliance Matrix: (Units=1/GPa)
#
#
# Indices 1 2 3 4 5 6 
#
# 1 0.014671 0.001550 -0.003384 0.000000 0.000000 0.000000
# 2 0.001550 0.014671 -0.003384 0.000000 0.000000 0.000000
# 3 -0.003384 -0.003384 0.004376 0.000000 0.000000 0.000000
# 4 0.000000 0.000000 0.000000 0.014999 0.000000 0.000000
# 5 0.000000 0.000000 0.000000 0.000000 0.014999 0.000000
# 6 0.000000 0.000000 0.000000 0.000000 0.000000 0.049609
#
#
# Mechanical properties :
#
#
# Convention : Reuss Voigt Hill
#
# Bulk Modulus (GPa) = 42.95479 89.00439 65.97959
# Shear Modulus (GPa) = 38.01607 54.46273 46.23940
#
# Velocity S-wave (km/s) = 3.69407 4.42151 4.07406
# Velocity P-wave (km/s) = 5.79774 7.61677 6.76864
#
# Compressibility (1/GPa) = 0.02328029
#
# Stress axis : x y z
#
# Youngs Moduli (GPa) = 68.16110 68.16133 228.51434
#
# Poissons Ratio (x) = -0.10564 0.77338
# Poissons Ratio (y) = -0.10564 0.77338
# Poissons Ratio (z) = 0.23068 0.23068
#
# Static dielectric constant tensor:
#      x y z
#    x 2.222410 0.000000 0.000000 
#    y 0.000000 2.222410 0.000000 
#    z 0.000000 0.000000 2.095150 
# 
# From -- ./inp_files/4416.got.cif
#   From: 2010.05.17/outbox.cif.g08.bks.cpg/sg96_3_cif.got.tgz:4416.got - 2010.06.03 19:52:08.
