data_PCOD9550490
_publ_section_title
;
Structure prediction by ZEFSAII (Michael W. Deem and Ramdas Pophale) SiO2 
 PCOD9550490
Probable space group: P 43 2 2
;
_chemical_formula_sum "Si O2"
_cell_formula_units_Z 56
_cell_length_a 14.061909
_cell_length_b 14.061909
_cell_length_c 14.686084
_cell_angle_alpha 90.000000
_cell_angle_beta 90.000000
_cell_angle_gamma 90.000000
_cell_volume 2903.986373
_symmetry_space_group_name_H-M "P 43 2 2"
_symmetry_group_IT_number 95
_symmetry_cell_setting 'tetragonal'
loop_
_space_group_symop_operation_xyz
x,y,z
-y,x,3/4+z
-x,-y,1/2+z
y,-x,1/4+z
x,-y,1/2-z
-x,y,-z
y,x,1/4-z
-y,-x,3/4-z
loop_
_atom_site_type_symbol
_atom_site_label
_atom_site_fract_x
_atom_site_fract_y
_atom_site_fract_z
Si Si1 0.726477 0.523972 0.597898
Si Si2 0.216274 0.198561 0.900518
Si Si3 0.281598 0.932213 0.025817
Si Si4 0.103641 0.935489 0.475777
Si Si5 0.358935 0.664153 0.525492
Si Si6 0.018070 0.648964 0.106491
Si Si7 0.430795 0.951718 0.348071
O O1 0.696210 0.582763 0.687287
O O2 0.673691 0.558510 0.505480
O O3 0.691944 0.419369 0.633478
O O4 0.837558 0.553750 0.588255
O O5 0.169258 0.262074 0.821396
O O6 0.266371 0.270906 0.968493
O O7 0.292794 0.115648 0.876885
O O8 0.131440 0.144702 0.951953
O O9 0.180029 0.982574 0.021845
O O10 0.352882 0.002443 0.083198
O O11 0.313942 0.934743 0.921505
O O12 0.105949 0.894052 0.375000
O O13 0.000000 0.972601 0.500000
O O14 0.022246 0.537423 0.128729
O O15 0.000000 0.659746 0.000000
O O16 0.411888 0.000000 0.250000
#
# Coordination Sequence:
#
# PCOD9550490 Si02
#       7
#     8   8   8   8   8   8   8
#     4  10  20  36  58  94 120 158 203 259 323 386
#     4  11  22  38  58  93 123 166 214 259 317 388
#     4  11  24  37  62  90 124 169 218 264 314 381
#     4  11  23  38  53  83 133 167 206 258 314 372
#     4  10  21  34  60  92 122 155 200 260 320 388
#     4  10  23  42  61  87 126 172 216 263 318 383
#     4  11  22  38  63  97 130 165 207 271 330 378
#
# _framework density 19.283835
#
# number of rings (size 3 to 8) (size 9 to 14) (size 15 to 20)
#    0.000    1.429    2.857    3.000    8.000    1.143 
#    0.000    0.000    0.000    0.000   74.286    0.000 
#    0.000    0.000    0.000    0.000    0.000    0.000 
#
# Total GULP energy -311779.501711 kJ/mol
# GULP energy per Si atom -5567.491102 kJ/mol
# Density = 1.923994 g / cm^3
# Si number density = 19.283835 Si / 1000 Ang^3
#
#
#
# Elastic Constant Matrix: (Units=GPa)
#
#
# Indices 1 2 3 4 5 6 
#
# 1 79.7511 -2.8679 24.1081 0.0000 0.0000 0.0000
# 2 -2.8679 79.7383 24.1027 0.0000 0.0000 0.0000
# 3 24.1081 24.1027 56.4409 0.0000 0.0000 0.0000
# 4 0.0000 0.0000 0.0000 9.2021 0.0000 0.0000
# 5 0.0000 0.0000 0.0000 0.0000 9.2003 0.0000
# 6 0.0000 0.0000 0.0000 0.0000 0.0000 5.3252
#
#
#
# Elastic Compliance Matrix: (Units=1/GPa)
#
#
# Indices 1 2 3 4 5 6 
#
# 1 0.014935 0.002831 -0.007588 0.000000 0.000000 0.000000
# 2 0.002831 0.014936 -0.007588 0.000000 0.000000 0.000000
# 3 -0.007588 -0.007588 0.024199 0.000000 0.000000 0.000000
# 4 0.000000 0.000000 0.000000 0.108671 0.000000 0.000000
# 5 0.000000 0.000000 0.000000 0.000000 0.108692 0.000000
# 6 0.000000 0.000000 0.000000 0.000000 0.000000 0.187786
#
#
# Mechanical properties :
#
#
# Convention : Reuss Voigt Hill
#
# Bulk Modulus (GPa) = 34.03639 34.06845 34.05242
# Shear Modulus (GPa) = 10.12757 16.11802 13.12280
#
# Velocity S-wave (km/s) = 2.29418 2.89421 2.61148
# Velocity P-wave (km/s) = 4.97053 5.37343 5.17591
#
# Compressibility (1/GPa) = 0.02938032
#
# Stress axis : x y z
#
# Youngs Moduli (GPa) = 66.95853 66.95068 41.32393
#
# Poissons Ratio (x) = -0.18952 0.31357
# Poissons Ratio (y) = -0.18955 0.31355
# Poissons Ratio (z) = 0.50808 0.50800
#
# Static dielectric constant tensor:
#      x y z
#    x 1.743950 0.000000 0.000000 
#    y 0.000000 1.743950 0.000000 
#    z 0.000000 0.000000 1.709870 
# 
# From -- ./inp_files/3989.got.cif
#   From: 2010.05.17/outbox.cif.g08.bks.cpg/sg95_2_cif.got.tgz:3989.got - 2010.06.03 19:46:49.
