data_PCOD9550120
_publ_section_title
;
Structure prediction by ZEFSAII (Michael W. Deem and Ramdas Pophale) SiO2 
 PCOD9550120
Probable space group: P 42 21 2
;
_chemical_formula_sum "Si O2"
_cell_formula_units_Z 28
_cell_length_a 9.714126
_cell_length_b 9.714126
_cell_length_c 12.302116
_cell_angle_alpha 90.000000
_cell_angle_beta 90.000000
_cell_angle_gamma 90.000000
_cell_volume 1160.879875
_symmetry_space_group_name_H-M "P 42 21 2"
_symmetry_group_IT_number 94
_symmetry_cell_setting 'tetragonal'
loop_
_space_group_symop_operation_xyz
x,y,z
1/2-y,1/2+x,1/2+z
-x,-y,z
1/2+y,1/2-x,1/2+z
1/2+x,1/2-y,1/2-z
1/2-x,1/2+y,1/2-z
y,x,-z
-y,-x,-z
loop_
_atom_site_type_symbol
_atom_site_label
_atom_site_fract_x
_atom_site_fract_y
_atom_site_fract_z
Si Si1 0.345289 0.654712 0.000000
Si Si2 0.997065 0.667184 0.848894
Si Si3 0.295614 0.628495 0.774692
Si Si4 0.842678 0.536310 0.588631
O O1 0.351806 0.565846 0.889470
O O2 0.355194 0.806028 0.948494
O O3 0.893747 0.756407 0.777221
O O4 0.000000 0.500000 0.846868
O O5 0.150573 0.698876 0.807701
O O6 0.967310 0.701556 0.974685
O O7 0.256793 0.515077 0.684021
O O8 0.000000 0.500000 0.617446
#
# Coordination Sequence:
#
# PCOD9550120 Si02
#       4
#     4   8   8   8
#     4  10  22  36  59  98 131 162 214 266 311 384
#     4  10  22  39  61  90 126 168 217 267 319 384
#     4  11  20  38  62  90 128 170 209 262 326 379
#     4  10  21  40  65  92 127 170 214 264 324 386
#
# _framework density 24.119634999999999
#
# number of rings (size 3 to 8) (size 9 to 14) (size 15 to 20)
#    0.000    1.714    0.000    5.143    0.000    1.143 
#    0.000   21.429    0.000    0.000    0.000   36.000 
#    0.000    0.000    0.000    0.000    0.000    0.000 
#
# Total GULP energy -156294.989585 kJ/mol
# GULP energy per Si atom -5581.963914 kJ/mol
# Density = 2.406474 g / cm^3
# Si number density = 24.119635 Si / 1000 Ang^3
#
#
#
# Elastic Constant Matrix: (Units=GPa)
#
#
# Indices 1 2 3 4 5 6 
#
# 1 62.5876 22.8383 12.5457 0.0000 0.0000 0.0000
# 2 22.8383 62.5883 12.5458 0.0000 0.0000 0.0000
# 3 12.5457 12.5458 249.7121 0.0000 0.0000 0.0000
# 4 0.0000 0.0000 0.0000 37.0125 0.0000 0.0000
# 5 0.0000 0.0000 0.0000 0.0000 37.0122 0.0000
# 6 0.0000 0.0000 0.0000 0.0000 0.0000 41.7430
#
#
#
# Elastic Compliance Matrix: (Units=1/GPa)
#
#
# Indices 1 2 3 4 5 6 
#
# 1 0.018519 -0.006638 -0.000597 0.000000 0.000000 0.000000
# 2 -0.006638 0.018519 -0.000597 0.000000 0.000000 0.000000
# 3 -0.000597 -0.000597 0.004065 0.000000 0.000000 0.000000
# 4 0.000000 0.000000 0.000000 0.027018 0.000000 0.000000
# 5 0.000000 0.000000 0.000000 0.000000 0.027018 0.000000
# 6 0.000000 0.000000 0.000000 0.000000 0.000000 0.023956
#
#
# Mechanical properties :
#
#
# Convention : Reuss Voigt Hill
#
# Bulk Modulus (GPa) = 39.30889 52.30530 45.80710
# Shear Modulus (GPa) = 34.90665 44.95076 39.92870
#
# Velocity S-wave (km/s) = 3.80837 4.32169 4.07313
# Velocity P-wave (km/s) = 5.97253 6.82902 6.41509
#
# Compressibility (1/GPa) = 0.02543954
#
# Stress axis : x y z
#
# Youngs Moduli (GPa) = 53.99716 53.99769 246.02713
#
# Poissons Ratio (x) = 0.35844 0.14686
# Poissons Ratio (y) = 0.35844 0.14686
# Poissons Ratio (z) = 0.03223 0.03223
#
# Static dielectric constant tensor:
#      x y z
#    x 1.991070 0.000000 0.000000 
#    y 0.000000 1.991070 0.000000 
#    z 0.000000 0.000000 2.106960 
# 
# From -- ./inp_files/2174.got.cif
#   From: 2010.05.17/outbox.cif.g08.bks.cpg/sg94_2_cif.got.tgz:2174.got - 2010.06.03 19:43:16.
