data_PCOD9550449
_publ_section_title
;
Structure prediction by ZEFSAII (Michael W. Deem and Ramdas Pophale) SiO2 
 PCOD9550449
Probable space group: P 43 2 2
;
_chemical_formula_sum "Si O2"
_cell_formula_units_Z 56
_cell_length_a 14.742426
_cell_length_b 14.742426
_cell_length_c 13.690448
_cell_angle_alpha 90.000000
_cell_angle_beta 90.000000
_cell_angle_gamma 90.000000
_cell_volume 2975.469980
_symmetry_space_group_name_H-M "P 43 2 2"
_symmetry_group_IT_number 95
_symmetry_cell_setting 'tetragonal'
loop_
_space_group_symop_operation_xyz
x,y,z
-y,x,3/4+z
-x,-y,1/2+z
y,-x,1/4+z
x,-y,1/2-z
-x,y,-z
y,x,1/4-z
-y,-x,3/4-z
loop_
_atom_site_type_symbol
_atom_site_label
_atom_site_fract_x
_atom_site_fract_y
_atom_site_fract_z
Si Si1 0.111235 0.580216 0.328395
Si Si2 0.544650 0.090531 0.607312
Si Si3 0.168273 0.168273 0.625000
Si Si4 0.227155 0.000000 0.750000
Si Si5 0.312733 0.863328 0.605033
Si Si6 0.386993 0.392655 0.738495
Si Si7 0.293791 0.208183 0.443364
Si Si8 0.782934 0.514555 0.971246
O O1 0.125417 0.500000 0.250000
O O2 0.112565 0.666256 0.256944
O O3 0.190132 0.573088 0.407822
O O4 0.016096 0.555063 0.380008
O O5 0.500000 0.095751 0.500000
O O6 0.645310 0.129295 0.598812
O O7 0.491234 0.156975 0.680515
O O8 0.173813 0.077761 0.690569
O O9 0.250251 0.179875 0.547296
O O10 0.287238 0.049186 0.831985
O O11 0.235861 0.788068 0.622188
O O12 0.399034 0.819566 0.660769
O O13 0.403673 0.500000 0.750000
O O14 0.372642 0.372642 0.625000
O O15 0.295703 0.359638 0.792703
O O16 0.468200 0.323890 0.766775
#
# Coordination Sequence:
#
# PCOD9550449 Si02
#       8
#     8   8   4   4   8   8   8   8
#     4   9  19  34  52  79 110 150 189 246 312 361
#     4  11  21  30  55  83 111 148 195 251 308 359
#     4  10  20  34  56  90 116 154 178 252 298 378
#     4  10  20  32  58  90 122 142 196 232 312 362
#     4   9  20  33  55  80 119 148 189 245 299 364
#     4  11  21  36  53  75 110 154 202 246 295 353
#     4  10  19  33  52  80 114 148 189 242 303 350
#     4  10  21  35  52  80 114 149 197 253 302 353
#
# _framework density 18.820554999999999
#
# number of rings (size 3 to 8) (size 9 to 14) (size 15 to 20)
#    0.000    2.000    0.714    3.429   10.000    0.000 
#    0.000    5.714    0.000    0.000   22.286    0.000 
#    0.000    0.000    0.000    0.000    0.000    0.000 
#
# Total GULP energy -312154.222506 kJ/mol
# GULP energy per Si atom -5574.182545 kJ/mol
# Density = 1.877772 g / cm^3
# Si number density = 18.820555 Si / 1000 Ang^3
#
#
#
# Elastic Constant Matrix: (Units=GPa)
#
#
# Indices 1 2 3 4 5 6 
#
# 1 86.8243 26.2650 25.8488 0.0000 0.0000 0.0000
# 2 26.2650 86.8243 25.8488 0.0000 0.0000 0.0000
# 3 25.8488 25.8488 56.4603 0.0000 0.0000 0.0000
# 4 0.0000 0.0000 0.0000 21.7252 0.0000 0.0000
# 5 0.0000 0.0000 0.0000 0.0000 21.7252 0.0000
# 6 0.0000 0.0000 0.0000 0.0000 0.0000 11.4199
#
#
#
# Elastic Compliance Matrix: (Units=1/GPa)
#
#
# Indices 1 2 3 4 5 6 
#
# 1 0.013848 -0.002665 -0.005120 0.000000 0.000000 0.000000
# 2 -0.002665 0.013848 -0.005120 0.000000 0.000000 0.000000
# 3 -0.005120 -0.005120 0.022400 0.000000 0.000000 0.000000
# 4 0.000000 0.000000 0.000000 0.046030 0.000000 0.000000
# 5 0.000000 0.000000 0.000000 0.000000 0.046030 0.000000
# 6 0.000000 0.000000 0.000000 0.000000 0.000000 0.087566
#
#
# Mechanical properties :
#
#
# Convention : Reuss Voigt Hill
#
# Bulk Modulus (GPa) = 41.17560 42.89266 42.03413
# Shear Modulus (GPa) = 18.96630 21.11712 20.04171
#
# Velocity S-wave (km/s) = 3.17794 3.35330 3.26680
# Velocity P-wave (km/s) = 5.94905 6.15082 6.05078
#
# Compressibility (1/GPa) = 0.02428623
#
# Stress axis : x y z
#
# Youngs Moduli (GPa) = 72.21306 72.21306 44.64373
#
# Poissons Ratio (x) = 0.19244 0.22857
# Poissons Ratio (y) = 0.19244 0.22857
# Poissons Ratio (z) = 0.36972 0.36972
#
# Static dielectric constant tensor:
#      x y z
#    x 1.700030 0.000000 0.000000 
#    y 0.000000 1.700030 0.000000 
#    z 0.000000 0.000000 1.689980 
# 
# From -- ./inp_files/5017.got.cif
#   From: 2010.05.17/outbox.cif.g08.bks.cpg/sg95_3_cif.got.tgz:5017.got - 2010.06.03 19:46:49.
