data_PCOD9550878
_publ_section_title
;
Structure prediction by ZEFSAII (Michael W. Deem and Ramdas Pophale) SiO2 
 PCOD9550878
Probable space group: P 43 21 2
;
_chemical_formula_sum "Si O2"
_cell_formula_units_Z 44
_cell_length_a 7.852915
_cell_length_b 7.852915
_cell_length_c 26.434785
_cell_angle_alpha 90.000000
_cell_angle_beta 90.000000
_cell_angle_gamma 90.000000
_cell_volume 1630.187564
_symmetry_space_group_name_H-M "P 43 21 2"
_symmetry_group_IT_number 96
_symmetry_cell_setting 'tetragonal'
loop_
_space_group_symop_operation_xyz
x,y,z
1/2-y,1/2+x,3/4+z
-x,-y,1/2+z
1/2+y,1/2-x,1/4+z
1/2+x,1/2-y,1/4-z
1/2-x,1/2+y,3/4-z
y,x,-z
-y,-x,1/2-z
loop_
_atom_site_type_symbol
_atom_site_label
_atom_site_fract_x
_atom_site_fract_y
_atom_site_fract_z
Si Si1 0.895959 0.104042 0.250000
Si Si2 0.940550 0.203390 0.583338
Si Si3 0.926209 0.791851 0.181440
Si Si4 0.644458 0.961553 0.016501
Si Si5 0.445651 0.071289 0.173591
Si Si6 0.090860 0.232824 0.163342
O O1 0.919388 0.207143 0.197693
O O2 0.081245 0.131278 0.274601
O O3 0.740370 0.176459 0.577824
O O4 0.032216 0.109263 0.629190
O O5 0.022725 0.216812 0.528229
O O6 0.977855 0.399249 0.601327
O O7 0.098112 0.708682 0.203259
O O8 0.672350 0.104471 0.057936
O O9 0.468891 0.985059 0.982414
O O10 0.537263 0.221534 0.143516
O O11 0.243067 0.095727 0.167860
#
# Coordination Sequence:
#
# PCOD9550878 Si02
#       6
#     4   8   8   8   8   8
#     4  12  24  40  68 100 142 196 240 268 376 416
#     4  10  24  41  66 104 138 179 236 287 348 425
#     4  12  24  42  70 100 139 187 233 296 355 420
#     4  10  20  46  66  94 140 182 234 290 350 426
#     4  10  24  41  66 104 138 179 236 287 348 425
#     4  12  24  42  70 100 139 187 233 296 355 420
#
# _framework density 26.990760999999999
#
# number of rings (size 3 to 8) (size 9 to 14) (size 15 to 20)
#    1.091    0.000    5.455    0.000   10.182    0.000 
#    0.000    0.000    0.000    0.000    0.000    0.000 
#    0.000    0.000    0.000    0.000    0.000    0.000 
#
# Total GULP energy -245340.225851 kJ/mol
# GULP energy per Si atom -5575.914224 kJ/mol
# Density = 2.692933 g / cm^3
# Si number density = 26.990761 Si / 1000 Ang^3
#
#
#
# Elastic Constant Matrix: (Units=GPa)
#
#
# Indices 1 2 3 4 5 6 
#
# 1 59.4739 15.4108 30.2906 0.0000 0.0000 0.0000
# 2 15.4108 59.4732 30.2904 0.0000 0.0000 0.0000
# 3 30.2906 30.2904 142.0505 0.0000 0.0000 0.0000
# 4 0.0000 0.0000 0.0000 48.8516 0.0000 0.0000
# 5 0.0000 0.0000 0.0000 0.0000 48.8515 0.0000
# 6 0.0000 0.0000 0.0000 0.0000 0.0000 37.6860
#
#
#
# Elastic Compliance Matrix: (Units=1/GPa)
#
#
# Indices 1 2 3 4 5 6 
#
# 1 0.019416 -0.003279 -0.003441 0.000000 0.000000 0.000000
# 2 -0.003279 0.019416 -0.003441 0.000000 0.000000 0.000000
# 3 -0.003441 -0.003441 0.008507 0.000000 0.000000 0.000000
# 4 0.000000 0.000000 0.000000 0.020470 0.000000 0.000000
# 5 0.000000 0.000000 0.000000 0.000000 0.020470 0.000000
# 6 0.000000 0.000000 0.000000 0.000000 0.000000 0.026535
#
#
# Mechanical properties :
#
#
# Convention : Reuss Voigt Hill
#
# Bulk Modulus (GPa) = 37.01206 45.88681 41.44944
# Shear Modulus (GPa) = 34.68767 39.41153 37.04960
#
# Velocity S-wave (km/s) = 3.58881 3.82538 3.70899
# Velocity P-wave (km/s) = 5.56016 6.04560 5.80795
#
# Compressibility (1/GPa) = 0.02701822
#
# Stress axis : x y z
#
# Youngs Moduli (GPa) = 51.50322 51.50264 117.54571
#
# Poissons Ratio (x) = 0.16885 0.40450
# Poissons Ratio (y) = 0.16886 0.40450
# Poissons Ratio (z) = 0.17723 0.17723
#
# Static dielectric constant tensor:
#      x y z
#    x 2.212680 0.000000 0.000000 
#    y 0.000000 2.212680 0.000000 
#    z 0.000000 0.000000 2.092490 
# 
# From -- ./inp_files/4390.got.cif
#   From: 2010.05.17/outbox.cif.g08.bks.cpg/sg96_3_cif.got.tgz:4390.got - 2010.06.03 19:52:08.
