data_PCOD9550002
_publ_section_title
;
Structure prediction by ZEFSAII (Michael W. Deem and Ramdas Pophale) SiO2 
 PCOD9550002
Probable space group: P 42 21 2
;
_chemical_formula_sum "Si O2"
_cell_formula_units_Z 40
_cell_length_a 9.087722
_cell_length_b 9.087722
_cell_length_c 22.387431
_cell_angle_alpha 90.000000
_cell_angle_beta 90.000000
_cell_angle_gamma 90.000000
_cell_volume 1848.903850
_symmetry_space_group_name_H-M "P 42 21 2"
_symmetry_group_IT_number 94
_symmetry_cell_setting 'tetragonal'
loop_
_space_group_symop_operation_xyz
x,y,z
1/2-y,1/2+x,1/2+z
-x,-y,z
1/2+y,1/2-x,1/2+z
1/2+x,1/2-y,1/2-z
1/2-x,1/2+y,1/2-z
y,x,-z
-y,-x,-z
loop_
_atom_site_type_symbol
_atom_site_label
_atom_site_fract_x
_atom_site_fract_y
_atom_site_fract_z
Si Si1 0.698348 0.085113 0.299331
Si Si2 0.071532 0.354616 0.941749
Si Si3 0.161440 0.641604 0.575102
Si Si4 0.114799 0.870906 0.109823
Si Si5 0.608082 0.772912 0.269280
O O1 0.669787 0.054897 0.369411
O O2 0.563900 0.193641 0.280323
O O3 0.848600 0.168013 0.284821
O O4 0.680395 0.933439 0.264334
O O5 0.213976 0.268092 0.917262
O O6 0.000000 0.500000 0.913365
O O7 0.942793 0.232676 0.934584
O O8 0.129787 0.397236 0.008077
O O9 0.244795 0.486361 0.581983
O O10 0.173932 0.807145 0.171953
O O11 0.000000 0.000000 0.125895
#
# Coordination Sequence:
#
# PCOD9550002 Si02
#       5
#     8   8   8   8   8
#     4  10  23  40  60  88 120 159 202 249 306 364
#     4  10  20  33  61  87 116 153 198 249 297 354
#     4   9  20  38  55  85 119 155 194 249 300 356
#     4   9  19  36  59  86 119 149 200 242 296 358
#     4  10  23  38  61  89 118 162 198 247 303 362
#
# _framework density 21.634442
#
# number of rings (size 3 to 8) (size 9 to 14) (size 15 to 20)
#    0.000    2.400    0.000    0.600   14.000    4.000 
#    0.000    0.000    0.000    0.000    0.000    0.000 
#    0.000    0.000    0.000    0.000    0.000    0.000 
#
# Total GULP energy -222962.582306 kJ/mol
# GULP energy per Si atom -5574.064558 kJ/mol
# Density = 2.158520 g / cm^3
# Si number density = 21.634442 Si / 1000 Ang^3
#
#
#
# Elastic Constant Matrix: (Units=GPa)
#
#
# Indices 1 2 3 4 5 6 
#
# 1 51.4759 20.1054 2.1009 0.0000 0.0000 0.0000
# 2 20.1054 51.4759 2.1009 0.0000 0.0000 0.0000
# 3 2.1009 2.1009 52.7337 0.0000 0.0000 0.0000
# 4 0.0000 0.0000 0.0000 23.3509 0.0000 0.0000
# 5 0.0000 0.0000 0.0000 0.0000 23.3509 0.0000
# 6 0.0000 0.0000 0.0000 0.0000 0.0000 29.7629
#
#
#
# Elastic Compliance Matrix: (Units=1/GPa)
#
#
# Indices 1 2 3 4 5 6 
#
# 1 0.022940 -0.008937 -0.000558 0.000000 0.000000 0.000000
# 2 -0.008937 0.022940 -0.000558 0.000000 0.000000 0.000000
# 3 -0.000558 -0.000558 0.019008 0.000000 0.000000 0.000000
# 4 0.000000 0.000000 0.000000 0.042825 0.000000 0.000000
# 5 0.000000 0.000000 0.000000 0.000000 0.042825 0.000000
# 6 0.000000 0.000000 0.000000 0.000000 0.000000 0.033599
#
#
# Mechanical properties :
#
#
# Convention : Reuss Voigt Hill
#
# Bulk Modulus (GPa) = 22.33042 22.69997 22.51519
# Shear Modulus (GPa) = 22.81344 24.05151 23.43248
#
# Velocity S-wave (km/s) = 3.25082 3.33787 3.29463
# Velocity P-wave (km/s) = 4.94313 5.03691 4.99024
#
# Compressibility (1/GPa) = 0.04478197
#
# Stress axis : x y z
#
# Youngs Moduli (GPa) = 43.59209 43.59209 52.61035
#
# Poissons Ratio (x) = 0.38959 0.02935
# Poissons Ratio (y) = 0.38959 0.02935
# Poissons Ratio (z) = 0.02432 0.02432
#
# Static dielectric constant tensor:
#      x y z
#    x 1.775060 0.000000 0.000000 
#    y 0.000000 1.775060 0.000000 
#    z 0.000000 0.000000 1.839030 
# 
# From -- ./inp_files/4929.got.cif
#   From: 2010.05.17/outbox.cif.g08.bks.cpg/sg94_3_cif.got.tgz:4929.got - 2010.06.03 19:43:16.
