data_PCOD9550292
_publ_section_title
;
Structure prediction by ZEFSAII (Michael W. Deem and Ramdas Pophale) SiO2 
 PCOD9550292
Probable space group: P 42 21 2
;
_chemical_formula_sum "Si O2"
_cell_formula_units_Z 36
_cell_length_a 9.175653
_cell_length_b 9.175653
_cell_length_c 15.135450
_cell_angle_alpha 90.000000
_cell_angle_beta 90.000000
_cell_angle_gamma 90.000000
_cell_volume 1274.293008
_symmetry_space_group_name_H-M "P 42 21 2"
_symmetry_group_IT_number 94
_symmetry_cell_setting 'tetragonal'
loop_
_space_group_symop_operation_xyz
x,y,z
1/2-y,1/2+x,1/2+z
-x,-y,z
1/2+y,1/2-x,1/2+z
1/2+x,1/2-y,1/2-z
1/2-x,1/2+y,1/2-z
y,x,-z
-y,-x,-z
loop_
_atom_site_type_symbol
_atom_site_label
_atom_site_fract_x
_atom_site_fract_y
_atom_site_fract_z
Si Si1 0.946444 0.835093 0.085396
Si Si2 0.719602 0.868504 0.419554
Si Si3 0.871851 0.293118 0.706220
Si Si4 0.504528 0.326815 0.139376
Si Si5 0.000000 0.500000 0.350485
O O1 0.872249 0.771149 0.170891
O O2 0.081182 0.729453 0.064411
O O3 0.842684 0.842684 0.000000
O O4 0.000000 0.000000 0.098202
O O5 0.830753 0.830753 0.500000
O O6 0.824067 0.810827 0.341198
O O7 0.686075 0.027997 0.384513
O O8 0.964095 0.367755 0.783421
O O9 0.841452 0.121616 0.711901
O O10 0.500000 0.500000 0.105054
O O11 0.474488 0.158105 0.101530
#
# Coordination Sequence:
#
# PCOD9550292 Si02
#       5
#     8   8   8   8   4
#     4  11  23  41  68 107 140 185 238 300 371 438
#     4  11  23  48  70 106 148 186 246 305 379 453
#     4  11  26  46  69 103 145 194 240 307 371 447
#     4  10  28  46  73 109 141 200 250 311 378 449
#     4  12  26  48  74 104 150 198 258 310 382 460
#
# _framework density 28.250957
#
# number of rings (size 3 to 8) (size 9 to 14) (size 15 to 20)
#    0.000    1.111    4.444    0.000   12.444    4.000 
#    0.000    0.000    0.000    0.000    0.000    0.000 
#    0.000    0.000    0.000    0.000    0.000    0.000 
#
# Total GULP energy -200708.647384 kJ/mol
# GULP energy per Si atom -5575.240205 kJ/mol
# Density = 2.818666 g / cm^3
# Si number density = 28.250957 Si / 1000 Ang^3
#
#
#
# Elastic Constant Matrix: (Units=GPa)
#
#
# Indices 1 2 3 4 5 6 
#
# 1 149.8893 62.1256 28.8660 0.0000 0.0000 0.0000
# 2 62.1256 149.8893 28.8660 0.0000 0.0000 0.0000
# 3 28.8660 28.8660 109.5513 0.0000 0.0000 0.0000
# 4 0.0000 0.0000 0.0000 35.9203 0.0000 0.0000
# 5 0.0000 0.0000 0.0000 0.0000 35.9203 0.0000
# 6 0.0000 0.0000 0.0000 0.0000 0.0000 54.7109
#
#
#
# Elastic Compliance Matrix: (Units=1/GPa)
#
#
# Indices 1 2 3 4 5 6 
#
# 1 0.008238 -0.003157 -0.001339 0.000000 0.000000 0.000000
# 2 -0.003157 0.008238 -0.001339 0.000000 0.000000 0.000000
# 3 -0.001339 -0.001339 0.009834 0.000000 0.000000 0.000000
# 4 0.000000 0.000000 0.000000 0.027839 0.000000 0.000000
# 5 0.000000 0.000000 0.000000 0.000000 0.027839 0.000000
# 6 0.000000 0.000000 0.000000 0.000000 0.000000 0.018278
#
#
# Mechanical properties :
#
#
# Convention : Reuss Voigt Hill
#
# Bulk Modulus (GPa) = 68.30277 72.11610 70.20943
# Shear Modulus (GPa) = 42.80287 44.60845 43.70566
#
# Velocity S-wave (km/s) = 3.89664 3.97798 3.93752
# Velocity P-wave (km/s) = 6.66894 6.83239 6.75116
#
# Compressibility (1/GPa) = 0.01464069
#
# Stress axis : x y z
#
# Youngs Moduli (GPa) = 121.39267 121.39267 101.69104
#
# Poissons Ratio (x) = 0.38318 0.13615
# Poissons Ratio (y) = 0.38318 0.13615
# Poissons Ratio (z) = 0.16253 0.16253
#
# Static dielectric constant tensor:
#      x y z
#    x 2.383830 0.000000 0.000000 
#    y 0.000000 2.383830 0.000000 
#    z 0.000000 0.000000 2.829820 
# 
# From -- ./inp_files/4535.got.cif
#   From: 2010.05.17/outbox.cif.g08.bks.cpg/sg94_3_cif.got.tgz:4535.got - 2010.06.03 19:43:16.
