data_PCOD9550987
_publ_section_title
;
Structure prediction by ZEFSAII (Michael W. Deem and Ramdas Pophale) SiO2 
 PCOD9550987
Probable space group: P 43 21 2
;
_chemical_formula_sum "Si O2"
_cell_formula_units_Z 40
_cell_length_a 8.211220
_cell_length_b 8.211220
_cell_length_c 24.057504
_cell_angle_alpha 90.000000
_cell_angle_beta 90.000000
_cell_angle_gamma 90.000000
_cell_volume 1622.056371
_symmetry_space_group_name_H-M "P 43 21 2"
_symmetry_group_IT_number 96
_symmetry_cell_setting 'tetragonal'
loop_
_space_group_symop_operation_xyz
x,y,z
1/2-y,1/2+x,3/4+z
-x,-y,1/2+z
1/2+y,1/2-x,1/4+z
1/2+x,1/2-y,1/4-z
1/2-x,1/2+y,3/4-z
y,x,-z
-y,-x,1/2-z
loop_
_atom_site_type_symbol
_atom_site_label
_atom_site_fract_x
_atom_site_fract_y
_atom_site_fract_z
Si Si1 0.771403 0.771403 0.500000
Si Si2 0.418558 0.905971 0.657111
Si Si3 0.733683 0.265685 0.448539
Si Si4 0.742840 0.996693 0.856367
Si Si5 0.911234 0.088767 0.750000
Si Si6 0.387329 0.335654 0.305493
O O1 0.623418 0.793817 0.457917
O O2 0.930994 0.783908 0.461105
O O3 0.594123 0.840842 0.677260
O O4 0.358515 0.814232 0.602270
O O5 0.436659 0.091087 0.640452
O O6 0.587109 0.373781 0.473419
O O7 0.855518 0.212855 0.498310
O O8 0.786739 0.098766 0.801397
O O9 0.887223 0.015609 0.901268
O O10 0.691933 0.818909 0.836463
#
# Coordination Sequence:
#
# PCOD9550987 Si02
#       6
#     4   8   8   8   4   8
#     4  10  22  44  64  90 132 168 206 260 320 378
#     4  11  23  41  65  95 127 166 213 262 316 376
#     4  10  24  42  64  94 129 168 209 259 316 376
#     4  11  23  41  65  95 127 166 213 262 316 376
#     4  10  22  44  64  90 132 168 206 260 320 378
#     4  10  24  42  64  94 129 168 209 259 316 376
#
# _framework density 24.660056999999998
#
# number of rings (size 3 to 8) (size 9 to 14) (size 15 to 20)
#    0.000    1.600    0.000    3.600    0.000   14.400 
#    0.000    4.000    0.000    0.000    0.000    0.000 
#    0.000    0.000    0.000    0.000    0.000    0.000 
#
# Total GULP energy -224087.670030 kJ/mol
# GULP energy per Si atom -5602.191751 kJ/mol
# Density = 2.460393 g / cm^3
# Si number density = 24.660057 Si / 1000 Ang^3
#
#
#
# Elastic Constant Matrix: (Units=GPa)
#
#
# Indices 1 2 3 4 5 6 
#
# 1 47.8440 19.0909 37.2007 0.0000 0.0000 0.0000
# 2 19.0909 47.8436 37.2004 0.0000 0.0000 0.0000
# 3 37.2007 37.2004 150.4520 0.0000 0.0000 0.0000
# 4 0.0000 0.0000 0.0000 55.3647 0.0000 0.0000
# 5 0.0000 0.0000 0.0000 0.0000 55.3648 0.0000
# 6 0.0000 0.0000 0.0000 0.0000 0.0000 25.0122
#
#
#
# Elastic Compliance Matrix: (Units=1/GPa)
#
#
# Indices 1 2 3 4 5 6 
#
# 1 0.027691 -0.007088 -0.005094 0.000000 0.000000 0.000000
# 2 -0.007088 0.027691 -0.005094 0.000000 0.000000 0.000000
# 3 -0.005094 -0.005094 0.009166 0.000000 0.000000 0.000000
# 4 0.000000 0.000000 0.000000 0.018062 0.000000 0.000000
# 5 0.000000 0.000000 0.000000 0.000000 0.018062 0.000000
# 6 0.000000 0.000000 0.000000 0.000000 0.000000 0.039980
#
#
# Mechanical properties :
#
#
# Convention : Reuss Voigt Hill
#
# Bulk Modulus (GPa) = 33.34008 48.12483 40.73246
# Shear Modulus (GPa) = 26.99745 37.32486 32.16116
#
# Velocity S-wave (km/s) = 3.31234 3.89469 3.61526
# Velocity P-wave (km/s) = 5.30830 6.30734 5.82926
#
# Compressibility (1/GPa) = 0.02999393
#
# Stress axis : x y z
#
# Youngs Moduli (GPa) = 36.11336 36.11318 109.10187
#
# Poissons Ratio (x) = 0.25598 0.55578
# Poissons Ratio (y) = 0.25599 0.55577
# Poissons Ratio (z) = 0.18396 0.18396
#
# Static dielectric constant tensor:
#      x y z
#    x 1.991110 0.000000 0.000000 
#    y 0.000000 1.991110 0.000000 
#    z 0.000000 0.000000 1.960430 
# 
# From -- ./inp_files/3852.got.cif
#   From: 2010.05.17/outbox.cif.g08.bks.cpg/sg96_2_cif.got.tgz:3852.got - 2010.06.03 19:52:08.
