data_PCOD9550265
_publ_section_title
;
Structure prediction by ZEFSAII (Michael W. Deem and Ramdas Pophale) SiO2 
 PCOD9550265
Probable space group: P 42 21 2
;
_chemical_formula_sum "Si O2"
_cell_formula_units_Z 52
_cell_length_a 19.856445
_cell_length_b 19.856445
_cell_length_c 6.508395
_cell_angle_alpha 90.000000
_cell_angle_beta 90.000000
_cell_angle_gamma 90.000000
_cell_volume 2566.119619
_symmetry_space_group_name_H-M "P 42 21 2"
_symmetry_group_IT_number 94
_symmetry_cell_setting 'tetragonal'
loop_
_space_group_symop_operation_xyz
x,y,z
1/2-y,1/2+x,1/2+z
-x,-y,z
1/2+y,1/2-x,1/2+z
1/2+x,1/2-y,1/2-z
1/2-x,1/2+y,1/2-z
y,x,-z
-y,-x,-z
loop_
_atom_site_type_symbol
_atom_site_label
_atom_site_fract_x
_atom_site_fract_y
_atom_site_fract_z
Si Si1 0.409092 0.151023 0.214541
Si Si2 0.993028 0.808432 0.749516
Si Si3 0.908048 0.784045 0.343742
Si Si4 0.124912 0.767368 0.580504
Si Si5 0.104683 0.104683 0.000000
Si Si6 0.191778 0.707159 0.952603
Si Si7 0.175175 0.536655 0.524947
O O1 0.353673 0.175733 0.374673
O O2 0.377262 0.088914 0.082737
O O3 0.474437 0.138176 0.358388
O O4 0.415661 0.219310 0.077710
O O5 0.955265 0.807724 0.529742
O O6 0.964472 0.869114 0.891823
O O7 0.982800 0.734536 0.859221
O O8 0.071719 0.813353 0.700586
O O9 0.842067 0.753570 0.439350
O O10 0.889147 0.842484 0.185260
O O11 0.934841 0.721647 0.208159
O O12 0.185638 0.814363 0.500000
O O13 0.155600 0.713395 0.736560
O O14 0.218286 0.781715 0.000000
#
# Coordination Sequence:
#
# PCOD9550265 Si02
#       7
#     8   8   8   8   4   8   8
#     4  12  24  43  66 101 140 180 236 278 347 418
#     4  11  22  42  65  97 136 176 224 282 345 411
#     4  11  22  38  65  99 136 173 220 277 342 404
#     4  12  25  40  67 103 138 179 224 287 362 418
#     4  10  24  38  66  99 126 180 226 276 337 408
#     4  12  23  36  64 102 137 166 217 285 346 412
#     4  11  24  40  69  98 135 184 224 280 341 413
#
# _framework density 20.264059
#
# number of rings (size 3 to 8) (size 9 to 14) (size 15 to 20)
#    0.000    0.615    7.692    1.385    3.231    0.000 
#    0.000    0.000    0.000   17.538    0.000    0.000 
#    0.000    0.000    0.000    0.000    0.000    0.000 
#
# Total GULP energy -289637.970371 kJ/mol
# GULP energy per Si atom -5569.960969 kJ/mol
# Density = 2.021794 g / cm^3
# Si number density = 20.264059 Si / 1000 Ang^3
#
#
#
# Elastic Constant Matrix: (Units=GPa)
#
#
# Indices 1 2 3 4 5 6 
#
# 1 2.0921 71.4147 27.4505 0.0000 0.0000 0.0000
# 2 71.4147 2.1171 27.4454 0.0000 0.0000 0.0000
# 3 27.4505 27.4454 133.2207 0.0000 0.0000 0.0000
# 4 0.0000 0.0000 0.0000 98.7892 0.0000 0.0000
# 5 0.0000 0.0000 0.0000 0.0000 98.7751 0.0000
# 6 0.0000 0.0000 0.0000 0.0000 0.0000 15.8809
#
#
#
# Elastic Compliance Matrix: (Units=1/GPa)
#
#
# Indices 1 2 3 4 5 6 
#
# 1 0.000820 0.015251 -0.003311 0.000000 0.000000 0.000000
# 2 0.015251 0.000827 -0.003313 0.000000 0.000000 0.000000
# 3 -0.003311 -0.003313 0.008871 0.000000 0.000000 0.000000
# 4 0.000000 0.000000 0.000000 0.010123 0.000000 0.000000
# 5 0.000000 0.000000 0.000000 0.000000 0.010124 0.000000
# 6 0.000000 0.000000 0.000000 0.000000 0.000000 0.062969
#
#
# Mechanical properties :
#
#
# Convention : Reuss Voigt Hill
#
# Bulk Modulus (GPa) = 36.00625 43.33902 39.67263
# Shear Modulus (GPa) = 58.31861 43.43031 50.87446
#
# Velocity S-wave (km/s) = 5.37046 4.63451 5.01600
# Velocity P-wave (km/s) = 7.50086 7.07615 7.29159
#
# Compressibility (1/GPa) = 0.02777296
#
# Stress axis : x y z
#
# Youngs Moduli (GPa) = 1219.02990 1209.72887 112.72565
#
# Poissons Ratio (x) = -18.45004 0.37324
# Poissons Ratio (y) = -18.59189 0.37345
# Poissons Ratio (z) = 4.03625 4.00770
#
# Static dielectric constant tensor:
#      x y z
#    x 1.841030 0.000000 0.000000 
#    y 0.000000 1.841030 0.000000 
#    z 0.000000 0.000000 1.745980 
# 
# From -- ./inp_files/555.got.cif
#   From: 2010.05.17/outbox.cif.g08.bks.cpg/sg94_1_cif.got.tgz:555.got - 2010.06.03 19:43:16.
