data_PCOD9550398
_publ_section_title
;
Structure prediction by ZEFSAII (Michael W. Deem and Ramdas Pophale) SiO2 
 PCOD9550398
Probable space group: P 42 21 2
;
_chemical_formula_sum "Si O2"
_cell_formula_units_Z 48
_cell_length_a 9.000000
_cell_length_b 9.000000
_cell_length_c 30.000000
_cell_angle_alpha 90.000000
_cell_angle_beta 90.000000
_cell_angle_gamma 90.000000
_cell_volume 2430.000000
_symmetry_space_group_name_H-M "P 42 21 2"
_symmetry_group_IT_number 94
_symmetry_cell_setting 'tetragonal'
loop_
_space_group_symop_operation_xyz
x,y,z
1/2-y,1/2+x,1/2+z
-x,-y,z
1/2+y,1/2-x,1/2+z
1/2+x,1/2-y,1/2-z
1/2-x,1/2+y,1/2-z
y,x,-z
-y,-x,-z
loop_
_atom_site_type_symbol
_atom_site_label
_atom_site_fract_x
_atom_site_fract_y
_atom_site_fract_z
Si Si1 0.739405 0.703141 0.630051
Si Si2 0.828567 0.531795 0.883824
Si Si3 0.364544 0.890225 0.720103
Si Si4 0.500000 0.000000 0.904392
Si Si5 0.209716 0.261187 0.049740
Si Si6 0.914295 0.139122 0.781301
Si Si7 0.000000 0.000000 0.078172
O O1 0.887112 0.603486 0.624193
O O2 0.681705 0.718384 0.680590
O O3 0.607572 0.612398 0.605386
O O4 0.753185 0.872340 0.613273
O O5 0.836301 0.592515 0.832882
O O6 0.760266 0.656954 0.915215
O O7 0.000000 0.500000 0.896751
O O8 0.206800 0.905674 0.744436
O O9 0.445938 0.737619 0.733305
O O10 0.500000 0.000000 0.732232
O O11 0.601495 0.892232 0.934579
O O12 0.105505 0.114654 0.052308
O O13 0.272352 0.272352 0.000000
O O14 0.000000 0.000000 0.801878
#
# Coordination Sequence:
#
# PCOD9550398 Si02
#       7
#     8   8   8   4   8   8   4
#     4  11  22  43  67  95 137 176 226 266 334 396
#     4  11  22  44  69  91 128 185 215 264 338 411
#     4  11  24  43  61  96 132 179 224 270 337 404
#     4  10  28  42  64 108 130 170 222 284 336 390
#     4  11  24  43  70 100 137 169 225 277 339 399
#     4  12  24  39  65  97 131 176 227 281 324 386
#     4  10  19  40  68 100 132 178 220 274 325 388
#
# _framework density 19.753086
#
# number of rings (size 3 to 8) (size 9 to 14) (size 15 to 20)
#    0.000    1.000    5.833    1.250    4.667    2.000 
#    0.000    1.667    0.000    0.000    0.000    0.000 
#    0.000    0.000    0.000    0.000    0.000    0.000 
#
# Total GULP energy -267859.598403 kJ/mol
# GULP energy per Si atom -5580.408300 kJ/mol
# Density = 1.970813 g / cm^3
# Si number density = 19.753086 Si / 1000 Ang^3
#
#
#
# Elastic Constant Matrix: (Units=GPa)
#
#
# Indices 1 2 3 4 5 6 
#
# 1 119.4307 43.3612 37.9736 0.0000 0.0000 0.0000
# 2 43.3612 119.4307 37.9736 0.0000 0.0000 0.0000
# 3 37.9736 37.9736 74.3155 0.0000 0.0000 0.0000
# 4 0.0000 0.0000 0.0000 16.8445 0.0000 0.0000
# 5 0.0000 0.0000 0.0000 0.0000 16.8445 0.0000
# 6 0.0000 0.0000 0.0000 0.0000 0.0000 40.0843
#
#
#
# Elastic Compliance Matrix: (Units=1/GPa)
#
#
# Indices 1 2 3 4 5 6 
#
# 1 0.010606 -0.002540 -0.004121 0.000000 0.000000 0.000000
# 2 -0.002540 0.010606 -0.004121 0.000000 0.000000 0.000000
# 3 -0.004121 -0.004121 0.017668 0.000000 0.000000 0.000000
# 4 0.000000 0.000000 0.000000 0.059366 0.000000 0.000000
# 5 0.000000 0.000000 0.000000 0.000000 0.059366 0.000000
# 6 0.000000 0.000000 0.000000 0.000000 0.000000 0.024947
#
#
# Mechanical properties :
#
#
# Convention : Reuss Voigt Hill
#
# Bulk Modulus (GPa) = 57.75756 61.31042 59.53399
# Shear Modulus (GPa) = 23.82127 27.67924 25.75025
#
# Velocity S-wave (km/s) = 3.47645 3.74740 3.61447
# Velocity P-wave (km/s) = 6.73925 7.05902 6.90099
#
# Compressibility (1/GPa) = 0.01731375
#
# Stress axis : x y z
#
# Youngs Moduli (GPa) = 94.28893 94.28893 56.59969
#
# Poissons Ratio (x) = 0.23951 0.23326
# Poissons Ratio (y) = 0.23951 0.23326
# Poissons Ratio (z) = 0.38859 0.38859
#
# Static dielectric constant tensor:
#      x y z
#    x 1.790310 0.000000 0.000000 
#    y 0.000000 1.790310 0.000000 
#    z 0.000000 0.000000 1.686880 
# 
# From -- ./inp_files/5660.got.cif
#   From: 2010.05.17/outbox.ucp.g08.bks.cvg/sg94_3_cif.got.tgz:5660.got - 2010.06.11 10:37:05.
