data_PCOD9550365
_publ_section_title
;
Structure prediction by ZEFSAII (Michael W. Deem and Ramdas Pophale) SiO2 
 PCOD9550365
Probable space group: P 42 21 2
;
_chemical_formula_sum "Si O2"
_cell_formula_units_Z 36
_cell_length_a 7.804894
_cell_length_b 7.804894
_cell_length_c 24.079760
_cell_angle_alpha 90.000000
_cell_angle_beta 90.000000
_cell_angle_gamma 90.000000
_cell_volume 1466.851578
_symmetry_space_group_name_H-M "P 42 21 2"
_symmetry_group_IT_number 94
_symmetry_cell_setting 'tetragonal'
loop_
_space_group_symop_operation_xyz
x,y,z
1/2-y,1/2+x,1/2+z
-x,-y,z
1/2+y,1/2-x,1/2+z
1/2+x,1/2-y,1/2-z
1/2-x,1/2+y,1/2-z
y,x,-z
-y,-x,-z
loop_
_atom_site_type_symbol
_atom_site_label
_atom_site_fract_x
_atom_site_fract_y
_atom_site_fract_z
Si Si1 0.597639 0.789586 0.079939
Si Si2 0.687318 0.504500 0.330914
Si Si3 0.921634 0.770393 0.600723
Si Si4 0.824346 0.392640 0.218751
Si Si5 0.500000 0.000000 0.977078
O O1 0.316917 0.089436 0.126622
O O2 0.674813 0.600558 0.073743
O O3 0.403756 0.732519 0.096245
O O4 0.598876 0.884335 0.021607
O O5 0.500000 0.500000 0.357453
O O6 0.711089 0.398069 0.273725
O O7 0.683969 0.698795 0.305608
O O8 0.877456 0.602195 0.565531
O O9 0.982430 0.749506 0.664047
O O10 0.000000 0.500000 0.231303
#
# Coordination Sequence:
#
# PCOD9550365 Si02
#       5
#     8   8   8   8   4
#     4  11  26  48  77 109 156 199 266 328 404 489
#     4  12  28  47  76 118 156 209 263 337 411 492
#     4  11  25  48  77 110 151 214 260 326 408 480
#     4  12  26  47  77 111 160 202 261 329 407 500
#     4  12  24  46  76 110 144 202 264 334 392 484
#
# _framework density 24.542361
#
# number of rings (size 3 to 8) (size 9 to 14) (size 15 to 20)
#    0.000    0.444    1.111    6.667   10.889    1.778 
#    0.000    0.000    0.000    0.000    0.000    0.000 
#    0.000    0.000    0.000    0.000    0.000    0.000 
#
# Total GULP energy -200759.697798 kJ/mol
# GULP energy per Si atom -5576.658272 kJ/mol
# Density = 2.448650 g / cm^3
# Si number density = 24.542361 Si / 1000 Ang^3
#
#
#
# Elastic Constant Matrix: (Units=GPa)
#
#
# Indices 1 2 3 4 5 6 
#
# 1 146.7570 43.9801 46.5919 0.0000 0.0000 0.0000
# 2 43.9801 146.7570 46.5919 0.0000 0.0000 0.0000
# 3 46.5919 46.5919 168.9821 0.0000 0.0000 0.0000
# 4 0.0000 0.0000 0.0000 220.7552 0.0000 0.0000
# 5 0.0000 0.0000 0.0000 0.0000 220.7552 0.0000
# 6 0.0000 0.0000 0.0000 0.0000 0.0000 23.6447
#
#
#
# Elastic Compliance Matrix: (Units=1/GPa)
#
#
# Indices 1 2 3 4 5 6 
#
# 1 0.007894 -0.001835 -0.001671 0.000000 0.000000 0.000000
# 2 -0.001835 0.007894 -0.001671 0.000000 0.000000 0.000000
# 3 -0.001671 -0.001671 0.006839 0.000000 0.000000 0.000000
# 4 0.000000 0.000000 0.000000 0.004530 0.000000 0.000000
# 5 0.000000 0.000000 0.000000 0.000000 0.004530 0.000000
# 6 0.000000 0.000000 0.000000 0.000000 0.000000 0.042293
#
#
# Mechanical properties :
#
#
# Convention : Reuss Voigt Hill
#
# Bulk Modulus (GPa) = 81.46887 81.86931 81.66909
# Shear Modulus (GPa) = 56.54506 114.71985 85.63245
#
# Velocity S-wave (km/s) = 4.80518 6.84435 5.91333
# Velocity P-wave (km/s) = 8.00335 9.79239 8.94272
#
# Compressibility (1/GPa) = 0.01227463
#
# Stress axis : x y z
#
# Youngs Moduli (GPa) = 126.67216 126.67216 146.21986
#
# Poissons Ratio (x) = 0.23250 0.24427
# Poissons Ratio (y) = 0.23250 0.24427
# Poissons Ratio (z) = 0.21162 0.21162
#
# Static dielectric constant tensor:
#      x y z
#    x 1.983190 0.000000 0.000000 
#    y 0.000000 1.983190 0.000000 
#    z 0.000000 0.000000 2.032380 
# 
# From -- ./inp_files/4561.got.cif
#   From: 2010.05.17/outbox.cif.g08.bks.cpg/sg94_3_cif.got.tgz:4561.got - 2010.06.03 19:43:16.
