data_PCOD9550003
_publ_section_title
;
Structure prediction by ZEFSAII (Michael W. Deem and Ramdas Pophale) SiO2 
 PCOD9550003
Probable space group: P 42 21 2
;
_chemical_formula_sum "Si O2"
_cell_formula_units_Z 40
_cell_length_a 13.198198
_cell_length_b 13.198198
_cell_length_c 9.356895
_cell_angle_alpha 90.000000
_cell_angle_beta 90.000000
_cell_angle_gamma 90.000000
_cell_volume 1629.900281
_symmetry_space_group_name_H-M "P 42 21 2"
_symmetry_group_IT_number 94
_symmetry_cell_setting 'tetragonal'
loop_
_space_group_symop_operation_xyz
x,y,z
1/2-y,1/2+x,1/2+z
-x,-y,z
1/2+y,1/2-x,1/2+z
1/2+x,1/2-y,1/2-z
1/2-x,1/2+y,1/2-z
y,x,-z
-y,-x,-z
loop_
_atom_site_type_symbol
_atom_site_label
_atom_site_fract_x
_atom_site_fract_y
_atom_site_fract_z
Si Si1 0.345545 0.972894 0.979245
Si Si2 0.180533 0.117055 0.339477
Si Si3 0.524099 0.837409 0.982147
Si Si4 0.345573 0.254906 0.227308
Si Si5 0.531296 0.636319 0.634392
O O1 0.428574 0.898393 0.053574
O O2 0.247006 0.998221 0.071473
O O3 0.405018 0.071985 0.929044
O O4 0.303088 0.911925 0.845745
O O5 0.144808 0.144808 0.500000
O O6 0.233654 0.210291 0.257661
O O7 0.265601 0.031572 0.370549
O O8 0.101944 0.063868 0.231389
O O9 0.598048 0.772194 0.081671
O O10 0.350075 0.371701 0.264894
O O11 0.571700 0.571700 0.500000
#
# Coordination Sequence:
#
# PCOD9550003 Si02
#       5
#     8   8   8   8   8
#     4   9  19  34  59  97 138 174 237 295 355 414
#     4  11  23  42  68 105 145 187 238 306 365 428
#     4  10  20  33  63 100 132 186 231 301 354 428
#     4  10  20  37  63 101 143 183 235 296 364 414
#     4  10  21  41  68  97 143 192 234 292 361 435
#
# _framework density 24.541377000000001
#
# number of rings (size 3 to 8) (size 9 to 14) (size 15 to 20)
#    0.000    2.000    2.000    3.000    2.800    2.400 
#    0.000    2.000    0.000    9.600    0.000    0.000 
#    0.000    0.000    0.000    0.000    0.000    0.000 
#
# Total GULP energy -223558.132215 kJ/mol
# GULP energy per Si atom -5588.953305 kJ/mol
# Density = 2.448552 g / cm^3
# Si number density = 24.541377 Si / 1000 Ang^3
#
#
#
# Elastic Constant Matrix: (Units=GPa)
#
#
# Indices 1 2 3 4 5 6 
#
# 1 94.4060 20.2597 10.6652 0.0000 0.0000 0.0000
# 2 20.2597 94.4060 10.6652 0.0000 0.0000 0.0000
# 3 10.6652 10.6652 60.7997 0.0000 0.0000 0.0000
# 4 0.0000 0.0000 0.0000 32.4033 0.0000 0.0000
# 5 0.0000 0.0000 0.0000 0.0000 32.4033 0.0000
# 6 0.0000 0.0000 0.0000 0.0000 0.0000 40.7041
#
#
#
# Elastic Compliance Matrix: (Units=1/GPa)
#
#
# Indices 1 2 3 4 5 6 
#
# 1 0.011251 -0.002236 -0.001581 0.000000 0.000000 0.000000
# 2 -0.002236 0.011251 -0.001581 0.000000 0.000000 0.000000
# 3 -0.001581 -0.001581 0.017002 0.000000 0.000000 0.000000
# 4 0.000000 0.000000 0.000000 0.030861 0.000000 0.000000
# 5 0.000000 0.000000 0.000000 0.000000 0.030861 0.000000
# 6 0.000000 0.000000 0.000000 0.000000 0.000000 0.024568
#
#
# Mechanical properties :
#
#
# Convention : Reuss Voigt Hill
#
# Bulk Modulus (GPa) = 34.83472 36.97689 35.90581
# Shear Modulus (GPa) = 34.20904 34.97025 34.58965
#
# Velocity S-wave (km/s) = 3.73759 3.77895 3.75833
# Velocity P-wave (km/s) = 5.73160 5.84298 5.78756
#
# Compressibility (1/GPa) = 0.02870699
#
# Stress axis : x y z
#
# Youngs Moduli (GPa) = 88.88087 88.88087 58.81578
#
# Poissons Ratio (x) = 0.19872 0.09301
# Poissons Ratio (y) = 0.19872 0.09301
# Poissons Ratio (z) = 0.14056 0.14056
#
# Static dielectric constant tensor:
#      x y z
#    x 1.990160 0.000000 0.000000 
#    y 0.000000 1.990160 0.000000 
#    z 0.000000 0.000000 1.959880 
# 
# From -- ./inp_files/1427.got.cif
#   From: 2010.05.17/outbox.cif.g08.bks.cpg/sg94_1_cif.got.tgz:1427.got - 2010.06.03 19:43:16.
