data_PCOD9550409
_publ_section_title
;
Structure prediction by ZEFSAII (Michael W. Deem and Ramdas Pophale) SiO2 
 PCOD9550409
Probable space group: P 43 2 2
;
_chemical_formula_sum "Si O2"
_cell_formula_units_Z 48
_cell_length_a 17.385909
_cell_length_b 17.385909
_cell_length_c 9.090724
_cell_angle_alpha 90.000000
_cell_angle_beta 90.000000
_cell_angle_gamma 90.000000
_cell_volume 2747.851614
_symmetry_space_group_name_H-M "P 43 2 2"
_symmetry_group_IT_number 95
_symmetry_cell_setting 'tetragonal'
loop_
_space_group_symop_operation_xyz
x,y,z
-y,x,3/4+z
-x,-y,1/2+z
y,-x,1/4+z
x,-y,1/2-z
-x,y,-z
y,x,1/4-z
-y,-x,3/4-z
loop_
_atom_site_type_symbol
_atom_site_label
_atom_site_fract_x
_atom_site_fract_y
_atom_site_fract_z
Si Si1 0.566463 0.303318 0.709786
Si Si2 0.500000 0.284276 0.000000
Si Si3 0.231123 0.731975 0.534350
Si Si4 0.167006 0.635186 0.145425
Si Si5 0.508727 0.137534 0.331083
Si Si6 0.085040 0.648765 0.453972
Si Si7 0.500000 0.414782 0.500000
O O1 0.653153 0.278370 0.733401
O O2 0.516666 0.227282 0.672764
O O3 0.562600 0.360545 0.575730
O O4 0.527808 0.332414 0.860341
O O5 0.572048 0.228440 0.040388
O O6 0.228482 0.771519 0.375000
O O7 0.284689 0.787161 0.633993
O O8 0.145215 0.698723 0.553205
O O9 0.108803 0.652719 0.281010
O O10 0.132168 0.590371 0.004038
O O11 0.500000 0.111699 0.500000
O O12 0.441412 0.095878 0.241326
O O13 0.000000 0.672057 0.500000
O O14 0.535980 0.464021 0.375000
#
# Coordination Sequence:
#
# PCOD9550409 Si02
#       7
#     8   4   8   8   8   8   4
#     4  10  20  34  52  68  93 126 172 228 280 331
#     4  10  16  31  56  79  94 122 176 224 282 336
#     4   9  17  31  54  77  93 137 186 223 275 335
#     4  10  17  33  54  79 103 138 190 220 277 348
#     4  10  19  32  49  79 102 134 179 219 277 336
#     4  10  19  33  50  75 111 144 182 227 283 343
#     4  12  30  41  44  65  98 130 180 232 304 346
#
# _framework density 17.468191000000001
#
# number of rings (size 3 to 8) (size 9 to 14) (size 15 to 20)
#    0.000    2.000    7.500    0.000    4.667    2.667 
#    0.000    2.500    0.000    0.000    0.000    0.000 
#    0.000    0.000    0.000   94.500    0.000    0.000 
#
# Total GULP energy -267306.336006 kJ/mol
# GULP energy per Si atom -5568.882000 kJ/mol
# Density = 1.742843 g / cm^3
# Si number density = 17.468191 Si / 1000 Ang^3
#
#
#
# Elastic Constant Matrix: (Units=GPa)
#
#
# Indices 1 2 3 4 5 6 
#
# 1 73.7355 39.0429 23.7425 0.0000 0.0000 0.0000
# 2 39.0429 73.7342 23.7418 0.0000 0.0000 0.0000
# 3 23.7425 23.7418 83.3929 0.0000 0.0000 0.0000
# 4 0.0000 0.0000 0.0000 11.8879 0.0000 0.0000
# 5 0.0000 0.0000 0.0000 0.0000 11.8885 0.0000
# 6 0.0000 0.0000 0.0000 0.0000 0.0000 8.6743
#
#
#
# Elastic Compliance Matrix: (Units=1/GPa)
#
#
# Indices 1 2 3 4 5 6 
#
# 1 0.019450 -0.009375 -0.002868 0.000000 0.000000 0.000000
# 2 -0.009375 0.019450 -0.002868 0.000000 0.000000 0.000000
# 3 -0.002868 -0.002868 0.013625 0.000000 0.000000 0.000000
# 4 0.000000 0.000000 0.000000 0.084119 0.000000 0.000000
# 5 0.000000 0.000000 0.000000 0.000000 0.084115 0.000000
# 6 0.000000 0.000000 0.000000 0.000000 0.000000 0.115283
#
#
# Mechanical properties :
#
#
# Convention : Reuss Voigt Hill
#
# Bulk Modulus (GPa) = 44.84132 44.87965 44.86048
# Shear Modulus (GPa) = 13.37977 16.11250 14.74614
#
# Velocity S-wave (km/s) = 2.77058 3.04038 2.90861
# Velocity P-wave (km/s) = 5.99674 6.17035 6.08416
#
# Compressibility (1/GPa) = 0.02230086
#
# Stress axis : x y z
#
# Youngs Moduli (GPa) = 51.41445 51.41382 73.39641
#
# Poissons Ratio (x) = 0.48202 0.21053
# Poissons Ratio (y) = 0.48202 0.21051
# Poissons Ratio (z) = 0.14748 0.14746
#
# Static dielectric constant tensor:
#      x y z
#    x 1.633690 0.000000 0.000000 
#    y 0.000000 1.633690 0.000000 
#    z 0.000000 0.000000 1.628790 
# 
# From -- ./inp_files/2674.got.cif
#   From: 2010.05.17/outbox.cif.g08.bks.cpg/sg95_2_cif.got.tgz:2674.got - 2010.06.03 19:46:49.
