data_PCOD9550207
_publ_section_title
;
Structure prediction by ZEFSAII (Michael W. Deem and Ramdas Pophale) SiO2 
 PCOD9550207
Probable space group: P 42 21 2
;
_chemical_formula_sum "Si O2"
_cell_formula_units_Z 40
_cell_length_a 8.872212
_cell_length_b 8.872212
_cell_length_c 22.633470
_cell_angle_alpha 90.000000
_cell_angle_beta 90.000000
_cell_angle_gamma 90.000000
_cell_volume 1781.619524
_symmetry_space_group_name_H-M "P 42 21 2"
_symmetry_group_IT_number 94
_symmetry_cell_setting 'tetragonal'
loop_
_space_group_symop_operation_xyz
x,y,z
1/2-y,1/2+x,1/2+z
-x,-y,z
1/2+y,1/2-x,1/2+z
1/2+x,1/2-y,1/2-z
1/2-x,1/2+y,1/2-z
y,x,-z
-y,-x,-z
loop_
_atom_site_type_symbol
_atom_site_label
_atom_site_fract_x
_atom_site_fract_y
_atom_site_fract_z
Si Si1 0.673265 0.176911 0.942493
Si Si2 0.367188 0.107893 0.136414
Si Si3 0.534867 0.164346 0.258822
Si Si4 0.832149 0.194158 0.824706
Si Si5 0.319494 0.181248 0.942967
O O1 0.725239 0.243135 0.879206
O O2 0.496885 0.207321 0.951519
O O3 0.698889 0.997598 0.934269
O O4 0.761951 0.238050 0.000000
O O5 0.441967 0.156801 0.197684
O O6 0.296128 0.250402 0.104596
O O7 0.500000 0.000000 0.107260
O O8 0.229416 0.995749 0.150020
O O9 0.470421 0.289269 0.301958
O O10 0.701372 0.184637 0.233659
O O11 0.500000 0.000000 0.287386
O O12 0.224814 0.224814 0.000000
#
# Coordination Sequence:
#
# PCOD9550207 Si02
#       5
#     8   8   8   8   8
#     4  11  27  46  69 105 137 182 239 294 361 429
#     4   9  22  44  69 100 137 185 231 290 351 421
#     4   9  22  41  66 100 139 181 230 287 341 410
#     4  10  22  43  71  98 145 180 236 287 344 431
#     4  11  26  44  74  95 140 183 230 299 353 428
#
# _framework density 22.451483
#
# number of rings (size 3 to 8) (size 9 to 14) (size 15 to 20)
#    0.000    2.400    0.000    1.200   14.000    4.800 
#    3.600    8.000    0.000    0.000    0.000    0.000 
#    0.000    0.000    0.000    0.000    0.000    0.000 
#
# Total GULP energy -223298.352217 kJ/mol
# GULP energy per Si atom -5582.458805 kJ/mol
# Density = 2.240038 g / cm^3
# Si number density = 22.451483 Si / 1000 Ang^3
#
#
#
# Elastic Constant Matrix: (Units=GPa)
#
#
# Indices 1 2 3 4 5 6 
#
# 1 62.5722 70.6914 20.7018 0.0000 0.0000 0.0000
# 2 70.6914 62.5749 20.7023 0.0000 0.0000 0.0000
# 3 20.7018 20.7023 38.6662 0.0000 0.0000 0.0000
# 4 0.0000 0.0000 0.0000 21.1068 0.0000 0.0000
# 5 0.0000 0.0000 0.0000 0.0000 21.1067 0.0000
# 6 0.0000 0.0000 0.0000 0.0000 0.0000 45.3124
#
#
#
# Elastic Compliance Matrix: (Units=1/GPa)
#
#
# Indices 1 2 3 4 5 6 
#
# 1 -0.057094 0.066094 -0.004819 0.000000 0.000000 0.000000
# 2 0.066094 -0.057091 -0.004819 0.000000 0.000000 0.000000
# 3 -0.004819 -0.004819 0.031023 0.000000 0.000000 0.000000
# 4 0.000000 0.000000 0.000000 0.047378 0.000000 0.000000
# 5 0.000000 0.000000 0.000000 0.000000 0.047378 0.000000
# 6 0.000000 0.000000 0.000000 0.000000 0.000000 0.022069
#
#
# Mechanical properties :
#
#
# Convention : Reuss Voigt Hill
#
# Bulk Modulus (GPa) = 33.61550 43.11158 38.36354
# Shear Modulus (GPa) = -72.11810 20.95303 -25.58254
#
# Velocity S-wave (km/s) = -5.67375 3.05824 -3.37925
# Velocity P-wave (km/s) = 5.28365 5.63154 1.37791
#
# Compressibility (1/GPa) = 0.02974818
#
# Stress axis : x y z
#
# Youngs Moduli (GPa) = -17.51508 -17.51580 32.23422
#
# Poissons Ratio (x) = 1.15768 0.15535
# Poissons Ratio (y) = 1.15764 0.15534
# Poissons Ratio (z) = -0.08441 -0.08441
#
# Static dielectric constant tensor:
#      x y z
#    x 1.820780 0.000000 0.000000 
#    y 0.000000 1.820780 0.000000 
#    z 0.000000 0.000000 1.857420 
# 
# From -- ./inp_files/4988.got.cif
#   From: 2010.05.17/outbox.cif.g08.bks.cpg/sg94_3_cif.got.tgz:4988.got - 2010.06.03 19:43:16.
