data_PCOD9550966
_publ_section_title
;
Structure prediction by ZEFSAII (Michael W. Deem and Ramdas Pophale) SiO2 
 PCOD9550966
Probable space group: P 43 21 2
;
_chemical_formula_sum "Si O2"
_cell_formula_units_Z 40
_cell_length_a 19.412413
_cell_length_b 19.412413
_cell_length_c 5.052347
_cell_angle_alpha 90.000000
_cell_angle_beta 90.000000
_cell_angle_gamma 90.000000
_cell_volume 1903.935429
_symmetry_space_group_name_H-M "P 43 21 2"
_symmetry_group_IT_number 96
_symmetry_cell_setting 'tetragonal'
loop_
_space_group_symop_operation_xyz
x,y,z
1/2-y,1/2+x,3/4+z
-x,-y,1/2+z
1/2+y,1/2-x,1/4+z
1/2+x,1/2-y,1/4-z
1/2-x,1/2+y,3/4-z
y,x,-z
-y,-x,1/2-z
loop_
_atom_site_type_symbol
_atom_site_label
_atom_site_fract_x
_atom_site_fract_y
_atom_site_fract_z
Si Si1 0.652457 0.347544 0.750000
Si Si2 0.584451 0.063971 0.574846
Si Si3 0.915974 0.915974 0.500000
Si Si4 0.010636 0.718885 0.643768
Si Si5 0.569755 0.636665 0.757719
Si Si6 0.287233 0.081113 0.369394
O O1 0.629689 0.394326 0.501924
O O2 0.638014 0.270013 0.664401
O O3 0.506542 0.078488 0.484372
O O4 0.644581 0.047880 0.364406
O O5 0.604897 0.136452 0.703126
O O6 0.995101 0.898380 0.437459
O O7 0.056434 0.782758 0.547546
O O8 0.947714 0.714271 0.430407
O O9 0.981554 0.731936 0.934946
O O10 0.601079 0.601079 0.500000
O O11 0.619616 0.619616 0.000000
#
# Coordination Sequence:
#
# PCOD9550966 Si02
#       6
#     4   8   4   8   8   8
#     4  12  20  39  64  90 130 174 220 254 329 384
#     4  10  22  41  71 100 126 165 220 272 329 398
#     4  12  22  39  64  92 124 176 222 268 307 394
#     4  11  23  42  64  92 131 168 207 271 332 374
#     4  12  23  39  61  92 131 173 218 269 318 382
#     4  11  22  40  66  92 127 167 213 270 316 384
#
# _framework density 21.009118999999998
#
# number of rings (size 3 to 8) (size 9 to 14) (size 15 to 20)
#    0.000    0.800    4.000    4.200    0.000    4.800 
#    1.800    0.000    2.200    0.000    0.000    0.000 
#    0.000    0.000    0.000    0.000    0.000    0.000 
#
# Total GULP energy -223506.658764 kJ/mol
# GULP energy per Si atom -5587.666469 kJ/mol
# Density = 2.096130 g / cm^3
# Si number density = 21.009119 Si / 1000 Ang^3
#
#
#
# Elastic Constant Matrix: (Units=GPa)
#
#
# Indices 1 2 3 4 5 6 
#
# 1 80.8178 26.8265 -11.6203 0.0000 0.0000 0.0000
# 2 26.8265 80.8364 -11.6142 0.0000 0.0000 0.0000
# 3 -11.6203 -11.6142 44.7678 0.0000 0.0000 0.0000
# 4 0.0000 0.0000 0.0000 7.0674 0.0000 0.0000
# 5 0.0000 0.0000 0.0000 0.0000 7.0675 0.0000
# 6 0.0000 0.0000 0.0000 0.0000 0.0000 14.7283
#
#
#
# Elastic Compliance Matrix: (Units=1/GPa)
#
#
# Indices 1 2 3 4 5 6 
#
# 1 0.014181 -0.004339 0.002555 0.000000 0.000000 0.000000
# 2 -0.004339 0.014177 0.002552 0.000000 0.000000 0.000000
# 3 0.002555 0.002552 0.023663 0.000000 0.000000 0.000000
# 4 0.000000 0.000000 0.000000 0.141495 0.000000 0.000000
# 5 0.000000 0.000000 0.000000 0.000000 0.141493 0.000000
# 6 0.000000 0.000000 0.000000 0.000000 0.000000 0.067897
#
#
# Mechanical properties :
#
#
# Convention : Reuss Voigt Hill
#
# Bulk Modulus (GPa) = 18.67163 23.73401 21.20282
# Shear Modulus (GPa) = 11.92684 19.29462 15.61073
#
# Velocity S-wave (km/s) = 2.38523 3.03379 2.72884
# Velocity P-wave (km/s) = 4.06109 4.85730 4.47693
#
# Compressibility (1/GPa) = 0.05355718
#
# Stress axis : x y z
#
# Youngs Moduli (GPa) = 70.51579 70.53557 42.26047
#
# Poissons Ratio (x) = 0.30606 -0.10799
# Poissons Ratio (y) = 0.30597 -0.10784
# Poissons Ratio (z) = -0.18019 -0.17999
#
# Static dielectric constant tensor:
#      x y z
#    x 1.788150 0.000000 0.000000 
#    y 0.000000 1.788160 0.000000 
#    z 0.000000 0.000000 1.750800 
# 
# From -- ./inp_files/460.got.cif
#   From: 2010.05.17/outbox.cif.g08.bks.cpg/sg96_1_cif.got.tgz:460.got - 2010.06.03 19:52:08.
