data_PCOD9550864
_publ_section_title
;
Structure prediction by ZEFSAII (Michael W. Deem and Ramdas Pophale) SiO2 
 PCOD9550864
Probable space group: P 43 21 2
;
_chemical_formula_sum "Si O2"
_cell_formula_units_Z 48
_cell_length_a 8.025507
_cell_length_b 8.025507
_cell_length_c 32.415753
_cell_angle_alpha 90.000000
_cell_angle_beta 90.000000
_cell_angle_gamma 90.000000
_cell_volume 2087.858540
_symmetry_space_group_name_H-M "P 43 21 2"
_symmetry_group_IT_number 96
_symmetry_cell_setting 'tetragonal'
loop_
_space_group_symop_operation_xyz
x,y,z
1/2-y,1/2+x,3/4+z
-x,-y,1/2+z
1/2+y,1/2-x,1/4+z
1/2+x,1/2-y,1/4-z
1/2-x,1/2+y,3/4-z
y,x,-z
-y,-x,1/2-z
loop_
_atom_site_type_symbol
_atom_site_label
_atom_site_fract_x
_atom_site_fract_y
_atom_site_fract_z
Si Si1 0.854974 0.814450 0.673012
Si Si2 0.403536 0.878128 0.777274
Si Si3 0.457258 0.397884 0.708703
Si Si4 0.625724 0.536651 0.632954
Si Si5 0.250169 0.494536 0.497075
Si Si6 0.768078 0.447876 0.547592
O O1 0.719343 0.691941 0.653608
O O2 0.760689 0.918084 0.708414
O O3 0.010781 0.716019 0.694174
O O4 0.949056 0.918934 0.638164
O O5 0.469703 0.699068 0.792803
O O6 0.575820 0.979581 0.774043
O O7 0.330038 0.897339 0.730368
O O8 0.548965 0.451036 0.750000
O O9 0.578048 0.412801 0.669642
O O10 0.383233 0.212297 0.710948
O O11 0.745616 0.477949 0.595876
O O12 0.306524 0.306524 0.500000
O O13 0.389227 0.589270 0.469677
#
# Coordination Sequence:
#
# PCOD9550864 Si02
#       6
#     8   8   8   8   8   8
#     4  11  25  41  66 100 136 178 235 288 348 421
#     4  10  23  41  69  99 130 185 230 282 354 415
#     4  11  25  46  72  98 142 187 237 285 356 430
#     4  12  25  44  69 104 141 181 237 296 349 416
#     4  10  20  42  66  94 133 177 229 273 349 412
#     4  10  24  43  67  99 135 181 230 289 344 415
#
# _framework density 22.990061000000001
#
# number of rings (size 3 to 8) (size 9 to 14) (size 15 to 20)
#    0.000    1.333    1.667    4.000    7.000    4.667 
#    3.000    0.000    0.000    0.000    0.000    0.000 
#    0.000    0.000    0.000    0.000    0.000    0.000 
#
# Total GULP energy -268557.317815 kJ/mol
# GULP energy per Si atom -5594.944121 kJ/mol
# Density = 2.293773 g / cm^3
# Si number density = 22.990061 Si / 1000 Ang^3
#
#
#
# Elastic Constant Matrix: (Units=GPa)
#
#
# Indices 1 2 3 4 5 6 
#
# 1 48.6444 5.0385 20.6515 0.0000 0.0000 0.0000
# 2 5.0385 48.6446 20.6511 0.0000 0.0000 0.0000
# 3 20.6515 20.6511 132.3306 0.0000 0.0000 0.0000
# 4 0.0000 0.0000 0.0000 23.4095 0.0000 0.0000
# 5 0.0000 0.0000 0.0000 0.0000 23.4093 0.0000
# 6 0.0000 0.0000 0.0000 0.0000 0.0000 43.3860
#
#
#
# Elastic Compliance Matrix: (Units=1/GPa)
#
#
# Indices 1 2 3 4 5 6 
#
# 1 0.022051 -0.000881 -0.003304 0.000000 0.000000 0.000000
# 2 -0.000881 0.022051 -0.003304 0.000000 0.000000 0.000000
# 3 -0.003304 -0.003304 0.008588 0.000000 0.000000 0.000000
# 4 0.000000 0.000000 0.000000 0.042718 0.000000 0.000000
# 5 0.000000 0.000000 0.000000 0.000000 0.042718 0.000000
# 6 0.000000 0.000000 0.000000 0.000000 0.000000 0.023049
#
#
# Mechanical properties :
#
#
# Convention : Reuss Voigt Hill
#
# Bulk Modulus (GPa) = 26.51642 35.81133 31.16387
# Shear Modulus (GPa) = 26.49377 30.25952 28.37664
#
# Velocity S-wave (km/s) = 3.39839 3.63188 3.51707
# Velocity P-wave (km/s) = 5.19207 5.76178 5.48433
#
# Compressibility (1/GPa) = 0.03771249
#
# Stress axis : x y z
#
# Youngs Moduli (GPa) = 45.34895 45.34927 116.44186
#
# Poissons Ratio (x) = 0.03997 0.38470
# Poissons Ratio (y) = 0.03997 0.38468
# Poissons Ratio (z) = 0.14982 0.14982
#
# Static dielectric constant tensor:
#      x y z
#    x 1.883150 0.000000 0.000000 
#    y 0.000000 1.883150 0.000000 
#    z 0.000000 0.000000 1.862820 
# 
# From -- ./inp_files/4502.got.cif
#   From: 2010.05.17/outbox.cif.g08.bks.cpg/sg96_3_cif.got.tgz:4502.got - 2010.06.03 19:52:08.
