data_PCOD9550698
_publ_section_title
;
Structure prediction by ZEFSAII (Michael W. Deem and Ramdas Pophale) SiO2 
 PCOD9550698
Probable space group: P 43 2 2
;
_chemical_formula_sum "Si O2"
_cell_formula_units_Z 48
_cell_length_a 9.000000
_cell_length_b 9.000000
_cell_length_c 30.000000
_cell_angle_alpha 90.000000
_cell_angle_beta 90.000000
_cell_angle_gamma 90.000000
_cell_volume 2430.000000
_symmetry_space_group_name_H-M "P 43 2 2"
_symmetry_group_IT_number 95
_symmetry_cell_setting 'tetragonal'
loop_
_space_group_symop_operation_xyz
x,y,z
-y,x,3/4+z
-x,-y,1/2+z
y,-x,1/4+z
x,-y,1/2-z
-x,y,-z
y,x,1/4-z
-y,-x,3/4-z
loop_
_atom_site_type_symbol
_atom_site_label
_atom_site_fract_x
_atom_site_fract_y
_atom_site_fract_z
Si Si1 0.810586 0.225226 0.588671
Si Si2 0.115300 0.827390 0.324142
Si Si3 0.287896 0.669701 0.261293
Si Si4 0.195890 0.097420 0.705714
Si Si5 0.132077 0.847726 0.186978
Si Si6 0.382087 0.326573 0.760026
O O1 0.794287 0.209305 0.641400
O O2 0.702050 0.325498 0.560111
O O3 0.978911 0.275034 0.576495
O O4 0.796336 0.058365 0.568453
O O5 0.134816 0.865185 0.375000
O O6 0.217861 0.694729 0.309265
O O7 0.168630 0.981033 0.302080
O O8 0.299031 0.500000 0.250000
O O9 0.175982 0.746113 0.227524
O O10 0.451221 0.734522 0.257149
O O11 0.286854 0.234672 0.724447
O O12 0.045601 0.148477 0.682038
O O13 0.159696 0.000000 0.750000
O O14 0.375665 0.500000 0.750000
#
# Coordination Sequence:
#
# PCOD9550698 Si02
#       6
#     8   8   8   8   8   8
#     4   9  19  36  57  83 105 131 174 224 267 312
#     4   9  19  36  59  82 104 132 174 222 266 311
#     4  11  23  36  51  76 111 147 177 211 261 313
#     4   9  17  33  58  80 103 136 174 217 264 311
#     4  10  19  35  58  82 106 132 171 223 269 313
#     4  10  22  38  52  73 110 148 178 213 258 312
#
# _framework density 19.753086
#
# number of rings (size 3 to 8) (size 9 to 14) (size 15 to 20)
#    0.000    2.333    0.000    5.000    0.000    8.000 
#    0.000    9.167    0.000    0.000    0.000    0.000 
#    0.000    0.000    0.000    0.000    0.000    0.000 
#
# Total GULP energy -267206.930670 kJ/mol
# GULP energy per Si atom -5566.811056 kJ/mol
# Density = 1.970813 g / cm^3
# Si number density = 19.753086 Si / 1000 Ang^3
#
#
#
# Elastic Constant Matrix: (Units=GPa)
#
#
# Indices 1 2 3 4 5 6 
#
# 1 20.0915 28.6387 -1.8140 0.0000 0.0000 0.0000
# 2 28.6387 20.0915 -1.8140 0.0000 0.0000 0.0000
# 3 -1.8140 -1.8140 14.9201 0.0000 0.0000 0.0000
# 4 0.0000 0.0000 0.0000 -1.8242 0.0000 0.0000
# 5 0.0000 0.0000 0.0000 0.0000 -1.8243 0.0000
# 6 0.0000 0.0000 0.0000 0.0000 0.0000 22.6664
#
#
#
# Elastic Compliance Matrix: (Units=1/GPa)
#
#
# Indices 1 2 3 4 5 6 
#
# 1 -0.048144 0.068853 0.002518 0.000000 0.000000 0.000000
# 2 0.068853 -0.048144 0.002518 0.000000 0.000000 0.000000
# 3 0.002518 0.002518 0.067636 0.000000 0.000000 0.000000
# 4 0.000000 0.000000 0.000000 -0.548182 0.000000 0.000000
# 5 0.000000 0.000000 0.000000 0.000000 -0.548152 0.000000
# 6 0.000000 0.000000 0.000000 0.000000 0.000000 0.044118
#
#
# Mechanical properties :
#
#
# Convention : Reuss Voigt Hill
#
# Bulk Modulus (GPa) = 8.39460 11.68051 10.03755
# Shear Modulus (GPa) = -4.20543 5.80973 0.80215
#
# Velocity S-wave (km/s) = -1.46069 1.71685 0.63794
# Velocity P-wave (km/s) = 1.18918 3.13945 2.37385
#
# Compressibility (1/GPa) = 0.11912425
#
# Stress axis : x y z
#
# Youngs Moduli (GPa) = -20.77086 -20.77091 14.78503
#
# Poissons Ratio (x) = 1.43014 -0.03723
# Poissons Ratio (y) = 1.43013 -0.03722
# Poissons Ratio (z) = 0.05230 0.05229
#
# Static dielectric constant tensor:
#      x y z
#    x 1.712160 0.000000 0.000000 
#    y 0.000000 1.712170 0.000000 
#    z 0.000000 0.000000 1.737580 
# 
# From -- ./inp_files/7928.got.cif
#   From: 2010.05.17/outbox.ucp.g08.bks.cvg/sg95_4_cif.got.tgz:7928.got - 2010.06.11 10:37:16.
