data_PCOD9550741
_publ_section_title
;
Structure prediction by ZEFSAII (Michael W. Deem and Ramdas Pophale) SiO2 
 PCOD9550741
Probable space group: P 43 21 2
;
_chemical_formula_sum "Si O2"
_cell_formula_units_Z 36
_cell_length_a 8.109905
_cell_length_b 8.109905
_cell_length_c 21.163516
_cell_angle_alpha 90.000000
_cell_angle_beta 90.000000
_cell_angle_gamma 90.000000
_cell_volume 1391.936280
_symmetry_space_group_name_H-M "P 43 21 2"
_symmetry_group_IT_number 96
_symmetry_cell_setting 'tetragonal'
loop_
_space_group_symop_operation_xyz
x,y,z
1/2-y,1/2+x,3/4+z
-x,-y,1/2+z
1/2+y,1/2-x,1/4+z
1/2+x,1/2-y,1/4-z
1/2-x,1/2+y,3/4-z
y,x,-z
-y,-x,1/2-z
loop_
_atom_site_type_symbol
_atom_site_label
_atom_site_fract_x
_atom_site_fract_y
_atom_site_fract_z
Si Si1 0.805279 0.426055 0.833851
Si Si2 0.074488 0.918490 0.885611
Si Si3 0.733561 0.901370 0.599111
Si Si4 0.093761 0.461826 0.457742
Si Si5 0.027916 0.972084 0.250000
O O1 0.614945 0.387703 0.845065
O O2 0.874851 0.563312 0.882433
O O3 0.535301 0.165653 0.739293
O O4 0.932820 0.282029 0.856541
O O5 0.116799 0.082734 0.923958
O O6 0.069367 0.968331 0.811514
O O7 0.234773 0.803630 0.888159
O O8 0.604317 0.955868 0.545485
O O9 0.279602 0.502667 0.481142
#
# Coordination Sequence:
#
# PCOD9550741 Si02
#       5
#     8   8   8   8   4
#     4   9  21  42  71 102 144 194 243 305 364 445
#     4  11  23  43  70 107 140 194 244 300 375 441
#     4  10  24  42  68 106 145 179 247 302 357 445
#     4   9  19  40  69 101 137 188 249 298 368 431
#     4  10  18  40  72  94 130 194 250 286 368 454
#
# _framework density 25.863251000000002
#
# number of rings (size 3 to 8) (size 9 to 14) (size 15 to 20)
#    1.333    0.889    2.222    0.000    0.000    5.333 
#    4.000    0.000    0.000    0.000   11.556    0.000 
#    0.000    0.000    0.000    0.000    0.000    0.000 
#
# Total GULP energy -200464.311899 kJ/mol
# GULP energy per Si atom -5568.453108 kJ/mol
# Density = 2.580439 g / cm^3
# Si number density = 25.863251 Si / 1000 Ang^3
#
#
#
# Elastic Constant Matrix: (Units=GPa)
#
#
# Indices 1 2 3 4 5 6 
#
# 1 130.8827 -0.8618 29.0920 0.0000 0.0000 0.0000
# 2 -0.8618 130.8821 29.0921 0.0000 0.0000 0.0000
# 3 29.0920 29.0921 153.8929 0.0000 0.0000 0.0000
# 4 0.0000 0.0000 0.0000 8.7751 0.0000 0.0000
# 5 0.0000 0.0000 0.0000 0.0000 8.7750 0.0000
# 6 0.0000 0.0000 0.0000 0.0000 0.0000 23.9496
#
#
#
# Elastic Compliance Matrix: (Units=1/GPa)
#
#
# Indices 1 2 3 4 5 6 
#
# 1 0.007996 0.000406 -0.001588 0.000000 0.000000 0.000000
# 2 0.000406 0.007996 -0.001588 0.000000 0.000000 0.000000
# 3 -0.001588 -0.001588 0.007099 0.000000 0.000000 0.000000
# 4 0.000000 0.000000 0.000000 0.113958 0.000000 0.000000
# 5 0.000000 0.000000 0.000000 0.000000 0.113960 0.000000
# 6 0.000000 0.000000 0.000000 0.000000 0.000000 0.041754
#
#
# Mechanical properties :
#
#
# Convention : Reuss Voigt Hill
#
# Bulk Modulus (GPa) = 56.98313 58.92248 57.95280
# Shear Modulus (GPa) = 16.43896 32.18896 24.31396
#
# Velocity S-wave (km/s) = 2.52387 3.53169 3.06943
# Velocity P-wave (km/s) = 5.52933 6.28190 5.91759
#
# Compressibility (1/GPa) = 0.01754905
#
# Stress axis : x y z
#
# Youngs Moduli (GPa) = 125.06037 125.05972 140.87419
#
# Poissons Ratio (x) = -0.05074 0.22375
# Poissons Ratio (y) = -0.05074 0.22375
# Poissons Ratio (z) = 0.19863 0.19863
#
# Static dielectric constant tensor:
#      x y z
#    x 2.159010 0.000000 0.000000 
#    y 0.000000 2.159020 0.000000 
#    z 0.000000 0.000000 2.145460 
# 
# From -- ./inp_files/4275.got.cif
#   From: 2010.05.17/outbox.cif.g08.bks.cpg/sg96_3_cif.got.tgz:4275.got - 2010.06.03 19:52:08.
