data_PCOD9550550
_publ_section_title
;
Structure prediction by ZEFSAII (Michael W. Deem and Ramdas Pophale) SiO2 
 PCOD9550550
Probable space group: P 43 2 2
;
_chemical_formula_sum "Si O2"
_cell_formula_units_Z 36
_cell_length_a 14.279652
_cell_length_b 14.279652
_cell_length_c 8.915822
_cell_angle_alpha 90.000000
_cell_angle_beta 90.000000
_cell_angle_gamma 90.000000
_cell_volume 1818.011545
_symmetry_space_group_name_H-M "P 43 2 2"
_symmetry_group_IT_number 95
_symmetry_cell_setting 'tetragonal'
loop_
_space_group_symop_operation_xyz
x,y,z
-y,x,3/4+z
-x,-y,1/2+z
y,-x,1/4+z
x,-y,1/2-z
-x,y,-z
y,x,1/4-z
-y,-x,3/4-z
loop_
_atom_site_type_symbol
_atom_site_label
_atom_site_fract_x
_atom_site_fract_y
_atom_site_fract_z
Si Si1 0.513593 0.710525 0.351871
Si Si2 0.622360 0.000000 0.250000
Si Si3 0.105082 0.500000 0.750000
Si Si4 0.839104 0.321882 0.702945
Si Si5 0.802764 0.342853 0.034526
Si Si6 0.420903 0.579098 0.875000
O O1 0.500000 0.647790 0.500000
O O2 0.575759 0.796557 0.412094
O O3 0.411570 0.724946 0.285310
O O4 0.573201 0.673329 0.216094
O O5 0.553674 0.952148 0.128674
O O6 0.685450 0.926617 0.342769
O O7 0.156078 0.587813 0.662473
O O8 0.755575 0.246520 0.675317
O O9 0.863479 0.323216 0.881835
O O10 0.426234 0.500000 0.750000
#
# Coordination Sequence:
#
# PCOD9550550 Si02
#       6
#     8   4   4   8   8   4
#     4  10  21  37  53  76 111 159 207 256 308 367
#     4  12  24  38  62  94 126 172 218 268 316 390
#     4  12  24  38  66  92 128 170 214 268 316 386
#     4  10  22  40  61  87 129 167 217 269 324 373
#     4  10  22  40  60  89 124 171 208 274 323 377
#     4  12  24  32  48  70 104 150 210 252 292 352
#
# _framework density 19.801853999999999
#
# number of rings (size 3 to 8) (size 9 to 14) (size 15 to 20)
#    0.000    1.333    2.222    3.333    6.222    4.444 
#    0.000    0.000    0.000    0.000    0.000    0.000 
#    0.000   35.556    0.000    0.000    0.000    0.000 
#
# Total GULP energy -200490.025305 kJ/mol
# GULP energy per Si atom -5569.167370 kJ/mol
# Density = 1.975678 g / cm^3
# Si number density = 19.801854 Si / 1000 Ang^3
#
#
#
# Elastic Constant Matrix: (Units=GPa)
#
#
# Indices 1 2 3 4 5 6 
#
# 1 76.6006 41.8447 66.3460 0.0000 0.0000 0.0000
# 2 41.8447 76.6010 66.3457 0.0000 0.0000 0.0000
# 3 66.3460 66.3457 173.1867 0.0000 0.0000 0.0000
# 4 0.0000 0.0000 0.0000 31.7284 0.0000 0.0000
# 5 0.0000 0.0000 0.0000 0.0000 31.7287 0.0000
# 6 0.0000 0.0000 0.0000 0.0000 0.0000 19.4847
#
#
#
# Elastic Compliance Matrix: (Units=1/GPa)
#
#
# Indices 1 2 3 4 5 6 
#
# 1 0.021781 -0.006991 -0.005666 0.000000 0.000000 0.000000
# 2 -0.006991 0.021781 -0.005666 0.000000 0.000000 0.000000
# 3 -0.005666 -0.005666 0.010115 0.000000 0.000000 0.000000
# 4 0.000000 0.000000 0.000000 0.031518 0.000000 0.000000
# 5 0.000000 0.000000 0.000000 0.000000 0.031517 0.000000
# 6 0.000000 0.000000 0.000000 0.000000 0.000000 0.051322
#
#
# Mechanical properties :
#
#
# Convention : Reuss Voigt Hill
#
# Bulk Modulus (GPa) = 58.71392 75.05122 66.88257
# Shear Modulus (GPa) = 23.76911 26.71181 25.24046
#
# Velocity S-wave (km/s) = 3.46836 3.67680 3.57410
# Velocity P-wave (km/s) = 6.76420 7.48388 7.13313
#
# Compressibility (1/GPa) = 0.01703174
#
# Stress axis : x y z
#
# Youngs Moduli (GPa) = 45.91126 45.91189 98.86102
#
# Poissons Ratio (x) = 0.32097 0.56015
# Poissons Ratio (y) = 0.32096 0.56013
# Poissons Ratio (z) = 0.26013 0.26013
#
# Static dielectric constant tensor:
#      x y z
#    x 1.773980 0.000000 0.000000 
#    y 0.000000 1.773980 0.000000 
#    z 0.000000 0.000000 1.844730 
# 
# From -- ./inp_files/2291.got.cif
#   From: 2010.05.17/outbox.cif.g08.bks.cpg/sg95_2_cif.got.tgz:2291.got - 2010.06.03 19:46:49.
