data_PCOD9550242
_publ_section_title
;
Structure prediction by ZEFSAII (Michael W. Deem and Ramdas Pophale) SiO2 
 PCOD9550242
Probable space group: P 42 21 2
;
_chemical_formula_sum "Si O2"
_cell_formula_units_Z 40
_cell_length_a 14.326250
_cell_length_b 14.326250
_cell_length_c 8.129748
_cell_angle_alpha 90.000000
_cell_angle_beta 90.000000
_cell_angle_gamma 90.000000
_cell_volume 1668.561179
_symmetry_space_group_name_H-M "P 42 21 2"
_symmetry_group_IT_number 94
_symmetry_cell_setting 'tetragonal'
loop_
_space_group_symop_operation_xyz
x,y,z
1/2-y,1/2+x,1/2+z
-x,-y,z
1/2+y,1/2-x,1/2+z
1/2+x,1/2-y,1/2-z
1/2-x,1/2+y,1/2-z
y,x,-z
-y,-x,-z
loop_
_atom_site_type_symbol
_atom_site_label
_atom_site_fract_x
_atom_site_fract_y
_atom_site_fract_z
Si Si1 0.992736 0.732783 0.183925
Si Si2 0.398147 0.382621 0.695469
Si Si3 0.923743 0.809905 0.865411
Si Si4 0.622823 0.834316 0.702264
Si Si5 0.415014 0.862012 0.834450
O O1 0.041864 0.824270 0.259628
O O2 0.052285 0.643354 0.241179
O O3 0.886188 0.710494 0.215922
O O4 0.991220 0.746886 0.985471
O O5 0.402404 0.402404 0.500000
O O6 0.507388 0.376725 0.739728
O O7 0.361725 0.276952 0.719021
O O8 0.879385 0.734482 0.745935
O O9 0.867392 0.867392 0.000000
O O10 0.526148 0.862309 0.798394
O O11 0.630502 0.881904 0.522048
#
# Coordination Sequence:
#
# PCOD9550242 Si02
#       5
#     8   8   8   8   8
#     4  11  23  38  67  98 132 184 224 289 347 408
#     4   9  19  43  61  93 134 171 229 284 338 403
#     4  10  23  42  69  99 129 184 235 284 349 421
#     4  11  24  39  67  94 139 182 223 291 352 422
#     4  11  22  44  63  99 140 176 233 287 351 414
#
# _framework density 23.972750999999999
#
# number of rings (size 3 to 8) (size 9 to 14) (size 15 to 20)
#    0.000    1.600    6.000    0.600    5.600    5.200 
#    0.000    4.000    0.000    0.000    0.000   14.000 
#    0.000    0.000    0.000    0.000    0.000    0.000 
#
# Total GULP energy -222758.616877 kJ/mol
# GULP energy per Si atom -5568.965422 kJ/mol
# Density = 2.391819 g / cm^3
# Si number density = 23.972751 Si / 1000 Ang^3
#
#
#
# Elastic Constant Matrix: (Units=GPa)
#
#
# Indices 1 2 3 4 5 6 
#
# 1 70.5237 43.2938 4.4904 0.0000 0.0000 0.0000
# 2 43.2938 70.5237 4.4904 0.0000 0.0000 0.0000
# 3 4.4904 4.4904 24.0670 0.0000 0.0000 0.0000
# 4 0.0000 0.0000 0.0000 30.2904 0.0000 0.0000
# 5 0.0000 0.0000 0.0000 0.0000 30.2904 0.0000
# 6 0.0000 0.0000 0.0000 0.0000 0.0000 57.1913
#
#
#
# Elastic Compliance Matrix: (Units=1/GPa)
#
#
# Indices 1 2 3 4 5 6 
#
# 1 0.022821 -0.013904 -0.001664 0.000000 0.000000 0.000000
# 2 -0.013904 0.022821 -0.001664 0.000000 0.000000 0.000000
# 3 -0.001664 -0.001664 0.042172 0.000000 0.000000 0.000000
# 4 0.000000 0.000000 0.000000 0.033014 0.000000 0.000000
# 5 0.000000 0.000000 0.000000 0.000000 0.033014 0.000000
# 6 0.000000 0.000000 0.000000 0.000000 0.000000 0.017485
#
#
# Mechanical properties :
#
#
# Convention : Reuss Voigt Hill
#
# Bulk Modulus (GPa) = 18.74377 29.96261 24.35319
# Shear Modulus (GPa) = 22.36417 31.07707 26.72062
#
# Velocity S-wave (km/s) = 3.05765 3.60439 3.34222
# Velocity P-wave (km/s) = 4.50571 5.46333 5.00746
#
# Compressibility (1/GPa) = 0.05335105
#
# Stress axis : x y z
#
# Youngs Moduli (GPa) = 43.81957 43.81957 23.71265
#
# Poissons Ratio (x) = 0.60925 0.03945
# Poissons Ratio (y) = 0.60925 0.03945
# Poissons Ratio (z) = 0.07291 0.07291
#
# Static dielectric constant tensor:
#      x y z
#    x 2.076030 0.000000 0.000000 
#    y 0.000000 2.076030 0.000000 
#    z 0.000000 0.000000 1.977390 
# 
# From -- ./inp_files/1406.got.cif
#   From: 2010.05.17/outbox.cif.g08.bks.cpg/sg94_1_cif.got.tgz:1406.got - 2010.06.03 19:43:16.
