data_PCOD9550854
_publ_section_title
;
Structure prediction by ZEFSAII (Michael W. Deem and Ramdas Pophale) SiO2 
 PCOD9550854
Probable space group: P 43 21 2
;
_chemical_formula_sum "Si O2"
_cell_formula_units_Z 60
_cell_length_a 11.626670
_cell_length_b 11.626670
_cell_length_c 21.296464
_cell_angle_alpha 90.000000
_cell_angle_beta 90.000000
_cell_angle_gamma 90.000000
_cell_volume 2878.844403
_symmetry_space_group_name_H-M "P 43 21 2"
_symmetry_group_IT_number 96
_symmetry_cell_setting 'tetragonal'
loop_
_space_group_symop_operation_xyz
x,y,z
1/2-y,1/2+x,3/4+z
-x,-y,1/2+z
1/2+y,1/2-x,1/4+z
1/2+x,1/2-y,1/4-z
1/2-x,1/2+y,3/4-z
y,x,-z
-y,-x,1/2-z
loop_
_atom_site_type_symbol
_atom_site_label
_atom_site_fract_x
_atom_site_fract_y
_atom_site_fract_z
Si Si1 0.268967 0.266376 0.168936
Si Si2 0.235311 0.821221 0.121446
Si Si3 0.105557 0.532840 0.600011
Si Si4 0.410692 0.265430 0.951733
Si Si5 0.158485 0.965577 0.012114
Si Si6 0.574200 0.963689 0.518572
Si Si7 0.145853 0.136568 0.277109
Si Si8 0.134423 0.865578 0.250000
O O1 0.323334 0.149809 0.140998
O O2 0.232502 0.347242 0.112245
O O3 0.373107 0.328462 0.206185
O O4 0.174193 0.219135 0.217467
O O5 0.309837 0.730552 0.080657
O O6 0.175844 0.796383 0.187860
O O7 0.323522 0.918944 0.141596
O O8 0.146292 0.886533 0.074451
O O9 0.024515 0.530054 0.661489
O O10 0.060295 0.535886 0.529736
O O11 0.517984 0.350454 0.945512
O O12 0.321873 0.321873 0.000000
O O13 0.458151 0.152851 0.984922
O O14 0.285443 0.024133 0.018828
O O15 0.060264 0.060264 0.000000
O O16 0.156109 0.004792 0.252325
#
# Coordination Sequence:
#
# PCOD9550854 Si02
#       8
#     8   8   8   8   8   8   8   4
#     4  10  22  41  65  96 138 172 228 292 345 413
#     4  10  24  44  67  99 133 184 241 277 353 436
#     4  10  20  41  65  92 128 177 230 284 341 424
#     4  12  24  38  62  99 135 174 226 292 356 413
#     4   9  20  37  65  93 129 170 225 281 341 419
#     4  10  22  35  61  94 126 173 222 284 349 413
#     4  11  26  46  65 105 139 183 240 284 360 434
#     4  12  24  44  80  96 140 196 220 308 356 424
#
# _framework density 20.841695000000001
#
# number of rings (size 3 to 8) (size 9 to 14) (size 15 to 20)
#    0.000    1.600    3.333    1.200    5.600    1.067 
#    0.000    2.667    0.000    0.000    0.000    0.000 
#    0.000    0.000    0.000    0.000    0.000    0.000 
#
# Total GULP energy -334392.272308 kJ/mol
# GULP energy per Si atom -5573.204538 kJ/mol
# Density = 2.079426 g / cm^3
# Si number density = 20.841695 Si / 1000 Ang^3
#
#
#
# Elastic Constant Matrix: (Units=GPa)
#
#
# Indices 1 2 3 4 5 6 
#
# 1 145.0393 -84.2203 30.3374 0.0000 0.0000 0.0000
# 2 -84.2203 145.0388 30.3382 0.0000 0.0000 0.0000
# 3 30.3374 30.3382 137.1554 0.0000 0.0000 0.0000
# 4 0.0000 0.0000 0.0000 20.5270 0.0000 0.0000
# 5 0.0000 0.0000 0.0000 0.0000 20.5272 0.0000
# 6 0.0000 0.0000 0.0000 0.0000 0.0000 25.3726
#
#
#
# Elastic Compliance Matrix: (Units=1/GPa)
#
#
# Indices 1 2 3 4 5 6 
#
# 1 0.012730 0.008368 -0.004667 0.000000 0.000000 0.000000
# 2 0.008368 0.012730 -0.004667 0.000000 0.000000 0.000000
# 3 -0.004667 -0.004667 0.009355 0.000000 0.000000 0.000000
# 4 0.000000 0.000000 0.000000 0.048716 0.000000 0.000000
# 5 0.000000 0.000000 0.000000 0.000000 0.048716 0.000000
# 6 0.000000 0.000000 0.000000 0.000000 0.000000 0.039413
#
#
# Mechanical properties :
#
#
# Convention : Reuss Voigt Hill
#
# Bulk Modulus (GPa) = 30.40932 42.23823 36.32377
# Shear Modulus (GPa) = 27.09257 43.33725 35.21491
#
# Velocity S-wave (km/s) = 3.60935 4.56494 4.11498
# Velocity P-wave (km/s) = 5.65617 6.93506 6.32801
#
# Compressibility (1/GPa) = 0.03288465
#
# Stress axis : x y z
#
# Youngs Moduli (GPa) = 78.55510 78.55459 106.88906
#
# Poissons Ratio (x) = -0.65735 0.49882
# Poissons Ratio (y) = -0.65736 0.49883
# Poissons Ratio (z) = 0.36659 0.36660
#
# Static dielectric constant tensor:
#      x y z
#    x 1.794540 0.000000 0.000000 
#    y 0.000000 1.794540 0.000000 
#    z 0.000000 0.000000 1.453870 
# 
# From -- ./inp_files/3637.got.cif
#   From: 2010.05.17/outbox.cif.g08.bks.cpg/sg96_2_cif.got.tgz:3637.got - 2010.06.03 19:52:08.
