data_PCOD9550714
_publ_section_title
;
Structure prediction by ZEFSAII (Michael W. Deem and Ramdas Pophale) SiO2 
 PCOD9550714
Probable space group: P 43 21 2
;
_chemical_formula_sum "Si O2"
_cell_formula_units_Z 56
_cell_length_a 19.792590
_cell_length_b 19.792590
_cell_length_c 9.271390
_cell_angle_alpha 90.000000
_cell_angle_beta 90.000000
_cell_angle_gamma 90.000000
_cell_volume 3632.035685
_symmetry_space_group_name_H-M "P 43 21 2"
_symmetry_group_IT_number 96
_symmetry_cell_setting 'tetragonal'
loop_
_space_group_symop_operation_xyz
x,y,z
1/2-y,1/2+x,3/4+z
-x,-y,1/2+z
1/2+y,1/2-x,1/4+z
1/2+x,1/2-y,1/4-z
1/2-x,1/2+y,3/4-z
y,x,-z
-y,-x,1/2-z
loop_
_atom_site_type_symbol
_atom_site_label
_atom_site_fract_x
_atom_site_fract_y
_atom_site_fract_z
Si Si1 0.230888 0.074731 0.717878
Si Si2 0.707645 0.488096 0.252799
Si Si3 0.679113 0.393435 0.986774
Si Si4 0.780938 0.333412 0.771651
Si Si5 0.392932 0.276673 0.478188
Si Si6 0.514250 0.670093 0.218788
Si Si7 0.032285 0.936398 0.589304
O O1 0.169151 0.127701 0.747205
O O2 0.281817 0.118266 0.618290
O O3 0.204662 0.016856 0.609399
O O4 0.254071 0.041656 0.868680
O O5 0.721823 0.555024 0.156937
O O6 0.639465 0.506889 0.336567
O O7 0.692948 0.428839 0.138298
O O8 0.749968 0.373269 0.908967
O O9 0.647956 0.450370 0.880260
O O10 0.722503 0.277498 0.750000
O O11 0.848835 0.290916 0.786708
O O12 0.339876 0.339876 0.500000
O O13 0.440256 0.281635 0.619527
O O14 0.556398 0.605022 0.265147
O O15 0.036825 0.963176 0.750000
O O16 0.980410 0.980410 0.500000
#
# Coordination Sequence:
#
# PCOD9550714 Si02
#       7
#     8   8   8   8   8   8   8
#     4  10  17  32  46  67  90 127 166 205 232 264
#     4  11  21  29  45  70 101 123 166 207 234 279
#     4   9  18  31  47  66  89 130 167 203 231 266
#     4   8  17  33  52  61  84 128 173 202 235 287
#     4  10  19  33  46  67  95 130 164 194 248 291
#     4  10  19  29  43  64  98 126 163 192 230 285
#     4  12  23  29  41  67 103 144 167 189 228 274
#
# _framework density 15.418352000000001
#
# number of rings (size 3 to 8) (size 9 to 14) (size 15 to 20)
#    0.000    2.000    2.857    3.429    4.000    0.000 
#    0.000    1.429    0.000    3.429    0.000    0.000 
#    0.000   61.714    0.000    0.000    0.000    0.000 
#
# Total GULP energy -311879.015236 kJ/mol
# GULP energy per Si atom -5569.268129 kJ/mol
# Density = 1.538326 g / cm^3
# Si number density = 15.418352 Si / 1000 Ang^3
#
#
#
# Elastic Constant Matrix: (Units=GPa)
#
#
# Indices 1 2 3 4 5 6 
#
# 1 44.4127 31.3971 19.9735 0.0000 0.0000 0.0000
# 2 31.3971 44.4118 19.9720 0.0000 0.0000 0.0000
# 3 19.9735 19.9720 78.7848 0.0000 0.0000 0.0000
# 4 0.0000 0.0000 0.0000 -3.9638 0.0000 0.0000
# 5 0.0000 0.0000 0.0000 0.0000 -3.9597 0.0000
# 6 0.0000 0.0000 0.0000 0.0000 0.0000 30.0308
#
#
#
# Elastic Compliance Matrix: (Units=1/GPa)
#
#
# Indices 1 2 3 4 5 6 
#
# 1 0.046029 -0.030804 -0.003860 0.000000 0.000000 0.000000
# 2 -0.030804 0.046029 -0.003859 0.000000 0.000000 0.000000
# 3 -0.003860 -0.003859 0.014650 0.000000 0.000000 0.000000
# 4 0.000000 0.000000 0.000000 -0.252282 0.000000 0.000000
# 5 0.000000 0.000000 0.000000 0.000000 -0.252547 0.000000
# 6 0.000000 0.000000 0.000000 0.000000 0.000000 0.033299
#
#
# Mechanical properties :
#
#
# Convention : Reuss Voigt Hill
#
# Bulk Modulus (GPa) = 33.71472 34.47718 34.09595
# Shear Modulus (GPa) = -17.99290 10.83923 -3.57683
#
# Velocity S-wave (km/s) = -3.41981 2.65431 -1.52476
# Velocity P-wave (km/s) = 2.51408 5.63946 4.36601
#
# Compressibility (1/GPa) = 0.02966063
#
# Stress axis : x y z
#
# Youngs Moduli (GPa) = 21.72542 21.72532 68.26076
#
# Poissons Ratio (x) = 0.66924 0.26351
# Poissons Ratio (y) = 0.66924 0.26341
# Poissons Ratio (z) = 0.08387 0.08384
#
# Static dielectric constant tensor:
#      x y z
#    x 1.517800 0.000000 0.000000 
#    y 0.000000 1.517800 0.000000 
#    z 0.000000 0.000000 1.534070 
# 
# From -- ./inp_files/1681.got.cif
#   From: 2010.05.17/outbox.cif.g08.bks.cpg/sg96_1_cif.got.tgz:1681.got - 2010.06.03 19:52:08.
