data_PCOD9550010
_publ_section_title
;
Structure prediction by ZEFSAII (Michael W. Deem and Ramdas Pophale) SiO2 
 PCOD9550010
Probable space group: P 42 21 2
;
_chemical_formula_sum "Si O2"
_cell_formula_units_Z 40
_cell_length_a 15.500653
_cell_length_b 15.500653
_cell_length_c 7.185665
_cell_angle_alpha 90.000000
_cell_angle_beta 90.000000
_cell_angle_gamma 90.000000
_cell_volume 1726.501479
_symmetry_space_group_name_H-M "P 42 21 2"
_symmetry_group_IT_number 94
_symmetry_cell_setting 'tetragonal'
loop_
_space_group_symop_operation_xyz
x,y,z
1/2-y,1/2+x,1/2+z
-x,-y,z
1/2+y,1/2-x,1/2+z
1/2+x,1/2-y,1/2-z
1/2-x,1/2+y,1/2-z
y,x,-z
-y,-x,-z
loop_
_atom_site_type_symbol
_atom_site_label
_atom_site_fract_x
_atom_site_fract_y
_atom_site_fract_z
Si Si1 0.240233 0.005474 0.716666
Si Si2 0.842594 0.330029 0.835233
Si Si3 0.283217 0.816115 0.733212
Si Si4 0.078022 0.062523 0.225555
Si Si5 0.023303 0.263919 0.843774
O O1 0.315832 0.070130 0.658570
O O2 0.152331 0.056676 0.677547
O O3 0.244662 0.906000 0.656351
O O4 0.245543 0.003927 0.940847
O O5 0.778209 0.268228 0.714705
O O6 0.941808 0.318667 0.774997
O O7 0.830457 0.295972 0.045256
O O8 0.380640 0.801729 0.663652
O O9 0.172627 0.026206 0.262186
O O10 0.075320 0.075320 0.000000
O O11 0.000000 0.000000 0.272257
#
# Coordination Sequence:
#
# PCOD9550010 Si02
#       5
#     8   8   8   8   8
#     4  10  20  35  57  82 108 145 187 227 274 330
#     4  10  21  37  56  81 114 146 181 230 283 327
#     4  10  21  37  56  81 114 146 181 230 283 327
#     4   9  16  30  55  83 105 132 183 236 270 314
#     4  10  20  35  57  82 108 145 187 227 274 330
#
# _framework density 23.168240999999998
#
# number of rings (size 3 to 8) (size 9 to 14) (size 15 to 20)
#    0.000    2.200    2.000    1.200    0.000    7.200 
#    0.000    4.000    0.000    4.800    0.000    0.000 
#    0.000    0.000    0.000    0.000    0.000    0.000 
#
# Total GULP energy -223518.385884 kJ/mol
# GULP energy per Si atom -5587.959647 kJ/mol
# Density = 2.311551 g / cm^3
# Si number density = 23.168241 Si / 1000 Ang^3
#
#
#
# Elastic Constant Matrix: (Units=GPa)
#
#
# Indices 1 2 3 4 5 6 
#
# 1 109.3050 38.2611 -13.7214 0.0000 0.0000 0.0000
# 2 38.2611 109.3050 -13.7214 0.0000 0.0000 0.0000
# 3 -13.7214 -13.7214 58.2428 0.0000 0.0000 0.0000
# 4 0.0000 0.0000 0.0000 15.8529 0.0000 0.0000
# 5 0.0000 0.0000 0.0000 0.0000 15.8529 0.0000
# 6 0.0000 0.0000 0.0000 0.0000 0.0000 41.1645
#
#
#
# Elastic Compliance Matrix: (Units=1/GPa)
#
#
# Indices 1 2 3 4 5 6 
#
# 1 0.010581 -0.003494 0.001670 0.000000 0.000000 0.000000
# 2 -0.003494 0.010581 0.001670 0.000000 0.000000 0.000000
# 3 0.001670 0.001670 0.017956 0.000000 0.000000 0.000000
# 4 0.000000 0.000000 0.000000 0.063080 0.000000 0.000000
# 5 0.000000 0.000000 0.000000 0.000000 0.063080 0.000000
# 6 0.000000 0.000000 0.000000 0.000000 0.000000 0.024293
#
#
# Mechanical properties :
#
#
# Convention : Reuss Voigt Hill
#
# Bulk Modulus (GPa) = 25.76718 33.16551 29.46634
# Shear Modulus (GPa) = 24.65262 32.30970 28.48116
#
# Velocity S-wave (km/s) = 3.26555 3.73844 3.50997
# Velocity P-wave (km/s) = 5.03630 5.74289 5.40116
#
# Compressibility (1/GPa) = 0.03880906
#
# Stress axis : x y z
#
# Youngs Moduli (GPa) = 94.50487 94.50487 55.69102
#
# Poissons Ratio (x) = 0.33023 -0.09298
# Poissons Ratio (y) = 0.33023 -0.09298
# Poissons Ratio (z) = -0.15779 -0.15779
#
# Static dielectric constant tensor:
#      x y z
#    x 1.851500 0.000000 0.000000 
#    y 0.000000 1.851500 0.000000 
#    z 0.000000 0.000000 1.970990 
# 
# From -- ./inp_files/1405.got.cif
#   From: 2010.05.17/outbox.cif.g08.bks.cpg/sg94_1_cif.got.tgz:1405.got - 2010.06.03 19:43:16.
