data_PCOD9550978
_publ_section_title
;
Structure prediction by ZEFSAII (Michael W. Deem and Ramdas Pophale) SiO2 
 PCOD9550978
Probable space group: P 43 21 2
;
_chemical_formula_sum "Si O2"
_cell_formula_units_Z 56
_cell_length_a 14.411089
_cell_length_b 14.411089
_cell_length_c 11.650738
_cell_angle_alpha 90.000000
_cell_angle_beta 90.000000
_cell_angle_gamma 90.000000
_cell_volume 2419.619281
_symmetry_space_group_name_H-M "P 43 21 2"
_symmetry_group_IT_number 96
_symmetry_cell_setting 'tetragonal'
loop_
_space_group_symop_operation_xyz
x,y,z
1/2-y,1/2+x,3/4+z
-x,-y,1/2+z
1/2+y,1/2-x,1/4+z
1/2+x,1/2-y,1/4-z
1/2-x,1/2+y,3/4-z
y,x,-z
-y,-x,1/2-z
loop_
_atom_site_type_symbol
_atom_site_label
_atom_site_fract_x
_atom_site_fract_y
_atom_site_fract_z
Si Si1 0.443054 0.109743 0.067966
Si Si2 0.638658 0.426663 0.490853
Si Si3 0.164652 0.638714 0.911583
Si Si4 0.674128 0.063259 0.566746
Si Si5 0.688563 0.553109 0.696485
Si Si6 0.874806 0.760083 0.081237
Si Si7 0.955540 0.116854 0.867841
O O1 0.550652 0.111767 0.030419
O O2 0.437051 0.174843 0.178516
O O3 0.405692 0.009019 0.103397
O O4 0.374793 0.139504 0.967243
O O5 0.728953 0.388221 0.426339
O O6 0.662514 0.516434 0.568994
O O7 0.611738 0.345005 0.580493
O O8 0.552767 0.434319 0.405387
O O9 0.138706 0.740268 0.955518
O O10 0.647802 0.164702 0.608606
O O11 0.773672 0.031370 0.612507
O O12 0.742294 0.466016 0.752967
O O13 0.600847 0.575886 0.775314
O O14 0.790112 0.790112 0.000000
O O15 0.898603 0.101398 0.750000
#
# Coordination Sequence:
#
# PCOD9550978 Si02
#       7
#     8   8   8   8   8   8   8
#     4  10  25  46  71 115 149 193 259 317 412 453
#     4  11  24  50  75 107 157 200 264 330 391 482
#     4  11  23  50  80 110 152 202 256 331 400 479
#     4  11  24  45  72 110 154 195 253 328 385 479
#     4  11  25  46  79 110 147 203 268 320 403 476
#     4  10  22  42  71 106 146 195 253 314 387 465
#     4  12  26  50  75 106 154 209 264 325 398 478
#
# _framework density 23.144137000000001
#
# number of rings (size 3 to 8) (size 9 to 14) (size 15 to 20)
#    0.000    1.143    2.857    2.143    4.000    1.143 
#   10.286    8.571    0.000    0.000    0.000    0.000 
#    0.000    0.000    0.000    0.000    0.000    0.000 
#
# Total GULP energy -313481.587871 kJ/mol
# GULP energy per Si atom -5597.885498 kJ/mol
# Density = 2.309146 g / cm^3
# Si number density = 23.144137 Si / 1000 Ang^3
#
#
#
# Elastic Constant Matrix: (Units=GPa)
#
#
# Indices 1 2 3 4 5 6 
#
# 1 121.8027 21.5600 36.8667 0.0000 0.0000 0.0000
# 2 21.5600 121.8029 36.8665 0.0000 0.0000 0.0000
# 3 36.8667 36.8665 94.7794 0.0000 0.0000 0.0000
# 4 0.0000 0.0000 0.0000 33.8164 0.0000 0.0000
# 5 0.0000 0.0000 0.0000 0.0000 33.8166 0.0000
# 6 0.0000 0.0000 0.0000 0.0000 0.0000 28.1728
#
#
#
# Elastic Compliance Matrix: (Units=1/GPa)
#
#
# Indices 1 2 3 4 5 6 
#
# 1 0.009348 -0.000628 -0.003392 0.000000 0.000000 0.000000
# 2 -0.000628 0.009348 -0.003392 0.000000 0.000000 0.000000
# 3 -0.003392 -0.003392 0.013189 0.000000 0.000000 0.000000
# 4 0.000000 0.000000 0.000000 0.029571 0.000000 0.000000
# 5 0.000000 0.000000 0.000000 0.000000 0.029571 0.000000
# 6 0.000000 0.000000 0.000000 0.000000 0.000000 0.035495
#
#
# Mechanical properties :
#
#
# Convention : Reuss Voigt Hill
#
# Bulk Modulus (GPa) = 58.61012 58.77462 58.69237
# Shear Modulus (GPa) = 34.00595 35.36728 34.68661
#
# Velocity S-wave (km/s) = 3.83732 3.91337 3.87553
# Velocity P-wave (km/s) = 6.70912 6.77270 6.74099
#
# Compressibility (1/GPa) = 0.01706190
#
# Stress axis : x y z
#
# Youngs Moduli (GPa) = 106.97739 106.97778 75.81843
#
# Poissons Ratio (x) = 0.06719 0.25716
# Poissons Ratio (y) = 0.06719 0.25715
# Poissons Ratio (z) = 0.36284 0.36284
#
# Static dielectric constant tensor:
#      x y z
#    x 1.868540 0.000000 0.000000 
#    y 0.000000 1.868540 0.000000 
#    z 0.000000 0.000000 1.881460 
# 
# From -- ./inp_files/2278.got.cif
#   From: 2010.05.17/outbox.cif.g08.bks.cpg/sg96_2_cif.got.tgz:2278.got - 2010.06.03 19:52:08.
