data_PCOD9550069
_publ_section_title
;
Structure prediction by ZEFSAII (Michael W. Deem and Ramdas Pophale) SiO2 
 PCOD9550069
Probable space group: P 42 21 2
;
_chemical_formula_sum "Si O2"
_cell_formula_units_Z 36
_cell_length_a 13.910499
_cell_length_b 13.910499
_cell_length_c 9.133206
_cell_angle_alpha 90.000000
_cell_angle_beta 90.000000
_cell_angle_gamma 90.000000
_cell_volume 1767.293467
_symmetry_space_group_name_H-M "P 42 21 2"
_symmetry_group_IT_number 94
_symmetry_cell_setting 'tetragonal'
loop_
_space_group_symop_operation_xyz
x,y,z
1/2-y,1/2+x,1/2+z
-x,-y,z
1/2+y,1/2-x,1/2+z
1/2+x,1/2-y,1/2-z
1/2-x,1/2+y,1/2-z
y,x,-z
-y,-x,-z
loop_
_atom_site_type_symbol
_atom_site_label
_atom_site_fract_x
_atom_site_fract_y
_atom_site_fract_z
Si Si1 0.754211 0.977612 0.965044
Si Si2 0.090658 0.070446 0.212478
Si Si3 0.849956 0.849956 0.500000
Si Si4 0.134512 0.362225 0.431046
Si Si5 0.401414 0.948080 0.378774
O O1 0.824749 0.950541 0.832683
O O2 0.654226 0.918236 0.958910
O O3 0.822843 0.956421 0.103011
O O4 0.713197 0.085829 0.966072
O O5 0.133040 0.071326 0.375310
O O6 0.000000 0.000000 0.196343
O O7 0.847694 0.749250 0.416800
O O8 0.143680 0.418833 0.277307
O O9 0.028623 0.364826 0.507229
O O10 0.500000 0.000000 0.331265
#
# Coordination Sequence:
#
# PCOD9550069 Si02
#       5
#     8   8   4   8   8
#     4  10  21  41  68  95 128 179 225 267 343 403
#     4  11  24  44  67  95 138 181 221 278 338 414
#     4  12  25  42  64  99 138 172 236 274 336 405
#     4  11  23  39  67  98 135 179 222 290 332 407
#     4  10  20  40  66  96 134 168 222 277 345 390
#
# _framework density 20.370132000000002
#
# number of rings (size 3 to 8) (size 9 to 14) (size 15 to 20)
#    0.000    1.333    2.222    5.000    3.111    1.778 
#    0.000    0.000    4.889    0.000    0.000    0.000 
#    0.000    0.000    0.000    0.000    0.000    0.000 
#
# Total GULP energy -200487.700742 kJ/mol
# GULP energy per Si atom -5569.102798 kJ/mol
# Density = 2.032377 g / cm^3
# Si number density = 20.370132 Si / 1000 Ang^3
#
#
#
# Elastic Constant Matrix: (Units=GPa)
#
#
# Indices 1 2 3 4 5 6 
#
# 1 96.6395 39.8353 15.9697 0.0000 0.0000 0.0000
# 2 39.8353 96.6395 15.9697 0.0000 0.0000 0.0000
# 3 15.9697 15.9697 78.6411 0.0000 0.0000 0.0000
# 4 0.0000 0.0000 0.0000 17.0339 0.0000 0.0000
# 5 0.0000 0.0000 0.0000 0.0000 17.0339 0.0000
# 6 0.0000 0.0000 0.0000 0.0000 0.0000 11.3093
#
#
#
# Elastic Compliance Matrix: (Units=1/GPa)
#
#
# Indices 1 2 3 4 5 6 
#
# 1 0.012649 -0.004956 -0.001562 0.000000 0.000000 0.000000
# 2 -0.004956 0.012649 -0.001562 0.000000 0.000000 0.000000
# 3 -0.001562 -0.001562 0.013350 0.000000 0.000000 0.000000
# 4 0.000000 0.000000 0.000000 0.058706 0.000000 0.000000
# 5 0.000000 0.000000 0.000000 0.000000 0.058706 0.000000
# 6 0.000000 0.000000 0.000000 0.000000 0.000000 0.088423
#
#
# Mechanical properties :
#
#
# Convention : Reuss Voigt Hill
#
# Bulk Modulus (GPa) = 44.46908 46.16331 45.31620
# Shear Modulus (GPa) = 18.64701 22.41846 20.53274
#
# Velocity S-wave (km/s) = 3.02886 3.32106 3.17832
# Velocity P-wave (km/s) = 5.84037 6.11697 5.98027
#
# Compressibility (1/GPa) = 0.02248753
#
# Stress axis : x y z
#
# Youngs Moduli (GPa) = 79.05983 79.05983 74.90372
#
# Poissons Ratio (x) = 0.39180 0.11702
# Poissons Ratio (y) = 0.39180 0.11702
# Poissons Ratio (z) = 0.12351 0.12351
#
# Static dielectric constant tensor:
#      x y z
#    x 1.740380 0.000000 0.000000 
#    y 0.000000 1.740380 0.000000 
#    z 0.000000 0.000000 1.812690 
# 
# From -- ./inp_files/1331.got.cif
#   From: 2010.05.17/outbox.cif.g08.bks.cpg/sg94_1_cif.got.tgz:1331.got - 2010.06.03 19:43:16.
