data_PCOD9550498
_publ_section_title
;
Structure prediction by ZEFSAII (Michael W. Deem and Ramdas Pophale) SiO2 
 PCOD9550498
Probable space group: P 43 2 2
;
_chemical_formula_sum "Si O2"
_cell_formula_units_Z 48
_cell_length_a 8.939679
_cell_length_b 8.939679
_cell_length_c 29.544087
_cell_angle_alpha 90.000000
_cell_angle_beta 90.000000
_cell_angle_gamma 90.000000
_cell_volume 2361.100227
_symmetry_space_group_name_H-M "P 43 2 2"
_symmetry_group_IT_number 95
_symmetry_cell_setting 'tetragonal'
loop_
_space_group_symop_operation_xyz
x,y,z
-y,x,3/4+z
-x,-y,1/2+z
y,-x,1/4+z
x,-y,1/2-z
-x,y,-z
y,x,1/4-z
-y,-x,3/4-z
loop_
_atom_site_type_symbol
_atom_site_label
_atom_site_fract_x
_atom_site_fract_y
_atom_site_fract_z
Si Si1 0.272602 0.886167 0.837608
Si Si2 0.192540 0.611715 0.210732
Si Si3 0.617417 0.866034 0.836552
Si Si4 0.781215 0.258652 0.582628
Si Si5 0.184094 0.430367 0.116087
Si Si6 0.943697 0.166935 0.254506
O O1 0.233374 0.766627 0.875000
O O2 0.444306 0.875818 0.824692
O O3 0.171229 0.857518 0.794927
O O4 0.235710 0.053743 0.855312
O O5 0.251032 0.500000 0.250000
O O6 0.299033 0.751012 0.196482
O O7 0.156962 0.516012 0.164694
O O8 0.051963 0.698299 0.232379
O O9 0.648631 0.794133 0.885499
O O10 0.656910 0.040596 0.845575
O O11 0.772661 0.438344 0.580525
O O12 0.789967 0.156837 0.538605
O O13 0.317175 0.317175 0.125000
O O14 0.017487 0.000000 0.250000
#
# Coordination Sequence:
#
# PCOD9550498 Si02
#       6
#     8   8   8   8   8   8
#     4  10  20  37  60  85 116 153 197 242 293 358
#     4  11  24  41  60  91 127 159 206 261 312 370
#     4  10  21  37  59  86 118 158 199 246 301 361
#     4   9  20  38  59  87 119 152 196 245 299 360
#     4  10  22  40  63  91 127 167 206 254 314 379
#     4  10  21  39  64  88 113 153 201 252 303 360
#
# _framework density 20.329507
#
# number of rings (size 3 to 8) (size 9 to 14) (size 15 to 20)
#    0.000    2.000    0.000    4.000    0.000    8.667 
#    0.000    5.000    0.000    0.000    0.000    0.000 
#    0.000    0.000    0.000    0.000    0.000    0.000 
#
# Total GULP energy -267454.435687 kJ/mol
# GULP energy per Si atom -5571.967410 kJ/mol
# Density = 2.028324 g / cm^3
# Si number density = 20.329507 Si / 1000 Ang^3
#
#
#
# Elastic Constant Matrix: (Units=GPa)
#
#
# Indices 1 2 3 4 5 6 
#
# 1 79.2954 59.3399 25.2170 0.0000 0.0000 0.0000
# 2 59.3399 79.2968 25.2180 0.0000 0.0000 0.0000
# 3 25.2170 25.2180 67.2074 0.0000 0.0000 0.0000
# 4 0.0000 0.0000 0.0000 37.9619 0.0000 0.0000
# 5 0.0000 0.0000 0.0000 0.0000 37.9612 0.0000
# 6 0.0000 0.0000 0.0000 0.0000 0.0000 28.0295
#
#
#
# Elastic Compliance Matrix: (Units=1/GPa)
#
#
# Indices 1 2 3 4 5 6 
#
# 1 0.029232 -0.020878 -0.003134 0.000000 0.000000 0.000000
# 2 -0.020878 0.029231 -0.003135 0.000000 0.000000 0.000000
# 3 -0.003134 -0.003135 0.017231 0.000000 0.000000 0.000000
# 4 0.000000 0.000000 0.000000 0.026342 0.000000 0.000000
# 5 0.000000 0.000000 0.000000 0.000000 0.026343 0.000000
# 6 0.000000 0.000000 0.000000 0.000000 0.000000 0.035677
#
#
# Mechanical properties :
#
#
# Convention : Reuss Voigt Hill
#
# Bulk Modulus (GPa) = 46.72717 49.48327 48.10522
# Shear Modulus (GPa) = 22.17458 28.52552 25.35005
#
# Velocity S-wave (km/s) = 3.30625 3.74994 3.53506
# Velocity P-wave (km/s) = 6.13268 6.56832 6.35424
#
# Compressibility (1/GPa) = 0.02140083
#
# Stress axis : x y z
#
# Youngs Moduli (GPa) = 34.20944 34.20976 58.03346
#
# Poissons Ratio (x) = 0.71424 0.18188
# Poissons Ratio (y) = 0.71423 0.18191
# Poissons Ratio (z) = 0.10721 0.10724
#
# Static dielectric constant tensor:
#      x y z
#    x 1.743380 0.000000 0.000000 
#    y 0.000000 1.743370 0.000000 
#    z 0.000000 0.000000 1.738630 
# 
# From -- ./inp_files/7949.got.cif
#   From: 2010.05.17/outbox.cif.g08.bks.cpg/sg95_4_cif.got.tgz:7949.got - 2010.06.03 19:46:49.
