data_PCOD9550852
_publ_section_title
;
Structure prediction by ZEFSAII (Michael W. Deem and Ramdas Pophale) SiO2 
 PCOD9550852
Probable space group: P 43 21 2
;
_chemical_formula_sum "Si O2"
_cell_formula_units_Z 48
_cell_length_a 15.500794
_cell_length_b 15.500794
_cell_length_c 10.686085
_cell_angle_alpha 90.000000
_cell_angle_beta 90.000000
_cell_angle_gamma 90.000000
_cell_volume 2567.594955
_symmetry_space_group_name_H-M "P 43 21 2"
_symmetry_group_IT_number 96
_symmetry_cell_setting 'tetragonal'
loop_
_space_group_symop_operation_xyz
x,y,z
1/2-y,1/2+x,3/4+z
-x,-y,1/2+z
1/2+y,1/2-x,1/4+z
1/2+x,1/2-y,1/4-z
1/2-x,1/2+y,3/4-z
y,x,-z
-y,-x,1/2-z
loop_
_atom_site_type_symbol
_atom_site_label
_atom_site_fract_x
_atom_site_fract_y
_atom_site_fract_z
Si Si1 0.440356 0.440356 0.500000
Si Si2 0.001457 0.860816 0.477731
Si Si3 0.874463 0.732900 0.334749
Si Si4 0.521463 0.738355 0.524182
Si Si5 0.290719 0.290719 0.000000
Si Si6 0.539510 0.929396 0.621664
Si Si7 0.624580 0.381368 0.601955
O O1 0.378560 0.429430 0.619351
O O2 0.537454 0.424013 0.546372
O O3 0.949493 0.949493 0.500000
O O4 0.931811 0.792636 0.426153
O O5 0.035326 0.823942 0.606351
O O6 0.779606 0.725001 0.392544
O O7 0.916139 0.638567 0.334186
O O8 0.871032 0.785770 0.206266
O O9 0.612280 0.728361 0.453044
O O10 0.508252 0.834482 0.576663
O O11 0.440339 0.702480 0.448528
O O12 0.487166 0.960988 0.744557
O O13 0.620384 0.379617 0.750000
#
# Coordination Sequence:
#
# PCOD9550852 Si02
#       7
#     4   8   8   8   4   8   8
#     4  10  21  30  58  94 134 160 193 256 320 402
#     4  11  18  35  62  87 126 164 205 241 328 386
#     4  10  20  41  62  83 120 170 203 260 320 384
#     4  11  22  36  65  92 121 168 210 259 312 397
#     4  10  21  34  60  88 116 158 217 248 290 388
#     4  11  25  43  70  93 123 170 232 276 323 375
#     4  11  23  37  62  94 133 162 205 263 338 390
#
# _framework density 18.694537
#
# number of rings (size 3 to 8) (size 9 to 14) (size 15 to 20)
#    0.000    1.333    5.833    1.000    4.667    1.333 
#    0.000    0.000   11.000    0.000    0.000    0.000 
#    0.000    0.000    0.000    0.000    0.000    0.000 
#
# Total GULP energy -267855.955438 kJ/mol
# GULP energy per Si atom -5580.332405 kJ/mol
# Density = 1.865199 g / cm^3
# Si number density = 18.694537 Si / 1000 Ang^3
#
#
#
# Elastic Constant Matrix: (Units=GPa)
#
#
# Indices 1 2 3 4 5 6 
#
# 1 68.2539 39.8968 52.3944 0.0000 0.0000 0.0000
# 2 39.8968 68.2536 52.3943 0.0000 0.0000 0.0000
# 3 52.3944 52.3943 136.8208 0.0000 0.0000 0.0000
# 4 0.0000 0.0000 0.0000 23.9125 0.0000 0.0000
# 5 0.0000 0.0000 0.0000 0.0000 23.9125 0.0000
# 6 0.0000 0.0000 0.0000 0.0000 0.0000 25.5459
#
#
#
# Elastic Compliance Matrix: (Units=1/GPa)
#
#
# Indices 1 2 3 4 5 6 
#
# 1 0.024983 -0.010282 -0.005630 0.000000 0.000000 0.000000
# 2 -0.010282 0.024983 -0.005630 0.000000 0.000000 0.000000
# 3 -0.005630 -0.005630 0.011620 0.000000 0.000000 0.000000
# 4 0.000000 0.000000 0.000000 0.041819 0.000000 0.000000
# 5 0.000000 0.000000 0.000000 0.000000 0.041819 0.000000
# 6 0.000000 0.000000 0.000000 0.000000 0.000000 0.039145
#
#
# Mechanical properties :
#
#
# Convention : Reuss Voigt Hill
#
# Bulk Modulus (GPa) = 54.04247 62.52216 58.28232
# Shear Modulus (GPa) = 21.40228 23.25037 22.32633
#
# Velocity S-wave (km/s) = 3.38722 3.53044 3.45957
# Velocity P-wave (km/s) = 6.65347 7.08063 6.87037
#
# Compressibility (1/GPa) = 0.01850397
#
# Stress axis : x y z
#
# Youngs Moduli (GPa) = 40.02749 40.02730 86.05513
#
# Poissons Ratio (x) = 0.41156 0.48446
# Poissons Ratio (y) = 0.41156 0.48446
# Poissons Ratio (z) = 0.22534 0.22534
#
# Static dielectric constant tensor:
#      x y z
#    x 1.665330 0.000000 0.000000 
#    y 0.000000 1.665330 0.000000 
#    z 0.000000 0.000000 1.663830 
# 
# From -- ./inp_files/2225.got.cif
#   From: 2010.05.17/outbox.cif.g08.bks.cpg/sg96_2_cif.got.tgz:2225.got - 2010.06.03 19:52:08.
