data_PCOD9550700
_publ_section_title
;
Structure prediction by ZEFSAII (Michael W. Deem and Ramdas Pophale) SiO2 
 PCOD9550700
Probable space group: P 43 2 2
;
_chemical_formula_sum "Si O2"
_cell_formula_units_Z 48
_cell_length_a 9.000000
_cell_length_b 9.000000
_cell_length_c 30.000000
_cell_angle_alpha 90.000000
_cell_angle_beta 90.000000
_cell_angle_gamma 90.000000
_cell_volume 2430.000000
_symmetry_space_group_name_H-M "P 43 2 2"
_symmetry_group_IT_number 95
_symmetry_cell_setting 'tetragonal'
loop_
_space_group_symop_operation_xyz
x,y,z
-y,x,3/4+z
-x,-y,1/2+z
y,-x,1/4+z
x,-y,1/2-z
-x,y,-z
y,x,1/4-z
-y,-x,3/4-z
loop_
_atom_site_type_symbol
_atom_site_label
_atom_site_fract_x
_atom_site_fract_y
_atom_site_fract_z
Si Si1 0.816517 0.324393 0.659441
Si Si2 0.321369 0.158212 0.586865
Si Si3 0.426038 0.360719 0.049241
Si Si4 0.170538 0.659075 0.510730
Si Si5 0.679766 0.171079 0.261697
Si Si6 0.377539 0.310181 0.426088
O O1 0.764957 0.489989 0.673454
O O2 0.772871 0.227179 0.702392
O O3 0.715956 0.280057 0.617957
O O4 0.988784 0.314373 0.648415
O O5 0.270887 0.270887 0.625000
O O6 0.212192 0.195215 0.546621
O O7 0.485005 0.200565 0.571037
O O8 0.435836 0.519683 0.072806
O O9 0.500000 0.373240 0.000000
O O10 0.258311 0.325420 0.035804
O O11 0.200595 0.489963 0.528093
O O12 0.000000 0.674609 0.500000
O O13 0.700862 0.271982 0.218564
O O14 0.685703 0.000000 0.250000
#
# Coordination Sequence:
#
# PCOD9550700 Si02
#       6
#     8   8   8   8   8   8
#     4  11  23  37  57  86 116 148 192 242 289 339
#     4  12  24  39  59  85 118 155 196 242 289 343
#     4   9  18  35  58  84 111 146 193 239 282 335
#     4   9  19  37  61  85 115 154 190 231 285 347
#     4  10  21  39  63  90 118 150 192 238 292 350
#     4  11  21  37  62  86 112 151 198 242 288 342
#
# _framework density 19.753086
#
# number of rings (size 3 to 8) (size 9 to 14) (size 15 to 20)
#    0.000    1.667    0.000    7.000    0.000    7.333 
#    0.000    1.667    0.000    0.000    0.000    0.000 
#    0.000    0.000    0.000    0.000    0.000    0.000 
#
# Total GULP energy -267956.387238 kJ/mol
# GULP energy per Si atom -5582.424734 kJ/mol
# Density = 1.970813 g / cm^3
# Si number density = 19.753086 Si / 1000 Ang^3
#
#
#
# Elastic Constant Matrix: (Units=GPa)
#
#
# Indices 1 2 3 4 5 6 
#
# 1 42.4162 30.0167 -3.5564 0.0000 0.0000 0.0000
# 2 30.0167 42.4162 -3.5564 0.0000 0.0000 0.0000
# 3 -3.5564 -3.5564 28.6418 0.0000 0.0000 0.0000
# 4 0.0000 0.0000 0.0000 37.3497 0.0000 0.0000
# 5 0.0000 0.0000 0.0000 0.0000 37.3497 0.0000
# 6 0.0000 0.0000 0.0000 0.0000 0.0000 1.9794
#
#
#
# Elastic Compliance Matrix: (Units=1/GPa)
#
#
# Indices 1 2 3 4 5 6 
#
# 1 0.047312 -0.033336 0.001735 0.000000 0.000000 0.000000
# 2 -0.033336 0.047312 0.001735 0.000000 0.000000 0.000000
# 3 0.001735 0.001735 0.035345 0.000000 0.000000 0.000000
# 4 0.000000 0.000000 0.000000 0.026774 0.000000 0.000000
# 5 0.000000 0.000000 0.000000 0.000000 0.026774 0.000000
# 6 0.000000 0.000000 0.000000 0.000000 0.000000 0.505195
#
#
# Mechanical properties :
#
#
# Convention : Reuss Voigt Hill
#
# Bulk Modulus (GPa) = 14.23704 17.69798 15.96751
# Shear Modulus (GPa) = 6.47789 21.37378 13.92584
#
# Velocity S-wave (km/s) = 1.81288 3.29302 2.65806
# Velocity P-wave (km/s) = 3.40664 4.84125 4.18586
#
# Compressibility (1/GPa) = 0.07023933
#
# Stress axis : x y z
#
# Youngs Moduli (GPa) = 21.13610 21.13610 28.29254
#
# Poissons Ratio (x) = 0.70460 -0.04910
# Poissons Ratio (y) = 0.70460 -0.04910
# Poissons Ratio (z) = -0.03668 -0.03668
#
# Static dielectric constant tensor:
#      x y z
#    x 1.721610 0.000000 0.000000 
#    y 0.000000 1.721610 0.000000 
#    z 0.000000 0.000000 1.710430 
# 
# From -- ./inp_files/7908.got.cif
#   From: 2010.05.17/outbox.ucp.g08.bks.cvg/sg95_4_cif.got.tgz:7908.got - 2010.06.11 10:37:16.
