data_PCOD9550416
_publ_section_title
;
Structure prediction by ZEFSAII (Michael W. Deem and Ramdas Pophale) SiO2 
 PCOD9550416
Probable space group: P 43 2 2
;
_chemical_formula_sum "Si O2"
_cell_formula_units_Z 48
_cell_length_a 23.279472
_cell_length_b 23.279472
_cell_length_c 5.463259
_cell_angle_alpha 90.000000
_cell_angle_beta 90.000000
_cell_angle_gamma 90.000000
_cell_volume 2960.724801
_symmetry_space_group_name_H-M "P 43 2 2"
_symmetry_group_IT_number 95
_symmetry_cell_setting 'tetragonal'
loop_
_space_group_symop_operation_xyz
x,y,z
-y,x,3/4+z
-x,-y,1/2+z
y,-x,1/4+z
x,-y,1/2-z
-x,y,-z
y,x,1/4-z
-y,-x,3/4-z
loop_
_atom_site_type_symbol
_atom_site_label
_atom_site_fract_x
_atom_site_fract_y
_atom_site_fract_z
Si Si1 0.604366 0.775419 0.098453
Si Si2 0.500000 0.067153 0.000000
Si Si3 0.296385 0.140900 0.089156
Si Si4 0.500000 0.860779 0.000000
Si Si5 0.264192 0.360315 0.147409
Si Si6 0.732582 0.828665 0.098539
Si Si7 0.968583 0.371647 0.748891
O O1 0.554617 0.821622 0.065250
O O2 0.603732 0.740092 0.351667
O O3 0.665997 0.807900 0.101568
O O4 0.603696 0.738091 0.851830
O O5 0.508407 0.102935 0.748267
O O6 0.440668 0.033039 0.979534
O O7 0.322061 0.205662 0.099191
O O8 0.263233 0.136390 0.346106
O O9 0.257803 0.136595 0.847536
O O10 0.347058 0.095493 0.039569
O O11 0.317114 0.317114 0.125000
O O12 0.773243 0.773243 0.125000
O O13 0.000000 0.350689 0.500000
O O14 0.000000 0.355411 0.000000
#
# Coordination Sequence:
#
# PCOD9550416 Si02
#       7
#     8   4   8   4   8   8   8
#     4  10  18  28  42  66  93 114 140 173 218 284
#     4  12  22  37  50  60  80 116 170 218 247 270
#     4  10  18  30  45  63  85 108 136 184 240 288
#     4  12  22  33  50  70  92 124 156 194 245 292
#     4  10  18  31  50  70  87 108 142 186 237 285
#     4  10  17  29  48  70  88 107 139 184 240 290
#     4  12  24  37  48  62  84 119 165 211 251 278
#
# _framework density 16.212244999999999
#
# number of rings (size 3 to 8) (size 9 to 14) (size 15 to 20)
#    0.000    1.333    0.000   12.500    0.000    0.000 
#    0.000    0.000    0.000    0.000    0.000    0.000 
#    0.000    0.000    0.000    0.000    0.000   60.000 
#
# Total GULP energy -267480.934164 kJ/mol
# GULP energy per Si atom -5572.519462 kJ/mol
# Density = 1.617535 g / cm^3
# Si number density = 16.212245 Si / 1000 Ang^3
#
#
#
# Elastic Constant Matrix: (Units=GPa)
#
#
# Indices 1 2 3 4 5 6 
#
# 1 33.6243 -2.8932 19.4548 0.0000 0.0000 0.0000
# 2 -2.8932 33.6243 19.4548 0.0000 0.0000 0.0000
# 3 19.4548 19.4548 190.3397 0.0000 0.0000 0.0000
# 4 0.0000 0.0000 0.0000 19.6057 0.0000 0.0000
# 5 0.0000 0.0000 0.0000 0.0000 19.6057 0.0000
# 6 0.0000 0.0000 0.0000 0.0000 0.0000 -12.2468
#
#
#
# Elastic Compliance Matrix: (Units=1/GPa)
#
#
# Indices 1 2 3 4 5 6 
#
# 1 0.032381 0.004997 -0.003820 0.000000 0.000000 0.000000
# 2 0.004997 0.032381 -0.003820 0.000000 0.000000 0.000000
# 3 -0.003820 -0.003820 0.006035 0.000000 0.000000 0.000000
# 4 0.000000 0.000000 0.000000 0.051006 0.000000 0.000000
# 5 0.000000 0.000000 0.000000 0.000000 0.051006 0.000000
# 6 0.000000 0.000000 0.000000 0.000000 0.000000 -0.081654
#
#
# Mechanical properties :
#
#
# Convention : Reuss Voigt Hill
#
# Bulk Modulus (GPa) = 15.26530 36.62457 25.94493
# Shear Modulus (GPa) = 42.27345 20.16438 31.21892
#
# Velocity S-wave (km/s) = 5.11191 3.53055 4.39297
# Velocity P-wave (km/s) = 6.65421 6.26573 6.46289
#
# Compressibility (1/GPa) = 0.06550805
#
# Stress axis : x y z
#
# Youngs Moduli (GPa) = 30.88250 30.88250 165.70738
#
# Poissons Ratio (x) = -0.15431 0.63307
# Poissons Ratio (y) = -0.15431 0.63307
# Poissons Ratio (z) = 0.11798 0.11798
#
# Static dielectric constant tensor:
#      x y z
#    x 1.546530 0.000000 0.000000 
#    y 0.000000 1.546530 0.000000 
#    z 0.000000 0.000000 1.695300 
# 
# From -- ./inp_files/1289.got.cif
#   From: 2010.05.17/outbox.cif.g08.bks.cpg/sg95_1_cif.got.tgz:1289.got - 2010.06.03 19:46:49.
