data_PCOD9550917
_publ_section_title
;
Structure prediction by ZEFSAII (Michael W. Deem and Ramdas Pophale) SiO2 
 PCOD9550917
Probable space group: P 43 21 2
;
_chemical_formula_sum "Si O2"
_cell_formula_units_Z 40
_cell_length_a 9.369669
_cell_length_b 9.369669
_cell_length_c 21.996746
_cell_angle_alpha 90.000000
_cell_angle_beta 90.000000
_cell_angle_gamma 90.000000
_cell_volume 1931.109667
_symmetry_space_group_name_H-M "P 43 21 2"
_symmetry_group_IT_number 96
_symmetry_cell_setting 'tetragonal'
loop_
_space_group_symop_operation_xyz
x,y,z
1/2-y,1/2+x,3/4+z
-x,-y,1/2+z
1/2+y,1/2-x,1/4+z
1/2+x,1/2-y,1/4-z
1/2-x,1/2+y,3/4-z
y,x,-z
-y,-x,1/2-z
loop_
_atom_site_type_symbol
_atom_site_label
_atom_site_fract_x
_atom_site_fract_y
_atom_site_fract_z
Si Si1 0.001843 0.623622 0.904613
Si Si2 0.460549 0.017201 0.221810
Si Si3 0.120143 0.842644 0.552890
Si Si4 0.568562 0.595925 0.168208
Si Si5 0.691863 0.219045 0.656591
O O1 0.856801 0.710779 0.917943
O O2 0.994374 0.565232 0.836117
O O3 0.129918 0.737517 0.909201
O O4 0.018564 0.511081 0.960105
O O5 0.409199 0.178926 0.211882
O O6 0.343405 0.894015 0.209089
O O7 0.142702 0.921990 0.488363
O O8 0.991359 0.934436 0.583086
O O9 0.454722 0.702270 0.136802
O O10 0.723438 0.623429 0.141496
#
# Coordination Sequence:
#
# PCOD9550917 Si02
#       5
#     8   8   8   8   8
#     4  11  23  43  64 100 126 172 228 269 328 407
#     4  12  24  40  70  92 133 171 217 273 336 397
#     4  10  23  40  62  95 137 173 214 280 336 393
#     4  10  21  41  65  94 131 176 223 272 337 390
#     4  11  20  40  69  95 125 171 225 277 323 400
#
# _framework density 20.713477000000001
#
# number of rings (size 3 to 8) (size 9 to 14) (size 15 to 20)
#    0.000    1.200    4.000    1.800    2.800    0.000 
#    0.000    0.000    0.000    0.000    0.000    0.000 
#    0.000    0.000    0.000    0.000    0.000    0.000 
#
# Total GULP energy -222909.545510 kJ/mol
# GULP energy per Si atom -5572.738638 kJ/mol
# Density = 2.066633 g / cm^3
# Si number density = 20.713477 Si / 1000 Ang^3
#
#
#
# Elastic Constant Matrix: (Units=GPa)
#
#
# Indices 1 2 3 4 5 6 
#
# 1 90.0660 26.7757 3.0475 0.0000 0.0000 0.0000
# 2 26.7757 90.0660 3.0475 0.0000 0.0000 0.0000
# 3 3.0475 3.0475 45.6919 0.0000 0.0000 0.0000
# 4 0.0000 0.0000 0.0000 26.6638 0.0000 0.0000
# 5 0.0000 0.0000 0.0000 0.0000 26.6638 0.0000
# 6 0.0000 0.0000 0.0000 0.0000 0.0000 28.6120
#
#
#
# Elastic Compliance Matrix: (Units=1/GPa)
#
#
# Indices 1 2 3 4 5 6 
#
# 1 0.012194 -0.003606 -0.000573 0.000000 0.000000 0.000000
# 2 -0.003606 0.012194 -0.000573 0.000000 0.000000 0.000000
# 3 -0.000573 -0.000573 0.021962 0.000000 0.000000 0.000000
# 4 0.000000 0.000000 0.000000 0.037504 0.000000 0.000000
# 5 0.000000 0.000000 0.000000 0.000000 0.037504 0.000000
# 6 0.000000 0.000000 0.000000 0.000000 0.000000 0.034950
#
#
# Mechanical properties :
#
#
# Convention : Reuss Voigt Hill
#
# Bulk Modulus (GPa) = 27.13868 32.39615 29.76742
# Shear Modulus (GPa) = 28.07492 29.25147 28.66319
#
# Velocity S-wave (km/s) = 3.68556 3.76199 3.72397
# Velocity P-wave (km/s) = 5.58941 5.87743 5.73523
#
# Compressibility (1/GPa) = 0.03684778
#
# Stress axis : x y z
#
# Youngs Moduli (GPa) = 82.00530 82.00530 45.53292
#
# Poissons Ratio (x) = 0.29570 0.02608
# Poissons Ratio (y) = 0.29570 0.02608
# Poissons Ratio (z) = 0.04697 0.04697
#
# Static dielectric constant tensor:
#      x y z
#    x 1.780040 0.000000 0.000000 
#    y 0.000000 1.780040 0.000000 
#    z 0.000000 0.000000 1.779980 
# 
# From -- ./inp_files/3778.got.cif
#   From: 2010.05.17/outbox.cif.g08.bks.cpg/sg96_2_cif.got.tgz:3778.got - 2010.06.03 19:52:08.
