data_PCOD9550528
_publ_section_title
;
Structure prediction by ZEFSAII (Michael W. Deem and Ramdas Pophale) SiO2 
 PCOD9550528
Probable space group: P 43 2 2
;
_chemical_formula_sum "Si O2"
_cell_formula_units_Z 48
_cell_length_a 9.333881
_cell_length_b 9.333881
_cell_length_c 26.863013
_cell_angle_alpha 90.000000
_cell_angle_beta 90.000000
_cell_angle_gamma 90.000000
_cell_volume 2340.341542
_symmetry_space_group_name_H-M "P 43 2 2"
_symmetry_group_IT_number 95
_symmetry_cell_setting 'tetragonal'
loop_
_space_group_symop_operation_xyz
x,y,z
-y,x,3/4+z
-x,-y,1/2+z
y,-x,1/4+z
x,-y,1/2-z
-x,y,-z
y,x,1/4-z
-y,-x,3/4-z
loop_
_atom_site_type_symbol
_atom_site_label
_atom_site_fract_x
_atom_site_fract_y
_atom_site_fract_z
Si Si1 0.066485 0.351337 0.230306
Si Si2 0.868303 0.797895 0.071354
Si Si3 0.159524 0.648900 0.097234
Si Si4 0.733670 0.657821 0.258165
Si Si5 0.847021 0.139072 0.059790
Si Si6 0.323971 0.088514 0.135086
O O1 0.132392 0.500000 0.250000
O O2 0.151840 0.217173 0.254014
O O3 0.037817 0.347182 0.171775
O O4 0.905138 0.348118 0.251424
O O5 0.791388 0.791388 0.125000
O O6 0.024874 0.732449 0.074367
O O7 0.889248 0.970107 0.063270
O O8 0.779589 0.702263 0.032353
O O9 0.291859 0.692216 0.062913
O O10 0.167187 0.713115 0.152901
O O11 0.130020 0.480325 0.095482
O O12 0.674017 0.500000 0.250000
O O13 0.973672 0.239222 0.080765
O O14 0.225976 0.225976 0.125000
#
# Coordination Sequence:
#
# PCOD9550528 Si02
#       6
#     8   8   8   8   8   8
#     4  10  20  40  69  96 127 170 217 270 328 393
#     4   9  20  37  63  96 125 156 212 267 324 375
#     4  11  21  40  65  92 129 167 209 275 318 379
#     4  10  21  38  66  92 123 169 219 260 318 391
#     4  10  21  40  68  98 125 169 212 269 333 386
#     4  12  25  42  63  96 136 167 221 275 330 388
#
# _framework density 20.509826
#
# number of rings (size 3 to 8) (size 9 to 14) (size 15 to 20)
#    0.000    1.667    3.333    2.000    2.333    0.667 
#    6.000    3.333    0.000    0.000    0.000    0.000 
#    0.000    0.000    0.000    0.000    0.000    0.000 
#
# Total GULP energy -267573.517604 kJ/mol
# GULP energy per Si atom -5574.448283 kJ/mol
# Density = 2.046314 g / cm^3
# Si number density = 20.509826 Si / 1000 Ang^3
#
#
#
# Elastic Constant Matrix: (Units=GPa)
#
#
# Indices 1 2 3 4 5 6 
#
# 1 942.8423 -805.5856 19.8972 0.0000 0.0000 0.0000
# 2 -805.5856 942.8423 19.8972 0.0000 0.0000 0.0000
# 3 19.8972 19.8972 61.0587 0.0000 0.0000 0.0000
# 4 0.0000 0.0000 0.0000 -43.0994 0.0000 0.0000
# 5 0.0000 0.0000 0.0000 0.0000 -43.0994 0.0000
# 6 0.0000 0.0000 0.0000 0.0000 0.0000 203.2040
#
#
#
# Elastic Compliance Matrix: (Units=1/GPa)
#
#
# Indices 1 2 3 4 5 6 
#
# 1 0.004309 0.003737 -0.002622 0.000000 0.000000 0.000000
# 2 0.003737 0.004309 -0.002622 0.000000 0.000000 0.000000
# 3 -0.002622 -0.002622 0.018086 0.000000 0.000000 0.000000
# 4 0.000000 0.000000 0.000000 -0.023202 0.000000 0.000000
# 5 0.000000 0.000000 0.000000 0.000000 -0.023202 0.000000
# 6 0.000000 0.000000 0.000000 0.000000 0.000000 0.004921
#
#
# Mechanical properties :
#
#
# Convention : Reuss Voigt Hill
#
# Bulk Modulus (GPa) = 42.21101 46.12899 44.17000
# Shear Modulus (GPa) = -1292.48850 204.23669 -544.12591
#
# Velocity S-wave (km/s) = -25.13062 9.98980 -16.30571
# Velocity P-wave (km/s) = 28.66075 12.47403 18.24606
#
# Compressibility (1/GPa) = 0.02369050
#
# Stress axis : x y z
#
# Youngs Moduli (GPa) = 232.07997 232.07997 55.28990
#
# Poissons Ratio (x) = -0.86726 0.14496
# Poissons Ratio (y) = -0.86726 0.14496
# Poissons Ratio (z) = 0.60849 0.60849
#
# Static dielectric constant tensor:
#      x y z
#    x 1.903000 0.000000 0.000000 
#    y 0.000000 1.903000 0.000000 
#    z 0.000000 0.000000 1.817210 
# 
# From -- ./inp_files/7903.got.cif
#   From: 2010.05.17/outbox.cif.g08.bks.cpg/sg95_4_cif.got.tgz:7903.got - 2010.06.03 19:46:49.
