data_PCOD9550339
_publ_section_title
;
Structure prediction by ZEFSAII (Michael W. Deem and Ramdas Pophale) SiO2 
 PCOD9550339
Probable space group: P 42 21 2
;
_chemical_formula_sum "Si O2"
_cell_formula_units_Z 56
_cell_length_a 14.386509
_cell_length_b 14.386509
_cell_length_c 12.259300
_cell_angle_alpha 90.000000
_cell_angle_beta 90.000000
_cell_angle_gamma 90.000000
_cell_volume 2537.327441
_symmetry_space_group_name_H-M "P 42 21 2"
_symmetry_group_IT_number 94
_symmetry_cell_setting 'tetragonal'
loop_
_space_group_symop_operation_xyz
x,y,z
1/2-y,1/2+x,1/2+z
-x,-y,z
1/2+y,1/2-x,1/2+z
1/2+x,1/2-y,1/2-z
1/2-x,1/2+y,1/2-z
y,x,-z
-y,-x,-z
loop_
_atom_site_type_symbol
_atom_site_label
_atom_site_fract_x
_atom_site_fract_y
_atom_site_fract_z
Si Si1 0.644572 0.793346 0.473952
Si Si2 0.340724 0.666993 0.368665
Si Si3 0.262317 0.471305 0.735890
Si Si4 0.467469 0.101552 0.092527
Si Si5 0.480834 0.800065 0.643634
Si Si6 0.301262 0.336583 0.126982
Si Si7 0.692743 0.972357 0.380417
O O1 0.701424 0.701424 0.500000
O O2 0.575534 0.780600 0.372152
O O3 0.577906 0.807519 0.580501
O O4 0.717961 0.870663 0.428186
O O5 0.344105 0.655896 0.500000
O O6 0.437727 0.685493 0.308052
O O7 0.298554 0.566970 0.334154
O O8 0.274098 0.756100 0.341842
O O9 0.182074 0.495138 0.824113
O O10 0.322105 0.391554 0.797159
O O11 0.356423 0.096531 0.075880
O O12 0.500000 0.000000 0.125499
O O13 0.504320 0.118878 0.972566
O O14 0.471447 0.848865 0.760509
O O15 0.262999 0.441640 0.130778
O O16 0.322733 0.322733 0.000000
#
# Coordination Sequence:
#
# PCOD9550339 Si02
#       7
#     8   8   8   8   8   8   8
#     4  12  27  48  73 110 148 196 261 317 377 453
#     4  11  23  45  80 108 151 202 251 310 393 460
#     4  12  25  46  79 111 152 201 251 319 391 464
#     4  12  25  43  72 117 147 195 248 314 392 453
#     4  12  25  47  71 113 148 192 253 315 376 453
#     4  11  23  46  70 108 152 195 247 307 386 469
#     4  12  26  44  74 102 152 190 238 317 379 448
#
# _framework density 22.070464999999999
#
# number of rings (size 3 to 8) (size 9 to 14) (size 15 to 20)
#    0.000    0.286    7.143    1.714    2.000    2.857 
#    0.000    3.571    0.000    0.000    0.000    0.000 
#    0.000    0.000    0.000    0.000    0.000    0.000 
#
# Total GULP energy -312372.173046 kJ/mol
# GULP energy per Si atom -5578.074519 kJ/mol
# Density = 2.202023 g / cm^3
# Si number density = 22.070465 Si / 1000 Ang^3
#
#
#
# Elastic Constant Matrix: (Units=GPa)
#
#
# Indices 1 2 3 4 5 6 
#
# 1 93.8028 50.5140 44.0650 0.0000 0.0000 0.0000
# 2 50.5140 93.8028 44.0651 0.0000 0.0000 0.0000
# 3 44.0650 44.0651 96.1200 0.0000 0.0000 0.0000
# 4 0.0000 0.0000 0.0000 27.9032 0.0000 0.0000
# 5 0.0000 0.0000 0.0000 0.0000 27.9032 0.0000
# 6 0.0000 0.0000 0.0000 0.0000 0.0000 42.0108
#
#
#
# Elastic Compliance Matrix: (Units=1/GPa)
#
#
# Indices 1 2 3 4 5 6 
#
# 1 0.016362 -0.006739 -0.004412 0.000000 0.000000 0.000000
# 2 -0.006739 0.016362 -0.004412 0.000000 0.000000 0.000000
# 3 -0.004412 -0.004412 0.014449 0.000000 0.000000 0.000000
# 4 0.000000 0.000000 0.000000 0.035838 0.000000 0.000000
# 5 0.000000 0.000000 0.000000 0.000000 0.035838 0.000000
# 6 0.000000 0.000000 0.000000 0.000000 0.000000 0.023803
#
#
# Mechanical properties :
#
#
# Convention : Reuss Voigt Hill
#
# Bulk Modulus (GPa) = 62.31118 62.33484 62.32301
# Shear Modulus (GPa) = 27.91332 29.23554 28.57443
#
# Velocity S-wave (km/s) = 3.56017 3.64352 3.60208
# Velocity P-wave (km/s) = 6.72264 6.78271 6.75274
#
# Compressibility (1/GPa) = 0.01604849
#
# Stress axis : x y z
#
# Youngs Moduli (GPa) = 61.11735 61.11730 69.21071
#
# Poissons Ratio (x) = 0.41185 0.30533
# Poissons Ratio (y) = 0.41185 0.30534
# Poissons Ratio (z) = 0.26963 0.26963
#
# Static dielectric constant tensor:
#      x y z
#    x 1.963440 0.000000 0.000000 
#    y 0.000000 1.963440 0.000000 
#    z 0.000000 0.000000 1.899390 
# 
# From -- ./inp_files/2722.got.cif
#   From: 2010.05.17/outbox.cif.g08.bks.cpg/sg94_2_cif.got.tgz:2722.got - 2010.06.03 19:43:16.
