data_PCOD9550148
_publ_section_title
;
Structure prediction by ZEFSAII (Michael W. Deem and Ramdas Pophale) SiO2 
 PCOD9550148
Probable space group: P 42 21 2
;
_chemical_formula_sum "Si O2"
_cell_formula_units_Z 50
_cell_length_a 9.152959
_cell_length_b 9.152959
_cell_length_c 26.043845
_cell_angle_alpha 90.000000
_cell_angle_beta 90.000000
_cell_angle_gamma 90.000000
_cell_volume 2181.866307
_symmetry_space_group_name_H-M "P 42 21 2"
_symmetry_group_IT_number 94
_symmetry_cell_setting 'tetragonal'
loop_
_space_group_symop_operation_xyz
x,y,z
1/2-y,1/2+x,1/2+z
-x,-y,z
1/2+y,1/2-x,1/2+z
1/2+x,1/2-y,1/2-z
1/2-x,1/2+y,1/2-z
y,x,-z
-y,-x,-z
loop_
_atom_site_type_symbol
_atom_site_label
_atom_site_fract_x
_atom_site_fract_y
_atom_site_fract_z
Si Si1 0.380780 0.763412 0.344760
Si Si2 0.264227 0.331302 0.712444
Si Si3 0.337541 0.054131 0.189526
Si Si4 0.029643 0.764846 0.533226
Si Si5 0.000000 0.000000 0.000000
Si Si6 0.330841 0.516302 0.152903
Si Si7 0.303816 0.977858 0.952054
O O1 0.501809 0.712910 0.304902
O O2 0.262203 0.634424 0.353908
O O3 0.284179 0.898563 0.325966
O O4 0.477587 0.821011 0.392484
O O5 0.417930 0.251230 0.711495
O O6 0.171932 0.343183 0.764579
O O7 0.168641 0.235914 0.671687
O O8 0.500000 0.000000 0.174377
O O9 0.106023 0.893978 0.500000
O O10 0.019259 0.822555 0.591773
O O11 0.128612 0.622154 0.521857
O O12 0.875176 0.674991 0.530560
O O13 0.863809 0.015124 0.963331
O O14 0.500000 0.500000 0.169081
#
# Coordination Sequence:
#
# PCOD9550148 Si02
#       7
#     8   8   8   8   2   8   8
#     4  11  24  46  69  98 142 195 230 291 369 439
#     4  12  24  44  69  98 137 191 234 290 360 436
#     4  12  26  42  68 104 141 179 244 299 352 429
#     4  10  21  44  68 100 139 185 229 297 370 440
#     4  12  24  40  70 100 138 180 240 306 348 440
#     4  11  23  40  68  98 135 176 230 293 354 422
#     4  10  23  42  70 103 141 184 240 291 367 448
#
# _framework density 22.916162
#
# number of rings (size 3 to 8) (size 9 to 14) (size 15 to 20)
#    0.000    0.960    2.400    4.800    2.240    2.880 
#    0.000    3.200    0.000    0.000    0.000    0.000 
#    0.000    0.000    0.000    0.000    0.000    0.000 
#
# Total GULP energy -278857.231309 kJ/mol
# GULP energy per Si atom -5577.144626 kJ/mol
# Density = 2.286400 g / cm^3
# Si number density = 22.916162 Si / 1000 Ang^3
#
#
#
# Elastic Constant Matrix: (Units=GPa)
#
#
# Indices 1 2 3 4 5 6 
#
# 1 140.7178 44.1656 12.4648 0.0000 0.0000 0.0000
# 2 44.1656 140.7173 12.4649 0.0000 0.0000 0.0000
# 3 12.4648 12.4649 44.6268 0.0000 0.0000 0.0000
# 4 0.0000 0.0000 0.0000 -58.8699 0.0000 0.0000
# 5 0.0000 0.0000 0.0000 0.0000 -58.9055 0.0000
# 6 0.0000 0.0000 0.0000 0.0000 0.0000 49.5380
#
#
#
# Elastic Compliance Matrix: (Units=1/GPa)
#
#
# Indices 1 2 3 4 5 6 
#
# 1 0.007989 -0.002368 -0.001570 0.000000 0.000000 0.000000
# 2 -0.002368 0.007989 -0.001570 0.000000 0.000000 0.000000
# 3 -0.001570 -0.001570 0.023285 0.000000 0.000000 0.000000
# 4 0.000000 0.000000 0.000000 -0.016987 0.000000 0.000000
# 5 0.000000 0.000000 0.000000 0.000000 -0.016976 0.000000
# 6 0.000000 0.000000 0.000000 0.000000 0.000000 0.020187
#
#
# Mechanical properties :
#
#
# Convention : Reuss Voigt Hill
#
# Bulk Modulus (GPa) = 35.40260 51.58359 43.49309
# Shear Modulus (GPa) = 108.89012 3.48362 56.18687
#
# Velocity S-wave (km/s) = 6.90072 1.23428 4.95698
# Velocity P-wave (km/s) = 8.88681 4.95881 7.19602
#
# Compressibility (1/GPa) = 0.02824652
#
# Stress axis : x y z
#
# Youngs Moduli (GPa) = 125.17527 125.17476 42.94609
#
# Poissons Ratio (x) = 0.29645 0.06742
# Poissons Ratio (y) = 0.29645 0.06742
# Poissons Ratio (z) = 0.19651 0.19651
#
# Static dielectric constant tensor:
#      x y z
#    x 1.892790 0.000000 0.000000 
#    y 0.000000 1.892800 0.000000 
#    z 0.000000 0.000000 1.975780 
# 
# From -- ./inp_files/5653.got.cif
#   From: 2010.05.17/outbox.cif.g08.bks.cpg/sg94_3_cif.got.tgz:5653.got - 2010.06.03 19:43:16.
