data_PCOD9550109
_publ_section_title
;
Structure prediction by ZEFSAII (Michael W. Deem and Ramdas Pophale) SiO2 
 PCOD9550109
Probable space group: P 42 21 2
;
_chemical_formula_sum "Si O2"
_cell_formula_units_Z 42
_cell_length_a 8.820178
_cell_length_b 8.820178
_cell_length_c 25.793723
_cell_angle_alpha 90.000000
_cell_angle_beta 90.000000
_cell_angle_gamma 90.000000
_cell_volume 2006.636608
_symmetry_space_group_name_H-M "P 42 21 2"
_symmetry_group_IT_number 94
_symmetry_cell_setting 'tetragonal'
loop_
_space_group_symop_operation_xyz
x,y,z
1/2-y,1/2+x,1/2+z
-x,-y,z
1/2+y,1/2-x,1/2+z
1/2+x,1/2-y,1/2-z
1/2-x,1/2+y,1/2-z
y,x,-z
-y,-x,-z
loop_
_atom_site_type_symbol
_atom_site_label
_atom_site_fract_x
_atom_site_fract_y
_atom_site_fract_z
Si Si1 0.666037 0.183160 0.150524
Si Si2 0.669778 0.946276 0.329252
Si Si3 0.452175 0.677421 0.719023
Si Si4 0.468119 0.834521 0.550999
Si Si5 0.733622 0.672947 0.864113
Si Si6 0.000000 0.000000 0.000000
O O1 0.809707 0.290366 0.140630
O O2 0.713094 0.087303 0.200310
O O3 0.653572 0.074250 0.101641
O O4 0.500228 0.256675 0.156111
O O5 0.762414 0.916903 0.276176
O O6 0.762418 0.067197 0.362091
O O7 0.500000 0.000000 0.319797
O O8 0.500000 0.500000 0.718397
O O9 0.323652 0.718686 0.676774
O O10 0.303139 0.826073 0.578337
O O11 0.498277 0.669495 0.526186
O O12 0.500000 0.000000 0.523577
#
# Coordination Sequence:
#
# PCOD9550109 Si02
#       6
#     8   8   8   8   8   2
#     4  10  21  39  59  81 121 159 202 261 314 371
#     4  12  23  33  53  88 120 168 212 252 301 372
#     4  11  21  34  54  80 120 164 214 256 302 369
#     4   9  23  45  67  97 122 159 205 260 323 394
#     4  10  21  39  59  81 121 159 202 261 314 371
#     4  12  24  44  84  92 132 168 216 260 348 404
#
# _framework density 20.930546
#
# number of rings (size 3 to 8) (size 9 to 14) (size 15 to 20)
#    0.000    1.524    0.000    6.857    8.000    0.000 
#    3.429    0.000    0.000    0.000    0.000    0.000 
#    0.000    0.000    0.000    0.000    0.000    0.000 
#
# Total GULP energy -234036.832696 kJ/mol
# GULP energy per Si atom -5572.305540 kJ/mol
# Density = 2.088291 g / cm^3
# Si number density = 20.930546 Si / 1000 Ang^3
#
#
#
# Elastic Constant Matrix: (Units=GPa)
#
#
# Indices 1 2 3 4 5 6 
#
# 1 98.6526 -8.9042 21.8419 0.0000 0.0000 0.0000
# 2 -8.9042 98.6526 21.8419 0.0000 0.0000 0.0000
# 3 21.8419 21.8419 25.7537 0.0000 0.0000 0.0000
# 4 0.0000 0.0000 0.0000 -98.6463 0.0000 0.0000
# 5 0.0000 0.0000 0.0000 0.0000 -98.6463 0.0000
# 6 0.0000 0.0000 0.0000 0.0000 0.0000 36.4936
#
#
#
# Elastic Compliance Matrix: (Units=1/GPa)
#
#
# Indices 1 2 3 4 5 6 
#
# 1 0.014136 0.004839 -0.016093 0.000000 0.000000 0.000000
# 2 0.004839 0.014136 -0.016093 0.000000 0.000000 0.000000
# 3 -0.016093 -0.016093 0.066127 0.000000 0.000000 0.000000
# 4 0.000000 0.000000 0.000000 -0.010137 0.000000 0.000000
# 5 0.000000 0.000000 0.000000 0.000000 -0.010137 0.000000
# 6 0.000000 0.000000 0.000000 0.000000 0.000000 0.027402
#
#
# Mechanical properties :
#
#
# Convention : Reuss Voigt Hill
#
# Bulk Modulus (GPa) = 25.18578 32.51310 28.84944
# Shear Modulus (GPa) = 29.50613 -19.60786 4.94914
#
# Velocity S-wave (km/s) = 3.75869 -3.06405 1.53938
# Velocity P-wave (km/s) = 5.55843 1.74633 4.11982
#
# Compressibility (1/GPa) = 0.03970495
#
# Stress axis : x y z
#
# Youngs Moduli (GPa) = 70.73950 70.73950 15.12251
#
# Poissons Ratio (x) = -0.34231 0.24337
# Poissons Ratio (y) = -0.34231 0.24337
# Poissons Ratio (z) = 1.13842 1.13842
#
# Static dielectric constant tensor:
#      x y z
#    x 1.836850 0.000000 0.000000 
#    y 0.000000 1.836850 0.000000 
#    z 0.000000 0.000000 1.736840 
# 
# From -- ./inp_files/5306.got.cif
#   From: 2010.05.17/outbox.cif.g08.bks.cpg/sg94_3_cif.got.tgz:5306.got - 2010.06.03 19:43:16.
