data_PCOD9550625
_publ_section_title
;
Structure prediction by ZEFSAII (Michael W. Deem and Ramdas Pophale) SiO2 
 PCOD9550625
Probable space group: P 43 2 2
;
_chemical_formula_sum "Si O2"
_cell_formula_units_Z 60
_cell_length_a 11.271622
_cell_length_b 11.271622
_cell_length_c 23.337897
_cell_angle_alpha 90.000000
_cell_angle_beta 90.000000
_cell_angle_gamma 90.000000
_cell_volume 2965.067270
_symmetry_space_group_name_H-M "P 43 2 2"
_symmetry_group_IT_number 95
_symmetry_cell_setting 'tetragonal'
loop_
_space_group_symop_operation_xyz
x,y,z
-y,x,3/4+z
-x,-y,1/2+z
y,-x,1/4+z
x,-y,1/2-z
-x,y,-z
y,x,1/4-z
-y,-x,3/4-z
loop_
_atom_site_type_symbol
_atom_site_label
_atom_site_fract_x
_atom_site_fract_y
_atom_site_fract_z
Si Si1 0.626464 0.868233 0.848175
Si Si2 0.890783 0.291669 0.847689
Si Si3 0.812720 0.554656 0.877484
Si Si4 0.713424 0.513387 0.186684
Si Si5 0.312646 0.739975 0.514635
Si Si6 0.524094 0.603512 0.686570
Si Si7 0.962407 0.634873 0.064916
Si Si8 0.243459 0.756542 0.875000
O O1 0.581865 0.768279 0.892987
O O2 0.702074 0.807918 0.797458
O O3 0.500540 0.912970 0.821827
O O4 0.697695 0.971156 0.882886
O O5 0.818532 0.181469 0.875000
O O6 0.844711 0.416124 0.873736
O O7 0.846815 0.296390 0.781159
O O8 0.768958 0.596568 0.815680
O O9 0.718020 0.559439 0.928606
O O10 0.924045 0.633386 0.894060
O O11 0.763622 0.500000 0.250000
O O12 0.570365 0.502670 0.191181
O O13 0.748303 0.641783 0.165031
O O14 0.365172 0.625099 0.481642
O O15 0.584547 0.584547 0.625000
O O16 0.871512 0.733666 0.086941
O O17 0.000000 0.653435 0.000000
#
# Coordination Sequence:
#
# PCOD9550625 Si02
#       8
#     8   8   8   8   8   8   8   4
#     4  10  25  42  62 100 132 175 230 266 339 417
#     4  11  23  41  63  97 129 169 222 279 336 392
#     4  11  22  39  63 100 128 173 226 262 333 405
#     4  11  25  38  63  95 143 178 208 273 345 409
#     4  12  23  39  68  92 137 175 212 284 334 406
#     4  12  23  37  60 102 139 170 215 272 347 412
#     4  10  23  42  68  94 135 180 224 270 328 412
#     4  10  24  44  60 102 134 172 234 274 320 406
#
# _framework density 20.23563
#
# number of rings (size 3 to 8) (size 9 to 14) (size 15 to 20)
#    0.000    1.067    4.667    1.200    9.333    3.200 
#    0.000    0.000    1.467    0.000    3.467    0.000 
#    0.000    0.000    0.000    0.000    0.000    0.000 
#
# Total GULP energy -334864.858823 kJ/mol
# GULP energy per Si atom -5581.080980 kJ/mol
# Density = 2.018957 g / cm^3
# Si number density = 20.235630 Si / 1000 Ang^3
#
#
#
# Elastic Constant Matrix: (Units=GPa)
#
#
# Indices 1 2 3 4 5 6 
#
# 1 82.1074 39.8575 41.0922 0.0000 0.0000 0.0000
# 2 39.8575 82.1077 41.0928 0.0000 0.0000 0.0000
# 3 41.0922 41.0928 126.5124 0.0000 0.0000 0.0000
# 4 0.0000 0.0000 0.0000 28.9878 0.0000 0.0000
# 5 0.0000 0.0000 0.0000 0.0000 28.9880 0.0000
# 6 0.0000 0.0000 0.0000 0.0000 0.0000 22.2680
#
#
#
# Elastic Compliance Matrix: (Units=1/GPa)
#
#
# Indices 1 2 3 4 5 6 
#
# 1 0.017083 -0.006586 -0.003409 0.000000 0.000000 0.000000
# 2 -0.006586 0.017083 -0.003409 0.000000 0.000000 0.000000
# 3 -0.003409 -0.003409 0.010119 0.000000 0.000000 0.000000
# 4 0.000000 0.000000 0.000000 0.034497 0.000000 0.000000
# 5 0.000000 0.000000 0.000000 0.000000 0.034497 0.000000
# 6 0.000000 0.000000 0.000000 0.000000 0.000000 0.044907
#
#
# Mechanical properties :
#
#
# Convention : Reuss Voigt Hill
#
# Bulk Modulus (GPa) = 57.22587 59.42361 58.32474
# Shear Modulus (GPa) = 26.20266 27.29444 26.74855
#
# Velocity S-wave (km/s) = 3.60234 3.67663 3.63968
# Velocity P-wave (km/s) = 6.75601 6.88862 6.82264
#
# Compressibility (1/GPa) = 0.01747461
#
# Stress axis : x y z
#
# Youngs Moduli (GPa) = 58.53940 58.53938 98.82262
#
# Poissons Ratio (x) = 0.38555 0.33692
# Poissons Ratio (y) = 0.38555 0.33693
# Poissons Ratio (z) = 0.19958 0.19958
#
# Static dielectric constant tensor:
#      x y z
#    x 1.764000 0.000000 0.000000 
#    y 0.000000 1.764000 0.000000 
#    z 0.000000 0.000000 1.753490 
# 
# From -- ./inp_files/6500.got.cif
#   From: 2010.05.17/outbox.cif.g08.bks.cpg/sg95_4_cif.got.tgz:6500.got - 2010.06.03 19:46:49.
