data_PCOD9550499
_publ_section_title
;
Structure prediction by ZEFSAII (Michael W. Deem and Ramdas Pophale) SiO2 
 PCOD9550499
Probable space group: P 43 2 2
;
_chemical_formula_sum "Si O2"
_cell_formula_units_Z 48
_cell_length_a 13.465111
_cell_length_b 13.465111
_cell_length_c 13.820487
_cell_angle_alpha 90.000000
_cell_angle_beta 90.000000
_cell_angle_gamma 90.000000
_cell_volume 2505.781638
_symmetry_space_group_name_H-M "P 43 2 2"
_symmetry_group_IT_number 95
_symmetry_cell_setting 'tetragonal'
loop_
_space_group_symop_operation_xyz
x,y,z
-y,x,3/4+z
-x,-y,1/2+z
y,-x,1/4+z
x,-y,1/2-z
-x,y,-z
y,x,1/4-z
-y,-x,3/4-z
loop_
_atom_site_type_symbol
_atom_site_label
_atom_site_fract_x
_atom_site_fract_y
_atom_site_fract_z
Si Si1 0.733145 0.212727 0.484693
Si Si2 0.985617 0.387718 0.240690
Si Si3 0.908532 0.338679 0.562173
Si Si4 0.603195 0.382844 0.552978
Si Si5 0.571591 0.900231 0.699307
Si Si6 0.316504 0.593054 0.475099
O O1 0.776302 0.223699 0.375000
O O2 0.691381 0.104833 0.515892
O O3 0.816447 0.265190 0.551338
O O4 0.639962 0.286269 0.496228
O O5 0.940797 0.500000 0.250000
O O6 0.048206 0.353635 0.332333
O O7 0.070090 0.404994 0.160093
O O8 0.889914 0.453236 0.528506
O O9 0.000000 0.298051 0.500000
O O10 0.500000 0.411363 0.500000
O O11 0.674994 0.475223 0.538025
O O12 0.607732 0.364150 0.668757
O O13 0.622276 0.798728 0.730048
O O14 0.607297 0.000000 0.750000
O O15 0.362310 0.637691 0.375000
#
# Coordination Sequence:
#
# PCOD9550499 Si02
#       6
#     8   8   8   8   8   8
#     4  12  22  36  64  96 126 169 216 271 342 395
#     4  10  22  38  62  92 129 168 211 275 329 390
#     4  10  20  37  61  92 127 156 215 269 323 388
#     4  12  25  39  60  91 137 175 219 269 327 399
#     4  10  22  41  61  86 125 168 219 271 310 383
#     4  12  25  41  62  91 130 180 221 261 328 405
#
# _framework density 19.1557
#
# number of rings (size 3 to 8) (size 9 to 14) (size 15 to 20)
#    0.000    1.000    3.333    4.500    2.333    1.333 
#    0.000    0.000    0.000    0.000    4.333    0.000 
#    0.000    0.000    0.000    0.000    0.000    0.000 
#
# Total GULP energy -267400.207683 kJ/mol
# GULP energy per Si atom -5570.837660 kJ/mol
# Density = 1.911210 g / cm^3
# Si number density = 19.155700 Si / 1000 Ang^3
#
#
#
# Elastic Constant Matrix: (Units=GPa)
#
#
# Indices 1 2 3 4 5 6 
#
# 1 65.4452 11.4532 21.2311 0.0000 0.0000 0.0000
# 2 11.4532 65.4460 21.2313 0.0000 0.0000 0.0000
# 3 21.2311 21.2313 78.8117 0.0000 0.0000 0.0000
# 4 0.0000 0.0000 0.0000 -0.7010 0.0000 0.0000
# 5 0.0000 0.0000 0.0000 0.0000 -0.7011 0.0000
# 6 0.0000 0.0000 0.0000 0.0000 0.0000 14.9006
#
#
#
# Elastic Compliance Matrix: (Units=1/GPa)
#
#
# Indices 1 2 3 4 5 6 
#
# 1 0.016899 -0.001622 -0.004115 0.000000 0.000000 0.000000
# 2 -0.001622 0.016899 -0.004115 0.000000 0.000000 0.000000
# 3 -0.004115 -0.004115 0.014906 0.000000 0.000000 0.000000
# 4 0.000000 0.000000 0.000000 -1.426483 0.000000 0.000000
# 5 0.000000 0.000000 0.000000 0.000000 -1.426364 0.000000
# 6 0.000000 0.000000 0.000000 0.000000 0.000000 0.067111
#
#
# Mechanical properties :
#
#
# Convention : Reuss Voigt Hill
#
# Bulk Modulus (GPa) = 34.48586 35.28155 34.88371
# Shear Modulus (GPa) = -1.84661 13.08553 5.61946
#
# Velocity S-wave (km/s) = -0.98290 2.61648 1.71462
# Velocity P-wave (km/s) = 4.09315 5.25226 4.70851
#
# Compressibility (1/GPa) = 0.02899739
#
# Stress axis : x y z
#
# Youngs Moduli (GPa) = 59.17531 59.17608 67.08812
#
# Poissons Ratio (x) = 0.09600 0.27609
# Poissons Ratio (y) = 0.09600 0.27609
# Poissons Ratio (z) = 0.24353 0.24353
#
# Static dielectric constant tensor:
#      x y z
#    x 1.685860 0.000000 0.000000 
#    y 0.000000 1.685860 0.000000 
#    z 0.000000 0.000000 1.782970 
# 
# From -- ./inp_files/3878.got.cif
#   From: 2010.05.17/outbox.cif.g08.bks.cpg/sg95_2_cif.got.tgz:3878.got - 2010.06.03 19:46:49.
