data_PCOD9550028
_publ_section_title
;
Structure prediction by ZEFSAII (Michael W. Deem and Ramdas Pophale) SiO2 
 PCOD9550028
Probable space group: P 42 21 2
;
_chemical_formula_sum "Si O2"
_cell_formula_units_Z 40
_cell_length_a 8.705215
_cell_length_b 8.705215
_cell_length_c 22.525826
_cell_angle_alpha 90.000000
_cell_angle_beta 90.000000
_cell_angle_gamma 90.000000
_cell_volume 1707.024399
_symmetry_space_group_name_H-M "P 42 21 2"
_symmetry_group_IT_number 94
_symmetry_cell_setting 'tetragonal'
loop_
_space_group_symop_operation_xyz
x,y,z
1/2-y,1/2+x,1/2+z
-x,-y,z
1/2+y,1/2-x,1/2+z
1/2+x,1/2-y,1/2-z
1/2-x,1/2+y,1/2-z
y,x,-z
-y,-x,-z
loop_
_atom_site_type_symbol
_atom_site_label
_atom_site_fract_x
_atom_site_fract_y
_atom_site_fract_z
Si Si1 0.079474 0.277320 0.125754
Si Si2 0.789993 0.735750 0.564452
Si Si3 0.289271 0.531054 0.176881
Si Si4 0.844244 0.160904 0.219877
Si Si5 0.517988 0.182229 0.621199
O O1 0.146047 0.427717 0.156410
O O2 0.947768 0.314799 0.076729
O O3 0.989269 0.182789 0.176897
O O4 0.227628 0.175575 0.107742
O O5 0.807748 0.807748 0.500000
O O6 0.609761 0.750422 0.577501
O O7 0.884986 0.829858 0.614723
O O8 0.238601 0.674440 0.217523
O O9 0.380669 0.404368 0.215392
O O10 0.730628 0.044256 0.186208
O O11 0.500000 0.000000 0.616262
#
# Coordination Sequence:
#
# PCOD9550028 Si02
#       5
#     8   8   8   8   8
#     4  10  21  40  65  97 134 177 223 274 342 412
#     4  10  22  42  65  93 129 176 231 280 329 400
#     4  10  21  38  66 100 133 171 219 280 344 405
#     4  10  20  37  60  91 134 174 212 264 336 417
#     4  10  22  38  61  96 132 169 217 271 328 392
#
# _framework density 23.432587000000002
#
# number of rings (size 3 to 8) (size 9 to 14) (size 15 to 20)
#    0.000    2.400    0.000    6.000    0.000    8.000 
#    0.000   14.000    0.000    1.200    0.000    0.000 
#    0.000    0.000    0.000    0.800    0.000    0.000 
#
# Total GULP energy -222990.182810 kJ/mol
# GULP energy per Si atom -5574.754570 kJ/mol
# Density = 2.337925 g / cm^3
# Si number density = 23.432587 Si / 1000 Ang^3
#
#
#
# Elastic Constant Matrix: (Units=GPa)
#
#
# Indices 1 2 3 4 5 6 
#
# 1 78.7479 10.3407 19.4869 0.0000 0.0000 0.0000
# 2 10.3407 78.7479 19.4869 0.0000 0.0000 0.0000
# 3 19.4869 19.4869 137.5593 0.0000 0.0000 0.0000
# 4 0.0000 0.0000 0.0000 16.8933 0.0000 0.0000
# 5 0.0000 0.0000 0.0000 0.0000 16.8933 0.0000
# 6 0.0000 0.0000 0.0000 0.0000 0.0000 40.4055
#
#
#
# Elastic Compliance Matrix: (Units=1/GPa)
#
#
# Indices 1 2 3 4 5 6 
#
# 1 0.013292 -0.001326 -0.001695 0.000000 0.000000 0.000000
# 2 -0.001326 0.013292 -0.001695 0.000000 0.000000 0.000000
# 3 -0.001695 -0.001695 0.007750 0.000000 0.000000 0.000000
# 4 0.000000 0.000000 0.000000 0.059195 0.000000 0.000000
# 5 0.000000 0.000000 0.000000 0.000000 0.059195 0.000000
# 6 0.000000 0.000000 0.000000 0.000000 0.000000 0.024749
#
#
# Mechanical properties :
#
#
# Convention : Reuss Voigt Hill
#
# Bulk Modulus (GPa) = 40.15755 43.74268 41.95011
# Shear Modulus (GPa) = 25.61382 31.22112 28.41747
#
# Velocity S-wave (km/s) = 3.30977 3.65414 3.48621
# Velocity P-wave (km/s) = 5.63745 6.04248 5.84348
#
# Compressibility (1/GPa) = 0.02490192
#
# Stress axis : x y z
#
# Youngs Moduli (GPa) = 75.23117 75.23117 129.03433
#
# Poissons Ratio (x) = 0.09975 0.21874
# Poissons Ratio (y) = 0.09975 0.21874
# Poissons Ratio (z) = 0.12753 0.12753
#
# Static dielectric constant tensor:
#      x y z
#    x 1.970940 0.000000 0.000000 
#    y 0.000000 1.970940 0.000000 
#    z 0.000000 0.000000 1.939260 
# 
# From -- ./inp_files/4971.got.cif
#   From: 2010.05.17/outbox.cif.g08.bks.cpg/sg94_3_cif.got.tgz:4971.got - 2010.06.03 19:43:16.
