data_PCOD9550546
_publ_section_title
;
Structure prediction by ZEFSAII (Michael W. Deem and Ramdas Pophale) SiO2 
 PCOD9550546
Probable space group: P 43 2 2
;
_chemical_formula_sum "Si O2"
_cell_formula_units_Z 48
_cell_length_a 14.225040
_cell_length_b 14.225040
_cell_length_c 11.173818
_cell_angle_alpha 90.000000
_cell_angle_beta 90.000000
_cell_angle_gamma 90.000000
_cell_volume 2261.041772
_symmetry_space_group_name_H-M "P 43 2 2"
_symmetry_group_IT_number 95
_symmetry_cell_setting 'tetragonal'
loop_
_space_group_symop_operation_xyz
x,y,z
-y,x,3/4+z
-x,-y,1/2+z
y,-x,1/4+z
x,-y,1/2-z
-x,y,-z
y,x,1/4-z
-y,-x,3/4-z
loop_
_atom_site_type_symbol
_atom_site_label
_atom_site_fract_x
_atom_site_fract_y
_atom_site_fract_z
Si Si1 0.883068 0.754241 0.710132
Si Si2 0.000000 0.485111 0.000000
Si Si3 0.023167 0.000000 0.750000
Si Si4 0.802544 0.652838 0.090182
Si Si5 0.858904 0.171662 0.557124
Si Si6 0.572719 0.836548 0.396723
Si Si7 0.084453 0.340330 0.827400
O O1 0.813588 0.813588 0.625000
O O2 0.913642 0.820111 0.818951
O O3 0.830537 0.671220 0.783202
O O4 0.978031 0.702604 0.667746
O O5 0.941547 0.544833 0.901632
O O6 0.075017 0.419930 0.928460
O O7 0.089968 0.910149 0.759865
O O8 0.974552 0.025449 0.875000
O O9 0.706048 0.706048 0.125000
O O10 0.867217 0.622519 0.203114
O O11 0.861482 0.736198 0.024828
O O12 0.784449 0.580919 0.981259
O O13 0.752245 0.148093 0.594945
O O14 0.500000 0.808990 0.500000
#
# Coordination Sequence:
#
# PCOD9550546 Si02
#       7
#     8   4   4   8   8   8   8
#     4  11  22  37  56  84 121 164 204 259 320 370
#     4  12  24  36  58  94 126 172 216 266 333 395
#     4  12  24  36  50  74 108 158 234 278 315 339
#     4   9  20  39  62  83 118 171 211 256 312 383
#     4  10  21  36  56  78 114 169 220 270 307 361
#     4  11  23  39  59  89 124 164 208 257 318 395
#     4  11  21  37  57  86 123 170 219 263 319 374
#
# _framework density 21.229153
#
# number of rings (size 3 to 8) (size 9 to 14) (size 15 to 20)
#    0.000    1.333    1.667    5.500    0.000    6.000 
#    0.000    0.000    0.000    0.000    0.000    0.000 
#    0.000    1.333    0.000    0.000    0.000    0.000 
#
# Total GULP energy -267238.225651 kJ/mol
# GULP energy per Si atom -5567.463034 kJ/mol
# Density = 2.118083 g / cm^3
# Si number density = 21.229153 Si / 1000 Ang^3
#
#
#
# Elastic Constant Matrix: (Units=GPa)
#
#
# Indices 1 2 3 4 5 6 
#
# 1 60.7224 25.1266 46.1485 0.0000 0.0000 0.0000
# 2 25.1266 60.7219 46.1484 0.0000 0.0000 0.0000
# 3 46.1485 46.1484 154.0962 0.0000 0.0000 0.0000
# 4 0.0000 0.0000 0.0000 40.9201 0.0000 0.0000
# 5 0.0000 0.0000 0.0000 0.0000 40.9203 0.0000
# 6 0.0000 0.0000 0.0000 0.0000 0.0000 9.2336
#
#
#
# Elastic Compliance Matrix: (Units=1/GPa)
#
#
# Indices 1 2 3 4 5 6 
#
# 1 0.022636 -0.005457 -0.005145 0.000000 0.000000 0.000000
# 2 -0.005457 0.022637 -0.005145 0.000000 0.000000 0.000000
# 3 -0.005145 -0.005145 0.009571 0.000000 0.000000 0.000000
# 4 0.000000 0.000000 0.000000 0.024438 0.000000 0.000000
# 5 0.000000 0.000000 0.000000 0.000000 0.024438 0.000000
# 6 0.000000 0.000000 0.000000 0.000000 0.000000 0.108300
#
#
# Mechanical properties :
#
#
# Convention : Reuss Voigt Hill
#
# Bulk Modulus (GPa) = 42.82512 56.70971 49.76742
# Shear Modulus (GPa) = 19.89680 28.75596 24.32638
#
# Velocity S-wave (km/s) = 3.06476 3.68441 3.38878
# Velocity P-wave (km/s) = 5.72191 6.69858 6.22942
#
# Compressibility (1/GPa) = 0.02335078
#
# Stress axis : x y z
#
# Youngs Moduli (GPa) = 44.17648 44.17606 104.48164
#
# Poissons Ratio (x) = 0.24106 0.53755
# Poissons Ratio (y) = 0.24106 0.53756
# Poissons Ratio (z) = 0.22729 0.22729
#
# Static dielectric constant tensor:
#      x y z
#    x 1.879980 0.000000 0.000000 
#    y 0.000000 1.879990 0.000000 
#    z 0.000000 0.000000 1.911830 
# 
# From -- ./inp_files/3933.got.cif
#   From: 2010.05.17/outbox.cif.g08.bks.cpg/sg95_2_cif.got.tgz:3933.got - 2010.06.03 19:46:49.
