data_PCOD9550088
_publ_section_title
;
Structure prediction by ZEFSAII (Michael W. Deem and Ramdas Pophale) SiO2 
 PCOD9550088
Probable space group: P 42 21 2
;
_chemical_formula_sum "Si O2"
_cell_formula_units_Z 40
_cell_length_a 11.638711
_cell_length_b 11.638711
_cell_length_c 14.777532
_cell_angle_alpha 90.000000
_cell_angle_beta 90.000000
_cell_angle_gamma 90.000000
_cell_volume 2001.758481
_symmetry_space_group_name_H-M "P 42 21 2"
_symmetry_group_IT_number 94
_symmetry_cell_setting 'tetragonal'
loop_
_space_group_symop_operation_xyz
x,y,z
1/2-y,1/2+x,1/2+z
-x,-y,z
1/2+y,1/2-x,1/2+z
1/2+x,1/2-y,1/2-z
1/2-x,1/2+y,1/2-z
y,x,-z
-y,-x,-z
loop_
_atom_site_type_symbol
_atom_site_label
_atom_site_fract_x
_atom_site_fract_y
_atom_site_fract_z
Si Si1 0.204587 0.302248 0.619809
Si Si2 0.452618 0.218552 0.680769
Si Si3 0.099766 0.085741 0.302995
Si Si4 0.497803 0.862698 0.493497
Si Si5 0.680575 0.965875 0.796923
O O1 0.334654 0.278262 0.646975
O O2 0.136552 0.183840 0.621108
O O3 0.183767 0.374233 0.529477
O O4 0.158058 0.397239 0.693421
O O5 0.517327 0.313791 0.738131
O O6 0.527522 0.181121 0.593656
O O7 0.408051 0.109313 0.739045
O O8 0.051212 0.195101 0.247855
O O9 0.000000 0.000000 0.333043
O O10 0.428528 0.822796 0.403652
O O11 0.500000 0.000000 0.492826
#
# Coordination Sequence:
#
# PCOD9550088 Si02
#       5
#     8   8   8   8   8
#     4   9  21  38  56  84 124 151 204 253 300 375
#     4  11  21  36  64  85 118 164 202 247 321 357
#     4  11  20  36  61  88 118 159 202 256 309 364
#     4  10  21  36  58  87 117 157 200 252 302 371
#     4   9  22  39  56  90 116 156 209 248 305 371
#
# _framework density 19.982430999999998
#
# number of rings (size 3 to 8) (size 9 to 14) (size 15 to 20)
#    1.200    0.800    2.000    1.800    2.800    0.800 
#    0.000    1.000    0.000    9.600    0.000    0.000 
#    0.000    0.000    0.000    0.000    0.000    0.000 
#
# Total GULP energy -222780.522892 kJ/mol
# GULP energy per Si atom -5569.513072 kJ/mol
# Density = 1.993695 g / cm^3
# Si number density = 19.982431 Si / 1000 Ang^3
#
#
#
# Elastic Constant Matrix: (Units=GPa)
#
#
# Indices 1 2 3 4 5 6 
#
# 1 68.0906 3.6633 -1.6764 0.0000 0.0000 0.0000
# 2 3.6633 68.0906 -1.6764 0.0000 0.0000 0.0000
# 3 -1.6764 -1.6764 65.8017 0.0000 0.0000 0.0000
# 4 0.0000 0.0000 0.0000 5.2921 0.0000 0.0000
# 5 0.0000 0.0000 0.0000 0.0000 5.2921 0.0000
# 6 0.0000 0.0000 0.0000 0.0000 0.0000 27.7279
#
#
#
# Elastic Compliance Matrix: (Units=1/GPa)
#
#
# Indices 1 2 3 4 5 6 
#
# 1 0.014737 -0.000784 0.000355 0.000000 0.000000 0.000000
# 2 -0.000784 0.014737 0.000355 0.000000 0.000000 0.000000
# 3 0.000355 0.000355 0.015215 0.000000 0.000000 0.000000
# 4 0.000000 0.000000 0.000000 0.188960 0.000000 0.000000
# 5 0.000000 0.000000 0.000000 0.000000 0.188960 0.000000
# 6 0.000000 0.000000 0.000000 0.000000 0.000000 0.036065
#
#
# Mechanical properties :
#
#
# Convention : Reuss Voigt Hill
#
# Bulk Modulus (GPa) = 22.44996 22.51152 22.48074
# Shear Modulus (GPa) = 10.55592 21.10727 15.83159
#
# Velocity S-wave (km/s) = 2.30088 3.25359 2.81779
# Velocity P-wave (km/s) = 4.27995 5.04029 4.67561
#
# Compressibility (1/GPa) = 0.04454351
#
# Stress axis : x y z
#
# Youngs Moduli (GPa) = 67.85521 67.85521 65.72337
#
# Poissons Ratio (x) = 0.05321 -0.02336
# Poissons Ratio (y) = 0.05321 -0.02336
# Poissons Ratio (z) = -0.02412 -0.02412
#
# Static dielectric constant tensor:
#      x y z
#    x 1.702290 0.000000 0.000000 
#    y 0.000000 1.702290 0.000000 
#    z 0.000000 0.000000 1.739610 
# 
# From -- ./inp_files/3401.got.cif
#   From: 2010.05.17/outbox.cif.g08.bks.cpg/sg94_2_cif.got.tgz:3401.got - 2010.06.03 19:43:16.
