data_PCOD9550303
_publ_section_title
;
Structure prediction by ZEFSAII (Michael W. Deem and Ramdas Pophale) SiO2 
 PCOD9550303
Probable space group: P 42 21 2
;
_chemical_formula_sum "Si O2"
_cell_formula_units_Z 48
_cell_length_a 8.982714
_cell_length_b 8.982714
_cell_length_c 28.561156
_cell_angle_alpha 90.000000
_cell_angle_beta 90.000000
_cell_angle_gamma 90.000000
_cell_volume 2304.575424
_symmetry_space_group_name_H-M "P 42 21 2"
_symmetry_group_IT_number 94
_symmetry_cell_setting 'tetragonal'
loop_
_space_group_symop_operation_xyz
x,y,z
1/2-y,1/2+x,1/2+z
-x,-y,z
1/2+y,1/2-x,1/2+z
1/2+x,1/2-y,1/2-z
1/2-x,1/2+y,1/2-z
y,x,-z
-y,-x,-z
loop_
_atom_site_type_symbol
_atom_site_label
_atom_site_fract_x
_atom_site_fract_y
_atom_site_fract_z
Si Si1 0.793605 0.334528 0.451234
Si Si2 0.074911 0.835055 0.208185
Si Si3 0.165155 0.563712 0.796104
Si Si4 0.310931 0.259091 0.549414
Si Si5 0.525481 0.324329 0.391361
Si Si6 0.174288 0.031633 0.607068
O O1 0.733892 0.266109 0.500000
O O2 0.788804 0.515237 0.451804
O O3 0.690700 0.288867 0.406959
O O4 0.947820 0.264251 0.434555
O O5 0.255533 0.841374 0.207995
O O6 0.023296 0.762710 0.158612
O O7 0.009884 0.738530 0.250517
O O8 0.000000 0.000000 0.212915
O O9 0.259450 0.512054 0.841413
O O10 0.000000 0.500000 0.802406
O O11 0.234023 0.234023 0.500000
O O12 0.301518 0.433856 0.560847
O O13 0.218027 0.197659 0.592680
O O14 0.500000 0.500000 0.383880
O O15 0.000000 0.000000 0.605158
#
# Coordination Sequence:
#
# PCOD9550303 Si02
#       6
#     8   8   8   8   8   8
#     4  11  23  41  69 103 133 186 233 285 339 412
#     4  11  24  45  73 106 143 178 232 291 354 419
#     4  12  26  47  76 103 136 188 234 290 356 421
#     4  11  21  42  70  98 137 180 232 285 338 411
#     4   9  20  39  69 101 133 172 230 286 335 399
#     4  12  29  46  65  97 147 185 229 283 353 410
#
# _framework density 20.828133000000001
#
# number of rings (size 3 to 8) (size 9 to 14) (size 15 to 20)
#    0.000    1.000    3.333    3.000    9.333    0.000 
#    0.000    0.833    0.000    0.000    0.000    0.000 
#    0.000    0.000    0.000    0.000    0.000    0.000 
#
# Total GULP energy -267622.241827 kJ/mol
# GULP energy per Si atom -5575.463371 kJ/mol
# Density = 2.078073 g / cm^3
# Si number density = 20.828133 Si / 1000 Ang^3
#
#
#
# Elastic Constant Matrix: (Units=GPa)
#
#
# Indices 1 2 3 4 5 6 
#
# 1 74.6457 23.9089 31.2544 0.0000 0.0000 0.0000
# 2 23.9089 74.6454 31.2541 0.0000 0.0000 0.0000
# 3 31.2544 31.2541 153.7443 0.0000 0.0000 0.0000
# 4 0.0000 0.0000 0.0000 53.5505 0.0000 0.0000
# 5 0.0000 0.0000 0.0000 0.0000 53.5506 0.0000
# 6 0.0000 0.0000 0.0000 0.0000 0.0000 22.4219
#
#
#
# Elastic Compliance Matrix: (Units=1/GPa)
#
#
# Indices 1 2 3 4 5 6 
#
# 1 0.015679 -0.004031 -0.002368 0.000000 0.000000 0.000000
# 2 -0.004031 0.015679 -0.002368 0.000000 0.000000 0.000000
# 3 -0.002368 -0.002368 0.007467 0.000000 0.000000 0.000000
# 4 0.000000 0.000000 0.000000 0.018674 0.000000 0.000000
# 5 0.000000 0.000000 0.000000 0.000000 0.018674 0.000000
# 6 0.000000 0.000000 0.000000 0.000000 0.000000 0.044599
#
#
# Mechanical properties :
#
#
# Convention : Reuss Voigt Hill
#
# Bulk Modulus (GPa) = 46.96550 52.87447 49.91999
# Shear Modulus (GPa) = 34.38719 40.34580 37.36649
#
# Velocity S-wave (km/s) = 4.06765 4.40600 4.24021
# Velocity P-wave (km/s) = 6.68275 7.16415 6.92763
#
# Compressibility (1/GPa) = 0.02129222
#
# Stress axis : x y z
#
# Youngs Moduli (GPa) = 63.77919 63.77904 133.92123
#
# Poissons Ratio (x) = 0.25706 0.31713
# Poissons Ratio (y) = 0.25706 0.31713
# Poissons Ratio (z) = 0.15103 0.15103
#
# Static dielectric constant tensor:
#      x y z
#    x 1.746690 0.000000 0.000000 
#    y 0.000000 1.746690 0.000000 
#    z 0.000000 0.000000 1.729710 
# 
# From -- ./inp_files/5556.got.cif
#   From: 2010.05.17/outbox.cif.g08.bks.cpg/sg94_3_cif.got.tgz:5556.got - 2010.06.03 19:43:16.
