data_PCOD9550495
_publ_section_title
;
Structure prediction by ZEFSAII (Michael W. Deem and Ramdas Pophale) SiO2 
 PCOD9550495
Probable space group: P 43 2 2
;
_chemical_formula_sum "Si O2"
_cell_formula_units_Z 40
_cell_length_a 18.888596
_cell_length_b 18.888596
_cell_length_c 5.063711
_cell_angle_alpha 90.000000
_cell_angle_beta 90.000000
_cell_angle_gamma 90.000000
_cell_volume 1806.626045
_symmetry_space_group_name_H-M "P 43 2 2"
_symmetry_group_IT_number 95
_symmetry_cell_setting 'tetragonal'
loop_
_space_group_symop_operation_xyz
x,y,z
-y,x,3/4+z
-x,-y,1/2+z
y,-x,1/4+z
x,-y,1/2-z
-x,y,-z
y,x,1/4-z
-y,-x,3/4-z
loop_
_atom_site_type_symbol
_atom_site_label
_atom_site_fract_x
_atom_site_fract_y
_atom_site_fract_z
Si Si1 0.583713 0.000000 0.250000
Si Si2 0.076582 0.923419 0.375000
Si Si3 0.345322 0.345322 0.125000
Si Si4 0.822961 0.650483 0.699789
Si Si5 0.000000 0.821539 0.000000
Si Si6 0.500000 0.881919 0.500000
Si Si7 0.579852 0.420149 0.375000
Si Si8 0.302039 0.910668 0.972465
O O1 0.533140 0.065499 0.209994
O O2 0.637774 0.028068 0.471101
O O3 0.134644 0.937089 0.602834
O O4 0.000000 0.918521 0.500000
O O5 0.260512 0.350101 0.155388
O O6 0.374497 0.390107 0.376971
O O7 0.840569 0.567790 0.653349
O O8 0.863332 0.695910 0.480307
O O9 0.857808 0.677376 0.976757
O O10 0.045433 0.769794 0.811687
O O11 0.586094 0.500000 0.250000
#
# Coordination Sequence:
#
# PCOD9550495 Si02
#       8
#     4   4   4   8   4   4   4   8
#     4   9  18  36  64 102 137 174 234 294 327 420
#     4  12  24  49  66 105 135 172 259 328 382 448
#     4  12  27  49  72 110 154 190 238 314 356 452
#     4  11  25  45  67 107 149 191 242 289 362 455
#     4  11  26  44  78 100 143 196 246 328 383 444
#     4  10  20  36  72  98 140 188 234 290 362 404
#     4  12  27  50  84 111 145 190 255 304 370 424
#     4  10  24  44  69 103 145 191 240 290 372 446
#
# _framework density 22.140718
#
# number of rings (size 3 to 8) (size 9 to 14) (size 15 to 20)
#    0.000    1.200    1.000    3.600    5.600    8.800 
#    3.600    0.000    0.000    0.000    0.000    0.000 
#    0.000    0.000    0.000    0.000    0.000    0.000 
#
# Total GULP energy -222844.855709 kJ/mol
# GULP energy per Si atom -5571.121393 kJ/mol
# Density = 2.209033 g / cm^3
# Si number density = 22.140718 Si / 1000 Ang^3
#
#
#
# Elastic Constant Matrix: (Units=GPa)
#
#
# Indices 1 2 3 4 5 6 
#
# 1 159.7968 66.3150 43.8283 0.0000 0.0000 0.0000
# 2 66.3150 159.7994 43.8288 0.0000 0.0000 0.0000
# 3 43.8283 43.8288 135.4560 0.0000 0.0000 0.0000
# 4 0.0000 0.0000 0.0000 25.1185 0.0000 0.0000
# 5 0.0000 0.0000 0.0000 0.0000 25.1183 0.0000
# 6 0.0000 0.0000 0.0000 0.0000 0.0000 19.6787
#
#
#
# Elastic Compliance Matrix: (Units=1/GPa)
#
#
# Indices 1 2 3 4 5 6 
#
# 1 0.007877 -0.002820 -0.001636 0.000000 0.000000 0.000000
# 2 -0.002820 0.007877 -0.001636 0.000000 0.000000 0.000000
# 3 -0.001636 -0.001636 0.008441 0.000000 0.000000 0.000000
# 4 0.000000 0.000000 0.000000 0.039811 0.000000 0.000000
# 5 0.000000 0.000000 0.000000 0.000000 0.039812 0.000000
# 6 0.000000 0.000000 0.000000 0.000000 0.000000 0.050816
#
#
# Mechanical properties :
#
#
# Convention : Reuss Voigt Hill
#
# Bulk Modulus (GPa) = 83.26263 84.77738 84.02001
# Shear Modulus (GPa) = 29.27005 34.05511 31.66258
#
# Velocity S-wave (km/s) = 3.63988 3.92614 3.78572
# Velocity P-wave (km/s) = 7.43994 7.67634 7.55906
#
# Compressibility (1/GPa) = 0.01201019
#
# Stress axis : x y z
#
# Youngs Moduli (GPa) = 126.95085 126.95294 118.46502
#
# Poissons Ratio (x) = 0.35802 0.19384
# Poissons Ratio (y) = 0.35802 0.19383
# Poissons Ratio (z) = 0.20772 0.20772
#
# Static dielectric constant tensor:
#      x y z
#    x 1.857620 0.000000 0.000000 
#    y 0.000000 1.857610 0.000000 
#    z 0.000000 0.000000 1.765170 
# 
# From -- ./inp_files/965.got.cif
#   From: 2010.05.17/outbox.cif.g08.bks.cpg/sg95_1_cif.got.tgz:965.got - 2010.06.03 19:46:49.
