data_PCOD9550588
_publ_section_title
;
Structure prediction by ZEFSAII (Michael W. Deem and Ramdas Pophale) SiO2 
 PCOD9550588
Probable space group: P 43 2 2
;
_chemical_formula_sum "Si O2"
_cell_formula_units_Z 28
_cell_length_a 7.720839
_cell_length_b 7.720839
_cell_length_c 21.669067
_cell_angle_alpha 90.000000
_cell_angle_beta 90.000000
_cell_angle_gamma 90.000000
_cell_volume 1291.722443
_symmetry_space_group_name_H-M "P 43 2 2"
_symmetry_group_IT_number 95
_symmetry_cell_setting 'tetragonal'
loop_
_space_group_symop_operation_xyz
x,y,z
-y,x,3/4+z
-x,-y,1/2+z
y,-x,1/4+z
x,-y,1/2-z
-x,y,-z
y,x,1/4-z
-y,-x,3/4-z
loop_
_atom_site_type_symbol
_atom_site_label
_atom_site_fract_x
_atom_site_fract_y
_atom_site_fract_z
Si Si1 0.998448 0.998448 0.625000
Si Si2 0.590411 0.590411 0.125000
Si Si3 0.618212 0.024133 0.409063
Si Si4 0.715825 0.103709 0.964945
Si Si5 0.409496 0.500000 0.250000
O O1 0.919557 0.898340 0.683296
O O2 0.963056 0.204971 0.626206
O O3 0.796248 0.566127 0.128610
O O4 0.515054 0.511091 0.187263
O O5 0.441123 0.915620 0.415032
O O6 0.683083 0.036228 0.480703
O O7 0.669286 0.285682 0.996367
#
# Coordination Sequence:
#
# PCOD9550588 Si02
#       5
#     4   4   8   8   4
#     4  11  21  40  68  88 135 175 216 282 336 391
#     4  11  21  42  66  96 129 179 216 288 336 419
#     4   9  22  39  62  91 128 172 216 272 336 393
#     4  10  22  40  61  95 131 170 222 280 326 414
#     4  10  22  38  68 100 132 172 234 272 358 402
#
# _framework density 21.676486000000001
#
# number of rings (size 3 to 8) (size 9 to 14) (size 15 to 20)
#    0.000    2.286    0.000    3.429    8.000    0.000 
#    5.143    0.000    0.000    0.000    0.000    0.000 
#    0.000    0.000    0.000    0.000    0.000    0.000 
#
# Total GULP energy -156109.288775 kJ/mol
# GULP energy per Si atom -5575.331742 kJ/mol
# Density = 2.162715 g / cm^3
# Si number density = 21.676486 Si / 1000 Ang^3
#
#
#
# Elastic Constant Matrix: (Units=GPa)
#
#
# Indices 1 2 3 4 5 6 
#
# 1 41.0035 29.9032 16.1472 0.0000 0.0000 0.0000
# 2 29.9032 41.0035 16.1472 0.0000 0.0000 0.0000
# 3 16.1472 16.1472 94.6035 0.0000 0.0000 0.0000
# 4 0.0000 0.0000 0.0000 27.5592 0.0000 0.0000
# 5 0.0000 0.0000 0.0000 0.0000 27.5592 0.0000
# 6 0.0000 0.0000 0.0000 0.0000 0.0000 13.2352
#
#
#
# Elastic Compliance Matrix: (Units=1/GPa)
#
#
# Indices 1 2 3 4 5 6 
#
# 1 0.052690 -0.037398 -0.002610 0.000000 0.000000 0.000000
# 2 -0.037398 0.052690 -0.002610 0.000000 0.000000 0.000000
# 3 -0.002610 -0.002610 0.011461 0.000000 0.000000 0.000000
# 4 0.000000 0.000000 0.000000 0.036285 0.000000 0.000000
# 5 0.000000 0.000000 0.000000 0.000000 0.036285 0.000000
# 6 0.000000 0.000000 0.000000 0.000000 0.000000 0.075556
#
#
# Mechanical properties :
#
#
# Convention : Reuss Voigt Hill
#
# Bulk Modulus (GPa) = 31.64077 33.44509 32.54293
# Shear Modulus (GPa) = 13.86039 21.29826 17.57932
#
# Velocity S-wave (km/s) = 2.53142 3.13797 2.85087
# Velocity P-wave (km/s) = 4.81380 5.34713 5.08746
#
# Compressibility (1/GPa) = 0.03160479
#
# Stress axis : x y z
#
# Youngs Moduli (GPa) = 18.97891 18.97891 87.24925
#
# Poissons Ratio (x) = 0.70978 0.22772
# Poissons Ratio (y) = 0.70978 0.22772
# Poissons Ratio (z) = 0.04954 0.04954
#
# Static dielectric constant tensor:
#      x y z
#    x 1.813810 0.000000 0.000000 
#    y 0.000000 1.813810 0.000000 
#    z 0.000000 0.000000 1.851290 
# 
# From -- ./inp_files/5353.got.cif
#   From: 2010.05.17/outbox.cif.g08.bks.cpg/sg95_3_cif.got.tgz:5353.got - 2010.06.03 19:46:49.
