data_PCOD9550964
_publ_section_title
;
Structure prediction by ZEFSAII (Michael W. Deem and Ramdas Pophale) SiO2 
 PCOD9550964
Probable space group: P 43 21 2
;
_chemical_formula_sum "Si O2"
_cell_formula_units_Z 44
_cell_length_a 9.498322
_cell_length_b 9.498322
_cell_length_c 18.685432
_cell_angle_alpha 90.000000
_cell_angle_beta 90.000000
_cell_angle_gamma 90.000000
_cell_volume 1685.764562
_symmetry_space_group_name_H-M "P 43 21 2"
_symmetry_group_IT_number 96
_symmetry_cell_setting 'tetragonal'
loop_
_space_group_symop_operation_xyz
x,y,z
1/2-y,1/2+x,3/4+z
-x,-y,1/2+z
1/2+y,1/2-x,1/4+z
1/2+x,1/2-y,1/4-z
1/2-x,1/2+y,3/4-z
y,x,-z
-y,-x,1/2-z
loop_
_atom_site_type_symbol
_atom_site_label
_atom_site_fract_x
_atom_site_fract_y
_atom_site_fract_z
Si Si1 0.292393 0.707608 0.250000
Si Si2 0.808915 0.119484 0.978126
Si Si3 0.151997 0.735230 0.864744
Si Si4 0.988800 0.716625 0.234620
Si Si5 0.488215 0.073566 0.649138
Si Si6 0.127580 0.127580 0.000000
Si Si7 0.040603 0.959398 0.750000
O O1 0.448374 0.708563 0.219846
O O2 0.151009 0.726862 0.204787
O O3 0.795892 0.184167 0.057212
O O4 0.662370 0.139033 0.937548
O O5 0.973052 0.141072 0.964312
O O6 0.050872 0.604359 0.884543
O O7 0.268265 0.666582 0.814231
O O8 0.087948 0.864266 0.817578
O O9 0.504192 0.899360 0.953750
O O10 0.921310 0.651124 0.163552
O O11 0.942735 0.871096 0.257937
#
# Coordination Sequence:
#
# PCOD9550964 Si02
#       7
#     4   8   8   8   8   4   4
#     4   8  16  38  66  98 134 188 244 286 368 444
#     4  10  22  44  75 101 145 201 241 317 373 450
#     4  11  24  47  68 111 147 192 253 314 374 454
#     4  10  22  41  68 111 146 195 246 312 376 455
#     4  11  22  44  75 106 151 193 254 312 381 450
#     4  10  26  46  72 106 140 204 250 294 390 452
#     4  10  26  40  66 102 146 188 252 306 368 456
#
# _framework density 26.100918
#
# number of rings (size 3 to 8) (size 9 to 14) (size 15 to 20)
#    0.000    1.818    3.636    0.000    7.636    4.364 
#    3.273    0.000    0.000    0.000    0.000    0.000 
#    0.000    0.000    0.000    0.000    0.000    0.000 
#
# Total GULP energy -245304.135078 kJ/mol
# GULP energy per Si atom -5575.093979 kJ/mol
# Density = 2.604151 g / cm^3
# Si number density = 26.100918 Si / 1000 Ang^3
#
#
#
# Elastic Constant Matrix: (Units=GPa)
#
#
# Indices 1 2 3 4 5 6 
#
# 1 39.4561 100.9714 -12.0820 0.0000 0.0000 0.0000
# 2 100.9714 39.4570 -12.0821 0.0000 0.0000 0.0000
# 3 -12.0820 -12.0821 38.0061 0.0000 0.0000 0.0000
# 4 0.0000 0.0000 0.0000 16.1538 0.0000 0.0000
# 5 0.0000 0.0000 0.0000 0.0000 16.1538 0.0000
# 6 0.0000 0.0000 0.0000 0.0000 0.0000 45.9818
#
#
#
# Elastic Compliance Matrix: (Units=1/GPa)
#
#
# Indices 1 2 3 4 5 6 
#
# 1 -0.004362 0.011895 0.002395 0.000000 0.000000 0.000000
# 2 0.011895 -0.004361 0.002395 0.000000 0.000000 0.000000
# 3 0.002395 0.002395 0.027834 0.000000 0.000000 0.000000
# 4 0.000000 0.000000 0.000000 0.061905 0.000000 0.000000
# 5 0.000000 0.000000 0.000000 0.000000 0.061905 0.000000
# 6 0.000000 0.000000 0.000000 0.000000 0.000000 0.021748
#
#
# Mechanical properties :
#
#
# Convention : Reuss Voigt Hill
#
# Bulk Modulus (GPa) = 19.05503 30.05932 24.55718
# Shear Modulus (GPa) = 33.60367 18.33201 25.96784
#
# Velocity S-wave (km/s) = 3.59200 2.65307 3.15763
# Velocity P-wave (km/s) = 4.95173 4.57456 4.76688
#
# Compressibility (1/GPa) = 0.05247957
#
# Stress axis : x y z
#
# Youngs Moduli (GPa) = -229.27410 -229.27999 35.92711
#
# Poissons Ratio (x) = 2.72722 -0.08604
# Poissons Ratio (y) = 2.72715 -0.08604
# Poissons Ratio (z) = 0.54906 0.54908
#
# Static dielectric constant tensor:
#      x y z
#    x 2.405930 0.000000 0.000000 
#    y 0.000000 2.405930 0.000000 
#    z 0.000000 0.000000 2.196180 
# 
# From -- ./inp_files/4435.got.cif
#   From: 2010.05.17/outbox.cif.g08.bks.cpg/sg96_3_cif.got.tgz:4435.got - 2010.06.03 19:52:08.
