data_PCOD9550040
_publ_section_title
;
Structure prediction by ZEFSAII (Michael W. Deem and Ramdas Pophale) SiO2 
 PCOD9550040
Probable space group: P 42 21 2
;
_chemical_formula_sum "Si O2"
_cell_formula_units_Z 24
_cell_length_a 7.580703
_cell_length_b 7.580703
_cell_length_c 17.945289
_cell_angle_alpha 90.000000
_cell_angle_beta 90.000000
_cell_angle_gamma 90.000000
_cell_volume 1031.262963
_symmetry_space_group_name_H-M "P 42 21 2"
_symmetry_group_IT_number 94
_symmetry_cell_setting 'tetragonal'
loop_
_space_group_symop_operation_xyz
x,y,z
1/2-y,1/2+x,1/2+z
-x,-y,z
1/2+y,1/2-x,1/2+z
1/2+x,1/2-y,1/2-z
1/2-x,1/2+y,1/2-z
y,x,-z
-y,-x,-z
loop_
_atom_site_type_symbol
_atom_site_label
_atom_site_fract_x
_atom_site_fract_y
_atom_site_fract_z
Si Si1 0.989904 0.782986 0.699167
Si Si2 0.801729 0.701578 0.418657
Si Si3 0.858374 0.698217 0.859568
O O1 0.832430 0.731628 0.644315
O O2 0.955928 0.698586 0.779321
O O3 0.170566 0.720977 0.660733
O O4 0.000000 0.000000 0.707478
O O5 0.779779 0.779779 0.500000
O O6 0.720085 0.506432 0.412564
O O7 0.008200 0.683120 0.396003
#
# Coordination Sequence:
#
# PCOD9550040 Si02
#       3
#     8   8   8
#     4  10  20  37  67  99 131 179 242 297 348 428
#     4  10  22  41  64  97 144 187 230 294 369 425
#     4  10  20  39  65  97 132 183 238 287 357 418
#
# _framework density 23.272434000000001
#
# number of rings (size 3 to 8) (size 9 to 14) (size 15 to 20)
#    0.000    2.000    3.333    0.000    0.000    6.000 
#    0.000   16.667    0.000    0.000    0.000    0.000 
#    0.000    0.000    0.000    0.000    0.000    0.000 
#
# Total GULP energy -133986.418164 kJ/mol
# GULP energy per Si atom -5582.767423 kJ/mol
# Density = 2.321946 g / cm^3
# Si number density = 23.272434 Si / 1000 Ang^3
#
#
#
# Elastic Constant Matrix: (Units=GPa)
#
#
# Indices 1 2 3 4 5 6 
#
# 1 114.3182 29.8153 41.3981 0.0000 0.0000 0.0000
# 2 29.8153 114.3182 41.3981 0.0000 0.0000 0.0000
# 3 41.3981 41.3981 150.6553 0.0000 0.0000 0.0000
# 4 0.0000 0.0000 0.0000 63.9683 0.0000 0.0000
# 5 0.0000 0.0000 0.0000 0.0000 63.9683 0.0000
# 6 0.0000 0.0000 0.0000 0.0000 0.0000 4.5771
#
#
#
# Elastic Compliance Matrix: (Units=1/GPa)
#
#
# Indices 1 2 3 4 5 6 
#
# 1 0.010036 -0.001798 -0.002264 0.000000 0.000000 0.000000
# 2 -0.001798 0.010036 -0.002264 0.000000 0.000000 0.000000
# 3 -0.002264 -0.002264 0.007882 0.000000 0.000000 0.000000
# 4 0.000000 0.000000 0.000000 0.015633 0.000000 0.000000
# 5 0.000000 0.000000 0.000000 0.000000 0.015633 0.000000
# 6 0.000000 0.000000 0.000000 0.000000 0.000000 0.218481
#
#
# Mechanical properties :
#
#
# Convention : Reuss Voigt Hill
#
# Bulk Modulus (GPa) = 65.34486 67.16829 66.25658
# Shear Modulus (GPa) = 16.92320 44.28140 30.60230
#
# Velocity S-wave (km/s) = 2.69955 4.36677 3.63017
# Velocity P-wave (km/s) = 6.15272 7.37220 6.78989
#
# Compressibility (1/GPa) = 0.01530342
#
# Stress axis : x y z
#
# Youngs Moduli (GPa) = 99.63954 99.63954 126.87454
#
# Poissons Ratio (x) = 0.17913 0.28722
# Poissons Ratio (y) = 0.17913 0.28722
# Poissons Ratio (z) = 0.22557 0.22557
#
# Static dielectric constant tensor:
#      x y z
#    x 1.964310 0.000000 0.000000 
#    y 0.000000 1.964310 0.000000 
#    z 0.000000 0.000000 1.858080 
# 
# From -- ./inp_files/3036.got.cif
#   From: 2010.05.17/outbox.cif.g08.bks.cpg/sg94_2_cif.got.tgz:3036.got - 2010.06.03 19:43:16.
