data_PCOD9550835
_publ_section_title
;
Structure prediction by ZEFSAII (Michael W. Deem and Ramdas Pophale) SiO2 
 PCOD9550835
Probable space group: P 43 21 2
;
_chemical_formula_sum "Si O2"
_cell_formula_units_Z 48
_cell_length_a 10.630440
_cell_length_b 10.630440
_cell_length_c 20.266180
_cell_angle_alpha 90.000000
_cell_angle_beta 90.000000
_cell_angle_gamma 90.000000
_cell_volume 2290.205097
_symmetry_space_group_name_H-M "P 43 21 2"
_symmetry_group_IT_number 96
_symmetry_cell_setting 'tetragonal'
loop_
_space_group_symop_operation_xyz
x,y,z
1/2-y,1/2+x,3/4+z
-x,-y,1/2+z
1/2+y,1/2-x,1/4+z
1/2+x,1/2-y,1/4-z
1/2-x,1/2+y,3/4-z
y,x,-z
-y,-x,1/2-z
loop_
_atom_site_type_symbol
_atom_site_label
_atom_site_fract_x
_atom_site_fract_y
_atom_site_fract_z
Si Si1 0.966803 0.662685 0.230662
Si Si2 0.854183 0.937825 0.197260
Si Si3 0.795020 0.039291 0.328540
Si Si4 0.818052 0.817322 0.578275
Si Si5 0.748838 0.822725 0.067040
Si Si6 0.696801 0.045371 0.630204
O O1 0.106486 0.653750 0.202519
O O2 0.975632 0.631428 0.307987
O O3 0.918322 0.807418 0.221834
O O4 0.883898 0.573557 0.184712
O O5 0.761080 0.986292 0.255453
O O6 0.788739 0.906518 0.128210
O O7 0.945669 0.053937 0.180570
O O8 0.758661 0.937142 0.383675
O O9 0.745555 0.180675 0.340983
O O10 0.827867 0.827867 0.500000
O O11 0.808499 0.956744 0.607815
O O12 0.760180 0.678923 0.091477
O O13 0.831338 0.831338 0.000000
#
# Coordination Sequence:
#
# PCOD9550835 Si02
#       6
#     8   8   8   8   8   8
#     4  10  20  38  66  93 128 167 218 274 341 397
#     4  10  20  42  65  92 129 175 220 270 337 410
#     4  11  25  43  68  93 132 184 221 273 342 406
#     4  12  26  43  66  97 134 176 228 274 333 411
#     4   9  20  37  65  97 128 166 219 281 338 400
#     4  10  22  37  62  95 126 167 217 272 332 404
#
# _framework density 20.958822000000001
#
# number of rings (size 3 to 8) (size 9 to 14) (size 15 to 20)
#    0.000    1.667    3.333    1.000    7.000    3.333 
#    0.000    5.000    0.000    0.000    0.000    0.000 
#    0.000    0.000    0.000    0.000    0.000    0.000 
#
# Total GULP energy -267776.676005 kJ/mol
# GULP energy per Si atom -5578.680750 kJ/mol
# Density = 2.091112 g / cm^3
# Si number density = 20.958822 Si / 1000 Ang^3
#
#
#
# Elastic Constant Matrix: (Units=GPa)
#
#
# Indices 1 2 3 4 5 6 
#
# 1 53.5113 10.1793 49.9100 0.0000 0.0000 0.0000
# 2 10.1793 53.5113 49.9100 0.0000 0.0000 0.0000
# 3 49.9100 49.9100 135.8258 0.0000 0.0000 0.0000
# 4 0.0000 0.0000 0.0000 28.1905 0.0000 0.0000
# 5 0.0000 0.0000 0.0000 0.0000 28.1905 0.0000
# 6 0.0000 0.0000 0.0000 0.0000 0.0000 20.1911
#
#
#
# Elastic Compliance Matrix: (Units=1/GPa)
#
#
# Indices 1 2 3 4 5 6 
#
# 1 0.030050 0.006972 -0.013604 0.000000 0.000000 0.000000
# 2 0.006972 0.030050 -0.013604 0.000000 0.000000 0.000000
# 3 -0.013604 -0.013604 0.017360 0.000000 0.000000 0.000000
# 4 0.000000 0.000000 0.000000 0.035473 0.000000 0.000000
# 5 0.000000 0.000000 0.000000 0.000000 0.035473 0.000000
# 6 0.000000 0.000000 0.000000 0.000000 0.000000 0.049527
#
#
# Mechanical properties :
#
#
# Convention : Reuss Voigt Hill
#
# Bulk Modulus (GPa) = 27.03584 51.42743 39.23164
# Shear Modulus (GPa) = 19.94158 24.17104 22.05631
#
# Velocity S-wave (km/s) = 3.08793 3.39966 3.24754
# Velocity P-wave (km/s) = 5.06372 6.32462 5.72897
#
# Compressibility (1/GPa) = 0.03698794
#
# Stress axis : x y z
#
# Youngs Moduli (GPa) = 33.27831 33.27831 57.60384
#
# Poissons Ratio (x) = -0.23202 0.78363
# Poissons Ratio (y) = -0.23202 0.78363
# Poissons Ratio (z) = 0.45271 0.45271
#
# Static dielectric constant tensor:
#      x y z
#    x 1.770600 0.000000 0.000000 
#    y 0.000000 1.770600 0.000000 
#    z 0.000000 0.000000 1.803300 
# 
# From -- ./inp_files/3136.got.cif
#   From: 2010.05.17/outbox.cif.g08.bks.cpg/sg96_2_cif.got.tgz:3136.got - 2010.06.03 19:52:08.
