data_PCOD9550130
_publ_section_title
;
Structure prediction by ZEFSAII (Michael W. Deem and Ramdas Pophale) SiO2 
 PCOD9550130
Probable space group: P 42 21 2
;
_chemical_formula_sum "Si O2"
_cell_formula_units_Z 40
_cell_length_a 9.337087
_cell_length_b 9.337087
_cell_length_c 23.718364
_cell_angle_alpha 90.000000
_cell_angle_beta 90.000000
_cell_angle_gamma 90.000000
_cell_volume 2067.795285
_symmetry_space_group_name_H-M "P 42 21 2"
_symmetry_group_IT_number 94
_symmetry_cell_setting 'tetragonal'
loop_
_space_group_symop_operation_xyz
x,y,z
1/2-y,1/2+x,1/2+z
-x,-y,z
1/2+y,1/2-x,1/2+z
1/2+x,1/2-y,1/2-z
1/2-x,1/2+y,1/2-z
y,x,-z
-y,-x,-z
loop_
_atom_site_type_symbol
_atom_site_label
_atom_site_fract_x
_atom_site_fract_y
_atom_site_fract_z
Si Si1 0.003563 0.333966 0.280785
Si Si2 0.733941 0.506807 0.488176
Si Si3 0.328673 0.332492 0.312230
Si Si4 0.484904 0.839836 0.393255
Si Si5 0.758460 0.384072 0.366319
O O1 0.932037 0.225918 0.236653
O O2 0.904824 0.339406 0.336445
O O3 0.000000 0.500000 0.259680
O O4 0.166225 0.294619 0.295087
O O5 0.659285 0.659285 0.500000
O O6 0.609014 0.390987 0.500000
O O7 0.842304 0.485780 0.539153
O O8 0.783259 0.468679 0.425205
O O9 0.385165 0.253590 0.368197
O O10 0.322496 0.501445 0.326022
O O11 0.342896 0.752754 0.375339
O O12 0.500000 0.000000 0.371375
#
# Coordination Sequence:
#
# PCOD9550130 Si02
#       5
#     8   8   8   8   8
#     4  10  23  39  60  88 118 160 204 254 306 367
#     4   9  17  35  62  91 116 156 203 246 308 365
#     4  11  21  38  59  85 119 157 206 250 305 364
#     4  11  22  36  60  92 124 156 198 255 307 369
#     4  10  21  41  64  88 122 159 206 255 308 372
#
# _framework density 19.344276000000001
#
# number of rings (size 3 to 8) (size 9 to 14) (size 15 to 20)
#    0.000    1.800    2.000    2.400    0.000    5.600 
#    0.000    5.000    0.000    0.000    0.000    0.000 
#    0.000    0.000    0.000    0.000    0.000    0.000 
#
# Total GULP energy -223175.015028 kJ/mol
# GULP energy per Si atom -5579.375376 kJ/mol
# Density = 1.930025 g / cm^3
# Si number density = 19.344276 Si / 1000 Ang^3
#
#
#
# Elastic Constant Matrix: (Units=GPa)
#
#
# Indices 1 2 3 4 5 6 
#
# 1 84.6667 34.7819 30.7154 0.0000 0.0000 0.0000
# 2 34.7819 84.6666 30.7153 0.0000 0.0000 0.0000
# 3 30.7154 30.7153 125.4321 0.0000 0.0000 0.0000
# 4 0.0000 0.0000 0.0000 23.4563 0.0000 0.0000
# 5 0.0000 0.0000 0.0000 0.0000 23.4572 0.0000
# 6 0.0000 0.0000 0.0000 0.0000 0.0000 23.1581
#
#
#
# Elastic Compliance Matrix: (Units=1/GPa)
#
#
# Indices 1 2 3 4 5 6 
#
# 1 0.014812 -0.005234 -0.002345 0.000000 0.000000 0.000000
# 2 -0.005234 0.014812 -0.002345 0.000000 0.000000 0.000000
# 3 -0.002345 -0.002345 0.009121 0.000000 0.000000 0.000000
# 4 0.000000 0.000000 0.000000 0.042632 0.000000 0.000000
# 5 0.000000 0.000000 0.000000 0.000000 0.042631 0.000000
# 6 0.000000 0.000000 0.000000 0.000000 0.000000 0.043181
#
#
# Mechanical properties :
#
#
# Convention : Reuss Voigt Hill
#
# Bulk Modulus (GPa) = 52.92282 54.13231 53.52756
# Shear Modulus (GPa) = 25.86138 27.25118 26.55628
#
# Velocity S-wave (km/s) = 3.66033 3.75740 3.70918
# Velocity P-wave (km/s) = 6.72918 6.84605 6.78787
#
# Compressibility (1/GPa) = 0.01889544
#
# Stress axis : x y z
#
# Youngs Moduli (GPa) = 67.51232 67.51228 109.63567
#
# Poissons Ratio (x) = 0.35337 0.25714
# Poissons Ratio (y) = 0.35337 0.25714
# Poissons Ratio (z) = 0.15835 0.15834
#
# Static dielectric constant tensor:
#      x y z
#    x 1.679040 0.000000 0.000000 
#    y 0.000000 1.679050 0.000000 
#    z 0.000000 0.000000 1.720710 
# 
# From -- ./inp_files/4934.got.cif
#   From: 2010.05.17/outbox.cif.g08.bks.cpg/sg94_3_cif.got.tgz:4934.got - 2010.06.03 19:43:16.
