data_PCOD9550358
_publ_section_title
;
Structure prediction by ZEFSAII (Michael W. Deem and Ramdas Pophale) SiO2 
 PCOD9550358
Probable space group: P 42 21 2
;
_chemical_formula_sum "Si O2"
_cell_formula_units_Z 56
_cell_length_a 11.937802
_cell_length_b 11.937802
_cell_length_c 17.696822
_cell_angle_alpha 90.000000
_cell_angle_beta 90.000000
_cell_angle_gamma 90.000000
_cell_volume 2521.993863
_symmetry_space_group_name_H-M "P 42 21 2"
_symmetry_group_IT_number 94
_symmetry_cell_setting 'tetragonal'
loop_
_space_group_symop_operation_xyz
x,y,z
1/2-y,1/2+x,1/2+z
-x,-y,z
1/2+y,1/2-x,1/2+z
1/2+x,1/2-y,1/2-z
1/2-x,1/2+y,1/2-z
y,x,-z
-y,-x,-z
loop_
_atom_site_type_symbol
_atom_site_label
_atom_site_fract_x
_atom_site_fract_y
_atom_site_fract_z
Si Si1 0.634000 0.013500 0.065166
Si Si2 0.120408 0.059999 0.131429
Si Si3 0.671886 0.450547 0.195935
Si Si4 0.611810 0.636986 0.083498
Si Si5 0.233089 0.606057 0.879538
Si Si6 0.803453 0.374036 0.578884
Si Si7 0.920809 0.398170 0.732359
O O1 0.644000 0.147906 0.055542
O O2 0.500000 0.000000 0.089923
O O3 0.751640 0.984855 0.111220
O O4 0.643396 0.936949 0.991532
O O5 0.122336 0.080611 0.222305
O O6 0.110199 0.172143 0.083578
O O7 0.000000 0.000000 0.117039
O O8 0.608467 0.548719 0.151339
O O9 0.672370 0.346306 0.138587
O O10 0.792474 0.501597 0.214184
O O11 0.521601 0.731184 0.103560
O O12 0.740682 0.675825 0.079212
O O13 0.588872 0.588872 0.000000
O O14 0.161052 0.618953 0.802846
O O15 0.852899 0.421611 0.656421
O O16 0.000000 0.500000 0.749736
#
# Coordination Sequence:
#
# PCOD9550358 Si02
#       7
#     8   8   8   8   8   8   8
#     4  12  26  47  75 108 148 202 262 319 383 474
#     4  12  25  45  73 108 152 202 256 317 397 479
#     4  11  26  46  71 110 153 198 258 321 391 473
#     4  11  25  47  76 107 146 202 257 322 396 462
#     4  12  24  44  77 106 144 197 258 319 386 468
#     4  11  25  47  71 103 152 200 247 317 399 465
#     4  11  25  42  71 106 141 194 254 316 376 460
#
# _framework density 22.204654999999999
#
# number of rings (size 3 to 8) (size 9 to 14) (size 15 to 20)
#    0.000    0.571    2.857    5.143    2.000    4.571 
#    0.000    4.286    0.000    0.000    0.000    0.000 
#    0.000    0.000    0.000    0.000    0.000    0.000 
#
# Total GULP energy -312495.850543 kJ/mol
# GULP energy per Si atom -5580.283045 kJ/mol
# Density = 2.215412 g / cm^3
# Si number density = 22.204655 Si / 1000 Ang^3
#
#
#
# Elastic Constant Matrix: (Units=GPa)
#
#
# Indices 1 2 3 4 5 6 
#
# 1 129.8725 57.9284 38.4311 0.0000 0.0000 0.0000
# 2 57.9284 129.8725 38.4311 0.0000 0.0000 0.0000
# 3 38.4311 38.4311 96.7647 0.0000 0.0000 0.0000
# 4 0.0000 0.0000 0.0000 37.2235 0.0000 0.0000
# 5 0.0000 0.0000 0.0000 0.0000 37.2235 0.0000
# 6 0.0000 0.0000 0.0000 0.0000 0.0000 34.3090
#
#
#
# Elastic Compliance Matrix: (Units=1/GPa)
#
#
# Indices 1 2 3 4 5 6 
#
# 1 0.010129 -0.003771 -0.002525 0.000000 0.000000 0.000000
# 2 -0.003771 0.010129 -0.002525 0.000000 0.000000 0.000000
# 3 -0.002525 -0.002525 0.012340 0.000000 0.000000 0.000000
# 4 0.000000 0.000000 0.000000 0.026865 0.000000 0.000000
# 5 0.000000 0.000000 0.000000 0.000000 0.026865 0.000000
# 6 0.000000 0.000000 0.000000 0.000000 0.000000 0.029147
#
#
# Mechanical properties :
#
#
# Convention : Reuss Voigt Hill
#
# Bulk Modulus (GPa) = 66.86381 69.56564 68.21472
# Shear Modulus (GPa) = 36.20507 36.53250 36.36878
#
# Velocity S-wave (km/s) = 4.04235 4.06058 4.05148
# Velocity P-wave (km/s) = 7.20870 7.30628 7.25765
#
# Compressibility (1/GPa) = 0.01495577
#
# Stress axis : x y z
#
# Youngs Moduli (GPa) = 98.72645 98.72645 81.03587
#
# Poissons Ratio (x) = 0.37227 0.20464
# Poissons Ratio (y) = 0.37227 0.20464
# Poissons Ratio (z) = 0.24931 0.24931
#
# Static dielectric constant tensor:
#      x y z
#    x 1.707110 0.000000 0.000000 
#    y 0.000000 1.707110 0.000000 
#    z 0.000000 0.000000 1.833670 
# 
# From -- ./inp_files/4719.got.cif
#   From: 2010.05.17/outbox.cif.g08.bks.cpg/sg94_3_cif.got.tgz:4719.got - 2010.06.03 19:43:16.
