data_PCOD9550558
_publ_section_title
;
Structure prediction by ZEFSAII (Michael W. Deem and Ramdas Pophale) SiO2 
 PCOD9550558
Probable space group: P 43 2 2
;
_chemical_formula_sum "Si O2"
_cell_formula_units_Z 60
_cell_length_a 18.245117
_cell_length_b 18.245117
_cell_length_c 9.353170
_cell_angle_alpha 90.000000
_cell_angle_beta 90.000000
_cell_angle_gamma 90.000000
_cell_volume 3113.523395
_symmetry_space_group_name_H-M "P 43 2 2"
_symmetry_group_IT_number 95
_symmetry_cell_setting 'tetragonal'
loop_
_space_group_symop_operation_xyz
x,y,z
-y,x,3/4+z
-x,-y,1/2+z
y,-x,1/4+z
x,-y,1/2-z
-x,y,-z
y,x,1/4-z
-y,-x,3/4-z
loop_
_atom_site_type_symbol
_atom_site_label
_atom_site_fract_x
_atom_site_fract_y
_atom_site_fract_z
Si Si1 0.210347 0.818145 0.022475
Si Si2 0.304256 0.651287 0.222922
Si Si3 0.505840 0.212574 0.276655
Si Si4 0.373017 0.234644 0.488483
Si Si5 0.857874 0.691049 0.786999
Si Si6 0.062046 0.446822 0.382417
Si Si7 0.313590 0.500000 0.250000
Si Si8 0.914799 0.192997 0.951868
O O1 0.171383 0.747542 0.093945
O O2 0.204288 0.876074 0.146752
O O3 0.168681 0.831320 0.875000
O O4 0.297262 0.809196 0.985964
O O5 0.309304 0.690697 0.375000
O O6 0.216063 0.640682 0.221421
O O7 0.350898 0.577372 0.231926
O O8 0.337492 0.695023 0.090254
O O9 0.432654 0.205928 0.373129
O O10 0.575748 0.240238 0.371176
O O11 0.524186 0.134596 0.210595
O O12 0.491923 0.266940 0.145511
O O13 0.921320 0.635287 0.829086
O O14 0.886048 0.740224 0.652469
O O15 0.045043 0.500000 0.250000
O O16 0.000000 0.446846 0.500000
O O17 0.879689 0.120312 0.875000
O O18 0.000000 0.190358 0.000000
#
# Coordination Sequence:
#
# PCOD9550558 Si02
#       8
#     8   8   8   8   8   8   4   8
#     4  10  21  38  63  95 127 157 212 279 322 366
#     4  11  20  37  63  90 118 165 214 270 332 376
#     4  11  22  41  59  89 127 166 217 268 317 396
#     4  10  23  36  63  91 123 164 222 275 320 377
#     4  10  21  40  62  89 124 167 218 265 311 384
#     4  12  27  42  59  89 136 180 213 258 326 401
#     4  12  22  36  62  86 126 162 210 268 332 390
#     4  10  23  43  68  96 128 166 214 261 329 402
#
# _framework density 19.270773999999999
#
# number of rings (size 3 to 8) (size 9 to 14) (size 15 to 20)
#    0.000    1.333    3.333    2.800    5.600    2.667 
#    0.000    2.667    0.000    1.600    0.000    0.000 
#    0.000    0.000    0.000    0.000    0.000    0.000 
#
# Total GULP energy -334093.828743 kJ/mol
# GULP energy per Si atom -5568.230479 kJ/mol
# Density = 1.922691 g / cm^3
# Si number density = 19.270774 Si / 1000 Ang^3
#
#
#
# Elastic Constant Matrix: (Units=GPa)
#
#
# Indices 1 2 3 4 5 6 
#
# 1 95.9219 25.6610 47.0585 0.0000 0.0000 0.0000
# 2 25.6610 95.9223 47.0579 0.0000 0.0000 0.0000
# 3 47.0585 47.0579 140.1570 0.0000 0.0000 0.0000
# 4 0.0000 0.0000 0.0000 34.3961 0.0000 0.0000
# 5 0.0000 0.0000 0.0000 0.0000 34.3945 0.0000
# 6 0.0000 0.0000 0.0000 0.0000 0.0000 11.0750
#
#
#
# Elastic Compliance Matrix: (Units=1/GPa)
#
#
# Indices 1 2 3 4 5 6 
#
# 1 0.012673 -0.001560 -0.003731 0.000000 0.000000 0.000000
# 2 -0.001560 0.012673 -0.003731 0.000000 0.000000 0.000000
# 3 -0.003731 -0.003731 0.009640 0.000000 0.000000 0.000000
# 4 0.000000 0.000000 0.000000 0.029073 0.000000 0.000000
# 5 0.000000 0.000000 0.000000 0.000000 0.029074 0.000000
# 6 0.000000 0.000000 0.000000 0.000000 0.000000 0.090293
#
#
# Mechanical properties :
#
#
# Convention : Reuss Voigt Hill
#
# Bulk Modulus (GPa) = 59.02611 63.50622 61.26616
# Shear Modulus (GPa) = 24.14072 30.12137 27.13105
#
# Velocity S-wave (km/s) = 3.54321 3.95784 3.75625
# Velocity P-wave (km/s) = 6.88734 7.34250 7.11856
#
# Compressibility (1/GPa) = 0.01694166
#
# Stress axis : x y z
#
# Youngs Moduli (GPa) = 78.90804 78.90891 103.72960
#
# Poissons Ratio (x) = 0.12308 0.38705
# Poissons Ratio (y) = 0.12307 0.38704
# Poissons Ratio (z) = 0.29443 0.29443
#
# Static dielectric constant tensor:
#      x y z
#    x 1.701430 0.000000 0.000000 
#    y 0.000000 1.701430 0.000000 
#    z 0.000000 0.000000 1.689420 
# 
# From -- ./inp_files/2801.got.cif
#   From: 2010.05.17/outbox.cif.g08.bks.cpg/sg95_2_cif.got.tgz:2801.got - 2010.06.03 19:46:49.
