data_PCOD9550657
_publ_section_title
;
Structure prediction by ZEFSAII (Michael W. Deem and Ramdas Pophale) SiO2 
 PCOD9550657
Probable space group: P 43 2 2
;
_chemical_formula_sum "Si O2"
_cell_formula_units_Z 60
_cell_length_a 11.462538
_cell_length_b 11.462538
_cell_length_c 21.514773
_cell_angle_alpha 90.000000
_cell_angle_beta 90.000000
_cell_angle_gamma 90.000000
_cell_volume 2826.821235
_symmetry_space_group_name_H-M "P 43 2 2"
_symmetry_group_IT_number 95
_symmetry_cell_setting 'tetragonal'
loop_
_space_group_symop_operation_xyz
x,y,z
-y,x,3/4+z
-x,-y,1/2+z
y,-x,1/4+z
x,-y,1/2-z
-x,y,-z
y,x,1/4-z
-y,-x,3/4-z
loop_
_atom_site_type_symbol
_atom_site_label
_atom_site_fract_x
_atom_site_fract_y
_atom_site_fract_z
Si Si1 0.243183 0.446618 0.182923
Si Si2 0.496337 0.660203 0.690589
Si Si3 0.697133 0.000000 0.250000
Si Si4 0.761014 0.116869 0.713164
Si Si5 0.552739 0.735953 0.935776
Si Si6 0.230484 0.890458 0.432049
Si Si7 0.166924 0.509768 0.944236
Si Si8 0.191103 0.845801 0.073490
O O1 0.215887 0.500000 0.250000
O O2 0.370055 0.383700 0.190283
O O3 0.265544 0.526492 0.122549
O O4 0.138801 0.361589 0.161507
O O5 0.404359 0.556066 0.686841
O O6 0.476768 0.735674 0.752174
O O7 0.609999 0.927191 0.205755
O O8 0.777052 0.911386 0.289402
O O9 0.803485 0.215172 0.760260
O O10 0.621993 0.117582 0.702843
O O11 0.823194 0.135023 0.647516
O O12 0.794490 0.000000 0.750000
O O13 0.488044 0.780733 0.874679
O O14 0.686904 0.778009 0.933748
O O15 0.500000 0.780104 0.000000
O O16 0.148910 0.851091 0.375000
O O17 0.206874 0.022148 0.451090
#
# Coordination Sequence:
#
# PCOD9550657 Si02
#       8
#     8   8   4   8   8   8   8   8
#     4  11  23  37  68 109 143 177 229 298 369 421
#     4  11  21  41  66 106 144 179 235 293 362 433
#     4  12  26  50  72 104 144 196 246 298 362 454
#     4  11  22  42  73 100 128 180 239 295 354 416
#     4  11  26  46  68 102 144 189 240 293 358 441
#     4  12  23  43  66 100 138 176 229 297 362 411
#     4  11  23  43  76  98 138 195 241 295 366 435
#     4  11  28  45  69 104 141 187 243 295 354 436
#
# _framework density 21.225255000000001
#
# number of rings (size 3 to 8) (size 9 to 14) (size 15 to 20)
#    0.000    0.800    6.000    1.200    2.800    3.200 
#    0.000    1.333    0.000    0.000    0.000    0.000 
#    0.000    0.000    0.000    0.000    0.000    0.000 
#
# Total GULP energy -335344.427901 kJ/mol
# GULP energy per Si atom -5589.073798 kJ/mol
# Density = 2.117695 g / cm^3
# Si number density = 21.225255 Si / 1000 Ang^3
#
#
#
# Elastic Constant Matrix: (Units=GPa)
#
#
# Indices 1 2 3 4 5 6 
#
# 1 99.1592 52.7692 52.1770 0.0000 0.0000 0.0000
# 2 52.7692 99.1590 52.1769 0.0000 0.0000 0.0000
# 3 52.1770 52.1769 173.3243 0.0000 0.0000 0.0000
# 4 0.0000 0.0000 0.0000 25.0334 0.0000 0.0000
# 5 0.0000 0.0000 0.0000 0.0000 25.0335 0.0000
# 6 0.0000 0.0000 0.0000 0.0000 0.0000 11.8688
#
#
#
# Elastic Compliance Matrix: (Units=1/GPa)
#
#
# Indices 1 2 3 4 5 6 
#
# 1 0.014927 -0.006629 -0.002498 0.000000 0.000000 0.000000
# 2 -0.006629 0.014927 -0.002498 0.000000 0.000000 0.000000
# 3 -0.002498 -0.002498 0.007273 0.000000 0.000000 0.000000
# 4 0.000000 0.000000 0.000000 0.039947 0.000000 0.000000
# 5 0.000000 0.000000 0.000000 0.000000 0.039946 0.000000
# 6 0.000000 0.000000 0.000000 0.000000 0.000000 0.084255
#
#
# Mechanical properties :
#
#
# Convention : Reuss Voigt Hill
#
# Bulk Modulus (GPa) = 72.06010 76.20984 74.13497
# Shear Modulus (GPa) = 21.81963 26.68844 24.25403
#
# Velocity S-wave (km/s) = 3.20973 3.54982 3.38405
# Velocity P-wave (km/s) = 6.91089 7.26532 7.09032
#
# Compressibility (1/GPa) = 0.01387731
#
# Stress axis : x y z
#
# Youngs Moduli (GPa) = 66.99232 66.99216 137.48589
#
# Poissons Ratio (x) = 0.44411 0.34343
# Poissons Ratio (y) = 0.44411 0.34343
# Poissons Ratio (z) = 0.16734 0.16734
#
# Static dielectric constant tensor:
#      x y z
#    x 1.800160 0.000000 0.000000 
#    y 0.000000 1.800160 0.000000 
#    z 0.000000 0.000000 1.779420 
# 
# From -- ./inp_files/6518.got.cif
#   From: 2010.05.17/outbox.cif.g08.bks.cpg/sg95_4_cif.got.tgz:6518.got - 2010.06.03 19:46:49.
