data_PCOD9550283
_publ_section_title
;
Structure prediction by ZEFSAII (Michael W. Deem and Ramdas Pophale) SiO2 
 PCOD9550283
Probable space group: P 42 21 2
;
_chemical_formula_sum "Si O2"
_cell_formula_units_Z 48
_cell_length_a 9.337967
_cell_length_b 9.337967
_cell_length_c 28.155500
_cell_angle_alpha 90.000000
_cell_angle_beta 90.000000
_cell_angle_gamma 90.000000
_cell_volume 2455.092807
_symmetry_space_group_name_H-M "P 42 21 2"
_symmetry_group_IT_number 94
_symmetry_cell_setting 'tetragonal'
loop_
_space_group_symop_operation_xyz
x,y,z
1/2-y,1/2+x,1/2+z
-x,-y,z
1/2+y,1/2-x,1/2+z
1/2+x,1/2-y,1/2-z
1/2-x,1/2+y,1/2-z
y,x,-z
-y,-x,-z
loop_
_atom_site_type_symbol
_atom_site_label
_atom_site_fract_x
_atom_site_fract_y
_atom_site_fract_z
Si Si1 0.743983 0.173119 0.948201
Si Si2 0.660136 0.297712 0.445335
Si Si3 0.161003 0.483455 0.114159
Si Si4 0.037052 0.666846 0.891536
Si Si5 0.652294 0.079185 0.216819
Si Si6 0.845583 0.926246 0.295673
O O1 0.581530 0.158072 0.932606
O O2 0.810415 0.285278 0.911301
O O3 0.809241 0.012779 0.946474
O O4 0.766783 0.233218 0.000000
O O5 0.714536 0.285465 0.500000
O O6 0.737286 0.433388 0.423114
O O7 0.692525 0.171861 0.407429
O O8 0.267212 0.540059 0.154387
O O9 0.000000 0.500000 0.134702
O O10 0.000000 0.500000 0.897760
O O11 0.032058 0.700596 0.835916
O O12 0.645763 0.254369 0.215736
O O13 0.500000 0.000000 0.224581
O O14 0.757590 0.012670 0.255602
O O15 0.000000 0.000000 0.297648
#
# Coordination Sequence:
#
# PCOD9550283 Si02
#       6
#     8   8   8   8   8   8
#     4  11  22  42  65  95 133 179 226 278 330 401
#     4  11  24  39  66  99 132 182 228 277 332 400
#     4  10  25  44  66  97 140 175 223 280 339 400
#     4  11  25  41  68  95 138 173 223 275 331 396
#     4  11  26  48  70 103 138 178 223 279 345 412
#     4  12  26  46  75 101 135 177 226 281 344 411
#
# _framework density 19.551196000000001
#
# number of rings (size 3 to 8) (size 9 to 14) (size 15 to 20)
#    0.000    1.000    3.333    2.000    9.333    1.333 
#    0.000    0.000    0.000    0.000    0.000    0.000 
#    0.000    0.000    0.000    0.000    0.000    0.000 
#
# Total GULP energy -267889.099965 kJ/mol
# GULP energy per Si atom -5581.022916 kJ/mol
# Density = 1.950670 g / cm^3
# Si number density = 19.551196 Si / 1000 Ang^3
#
#
#
# Elastic Constant Matrix: (Units=GPa)
#
#
# Indices 1 2 3 4 5 6 
#
# 1 78.2118 39.7135 49.5788 0.0000 0.0000 0.0000
# 2 39.7135 78.2117 49.5789 0.0000 0.0000 0.0000
# 3 49.5788 49.5789 128.2103 0.0000 0.0000 0.0000
# 4 0.0000 0.0000 0.0000 45.5433 0.0000 0.0000
# 5 0.0000 0.0000 0.0000 0.0000 45.5240 0.0000
# 6 0.0000 0.0000 0.0000 0.0000 0.0000 27.1887
#
#
#
# Elastic Compliance Matrix: (Units=1/GPa)
#
#
# Indices 1 2 3 4 5 6 
#
# 1 0.019270 -0.006705 -0.004859 0.000000 0.000000 0.000000
# 2 -0.006705 0.019271 -0.004859 0.000000 0.000000 0.000000
# 3 -0.004859 -0.004859 0.011558 0.000000 0.000000 0.000000
# 4 0.000000 0.000000 0.000000 0.021957 0.000000 0.000000
# 5 0.000000 0.000000 0.000000 0.000000 0.021966 0.000000
# 6 0.000000 0.000000 0.000000 0.000000 0.000000 0.036780
#
#
# Mechanical properties :
#
#
# Convention : Reuss Voigt Hill
#
# Bulk Modulus (GPa) = 57.96218 62.48624 60.22421
# Shear Modulus (GPa) = 29.51605 33.36871 31.44238
#
# Velocity S-wave (km/s) = 3.88968 4.13575 4.01460
# Velocity P-wave (km/s) = 7.06282 7.40510 7.23599
#
# Compressibility (1/GPa) = 0.01725263
#
# Stress axis : x y z
#
# Youngs Moduli (GPa) = 51.89280 51.89271 86.52184
#
# Poissons Ratio (x) = 0.34793 0.42043
# Poissons Ratio (y) = 0.34793 0.42043
# Poissons Ratio (z) = 0.25216 0.25216
#
# Static dielectric constant tensor:
#      x y z
#    x 1.689950 0.000000 0.000000 
#    y 0.000000 1.689940 0.000000 
#    z 0.000000 0.000000 1.700980 
# 
# From -- ./inp_files/5569.got.cif
#   From: 2010.05.17/outbox.cif.g08.bks.cpg/sg94_3_cif.got.tgz:5569.got - 2010.06.03 19:43:16.
