data_PCOD9550591
_publ_section_title
;
Structure prediction by ZEFSAII (Michael W. Deem and Ramdas Pophale) SiO2 
 PCOD9550591
Probable space group: P 43 2 2
;
_chemical_formula_sum "Si O2"
_cell_formula_units_Z 56
_cell_length_a 11.444181
_cell_length_b 11.444181
_cell_length_c 18.406983
_cell_angle_alpha 90.000000
_cell_angle_beta 90.000000
_cell_angle_gamma 90.000000
_cell_volume 2410.749288
_symmetry_space_group_name_H-M "P 43 2 2"
_symmetry_group_IT_number 95
_symmetry_cell_setting 'tetragonal'
loop_
_space_group_symop_operation_xyz
x,y,z
-y,x,3/4+z
-x,-y,1/2+z
y,-x,1/4+z
x,-y,1/2-z
-x,y,-z
y,x,1/4-z
-y,-x,3/4-z
loop_
_atom_site_type_symbol
_atom_site_label
_atom_site_fract_x
_atom_site_fract_y
_atom_site_fract_z
Si Si1 0.710848 0.440291 0.080965
Si Si2 0.953020 0.442179 0.417774
Si Si3 0.801260 0.300302 0.737990
Si Si4 0.468820 0.834148 0.391510
Si Si5 0.179377 0.001624 0.836982
Si Si6 0.480466 0.383716 0.811614
Si Si7 0.962444 0.883629 0.698822
O O1 0.817254 0.528941 0.088551
O O2 0.647744 0.415565 0.158042
O O3 0.752293 0.316809 0.045849
O O4 0.611612 0.489664 0.024117
O O5 0.985310 0.312622 0.388338
O O6 0.000000 0.448570 0.500000
O O7 0.029684 0.538932 0.375819
O O8 0.821024 0.415632 0.690385
O O9 0.785421 0.357930 0.816739
O O10 0.910526 0.214917 0.748818
O O11 0.499518 0.755729 0.322829
O O12 0.099325 0.900676 0.875000
O O13 0.195689 0.000000 0.750000
O O14 0.093374 0.115214 0.836432
O O15 0.561439 0.438562 0.875000
O O16 0.887509 0.887509 0.625000
O O17 0.955047 0.000000 0.750000
#
# Coordination Sequence:
#
# PCOD9550591 Si02
#       7
#     8   8   8   8   8   8   8
#     4  11  24  41  69 103 135 188 237 298 355 422
#     4  11  23  41  67  99 135 181 233 288 351 425
#     4  10  23  41  64  96 137 177 225 284 348 416
#     4  10  22  40  66  94 133 185 214 284 350 408
#     4   9  21  41  63  90 130 181 230 278 344 414
#     4  11  21  42  69  96 136 178 234 284 358 423
#     4  10  23  39  63  99 128 174 226 283 340 412
#
# _framework density 23.229293999999999
#
# number of rings (size 3 to 8) (size 9 to 14) (size 15 to 20)
#    0.000    1.714    2.857    0.429    8.000    2.286 
#    2.571    0.000    6.286    0.000    0.000    0.000 
#    0.000    0.000    0.000    0.000    0.000    0.000 
#
# Total GULP energy -311825.048150 kJ/mol
# GULP energy per Si atom -5568.304431 kJ/mol
# Density = 2.317642 g / cm^3
# Si number density = 23.229294 Si / 1000 Ang^3
#
#
#
# Elastic Constant Matrix: (Units=GPa)
#
#
# Indices 1 2 3 4 5 6 
#
# 1 75.9226 33.0333 13.3594 0.0000 0.0000 0.0000
# 2 33.0333 75.9234 13.3595 0.0000 0.0000 0.0000
# 3 13.3594 13.3595 83.5915 0.0000 0.0000 0.0000
# 4 0.0000 0.0000 0.0000 28.3744 0.0000 0.0000
# 5 0.0000 0.0000 0.0000 0.0000 28.3742 0.0000
# 6 0.0000 0.0000 0.0000 0.0000 0.0000 26.1721
#
#
#
# Elastic Compliance Matrix: (Units=1/GPa)
#
#
# Indices 1 2 3 4 5 6 
#
# 1 0.016434 -0.006882 -0.001527 0.000000 0.000000 0.000000
# 2 -0.006882 0.016434 -0.001527 0.000000 0.000000 0.000000
# 3 -0.001527 -0.001527 0.012451 0.000000 0.000000 0.000000
# 4 0.000000 0.000000 0.000000 0.035243 0.000000 0.000000
# 5 0.000000 0.000000 0.000000 0.000000 0.035243 0.000000
# 6 0.000000 0.000000 0.000000 0.000000 0.000000 0.038209
#
#
# Mechanical properties :
#
#
# Convention : Reuss Voigt Hill
#
# Bulk Modulus (GPa) = 39.29418 39.43799 39.36608
# Shear Modulus (GPa) = 27.41730 28.29650 27.85690
#
# Velocity S-wave (km/s) = 3.43926 3.49397 3.46672
# Velocity P-wave (km/s) = 5.72048 5.76989 5.74524
#
# Compressibility (1/GPa) = 0.02544906
#
# Stress axis : x y z
#
# Youngs Moduli (GPa) = 60.84915 60.84983 80.31543
#
# Poissons Ratio (x) = 0.41875 0.12261
# Poissons Ratio (y) = 0.41874 0.12261
# Poissons Ratio (z) = 0.09289 0.09290
#
# Static dielectric constant tensor:
#      x y z
#    x 1.922630 0.000000 0.000000 
#    y 0.000000 1.922630 0.000000 
#    z 0.000000 0.000000 2.100010 
# 
# From -- ./inp_files/6471.got.cif
#   From: 2010.05.17/outbox.cif.g08.bks.cpg/sg95_4_cif.got.tgz:6471.got - 2010.06.03 19:46:49.
