data_PCOD9550745
_publ_section_title
;
Structure prediction by ZEFSAII (Michael W. Deem and Ramdas Pophale) SiO2 
 PCOD9550745
Probable space group: P 43 21 2
;
_chemical_formula_sum "Si O2"
_cell_formula_units_Z 64
_cell_length_a 12.504888
_cell_length_b 12.504888
_cell_length_c 17.457494
_cell_angle_alpha 90.000000
_cell_angle_beta 90.000000
_cell_angle_gamma 90.000000
_cell_volume 2729.867160
_symmetry_space_group_name_H-M "P 43 21 2"
_symmetry_group_IT_number 96
_symmetry_cell_setting 'tetragonal'
loop_
_space_group_symop_operation_xyz
x,y,z
1/2-y,1/2+x,3/4+z
-x,-y,1/2+z
1/2+y,1/2-x,1/4+z
1/2+x,1/2-y,1/4-z
1/2-x,1/2+y,3/4-z
y,x,-z
-y,-x,1/2-z
loop_
_atom_site_type_symbol
_atom_site_label
_atom_site_fract_x
_atom_site_fract_y
_atom_site_fract_z
Si Si1 0.895226 0.317609 0.744162
Si Si2 0.364094 0.481011 0.742853
Si Si3 0.079214 0.194591 0.428538
Si Si4 0.639570 0.792926 0.830773
Si Si5 0.845265 0.606089 0.633820
Si Si6 0.658684 0.388313 0.375421
Si Si7 0.038311 0.525220 0.735753
Si Si8 0.923872 0.842598 0.214993
O O1 0.808892 0.356486 0.682004
O O2 0.849125 0.294398 0.828235
O O3 0.971296 0.420006 0.761850
O O4 0.961380 0.214800 0.716078
O O5 0.488935 0.511066 0.750000
O O6 0.325006 0.376251 0.702734
O O7 0.316874 0.503827 0.826654
O O8 0.332708 0.575316 0.682489
O O9 0.135296 0.135296 0.500000
O O10 0.960586 0.245909 0.418816
O O11 0.091184 0.113211 0.357984
O O12 0.740318 0.845919 0.791048
O O13 0.534600 0.862202 0.805507
O O14 0.824762 0.732202 0.633927
O O15 0.952488 0.584816 0.682873
O O16 0.888089 0.570982 0.549730
O O17 0.600155 0.402424 0.455874
#
# Coordination Sequence:
#
# PCOD9550745 Si02
#       8
#     8   8   8   8   8   8   8   8
#     4  10  20  36  58  81 117 147 196 252 291 365
#     4   8  17  33  54  79 117 139 180 241 299 356
#     4  11  24  38  53  85 118 162 198 242 296 354
#     4  11  17  33  59  81 113 150 183 247 298 361
#     4  11  20  33  55  79 122 141 185 244 298 368
#     4   9  19  34  50  84 114 145 185 235 305 361
#     4  10  19  29  52  89 107 137 176 239 323 353
#     4  11  22  35  58  86 114 157 203 234 307 360
#
# _framework density 23.444365999999999
#
# number of rings (size 3 to 8) (size 9 to 14) (size 15 to 20)
#    0.750    1.000    5.000    0.750    0.000    1.000 
#    0.000    0.000    0.000    2.250    3.250    0.000 
#    0.000    0.000    0.000    0.000    0.000    0.000 
#
# Total GULP energy -356637.956838 kJ/mol
# GULP energy per Si atom -5572.468076 kJ/mol
# Density = 2.339101 g / cm^3
# Si number density = 23.444366 Si / 1000 Ang^3
#
#
#
# Elastic Constant Matrix: (Units=GPa)
#
#
# Indices 1 2 3 4 5 6 
#
# 1 17.9280 63.1229 12.0922 0.0000 0.0000 0.0000
# 2 63.1229 17.9298 12.0918 0.0000 0.0000 0.0000
# 3 12.0922 12.0918 124.2943 0.0000 0.0000 0.0000
# 4 0.0000 0.0000 0.0000 27.3728 0.0000 0.0000
# 5 0.0000 0.0000 0.0000 0.0000 27.3727 0.0000
# 6 0.0000 0.0000 0.0000 0.0000 0.0000 40.2955
#
#
#
# Elastic Compliance Matrix: (Units=1/GPa)
#
#
# Indices 1 2 3 4 5 6 
#
# 1 -0.004710 0.017417 -0.001236 0.000000 0.000000 0.000000
# 2 0.017417 -0.004710 -0.001236 0.000000 0.000000 0.000000
# 3 -0.001236 -0.001236 0.008286 0.000000 0.000000 0.000000
# 4 0.000000 0.000000 0.000000 0.036533 0.000000 0.000000
# 5 0.000000 0.000000 0.000000 0.000000 0.036533 0.000000
# 6 0.000000 0.000000 0.000000 0.000000 0.000000 0.024817
#
#
# Mechanical properties :
#
#
# Convention : Reuss Voigt Hill
#
# Bulk Modulus (GPa) = 34.77710 37.19619 35.98665
# Shear Modulus (GPa) = 65.40750 23.86455 44.63603
#
# Velocity S-wave (km/s) = 5.28768 3.19395 4.36812
# Velocity P-wave (km/s) = 7.22119 5.43157 6.38935
#
# Compressibility (1/GPa) = 0.02875455
#
# Stress axis : x y z
#
# Youngs Moduli (GPa) = -212.29847 -212.32190 120.68639
#
# Poissons Ratio (x) = 3.69795 0.14918
# Poissons Ratio (y) = 3.69754 0.14920
# Poissons Ratio (z) = -0.26242 -0.26248
#
# Static dielectric constant tensor:
#      x y z
#    x 1.959290 0.000000 0.000000 
#    y 0.000000 1.959290 0.000000 
#    z 0.000000 0.000000 1.900370 
# 
# From -- ./inp_files/3226.got.cif
#   From: 2010.05.17/outbox.cif.g08.bks.cpg/sg96_2_cif.got.tgz:3226.got - 2010.06.03 19:52:08.
