data_PCOD9550016
_publ_section_title
;
Structure prediction by ZEFSAII (Michael W. Deem and Ramdas Pophale) SiO2 
 PCOD9550016
Probable space group: P 42 21 2
;
_chemical_formula_sum "Si O2"
_cell_formula_units_Z 56
_cell_length_a 15.876673
_cell_length_b 15.876673
_cell_length_c 12.934261
_cell_angle_alpha 90.000000
_cell_angle_beta 90.000000
_cell_angle_gamma 90.000000
_cell_volume 3260.322945
_symmetry_space_group_name_H-M "P 42 21 2"
_symmetry_group_IT_number 94
_symmetry_cell_setting 'tetragonal'
loop_
_space_group_symop_operation_xyz
x,y,z
1/2-y,1/2+x,1/2+z
-x,-y,z
1/2+y,1/2-x,1/2+z
1/2+x,1/2-y,1/2-z
1/2-x,1/2+y,1/2-z
y,x,-z
-y,-x,-z
loop_
_atom_site_type_symbol
_atom_site_label
_atom_site_fract_x
_atom_site_fract_y
_atom_site_fract_z
Si Si1 0.690725 0.689333 0.373873
Si Si2 0.988103 0.398864 0.627283
Si Si3 0.864426 0.680959 0.245059
Si Si4 0.023933 0.913067 0.886620
Si Si5 0.101497 0.494233 0.885142
Si Si6 0.160017 0.171538 0.881295
Si Si7 0.159573 0.647609 0.249540
O O1 0.697104 0.697104 0.500000
O O2 0.779312 0.686331 0.312902
O O3 0.641856 0.602350 0.347527
O O4 0.646565 0.772299 0.325773
O O5 0.897793 0.366776 0.666209
O O6 0.000000 0.500000 0.645311
O O7 0.997547 0.385612 0.506335
O O8 0.062294 0.349670 0.684545
O O9 0.934178 0.653119 0.326985
O O10 0.880410 0.766651 0.179282
O O11 0.934777 0.865183 0.890902
O O12 0.058083 0.941918 0.000000
O O13 0.000000 0.000000 0.829392
O O14 0.137892 0.409723 0.837458
O O15 0.000000 0.500000 0.867965
O O16 0.153729 0.253468 0.810244
O O17 0.187524 0.187524 0.000000
#
# Coordination Sequence:
#
# PCOD9550016 Si02
#       7
#     8   8   8   8   8   8   8
#     4  10  23  37  58  85 117 154 196 252 297 350
#     4  11  21  37  59  87 121 155 190 240 299 365
#     4  11  21  38  57  85 121 154 194 239 302 359
#     4  10  20  36  55  82 110 147 195 240 291 337
#     4  11  22  36  58  87 118 154 192 235 297 364
#     4  11  23  37  58  85 118 153 198 251 295 347
#     4  11  21  38  57  85 121 154 194 239 302 359
#
# _framework density 17.176213000000001
#
# number of rings (size 3 to 8) (size 9 to 14) (size 15 to 20)
#    0.000    1.286    4.286    2.571    2.000    0.000 
#    2.571    0.000    0.000    0.000    0.000    0.000 
#    0.000    0.000    0.000    0.000    0.000    0.000 
#
# Total GULP energy -311954.361369 kJ/mol
# GULP energy per Si atom -5570.613596 kJ/mol
# Density = 1.713712 g / cm^3
# Si number density = 17.176213 Si / 1000 Ang^3
#
#
#
# Elastic Constant Matrix: (Units=GPa)
#
#
# Indices 1 2 3 4 5 6 
#
# 1 90.7677 47.3875 37.0113 0.0000 0.0000 0.0000
# 2 47.3875 90.7682 37.0113 0.0000 0.0000 0.0000
# 3 37.0113 37.0113 121.7661 0.0000 0.0000 0.0000
# 4 0.0000 0.0000 0.0000 90.5848 0.0000 0.0000
# 5 0.0000 0.0000 0.0000 0.0000 90.5801 0.0000
# 6 0.0000 0.0000 0.0000 0.0000 0.0000 30.0497
#
#
#
# Elastic Compliance Matrix: (Units=1/GPa)
#
#
# Indices 1 2 3 4 5 6 
#
# 1 0.015849 -0.007203 -0.002628 0.000000 0.000000 0.000000
# 2 -0.007203 0.015849 -0.002628 0.000000 0.000000 0.000000
# 3 -0.002628 -0.002628 0.009810 0.000000 0.000000 0.000000
# 4 0.000000 0.000000 0.000000 0.011039 0.000000 0.000000
# 5 0.000000 0.000000 0.000000 0.000000 0.011040 0.000000
# 6 0.000000 0.000000 0.000000 0.000000 0.000000 0.033278
#
#
# Mechanical properties :
#
#
# Convention : Reuss Voigt Hill
#
# Bulk Modulus (GPa) = 60.27577 60.68025 60.47801
# Shear Modulus (GPa) = 39.27301 54.36904 46.82102
#
# Velocity S-wave (km/s) = 4.78690 5.63226 5.22670
# Velocity P-wave (km/s) = 8.10687 8.81483 8.46825
#
# Compressibility (1/GPa) = 0.01659041
#
# Stress axis : x y z
#
# Youngs Moduli (GPa) = 63.09487 63.09524 101.93572
#
# Poissons Ratio (x) = 0.45446 0.26790
# Poissons Ratio (y) = 0.45446 0.26789
# Poissons Ratio (z) = 0.16582 0.16582
#
# Static dielectric constant tensor:
#      x y z
#    x 1.610850 0.000000 0.000000 
#    y 0.000000 1.610850 0.000000 
#    z 0.000000 0.000000 1.568560 
# 
# From -- ./inp_files/2741.got.cif
#   From: 2010.05.17/outbox.cif.g08.bks.cpg/sg94_2_cif.got.tgz:2741.got - 2010.06.03 19:43:16.
