data_PCOD9550768
_publ_section_title
;
Structure prediction by ZEFSAII (Michael W. Deem and Ramdas Pophale) SiO2 
 PCOD9550768
Probable space group: P 43 21 2
;
_chemical_formula_sum "Si O2"
_cell_formula_units_Z 44
_cell_length_a 19.592167
_cell_length_b 19.592167
_cell_length_c 5.113841
_cell_angle_alpha 90.000000
_cell_angle_beta 90.000000
_cell_angle_gamma 90.000000
_cell_volume 1962.963249
_symmetry_space_group_name_H-M "P 43 21 2"
_symmetry_group_IT_number 96
_symmetry_cell_setting 'tetragonal'
loop_
_space_group_symop_operation_xyz
x,y,z
1/2-y,1/2+x,3/4+z
-x,-y,1/2+z
1/2+y,1/2-x,1/4+z
1/2+x,1/2-y,1/4-z
1/2-x,1/2+y,3/4-z
y,x,-z
-y,-x,1/2-z
loop_
_atom_site_type_symbol
_atom_site_label
_atom_site_fract_x
_atom_site_fract_y
_atom_site_fract_z
Si Si1 0.064940 0.828719 0.742977
Si Si2 0.922000 0.566315 0.475877
Si Si3 0.862048 0.862048 0.500000
Si Si4 0.103732 0.004747 0.263255
Si Si5 0.491351 0.198789 0.771405
Si Si6 0.287499 0.080357 0.025710
O O1 0.140271 0.859729 0.750000
O O2 0.030779 0.852204 0.470750
O O3 0.060344 0.751160 0.837397
O O4 0.021181 0.866346 0.965961
O O5 0.947139 0.700501 0.767934
O O6 0.876305 0.541141 0.720824
O O7 0.890752 0.638638 0.386408
O O8 0.001062 0.579472 0.539234
O O9 0.781206 0.875955 0.502244
O O10 0.028050 0.971951 0.250000
O O11 0.111315 0.085383 0.223021
O O12 0.520322 0.221859 0.492522
#
# Coordination Sequence:
#
# PCOD9550768 Si02
#       6
#     8   8   4   8   8   8
#     4  10  19  37  57  86 122 171 217 268 328 395
#     4  10  22  42  71 101 129 171 231 296 353 422
#     4  12  22  42  62  94 146 174 224 282 342 410
#     4  10  22  35  58  88 125 173 226 265 318 394
#     4  11  21  42  64  93 127 172 221 281 344 411
#     4  11  25  39  65  96 131 173 219 277 357 408
#
# _framework density 22.415091
#
# number of rings (size 3 to 8) (size 9 to 14) (size 15 to 20)
#    0.000    1.455    3.636    1.091    0.000    9.455 
#    1.636    0.000    0.000    0.000    0.000    0.000 
#    0.000    0.000    0.000    0.000    0.000    0.000 
#
# Total GULP energy -245356.791913 kJ/mol
# GULP energy per Si atom -5576.290725 kJ/mol
# Density = 2.236407 g / cm^3
# Si number density = 22.415091 Si / 1000 Ang^3
#
#
#
# Elastic Constant Matrix: (Units=GPa)
#
#
# Indices 1 2 3 4 5 6 
#
# 1 131.2090 62.0862 22.2738 0.0000 0.0000 0.0000
# 2 62.0862 131.2103 22.2752 0.0000 0.0000 0.0000
# 3 22.2738 22.2752 95.1687 0.0000 0.0000 0.0000
# 4 0.0000 0.0000 0.0000 25.5983 0.0000 0.0000
# 5 0.0000 0.0000 0.0000 0.0000 25.5983 0.0000
# 6 0.0000 0.0000 0.0000 0.0000 0.0000 20.3035
#
#
#
# Elastic Compliance Matrix: (Units=1/GPa)
#
#
# Indices 1 2 3 4 5 6 
#
# 1 0.009968 -0.004499 -0.001280 0.000000 0.000000 0.000000
# 2 -0.004499 0.009968 -0.001280 0.000000 0.000000 0.000000
# 3 -0.001280 -0.001280 0.011107 0.000000 0.000000 0.000000
# 4 0.000000 0.000000 0.000000 0.039065 0.000000 0.000000
# 5 0.000000 0.000000 0.000000 0.000000 0.039065 0.000000
# 6 0.000000 0.000000 0.000000 0.000000 0.000000 0.049253
#
#
# Mechanical properties :
#
#
# Convention : Reuss Voigt Hill
#
# Bulk Modulus (GPa) = 59.08769 63.42871 61.25820
# Shear Modulus (GPa) = 28.06082 31.03019 29.54550
#
# Velocity S-wave (km/s) = 3.54202 3.72471 3.63451
# Velocity P-wave (km/s) = 6.56854 6.84520 6.70830
#
# Compressibility (1/GPa) = 0.01692400
#
# Stress axis : x y z
#
# Youngs Moduli (GPa) = 100.32449 100.32494 90.03505
#
# Poissons Ratio (x) = 0.45139 0.11523
# Poissons Ratio (y) = 0.45138 0.11524
# Poissons Ratio (z) = 0.12839 0.12842
#
# Static dielectric constant tensor:
#      x y z
#    x 1.905210 0.000000 0.000000 
#    y 0.000000 1.905210 0.000000 
#    z 0.000000 0.000000 1.867380 
# 
# From -- ./inp_files/592.got.cif
#   From: 2010.05.17/outbox.cif.g08.bks.cpg/sg96_1_cif.got.tgz:592.got - 2010.06.03 19:52:08.
