data_PCOD9550628
_publ_section_title
;
Structure prediction by ZEFSAII (Michael W. Deem and Ramdas Pophale) SiO2 
 PCOD9550628
Probable space group: P 43 2 2
;
_chemical_formula_sum "Si O2"
_cell_formula_units_Z 40
_cell_length_a 7.766663
_cell_length_b 7.766663
_cell_length_c 28.016675
_cell_angle_alpha 90.000000
_cell_angle_beta 90.000000
_cell_angle_gamma 90.000000
_cell_volume 1689.995370
_symmetry_space_group_name_H-M "P 43 2 2"
_symmetry_group_IT_number 95
_symmetry_cell_setting 'tetragonal'
loop_
_space_group_symop_operation_xyz
x,y,z
-y,x,3/4+z
-x,-y,1/2+z
y,-x,1/4+z
x,-y,1/2-z
-x,y,-z
y,x,1/4-z
-y,-x,3/4-z
loop_
_atom_site_type_symbol
_atom_site_label
_atom_site_fract_x
_atom_site_fract_y
_atom_site_fract_z
Si Si1 0.110393 0.439650 0.321744
Si Si2 0.889030 0.656603 0.094597
Si Si3 0.457135 0.678699 0.231322
Si Si4 0.245605 0.220195 0.178678
Si Si5 0.999037 0.934446 0.803027
O O1 0.304318 0.384373 0.305199
O O2 0.104247 0.636038 0.303890
O O3 0.026201 0.449571 0.374644
O O4 0.009245 0.271840 0.303441
O O5 0.723155 0.723155 0.125000
O O6 0.811732 0.569458 0.048084
O O7 0.987287 0.831256 0.081021
O O8 0.541120 0.500000 0.250000
O O9 0.382769 0.768726 0.278957
O O10 0.286766 0.286766 0.125000
O O11 0.166066 0.030851 0.175471
O O12 0.008778 0.000000 0.750000
#
# Coordination Sequence:
#
# PCOD9550628 Si02
#       5
#     8   8   8   8   8
#     4  10  23  44  70 100 141 188 238 302 367 443
#     4  10  24  44  70 105 142 185 239 302 373 447
#     4  10  23  45  68 107 149 186 246 301 373 457
#     4  11  24  42  75 102 143 199 243 309 374 439
#     4  11  23  44  69 102 141 185 251 303 364 447
#
# _framework density 23.668704000000002
#
# number of rings (size 3 to 8) (size 9 to 14) (size 15 to 20)
#    0.000    1.600    2.000    1.800    5.600    4.800 
#    7.200    0.000    0.000    0.000    0.000    0.000 
#    0.000    0.000    0.000    0.000    0.000    0.000 
#
# Total GULP energy -223017.930968 kJ/mol
# GULP energy per Si atom -5575.448274 kJ/mol
# Density = 2.361483 g / cm^3
# Si number density = 23.668704 Si / 1000 Ang^3
#
#
#
# Elastic Constant Matrix: (Units=GPa)
#
#
# Indices 1 2 3 4 5 6 
#
# 1 60.0026 21.2281 41.9267 0.0000 0.0000 0.0000
# 2 21.2281 60.0026 41.9267 0.0000 0.0000 0.0000
# 3 41.9267 41.9267 154.6220 0.0000 0.0000 0.0000
# 4 0.0000 0.0000 0.0000 40.0975 0.0000 0.0000
# 5 0.0000 0.0000 0.0000 0.0000 40.0975 0.0000
# 6 0.0000 0.0000 0.0000 0.0000 0.0000 25.9189
#
#
#
# Elastic Compliance Matrix: (Units=1/GPa)
#
#
# Indices 1 2 3 4 5 6 
#
# 1 0.021443 -0.004347 -0.004636 0.000000 0.000000 0.000000
# 2 -0.004347 0.021443 -0.004636 0.000000 0.000000 0.000000
# 3 -0.004636 -0.004636 0.008981 0.000000 0.000000 0.000000
# 4 0.000000 0.000000 0.000000 0.024939 0.000000 0.000000
# 5 0.000000 0.000000 0.000000 0.000000 0.024939 0.000000
# 6 0.000000 0.000000 0.000000 0.000000 0.000000 0.038582
#
#
# Mechanical properties :
#
#
# Convention : Reuss Voigt Hill
#
# Bulk Modulus (GPa) = 40.59991 53.86559 47.23275
# Shear Modulus (GPa) = 28.44544 32.52579 30.48562
#
# Velocity S-wave (km/s) = 3.47048 3.71106 3.59278
# Velocity P-wave (km/s) = 5.76625 6.41640 6.09999
#
# Compressibility (1/GPa) = 0.02463060
#
# Stress axis : x y z
#
# Youngs Moduli (GPa) = 46.63511 46.63511 111.34148
#
# Poissons Ratio (x) = 0.20273 0.51614
# Poissons Ratio (y) = 0.20273 0.51614
# Poissons Ratio (z) = 0.21619 0.21619
#
# Static dielectric constant tensor:
#      x y z
#    x 1.906410 0.000000 0.000000 
#    y 0.000000 1.906410 0.000000 
#    z 0.000000 0.000000 2.018320 
# 
# From -- ./inp_files/7360.got.cif
#   From: 2010.05.17/outbox.cif.g08.bks.cpg/sg95_4_cif.got.tgz:7360.got - 2010.06.03 19:46:49.
