data_PCOD9550668
_publ_section_title
;
Structure prediction by ZEFSAII (Michael W. Deem and Ramdas Pophale) SiO2 
 PCOD9550668
Probable space group: P 43 2 2
;
_chemical_formula_sum "Si O2"
_cell_formula_units_Z 24
_cell_length_a 7.873077
_cell_length_b 7.873077
_cell_length_c 15.799837
_cell_angle_alpha 90.000000
_cell_angle_beta 90.000000
_cell_angle_gamma 90.000000
_cell_volume 979.358291
_symmetry_space_group_name_H-M "P 43 2 2"
_symmetry_group_IT_number 95
_symmetry_cell_setting 'tetragonal'
loop_
_space_group_symop_operation_xyz
x,y,z
-y,x,3/4+z
-x,-y,1/2+z
y,-x,1/4+z
x,-y,1/2-z
-x,y,-z
y,x,1/4-z
-y,-x,3/4-z
loop_
_atom_site_type_symbol
_atom_site_label
_atom_site_fract_x
_atom_site_fract_y
_atom_site_fract_z
Si Si1 0.204933 0.325609 0.492750
Si Si2 0.942440 0.180949 0.783584
Si Si3 0.648998 0.356031 0.066953
O O1 0.270561 0.127973 0.480370
O O2 0.265116 0.458413 0.564818
O O3 0.283031 0.406633 0.407226
O O4 0.000000 0.332466 0.500000
O O5 0.795181 0.237532 0.720684
O O6 0.993877 0.000000 0.750000
O O7 0.855008 0.144993 0.875000
O O8 0.500000 0.362901 0.000000
#
# Coordination Sequence:
#
# PCOD9550668 Si02
#       3
#     8   8   8
#     4  11  27  47  76 113 151 204 267 324 403 478
#     4  11  22  45  76 104 146 204 261 321 393 480
#     4  12  26  47  73 109 155 200 258 326 406 472
#
# _framework density 24.505842000000001
#
# number of rings (size 3 to 8) (size 9 to 14) (size 15 to 20)
#    0.000    0.667    3.333    4.000    4.667    1.333 
#    6.000    0.000    0.000    0.000    0.000    0.000 
#    0.000    0.000    0.000    0.000    0.000    0.000 
#
# Total GULP energy -133674.064666 kJ/mol
# GULP energy per Si atom -5569.752694 kJ/mol
# Density = 2.445007 g / cm^3
# Si number density = 24.505842 Si / 1000 Ang^3
#
#
#
# Elastic Constant Matrix: (Units=GPa)
#
#
# Indices 1 2 3 4 5 6 
#
# 1 95.4871 67.3169 34.2168 0.0000 0.0000 0.0000
# 2 67.3169 95.4871 34.2167 0.0000 0.0000 0.0000
# 3 34.2168 34.2167 108.5864 0.0000 0.0000 0.0000
# 4 0.0000 0.0000 0.0000 79.0590 0.0000 0.0000
# 5 0.0000 0.0000 0.0000 0.0000 79.0605 0.0000
# 6 0.0000 0.0000 0.0000 0.0000 0.0000 53.5317
#
#
#
# Elastic Compliance Matrix: (Units=1/GPa)
#
#
# Indices 1 2 3 4 5 6 
#
# 1 0.021289 -0.014209 -0.002231 0.000000 0.000000 0.000000
# 2 -0.014209 0.021289 -0.002231 0.000000 0.000000 0.000000
# 3 -0.002231 -0.002231 0.010615 0.000000 0.000000 0.000000
# 4 0.000000 0.000000 0.000000 0.012649 0.000000 0.000000
# 5 0.000000 0.000000 0.000000 0.000000 0.012649 0.000000
# 6 0.000000 0.000000 0.000000 0.000000 0.000000 0.018681
#
#
# Mechanical properties :
#
#
# Convention : Reuss Voigt Hill
#
# Bulk Modulus (GPa) = 63.08560 63.45126 63.26843
# Shear Modulus (GPa) = 35.76590 53.25093 44.50842
#
# Velocity S-wave (km/s) = 3.82446 4.66659 4.26636
# Velocity P-wave (km/s) = 6.73060 7.41516 7.08116
#
# Compressibility (1/GPa) = 0.01585148
#
# Stress axis : x y z
#
# Youngs Moduli (GPa) = 46.97195 46.97198 94.20367
#
# Poissons Ratio (x) = 0.66743 0.21017
# Poissons Ratio (y) = 0.66743 0.21017
# Poissons Ratio (z) = 0.10480 0.10480
#
# Static dielectric constant tensor:
#      x y z
#    x 1.993620 0.000000 0.000000 
#    y 0.000000 1.993630 0.000000 
#    z 0.000000 0.000000 1.603650 
# 
# From -- ./inp_files/4309.got.cif
#   From: 2010.05.17/outbox.cif.g08.bks.cpg/sg95_3_cif.got.tgz:4309.got - 2010.06.03 19:46:49.
