data_PCOD9550622
_publ_section_title
;
Structure prediction by ZEFSAII (Michael W. Deem and Ramdas Pophale) SiO2 
 PCOD9550622
Probable space group: P 43 2 2
;
_chemical_formula_sum "Si O2"
_cell_formula_units_Z 36
_cell_length_a 11.904967
_cell_length_b 11.904967
_cell_length_c 10.938139
_cell_angle_alpha 90.000000
_cell_angle_beta 90.000000
_cell_angle_gamma 90.000000
_cell_volume 1550.243181
_symmetry_space_group_name_H-M "P 43 2 2"
_symmetry_group_IT_number 95
_symmetry_cell_setting 'tetragonal'
loop_
_space_group_symop_operation_xyz
x,y,z
-y,x,3/4+z
-x,-y,1/2+z
y,-x,1/4+z
x,-y,1/2-z
-x,y,-z
y,x,1/4-z
-y,-x,3/4-z
loop_
_atom_site_type_symbol
_atom_site_label
_atom_site_fract_x
_atom_site_fract_y
_atom_site_fract_z
Si Si1 0.124776 0.288194 0.490491
Si Si2 0.482079 0.192829 0.269637
Si Si3 0.905073 0.275537 0.893407
Si Si4 0.568686 0.568686 0.125000
Si Si5 0.119455 0.316559 0.774068
O O1 0.132304 0.416636 0.445886
O O2 0.150786 0.318161 0.632874
O O3 0.214654 0.202630 0.432786
O O4 0.000000 0.239214 0.500000
O O5 0.375825 0.180172 0.177659
O O6 0.530207 0.310583 0.319500
O O7 0.424591 0.139543 0.391328
O O8 0.836424 0.163577 0.875000
O O9 0.986757 0.294072 0.779156
O O10 0.000000 0.267944 0.000000
O O11 0.552618 0.500000 0.250000
#
# Coordination Sequence:
#
# PCOD9550622 Si02
#       5
#     8   8   8   4   8
#     4  11  22  37  65  99 131 184 247 301 379 465
#     4  11  23  44  69  99 144 192 244 307 389 463
#     4  10  24  44  71  99 145 194 248 317 393 465
#     4  12  26  46  76 112 154 198 250 320 386 476
#     4  10  23  42  64 100 138 186 239 310 380 466
#
# _framework density 23.222161
#
# number of rings (size 3 to 8) (size 9 to 14) (size 15 to 20)
#    0.000    1.333    0.000    6.667    7.778    0.889 
#    0.000    0.000    0.000    0.000    0.000    0.000 
#    0.000    0.000    0.000    0.000    0.000    0.000 
#
# Total GULP energy -200411.445786 kJ/mol
# GULP energy per Si atom -5566.984605 kJ/mol
# Density = 2.316931 g / cm^3
# Si number density = 23.222161 Si / 1000 Ang^3
#
#
#
# Elastic Constant Matrix: (Units=GPa)
#
#
# Indices 1 2 3 4 5 6 
#
# 1 -603.8589 816.7266 23.0205 0.0000 0.0000 0.0000
# 2 816.7266 -603.8473 23.0174 0.0000 0.0000 0.0000
# 3 23.0205 23.0174 61.3174 0.0000 0.0000 0.0000
# 4 0.0000 0.0000 0.0000 24.3630 0.0000 0.0000
# 5 0.0000 0.0000 0.0000 0.0000 24.3645 0.0000
# 6 0.0000 0.0000 0.0000 0.0000 0.0000 29.0886
#
#
#
# Elastic Compliance Matrix: (Units=1/GPa)
#
#
# Indices 1 2 3 4 5 6 
#
# 1 0.002204 0.002908 -0.001919 0.000000 0.000000 0.000000
# 2 0.002908 0.002204 -0.001919 0.000000 0.000000 0.000000
# 3 -0.001919 -0.001919 0.017750 0.000000 0.000000 0.000000
# 4 0.000000 0.000000 0.000000 0.041046 0.000000 0.000000
# 5 0.000000 0.000000 0.000000 0.000000 0.041043 0.000000
# 6 0.000000 0.000000 0.000000 0.000000 0.000000 0.034378
#
#
# Mechanical properties :
#
#
# Convention : Reuss Voigt Hill
#
# Bulk Modulus (GPa) = 49.26667 64.34892 56.80779
# Shear Modulus (GPa) = 33.95542 -118.38032 -42.21245
#
# Velocity S-wave (km/s) = 3.82802 -7.14759 -4.26815
# Velocity P-wave (km/s) = 6.38747 6.35193 0.47578
#
# Compressibility (1/GPa) = 0.02029770
#
# Stress axis : x y z
#
# Youngs Moduli (GPa) = 453.64508 453.63477 56.33912
#
# Poissons Ratio (x) = -1.31932 0.10813
# Poissons Ratio (y) = -1.31935 0.10814
# Poissons Ratio (z) = 0.87069 0.87070
#
# Static dielectric constant tensor:
#      x y z
#    x 1.931600 0.000000 0.000000 
#    y 0.000000 1.931590 0.000000 
#    z 0.000000 0.000000 2.089080 
# 
# From -- ./inp_files/3558.got.cif
#   From: 2010.05.17/outbox.cif.g08.bks.cpg/sg95_2_cif.got.tgz:3558.got - 2010.06.03 19:46:49.
