data_PCOD9550484
_publ_section_title
;
Structure prediction by ZEFSAII (Michael W. Deem and Ramdas Pophale) SiO2 
 PCOD9550484
Probable space group: P 43 2 2
;
_chemical_formula_sum "Si O2"
_cell_formula_units_Z 36
_cell_length_a 14.344859
_cell_length_b 14.344859
_cell_length_c 8.809053
_cell_angle_alpha 90.000000
_cell_angle_beta 90.000000
_cell_angle_gamma 90.000000
_cell_volume 1812.682703
_symmetry_space_group_name_H-M "P 43 2 2"
_symmetry_group_IT_number 95
_symmetry_cell_setting 'tetragonal'
loop_
_space_group_symop_operation_xyz
x,y,z
-y,x,3/4+z
-x,-y,1/2+z
y,-x,1/4+z
x,-y,1/2-z
-x,y,-z
y,x,1/4-z
-y,-x,3/4-z
loop_
_atom_site_type_symbol
_atom_site_label
_atom_site_fract_x
_atom_site_fract_y
_atom_site_fract_z
Si Si1 0.411703 0.939767 0.389793
Si Si2 0.262198 0.605616 0.295850
Si Si3 0.790562 0.000000 0.250000
Si Si4 0.746064 0.206091 0.215970
Si Si5 0.966115 0.789400 0.332078
O O1 0.500000 0.937481 0.500000
O O2 0.389183 0.832081 0.353655
O O3 0.444708 0.000000 0.250000
O O4 0.314109 0.988691 0.436619
O O5 0.277268 0.500000 0.250000
O O6 0.350416 0.649585 0.375000
O O7 0.238951 0.671064 0.153113
O O8 0.733806 0.904026 0.253148
O O9 0.838571 0.006354 0.419703
O O10 0.740669 0.259332 0.375000
O O11 0.853863 0.214182 0.162451
O O12 0.000000 0.822892 0.500000
#
# Coordination Sequence:
#
# PCOD9550484 Si02
#       5
#     8   8   4   8   8
#     4  10  21  34  58  92 122 159 209 272 333 395
#     4  11  23  43  66  93 126 172 218 267 331 391
#     4  10  20  36  58  84 124 162 212 264 312 384
#     4  10  22  39  64  89 128 170 212 264 327 386
#     4  10  20  35  58  87 118 168 208 257 322 389
#
# _framework density 19.860067999999998
#
# number of rings (size 3 to 8) (size 9 to 14) (size 15 to 20)
#    0.000    1.778    2.222    2.667    1.556    1.778 
#    0.000    2.222   22.000    0.000    0.000    0.000 
#    0.000    0.000    0.000    0.000    0.000    0.000 
#
# Total GULP energy -200602.338059 kJ/mol
# GULP energy per Si atom -5572.287168 kJ/mol
# Density = 1.981487 g / cm^3
# Si number density = 19.860068 Si / 1000 Ang^3
#
#
#
# Elastic Constant Matrix: (Units=GPa)
#
#
# Indices 1 2 3 4 5 6 
#
# 1 111.1738 46.5197 25.3388 0.0000 0.0000 0.0000
# 2 46.5197 111.1768 25.3402 0.0000 0.0000 0.0000
# 3 25.3388 25.3402 141.5069 0.0000 0.0000 0.0000
# 4 0.0000 0.0000 0.0000 -7.0163 0.0000 0.0000
# 5 0.0000 0.0000 0.0000 0.0000 -7.0035 0.0000
# 6 0.0000 0.0000 0.0000 0.0000 0.0000 52.3722
#
#
#
# Elastic Compliance Matrix: (Units=1/GPa)
#
#
# Indices 1 2 3 4 5 6 
#
# 1 0.011098 -0.004369 -0.001205 0.000000 0.000000 0.000000
# 2 -0.004369 0.011097 -0.001205 0.000000 0.000000 0.000000
# 3 -0.001205 -0.001205 0.007498 0.000000 0.000000 0.000000
# 4 0.000000 0.000000 0.000000 -0.142525 0.000000 0.000000
# 5 0.000000 0.000000 0.000000 0.000000 -0.142785 0.000000
# 6 0.000000 0.000000 0.000000 0.000000 0.000000 0.019094
#
#
# Mechanical properties :
#
#
# Convention : Reuss Voigt Hill
#
# Bulk Modulus (GPa) = 61.97348 62.02832 62.00090
# Shear Modulus (GPa) = -22.97936 25.44773 1.23418
#
# Velocity S-wave (km/s) = -3.40525 3.58348 0.78917
# Velocity P-wave (km/s) = 3.97641 6.95861 5.66719
#
# Compressibility (1/GPa) = 0.01613593
#
# Stress axis : x y z
#
# Youngs Moduli (GPa) = 90.10876 90.11087 133.36344
#
# Poissons Ratio (x) = 0.39369 0.16068
# Poissons Ratio (y) = 0.39368 0.16069
# Poissons Ratio (z) = 0.10857 0.10858
#
# Static dielectric constant tensor:
#      x y z
#    x 1.690920 0.000000 0.000000 
#    y 0.000000 1.690920 0.000000 
#    z 0.000000 0.000000 1.460140 
# 
# From -- ./inp_files/2261.got.cif
#   From: 2010.05.17/outbox.cif.g08.bks.cpg/sg95_2_cif.got.tgz:2261.got - 2010.06.03 19:46:49.
