data_PCOD9550765
_publ_section_title
;
Structure prediction by ZEFSAII (Michael W. Deem and Ramdas Pophale) SiO2 
 PCOD9550765
Probable space group: P 43 21 2
;
_chemical_formula_sum "Si O2"
_cell_formula_units_Z 56
_cell_length_a 12.085432
_cell_length_b 12.085432
_cell_length_c 17.303511
_cell_angle_alpha 90.000000
_cell_angle_beta 90.000000
_cell_angle_gamma 90.000000
_cell_volume 2527.310441
_symmetry_space_group_name_H-M "P 43 21 2"
_symmetry_group_IT_number 96
_symmetry_cell_setting 'tetragonal'
loop_
_space_group_symop_operation_xyz
x,y,z
1/2-y,1/2+x,3/4+z
-x,-y,1/2+z
1/2+y,1/2-x,1/4+z
1/2+x,1/2-y,1/4-z
1/2-x,1/2+y,3/4-z
y,x,-z
-y,-x,1/2-z
loop_
_atom_site_type_symbol
_atom_site_label
_atom_site_fract_x
_atom_site_fract_y
_atom_site_fract_z
Si Si1 0.785788 0.398208 0.960819
Si Si2 0.958206 0.271764 0.493622
Si Si3 0.934502 0.580009 0.877501
Si Si4 0.050299 0.775463 0.428609
Si Si5 0.647765 0.597757 0.343260
Si Si6 0.495376 0.590528 0.122399
Si Si7 0.900649 0.382918 0.126404
O O1 0.856212 0.498069 0.925183
O O2 0.831658 0.287398 0.919920
O O3 0.661298 0.433906 0.943355
O O4 0.831168 0.384043 0.046671
O O5 0.912154 0.372113 0.545803
O O6 0.863802 0.222329 0.438745
O O7 0.048696 0.315796 0.433137
O O8 0.002139 0.175161 0.552323
O O9 0.050709 0.515222 0.867171
O O10 0.033994 0.827956 0.513160
O O11 0.958062 0.680628 0.426597
O O12 0.056505 0.874971 0.367417
O O13 0.526590 0.564703 0.370199
O O14 0.754446 0.583283 0.396958
#
# Coordination Sequence:
#
# PCOD9550765 Si02
#       7
#     8   8   8   8   8   8   8
#     4   9  19  35  58  93 123 159 210 273 325 395
#     4  10  20  35  60  90 125 162 209 271 330 391
#     4  10  19  36  61  91 126 160 216 266 322 397
#     4   9  19  36  59  87 122 167 210 260 333 386
#     4  10  22  39  59  90 127 169 218 270 329 401
#     4  10  21  38  60  89 128 168 216 269 331 398
#     4  10  20  37  61  89 125 166 215 267 321 393
#
# _framework density 22.157943
#
# number of rings (size 3 to 8) (size 9 to 14) (size 15 to 20)
#    0.000    2.286    1.429    1.714    0.000    6.286 
#    0.000    4.286    0.000    3.429    0.000    0.000 
#    0.000    0.000    0.000    0.000    0.000    0.000 
#
# Total GULP energy -311989.186233 kJ/mol
# GULP energy per Si atom -5571.235468 kJ/mol
# Density = 2.210751 g / cm^3
# Si number density = 22.157943 Si / 1000 Ang^3
#
#
#
# Elastic Constant Matrix: (Units=GPa)
#
#
# Indices 1 2 3 4 5 6 
#
# 1 112.0322 31.8939 10.9676 0.0000 0.0000 0.0000
# 2 31.8939 112.0322 10.9676 0.0000 0.0000 0.0000
# 3 10.9676 10.9676 17.9918 0.0000 0.0000 0.0000
# 4 0.0000 0.0000 0.0000 18.6761 0.0000 0.0000
# 5 0.0000 0.0000 0.0000 0.0000 18.6761 0.0000
# 6 0.0000 0.0000 0.0000 0.0000 0.0000 10.1114
#
#
#
# Elastic Compliance Matrix: (Units=1/GPa)
#
#
# Indices 1 2 3 4 5 6 
#
# 1 0.010069 -0.002409 -0.004669 0.000000 0.000000 0.000000
# 2 -0.002409 0.010069 -0.004669 0.000000 0.000000 0.000000
# 3 -0.004669 -0.004669 0.061273 0.000000 0.000000 0.000000
# 4 0.000000 0.000000 0.000000 0.053544 0.000000 0.000000
# 5 0.000000 0.000000 0.000000 0.000000 0.053544 0.000000
# 6 0.000000 0.000000 0.000000 0.000000 0.000000 0.098898
#
#
# Mechanical properties :
#
#
# Convention : Reuss Voigt Hill
#
# Bulk Modulus (GPa) = 17.26643 38.85714 28.06178
# Shear Modulus (GPa) = 15.14237 22.04121 18.59179
#
# Velocity S-wave (km/s) = 2.61700 3.15736 2.89979
# Velocity P-wave (km/s) = 4.11593 5.55575 4.88914
#
# Compressibility (1/GPa) = 0.05791586
#
# Stress axis : x y z
#
# Youngs Moduli (GPa) = 99.31444 99.31444 16.32028
#
# Poissons Ratio (x) = 0.23929 0.07620
# Poissons Ratio (y) = 0.23929 0.07620
# Poissons Ratio (z) = 0.46372 0.46372
#
# Static dielectric constant tensor:
#      x y z
#    x 1.892020 0.000000 0.000000 
#    y 0.000000 1.892020 0.000000 
#    z 0.000000 0.000000 1.911140 
# 
# From -- ./inp_files/3540.got.cif
#   From: 2010.05.17/outbox.cif.g08.bks.cpg/sg96_2_cif.got.tgz:3540.got - 2010.06.03 19:52:08.
