data_PCOD9550901
_publ_section_title
;
Structure prediction by ZEFSAII (Michael W. Deem and Ramdas Pophale) SiO2 
 PCOD9550901
Probable space group: P 43 21 2
;
_chemical_formula_sum "Si O2"
_cell_formula_units_Z 32
_cell_length_a 8.835550
_cell_length_b 8.835550
_cell_length_c 14.987257
_cell_angle_alpha 90.000000
_cell_angle_beta 90.000000
_cell_angle_gamma 90.000000
_cell_volume 1170.009350
_symmetry_space_group_name_H-M "P 43 21 2"
_symmetry_group_IT_number 96
_symmetry_cell_setting 'tetragonal'
loop_
_space_group_symop_operation_xyz
x,y,z
1/2-y,1/2+x,3/4+z
-x,-y,1/2+z
1/2+y,1/2-x,1/4+z
1/2+x,1/2-y,1/4-z
1/2-x,1/2+y,3/4-z
y,x,-z
-y,-x,1/2-z
loop_
_atom_site_type_symbol
_atom_site_label
_atom_site_fract_x
_atom_site_fract_y
_atom_site_fract_z
Si Si1 0.184379 0.668080 0.152423
Si Si2 0.425567 0.150756 0.325219
Si Si3 0.726806 0.963738 0.300559
Si Si4 0.375897 0.342487 0.830782
O O1 0.258251 0.833901 0.151600
O O2 0.280366 0.537024 0.200802
O O3 0.008819 0.665894 0.179371
O O4 0.202559 0.600415 0.049535
O O5 0.414935 0.270892 0.245119
O O6 0.593456 0.081776 0.325704
O O7 0.703865 0.813822 0.358971
O O8 0.876970 0.042339 0.337395
#
# Coordination Sequence:
#
# PCOD9550901 Si02
#       4
#     8   8   8   8
#     4  10  22  40  63  91 126 169 217 267 325 388
#     4  10  21  40  62  91 129 165 207 263 322 381
#     4  10  21  41  64  92 127 164 210 270 328 383
#     4  10  21  39  65  92 123 166 211 260 318 386
#
# _framework density 27.350210000000001
#
# number of rings (size 3 to 8) (size 9 to 14) (size 15 to 20)
#    0.000    2.000    0.000    3.750    0.000    2.000 
#    0.000   32.500    0.000    0.000    0.000    0.000 
#    0.000    0.000    0.000    0.000    0.000    0.000 
#
# Total GULP energy -178683.299224 kJ/mol
# GULP energy per Si atom -5583.853101 kJ/mol
# Density = 2.728796 g / cm^3
# Si number density = 27.350210 Si / 1000 Ang^3
#
#
#
# Elastic Constant Matrix: (Units=GPa)
#
#
# Indices 1 2 3 4 5 6 
#
# 1 12.6490 78.7815 19.6952 0.0000 0.0000 0.0000
# 2 78.7815 12.6490 19.6952 0.0000 0.0000 0.0000
# 3 19.6952 19.6952 62.2574 0.0000 0.0000 0.0000
# 4 0.0000 0.0000 0.0000 46.2216 0.0000 0.0000
# 5 0.0000 0.0000 0.0000 0.0000 46.2216 0.0000
# 6 0.0000 0.0000 0.0000 0.0000 0.0000 74.0043
#
#
#
# Elastic Compliance Matrix: (Units=1/GPa)
#
#
# Indices 1 2 3 4 5 6 
#
# 1 -0.001229 0.013892 -0.004006 0.000000 0.000000 0.000000
# 2 0.013892 -0.001229 -0.004006 0.000000 0.000000 0.000000
# 3 -0.004006 -0.004006 0.018597 0.000000 0.000000 0.000000
# 4 0.000000 0.000000 0.000000 0.021635 0.000000 0.000000
# 5 0.000000 0.000000 0.000000 0.000000 0.021635 0.000000
# 6 0.000000 0.000000 0.000000 0.000000 0.000000 0.013513
#
#
# Mechanical properties :
#
#
# Convention : Reuss Voigt Hill
#
# Bulk Modulus (GPa) = 35.84325 35.98878 35.91601
# Shear Modulus (GPa) = 70.96135 31.24839 51.10487
#
# Velocity S-wave (km/s) = 5.09919 3.38380 4.32735
# Velocity P-wave (km/s) = 6.91396 5.33422 6.17481
#
# Compressibility (1/GPa) = 0.02789926
#
# Stress axis : x y z
#
# Youngs Moduli (GPa) = -813.66242 -813.66242 53.77231
#
# Poissons Ratio (x) = 11.30352 0.21541
# Poissons Ratio (y) = 11.30352 0.21541
# Poissons Ratio (z) = -3.25952 -3.25952
#
# Static dielectric constant tensor:
#      x y z
#    x 2.142470 0.000000 0.000000 
#    y 0.000000 2.142470 0.000000 
#    z 0.000000 0.000000 2.349170 
# 
# From -- ./inp_files/3333.got.cif
#   From: 2010.05.17/outbox.cif.g08.bks.cpg/sg96_2_cif.got.tgz:3333.got - 2010.06.03 19:52:08.
