data_PCOD9550947
_publ_section_title
;
Structure prediction by ZEFSAII (Michael W. Deem and Ramdas Pophale) SiO2 
 PCOD9550947
Probable space group: P 43 21 2
;
_chemical_formula_sum "Si O2"
_cell_formula_units_Z 40
_cell_length_a 9.035566
_cell_length_b 9.035566
_cell_length_c 21.426821
_cell_angle_alpha 90.000000
_cell_angle_beta 90.000000
_cell_angle_gamma 90.000000
_cell_volume 1749.316798
_symmetry_space_group_name_H-M "P 43 21 2"
_symmetry_group_IT_number 96
_symmetry_cell_setting 'tetragonal'
loop_
_space_group_symop_operation_xyz
x,y,z
1/2-y,1/2+x,3/4+z
-x,-y,1/2+z
1/2+y,1/2-x,1/4+z
1/2+x,1/2-y,1/4-z
1/2-x,1/2+y,3/4-z
y,x,-z
-y,-x,1/2-z
loop_
_atom_site_type_symbol
_atom_site_label
_atom_site_fract_x
_atom_site_fract_y
_atom_site_fract_z
Si Si1 0.775852 0.056825 0.085573
Si Si2 0.473951 0.614062 0.872254
Si Si3 0.610574 0.754802 0.061260
Si Si4 0.205079 0.651236 0.794766
Si Si5 0.186506 0.661021 0.514907
O O1 0.676462 0.126946 0.139485
O O2 0.783840 0.164594 0.025303
O O3 0.937390 0.049398 0.117810
O O4 0.703194 0.902984 0.068092
O O5 0.648585 0.633266 0.879636
O O6 0.381144 0.661662 0.812016
O O7 0.407300 0.711251 0.929245
O O8 0.673407 0.673407 0.000000
O O9 0.436546 0.778262 0.045885
O O10 0.203722 0.796279 0.750000
O O11 0.146440 0.490190 0.775439
#
# Coordination Sequence:
#
# PCOD9550947 Si02
#       5
#     8   8   8   8   8
#     4  10  22  39  62  93 125 162 212 263 316 384
#     4   9  21  41  59  84 122 160 203 255 308 374
#     4  10  22  39  62  92 125 163 208 261 321 380
#     4  10  22  39  61  88 122 163 205 253 312 375
#     4   9  21  40  61  87 122 160 202 254 314 379
#
# _framework density 22.866071999999999
#
# number of rings (size 3 to 8) (size 9 to 14) (size 15 to 20)
#    0.000    2.400    0.000    0.000    0.000   18.400 
#    0.000    0.000    0.000    0.000    0.000    0.000 
#    0.000    0.000    0.000    0.000    0.000    0.000 
#
# Total GULP energy -222750.595730 kJ/mol
# GULP energy per Si atom -5568.764893 kJ/mol
# Density = 2.281403 g / cm^3
# Si number density = 22.866072 Si / 1000 Ang^3
#
#
#
# Elastic Constant Matrix: (Units=GPa)
#
#
# Indices 1 2 3 4 5 6 
#
# 1 121.0020 0.2990 15.5992 0.0000 0.0000 0.0000
# 2 0.2990 121.0027 15.6011 0.0000 0.0000 0.0000
# 3 15.5992 15.6011 47.9453 0.0000 0.0000 0.0000
# 4 0.0000 0.0000 0.0000 74.2304 0.0000 0.0000
# 5 0.0000 0.0000 0.0000 0.0000 73.9509 0.0000
# 6 0.0000 0.0000 0.0000 0.0000 0.0000 25.3566
#
#
#
# Elastic Compliance Matrix: (Units=1/GPa)
#
#
# Indices 1 2 3 4 5 6 
#
# 1 0.008641 0.000356 -0.002927 0.000000 0.000000 0.000000
# 2 0.000356 0.008641 -0.002928 0.000000 0.000000 0.000000
# 3 -0.002927 -0.002928 0.022762 0.000000 0.000000 0.000000
# 4 0.000000 0.000000 0.000000 0.013472 0.000000 0.000000
# 5 0.000000 0.000000 0.000000 0.000000 0.013522 0.000000
# 6 0.000000 0.000000 0.000000 0.000000 0.000000 0.039437
#
#
# Mechanical properties :
#
#
# Convention : Reuss Voigt Hill
#
# Bulk Modulus (GPa) = 34.42761 39.21649 36.82205
# Shear Modulus (GPa) = 39.32218 51.93762 45.62990
#
# Velocity S-wave (km/s) = 4.15139 4.77107 4.47198
# Velocity P-wave (km/s) = 6.16990 6.89482 6.54241
#
# Compressibility (1/GPa) = 0.02904646
#
# Stress axis : x y z
#
# Youngs Moduli (GPa) = 115.72991 115.72937 43.93270
#
# Poissons Ratio (x) = -0.04121 0.12860
# Poissons Ratio (y) = -0.04121 0.12861
# Poissons Ratio (z) = 0.33876 0.33880
#
# Static dielectric constant tensor:
#      x y z
#    x -0.642100 0.000000 0.000000 
#    y 0.000000 -0.628520 0.000000 
#    z 0.000000 0.000000 1.979520 
# 
# From -- ./inp_files/3770.got.cif
#   From: 2010.05.17/outbox.cif.g08.bks.cpg/sg96_2_cif.got.tgz:3770.got - 2010.06.03 19:52:08.
