data_PCOD9550819
_publ_section_title
;
Structure prediction by ZEFSAII (Michael W. Deem and Ramdas Pophale) SiO2 
 PCOD9550819
Probable space group: P 43 21 2
;
_chemical_formula_sum "Si O2"
_cell_formula_units_Z 36
_cell_length_a 14.267339
_cell_length_b 14.267339
_cell_length_c 6.313344
_cell_angle_alpha 90.000000
_cell_angle_beta 90.000000
_cell_angle_gamma 90.000000
_cell_volume 1285.125126
_symmetry_space_group_name_H-M "P 43 21 2"
_symmetry_group_IT_number 96
_symmetry_cell_setting 'tetragonal'
loop_
_space_group_symop_operation_xyz
x,y,z
1/2-y,1/2+x,3/4+z
-x,-y,1/2+z
1/2+y,1/2-x,1/4+z
1/2+x,1/2-y,1/4-z
1/2-x,1/2+y,3/4-z
y,x,-z
-y,-x,1/2-z
loop_
_atom_site_type_symbol
_atom_site_label
_atom_site_fract_x
_atom_site_fract_y
_atom_site_fract_z
Si Si1 0.215869 0.118996 0.254040
Si Si2 0.389911 0.049546 0.470131
Si Si3 0.044501 0.725140 0.496429
Si Si4 0.282847 0.282847 0.500000
Si Si5 0.114857 0.885144 0.750000
Si Si6 0.050930 0.050930 0.500000
O O1 0.281650 0.072473 0.439051
O O2 0.236271 0.228216 0.298238
O O3 0.111090 0.089547 0.303762
O O4 0.249451 0.063363 0.047449
O O5 0.442592 0.085619 0.675658
O O6 0.435476 0.115078 0.282042
O O7 0.108805 0.764124 0.299010
O O8 0.087269 0.778602 0.697208
O O9 0.075899 0.945031 0.552571
#
# Coordination Sequence:
#
# PCOD9550819 Si02
#       6
#     8   8   8   4   4   4
#     4   9  19  37  59  81 113 152 194 243 298 356
#     4   9  19  36  57  81 109 142 182 230 285 347
#     4  10  20  37  57  85 118 152 194 244 297 355
#     4   9  18  37  62  86 116 155 198 249 304 360
#     4  12  24  37  58  86 120 159 200 248 298 354
#     4  11  22  36  54  82 112 154 198 241 294 350
#
# _framework density 28.012834000000002
#
# number of rings (size 3 to 8) (size 9 to 14) (size 15 to 20)
#    0.000    2.222    0.000    2.667    0.000    1.778 
#    0.000   20.000    0.000    0.000    0.000    0.000 
#    0.000    0.000    0.000    0.000    0.000    0.000 
#
# Total GULP energy -201097.862958 kJ/mol
# GULP energy per Si atom -5586.051749 kJ/mol
# Density = 2.794908 g / cm^3
# Si number density = 28.012834 Si / 1000 Ang^3
#
#
#
# Elastic Constant Matrix: (Units=GPa)
#
#
# Indices 1 2 3 4 5 6 
#
# 1 96.3534 -9.3790 40.1841 0.0000 0.0000 0.0000
# 2 -9.3790 96.3519 40.1839 0.0000 0.0000 0.0000
# 3 40.1841 40.1839 58.2953 0.0000 0.0000 0.0000
# 4 0.0000 0.0000 0.0000 47.9257 0.0000 0.0000
# 5 0.0000 0.0000 0.0000 0.0000 47.9264 0.0000
# 6 0.0000 0.0000 0.0000 0.0000 0.0000 29.6011
#
#
#
# Elastic Compliance Matrix: (Units=1/GPa)
#
#
# Indices 1 2 3 4 5 6 
#
# 1 0.020564 0.011107 -0.021831 0.000000 0.000000 0.000000
# 2 0.011107 0.020565 -0.021832 0.000000 0.000000 0.000000
# 3 -0.021831 -0.021832 0.047252 0.000000 0.000000 0.000000
# 4 0.000000 0.000000 0.000000 0.020866 0.000000 0.000000
# 5 0.000000 0.000000 0.000000 0.000000 0.020865 0.000000
# 6 0.000000 0.000000 0.000000 0.000000 0.000000 0.033783
#
#
# Mechanical properties :
#
#
# Convention : Reuss Voigt Hill
#
# Bulk Modulus (GPa) = 42.97741 43.66428 43.32085
# Shear Modulus (GPa) = 21.11817 37.09142 29.10479
#
# Velocity S-wave (km/s) = 2.74866 3.64275 3.22682
# Velocity P-wave (km/s) = 5.04468 5.77182 5.42046
#
# Compressibility (1/GPa) = 0.02326804
#
# Stress axis : x y z
#
# Youngs Moduli (GPa) = 48.62791 48.62703 21.16324
#
# Poissons Ratio (x) = -0.54008 0.46202
# Poissons Ratio (y) = -0.54009 0.46203
# Poissons Ratio (z) = 1.06161 1.06161
#
# Static dielectric constant tensor:
#      x y z
#    x 2.140240 0.000000 0.000000 
#    y 0.000000 2.140240 0.000000 
#    z 0.000000 0.000000 2.182300 
# 
# From -- ./inp_files/1257.got.cif
#   From: 2010.05.17/outbox.cif.g08.bks.cpg/sg96_1_cif.got.tgz:1257.got - 2010.06.03 19:52:08.
