data_PCOD9550711
_publ_section_title
;
Structure prediction by ZEFSAII (Michael W. Deem and Ramdas Pophale) SiO2 
 PCOD9550711
Probable space group: P 43 21 2
;
_chemical_formula_sum "Si O2"
_cell_formula_units_Z 56
_cell_length_a 17.406981
_cell_length_b 17.406981
_cell_length_c 8.114508
_cell_angle_alpha 90.000000
_cell_angle_beta 90.000000
_cell_angle_gamma 90.000000
_cell_volume 2458.720166
_symmetry_space_group_name_H-M "P 43 21 2"
_symmetry_group_IT_number 96
_symmetry_cell_setting 'tetragonal'
loop_
_space_group_symop_operation_xyz
x,y,z
1/2-y,1/2+x,3/4+z
-x,-y,1/2+z
1/2+y,1/2-x,1/4+z
1/2+x,1/2-y,1/4-z
1/2-x,1/2+y,3/4-z
y,x,-z
-y,-x,1/2-z
loop_
_atom_site_type_symbol
_atom_site_label
_atom_site_fract_x
_atom_site_fract_y
_atom_site_fract_z
Si Si1 0.027499 0.271734 0.360763
Si Si2 0.946180 0.252948 0.674145
Si Si3 0.211288 0.356615 0.732174
Si Si4 0.653157 0.553877 0.380651
Si Si5 0.608874 0.273949 0.570678
Si Si6 0.490555 0.603587 0.962820
Si Si7 0.980350 0.403525 0.144293
O O1 0.955445 0.281007 0.489092
O O2 0.002632 0.207281 0.233503
O O3 0.094386 0.242916 0.484942
O O4 0.034147 0.350612 0.262179
O O5 0.031592 0.268882 0.753265
O O6 0.951992 0.160058 0.680821
O O7 0.881000 0.284343 0.789861
O O8 0.293072 0.378350 0.807121
O O9 0.182759 0.269493 0.743176
O O10 0.151078 0.414116 0.818846
O O11 0.593444 0.593444 0.500000
O O12 0.620025 0.506771 0.227178
O O13 0.590623 0.361501 0.521446
O O14 0.518655 0.518655 0.000000
O O15 0.941260 0.469324 0.252313
#
# Coordination Sequence:
#
# PCOD9550711 Si02
#       7
#     8   8   8   8   8   8   8
#     4   8  19  29  42  61  78 107 146 190 224 256
#     4   7  16  27  43  58  74 111 138 176 217 257
#     4  10  18  31  43  56  83 112 146 184 225 263
#     4  10  17  29  46  65  85 109 149 189 230 264
#     4   8  17  28  44  55  81 110 148 173 228 257
#     4   8  15  28  46  62  80 108 143 180 214 266
#     4  11  24  28  38  55  79 115 157 190 217 251
#
# _framework density 22.776077000000001
#
# number of rings (size 3 to 8) (size 9 to 14) (size 15 to 20)
#    1.714    1.143    0.000    2.571    6.000    0.000 
#    0.000    0.000    0.000    0.000    0.000    0.000 
#    0.000    0.000    0.000    9.000    0.571    0.000 
#
# Total GULP energy -312074.125157 kJ/mol
# GULP energy per Si atom -5572.752235 kJ/mol
# Density = 2.272424 g / cm^3
# Si number density = 22.776077 Si / 1000 Ang^3
#
#
#
# Elastic Constant Matrix: (Units=GPa)
#
#
# Indices 1 2 3 4 5 6 
#
# 1 90.3054 32.2460 30.5584 0.0000 0.0000 0.0000
# 2 32.2460 90.3054 30.5584 0.0000 0.0000 0.0000
# 3 30.5584 30.5584 82.2577 0.0000 0.0000 0.0000
# 4 0.0000 0.0000 0.0000 7.0420 0.0000 0.0000
# 5 0.0000 0.0000 0.0000 0.0000 7.0420 0.0000
# 6 0.0000 0.0000 0.0000 0.0000 0.0000 39.4995
#
#
#
# Elastic Compliance Matrix: (Units=1/GPa)
#
#
# Indices 1 2 3 4 5 6 
#
# 1 0.013620 -0.003604 -0.003721 0.000000 0.000000 0.000000
# 2 -0.003604 0.013620 -0.003721 0.000000 0.000000 0.000000
# 3 -0.003721 -0.003721 0.014921 0.000000 0.000000 0.000000
# 4 0.000000 0.000000 0.000000 0.142006 0.000000 0.000000
# 5 0.000000 0.000000 0.000000 0.000000 0.142006 0.000000
# 6 0.000000 0.000000 0.000000 0.000000 0.000000 0.025317
#
#
# Mechanical properties :
#
#
# Convention : Reuss Voigt Hill
#
# Bulk Modulus (GPa) = 49.82714 49.95491 49.89103
# Shear Modulus (GPa) = 13.14858 22.01706 17.58282
#
# Velocity S-wave (km/s) = 2.40531 3.11251 2.78148
# Velocity P-wave (km/s) = 5.44412 5.90742 5.68050
#
# Compressibility (1/GPa) = 0.02006938
#
# Stress axis : x y z
#
# Youngs Moduli (GPa) = 73.42383 73.42383 67.01808
#
# Poissons Ratio (x) = 0.26463 0.24935
# Poissons Ratio (y) = 0.26463 0.24935
# Poissons Ratio (z) = 0.27319 0.27319
#
# Static dielectric constant tensor:
#      x y z
#    x 1.883640 0.000000 0.000000 
#    y 0.000000 1.883640 0.000000 
#    z 0.000000 0.000000 2.153390 
# 
# From -- ./inp_files/1687.got.cif
#   From: 2010.05.17/outbox.cif.g08.bks.cpg/sg96_1_cif.got.tgz:1687.got - 2010.06.03 19:52:08.
