data_PCOD9550411
_publ_section_title
;
Structure prediction by ZEFSAII (Michael W. Deem and Ramdas Pophale) SiO2 
 PCOD9550411
Probable space group: P 43 2 2
;
_chemical_formula_sum "Si O2"
_cell_formula_units_Z 40
_cell_length_a 14.056821
_cell_length_b 14.056821
_cell_length_c 8.772558
_cell_angle_alpha 90.000000
_cell_angle_beta 90.000000
_cell_angle_gamma 90.000000
_cell_volume 1733.406726
_symmetry_space_group_name_H-M "P 43 2 2"
_symmetry_group_IT_number 95
_symmetry_cell_setting 'tetragonal'
loop_
_space_group_symop_operation_xyz
x,y,z
-y,x,3/4+z
-x,-y,1/2+z
y,-x,1/4+z
x,-y,1/2-z
-x,y,-z
y,x,1/4-z
-y,-x,3/4-z
loop_
_atom_site_type_symbol
_atom_site_label
_atom_site_fract_x
_atom_site_fract_y
_atom_site_fract_z
Si Si1 0.591364 0.000000 0.750000
Si Si2 0.679667 0.320522 0.198126
Si Si3 0.432880 0.146046 0.802288
Si Si4 0.273681 0.000000 0.750000
Si Si5 0.000000 0.108522 0.000000
Si Si6 0.766223 0.500000 0.250000
Si Si7 0.251523 0.105667 0.447791
O O1 0.526143 0.081833 0.829718
O O2 0.656392 0.053167 0.625854
O O3 0.657067 0.342934 0.375000
O O4 0.599827 0.249214 0.132530
O O5 0.705051 0.427135 0.145157
O O6 0.781526 0.267506 0.200212
O O7 0.343623 0.077608 0.825429
O O8 0.443452 0.168701 0.620447
O O9 0.226054 0.057065 0.610427
O O10 0.081393 0.171345 0.923636
O O11 0.955243 0.044758 0.875000
#
# Coordination Sequence:
#
# PCOD9550411 Si02
#       7
#     4   8   8   4   4   4   8
#     4  10  20  40  61  95 138 168 222 292 346 413
#     4  10  19  33  57  94 128 169 216 274 338 407
#     4  10  19  31  59  95 129 173 219 281 345 409
#     4  11  20  34  62 101 128 166 217 274 346 408
#     4  11  30  50  67  92 130 186 229 276 344 407
#     4  10  16  34  52  88 142 166 218 276 336 418
#     4  11  23  41  66  96 137 170 220 285 347 419
#
# _framework density 23.075944
#
# number of rings (size 3 to 8) (size 9 to 14) (size 15 to 20)
#    0.000    1.600    6.000    0.000    2.800    4.000 
#    0.000    0.000    0.000    0.000    0.000   42.000 
#    0.000    0.000    0.000    0.000    0.000    0.000 
#
# Total GULP energy -223049.431996 kJ/mol
# GULP energy per Si atom -5576.235800 kJ/mol
# Density = 2.302342 g / cm^3
# Si number density = 23.075944 Si / 1000 Ang^3
#
#
#
# Elastic Constant Matrix: (Units=GPa)
#
#
# Indices 1 2 3 4 5 6 
#
# 1 86.0442 63.5241 20.0543 0.0000 0.0000 0.0000
# 2 63.5241 86.0495 20.0551 0.0000 0.0000 0.0000
# 3 20.0543 20.0551 68.1939 0.0000 0.0000 0.0000
# 4 0.0000 0.0000 0.0000 36.5311 0.0000 0.0000
# 5 0.0000 0.0000 0.0000 0.0000 36.5383 0.0000
# 6 0.0000 0.0000 0.0000 0.0000 0.0000 27.0791
#
#
#
# Elastic Compliance Matrix: (Units=1/GPa)
#
#
# Indices 1 2 3 4 5 6 
#
# 1 0.025830 -0.018571 -0.002134 0.000000 0.000000 0.000000
# 2 -0.018571 0.025828 -0.002135 0.000000 0.000000 0.000000
# 3 -0.002134 -0.002135 0.015920 0.000000 0.000000 0.000000
# 4 0.000000 0.000000 0.000000 0.027374 0.000000 0.000000
# 5 0.000000 0.000000 0.000000 0.000000 0.027369 0.000000
# 6 0.000000 0.000000 0.000000 0.000000 0.000000 0.036929
#
#
# Mechanical properties :
#
#
# Convention : Reuss Voigt Hill
#
# Bulk Modulus (GPa) = 45.66658 49.72828 47.69743
# Shear Modulus (GPa) = 23.55965 29.14000 26.34983
#
# Velocity S-wave (km/s) = 3.19872 3.55743 3.38283
# Velocity P-wave (km/s) = 5.78576 6.20245 5.99772
#
# Compressibility (1/GPa) = 0.02189785
#
# Stress axis : x y z
#
# Youngs Moduli (GPa) = 38.71517 38.71753 62.81595
#
# Poissons Ratio (x) = 0.71901 0.13408
# Poissons Ratio (y) = 0.71897 0.13408
# Poissons Ratio (z) = 0.08264 0.08264
#
# Static dielectric constant tensor:
#      x y z
#    x 1.902330 0.000000 0.000000 
#    y 0.000000 1.902310 0.000000 
#    z 0.000000 0.000000 1.873990 
# 
# From -- ./inp_files/2496.got.cif
#   From: 2010.05.17/outbox.cif.g08.bks.cpg/sg95_2_cif.got.tgz:2496.got - 2010.06.03 19:46:49.
