data_PCOD9550720
_publ_section_title
;
Structure prediction by ZEFSAII (Michael W. Deem and Ramdas Pophale) SiO2 
 PCOD9550720
Probable space group: P 43 21 2
;
_chemical_formula_sum "Si O2"
_cell_formula_units_Z 40
_cell_length_a 15.409392
_cell_length_b 15.409392
_cell_length_c 9.247227
_cell_angle_alpha 90.000000
_cell_angle_beta 90.000000
_cell_angle_gamma 90.000000
_cell_volume 2195.748150
_symmetry_space_group_name_H-M "P 43 21 2"
_symmetry_group_IT_number 96
_symmetry_cell_setting 'tetragonal'
loop_
_space_group_symop_operation_xyz
x,y,z
1/2-y,1/2+x,3/4+z
-x,-y,1/2+z
1/2+y,1/2-x,1/4+z
1/2+x,1/2-y,1/4-z
1/2-x,1/2+y,3/4-z
y,x,-z
-y,-x,1/2-z
loop_
_atom_site_type_symbol
_atom_site_label
_atom_site_fract_x
_atom_site_fract_y
_atom_site_fract_z
Si Si1 0.191496 0.320858 0.086847
Si Si2 0.838950 0.811446 0.831764
Si Si3 0.827468 0.044678 0.159018
Si Si4 0.945663 0.075937 0.917789
Si Si5 0.287831 0.577953 0.671282
O O1 0.183141 0.277450 0.245466
O O2 0.231888 0.415510 0.073649
O O3 0.262758 0.262758 0.000000
O O4 0.102184 0.300028 0.003187
O O5 0.790134 0.887360 0.742178
O O6 0.942243 0.829773 0.813210
O O7 0.814754 0.814754 0.000000
O O8 0.899494 0.100506 0.250000
O O9 0.854439 0.063052 0.993894
O O10 0.944789 0.055212 0.750000
O O11 0.983065 0.172822 0.937299
O O12 0.008663 0.008663 0.000000
O O13 0.360323 0.639678 0.750000
#
# Coordination Sequence:
#
# PCOD9550720 Si02
#       5
#     8   8   8   8   8
#     4   8  18  32  44  62  91 127 156 183 228 288
#     4  10  18  29  46  67  93 122 150 189 238 279
#     4  11  19  29  47  71  93 120 162 195 224 281
#     4  11  19  27  44  73 101 121 147 191 245 296
#     4   8  15  29  42  59  94 126 145 174 233 290
#
# _framework density 18.217026000000001
#
# number of rings (size 3 to 8) (size 9 to 14) (size 15 to 20)
#    0.000    2.800    0.000    7.200    0.000    0.800 
#    0.000    0.000    0.000    0.000    0.000   14.000 
#    0.000    0.000    0.000    0.000    0.000    0.000 
#
# Total GULP energy -222718.297490 kJ/mol
# GULP energy per Si atom -5567.957437 kJ/mol
# Density = 1.817556 g / cm^3
# Si number density = 18.217026 Si / 1000 Ang^3
#
#
#
# Elastic Constant Matrix: (Units=GPa)
#
#
# Indices 1 2 3 4 5 6 
#
# 1 36.9697 31.3295 18.8725 0.0000 0.0000 0.0000
# 2 31.3295 36.9706 18.8717 0.0000 0.0000 0.0000
# 3 18.8725 18.8717 135.2431 0.0000 0.0000 0.0000
# 4 0.0000 0.0000 0.0000 6.6166 0.0000 0.0000
# 5 0.0000 0.0000 0.0000 0.0000 6.6168 0.0000
# 6 0.0000 0.0000 0.0000 0.0000 0.0000 20.7960
#
#
#
# Elastic Compliance Matrix: (Units=1/GPa)
#
#
# Indices 1 2 3 4 5 6 
#
# 1 0.096576 -0.080710 -0.002215 0.000000 0.000000 0.000000
# 2 -0.080710 0.096573 -0.002213 0.000000 0.000000 0.000000
# 3 -0.002215 -0.002213 0.008012 0.000000 0.000000 0.000000
# 4 0.000000 0.000000 0.000000 0.151134 0.000000 0.000000
# 5 0.000000 0.000000 0.000000 0.000000 0.151130 0.000000
# 6 0.000000 0.000000 0.000000 0.000000 0.000000 0.048086
#
#
# Mechanical properties :
#
#
# Convention : Reuss Voigt Hill
#
# Bulk Modulus (GPa) = 32.37685 38.59231 35.48458
# Shear Modulus (GPa) = 6.82984 16.14653 11.48819
#
# Velocity S-wave (km/s) = 1.93837 2.98038 2.51396
# Velocity P-wave (km/s) = 4.77715 5.75103 5.28656
#
# Compressibility (1/GPa) = 0.03088626
#
# Stress axis : x y z
#
# Youngs Moduli (GPa) = 10.35453 10.35488 124.81382
#
# Poissons Ratio (x) = 0.83574 0.27640
# Poissons Ratio (y) = 0.83571 0.27622
# Poissons Ratio (z) = 0.02293 0.02292
#
# Static dielectric constant tensor:
#      x y z
#    x 1.679960 0.000000 0.000000 
#    y 0.000000 1.679960 0.000000 
#    z 0.000000 0.000000 1.698830 
# 
# From -- ./inp_files/1417.got.cif
#   From: 2010.05.17/outbox.cif.g08.bks.cpg/sg96_1_cif.got.tgz:1417.got - 2010.06.03 19:52:08.
