data_PCOD9550483
_publ_section_title
;
Structure prediction by ZEFSAII (Michael W. Deem and Ramdas Pophale) SiO2 
 PCOD9550483
Probable space group: P 43 2 2
;
_chemical_formula_sum "Si O2"
_cell_formula_units_Z 60
_cell_length_a 17.222363
_cell_length_b 17.222363
_cell_length_c 9.622130
_cell_angle_alpha 90.000000
_cell_angle_beta 90.000000
_cell_angle_gamma 90.000000
_cell_volume 2854.017933
_symmetry_space_group_name_H-M "P 43 2 2"
_symmetry_group_IT_number 95
_symmetry_cell_setting 'tetragonal'
loop_
_space_group_symop_operation_xyz
x,y,z
-y,x,3/4+z
-x,-y,1/2+z
y,-x,1/4+z
x,-y,1/2-z
-x,y,-z
y,x,1/4-z
-y,-x,3/4-z
loop_
_atom_site_type_symbol
_atom_site_label
_atom_site_fract_x
_atom_site_fract_y
_atom_site_fract_z
Si Si1 0.715219 0.949452 0.389140
Si Si2 0.594104 0.326757 0.506883
Si Si3 0.839442 0.830988 0.463481
Si Si4 0.143559 0.414667 0.184838
Si Si5 0.054149 0.713021 0.635504
Si Si6 0.320137 0.407612 0.244479
Si Si7 0.423680 0.850359 0.093847
Si Si8 0.000000 0.076287 0.000000
O O1 0.776036 0.878459 0.376837
O O2 0.644428 0.914216 0.483346
O O3 0.697995 0.000000 0.250000
O O4 0.758222 0.007596 0.496820
O O5 0.500000 0.340230 0.500000
O O6 0.641234 0.358767 0.375000
O O7 0.636930 0.375654 0.622964
O O8 0.602991 0.235944 0.547569
O O9 0.818287 0.818287 0.625000
O O10 0.862990 0.749153 0.400966
O O11 0.923541 0.873349 0.467526
O O12 0.132264 0.500000 0.250000
O O13 0.230211 0.385423 0.223265
O O14 0.142271 0.424806 0.014854
O O15 0.078608 0.631188 0.697987
O O16 0.000000 0.707317 0.500000
O O17 0.320778 0.500000 0.250000
O O18 0.371552 0.371552 0.125000
O O19 0.500000 0.861063 0.000000
O O20 0.022221 0.022221 0.125000
#
# Coordination Sequence:
#
# PCOD9550483 Si02
#       8
#     8   8   8   8   8   8   8   4
#     4  12  29  47  73 114 150 185 253 310 370 454
#     4  11  25  43  67 104 151 193 247 314 374 452
#     4  11  21  43  71 100 142 190 240 295 356 445
#     4  11  26  48  74 103 144 192 247 311 378 452
#     4  12  23  48  73 104 143 191 242 300 372 438
#     4  11  23  40  69 102 141 195 251 300 378 455
#     4  11  26  46  73 105 140 192 246 305 376 444
#     4  10  20  34  60  94 134 184 226 274 350 422
#
# _framework density 21.022995000000002
#
# number of rings (size 3 to 8) (size 9 to 14) (size 15 to 20)
#    0.000    0.800    4.667    1.600   10.267    3.200 
#    0.000    0.000    0.000    0.000    0.000    0.000 
#    0.000    0.000    0.000    0.000    0.000    0.000 
#
# Total GULP energy -334531.832052 kJ/mol
# GULP energy per Si atom -5575.530534 kJ/mol
# Density = 2.097515 g / cm^3
# Si number density = 21.022995 Si / 1000 Ang^3
#
#
#
# Elastic Constant Matrix: (Units=GPa)
#
#
# Indices 1 2 3 4 5 6 
#
# 1 87.9259 61.3852 47.4974 0.0000 0.0000 0.0000
# 2 61.3852 87.9264 47.4975 0.0000 0.0000 0.0000
# 3 47.4974 47.4975 151.1049 0.0000 0.0000 0.0000
# 4 0.0000 0.0000 0.0000 35.4560 0.0000 0.0000
# 5 0.0000 0.0000 0.0000 0.0000 35.4558 0.0000
# 6 0.0000 0.0000 0.0000 0.0000 0.0000 16.8013
#
#
#
# Elastic Compliance Matrix: (Units=1/GPa)
#
#
# Indices 1 2 3 4 5 6 
#
# 1 0.023025 -0.014653 -0.002631 0.000000 0.000000 0.000000
# 2 -0.014653 0.023025 -0.002631 0.000000 0.000000 0.000000
# 3 -0.002631 -0.002631 0.008272 0.000000 0.000000 0.000000
# 4 0.000000 0.000000 0.000000 0.028204 0.000000 0.000000
# 5 0.000000 0.000000 0.000000 0.000000 0.028204 0.000000
# 6 0.000000 0.000000 0.000000 0.000000 0.000000 0.059519
#
#
# Mechanical properties :
#
#
# Convention : Reuss Voigt Hill
#
# Bulk Modulus (GPa) = 69.01531 71.07973 70.04752
# Shear Modulus (GPa) = 23.26546 28.91440 26.08993
#
# Velocity S-wave (km/s) = 3.33027 3.71262 3.52663
# Velocity P-wave (km/s) = 6.90560 7.22924 7.06928
#
# Compressibility (1/GPa) = 0.01448954
#
# Stress axis : x y z
#
# Youngs Moduli (GPa) = 43.43162 43.43185 120.88606
#
# Poissons Ratio (x) = 0.63641 0.31811
# Poissons Ratio (y) = 0.63640 0.31811
# Poissons Ratio (z) = 0.11429 0.11429
#
# Static dielectric constant tensor:
#      x y z
#    x 1.833940 0.000000 0.000000 
#    y 0.000000 1.833940 0.000000 
#    z 0.000000 0.000000 1.651680 
# 
# From -- ./inp_files/2837.got.cif
#   From: 2010.05.17/outbox.cif.g08.bks.cpg/sg95_2_cif.got.tgz:2837.got - 2010.06.03 19:46:49.
