data_PCOD9550050
_publ_section_title
;
Structure prediction by ZEFSAII (Michael W. Deem and Ramdas Pophale) SiO2 
 PCOD9550050
Probable space group: P 42 21 2
;
_chemical_formula_sum "Si O2"
_cell_formula_units_Z 38
_cell_length_a 8.698919
_cell_length_b 8.698919
_cell_length_c 22.132613
_cell_angle_alpha 90.000000
_cell_angle_beta 90.000000
_cell_angle_gamma 90.000000
_cell_volume 1674.801203
_symmetry_space_group_name_H-M "P 42 21 2"
_symmetry_group_IT_number 94
_symmetry_cell_setting 'tetragonal'
loop_
_space_group_symop_operation_xyz
x,y,z
1/2-y,1/2+x,1/2+z
-x,-y,z
1/2+y,1/2-x,1/2+z
1/2+x,1/2-y,1/2-z
1/2-x,1/2+y,1/2-z
y,x,-z
-y,-x,-z
loop_
_atom_site_type_symbol
_atom_site_label
_atom_site_fract_x
_atom_site_fract_y
_atom_site_fract_z
Si Si1 0.036887 0.279075 0.590747
Si Si2 0.111432 0.789351 0.938020
Si Si3 0.000000 0.500000 0.503733
Si Si4 0.835669 0.089535 0.286518
Si Si5 0.000000 0.000000 0.500000
Si Si6 0.946194 0.674709 0.827377
O O1 0.219929 0.313473 0.590358
O O2 0.016441 0.134753 0.547813
O O3 0.922748 0.391279 0.553549
O O4 0.985546 0.256051 0.658203
O O5 0.979533 0.782140 0.886599
O O6 0.112090 0.887911 0.000000
O O7 0.097965 0.615965 0.964821
O O8 0.838961 0.270794 0.303372
O O9 0.746924 0.052315 0.224958
O O10 0.000000 0.000000 0.284269
O O11 0.000000 0.500000 0.840210
#
# Coordination Sequence:
#
# PCOD9550050 Si02
#       6
#     8   8   4   8   2   8
#     4  11  23  39  67 101 138 180 241 295 369 445
#     4  10  21  42  67 101 140 190 233 301 369 447
#     4  10  20  38  64  96 138 182 232 284 370 424
#     4  12  27  47  72 109 144 192 250 311 373 459
#     4  12  20  36  64 104 134 174 230 300 348 464
#     4  12  26  47  77 102 146 196 249 308 383 446
#
# _framework density 22.689260000000001
#
# number of rings (size 3 to 8) (size 9 to 14) (size 15 to 20)
#    0.000    0.842    5.263    3.789    4.421    0.000 
#    7.579    0.000    0.000    0.000    0.000    0.000 
#    0.000    0.000    0.000    0.000    0.000    0.000 
#
# Total GULP energy -211638.771222 kJ/mol
# GULP energy per Si atom -5569.441348 kJ/mol
# Density = 2.263762 g / cm^3
# Si number density = 22.689260 Si / 1000 Ang^3
#
#
#
# Elastic Constant Matrix: (Units=GPa)
#
#
# Indices 1 2 3 4 5 6 
#
# 1 110.9973 29.0099 32.4717 0.0000 0.0000 0.0000
# 2 29.0099 110.9966 32.4717 0.0000 0.0000 0.0000
# 3 32.4717 32.4717 162.3125 0.0000 0.0000 0.0000
# 4 0.0000 0.0000 0.0000 31.6910 0.0000 0.0000
# 5 0.0000 0.0000 0.0000 0.0000 31.6909 0.0000
# 6 0.0000 0.0000 0.0000 0.0000 0.0000 30.6469
#
#
#
# Elastic Compliance Matrix: (Units=1/GPa)
#
#
# Indices 1 2 3 4 5 6 
#
# 1 0.010035 -0.002162 -0.001575 0.000000 0.000000 0.000000
# 2 -0.002162 0.010035 -0.001575 0.000000 0.000000 0.000000
# 3 -0.001575 -0.001575 0.006791 0.000000 0.000000 0.000000
# 4 0.000000 0.000000 0.000000 0.031555 0.000000 0.000000
# 5 0.000000 0.000000 0.000000 0.000000 0.031555 0.000000
# 6 0.000000 0.000000 0.000000 0.000000 0.000000 0.032630
#
#
# Mechanical properties :
#
#
# Convention : Reuss Voigt Hill
#
# Bulk Modulus (GPa) = 61.58728 63.57922 62.58325
# Shear Modulus (GPa) = 36.06537 38.16263 37.11400
#
# Velocity S-wave (km/s) = 3.99122 4.10563 4.04883
# Velocity P-wave (km/s) = 6.96007 7.11038 7.03562
#
# Compressibility (1/GPa) = 0.01623712
#
# Stress axis : x y z
#
# Youngs Moduli (GPa) = 99.65073 99.65005 147.25026
#
# Poissons Ratio (x) = 0.21544 0.23193
# Poissons Ratio (y) = 0.21544 0.23193
# Poissons Ratio (z) = 0.15696 0.15696
#
# Static dielectric constant tensor:
#      x y z
#    x 1.728250 0.000000 0.000000 
#    y 0.000000 1.728250 0.000000 
#    z 0.000000 0.000000 1.889980 
# 
# From -- ./inp_files/5009.got.cif
#   From: 2010.05.17/outbox.cif.g08.bks.cpg/sg94_3_cif.got.tgz:5009.got - 2010.06.03 19:43:16.
