data_PCOD9550211
_publ_section_title
;
Structure prediction by ZEFSAII (Michael W. Deem and Ramdas Pophale) SiO2 
 PCOD9550211
Probable space group: P 42 21 2
;
_chemical_formula_sum "Si O2"
_cell_formula_units_Z 32
_cell_length_a 8.578533
_cell_length_b 8.578533
_cell_length_c 22.065323
_cell_angle_alpha 90.000000
_cell_angle_beta 90.000000
_cell_angle_gamma 90.000000
_cell_volume 1623.814225
_symmetry_space_group_name_H-M "P 42 21 2"
_symmetry_group_IT_number 94
_symmetry_cell_setting 'tetragonal'
loop_
_space_group_symop_operation_xyz
x,y,z
1/2-y,1/2+x,1/2+z
-x,-y,z
1/2+y,1/2-x,1/2+z
1/2+x,1/2-y,1/2-z
1/2-x,1/2+y,1/2-z
y,x,-z
-y,-x,-z
loop_
_atom_site_type_symbol
_atom_site_label
_atom_site_fract_x
_atom_site_fract_y
_atom_site_fract_z
Si Si1 0.000000 0.000000 0.620302
Si Si2 0.500000 0.000000 0.137323
Si Si3 0.257871 0.221920 0.569871
Si Si4 0.765793 0.193795 0.702417
Si Si5 0.040230 0.817411 0.171334
O O1 0.899653 0.109772 0.664138
O O2 0.108599 0.112237 0.580981
O O3 0.616185 0.100367 0.095317
O O4 0.392465 0.109788 0.179036
O O5 0.267747 0.267747 0.500000
O O6 0.253596 0.375134 0.611850
O O7 0.761107 0.376410 0.688469
O O8 0.792160 0.158522 0.772873
O O9 0.000000 0.000000 0.164142
#
# Coordination Sequence:
#
# PCOD9550211 Si02
#       5
#     4   4   8   8   8
#     4  10  23  44  68  98 127 180 226 278 330 396
#     4  10  22  44  68  94 134 178 216 288 330 394
#     4  11  25  44  67  97 137 177 230 269 333 402
#     4  11  23  41  68  97 135 165 224 279 343 394
#     4  12  25  42  67 103 132 175 219 280 342 403
#
# _framework density 19.706689000000001
#
# number of rings (size 3 to 8) (size 9 to 14) (size 15 to 20)
#    0.000    1.000    3.750    3.375    0.000    3.500 
#    0.000    2.500    0.000    0.000    0.000    0.000 
#    0.000    0.000    0.000    0.000    0.000    0.000 
#
# Total GULP energy -179058.343715 kJ/mol
# GULP energy per Si atom -5595.573241 kJ/mol
# Density = 1.966184 g / cm^3
# Si number density = 19.706689 Si / 1000 Ang^3
#
#
#
# Elastic Constant Matrix: (Units=GPa)
#
#
# Indices 1 2 3 4 5 6 
#
# 1 115.1207 29.6784 41.0403 0.0000 0.0000 0.0000
# 2 29.6784 115.1207 41.0403 0.0000 0.0000 0.0000
# 3 41.0403 41.0403 153.4203 0.0000 0.0000 0.0000
# 4 0.0000 0.0000 0.0000 16.2931 0.0000 0.0000
# 5 0.0000 0.0000 0.0000 0.0000 16.2931 0.0000
# 6 0.0000 0.0000 0.0000 0.0000 0.0000 19.2814
#
#
#
# Elastic Compliance Matrix: (Units=1/GPa)
#
#
# Indices 1 2 3 4 5 6 
#
# 1 0.009922 -0.001782 -0.002178 0.000000 0.000000 0.000000
# 2 -0.001782 0.009922 -0.002178 0.000000 0.000000 0.000000
# 3 -0.002178 -0.002178 0.007683 0.000000 0.000000 0.000000
# 4 0.000000 0.000000 0.000000 0.061376 0.000000 0.000000
# 5 0.000000 0.000000 0.000000 0.000000 0.061376 0.000000
# 6 0.000000 0.000000 0.000000 0.000000 0.000000 0.051863
#
#
# Mechanical properties :
#
#
# Convention : Reuss Voigt Hill
#
# Bulk Modulus (GPa) = 65.55798 67.46442 66.51120
# Shear Modulus (GPa) = 22.77897 28.50035 25.63966
#
# Velocity S-wave (km/s) = 3.40354 3.80705 3.61094
# Velocity P-wave (km/s) = 6.98459 7.32349 7.15605
#
# Compressibility (1/GPa) = 0.01525367
#
# Stress axis : x y z
#
# Youngs Moduli (GPa) = 100.78448 100.78448 130.15619
#
# Poissons Ratio (x) = 0.17956 0.28343
# Poissons Ratio (y) = 0.17956 0.28343
# Poissons Ratio (z) = 0.21947 0.21947
#
# Static dielectric constant tensor:
#      x y z
#    x 1.715710 0.000000 0.000000 
#    y 0.000000 1.715710 0.000000 
#    z 0.000000 0.000000 1.641840 
# 
# From -- ./inp_files/4435.got.cif
#   From: 2010.05.17/outbox.cif.g08.bks.cpg/sg94_3_cif.got.tgz:4435.got - 2010.06.03 19:43:16.
