data_PCOD9550185
_publ_section_title
;
Structure prediction by ZEFSAII (Michael W. Deem and Ramdas Pophale) SiO2 
 PCOD9550185
Probable space group: P 42 21 2
;
_chemical_formula_sum "Si O2"
_cell_formula_units_Z 42
_cell_length_a 14.810464
_cell_length_b 14.810464
_cell_length_c 8.989643
_cell_angle_alpha 90.000000
_cell_angle_beta 90.000000
_cell_angle_gamma 90.000000
_cell_volume 1971.876789
_symmetry_space_group_name_H-M "P 42 21 2"
_symmetry_group_IT_number 94
_symmetry_cell_setting 'tetragonal'
loop_
_space_group_symop_operation_xyz
x,y,z
1/2-y,1/2+x,1/2+z
-x,-y,z
1/2+y,1/2-x,1/2+z
1/2+x,1/2-y,1/2-z
1/2-x,1/2+y,1/2-z
y,x,-z
-y,-x,-z
loop_
_atom_site_type_symbol
_atom_site_label
_atom_site_fract_x
_atom_site_fract_y
_atom_site_fract_z
Si Si1 0.500000 0.000000 0.920937
Si Si2 0.036418 0.169801 0.711832
Si Si3 0.664703 0.335298 0.500000
Si Si4 0.899059 0.233562 0.933237
Si Si5 0.000000 0.000000 0.500000
Si Si6 0.083192 0.311959 0.467249
Si Si7 0.553279 0.196459 0.347751
O O1 0.538238 0.089708 0.002973
O O2 0.411828 0.041212 0.839702
O O3 0.079731 0.247287 0.608682
O O4 0.946210 0.212892 0.779207
O O5 0.010240 0.085586 0.609794
O O6 0.098481 0.148102 0.857369
O O7 0.641293 0.236785 0.431794
O O8 0.828439 0.313862 0.920679
O O9 0.854384 0.145617 0.000000
O O10 0.973438 0.267914 0.049089
O O11 0.041060 0.268231 0.319648
#
# Coordination Sequence:
#
# PCOD9550185 Si02
#       7
#     4   8   4   8   2   8   8
#     4  10  22  44  72 102 142 180 232 302 362 424
#     4  11  26  44  69 103 136 188 236 291 361 424
#     4  10  24  43  65  98 139 182 223 284 360 426
#     4  10  25  43  66  94 143 181 223 286 361 418
#     4  12  28  42  78 100 142 178 244 300 336 442
#     4  11  23  44  70 103 134 179 240 290 347 428
#     4  10  22  41  68  96 134 180 231 284 354 422
#
# _framework density 21.299506000000001
#
# number of rings (size 3 to 8) (size 9 to 14) (size 15 to 20)
#    0.000    1.524    0.000    2.857   12.000    7.619 
#    0.000    1.905    0.000    0.000    0.000    0.000 
#    0.000    0.000    0.000    0.000    0.000    0.000 
#
# Total GULP energy -234295.303071 kJ/mol
# GULP energy per Si atom -5578.459597 kJ/mol
# Density = 2.125103 g / cm^3
# Si number density = 21.299506 Si / 1000 Ang^3
#
#
#
# Elastic Constant Matrix: (Units=GPa)
#
#
# Indices 1 2 3 4 5 6 
#
# 1 36.9316 100.8893 54.5389 0.0000 0.0000 0.0000
# 2 100.8893 36.9394 54.5662 0.0000 0.0000 0.0000
# 3 54.5389 54.5662 153.9339 0.0000 0.0000 0.0000
# 4 0.0000 0.0000 0.0000 93.2845 0.0000 0.0000
# 5 0.0000 0.0000 0.0000 0.0000 93.3328 0.0000
# 6 0.0000 0.0000 0.0000 0.0000 0.0000 34.3990
#
#
#
# Elastic Compliance Matrix: (Units=1/GPa)
#
#
# Indices 1 2 3 4 5 6 
#
# 1 -0.002775 0.012861 -0.003576 0.000000 0.000000 0.000000
# 2 0.012861 -0.002777 -0.003572 0.000000 0.000000 0.000000
# 3 -0.003576 -0.003572 0.009029 0.000000 0.000000 0.000000
# 4 0.000000 0.000000 0.000000 0.010720 0.000000 0.000000
# 5 0.000000 0.000000 0.000000 0.000000 0.010714 0.000000
# 6 0.000000 0.000000 0.000000 0.000000 0.000000 0.029071
#
#
# Mechanical properties :
#
#
# Convention : Reuss Voigt Hill
#
# Bulk Modulus (GPa) = 67.09947 71.97708 69.53828
# Shear Modulus (GPa) = 105.20730 45.39064 75.29897
#
# Velocity S-wave (km/s) = 7.03573 4.62135 5.95224
# Velocity P-wave (km/s) = 9.87791 7.89570 8.94190
#
# Compressibility (1/GPa) = 0.01490325
#
# Stress axis : x y z
#
# Youngs Moduli (GPa) = -360.38149 -360.14530 110.74900
#
# Poissons Ratio (x) = 4.63166 0.39600
# Poissons Ratio (y) = 4.63470 0.39562
# Poissons Ratio (z) = -1.28860 -1.28652
#
# Static dielectric constant tensor:
#      x y z
#    x 1.799960 0.000000 0.000000 
#    y 0.000000 1.799950 0.000000 
#    z 0.000000 0.000000 2.080550 
# 
# From -- ./inp_files/1520.got.cif
#   From: 2010.05.17/outbox.cif.g08.bks.cpg/sg94_1_cif.got.tgz:1520.got - 2010.06.03 19:43:16.
