data_PCOD9550960
_publ_section_title
;
Structure prediction by ZEFSAII (Michael W. Deem and Ramdas Pophale) SiO2 
 PCOD9550960
Probable space group: P 43 21 2
;
_chemical_formula_sum "Si O2"
_cell_formula_units_Z 48
_cell_length_a 8.399170
_cell_length_b 8.399170
_cell_length_c 29.101355
_cell_angle_alpha 90.000000
_cell_angle_beta 90.000000
_cell_angle_gamma 90.000000
_cell_volume 2052.985840
_symmetry_space_group_name_H-M "P 43 21 2"
_symmetry_group_IT_number 96
_symmetry_cell_setting 'tetragonal'
loop_
_space_group_symop_operation_xyz
x,y,z
1/2-y,1/2+x,3/4+z
-x,-y,1/2+z
1/2+y,1/2-x,1/4+z
1/2+x,1/2-y,1/4-z
1/2-x,1/2+y,3/4-z
y,x,-z
-y,-x,1/2-z
loop_
_atom_site_type_symbol
_atom_site_label
_atom_site_fract_x
_atom_site_fract_y
_atom_site_fract_z
Si Si1 0.946650 0.132274 0.538848
Si Si2 0.107264 0.522043 0.686576
Si Si3 0.774242 0.372047 0.484325
Si Si4 0.950900 0.204622 0.712502
Si Si5 0.251960 0.731784 0.617160
Si Si6 0.991477 0.033632 0.371261
O O1 0.773465 0.051766 0.547029
O O2 0.905377 0.304799 0.519416
O O3 0.035721 0.035721 0.500000
O O4 0.040782 0.112455 0.586345
O O5 0.980908 0.379776 0.692351
O O6 0.135013 0.593200 0.635986
O O7 0.043822 0.668622 0.717129
O O8 0.606650 0.352280 0.509104
O O9 0.761889 0.267501 0.437334
O O10 0.948786 0.082287 0.670227
O O11 0.811458 0.188543 0.750000
O O12 0.419513 0.657786 0.633624
O O13 0.198620 0.901232 0.638371
#
# Coordination Sequence:
#
# PCOD9550960 Si02
#       6
#     8   8   8   8   8   8
#     4  10  22  41  64  94 129 160 219 272 324 389
#     4  10  24  41  64  99 125 172 219 267 333 391
#     4  11  22  44  65  93 130 174 220 266 332 401
#     4  11  23  46  66  95 137 175 217 278 337 403
#     4  11  20  42  66  94 127 168 223 267 318 401
#     4  11  23  42  67  97 131 174 219 275 328 398
#
# _framework density 23.380578
#
# number of rings (size 3 to 8) (size 9 to 14) (size 15 to 20)
#    0.000    1.333    5.000    0.000    0.000    4.000 
#   15.000    0.000    0.000    0.000    0.000    0.000 
#    0.000    0.000    0.000    0.000    0.000    0.000 
#
# Total GULP energy -267959.533630 kJ/mol
# GULP energy per Si atom -5582.490284 kJ/mol
# Density = 2.332736 g / cm^3
# Si number density = 23.380578 Si / 1000 Ang^3
#
#
#
# Elastic Constant Matrix: (Units=GPa)
#
#
# Indices 1 2 3 4 5 6 
#
# 1 28.1928 9.8419 -6.1741 0.0000 0.0000 0.0000
# 2 9.8419 28.1926 -6.1741 0.0000 0.0000 0.0000
# 3 -6.1741 -6.1741 66.8688 0.0000 0.0000 0.0000
# 4 0.0000 0.0000 0.0000 25.1679 0.0000 0.0000
# 5 0.0000 0.0000 0.0000 0.0000 25.1681 0.0000
# 6 0.0000 0.0000 0.0000 0.0000 0.0000 29.2084
#
#
#
# Elastic Compliance Matrix: (Units=1/GPa)
#
#
# Indices 1 2 3 4 5 6 
#
# 1 0.040799 -0.013695 0.002503 0.000000 0.000000 0.000000
# 2 -0.013695 0.040799 0.002503 0.000000 0.000000 0.000000
# 3 0.002503 0.002503 0.015417 0.000000 0.000000 0.000000
# 4 0.000000 0.000000 0.000000 0.039733 0.000000 0.000000
# 5 0.000000 0.000000 0.000000 0.000000 0.039733 0.000000
# 6 0.000000 0.000000 0.000000 0.000000 0.000000 0.034237
#
#
# Mechanical properties :
#
#
# Convention : Reuss Voigt Hill
#
# Bulk Modulus (GPa) = 12.55717 13.13796 12.84756
# Shear Modulus (GPa) = 19.63546 24.29292 21.96419
#
# Velocity S-wave (km/s) = 2.90111 3.22688 3.06832
# Velocity P-wave (km/s) = 4.07484 4.41759 4.24967
#
# Compressibility (1/GPa) = 0.07963580
#
# Stress axis : x y z
#
# Youngs Moduli (GPa) = 24.51055 24.51037 64.86439
#
# Poissons Ratio (x) = 0.33566 -0.16233
# Poissons Ratio (y) = 0.33566 -0.16233
# Poissons Ratio (z) = -0.06134 -0.06134
#
# Static dielectric constant tensor:
#      x y z
#    x 1.935260 0.000000 0.000000 
#    y 0.000000 1.935260 0.000000 
#    z 0.000000 0.000000 1.868590 
# 
# From -- ./inp_files/4492.got.cif
#   From: 2010.05.17/outbox.cif.g08.bks.cpg/sg96_3_cif.got.tgz:4492.got - 2010.06.03 19:52:08.
