data_PCOD9550538
_publ_section_title
;
Structure prediction by ZEFSAII (Michael W. Deem and Ramdas Pophale) SiO2 
 PCOD9550538
Probable space group: P 43 2 2
;
_chemical_formula_sum "Si O2"
_cell_formula_units_Z 40
_cell_length_a 14.007155
_cell_length_b 14.007155
_cell_length_c 9.978301
_cell_angle_alpha 90.000000
_cell_angle_beta 90.000000
_cell_angle_gamma 90.000000
_cell_volume 1957.746560
_symmetry_space_group_name_H-M "P 43 2 2"
_symmetry_group_IT_number 95
_symmetry_cell_setting 'tetragonal'
loop_
_space_group_symop_operation_xyz
x,y,z
-y,x,3/4+z
-x,-y,1/2+z
y,-x,1/4+z
x,-y,1/2-z
-x,y,-z
y,x,1/4-z
-y,-x,3/4-z
loop_
_atom_site_type_symbol
_atom_site_label
_atom_site_fract_x
_atom_site_fract_y
_atom_site_fract_z
Si Si1 0.620892 0.131927 0.201856
Si Si2 0.500000 0.564868 0.500000
Si Si3 0.314153 0.691260 0.523571
Si Si4 0.051679 0.292809 0.699885
Si Si5 0.072361 0.072361 0.625000
Si Si6 0.139111 0.565889 0.616694
O O1 0.652671 0.222793 0.117380
O O2 0.675075 0.133049 0.344035
O O3 0.508702 0.121595 0.243481
O O4 0.660571 0.042615 0.116642
O O5 0.502659 0.497342 0.375000
O O6 0.409339 0.631210 0.502872
O O7 0.278434 0.721567 0.375000
O O8 0.236378 0.621536 0.587110
O O9 0.054786 0.178419 0.688394
O O10 0.068074 0.347476 0.840311
O O11 0.000000 0.060749 0.500000
O O12 0.142256 0.500000 0.750000
#
# Coordination Sequence:
#
# PCOD9550538 Si02
#       6
#     8   4   8   8   4   8
#     4  10  20  44  68  97 137 181 229 300 359 436
#     4  10  22  38  58  86 122 170 212 264 330 402
#     4  11  23  42  61  93 134 176 223 280 358 419
#     4  10  22  45  72  99 136 187 232 299 377 432
#     4  12  24  46  80 104 146 196 254 318 386 460
#     4  10  23  41  67 104 129 182 242 285 359 444
#
# _framework density 20.431654999999999
#
# number of rings (size 3 to 8) (size 9 to 14) (size 15 to 20)
#    0.000    1.600    2.000    3.600    1.400    2.400 
#   32.400    0.000    0.000    0.000    0.000    0.000 
#    0.000    0.000    0.000    0.000    0.000    0.000 
#
# Total GULP energy -222869.657040 kJ/mol
# GULP energy per Si atom -5571.741426 kJ/mol
# Density = 2.038515 g / cm^3
# Si number density = 20.431655 Si / 1000 Ang^3
#
#
#
# Elastic Constant Matrix: (Units=GPa)
#
#
# Indices 1 2 3 4 5 6 
#
# 1 146.0643 41.1316 53.6369 0.0000 0.0000 0.0000
# 2 41.1316 146.0546 53.6369 0.0000 0.0000 0.0000
# 3 53.6369 53.6369 78.0891 0.0000 0.0000 0.0000
# 4 0.0000 0.0000 0.0000 39.7936 0.0000 0.0000
# 5 0.0000 0.0000 0.0000 0.0000 39.7937 0.0000
# 6 0.0000 0.0000 0.0000 0.0000 0.0000 21.5983
#
#
#
# Elastic Compliance Matrix: (Units=1/GPa)
#
#
# Indices 1 2 3 4 5 6 
#
# 1 0.009170 -0.000360 -0.006051 0.000000 0.000000 0.000000
# 2 -0.000360 0.009171 -0.006052 0.000000 0.000000 0.000000
# 3 -0.006051 -0.006052 0.021119 0.000000 0.000000 0.000000
# 4 0.000000 0.000000 0.000000 0.025130 0.000000 0.000000
# 5 0.000000 0.000000 0.000000 0.000000 0.025130 0.000000
# 6 0.000000 0.000000 0.000000 0.000000 0.000000 0.046300
#
#
# Mechanical properties :
#
#
# Convention : Reuss Voigt Hill
#
# Bulk Modulus (GPa) = 68.80636 74.11321 71.45978
# Shear Modulus (GPa) = 30.15896 35.02397 32.59146
#
# Velocity S-wave (km/s) = 3.84616 4.14478 3.99826
# Velocity P-wave (km/s) = 7.31255 7.69793 7.50771
#
# Compressibility (1/GPa) = 0.01453354
#
# Stress axis : x y z
#
# Youngs Moduli (GPa) = 109.05432 109.04461 47.35134
#
# Poissons Ratio (x) = 0.03928 0.28652
# Poissons Ratio (y) = 0.03928 0.28655
# Poissons Ratio (z) = 0.65989 0.65989
#
# Static dielectric constant tensor:
#      x y z
#    x 1.767180 0.000000 0.000000 
#    y 0.000000 1.767180 0.000000 
#    z 0.000000 0.000000 1.856160 
# 
# From -- ./inp_files/2436.got.cif
#   From: 2010.05.17/outbox.cif.g08.bks.cpg/sg95_2_cif.got.tgz:2436.got - 2010.06.03 19:46:49.
