data_PCOD9550969
_publ_section_title
;
Structure prediction by ZEFSAII (Michael W. Deem and Ramdas Pophale) SiO2 
 PCOD9550969
Probable space group: P 43 21 2
;
_chemical_formula_sum "Si O2"
_cell_formula_units_Z 48
_cell_length_a 19.568078
_cell_length_b 19.568078
_cell_length_c 6.127673
_cell_angle_alpha 90.000000
_cell_angle_beta 90.000000
_cell_angle_gamma 90.000000
_cell_volume 2346.345287
_symmetry_space_group_name_H-M "P 43 21 2"
_symmetry_group_IT_number 96
_symmetry_cell_setting 'tetragonal'
loop_
_space_group_symop_operation_xyz
x,y,z
1/2-y,1/2+x,3/4+z
-x,-y,1/2+z
1/2+y,1/2-x,1/4+z
1/2+x,1/2-y,1/4-z
1/2-x,1/2+y,3/4-z
y,x,-z
-y,-x,1/2-z
loop_
_atom_site_type_symbol
_atom_site_label
_atom_site_fract_x
_atom_site_fract_y
_atom_site_fract_z
Si Si1 0.815603 0.815603 0.000000
Si Si2 0.098844 0.495180 0.201682
Si Si3 0.312023 0.786481 0.878146
Si Si4 0.039165 0.298456 0.791774
Si Si5 0.560872 0.778719 0.582907
Si Si6 0.024288 0.024288 0.500000
Si Si7 0.533842 0.318238 0.822409
O O1 0.744800 0.816672 0.870399
O O2 0.819837 0.885716 0.141773
O O3 0.059224 0.545664 0.042964
O O4 0.133841 0.538907 0.394445
O O5 0.160589 0.456721 0.083890
O O6 0.270795 0.729206 0.750000
O O7 0.391640 0.795647 0.816528
O O8 0.273665 0.858143 0.855357
O O9 0.034595 0.232227 0.636121
O O10 0.972529 0.299360 0.939184
O O11 0.518547 0.713553 0.495761
O O12 0.105771 0.012517 0.509143
O O13 0.000966 0.999034 0.250000
#
# Coordination Sequence:
#
# PCOD9550969 Si02
#       7
#     4   8   8   8   8   4   8
#     4   9  20  42  64  88 122 168 230 268 330 401
#     4  11  25  38  62  93 131 174 227 279 342 419
#     4  11  23  38  62  92 126 168 214 273 331 406
#     4  10  22  42  66  90 127 178 228 279 339 417
#     4  11  23  40  63  93 135 169 224 276 356 412
#     4  11  26  46  74 108 142 176 236 296 364 433
#     4   9  22  43  66  96 126 178 225 288 338 417
#
# _framework density 20.457346999999999
#
# number of rings (size 3 to 8) (size 9 to 14) (size 15 to 20)
#    0.000    1.667    0.000    3.000    7.000    6.000 
#    3.000    0.000    0.000    0.000    0.000    0.000 
#    0.000    0.000    0.000    0.000    0.000    0.000 
#
# Total GULP energy -267827.500733 kJ/mol
# GULP energy per Si atom -5579.739599 kJ/mol
# Density = 2.041079 g / cm^3
# Si number density = 20.457347 Si / 1000 Ang^3
#
#
#
# Elastic Constant Matrix: (Units=GPa)
#
#
# Indices 1 2 3 4 5 6 
#
# 1 107.3633 7.3598 20.7311 0.0000 0.0000 0.0000
# 2 7.3598 107.3680 20.7314 0.0000 0.0000 0.0000
# 3 20.7311 20.7314 44.7940 0.0000 0.0000 0.0000
# 4 0.0000 0.0000 0.0000 27.2049 0.0000 0.0000
# 5 0.0000 0.0000 0.0000 0.0000 27.2048 0.0000
# 6 0.0000 0.0000 0.0000 0.0000 0.0000 23.2895
#
#
#
# Elastic Compliance Matrix: (Units=1/GPa)
#
#
# Indices 1 2 3 4 5 6 
#
# 1 0.010234 0.000234 -0.004844 0.000000 0.000000 0.000000
# 2 0.000234 0.010233 -0.004844 0.000000 0.000000 0.000000
# 3 -0.004844 -0.004844 0.026809 0.000000 0.000000 0.000000
# 4 0.000000 0.000000 0.000000 0.036758 0.000000 0.000000
# 5 0.000000 0.000000 0.000000 0.000000 0.036758 0.000000
# 6 0.000000 0.000000 0.000000 0.000000 0.000000 0.042938
#
#
# Mechanical properties :
#
#
# Convention : Reuss Voigt Hill
#
# Bulk Modulus (GPa) = 35.25413 39.68557 37.46985
# Shear Modulus (GPa) = 26.02890 29.58670 27.80780
#
# Velocity S-wave (km/s) = 3.57087 3.80710 3.69088
# Velocity P-wave (km/s) = 5.85422 6.22629 6.04312
#
# Compressibility (1/GPa) = 0.02836547
#
# Stress axis : x y z
#
# Youngs Moduli (GPa) = 97.71767 97.72206 37.30157
#
# Poissons Ratio (x) = -0.02286 0.18071
# Poissons Ratio (y) = -0.02286 0.18070
# Poissons Ratio (z) = 0.47339 0.47340
#
# Static dielectric constant tensor:
#      x y z
#    x 1.719450 0.000000 0.000000 
#    y 0.000000 1.719450 0.000000 
#    z 0.000000 0.000000 1.787300 
# 
# From -- ./inp_files/649.got.cif
#   From: 2010.05.17/outbox.cif.g08.bks.cpg/sg96_1_cif.got.tgz:649.got - 2010.06.03 19:52:08.
