data_PCOD9550993
_publ_section_title
;
Structure prediction by ZEFSAII (Michael W. Deem and Ramdas Pophale) SiO2 
 PCOD9550993
Probable space group: P 43 21 2
;
_chemical_formula_sum "Si O2"
_cell_formula_units_Z 24
_cell_length_a 13.126960
_cell_length_b 13.126960
_cell_length_c 5.551698
_cell_angle_alpha 90.000000
_cell_angle_beta 90.000000
_cell_angle_gamma 90.000000
_cell_volume 956.652382
_symmetry_space_group_name_H-M "P 43 21 2"
_symmetry_group_IT_number 96
_symmetry_cell_setting 'tetragonal'
loop_
_space_group_symop_operation_xyz
x,y,z
1/2-y,1/2+x,3/4+z
-x,-y,1/2+z
1/2+y,1/2-x,1/4+z
1/2+x,1/2-y,1/4-z
1/2-x,1/2+y,3/4-z
y,x,-z
-y,-x,1/2-z
loop_
_atom_site_type_symbol
_atom_site_label
_atom_site_fract_x
_atom_site_fract_y
_atom_site_fract_z
Si Si1 0.741458 0.183955 0.505074
Si Si2 0.134996 0.099865 0.744368
Si Si3 0.497986 0.148868 0.037283
O O1 0.803056 0.196945 0.250000
O O2 0.663698 0.279367 0.502264
O O3 0.677433 0.080163 0.502352
O O4 0.805583 0.194418 0.750000
O O5 0.076906 0.076906 0.500000
O O6 0.242691 0.043434 0.721378
O O7 0.082896 0.082896 0.000000
O O8 0.589940 0.074486 0.103291
#
# Coordination Sequence:
#
# PCOD9550993 Si02
#       3
#     8   8   8
#     4  10  22  45  62  97 147 189 213 291 372 413
#     4  10  22  45  62  97 147 189 213 291 372 413
#     4  12  26  40  74 118 134 184 256 306 338 424
#
# _framework density 25.087484
#
# number of rings (size 3 to 8) (size 9 to 14) (size 15 to 20)
#    0.000    1.333    6.667    0.000    9.333    2.667 
#    0.000    0.000    0.000    4.000    0.000    0.000 
#    0.000    0.000    0.000    0.000    0.000    0.000 
#
# Total GULP energy -134238.263385 kJ/mol
# GULP energy per Si atom -5593.260974 kJ/mol
# Density = 2.503038 g / cm^3
# Si number density = 25.087484 Si / 1000 Ang^3
#
#
#
# Elastic Constant Matrix: (Units=GPa)
#
#
# Indices 1 2 3 4 5 6 
#
# 1 25.2174 144.1104 40.2095 0.0000 0.0000 0.0000
# 2 144.1104 25.2169 40.2099 0.0000 0.0000 0.0000
# 3 40.2095 40.2099 234.7134 0.0000 0.0000 0.0000
# 4 0.0000 0.0000 0.0000 -2.9324 0.0000 0.0000
# 5 0.0000 0.0000 0.0000 0.0000 -2.9331 0.0000
# 6 0.0000 0.0000 0.0000 0.0000 0.0000 25.5654
#
#
#
# Elastic Compliance Matrix: (Units=1/GPa)
#
#
# Indices 1 2 3 4 5 6 
#
# 1 -0.000991 0.007420 -0.001101 0.000000 0.000000 0.000000
# 2 0.007420 -0.000991 -0.001101 0.000000 0.000000 0.000000
# 3 -0.001101 -0.001101 0.004638 0.000000 0.000000 0.000000
# 4 0.000000 0.000000 0.000000 -0.341014 0.000000 0.000000
# 5 0.000000 0.000000 0.000000 0.000000 -0.340939 0.000000
# 6 0.000000 0.000000 0.000000 0.000000 0.000000 0.039115
#
#
# Mechanical properties :
#
#
# Convention : Reuss Voigt Hill
#
# Bulk Modulus (GPa) = 76.39383 81.57857 78.98620
# Shear Modulus (GPa) = -7.73691 7.98117 0.12213
#
# Velocity S-wave (km/s) = -1.75803 1.78556 0.22088
# Velocity P-wave (km/s) = 5.13772 6.06953 5.62296
#
# Compressibility (1/GPa) = 0.01309006
#
# Stress axis : x y z
#
# Youngs Moduli (GPa) = -1009.03502 -1008.99535 215.61644
#
# Poissons Ratio (x) = 7.48659 0.23747
# Poissons Ratio (y) = 7.48688 0.23746
# Poissons Ratio (z) = -1.11130 -1.11124
#
# Static dielectric constant tensor:
#      x y z
#    x 1.972020 0.000000 0.000000 
#    y 0.000000 1.972020 0.000000 
#    z 0.000000 0.000000 2.108420 
# 
# From -- ./inp_files/130.got.cif
#   From: 2010.05.17/outbox.cif.g08.bks.cpg/sg96_1_cif.got.tgz:130.got - 2010.06.03 19:52:08.
