data_PCOD9550563
_publ_section_title
;
Structure prediction by ZEFSAII (Michael W. Deem and Ramdas Pophale) SiO2 
 PCOD9550563
Probable space group: P 43 2 2
;
_chemical_formula_sum "Si O2"
_cell_formula_units_Z 32
_cell_length_a 11.476662
_cell_length_b 11.476662
_cell_length_c 10.344673
_cell_angle_alpha 90.000000
_cell_angle_beta 90.000000
_cell_angle_gamma 90.000000
_cell_volume 1362.535887
_symmetry_space_group_name_H-M "P 43 2 2"
_symmetry_group_IT_number 95
_symmetry_cell_setting 'tetragonal'
loop_
_space_group_symop_operation_xyz
x,y,z
-y,x,3/4+z
-x,-y,1/2+z
y,-x,1/4+z
x,-y,1/2-z
-x,y,-z
y,x,1/4-z
-y,-x,3/4-z
loop_
_atom_site_type_symbol
_atom_site_label
_atom_site_fract_x
_atom_site_fract_y
_atom_site_fract_z
Si Si1 0.514225 0.807455 0.305969
Si Si2 0.922442 0.723411 0.629688
Si Si3 0.607536 0.335026 0.581753
Si Si4 0.101744 0.627803 0.814513
O O1 0.408429 0.873387 0.370767
O O2 0.589513 0.714037 0.381995
O O3 0.451777 0.725712 0.201400
O O4 0.601010 0.883567 0.216221
O O5 0.819996 0.819996 0.625000
O O6 0.000000 0.739559 0.500000
O O7 0.006795 0.716424 0.755859
O O8 0.500000 0.390461 0.500000
O O9 0.657076 0.229655 0.493122
O O10 0.079100 0.500000 0.750000
#
# Coordination Sequence:
#
# PCOD9550563 Si02
#       4
#     8   8   8   8
#     4  10  21  39  65 100 132 170 219 263 337 415
#     4  12  25  45  65  91 135 174 222 286 331 387
#     4   9  17  34  63  93 136 163 197 268 322 409
#     4   9  18  39  64  88 129 174 207 266 328 391
#
# _framework density 23.485620000000001
#
# number of rings (size 3 to 8) (size 9 to 14) (size 15 to 20)
#    0.000    2.500    5.000    3.000    0.000    4.000 
#    0.000    2.500    0.000    0.000    0.000    0.000 
#    0.000    0.000    0.000    0.000    0.000    0.000 
#
# Total GULP energy -178616.332955 kJ/mol
# GULP energy per Si atom -5581.760405 kJ/mol
# Density = 2.343217 g / cm^3
# Si number density = 23.485620 Si / 1000 Ang^3
#
#
#
# Elastic Constant Matrix: (Units=GPa)
#
#
# Indices 1 2 3 4 5 6 
#
# 1 94.9932 87.9379 35.6075 0.0000 0.0000 0.0000
# 2 87.9379 94.9932 35.6075 0.0000 0.0000 0.0000
# 3 35.6075 35.6075 51.5877 0.0000 0.0000 0.0000
# 4 0.0000 0.0000 0.0000 25.9083 0.0000 0.0000
# 5 0.0000 0.0000 0.0000 0.0000 25.9083 0.0000
# 6 0.0000 0.0000 0.0000 0.0000 0.0000 36.1364
#
#
#
# Elastic Compliance Matrix: (Units=1/GPa)
#
#
# Indices 1 2 3 4 5 6 
#
# 1 0.074606 -0.067131 -0.005160 0.000000 0.000000 0.000000
# 2 -0.067131 0.074606 -0.005160 0.000000 0.000000 0.000000
# 3 -0.005160 -0.005160 0.026507 0.000000 0.000000 0.000000
# 4 0.000000 0.000000 0.000000 0.038598 0.000000 0.000000
# 5 0.000000 0.000000 0.000000 0.000000 0.038598 0.000000
# 6 0.000000 0.000000 0.000000 0.000000 0.000000 0.027673
#
#
# Mechanical properties :
#
#
# Convention : Reuss Voigt Hill
#
# Bulk Modulus (GPa) = 48.03299 62.20890 55.12094
# Shear Modulus (GPa) = 11.30129 23.08536 17.19332
#
# Velocity S-wave (km/s) = 2.19601 3.13862 2.70863
# Velocity P-wave (km/s) = 5.18907 6.29922 5.77090
#
# Compressibility (1/GPa) = 0.02081903
#
# Stress axis : x y z
#
# Youngs Moduli (GPa) = 13.40373 13.40373 37.72573
#
# Poissons Ratio (x) = 0.89980 0.19465
# Poissons Ratio (y) = 0.89980 0.19465
# Poissons Ratio (z) = 0.06916 0.06916
#
# Static dielectric constant tensor:
#      x y z
#    x 1.967100 0.000000 0.000000 
#    y 0.000000 1.967100 0.000000 
#    z 0.000000 0.000000 2.005090 
# 
# From -- ./inp_files/3397.got.cif
#   From: 2010.05.17/outbox.cif.g08.bks.cpg/sg95_2_cif.got.tgz:3397.got - 2010.06.03 19:46:49.
