data_PCOD9550603
_publ_section_title
;
Structure prediction by ZEFSAII (Michael W. Deem and Ramdas Pophale) SiO2 
 PCOD9550603
Probable space group: P 43 2 2
;
_chemical_formula_sum "Si O2"
_cell_formula_units_Z 36
_cell_length_a 7.661039
_cell_length_b 7.661039
_cell_length_c 25.329030
_cell_angle_alpha 90.000000
_cell_angle_beta 90.000000
_cell_angle_gamma 90.000000
_cell_volume 1486.599234
_symmetry_space_group_name_H-M "P 43 2 2"
_symmetry_group_IT_number 95
_symmetry_cell_setting 'tetragonal'
loop_
_space_group_symop_operation_xyz
x,y,z
-y,x,3/4+z
-x,-y,1/2+z
y,-x,1/4+z
x,-y,1/2-z
-x,y,-z
y,x,1/4-z
-y,-x,3/4-z
loop_
_atom_site_type_symbol
_atom_site_label
_atom_site_fract_x
_atom_site_fract_y
_atom_site_fract_z
Si Si1 0.100032 0.683113 0.300912
Si Si2 0.598885 0.198837 0.726391
Si Si3 0.757504 0.796861 0.264198
Si Si4 0.825184 0.336900 0.635427
Si Si5 0.002472 0.997529 0.875000
O O1 0.053839 0.864098 0.330532
O O2 0.929020 0.679885 0.264283
O O3 0.130865 0.526228 0.341753
O O4 0.325573 0.761523 0.168633
O O5 0.400022 0.259561 0.727067
O O6 0.728766 0.299574 0.765618
O O7 0.601474 0.000000 0.750000
O O8 0.798276 0.000000 0.250000
O O9 0.670867 0.789708 0.323035
O O10 0.980905 0.199629 0.642897
#
# Coordination Sequence:
#
# PCOD9550603 Si02
#       5
#     8   8   8   8   4
#     4  11  22  43  71 105 140 193 239 301 372 438
#     4  11  22  45  72 105 148 191 245 306 366 442
#     4  10  25  42  72 109 144 190 250 307 362 440
#     4  11  24  42  74 106 139 200 246 293 383 433
#     4  10  22  42  70 104 144 186 244 308 364 440
#
# _framework density 24.216346999999999
#
# number of rings (size 3 to 8) (size 9 to 14) (size 15 to 20)
#    0.000    1.333    2.222    2.667   12.444    0.000 
#    0.000    8.889    0.000    0.000    0.000    0.000 
#    0.000    0.000    0.000    0.000    0.000    0.000 
#
# Total GULP energy -201326.624513 kJ/mol
# GULP energy per Si atom -5592.406236 kJ/mol
# Density = 2.416123 g / cm^3
# Si number density = 24.216347 Si / 1000 Ang^3
#
#
#
# Elastic Constant Matrix: (Units=GPa)
#
#
# Indices 1 2 3 4 5 6 
#
# 1 74.5327 8.9804 -4.5886 0.0000 0.0000 0.0000
# 2 8.9804 74.5323 -4.5886 0.0000 0.0000 0.0000
# 3 -4.5886 -4.5886 70.1977 0.0000 0.0000 0.0000
# 4 0.0000 0.0000 0.0000 29.0966 0.0000 0.0000
# 5 0.0000 0.0000 0.0000 0.0000 29.0969 0.0000
# 6 0.0000 0.0000 0.0000 0.0000 0.0000 -26.4331
#
#
#
# Elastic Compliance Matrix: (Units=1/GPa)
#
#
# Indices 1 2 3 4 5 6 
#
# 1 0.013658 -0.001597 0.000788 0.000000 0.000000 0.000000
# 2 -0.001597 0.013658 0.000788 0.000000 0.000000 0.000000
# 3 0.000788 0.000788 0.014349 0.000000 0.000000 0.000000
# 4 0.000000 0.000000 0.000000 0.034368 0.000000 0.000000
# 5 0.000000 0.000000 0.000000 0.000000 0.034368 0.000000
# 6 0.000000 0.000000 0.000000 0.000000 0.000000 -0.037831
#
#
# Mechanical properties :
#
#
# Convention : Reuss Voigt Hill
#
# Bulk Modulus (GPa) = 24.02477 24.31881 24.17179
# Shear Modulus (GPa) = 57.81376 20.98270 39.39823
#
# Velocity S-wave (km/s) = 4.89139 2.94678 4.03789
# Velocity P-wave (km/s) = 6.46864 4.65211 5.63407
#
# Compressibility (1/GPa) = 0.04162370
#
# Stress axis : x y z
#
# Youngs Moduli (GPa) = 73.21768 73.21731 69.69342
#
# Poissons Ratio (x) = 0.11694 -0.05494
# Poissons Ratio (y) = 0.11694 -0.05494
# Poissons Ratio (z) = -0.05772 -0.05772
#
# Static dielectric constant tensor:
#      x y z
#    x 1.956370 0.000000 0.000000 
#    y 0.000000 1.956370 0.000000 
#    z 0.000000 0.000000 2.039600 
# 
# From -- ./inp_files/7655.got.cif
#   From: 2010.05.17/outbox.cif.g08.bks.cpg/sg95_4_cif.got.tgz:7655.got - 2010.06.03 19:46:49.
