data_PCOD9550863
_publ_section_title
;
Structure prediction by ZEFSAII (Michael W. Deem and Ramdas Pophale) SiO2 
 PCOD9550863
Probable space group: P 43 21 2
;
_chemical_formula_sum "Si O2"
_cell_formula_units_Z 44
_cell_length_a 8.068878
_cell_length_b 8.068878
_cell_length_c 26.682479
_cell_angle_alpha 90.000000
_cell_angle_beta 90.000000
_cell_angle_gamma 90.000000
_cell_volume 1737.210615
_symmetry_space_group_name_H-M "P 43 21 2"
_symmetry_group_IT_number 96
_symmetry_cell_setting 'tetragonal'
loop_
_space_group_symop_operation_xyz
x,y,z
1/2-y,1/2+x,3/4+z
-x,-y,1/2+z
1/2+y,1/2-x,1/4+z
1/2+x,1/2-y,1/4-z
1/2-x,1/2+y,3/4-z
y,x,-z
-y,-x,1/2-z
loop_
_atom_site_type_symbol
_atom_site_label
_atom_site_fract_x
_atom_site_fract_y
_atom_site_fract_z
Si Si1 0.235960 0.764041 0.250000
Si Si2 0.892309 0.782930 0.191684
Si Si3 0.669525 0.639282 0.441759
Si Si4 0.964759 0.955724 0.054970
Si Si5 0.729362 0.988699 0.618523
Si Si6 0.761833 0.753980 0.298374
O O1 0.281646 0.618055 0.289434
O O2 0.072283 0.773662 0.216956
O O3 0.774082 0.735232 0.238704
O O4 0.883629 0.636567 0.151556
O O5 0.846252 0.973622 0.179141
O O6 0.685040 0.685040 0.500000
O O7 0.722103 0.446906 0.438814
O O8 0.811451 0.728494 0.410479
O O9 0.091669 0.943601 0.100498
O O10 0.826554 0.093622 0.067806
O O11 0.024619 0.024619 0.000000
O O12 0.685702 0.926264 0.674011
#
# Coordination Sequence:
#
# PCOD9550863 Si02
#       6
#     4   8   8   8   8   8
#     4  10  20  42  66  90 132 184 232 282 352 430
#     4  11  22  46  71  99 138 188 236 293 363 430
#     4  10  23  44  72  96 136 186 234 289 356 424
#     4  10  22  40  65  96 127 181 225 286 359 418
#     4  12  24  42  70 102 141 178 239 298 359 433
#     4  11  22  45  65 101 136 177 234 295 352 430
#
# _framework density 25.327961999999999
#
# number of rings (size 3 to 8) (size 9 to 14) (size 15 to 20)
#    0.545    0.727    4.545    2.727    0.000    0.000 
#    6.545    0.000    0.000    0.000    0.000    0.000 
#    0.000    0.000    0.000    0.000    0.000    0.000 
#
# Total GULP energy -245784.407788 kJ/mol
# GULP energy per Si atom -5586.009268 kJ/mol
# Density = 2.527031 g / cm^3
# Si number density = 25.327962 Si / 1000 Ang^3
#
#
#
# Elastic Constant Matrix: (Units=GPa)
#
#
# Indices 1 2 3 4 5 6 
#
# 1 40.3602 90.6838 22.0150 0.0000 0.0000 0.0000
# 2 90.6838 40.3595 22.0145 0.0000 0.0000 0.0000
# 3 22.0150 22.0145 101.2154 0.0000 0.0000 0.0000
# 4 0.0000 0.0000 0.0000 35.1940 0.0000 0.0000
# 5 0.0000 0.0000 0.0000 0.0000 35.1941 0.0000
# 6 0.0000 0.0000 0.0000 0.0000 0.0000 44.2897
#
#
#
# Elastic Compliance Matrix: (Units=1/GPa)
#
#
# Indices 1 2 3 4 5 6 
#
# 1 -0.005819 0.014052 -0.001791 0.000000 0.000000 0.000000
# 2 0.014052 -0.005819 -0.001791 0.000000 0.000000 0.000000
# 3 -0.001791 -0.001791 0.010659 0.000000 0.000000 0.000000
# 4 0.000000 0.000000 0.000000 0.028414 0.000000 0.000000
# 5 0.000000 0.000000 0.000000 0.000000 0.028414 0.000000
# 6 0.000000 0.000000 0.000000 0.000000 0.000000 0.022579
#
#
# Mechanical properties :
#
#
# Convention : Reuss Voigt Hill
#
# Bulk Modulus (GPa) = 50.09602 50.15130 50.12366
# Shear Modulus (GPa) = 77.95552 26.08369 52.01961
#
# Velocity S-wave (km/s) = 5.55385 3.21259 4.53685
# Velocity P-wave (km/s) = 7.80698 5.79696 6.87581
#
# Compressibility (1/GPa) = 0.01996167
#
# Stress axis : x y z
#
# Youngs Moduli (GPa) = -171.84319 -171.84109 93.81868
#
# Poissons Ratio (x) = 2.41471 0.16799
# Poissons Ratio (y) = 2.41474 0.16800
# Poissons Ratio (z) = -0.30770 -0.30771
#
# Static dielectric constant tensor:
#      x y z
#    x 2.023980 0.000000 0.000000 
#    y 0.000000 2.023980 0.000000 
#    z 0.000000 0.000000 2.132330 
# 
# From -- ./inp_files/4407.got.cif
#   From: 2010.05.17/outbox.cif.g08.bks.cpg/sg96_3_cif.got.tgz:4407.got - 2010.06.03 19:52:08.
