data_PCOD9550627
_publ_section_title
;
Structure prediction by ZEFSAII (Michael W. Deem and Ramdas Pophale) SiO2 
 PCOD9550627
Probable space group: P 43 2 2
;
_chemical_formula_sum "Si O2"
_cell_formula_units_Z 56
_cell_length_a 10.883467
_cell_length_b 10.883467
_cell_length_c 20.294430
_cell_angle_alpha 90.000000
_cell_angle_beta 90.000000
_cell_angle_gamma 90.000000
_cell_volume 2403.872269
_symmetry_space_group_name_H-M "P 43 2 2"
_symmetry_group_IT_number 95
_symmetry_cell_setting 'tetragonal'
loop_
_space_group_symop_operation_xyz
x,y,z
-y,x,3/4+z
-x,-y,1/2+z
y,-x,1/4+z
x,-y,1/2-z
-x,y,-z
y,x,1/4-z
-y,-x,3/4-z
loop_
_atom_site_type_symbol
_atom_site_label
_atom_site_fract_x
_atom_site_fract_y
_atom_site_fract_z
Si Si1 0.966083 0.225692 0.074872
Si Si2 0.768546 0.931259 0.446587
Si Si3 0.448055 0.123940 0.855164
Si Si4 0.649869 0.445386 0.504489
Si Si5 0.146887 0.535189 0.595746
Si Si6 0.825349 0.317794 0.829897
Si Si7 0.193024 0.678027 0.811323
O O1 0.909169 0.091775 0.071294
O O2 0.863216 0.319955 0.099887
O O3 0.074881 0.250265 0.124214
O O4 0.000000 0.259759 0.000000
O O5 0.685630 0.900917 0.383516
O O6 0.734652 0.840068 0.507126
O O7 0.739572 0.070445 0.465966
O O8 0.462129 0.250899 0.814373
O O9 0.491298 0.992357 0.822845
O O10 0.539817 0.141232 0.916939
O O11 0.500000 0.476815 0.500000
O O12 0.730699 0.508107 0.446432
O O13 0.661450 0.301439 0.489508
O O14 0.160959 0.456512 0.661352
O O15 0.705374 0.294627 0.875000
O O16 0.244476 0.755524 0.875000
#
# Coordination Sequence:
#
# PCOD9550627 Si02
#       7
#     8   8   8   8   8   8   8
#     4  11  22  40  68  93 129 180 221 276 348 410
#     4  11  24  41  67  98 125 175 231 278 337 412
#     4  10  23  43  67  94 131 192 226 273 351 424
#     4  11  23  39  68 104 136 174 229 289 344 405
#     4   9  20  43  68  88 135 185 231 264 341 429
#     4  11  23  43  63  93 134 170 228 283 338 413
#     4   9  22  43  63  97 135 173 221 287 338 407
#
# _framework density 23.295745
#
# number of rings (size 3 to 8) (size 9 to 14) (size 15 to 20)
#    0.000    1.714    1.429    2.571    4.000    2.857 
#    2.571    1.429    0.000    0.000    0.000    0.000 
#    0.000    0.000    0.000    0.000    0.000    0.000 
#
# Total GULP energy -312017.543103 kJ/mol
# GULP energy per Si atom -5571.741841 kJ/mol
# Density = 2.324272 g / cm^3
# Si number density = 23.295745 Si / 1000 Ang^3
#
#
#
# Elastic Constant Matrix: (Units=GPa)
#
#
# Indices 1 2 3 4 5 6 
#
# 1 94.5628 46.8038 11.0434 0.0000 0.0000 0.0000
# 2 46.8038 94.5621 11.0435 0.0000 0.0000 0.0000
# 3 11.0434 11.0435 41.4960 0.0000 0.0000 0.0000
# 4 0.0000 0.0000 0.0000 29.7322 0.0000 0.0000
# 5 0.0000 0.0000 0.0000 0.0000 29.7325 0.0000
# 6 0.0000 0.0000 0.0000 0.0000 0.0000 37.1200
#
#
#
# Elastic Compliance Matrix: (Units=1/GPa)
#
#
# Indices 1 2 3 4 5 6 
#
# 1 0.014160 -0.006779 -0.001964 0.000000 0.000000 0.000000
# 2 -0.006779 0.014160 -0.001964 0.000000 0.000000 0.000000
# 3 -0.001964 -0.001964 0.025144 0.000000 0.000000 0.000000
# 4 0.000000 0.000000 0.000000 0.033634 0.000000 0.000000
# 5 0.000000 0.000000 0.000000 0.000000 0.033633 0.000000
# 6 0.000000 0.000000 0.000000 0.000000 0.000000 0.026940
#
#
# Mechanical properties :
#
#
# Convention : Reuss Voigt Hill
#
# Bulk Modulus (GPa) = 31.20256 40.93358 36.06807
# Shear Modulus (GPa) = 27.81367 30.09896 28.95631
#
# Velocity S-wave (km/s) = 3.45909 3.59839 3.52943
# Velocity P-wave (km/s) = 5.42005 5.90542 5.66793
#
# Compressibility (1/GPa) = 0.03204865
#
# Stress axis : x y z
#
# Youngs Moduli (GPa) = 70.62344 70.62287 39.77061
#
# Poissons Ratio (x) = 0.47875 0.07812
# Poissons Ratio (y) = 0.47875 0.07812
# Poissons Ratio (z) = 0.13872 0.13872
#
# Static dielectric constant tensor:
#      x y z
#    x 1.453960 0.000000 0.000000 
#    y 0.000000 1.453980 0.000000 
#    z 0.000000 0.000000 1.861630 
# 
# From -- ./inp_files/6451.got.cif
#   From: 2010.05.17/outbox.cif.g08.bks.cpg/sg95_4_cif.got.tgz:6451.got - 2010.06.03 19:46:49.
