data_PCOD9550021
_publ_section_title
;
Structure prediction by ZEFSAII (Michael W. Deem and Ramdas Pophale) SiO2 
 PCOD9550021
Probable space group: P 42 21 2
;
_chemical_formula_sum "Si O2"
_cell_formula_units_Z 42
_cell_length_a 11.422631
_cell_length_b 11.422631
_cell_length_c 17.612360
_cell_angle_alpha 90.000000
_cell_angle_beta 90.000000
_cell_angle_gamma 90.000000
_cell_volume 2297.999071
_symmetry_space_group_name_H-M "P 42 21 2"
_symmetry_group_IT_number 94
_symmetry_cell_setting 'tetragonal'
loop_
_space_group_symop_operation_xyz
x,y,z
1/2-y,1/2+x,1/2+z
-x,-y,z
1/2+y,1/2-x,1/2+z
1/2+x,1/2-y,1/2-z
1/2-x,1/2+y,1/2-z
y,x,-z
-y,-x,-z
loop_
_atom_site_type_symbol
_atom_site_label
_atom_site_fract_x
_atom_site_fract_y
_atom_site_fract_z
Si Si1 0.557120 0.309085 0.713450
Si Si2 0.000000 0.000000 0.500000
Si Si3 0.055730 0.820501 0.227748
Si Si4 0.169466 0.729296 0.383087
Si Si5 0.919285 0.609311 0.660577
Si Si6 0.241725 0.452456 0.041308
O O1 0.636732 0.422292 0.731442
O O2 0.428124 0.361465 0.703700
O O3 0.615205 0.240509 0.643012
O O4 0.558192 0.217968 0.782877
O O5 0.996613 0.122899 0.544864
O O6 0.098631 0.774965 0.309924
O O7 0.071395 0.713956 0.170103
O O8 0.084076 0.714085 0.455080
O O9 0.257081 0.832825 0.409607
O O10 0.000000 0.500000 0.682699
O O11 0.956466 0.654067 0.577960
#
# Coordination Sequence:
#
# PCOD9550021 Si02
#       6
#     8   2   8   8   8   8
#     4  10  21  38  63  91 121 161 211 257 314 382
#     4   8  20  32  60  92 112 164 212 262 304 360
#     4  10  21  36  64  93 121 158 214 260 315 369
#     4   9  19  36  59  90 120 165 198 262 311 367
#     4  11  23  37  59  88 126 163 205 262 314 375
#     4  10  20  36  60  86 128 165 210 257 319 369
#
# _framework density 18.276769999999999
#
# number of rings (size 3 to 8) (size 9 to 14) (size 15 to 20)
#    0.000    2.286    1.905    1.143    8.000    0.000 
#    0.000    5.714    0.000   18.286    0.000    0.000 
#    0.000    0.000    0.000    0.000    0.000    0.000 
#
# Total GULP energy -234285.030089 kJ/mol
# GULP energy per Si atom -5578.215002 kJ/mol
# Density = 1.823517 g / cm^3
# Si number density = 18.276770 Si / 1000 Ang^3
#
#
#
# Elastic Constant Matrix: (Units=GPa)
#
#
# Indices 1 2 3 4 5 6 
#
# 1 112.5705 82.7740 48.1524 0.0000 0.0000 0.0000
# 2 82.7740 112.5705 48.1524 0.0000 0.0000 0.0000
# 3 48.1524 48.1524 99.6410 0.0000 0.0000 0.0000
# 4 0.0000 0.0000 0.0000 25.3526 0.0000 0.0000
# 5 0.0000 0.0000 0.0000 0.0000 25.3526 0.0000
# 6 0.0000 0.0000 0.0000 0.0000 0.0000 25.5712
#
#
#
# Elastic Compliance Matrix: (Units=1/GPa)
#
#
# Indices 1 2 3 4 5 6 
#
# 1 0.020141 -0.013420 -0.003248 0.000000 0.000000 0.000000
# 2 -0.013420 0.020141 -0.003248 0.000000 0.000000 0.000000
# 3 -0.003248 -0.003248 0.013175 0.000000 0.000000 0.000000
# 4 0.000000 0.000000 0.000000 0.039444 0.000000 0.000000
# 5 0.000000 0.000000 0.000000 0.000000 0.039444 0.000000
# 6 0.000000 0.000000 0.000000 0.000000 0.000000 0.039107
#
#
# Mechanical properties :
#
#
# Convention : Reuss Voigt Hill
#
# Bulk Modulus (GPa) = 73.39491 75.88217 74.63854
# Shear Modulus (GPa) = 23.16715 24.96883 24.06799
#
# Velocity S-wave (km/s) = 3.56416 3.70016 3.63280
# Velocity P-wave (km/s) = 7.56190 7.73714 7.65002
#
# Compressibility (1/GPa) = 0.01362492
#
# Stress axis : x y z
#
# Youngs Moduli (GPa) = 49.65088 49.65088 75.90188
#
# Poissons Ratio (x) = 0.66633 0.24650
# Poissons Ratio (y) = 0.66633 0.24650
# Poissons Ratio (z) = 0.16125 0.16125
#
# Static dielectric constant tensor:
#      x y z
#    x 1.634380 0.000000 0.000000 
#    y 0.000000 1.634380 0.000000 
#    z 0.000000 0.000000 1.623520 
# 
# From -- ./inp_files/4028.got.cif
#   From: 2010.05.17/outbox.cif.g08.bks.cpg/sg94_3_cif.got.tgz:4028.got - 2010.06.03 19:43:16.
