data_PCOD9550446
_publ_section_title
;
Structure prediction by ZEFSAII (Michael W. Deem and Ramdas Pophale) SiO2 
 PCOD9550446
Probable space group: P 43 2 2
;
_chemical_formula_sum "Si O2"
_cell_formula_units_Z 48
_cell_length_a 9.035632
_cell_length_b 9.035632
_cell_length_c 29.864519
_cell_angle_alpha 90.000000
_cell_angle_beta 90.000000
_cell_angle_gamma 90.000000
_cell_volume 2438.218342
_symmetry_space_group_name_H-M "P 43 2 2"
_symmetry_group_IT_number 95
_symmetry_cell_setting 'tetragonal'
loop_
_space_group_symop_operation_xyz
x,y,z
-y,x,3/4+z
-x,-y,1/2+z
y,-x,1/4+z
x,-y,1/2-z
-x,y,-z
y,x,1/4-z
-y,-x,3/4-z
loop_
_atom_site_type_symbol
_atom_site_label
_atom_site_fract_x
_atom_site_fract_y
_atom_site_fract_z
Si Si1 0.052675 0.720703 0.645967
Si Si2 0.357096 0.551101 0.652876
Si Si3 0.750900 0.952098 0.995941
Si Si4 0.476477 0.186216 0.901808
Si Si5 0.833340 0.015630 0.091399
Si Si6 0.708293 0.500000 0.250000
Si Si7 0.500000 0.199533 0.000000
O O1 0.187271 0.601927 0.645853
O O2 0.064534 0.801797 0.694519
O O3 0.904339 0.625729 0.643601
O O4 0.075192 0.839477 0.607045
O O5 0.409997 0.409997 0.625000
O O6 0.447630 0.691927 0.635331
O O7 0.380230 0.522457 0.704916
O O8 0.852478 0.972839 0.039328
O O9 0.642499 0.813995 0.005734
O O10 0.642669 0.093785 0.994925
O O11 0.480805 0.266053 0.950612
O O12 0.337768 0.070304 0.902788
O O13 0.886233 0.886233 0.125000
#
# Coordination Sequence:
#
# PCOD9550446 Si02
#       7
#     8   8   8   8   8   4   4
#     4   9  19  35  53  76 107 139 177 220 262 315
#     4  10  20  33  54  79 102 136 178 216 258 313
#     4   8  15  30  50  72 102 138 170 208 260 314
#     4   9  18  33  52  76 106 138 173 216 263 311
#     4  10  19  30  52  81 104 137 180 217 261 315
#     4   9  18  33  52  78 110 140 170 212 270 324
#     4   7  12  27  50  70  94 132 170 202 250 312
#
# _framework density 19.686506999999999
#
# number of rings (size 3 to 8) (size 9 to 14) (size 15 to 20)
#    0.000    3.000    0.000    3.000    0.000    4.667 
#    0.000    0.000    0.000    7.000    0.000    0.000 
#    0.000    0.000    0.000    0.000    0.000    0.000 
#
# Total GULP energy -267488.917868 kJ/mol
# GULP energy per Si atom -5572.685789 kJ/mol
# Density = 1.964170 g / cm^3
# Si number density = 19.686507 Si / 1000 Ang^3
#
#
#
# Elastic Constant Matrix: (Units=GPa)
#
#
# Indices 1 2 3 4 5 6 
#
# 1 48.1906 24.1519 38.9384 0.0000 0.0000 0.0000
# 2 24.1519 48.1906 38.9384 0.0000 0.0000 0.0000
# 3 38.9384 38.9384 162.0842 0.0000 0.0000 0.0000
# 4 0.0000 0.0000 0.0000 24.8938 0.0000 0.0000
# 5 0.0000 0.0000 0.0000 0.0000 24.8938 0.0000
# 6 0.0000 0.0000 0.0000 0.0000 0.0000 10.8524
#
#
#
# Elastic Compliance Matrix: (Units=1/GPa)
#
#
# Indices 1 2 3 4 5 6 
#
# 1 0.030122 -0.011477 -0.004479 0.000000 0.000000 0.000000
# 2 -0.011477 0.030122 -0.004479 0.000000 0.000000 0.000000
# 3 -0.004479 -0.004479 0.008322 0.000000 0.000000 0.000000
# 4 0.000000 0.000000 0.000000 0.040171 0.000000 0.000000
# 5 0.000000 0.000000 0.000000 0.000000 0.040171 0.000000
# 6 0.000000 0.000000 0.000000 0.000000 0.000000 0.092146
#
#
# Mechanical properties :
#
#
# Convention : Reuss Voigt Hill
#
# Bulk Modulus (GPa) = 36.10765 51.39144 43.74954
# Shear Modulus (GPa) = 17.17291 22.55712 19.86501
#
# Velocity S-wave (km/s) = 2.95671 3.38866 3.18003
# Velocity P-wave (km/s) = 5.48063 6.43990 5.97953
#
# Compressibility (1/GPa) = 0.02769496
#
# Stress axis : x y z
#
# Youngs Moduli (GPa) = 33.19804 33.19804 120.16696
#
# Poissons Ratio (x) = 0.38102 0.53825
# Poissons Ratio (y) = 0.38102 0.53825
# Poissons Ratio (z) = 0.14870 0.14870
#
# Static dielectric constant tensor:
#      x y z
#    x 1.708310 0.000000 0.000000 
#    y 0.000000 1.708310 0.000000 
#    z 0.000000 0.000000 1.724400 
# 
# From -- ./inp_files/8003.got.cif
#   From: 2010.05.17/outbox.cif.g08.bks.cpg/sg95_5_cif.got.tgz:8003.got - 2010.06.03 19:46:49.
