data_PCOD9550198
_publ_section_title
;
Structure prediction by ZEFSAII (Michael W. Deem and Ramdas Pophale) SiO2 
 PCOD9550198
Probable space group: P 42 21 2
;
_chemical_formula_sum "Si O2"
_cell_formula_units_Z 34
_cell_length_a 9.114801
_cell_length_b 9.114801
_cell_length_c 19.474225
_cell_angle_alpha 90.000000
_cell_angle_beta 90.000000
_cell_angle_gamma 90.000000
_cell_volume 1617.910770
_symmetry_space_group_name_H-M "P 42 21 2"
_symmetry_group_IT_number 94
_symmetry_cell_setting 'tetragonal'
loop_
_space_group_symop_operation_xyz
x,y,z
1/2-y,1/2+x,1/2+z
-x,-y,z
1/2+y,1/2-x,1/2+z
1/2+x,1/2-y,1/2-z
1/2-x,1/2+y,1/2-z
y,x,-z
-y,-x,-z
loop_
_atom_site_type_symbol
_atom_site_label
_atom_site_fract_x
_atom_site_fract_y
_atom_site_fract_z
Si Si1 0.827257 0.688164 0.661678
Si Si2 0.346504 0.470083 0.072272
Si Si3 0.109992 0.228142 0.110105
Si Si4 0.823604 0.007720 0.217277
Si Si5 0.500000 0.500000 0.500000
O O1 0.812517 0.514826 0.652229
O O2 0.667456 0.728829 0.692345
O O3 0.946959 0.739203 0.717025
O O4 0.878680 0.759900 0.589209
O O5 0.500000 0.500000 0.111477
O O6 0.231105 0.345328 0.090785
O O7 0.405756 0.405756 0.000000
O O8 0.191685 0.104471 0.154247
O O9 0.021448 0.140499 0.050194
O O10 0.000000 0.000000 0.229724
#
# Coordination Sequence:
#
# PCOD9550198 Si02
#       5
#     8   8   8   8   2
#     4  11  22  42  71 103 138 188 236 296 367 430
#     4  11  25  44  63  97 142 185 231 292 353 423
#     4  11  23  46  75 105 144 191 238 298 359 443
#     4  10  22  42  69 104 142 179 235 299 360 428
#     4  12  20  44  78 100 146 196 242 286 364 448
#
# _framework density 21.014754
#
# number of rings (size 3 to 8) (size 9 to 14) (size 15 to 20)
#    0.000    1.176    4.706    2.824    0.000    5.647 
#    0.000    5.882    0.000    0.000    0.000    0.000 
#    0.000    0.000    0.000    0.000    0.000    0.000 
#
# Total GULP energy -189308.994527 kJ/mol
# GULP energy per Si atom -5567.911604 kJ/mol
# Density = 2.096692 g / cm^3
# Si number density = 21.014754 Si / 1000 Ang^3
#
#
#
# Elastic Constant Matrix: (Units=GPa)
#
#
# Indices 1 2 3 4 5 6 
#
# 1 122.5310 81.2670 43.4228 0.0000 0.0000 0.0000
# 2 81.2670 122.5310 43.4228 0.0000 0.0000 0.0000
# 3 43.4228 43.4228 87.1854 0.0000 0.0000 0.0000
# 4 0.0000 0.0000 0.0000 21.4534 0.0000 0.0000
# 5 0.0000 0.0000 0.0000 0.0000 21.4534 0.0000
# 6 0.0000 0.0000 0.0000 0.0000 0.0000 47.4328
#
#
#
# Elastic Compliance Matrix: (Units=1/GPa)
#
#
# Indices 1 2 3 4 5 6 
#
# 1 0.015232 -0.009003 -0.003102 0.000000 0.000000 0.000000
# 2 -0.009003 0.015232 -0.003102 0.000000 0.000000 0.000000
# 3 -0.003102 -0.003102 0.014560 0.000000 0.000000 0.000000
# 4 0.000000 0.000000 0.000000 0.046613 0.000000 0.000000
# 5 0.000000 0.000000 0.000000 0.000000 0.046613 0.000000
# 6 0.000000 0.000000 0.000000 0.000000 0.000000 0.021082
#
#
# Mechanical properties :
#
#
# Convention : Reuss Voigt Hill
#
# Bulk Modulus (GPa) = 68.45310 74.27471 71.36391
# Shear Modulus (GPa) = 25.69175 29.01021 27.35098
#
# Velocity S-wave (km/s) = 3.50030 3.71950 3.61156
# Velocity P-wave (km/s) = 6.99862 7.33942 7.17104
#
# Compressibility (1/GPa) = 0.01460854
#
# Stress axis : x y z
#
# Youngs Moduli (GPa) = 65.65334 65.65334 68.68138
#
# Poissons Ratio (x) = 0.59106 0.21307
# Poissons Ratio (y) = 0.59106 0.21307
# Poissons Ratio (z) = 0.20367 0.20367
#
# Static dielectric constant tensor:
#      x y z
#    x 1.763670 0.000000 0.000000 
#    y 0.000000 1.763670 0.000000 
#    z 0.000000 0.000000 1.802340 
# 
# From -- ./inp_files/4527.got.cif
#   From: 2010.05.17/outbox.cif.g08.bks.cpg/sg94_3_cif.got.tgz:4527.got - 2010.06.03 19:43:16.
