data_PCOD9550236
_publ_section_title
;
Structure prediction by ZEFSAII (Michael W. Deem and Ramdas Pophale) SiO2 
 PCOD9550236
Probable space group: P 42 21 2
;
_chemical_formula_sum "Si O2"
_cell_formula_units_Z 30
_cell_length_a 7.980454
_cell_length_b 7.980454
_cell_length_c 18.380246
_cell_angle_alpha 90.000000
_cell_angle_beta 90.000000
_cell_angle_gamma 90.000000
_cell_volume 1170.594601
_symmetry_space_group_name_H-M "P 42 21 2"
_symmetry_group_IT_number 94
_symmetry_cell_setting 'tetragonal'
loop_
_space_group_symop_operation_xyz
x,y,z
1/2-y,1/2+x,1/2+z
-x,-y,z
1/2+y,1/2-x,1/2+z
1/2+x,1/2-y,1/2-z
1/2-x,1/2+y,1/2-z
y,x,-z
-y,-x,-z
loop_
_atom_site_type_symbol
_atom_site_label
_atom_site_fract_x
_atom_site_fract_y
_atom_site_fract_z
Si Si1 0.203522 0.532975 0.714617
Si Si2 0.000000 0.000000 0.500000
Si Si3 0.237846 0.702895 0.861811
Si Si4 0.259074 0.886706 0.413849
Si Si5 0.000000 0.500000 0.967530
O O1 0.267160 0.579622 0.793777
O O2 0.301854 0.377770 0.679740
O O3 0.000000 0.500000 0.719863
O O4 0.211192 0.685150 0.656780
O O5 0.930910 0.137335 0.441567
O O6 0.411888 0.750528 0.901242
O O7 0.097629 0.630456 0.915161
O O8 0.399201 0.878302 0.476093
#
# Coordination Sequence:
#
# PCOD9550236 Si02
#       5
#     8   2   8   8   4
#     4  10  23  42  63 101 138 182 239 292 359 434
#     4  12  24  40  68 102 136 182 234 292 354 444
#     4  11  22  41  71  98 137 186 237 302 355 428
#     4  11  24  41  67  99 136 182 236 289 362 429
#     4  12  20  42  70 102 136 188 232 294 368 420
#
# _framework density 25.628
#
# number of rings (size 3 to 8) (size 9 to 14) (size 15 to 20)
#    0.000    1.067    8.000    0.000    3.733    0.000 
#    0.000    0.000    0.000    1.600    0.000    0.000 
#    0.000    0.000    0.000    0.000    0.000    0.000 
#
# Total GULP energy -167134.371305 kJ/mol
# GULP energy per Si atom -5571.145710 kJ/mol
# Density = 2.556967 g / cm^3
# Si number density = 25.628000 Si / 1000 Ang^3
#
#
#
# Elastic Constant Matrix: (Units=GPa)
#
#
# Indices 1 2 3 4 5 6 
#
# 1 76.4141 22.0208 50.7872 0.0000 0.0000 0.0000
# 2 22.0208 76.4141 50.7872 0.0000 0.0000 0.0000
# 3 50.7872 50.7872 181.7066 0.0000 0.0000 0.0000
# 4 0.0000 0.0000 0.0000 16.7113 0.0000 0.0000
# 5 0.0000 0.0000 0.0000 0.0000 16.7113 0.0000
# 6 0.0000 0.0000 0.0000 0.0000 0.0000 32.8344
#
#
#
# Elastic Compliance Matrix: (Units=1/GPa)
#
#
# Indices 1 2 3 4 5 6 
#
# 1 0.016331 -0.002054 -0.003990 0.000000 0.000000 0.000000
# 2 -0.002054 0.016331 -0.003990 0.000000 0.000000 0.000000
# 3 -0.003990 -0.003990 0.007734 0.000000 0.000000 0.000000
# 4 0.000000 0.000000 0.000000 0.059840 0.000000 0.000000
# 5 0.000000 0.000000 0.000000 0.000000 0.059840 0.000000
# 6 0.000000 0.000000 0.000000 0.000000 0.000000 0.030456
#
#
# Mechanical properties :
#
#
# Convention : Reuss Voigt Hill
#
# Bulk Modulus (GPa) = 49.19839 64.63612 56.91726
# Shear Modulus (GPa) = 23.00173 27.31405 25.15789
#
# Velocity S-wave (km/s) = 2.99912 3.26818 3.13654
# Velocity P-wave (km/s) = 5.58854 6.28626 5.94764
#
# Compressibility (1/GPa) = 0.02032587
#
# Stress axis : x y z
#
# Youngs Moduli (GPa) = 61.23471 61.23471 129.29968
#
# Poissons Ratio (x) = 0.12578 0.51595
# Poissons Ratio (y) = 0.12578 0.51595
# Poissons Ratio (z) = 0.24435 0.24435
#
# Static dielectric constant tensor:
#      x y z
#    x 2.147770 0.000000 0.000000 
#    y 0.000000 2.147770 0.000000 
#    z 0.000000 0.000000 2.081890 
# 
# From -- ./inp_files/4354.got.cif
#   From: 2010.05.17/outbox.cif.g08.bks.cpg/sg94_3_cif.got.tgz:4354.got - 2010.06.03 19:43:16.
