data_PCOD9550360
_publ_section_title
;
Structure prediction by ZEFSAII (Michael W. Deem and Ramdas Pophale) SiO2 
 PCOD9550360
Probable space group: P 42 21 2
;
_chemical_formula_sum "Si O2"
_cell_formula_units_Z 34
_cell_length_a 8.841224
_cell_length_b 8.841224
_cell_length_c 19.080105
_cell_angle_alpha 90.000000
_cell_angle_beta 90.000000
_cell_angle_gamma 90.000000
_cell_volume 1491.439181
_symmetry_space_group_name_H-M "P 42 21 2"
_symmetry_group_IT_number 94
_symmetry_cell_setting 'tetragonal'
loop_
_space_group_symop_operation_xyz
x,y,z
1/2-y,1/2+x,1/2+z
-x,-y,z
1/2+y,1/2-x,1/2+z
1/2+x,1/2-y,1/2-z
1/2-x,1/2+y,1/2-z
y,x,-z
-y,-x,-z
loop_
_atom_site_type_symbol
_atom_site_label
_atom_site_fract_x
_atom_site_fract_y
_atom_site_fract_z
Si Si1 0.000000 0.000000 0.000000
Si Si2 0.319300 0.846021 0.332600
Si Si3 0.460588 0.829927 0.695207
Si Si4 0.656755 0.441423 0.078061
Si Si5 0.189716 0.886951 0.878220
O O1 0.141776 0.977425 0.948396
O O2 0.314561 0.973654 0.273255
O O3 0.202191 0.715894 0.311689
O O4 0.485349 0.772865 0.333201
O O5 0.272328 0.920639 0.406778
O O6 0.542335 0.694242 0.652967
O O7 0.500000 0.000000 0.670095
O O8 0.500000 0.500000 0.112232
O O9 0.745897 0.299577 0.108499
O O10 0.609278 0.390723 0.000000
#
# Coordination Sequence:
#
# PCOD9550360 Si02
#       5
#     2   8   8   8   8
#     4  12  24  48  74 104 154 204 246 306 372 464
#     4  12  25  46  74 106 146 194 244 311 383 450
#     4  12  25  44  73 108 143 187 247 312 377 441
#     4  11  25  45  68 104 144 187 242 302 366 443
#     4  12  25  50  74 107 149 198 251 304 376 461
#
# _framework density 22.796773999999999
#
# number of rings (size 3 to 8) (size 9 to 14) (size 15 to 20)
#    0.000    0.235    3.529    6.353    0.000    3.765 
#    4.235    0.000    0.000    0.000    0.000    0.000 
#    0.000    0.000    0.000    0.000    0.000    0.000 
#
# Total GULP energy -189968.586398 kJ/mol
# GULP energy per Si atom -5587.311365 kJ/mol
# Density = 2.274489 g / cm^3
# Si number density = 22.796774 Si / 1000 Ang^3
#
#
#
# Elastic Constant Matrix: (Units=GPa)
#
#
# Indices 1 2 3 4 5 6 
#
# 1 117.1747 34.3678 33.8621 0.0000 0.0000 0.0000
# 2 34.3678 117.1748 33.8621 0.0000 0.0000 0.0000
# 3 33.8621 33.8621 75.7120 0.0000 0.0000 0.0000
# 4 0.0000 0.0000 0.0000 37.0062 0.0000 0.0000
# 5 0.0000 0.0000 0.0000 0.0000 37.0061 0.0000
# 6 0.0000 0.0000 0.0000 0.0000 0.0000 62.8274
#
#
#
# Elastic Compliance Matrix: (Units=1/GPa)
#
#
# Indices 1 2 3 4 5 6 
#
# 1 0.010162 -0.001915 -0.003689 0.000000 0.000000 0.000000
# 2 -0.001915 0.010162 -0.003689 0.000000 0.000000 0.000000
# 3 -0.003689 -0.003689 0.016507 0.000000 0.000000 0.000000
# 4 0.000000 0.000000 0.000000 0.027023 0.000000 0.000000
# 5 0.000000 0.000000 0.000000 0.000000 0.027023 0.000000
# 6 0.000000 0.000000 0.000000 0.000000 0.000000 0.015917
#
#
# Mechanical properties :
#
#
# Convention : Reuss Voigt Hill
#
# Bulk Modulus (GPa) = 54.80185 57.13839 55.97012
# Shear Modulus (GPa) = 38.03483 41.23255 39.63369
#
# Velocity S-wave (km/s) = 4.08907 4.25750 4.17413
# Velocity P-wave (km/s) = 6.81069 7.02047 6.91638
#
# Compressibility (1/GPa) = 0.01824756
#
# Stress axis : x y z
#
# Youngs Moduli (GPa) = 98.40822 98.40823 60.57901
#
# Poissons Ratio (x) = 0.18841 0.22345
# Poissons Ratio (y) = 0.18841 0.22345
# Poissons Ratio (z) = 0.36298 0.36299
#
# Static dielectric constant tensor:
#      x y z
#    x 1.857420 0.000000 0.000000 
#    y 0.000000 1.857420 0.000000 
#    z 0.000000 0.000000 1.887130 
# 
# From -- ./inp_files/4525.got.cif
#   From: 2010.05.17/outbox.cif.g08.bks.cpg/sg94_3_cif.got.tgz:4525.got - 2010.06.03 19:43:16.
