data_PCOD9550100
_publ_section_title
;
Structure prediction by ZEFSAII (Michael W. Deem and Ramdas Pophale) SiO2 
 PCOD9550100
Probable space group: P 42 21 2
;
_chemical_formula_sum "Si O2"
_cell_formula_units_Z 48
_cell_length_a 9.026949
_cell_length_b 9.026949
_cell_length_c 26.027298
_cell_angle_alpha 90.000000
_cell_angle_beta 90.000000
_cell_angle_gamma 90.000000
_cell_volume 2120.855414
_symmetry_space_group_name_H-M "P 42 21 2"
_symmetry_group_IT_number 94
_symmetry_cell_setting 'tetragonal'
loop_
_space_group_symop_operation_xyz
x,y,z
1/2-y,1/2+x,1/2+z
-x,-y,z
1/2+y,1/2-x,1/2+z
1/2+x,1/2-y,1/2-z
1/2-x,1/2+y,1/2-z
y,x,-z
-y,-x,-z
loop_
_atom_site_type_symbol
_atom_site_label
_atom_site_fract_x
_atom_site_fract_y
_atom_site_fract_z
Si Si1 0.079535 0.145653 0.910668
Si Si2 0.337431 0.943142 0.633976
Si Si3 0.383618 0.386979 0.219637
Si Si4 0.382976 0.107043 0.288302
Si Si5 0.338775 0.960770 0.901114
Si Si6 0.202222 0.687466 0.946620
O O1 0.139425 0.268097 0.872259
O O2 0.960814 0.233416 0.945693
O O3 0.225657 0.066013 0.931680
O O4 0.000000 0.000000 0.887444
O O5 0.201650 0.961725 0.672763
O O6 0.500000 0.000000 0.649627
O O7 0.307502 0.027269 0.579683
O O8 0.500000 0.500000 0.245041
O O9 0.336162 0.253343 0.257313
O O10 0.252686 0.495460 0.201288
O O11 0.470879 0.159494 0.339393
O O12 0.500000 0.000000 0.259637
O O13 0.294451 0.791543 0.908591
O O14 0.500000 0.000000 0.920484
O O15 0.285341 0.714660 0.000000
#
# Coordination Sequence:
#
# PCOD9550100 Si02
#       6
#     8   8   8   8   8   8
#     4   9  20  37  62  90 122 166 216 271 332 401
#     4  10  21  40  66  96 132 177 226 282 349 417
#     4  12  25  41  65  94 134 179 227 287 350 417
#     4  11  24  41  62  94 128 172 228 284 346 411
#     4  10  21  38  60  87 125 168 219 283 340 402
#     4  10  22  40  63  94 128 169 222 277 340 419
#
# _framework density 22.632379
#
# number of rings (size 3 to 8) (size 9 to 14) (size 15 to 20)
#    0.000    1.667    0.000    4.500    0.000   11.000 
#    0.000    0.000    0.000   11.500    0.000    0.000 
#    0.000    0.000    0.000    0.000    0.000    0.000 
#
# Total GULP energy -267482.193066 kJ/mol
# GULP energy per Si atom -5572.545689 kJ/mol
# Density = 2.258087 g / cm^3
# Si number density = 22.632379 Si / 1000 Ang^3
#
#
#
# Elastic Constant Matrix: (Units=GPa)
#
#
# Indices 1 2 3 4 5 6 
#
# 1 120.3920 46.4861 20.4004 0.0000 0.0000 0.0000
# 2 46.4861 120.3920 20.4004 0.0000 0.0000 0.0000
# 3 20.4004 20.4004 80.0016 0.0000 0.0000 0.0000
# 4 0.0000 0.0000 0.0000 9.9727 0.0000 0.0000
# 5 0.0000 0.0000 0.0000 0.0000 9.9724 0.0000
# 6 0.0000 0.0000 0.0000 0.0000 0.0000 33.8507
#
#
#
# Elastic Compliance Matrix: (Units=1/GPa)
#
#
# Indices 1 2 3 4 5 6 
#
# 1 0.009961 -0.003570 -0.001630 0.000000 0.000000 0.000000
# 2 -0.003570 0.009961 -0.001630 0.000000 0.000000 0.000000
# 3 -0.001630 -0.001630 0.013331 0.000000 0.000000 0.000000
# 4 0.000000 0.000000 0.000000 0.100273 0.000000 0.000000
# 5 0.000000 0.000000 0.000000 0.000000 0.100277 0.000000
# 6 0.000000 0.000000 0.000000 0.000000 0.000000 0.029542
#
#
# Mechanical properties :
#
#
# Convention : Reuss Voigt Hill
#
# Bulk Modulus (GPa) = 51.03629 55.03994 53.03811
# Shear Modulus (GPa) = 17.63457 26.32574 21.98015
#
# Velocity S-wave (km/s) = 2.79440 3.41426 3.11976
# Velocity P-wave (km/s) = 5.74549 6.31781 6.03843
#
# Compressibility (1/GPa) = 0.01959390
#
# Stress axis : x y z
#
# Youngs Moduli (GPa) = 100.39373 100.39380 75.01382
#
# Poissons Ratio (x) = 0.35840 0.12225
# Poissons Ratio (y) = 0.35840 0.12225
# Poissons Ratio (z) = 0.16361 0.16361
#
# Static dielectric constant tensor:
#      x y z
#    x 1.913460 0.000000 0.000000 
#    y 0.000000 1.913460 0.000000 
#    z 0.000000 0.000000 1.893450 
# 
# From -- ./inp_files/5611.got.cif
#   From: 2010.05.17/outbox.cif.g08.bks.cpg/sg94_3_cif.got.tgz:5611.got - 2010.06.03 19:43:16.
