data_PCOD9550458
_publ_section_title
;
Structure prediction by ZEFSAII (Michael W. Deem and Ramdas Pophale) SiO2 
 PCOD9550458
Probable space group: P 43 2 2
;
_chemical_formula_sum "Si O2"
_cell_formula_units_Z 48
_cell_length_a 11.039304
_cell_length_b 11.039304
_cell_length_c 16.827774
_cell_angle_alpha 90.000000
_cell_angle_beta 90.000000
_cell_angle_gamma 90.000000
_cell_volume 2050.737424
_symmetry_space_group_name_H-M "P 43 2 2"
_symmetry_group_IT_number 95
_symmetry_cell_setting 'tetragonal'
loop_
_space_group_symop_operation_xyz
x,y,z
-y,x,3/4+z
-x,-y,1/2+z
y,-x,1/4+z
x,-y,1/2-z
-x,y,-z
y,x,1/4-z
-y,-x,3/4-z
loop_
_atom_site_type_symbol
_atom_site_label
_atom_site_fract_x
_atom_site_fract_y
_atom_site_fract_z
Si Si1 0.398183 0.148789 0.740730
Si Si2 0.279619 0.974647 0.373661
Si Si3 0.159286 0.904319 0.680418
Si Si4 0.742270 0.651272 0.540899
Si Si5 0.919697 0.487312 0.340087
Si Si6 0.326884 0.870603 0.545638
O O1 0.269408 0.176645 0.781577
O O2 0.511248 0.224775 0.774404
O O3 0.399491 0.158027 0.645292
O O4 0.413307 0.000000 0.750000
O O5 0.159035 0.040580 0.398690
O O6 0.385041 0.074089 0.364109
O O7 0.282480 0.873056 0.306768
O O8 0.317371 0.911525 0.455505
O O9 0.222276 0.936033 0.596713
O O10 0.135565 0.000000 0.750000
O O11 0.670311 0.670311 0.625000
O O12 0.681002 0.725989 0.467734
O O13 0.875914 0.500000 0.250000
O O14 0.059744 0.440862 0.333076
#
# Coordination Sequence:
#
# PCOD9550458 Si02
#       6
#     8   8   8   8   8   8
#     4  11  19  37  61  85 127 165 210 264 327 395
#     4  10  21  37  56  86 124 167 208 257 325 387
#     4  11  22  37  54  86 125 170 206 253 319 393
#     4  10  21  37  61  96 121 161 213 270 333 395
#     4  10  19  36  60  85 115 161 219 258 307 396
#     4  10  20  35  55  86 120 153 209 259 312 379
#
# _framework density 23.406213999999999
#
# number of rings (size 3 to 8) (size 9 to 14) (size 15 to 20)
#    0.000    1.667    5.000    1.000    0.000    0.667 
#    9.000    0.000    0.000    0.000    0.000   31.500 
#    0.000    0.667    0.000    0.000    0.000    0.000 
#
# Total GULP energy -267386.374221 kJ/mol
# GULP energy per Si atom -5570.549463 kJ/mol
# Density = 2.335294 g / cm^3
# Si number density = 23.406214 Si / 1000 Ang^3
#
#
#
# Elastic Constant Matrix: (Units=GPa)
#
#
# Indices 1 2 3 4 5 6 
#
# 1 52.6519 32.2084 17.5949 0.0000 0.0000 0.0000
# 2 32.2084 52.6519 17.5949 0.0000 0.0000 0.0000
# 3 17.5949 17.5949 109.1844 0.0000 0.0000 0.0000
# 4 0.0000 0.0000 0.0000 30.7823 0.0000 0.0000
# 5 0.0000 0.0000 0.0000 0.0000 30.7823 0.0000
# 6 0.0000 0.0000 0.0000 0.0000 0.0000 18.5690
#
#
#
# Elastic Compliance Matrix: (Units=1/GPa)
#
#
# Indices 1 2 3 4 5 6 
#
# 1 0.030772 -0.018144 -0.002035 0.000000 0.000000 0.000000
# 2 -0.018144 0.030772 -0.002035 0.000000 0.000000 0.000000
# 3 -0.002035 -0.002035 0.009815 0.000000 0.000000 0.000000
# 4 0.000000 0.000000 0.000000 0.032486 0.000000 0.000000
# 5 0.000000 0.000000 0.000000 0.000000 0.032486 0.000000
# 6 0.000000 0.000000 0.000000 0.000000 0.000000 0.053853
#
#
# Mechanical properties :
#
#
# Convention : Reuss Voigt Hill
#
# Bulk Modulus (GPa) = 37.13238 38.80938 37.97088
# Shear Modulus (GPa) = 20.52649 25.83274 23.17962
#
# Velocity S-wave (km/s) = 2.96458 3.32576 3.15035
# Velocity P-wave (km/s) = 5.25519 5.60039 5.43053
#
# Compressibility (1/GPa) = 0.02693067
#
# Stress axis : x y z
#
# Youngs Moduli (GPa) = 32.49745 32.49745 101.88820
#
# Poissons Ratio (x) = 0.58962 0.20734
# Poissons Ratio (y) = 0.58962 0.20734
# Poissons Ratio (z) = 0.06613 0.06613
#
# Static dielectric constant tensor:
#      x y z
#    x 2.015440 0.000000 0.000000 
#    y 0.000000 2.015440 0.000000 
#    z 0.000000 0.000000 1.976620 
# 
# From -- ./inp_files/5665.got.cif
#   From: 2010.05.17/outbox.cif.g08.bks.cpg/sg95_3_cif.got.tgz:5665.got - 2010.06.03 19:46:49.
