data_PCOD9550848
_publ_section_title
;
Structure prediction by ZEFSAII (Michael W. Deem and Ramdas Pophale) SiO2 
 PCOD9550848
Probable space group: P 43 21 2
;
_chemical_formula_sum "Si O2"
_cell_formula_units_Z 52
_cell_length_a 20.306840
_cell_length_b 20.306840
_cell_length_c 5.299442
_cell_angle_alpha 90.000000
_cell_angle_beta 90.000000
_cell_angle_gamma 90.000000
_cell_volume 2185.318978
_symmetry_space_group_name_H-M "P 43 21 2"
_symmetry_group_IT_number 96
_symmetry_cell_setting 'tetragonal'
loop_
_space_group_symop_operation_xyz
x,y,z
1/2-y,1/2+x,3/4+z
-x,-y,1/2+z
1/2+y,1/2-x,1/4+z
1/2+x,1/2-y,1/4-z
1/2-x,1/2+y,3/4-z
y,x,-z
-y,-x,1/2-z
loop_
_atom_site_type_symbol
_atom_site_label
_atom_site_fract_x
_atom_site_fract_y
_atom_site_fract_z
Si Si1 0.750727 0.586364 0.801681
Si Si2 0.115805 0.368551 0.411779
Si Si3 0.109457 0.109457 0.500000
Si Si4 0.951335 0.761653 0.792823
Si Si5 0.672111 0.672111 0.500000
Si Si6 0.438333 0.920811 0.849129
Si Si7 0.459665 0.345853 0.307754
Si Si8 0.951938 0.951938 0.500000
O O1 0.810688 0.606754 0.981137
O O2 0.767827 0.520841 0.643903
O O3 0.734759 0.656751 0.670410
O O4 0.682094 0.560155 0.921303
O O5 0.099236 0.298605 0.280369
O O6 0.077154 0.368543 0.679283
O O7 0.097811 0.415119 0.171172
O O8 0.087122 0.184585 0.462822
O O9 0.074315 0.081037 0.745965
O O10 0.978719 0.802809 0.550338
O O11 0.605108 0.672295 0.656331
O O12 0.513224 0.921985 0.755097
O O13 0.475189 0.422519 0.257058
#
# Coordination Sequence:
#
# PCOD9550848 Si02
#       8
#     8   8   4   8   4   8   8   4
#     4  11  23  46  69  99 141 191 230 306 357 440
#     4  12  28  41  73 104 140 191 245 288 375 444
#     4  10  20  40  67  96 131 177 232 284 345 406
#     4  10  23  43  68  99 136 184 237 298 350 431
#     4  10  24  44  67 100 141 185 236 285 372 430
#     4  12  25  46  66 102 140 184 239 314 364 432
#     4  10  22  43  70  95 141 181 234 296 363 428
#     4  10  20  40  70 102 130 176 226 289 353 420
#
# _framework density 23.795152000000002
#
# number of rings (size 3 to 8) (size 9 to 14) (size 15 to 20)
#    0.000    1.231    1.538    4.154    8.615    0.000 
#    5.538    3.077    0.000    0.000    0.000    0.000 
#    0.000    0.000    0.000    0.000    0.000    0.000 
#
# Total GULP energy -289564.810793 kJ/mol
# GULP energy per Si atom -5568.554054 kJ/mol
# Density = 2.374099 g / cm^3
# Si number density = 23.795152 Si / 1000 Ang^3
#
#
#
# Elastic Constant Matrix: (Units=GPa)
#
#
# Indices 1 2 3 4 5 6 
#
# 1 23.4146 67.3053 11.9566 0.0000 0.0000 0.0000
# 2 67.3053 23.4146 11.9566 0.0000 0.0000 0.0000
# 3 11.9566 11.9566 96.4893 0.0000 0.0000 0.0000
# 4 0.0000 0.0000 0.0000 31.4055 0.0000 0.0000
# 5 0.0000 0.0000 0.0000 0.0000 31.4055 0.0000
# 6 0.0000 0.0000 0.0000 0.0000 0.0000 27.7179
#
#
#
# Elastic Compliance Matrix: (Units=1/GPa)
#
#
# Indices 1 2 3 4 5 6 
#
# 1 -0.005694 0.017090 -0.001412 0.000000 0.000000 0.000000
# 2 0.017090 -0.005694 -0.001412 0.000000 0.000000 0.000000
# 3 -0.001412 -0.001412 0.010714 0.000000 0.000000 0.000000
# 4 0.000000 0.000000 0.000000 0.031842 0.000000 0.000000
# 5 0.000000 0.000000 0.000000 0.000000 0.031842 0.000000
# 6 0.000000 0.000000 0.000000 0.000000 0.000000 0.036078
#
#
# Mechanical properties :
#
#
# Convention : Reuss Voigt Hill
#
# Bulk Modulus (GPa) = 35.89903 36.19506 36.04704
# Shear Modulus (GPa) = 62.62501 21.57913 42.10207
#
# Velocity S-wave (km/s) = 5.13571 3.01470 4.21093
# Velocity P-wave (km/s) = 7.09132 5.23087 6.23092
#
# Compressibility (1/GPa) = 0.02785591
#
# Stress axis : x y z
#
# Youngs Moduli (GPa) = -175.61164 -175.61164 93.33765
#
# Poissons Ratio (x) = 3.00112 0.13180
# Poissons Ratio (y) = 3.00112 0.13180
# Poissons Ratio (z) = -0.24797 -0.24797
#
# Static dielectric constant tensor:
#      x y z
#    x 2.009230 0.000000 0.000000 
#    y 0.000000 2.009230 0.000000 
#    z 0.000000 0.000000 1.792750 
# 
# From -- ./inp_files/736.got.cif
#   From: 2010.05.17/outbox.cif.g08.bks.cpg/sg96_1_cif.got.tgz:736.got - 2010.06.03 19:52:08.
