data_PCOD9550847
_publ_section_title
;
Structure prediction by ZEFSAII (Michael W. Deem and Ramdas Pophale) SiO2 
 PCOD9550847
Probable space group: P 43 21 2
;
_chemical_formula_sum "Si O2"
_cell_formula_units_Z 48
_cell_length_a 9.089932
_cell_length_b 9.089932
_cell_length_c 29.250860
_cell_angle_alpha 90.000000
_cell_angle_beta 90.000000
_cell_angle_gamma 90.000000
_cell_volume 2416.906824
_symmetry_space_group_name_H-M "P 43 21 2"
_symmetry_group_IT_number 96
_symmetry_cell_setting 'tetragonal'
loop_
_space_group_symop_operation_xyz
x,y,z
1/2-y,1/2+x,3/4+z
-x,-y,1/2+z
1/2+y,1/2-x,1/4+z
1/2+x,1/2-y,1/4-z
1/2-x,1/2+y,3/4-z
y,x,-z
-y,-x,1/2-z
loop_
_atom_site_type_symbol
_atom_site_label
_atom_site_fract_x
_atom_site_fract_y
_atom_site_fract_z
Si Si1 0.338301 0.314592 0.446257
Si Si2 0.598188 0.826829 0.510943
Si Si3 0.516899 0.019621 0.430107
Si Si4 0.789961 0.205255 0.411434
Si Si5 0.072440 0.517997 0.175108
Si Si6 0.388671 0.518392 0.912725
O O1 0.341740 0.341740 0.500000
O O2 0.394228 0.146754 0.438014
O O3 0.178357 0.362236 0.430159
O O4 0.449772 0.427302 0.422548
O O5 0.760281 0.760281 0.500000
O O6 0.523384 0.694635 0.540129
O O7 0.519423 0.881482 0.464506
O O8 0.567801 0.966905 0.544555
O O9 0.674314 0.101656 0.437150
O O10 0.508963 0.969141 0.377632
O O11 0.691857 0.338470 0.391640
O O12 0.867945 0.114337 0.371819
O O13 0.911146 0.292984 0.439865
#
# Coordination Sequence:
#
# PCOD9550847 Si02
#       6
#     8   8   8   8   8   8
#     4  11  24  43  62  94 137 176 216 274 339 390
#     4  11  22  40  71  97 124 173 225 270 325 397
#     4  11  23  42  68  95 133 173 218 279 325 396
#     4  10  20  40  67  93 130 169 210 277 322 379
#     4  11  24  42  64  98 136 172 220 273 332 403
#     4  10  22  40  69  96 128 171 220 270 325 398
#
# _framework density 19.860097
#
# number of rings (size 3 to 8) (size 9 to 14) (size 15 to 20)
#    0.000    1.333    5.000    1.500    2.333    0.000 
#    0.000    0.833    0.000    0.000    0.000    0.000 
#    0.000    0.000    0.000    0.000    0.000    0.000 
#
# Total GULP energy -267507.960781 kJ/mol
# GULP energy per Si atom -5573.082516 kJ/mol
# Density = 1.981489 g / cm^3
# Si number density = 19.860097 Si / 1000 Ang^3
#
#
#
# Elastic Constant Matrix: (Units=GPa)
#
#
# Indices 1 2 3 4 5 6 
#
# 1 91.9953 33.4791 2.8101 0.0000 0.0000 0.0000
# 2 33.4791 91.9953 2.8101 0.0000 0.0000 0.0000
# 3 2.8101 2.8101 48.0530 0.0000 0.0000 0.0000
# 4 0.0000 0.0000 0.0000 13.7355 0.0000 0.0000
# 5 0.0000 0.0000 0.0000 0.0000 13.7355 0.0000
# 6 0.0000 0.0000 0.0000 0.0000 0.0000 26.0707
#
#
#
# Elastic Compliance Matrix: (Units=1/GPa)
#
#
# Indices 1 2 3 4 5 6 
#
# 1 0.012540 -0.004549 -0.000467 0.000000 0.000000 0.000000
# 2 -0.004549 0.012540 -0.000467 0.000000 0.000000 0.000000
# 3 -0.000467 -0.000467 0.020865 0.000000 0.000000 0.000000
# 4 0.000000 0.000000 0.000000 0.072804 0.000000 0.000000
# 5 0.000000 0.000000 0.000000 0.000000 0.072804 0.000000
# 6 0.000000 0.000000 0.000000 0.000000 0.000000 0.038357
#
#
# Mechanical properties :
#
#
# Convention : Reuss Voigt Hill
#
# Bulk Modulus (GPa) = 28.59003 34.47135 31.53069
# Shear Modulus (GPa) = 19.79905 23.57127 21.68516
#
# Velocity S-wave (km/s) = 3.16084 3.44883 3.30797
# Velocity P-wave (km/s) = 5.26765 5.76663 5.52278
#
# Compressibility (1/GPa) = 0.03497722
#
# Stress axis : x y z
#
# Youngs Moduli (GPa) = 79.74487 79.74487 47.92714
#
# Poissons Ratio (x) = 0.36278 0.02240
# Poissons Ratio (y) = 0.36278 0.02240
# Poissons Ratio (z) = 0.03726 0.03726
#
# Static dielectric constant tensor:
#      x y z
#    x 1.761440 0.000000 0.000000 
#    y 0.000000 1.761440 0.000000 
#    z 0.000000 0.000000 1.705570 
# 
# From -- ./inp_files/4456.got.cif
#   From: 2010.05.17/outbox.cif.g08.bks.cpg/sg96_3_cif.got.tgz:4456.got - 2010.06.03 19:52:08.
