data_PCOD9550778
_publ_section_title
;
Structure prediction by ZEFSAII (Michael W. Deem and Ramdas Pophale) SiO2 
 PCOD9550778
Probable space group: P 43 21 2
;
_chemical_formula_sum "Si O2"
_cell_formula_units_Z 24
_cell_length_a 11.830684
_cell_length_b 11.830684
_cell_length_c 7.047554
_cell_angle_alpha 90.000000
_cell_angle_beta 90.000000
_cell_angle_gamma 90.000000
_cell_volume 986.411487
_symmetry_space_group_name_H-M "P 43 21 2"
_symmetry_group_IT_number 96
_symmetry_cell_setting 'tetragonal'
loop_
_space_group_symop_operation_xyz
x,y,z
1/2-y,1/2+x,3/4+z
-x,-y,1/2+z
1/2+y,1/2-x,1/4+z
1/2+x,1/2-y,1/4-z
1/2-x,1/2+y,3/4-z
y,x,-z
-y,-x,1/2-z
loop_
_atom_site_type_symbol
_atom_site_label
_atom_site_fract_x
_atom_site_fract_y
_atom_site_fract_z
Si Si1 0.688826 0.739537 0.799557
Si Si2 0.158942 0.999629 0.624881
Si Si3 0.931993 0.763698 0.499032
O O1 0.710011 0.610037 0.732289
O O2 0.712637 0.834587 0.637823
O O3 0.554694 0.751748 0.835878
O O4 0.749953 0.749953 0.000000
O O5 0.089439 0.089439 0.500000
O O6 0.251360 0.053043 0.772416
O O7 0.066656 0.933345 0.750000
O O8 0.893506 0.893506 0.500000
#
# Coordination Sequence:
#
# PCOD9550778 Si02
#       3
#     8   8   8
#     4  11  24  44  70 104 140 183 238 291 350 423
#     4  10  19  38  71 106 138 178 234 295 347 410
#     4  11  23  42  68 100 138 181 230 288 350 413
#
# _framework density 24.330614000000001
#
# number of rings (size 3 to 8) (size 9 to 14) (size 15 to 20)
#    0.000    1.333    0.000   10.000    0.000    4.000 
#    0.000    3.333    0.000    4.000    0.000    0.000 
#    0.000    0.000    0.000    0.000    0.000    0.000 
#
# Total GULP energy -133632.704750 kJ/mol
# GULP energy per Si atom -5568.029365 kJ/mol
# Density = 2.427524 g / cm^3
# Si number density = 24.330614 Si / 1000 Ang^3
#
#
#
# Elastic Constant Matrix: (Units=GPa)
#
#
# Indices 1 2 3 4 5 6 
#
# 1 104.0121 63.1835 82.3141 0.0000 0.0000 0.0000
# 2 63.1835 104.0208 82.3149 0.0000 0.0000 0.0000
# 3 82.3141 82.3149 198.4563 0.0000 0.0000 0.0000
# 4 0.0000 0.0000 0.0000 56.1562 0.0000 0.0000
# 5 0.0000 0.0000 0.0000 0.0000 56.1561 0.0000
# 6 0.0000 0.0000 0.0000 0.0000 0.0000 40.5714
#
#
#
# Elastic Compliance Matrix: (Units=1/GPa)
#
#
# Indices 1 2 3 4 5 6 
#
# 1 0.017301 -0.007190 -0.004194 0.000000 0.000000 0.000000
# 2 -0.007190 0.017299 -0.004193 0.000000 0.000000 0.000000
# 3 -0.004194 -0.004193 0.008517 0.000000 0.000000 0.000000
# 4 0.000000 0.000000 0.000000 0.017807 0.000000 0.000000
# 5 0.000000 0.000000 0.000000 0.000000 0.017807 0.000000
# 6 0.000000 0.000000 0.000000 0.000000 0.000000 0.024648
#
#
# Mechanical properties :
#
#
# Convention : Reuss Voigt Hill
#
# Bulk Modulus (GPa) = 83.58590 95.79048 89.68819
# Shear Modulus (GPa) = 36.09564 42.48853 39.29209
#
# Velocity S-wave (km/s) = 3.85586 4.18341 4.02297
# Velocity P-wave (km/s) = 7.36562 7.92404 7.64993
#
# Compressibility (1/GPa) = 0.01196374
#
# Stress axis : x y z
#
# Youngs Moduli (GPa) = 57.80079 57.80750 117.40749
#
# Poissons Ratio (x) = 0.41565 0.49236
# Poissons Ratio (y) = 0.41560 0.49227
# Poissons Ratio (z) = 0.24239 0.24238
#
# Static dielectric constant tensor:
#      x y z
#    x 2.167880 0.000000 0.000000 
#    y 0.000000 2.167880 0.000000 
#    z 0.000000 0.000000 2.179120 
# 
# From -- ./inp_files/1005.got.cif
#   From: 2010.05.17/outbox.cif.g08.bks.cpg/sg96_1_cif.got.tgz:1005.got - 2010.06.03 19:52:08.
