data_PCOD9550514
_publ_section_title
;
Structure prediction by ZEFSAII (Michael W. Deem and Ramdas Pophale) SiO2 
 PCOD9550514
Probable space group: P 43 2 2
;
_chemical_formula_sum "Si O2"
_cell_formula_units_Z 60
_cell_length_a 10.973638
_cell_length_b 10.973638
_cell_length_c 21.784927
_cell_angle_alpha 90.000000
_cell_angle_beta 90.000000
_cell_angle_gamma 90.000000
_cell_volume 2623.356833
_symmetry_space_group_name_H-M "P 43 2 2"
_symmetry_group_IT_number 95
_symmetry_cell_setting 'tetragonal'
loop_
_space_group_symop_operation_xyz
x,y,z
-y,x,3/4+z
-x,-y,1/2+z
y,-x,1/4+z
x,-y,1/2-z
-x,y,-z
y,x,1/4-z
-y,-x,3/4-z
loop_
_atom_site_type_symbol
_atom_site_label
_atom_site_fract_x
_atom_site_fract_y
_atom_site_fract_z
Si Si1 0.827283 0.252758 0.206437
Si Si2 0.577223 0.148629 0.061598
Si Si3 0.922412 0.908628 0.197836
Si Si4 0.187174 0.135846 0.325635
Si Si5 0.348674 0.500000 0.750000
Si Si6 0.455259 0.880926 0.217071
Si Si7 0.547889 0.719078 0.314284
Si Si8 0.138187 0.532631 0.834890
O O1 0.887504 0.217598 0.269762
O O2 0.879589 0.176628 0.149128
O O3 0.682820 0.230255 0.203383
O O4 0.856798 0.390360 0.186207
O O5 0.720315 0.182171 0.058935
O O6 0.525808 0.232478 0.117334
O O7 0.568873 0.003272 0.075957
O O8 0.500000 0.169854 0.000000
O O9 0.895468 0.895468 0.125000
O O10 0.067137 0.924704 0.199708
O O11 0.866335 0.000000 0.250000
O O12 0.318516 0.089081 0.304909
O O13 0.431174 0.421156 0.796193
O O14 0.256555 0.575682 0.795433
O O15 0.452716 0.776166 0.267563
O O16 0.532138 0.840448 0.157834
O O17 0.508170 0.000000 0.250000
#
# Coordination Sequence:
#
# PCOD9550514 Si02
#       8
#     8   8   8   8   4   8   8   8
#     4   9  21  41  61  96 133 167 228 288 350 418
#     4  11  21  41  71  99 131 179 236 286 342 424
#     4  12  23  39  60  94 136 178 221 285 358 428
#     4  10  23  40  63  91 135 178 223 285 347 418
#     4  10  22  44  68 102 142 182 232 288 368 418
#     4  11  22  42  67  96 136 180 233 294 345 415
#     4  10  23  42  69 101 135 177 231 293 349 425
#     4  10  20  38  70  97 129 180 228 284 349 426
#
# _framework density 22.871459999999999
#
# number of rings (size 3 to 8) (size 9 to 14) (size 15 to 20)
#    0.000    1.600    3.333    2.000    1.867    2.133 
#    1.200    0.667    5.867    0.000    0.000    0.000 
#    0.000    0.000    0.000    0.000    0.000    0.000 
#
# Total GULP energy -334491.775825 kJ/mol
# GULP energy per Si atom -5574.862930 kJ/mol
# Density = 2.281940 g / cm^3
# Si number density = 22.871460 Si / 1000 Ang^3
#
#
#
# Elastic Constant Matrix: (Units=GPa)
#
#
# Indices 1 2 3 4 5 6 
#
# 1 26.3851 6.7005 34.9321 0.0000 0.0000 0.0000
# 2 6.7005 26.3851 34.9321 0.0000 0.0000 0.0000
# 3 34.9321 34.9321 195.4737 0.0000 0.0000 0.0000
# 4 0.0000 0.0000 0.0000 33.5220 0.0000 0.0000
# 5 0.0000 0.0000 0.0000 0.0000 33.5220 0.0000
# 6 0.0000 0.0000 0.0000 0.0000 0.0000 13.7831
#
#
#
# Elastic Compliance Matrix: (Units=1/GPa)
#
#
# Indices 1 2 3 4 5 6 
#
# 1 0.049672 -0.001129 -0.008675 0.000000 0.000000 0.000000
# 2 -0.001129 0.049672 -0.008675 0.000000 0.000000 0.000000
# 3 -0.008675 -0.008675 0.008216 0.000000 0.000000 0.000000
# 4 0.000000 0.000000 0.000000 0.029831 0.000000 0.000000
# 5 0.000000 0.000000 0.000000 0.000000 0.029831 0.000000
# 6 0.000000 0.000000 0.000000 0.000000 0.000000 0.072553
#
#
# Mechanical properties :
#
#
# Convention : Reuss Voigt Hill
#
# Bulk Modulus (GPa) = 14.16391 44.59703 29.38047
# Shear Modulus (GPa) = 16.65187 27.61071 22.13129
#
# Velocity S-wave (km/s) = 2.70119 3.47827 3.11406
# Velocity P-wave (km/s) = 3.99185 5.97264 5.07973
#
# Compressibility (1/GPa) = 0.07060195
#
# Stress axis : x y z
#
# Youngs Moduli (GPa) = 20.13215 20.13215 121.71052
#
# Poissons Ratio (x) = 0.02274 1.05581
# Poissons Ratio (y) = 0.02274 1.05581
# Poissons Ratio (z) = 0.17464 0.17464
#
# Static dielectric constant tensor:
#      x y z
#    x 1.915780 0.000000 0.000000 
#    y 0.000000 1.915780 0.000000 
#    z 0.000000 0.000000 1.908050 
# 
# From -- ./inp_files/6532.got.cif
#   From: 2010.05.17/outbox.cif.g08.bks.cpg/sg95_4_cif.got.tgz:6532.got - 2010.06.03 19:46:49.
