data_PCOD9550036
_publ_section_title
;
Structure prediction by ZEFSAII (Michael W. Deem and Ramdas Pophale) SiO2 
 PCOD9550036
Probable space group: P 42 21 2
;
_chemical_formula_sum "Si O2"
_cell_formula_units_Z 48
_cell_length_a 9.168043
_cell_length_b 9.168043
_cell_length_c 27.822940
_cell_angle_alpha 90.000000
_cell_angle_beta 90.000000
_cell_angle_gamma 90.000000
_cell_volume 2338.601922
_symmetry_space_group_name_H-M "P 42 21 2"
_symmetry_group_IT_number 94
_symmetry_cell_setting 'tetragonal'
loop_
_space_group_symop_operation_xyz
x,y,z
1/2-y,1/2+x,1/2+z
-x,-y,z
1/2+y,1/2-x,1/2+z
1/2+x,1/2-y,1/2-z
1/2-x,1/2+y,1/2-z
y,x,-z
-y,-x,-z
loop_
_atom_site_type_symbol
_atom_site_label
_atom_site_fract_x
_atom_site_fract_y
_atom_site_fract_z
Si Si1 0.834033 0.055123 0.444183
Si Si2 0.424166 0.152022 0.851925
Si Si3 0.997857 0.326113 0.460725
Si Si4 0.644360 0.406643 0.324172
Si Si5 0.597174 0.352679 0.786090
Si Si6 0.620536 0.126050 0.142137
O O1 0.762212 0.030797 0.393652
O O2 0.851252 0.231845 0.449306
O O3 0.743866 0.976163 0.486513
O O4 0.000000 0.000000 0.445709
O O5 0.250402 0.135125 0.849005
O O6 0.495975 0.222237 0.805055
O O7 0.500000 0.000000 0.861694
O O8 0.000000 0.500000 0.467167
O O9 0.092654 0.309490 0.411534
O O10 0.500000 0.500000 0.318351
O O11 0.687175 0.369209 0.269090
O O12 0.740675 0.522363 0.353240
O O13 0.500000 0.500000 0.789392
O O14 0.742489 0.373004 0.819045
O O15 0.500000 0.000000 0.151815
#
# Coordination Sequence:
#
# PCOD9550036 Si02
#       6
#     8   8   8   8   8   8
#     4  11  23  41  65  94 127 165 215 272 330 394
#     4  12  24  40  63  93 128 168 219 278 334 395
#     4  10  20  37  63  92 122 160 206 258 320 387
#     4  11  25  42  61  91 131 173 215 269 337 401
#     4  11  23  40  63  92 128 171 222 270 322 399
#     4  11  22  39  65  93 129 174 217 265 327 393
#
# _framework density 20.525086000000002
#
# number of rings (size 3 to 8) (size 9 to 14) (size 15 to 20)
#    0.000    1.000    0.000    9.000    0.000    6.000 
#    0.000    1.667    0.000    0.000    0.000    5.833 
#    0.000    0.000    0.000    0.000    0.000    0.000 
#
# Total GULP energy -267513.930859 kJ/mol
# GULP energy per Si atom -5573.206893 kJ/mol
# Density = 2.047837 g / cm^3
# Si number density = 20.525086 Si / 1000 Ang^3
#
#
#
# Elastic Constant Matrix: (Units=GPa)
#
#
# Indices 1 2 3 4 5 6 
#
# 1 98.5525 36.4038 35.2053 0.0000 0.0000 0.0000
# 2 36.4038 98.5525 35.2053 0.0000 0.0000 0.0000
# 3 35.2053 35.2053 112.7321 0.0000 0.0000 0.0000
# 4 0.0000 0.0000 0.0000 26.5230 0.0000 0.0000
# 5 0.0000 0.0000 0.0000 0.0000 26.5230 0.0000
# 6 0.0000 0.0000 0.0000 0.0000 0.0000 33.7865
#
#
#
# Elastic Compliance Matrix: (Units=1/GPa)
#
#
# Indices 1 2 3 4 5 6 
#
# 1 0.012471 -0.003619 -0.002764 0.000000 0.000000 0.000000
# 2 -0.003619 0.012471 -0.002764 0.000000 0.000000 0.000000
# 3 -0.002764 -0.002764 0.010597 0.000000 0.000000 0.000000
# 4 0.000000 0.000000 0.000000 0.037703 0.000000 0.000000
# 5 0.000000 0.000000 0.000000 0.000000 0.037703 0.000000
# 6 0.000000 0.000000 0.000000 0.000000 0.000000 0.029598
#
#
# Mechanical properties :
#
#
# Convention : Reuss Voigt Hill
#
# Bulk Modulus (GPa) = 57.99234 58.16286 58.07760
# Shear Modulus (GPa) = 30.37898 30.90136 30.64017
#
# Velocity S-wave (km/s) = 3.85137 3.88434 3.86789
# Velocity P-wave (km/s) = 6.93492 6.96537 6.95016
#
# Compressibility (1/GPa) = 0.01724366
#
# Stress axis : x y z
#
# Youngs Moduli (GPa) = 80.18433 80.18433 94.36443
#
# Poissons Ratio (x) = 0.29020 0.26086
# Poissons Ratio (y) = 0.29020 0.26086
# Poissons Ratio (z) = 0.22166 0.22166
#
# Static dielectric constant tensor:
#      x y z
#    x 1.710120 0.000000 0.000000 
#    y 0.000000 1.710120 0.000000 
#    z 0.000000 0.000000 1.761320 
# 
# From -- ./inp_files/5596.got.cif
#   From: 2010.05.17/outbox.cif.g08.bks.cpg/sg94_3_cif.got.tgz:5596.got - 2010.06.03 19:43:16.
