data_PCOD9550160
_publ_section_title
;
Structure prediction by ZEFSAII (Michael W. Deem and Ramdas Pophale) SiO2 
 PCOD9550160
Probable space group: P 42 21 2
;
_chemical_formula_sum "Si O2"
_cell_formula_units_Z 48
_cell_length_a 14.889802
_cell_length_b 14.889802
_cell_length_c 11.669873
_cell_angle_alpha 90.000000
_cell_angle_beta 90.000000
_cell_angle_gamma 90.000000
_cell_volume 2587.283239
_symmetry_space_group_name_H-M "P 42 21 2"
_symmetry_group_IT_number 94
_symmetry_cell_setting 'tetragonal'
loop_
_space_group_symop_operation_xyz
x,y,z
1/2-y,1/2+x,1/2+z
-x,-y,z
1/2+y,1/2-x,1/2+z
1/2+x,1/2-y,1/2-z
1/2-x,1/2+y,1/2-z
y,x,-z
-y,-x,-z
loop_
_atom_site_type_symbol
_atom_site_label
_atom_site_fract_x
_atom_site_fract_y
_atom_site_fract_z
Si Si1 0.009103 0.648130 0.283436
Si Si2 0.097237 0.097237 0.500000
Si Si3 0.499514 0.140935 0.758120
Si Si4 0.240998 0.908535 0.918536
Si Si5 0.500000 0.500000 0.801397
Si Si6 0.061448 0.828942 0.847778
Si Si7 0.802043 0.416747 0.013998
O O1 0.097959 0.586891 0.304420
O O2 0.030945 0.713633 0.178474
O O3 0.930518 0.579180 0.251965
O O4 0.970085 0.694277 0.395675
O O5 0.031544 0.076327 0.392787
O O6 0.090035 0.198106 0.545933
O O7 0.469648 0.237740 0.713118
O O8 0.526666 0.147864 0.889824
O O9 0.169071 0.844227 0.856209
O O10 0.319930 0.851390 0.981099
O O11 0.186625 0.961843 0.017397
O O12 0.524504 0.584437 0.720298
#
# Coordination Sequence:
#
# PCOD9550160 Si02
#       7
#     8   4   8   8   4   8   8
#     4  10  22  38  63  99 126 166 211 269 323 391
#     4  11  22  38  60  94 118 163 222 266 318 379
#     4  10  22  37  63  92 129 164 208 266 326 381
#     4  10  23  38  65  89 128 170 213 251 329 391
#     4  11  24  39  64  86 126 169 219 266 316 376
#     4  11  21  43  59  91 126 171 213 262 317 393
#     4  11  21  39  63  93 124 164 211 266 322 386
#
# _framework density 18.55228
#
# number of rings (size 3 to 8) (size 9 to 14) (size 15 to 20)
#    0.000    1.500    3.333    2.000    2.333    2.667 
#    0.000    0.000    0.000    0.000    4.333    0.000 
#    0.000    0.000    0.000    0.000    0.000    0.000 
#
# Total GULP energy -267506.623383 kJ/mol
# GULP energy per Si atom -5573.054654 kJ/mol
# Density = 1.851005 g / cm^3
# Si number density = 18.552280 Si / 1000 Ang^3
#
#
#
# Elastic Constant Matrix: (Units=GPa)
#
#
# Indices 1 2 3 4 5 6 
#
# 1 84.4959 23.9157 42.3248 0.0000 0.0000 0.0000
# 2 23.9157 84.4959 42.3248 0.0000 0.0000 0.0000
# 3 42.3248 42.3248 79.1703 0.0000 0.0000 0.0000
# 4 0.0000 0.0000 0.0000 30.7427 0.0000 0.0000
# 5 0.0000 0.0000 0.0000 0.0000 30.7427 0.0000
# 6 0.0000 0.0000 0.0000 0.0000 0.0000 -66.5790
#
#
#
# Elastic Compliance Matrix: (Units=1/GPa)
#
#
# Indices 1 2 3 4 5 6 
#
# 1 0.016170 -0.000337 -0.008465 0.000000 0.000000 0.000000
# 2 -0.000337 0.016170 -0.008465 0.000000 0.000000 0.000000
# 3 -0.008465 -0.008465 0.021681 0.000000 0.000000 0.000000
# 4 0.000000 0.000000 0.000000 0.032528 0.000000 0.000000
# 5 0.000000 0.000000 0.000000 0.000000 0.032528 0.000000
# 6 0.000000 0.000000 0.000000 0.000000 0.000000 -0.015020
#
#
# Mechanical properties :
#
#
# Convention : Reuss Voigt Hill
#
# Bulk Modulus (GPa) = 51.30884 51.69917 51.50400
# Shear Modulus (GPa) = 34.46211 8.28775 21.37493
#
# Velocity S-wave (km/s) = 4.31463 2.11588 3.39801
# Velocity P-wave (km/s) = 7.24829 5.82207 6.57397
#
# Compressibility (1/GPa) = 0.01948982
#
# Stress axis : x y z
#
# Youngs Moduli (GPa) = 61.84202 61.84202 46.12237
#
# Poissons Ratio (x) = 0.02083 0.39041
# Poissons Ratio (y) = 0.02083 0.39041
# Poissons Ratio (z) = 0.52347 0.52347
#
# Static dielectric constant tensor:
#      x y z
#    x 1.663260 0.000000 0.000000 
#    y 0.000000 1.663260 0.000000 
#    z 0.000000 0.000000 1.667210 
# 
# From -- ./inp_files/2676.got.cif
#   From: 2010.05.17/outbox.cif.g08.bks.cpg/sg94_2_cif.got.tgz:2676.got - 2010.06.03 19:43:16.
