data_PCOD9550140
_publ_section_title
;
Structure prediction by ZEFSAII (Michael W. Deem and Ramdas Pophale) SiO2 
 PCOD9550140
Probable space group: P 42 21 2
;
_chemical_formula_sum "Si O2"
_cell_formula_units_Z 28
_cell_length_a 10.402228
_cell_length_b 10.402228
_cell_length_c 11.432013
_cell_angle_alpha 90.000000
_cell_angle_beta 90.000000
_cell_angle_gamma 90.000000
_cell_volume 1237.016370
_symmetry_space_group_name_H-M "P 42 21 2"
_symmetry_group_IT_number 94
_symmetry_cell_setting 'tetragonal'
loop_
_space_group_symop_operation_xyz
x,y,z
1/2-y,1/2+x,1/2+z
-x,-y,z
1/2+y,1/2-x,1/2+z
1/2+x,1/2-y,1/2-z
1/2-x,1/2+y,1/2-z
y,x,-z
-y,-x,-z
loop_
_atom_site_type_symbol
_atom_site_label
_atom_site_fract_x
_atom_site_fract_y
_atom_site_fract_z
Si Si1 0.000000 0.000000 0.295004
Si Si2 0.766012 0.578555 0.183211
Si Si3 0.290520 0.777786 0.881163
Si Si4 0.205815 0.059706 0.902015
O O1 0.881379 0.066345 0.357948
O O2 0.055442 0.115419 0.213578
O O3 0.765196 0.669294 0.300084
O O4 0.802464 0.426938 0.186041
O O5 0.856226 0.665180 0.103780
O O6 0.249416 0.916845 0.926282
O O7 0.305863 0.694138 0.000000
O O8 0.115422 0.115422 0.000000
#
# Coordination Sequence:
#
# PCOD9550140 Si02
#       4
#     4   8   8   8
#     4  10  21  42  67  96 146 192 237 314 367 444
#     4  11  23  44  70 108 146 196 252 316 372 460
#     4  11  25  45  74 109 153 202 255 314 388 454
#     4  11  22  42  71 102 142 198 248 304 387 459
#
# _framework density 22.635110999999998
#
# number of rings (size 3 to 8) (size 9 to 14) (size 15 to 20)
#    0.000    1.143    2.857    4.714    0.000    2.286 
#    0.000    2.857    0.000    0.000    0.000    0.000 
#    0.000    0.000    0.000    0.000    0.000    0.000 
#
# Total GULP energy -156032.463037 kJ/mol
# GULP energy per Si atom -5572.587966 kJ/mol
# Density = 2.258359 g / cm^3
# Si number density = 22.635111 Si / 1000 Ang^3
#
#
#
# Elastic Constant Matrix: (Units=GPa)
#
#
# Indices 1 2 3 4 5 6 
#
# 1 156.6842 38.3816 33.5729 0.0000 0.0000 0.0000
# 2 38.3816 156.6844 33.5728 0.0000 0.0000 0.0000
# 3 33.5729 33.5728 49.8701 0.0000 0.0000 0.0000
# 4 0.0000 0.0000 0.0000 26.8638 0.0000 0.0000
# 5 0.0000 0.0000 0.0000 0.0000 26.8638 0.0000
# 6 0.0000 0.0000 0.0000 0.0000 0.0000 56.4891
#
#
#
# Elastic Compliance Matrix: (Units=1/GPa)
#
#
# Indices 1 2 3 4 5 6 
#
# 1 0.007563 -0.000890 -0.004492 0.000000 0.000000 0.000000
# 2 -0.000890 0.007563 -0.004492 0.000000 0.000000 0.000000
# 3 -0.004492 -0.004492 0.026100 0.000000 0.000000 0.000000
# 4 0.000000 0.000000 0.000000 0.037225 0.000000 0.000000
# 5 0.000000 0.000000 0.000000 0.000000 0.037225 0.000000
# 6 0.000000 0.000000 0.000000 0.000000 0.000000 0.017703
#
#
# Mechanical properties :
#
#
# Convention : Reuss Voigt Hill
#
# Bulk Modulus (GPa) = 46.56070 63.81036 55.18553
# Shear Modulus (GPa) = 31.19425 39.22411 35.20918
#
# Velocity S-wave (km/s) = 3.71635 4.16731 3.94828
# Velocity P-wave (km/s) = 6.24738 7.16990 6.72448
#
# Compressibility (1/GPa) = 0.02147734
#
# Stress axis : x y z
#
# Youngs Moduli (GPa) = 132.22557 132.22594 38.31362
#
# Poissons Ratio (x) = 0.11769 0.17211
# Poissons Ratio (y) = 0.11769 0.17211
# Poissons Ratio (z) = 0.59398 0.59397
#
# Static dielectric constant tensor:
#      x y z
#    x 1.853560 0.000000 0.000000 
#    y 0.000000 1.853560 0.000000 
#    z 0.000000 0.000000 1.906270 
# 
# From -- ./inp_files/2127.got.cif
#   From: 2010.05.17/outbox.cif.g08.bks.cpg/sg94_2_cif.got.tgz:2127.got - 2010.06.03 19:43:16.
