data_PCOD9550234
_publ_section_title
;
Structure prediction by ZEFSAII (Michael W. Deem and Ramdas Pophale) SiO2 
 PCOD9550234
Probable space group: P 42 21 2
;
_chemical_formula_sum "Si O2"
_cell_formula_units_Z 48
_cell_length_a 8.782971
_cell_length_b 8.782971
_cell_length_c 29.090227
_cell_angle_alpha 90.000000
_cell_angle_beta 90.000000
_cell_angle_gamma 90.000000
_cell_volume 2244.036971
_symmetry_space_group_name_H-M "P 42 21 2"
_symmetry_group_IT_number 94
_symmetry_cell_setting 'tetragonal'
loop_
_space_group_symop_operation_xyz
x,y,z
1/2-y,1/2+x,1/2+z
-x,-y,z
1/2+y,1/2-x,1/2+z
1/2+x,1/2-y,1/2-z
1/2-x,1/2+y,1/2-z
y,x,-z
-y,-x,-z
loop_
_atom_site_type_symbol
_atom_site_label
_atom_site_fract_x
_atom_site_fract_y
_atom_site_fract_z
Si Si1 0.263216 0.263216 0.000000
Si Si2 0.000000 0.000000 0.154592
Si Si3 0.059461 0.834658 0.709701
Si Si4 0.103470 0.271904 0.460578
Si Si5 0.423119 0.756022 0.582198
Si Si6 0.265775 0.281380 0.701114
Si Si7 0.007532 0.235582 0.367162
O O1 0.437937 0.230517 0.014231
O O2 0.185781 0.196120 0.045584
O O3 0.865144 0.951484 0.121286
O O4 0.072823 0.856377 0.181807
O O5 0.174162 0.765121 0.746741
O O6 0.132827 0.890706 0.661958
O O7 0.917344 0.722590 0.702577
O O8 0.000000 0.000000 0.728155
O O9 0.207564 0.207564 0.500000
O O10 0.181492 0.428941 0.444335
O O11 0.090733 0.172511 0.413191
O O12 0.357946 0.901664 0.608641
O O13 0.296782 0.134080 0.668492
#
# Coordination Sequence:
#
# PCOD9550234 Si02
#       7
#     4   4   8   8   8   8   8
#     4  10  23  41  66  96 130 174 234 281 355 434
#     4  12  26  45  68 100 142 180 245 288 360 432
#     4  10  24  43  71 108 145 187 246 300 370 447
#     4  11  24  43  70 102 136 185 237 300 367 439
#     4  11  26  45  67 101 139 188 231 303 362 438
#     4  11  24  44  73 104 141 191 238 308 360 446
#     4  10  23  46  71 101 144 190 240 295 376 439
#
# _framework density 21.390024
#
# number of rings (size 3 to 8) (size 9 to 14) (size 15 to 20)
#    0.000    1.333    2.500    2.250    4.667    8.000 
#    0.000    4.167    0.000    0.000    0.000    0.000 
#    0.000    0.000    0.000    0.000    0.000    0.000 
#
# Total GULP energy -267508.130883 kJ/mol
# GULP energy per Si atom -5573.086060 kJ/mol
# Density = 2.134134 g / cm^3
# Si number density = 21.390024 Si / 1000 Ang^3
#
#
#
# Elastic Constant Matrix: (Units=GPa)
#
#
# Indices 1 2 3 4 5 6 
#
# 1 92.2420 42.3465 68.7672 0.0000 0.0000 0.0000
# 2 42.3465 92.2420 68.7672 0.0000 0.0000 0.0000
# 3 68.7672 68.7672 182.2809 0.0000 0.0000 0.0000
# 4 0.0000 0.0000 0.0000 13.4193 0.0000 0.0000
# 5 0.0000 0.0000 0.0000 0.0000 13.4193 0.0000
# 6 0.0000 0.0000 0.0000 0.0000 0.0000 38.6291
#
#
#
# Elastic Compliance Matrix: (Units=1/GPa)
#
#
# Indices 1 2 3 4 5 6 
#
# 1 0.016067 -0.003975 -0.004562 0.000000 0.000000 0.000000
# 2 -0.003975 0.016067 -0.004562 0.000000 0.000000 0.000000
# 3 -0.004562 -0.004562 0.008928 0.000000 0.000000 0.000000
# 4 0.000000 0.000000 0.000000 0.074520 0.000000 0.000000
# 5 0.000000 0.000000 0.000000 0.000000 0.074520 0.000000
# 6 0.000000 0.000000 0.000000 0.000000 0.000000 0.025887
#
#
# Mechanical properties :
#
#
# Convention : Reuss Voigt Hill
#
# Bulk Modulus (GPa) = 67.27490 80.72518 74.00004
# Shear Modulus (GPa) = 20.23147 25.55247 22.89197
#
# Velocity S-wave (km/s) = 3.07878 3.46004 3.27497
# Velocity P-wave (km/s) = 6.64517 7.33377 6.99794
#
# Compressibility (1/GPa) = 0.01486438
#
# Stress axis : x y z
#
# Youngs Moduli (GPa) = 62.24047 62.24047 112.00860
#
# Poissons Ratio (x) = 0.24742 0.51094
# Poissons Ratio (y) = 0.24742 0.51094
# Poissons Ratio (z) = 0.28392 0.28392
#
# Static dielectric constant tensor:
#      x y z
#    x 2.106280 0.000000 0.000000 
#    y 0.000000 2.106280 0.000000 
#    z 0.000000 0.000000 1.815340 
# 
# From -- ./inp_files/5647.got.cif
#   From: 2010.05.17/outbox.cif.g08.bks.cpg/sg94_3_cif.got.tgz:5647.got - 2010.06.03 19:43:16.
