data_PCOD9550606
_publ_section_title
;
Structure prediction by ZEFSAII (Michael W. Deem and Ramdas Pophale) SiO2 
 PCOD9550606
Probable space group: P 43 2 2
;
_chemical_formula_sum "Si O2"
_cell_formula_units_Z 36
_cell_length_a 8.845192
_cell_length_b 8.845192
_cell_length_c 20.116194
_cell_angle_alpha 90.000000
_cell_angle_beta 90.000000
_cell_angle_gamma 90.000000
_cell_volume 1573.839149
_symmetry_space_group_name_H-M "P 43 2 2"
_symmetry_group_IT_number 95
_symmetry_cell_setting 'tetragonal'
loop_
_space_group_symop_operation_xyz
x,y,z
-y,x,3/4+z
-x,-y,1/2+z
y,-x,1/4+z
x,-y,1/2-z
-x,y,-z
y,x,1/4-z
-y,-x,3/4-z
loop_
_atom_site_type_symbol
_atom_site_label
_atom_site_fract_x
_atom_site_fract_y
_atom_site_fract_z
Si Si1 0.026631 0.432548 0.114142
Si Si2 0.926516 0.926516 0.625000
Si Si3 0.765116 0.630892 0.057321
Si Si4 0.846506 0.500000 0.750000
Si Si5 0.133074 0.000000 0.750000
Si Si6 0.556370 0.349417 0.803521
O O1 0.036721 0.251280 0.116989
O O2 0.047216 0.511376 0.186122
O O3 0.178690 0.474932 0.075872
O O4 0.880654 0.498111 0.078785
O O5 0.974014 0.024830 0.562177
O O6 0.697467 0.697467 0.125000
O O7 0.642795 0.557041 0.008624
O O8 0.859257 0.759624 0.018713
O O9 0.724630 0.371585 0.771941
O O10 0.561370 0.438631 0.875000
#
# Coordination Sequence:
#
# PCOD9550606 Si02
#       6
#     8   4   8   4   4   8
#     4  11  24  45  76 110 153 203 267 330 388 483
#     4  12  28  48  80 110 148 220 270 314 408 494
#     4  12  27  49  73 115 164 205 256 342 415 482
#     4  10  22  42  72 108 142 192 272 322 392 462
#     4  12  28  46  76 114 162 206 260 330 408 496
#     4  10  22  46  75 102 145 204 261 332 389 472
#
# _framework density 22.874002999999998
#
# number of rings (size 3 to 8) (size 9 to 14) (size 15 to 20)
#    0.000    0.889    6.667    0.000    6.222    4.444 
#    4.000    0.000    0.000    0.000    0.000    0.000 
#    0.000    0.000    0.000    0.000    0.000    0.000 
#
# Total GULP energy -201148.128912 kJ/mol
# GULP energy per Si atom -5587.448025 kJ/mol
# Density = 2.282194 g / cm^3
# Si number density = 22.874003 Si / 1000 Ang^3
#
#
#
# Elastic Constant Matrix: (Units=GPa)
#
#
# Indices 1 2 3 4 5 6 
#
# 1 21.7591 111.7493 85.4820 0.0000 0.0000 0.0000
# 2 111.7493 21.7567 85.4804 0.0000 0.0000 0.0000
# 3 85.4820 85.4804 227.8919 0.0000 0.0000 0.0000
# 4 0.0000 0.0000 0.0000 40.3494 0.0000 0.0000
# 5 0.0000 0.0000 0.0000 0.0000 40.3492 0.0000
# 6 0.0000 0.0000 0.0000 0.0000 0.0000 25.6564
#
#
#
# Elastic Compliance Matrix: (Units=1/GPa)
#
#
# Indices 1 2 3 4 5 6 
#
# 1 0.001651 0.012763 -0.005406 0.000000 0.000000 0.000000
# 2 0.012763 0.001650 -0.005406 0.000000 0.000000 0.000000
# 3 -0.005406 -0.005406 0.008444 0.000000 0.000000 0.000000
# 4 0.000000 0.000000 0.000000 0.024784 0.000000 0.000000
# 5 0.000000 0.000000 0.000000 0.000000 0.024784 0.000000
# 6 0.000000 0.000000 0.000000 0.000000 0.000000 0.038977
#
#
# Mechanical properties :
#
#
# Convention : Reuss Voigt Hill
#
# Bulk Modulus (GPa) = 63.91796 92.98124 78.44960
# Shear Modulus (GPa) = 49.21071 20.51740 34.86406
#
# Velocity S-wave (km/s) = 4.64333 2.99820 3.90831
# Velocity P-wave (km/s) = 7.53336 7.26107 7.39847
#
# Compressibility (1/GPa) = 0.01564506
#
# Stress axis : x y z
#
# Youngs Moduli (GPa) = 605.80517 605.87713 118.42920
#
# Poissons Ratio (x) = -7.73267 0.64027
# Poissons Ratio (y) = -7.73175 0.64027
# Poissons Ratio (z) = 3.27521 3.27561
#
# Static dielectric constant tensor:
#      x y z
#    x 1.828120 0.000000 0.000000 
#    y 0.000000 1.828120 0.000000 
#    z 0.000000 0.000000 1.938570 
# 
# From -- ./inp_files/6283.got.cif
#   From: 2010.05.17/outbox.cif.g08.bks.cpg/sg95_4_cif.got.tgz:6283.got - 2010.06.03 19:46:49.
