data_PCOD9550074
_publ_section_title
;
Structure prediction by ZEFSAII (Michael W. Deem and Ramdas Pophale) SiO2 
 PCOD9550074
Probable space group: P 42 21 2
;
_chemical_formula_sum "Si O2"
_cell_formula_units_Z 44
_cell_length_a 8.468831
_cell_length_b 8.468831
_cell_length_c 28.626539
_cell_angle_alpha 90.000000
_cell_angle_beta 90.000000
_cell_angle_gamma 90.000000
_cell_volume 2053.126824
_symmetry_space_group_name_H-M "P 42 21 2"
_symmetry_group_IT_number 94
_symmetry_cell_setting 'tetragonal'
loop_
_space_group_symop_operation_xyz
x,y,z
1/2-y,1/2+x,1/2+z
-x,-y,z
1/2+y,1/2-x,1/2+z
1/2+x,1/2-y,1/2-z
1/2-x,1/2+y,1/2-z
y,x,-z
-y,-x,-z
loop_
_atom_site_type_symbol
_atom_site_label
_atom_site_fract_x
_atom_site_fract_y
_atom_site_fract_z
Si Si1 0.485759 0.323973 0.764106
Si Si2 0.000000 0.500000 0.074939
Si Si3 0.835292 0.344528 0.313092
Si Si4 0.166761 0.092703 0.449972
Si Si5 0.674892 0.257596 0.153168
Si Si6 0.168140 0.012778 0.871553
O O1 0.500000 0.500000 0.743077
O O2 0.312001 0.308532 0.782836
O O3 0.523747 0.191348 0.726427
O O4 0.599611 0.320435 0.809506
O O5 0.169692 0.496141 0.050077
O O6 0.005106 0.336644 0.103376
O O7 0.684632 0.340601 0.347471
O O8 0.007643 0.329615 0.336682
O O9 0.177658 0.177658 0.500000
O O10 0.165003 0.188381 0.401114
O O11 0.000000 0.000000 0.449496
O O12 0.847407 0.176060 0.157702
O O13 0.000000 0.000000 0.898508
#
# Coordination Sequence:
#
# PCOD9550074 Si02
#       6
#     8   4   8   8   8   8
#     4  10  23  41  60  87 126 176 225 269 331 407
#     4  10  22  46  70  96 140 182 210 290 360 396
#     4  11  23  42  62  88 130 175 222 279 330 399
#     4  10  20  41  74 102 133 177 229 283 348 422
#     4  10  23  43  64  94 133 172 225 284 337 401
#     4  11  24  42  68  97 128 174 232 277 334 411
#
# _framework density 21.430727000000001
#
# number of rings (size 3 to 8) (size 9 to 14) (size 15 to 20)
#    0.000    1.636    0.000    5.455    7.636    0.727 
#    3.273   10.909    0.000    4.909    0.000    0.000 
#    0.000    0.000    0.000    0.000    0.000    0.000 
#
# Total GULP energy -245146.160070 kJ/mol
# GULP energy per Si atom -5571.503638 kJ/mol
# Density = 2.138195 g / cm^3
# Si number density = 21.430727 Si / 1000 Ang^3
#
#
#
# Elastic Constant Matrix: (Units=GPa)
#
#
# Indices 1 2 3 4 5 6 
#
# 1 138.2681 37.5814 37.0887 0.0000 0.0000 0.0000
# 2 37.5814 138.2681 37.0887 0.0000 0.0000 0.0000
# 3 37.0887 37.0887 108.5339 0.0000 0.0000 0.0000
# 4 0.0000 0.0000 0.0000 13.1864 0.0000 0.0000
# 5 0.0000 0.0000 0.0000 0.0000 13.1864 0.0000
# 6 0.0000 0.0000 0.0000 0.0000 0.0000 15.4000
#
#
#
# Elastic Compliance Matrix: (Units=1/GPa)
#
#
# Indices 1 2 3 4 5 6 
#
# 1 0.008288 -0.001644 -0.002271 0.000000 0.000000 0.000000
# 2 -0.001644 0.008288 -0.002271 0.000000 0.000000 0.000000
# 3 -0.002271 -0.002271 0.010766 0.000000 0.000000 0.000000
# 4 0.000000 0.000000 0.000000 0.075836 0.000000 0.000000
# 5 0.000000 0.000000 0.000000 0.000000 0.075836 0.000000
# 6 0.000000 0.000000 0.000000 0.000000 0.000000 0.064935
#
#
# Mechanical properties :
#
#
# Convention : Reuss Voigt Hill
#
# Bulk Modulus (GPa) = 66.79063 67.62083 67.20573
# Shear Modulus (GPa) = 19.13444 26.57531 22.85488
#
# Velocity S-wave (km/s) = 2.99130 3.52526 3.26920
# Velocity P-wave (km/s) = 6.56993 6.94202 6.75854
#
# Compressibility (1/GPa) = 0.01497216
#
# Stress axis : x y z
#
# Youngs Moduli (GPa) = 120.65448 120.65448 92.88906
#
# Poissons Ratio (x) = 0.19832 0.21091
# Poissons Ratio (y) = 0.19832 0.21091
# Poissons Ratio (z) = 0.27395 0.27395
#
# Static dielectric constant tensor:
#      x y z
#    x 1.871070 0.000000 0.000000 
#    y 0.000000 1.871070 0.000000 
#    z 0.000000 0.000000 1.784730 
# 
# From -- ./inp_files/5486.got.cif
#   From: 2010.05.17/outbox.cif.g08.bks.cpg/sg94_3_cif.got.tgz:5486.got - 2010.06.03 19:43:16.
