data_PCOD9550105
_publ_section_title
;
Structure prediction by ZEFSAII (Michael W. Deem and Ramdas Pophale) SiO2 
 PCOD9550105
Probable space group: P 42 21 2
;
_chemical_formula_sum "Si O2"
_cell_formula_units_Z 40
_cell_length_a 8.602057
_cell_length_b 8.602057
_cell_length_c 23.000465
_cell_angle_alpha 90.000000
_cell_angle_beta 90.000000
_cell_angle_gamma 90.000000
_cell_volume 1701.928254
_symmetry_space_group_name_H-M "P 42 21 2"
_symmetry_group_IT_number 94
_symmetry_cell_setting 'tetragonal'
loop_
_space_group_symop_operation_xyz
x,y,z
1/2-y,1/2+x,1/2+z
-x,-y,z
1/2+y,1/2-x,1/2+z
1/2+x,1/2-y,1/2-z
1/2-x,1/2+y,1/2-z
y,x,-z
-y,-x,-z
loop_
_atom_site_type_symbol
_atom_site_label
_atom_site_fract_x
_atom_site_fract_y
_atom_site_fract_z
Si Si1 0.874820 0.862784 0.874840
Si Si2 0.614278 0.740235 0.786089
Si Si3 0.454040 0.164202 0.449441
Si Si4 0.140753 0.661930 0.917740
Si Si5 0.214407 0.097784 0.691432
O O1 0.735981 0.826075 0.829795
O O2 0.980964 0.715205 0.888610
O O3 0.789675 0.913246 0.935150
O O4 0.000000 0.000000 0.858389
O O5 0.641668 0.826294 0.725322
O O6 0.671147 0.563519 0.779019
O O7 0.434544 0.714568 0.804727
O O8 0.308987 0.244802 0.419523
O O9 0.400733 0.131059 0.515499
O O10 0.500000 0.000000 0.423078
O O11 0.236828 0.554406 0.874335
#
# Coordination Sequence:
#
# PCOD9550105 Si02
#       5
#     8   8   8   8   8
#     4  10  22  40  67  98 136 175 231 281 343 412
#     4  11  26  44  72 101 143 183 230 292 354 425
#     4  10  21  38  66  93 133 179 227 283 346 404
#     4  10  22  40  63  97 134 175 231 281 339 418
#     4  11  26  45  67 104 140 183 233 287 357 421
#
# _framework density 23.502752999999998
#
# number of rings (size 3 to 8) (size 9 to 14) (size 15 to 20)
#    0.000    1.600    0.000    3.000   11.200    4.800 
#    0.000    0.000    0.000    2.400    0.000    0.000 
#    0.000    0.000    0.000    0.000    0.000    0.000 
#
# Total GULP energy -223197.493627 kJ/mol
# GULP energy per Si atom -5579.937341 kJ/mol
# Density = 2.344926 g / cm^3
# Si number density = 23.502753 Si / 1000 Ang^3
#
#
#
# Elastic Constant Matrix: (Units=GPa)
#
#
# Indices 1 2 3 4 5 6 
#
# 1 75.5529 50.1791 25.9321 0.0000 0.0000 0.0000
# 2 50.1791 75.5529 25.9321 0.0000 0.0000 0.0000
# 3 25.9321 25.9321 90.9897 0.0000 0.0000 0.0000
# 4 0.0000 0.0000 0.0000 86.0892 0.0000 0.0000
# 5 0.0000 0.0000 0.0000 0.0000 86.0892 0.0000
# 6 0.0000 0.0000 0.0000 0.0000 0.0000 42.9974
#
#
#
# Elastic Compliance Matrix: (Units=1/GPa)
#
#
# Indices 1 2 3 4 5 6 
#
# 1 0.024212 -0.015199 -0.002569 0.000000 0.000000 0.000000
# 2 -0.015199 0.024212 -0.002569 0.000000 0.000000 0.000000
# 3 -0.002569 -0.002569 0.012454 0.000000 0.000000 0.000000
# 4 0.000000 0.000000 0.000000 0.011616 0.000000 0.000000
# 5 0.000000 0.000000 0.000000 0.000000 0.011616 0.000000
# 6 0.000000 0.000000 0.000000 0.000000 0.000000 0.023257
#
#
# Mechanical properties :
#
#
# Convention : Reuss Voigt Hill
#
# Bulk Modulus (GPa) = 49.49122 49.57578 49.53350
# Shear Modulus (GPa) = 32.30501 52.37198 42.33850
#
# Velocity S-wave (km/s) = 3.71147 4.72564 4.24893
# Velocity P-wave (km/s) = 6.28252 7.13548 6.72254
#
# Compressibility (1/GPa) = 0.02020560
#
# Stress axis : x y z
#
# Youngs Moduli (GPa) = 41.30210 41.30210 80.29276
#
# Poissons Ratio (x) = 0.62774 0.20625
# Poissons Ratio (y) = 0.62774 0.20625
# Poissons Ratio (z) = 0.10609 0.10609
#
# Static dielectric constant tensor:
#      x y z
#    x 1.864570 0.000000 0.000000 
#    y 0.000000 1.864570 0.000000 
#    z 0.000000 0.000000 1.918420 
# 
# From -- ./inp_files/4916.got.cif
#   From: 2010.05.17/outbox.cif.g08.bks.cpg/sg94_3_cif.got.tgz:4916.got - 2010.06.03 19:43:16.
