data_PCOD9550933
_publ_section_title
;
Structure prediction by ZEFSAII (Michael W. Deem and Ramdas Pophale) SiO2 
 PCOD9550933
Probable space group: P 43 21 2
;
_chemical_formula_sum "Si O2"
_cell_formula_units_Z 48
_cell_length_a 8.947179
_cell_length_b 8.947179
_cell_length_c 26.009270
_cell_angle_alpha 90.000000
_cell_angle_beta 90.000000
_cell_angle_gamma 90.000000
_cell_volume 2082.094396
_symmetry_space_group_name_H-M "P 43 21 2"
_symmetry_group_IT_number 96
_symmetry_cell_setting 'tetragonal'
loop_
_space_group_symop_operation_xyz
x,y,z
1/2-y,1/2+x,3/4+z
-x,-y,1/2+z
1/2+y,1/2-x,1/4+z
1/2+x,1/2-y,1/4-z
1/2-x,1/2+y,3/4-z
y,x,-z
-y,-x,1/2-z
loop_
_atom_site_type_symbol
_atom_site_label
_atom_site_fract_x
_atom_site_fract_y
_atom_site_fract_z
Si Si1 0.060711 0.081756 0.361480
Si Si2 0.691164 0.691164 0.000000
Si Si3 0.803734 0.803734 0.500000
Si Si4 0.833996 0.630570 0.899506
Si Si5 0.886784 0.843148 0.291887
Si Si6 0.767665 0.058622 0.419201
Si Si7 0.365607 0.989611 0.813041
O O1 0.112034 0.253206 0.355858
O O2 0.938272 0.098071 0.406406
O O3 0.203764 0.977198 0.370906
O O4 0.970788 0.985968 0.318134
O O5 0.765687 0.732320 0.946127
O O6 0.512502 0.715540 0.996257
O O7 0.673645 0.816788 0.543286
O O8 0.954985 0.775070 0.531366
O O9 0.964573 0.532532 0.926058
O O10 0.841453 0.699769 0.325262
O O11 0.725944 0.903363 0.274043
O O12 0.705826 0.975766 0.368916
#
# Coordination Sequence:
#
# PCOD9550933 Si02
#       7
#     8   4   4   8   8   8   8
#     4  10  24  42  70  99 136 195 233 310 385 446
#     4  10  23  41  62  94 142 184 235 305 370 450
#     4  12  27  41  76 110 146 210 261 313 406 464
#     4  11  24  44  68 102 140 190 245 308 388 457
#     4  10  21  44  65  95 142 184 240 300 377 445
#     4  11  24  46  69 104 145 190 254 322 371 469
#     4  11  23  44  71 104 144 195 252 319 375 462
#
# _framework density 23.053708
#
# number of rings (size 3 to 8) (size 9 to 14) (size 15 to 20)
#    0.000    1.333    1.667    3.500    9.333    0.667 
#    0.000    0.000    0.000    0.000    0.000    0.000 
#    0.000    0.000    0.000    0.000    0.000    0.000 
#
# Total GULP energy -267321.600791 kJ/mol
# GULP energy per Si atom -5569.200016 kJ/mol
# Density = 2.300124 g / cm^3
# Si number density = 23.053708 Si / 1000 Ang^3
#
#
#
# Elastic Constant Matrix: (Units=GPa)
#
#
# Indices 1 2 3 4 5 6 
#
# 1 105.7568 31.1610 26.5513 0.0000 0.0000 0.0000
# 2 31.1610 105.7568 26.5513 0.0000 0.0000 0.0000
# 3 26.5513 26.5513 75.1527 0.0000 0.0000 0.0000
# 4 0.0000 0.0000 0.0000 28.5926 0.0000 0.0000
# 5 0.0000 0.0000 0.0000 0.0000 28.5926 0.0000
# 6 0.0000 0.0000 0.0000 0.0000 0.0000 40.8527
#
#
#
# Elastic Compliance Matrix: (Units=1/GPa)
#
#
# Indices 1 2 3 4 5 6 
#
# 1 0.010934 -0.002471 -0.002990 0.000000 0.000000 0.000000
# 2 -0.002471 0.010934 -0.002990 0.000000 0.000000 0.000000
# 3 -0.002990 -0.002990 0.015419 0.000000 0.000000 0.000000
# 4 0.000000 0.000000 0.000000 0.034974 0.000000 0.000000
# 5 0.000000 0.000000 0.000000 0.000000 0.034974 0.000000
# 6 0.000000 0.000000 0.000000 0.000000 0.000000 0.024478
#
#
# Mechanical properties :
#
#
# Convention : Reuss Voigt Hill
#
# Bulk Modulus (GPa) = 49.05477 50.57704 49.81590
# Shear Modulus (GPa) = 32.17257 33.10110 32.63684
#
# Velocity S-wave (km/s) = 3.73976 3.79334 3.76664
# Velocity P-wave (km/s) = 6.32237 6.41657 6.36964
#
# Compressibility (1/GPa) = 0.02038538
#
# Stress axis : x y z
#
# Youngs Moduli (GPa) = 91.45399 91.45399 64.85494
#
# Poissons Ratio (x) = 0.22599 0.19392
# Poissons Ratio (y) = 0.22599 0.19392
# Poissons Ratio (z) = 0.27345 0.27345
#
# Static dielectric constant tensor:
#      x y z
#    x 1.953780 0.000000 0.000000 
#    y 0.000000 1.953780 0.000000 
#    z 0.000000 0.000000 2.025170 
# 
# From -- ./inp_files/4512.got.cif
#   From: 2010.05.17/outbox.cif.g08.bks.cpg/sg96_3_cif.got.tgz:4512.got - 2010.06.03 19:52:08.
