data_PCOD9550616
_publ_section_title
;
Structure prediction by ZEFSAII (Michael W. Deem and Ramdas Pophale) SiO2 
 PCOD9550616
Probable space group: P 43 2 2
;
_chemical_formula_sum "Si O2"
_cell_formula_units_Z 40
_cell_length_a 11.778446
_cell_length_b 11.778446
_cell_length_c 14.151267
_cell_angle_alpha 90.000000
_cell_angle_beta 90.000000
_cell_angle_gamma 90.000000
_cell_volume 1963.230604
_symmetry_space_group_name_H-M "P 43 2 2"
_symmetry_group_IT_number 95
_symmetry_cell_setting 'tetragonal'
loop_
_space_group_symop_operation_xyz
x,y,z
-y,x,3/4+z
-x,-y,1/2+z
y,-x,1/4+z
x,-y,1/2-z
-x,y,-z
y,x,1/4-z
-y,-x,3/4-z
loop_
_atom_site_type_symbol
_atom_site_label
_atom_site_fract_x
_atom_site_fract_y
_atom_site_fract_z
Si Si1 0.399433 0.399433 0.125000
Si Si2 0.352918 0.317295 0.930959
Si Si3 0.889860 0.935107 0.346806
Si Si4 0.510521 0.000000 0.750000
Si Si5 0.352542 0.949389 0.569939
Si Si6 0.334573 0.118149 0.400794
O O1 0.373055 0.529847 0.148035
O O2 0.369457 0.325979 0.216809
O O3 0.368314 0.183488 0.953299
O O4 0.255419 0.339452 0.853312
O O5 0.781771 0.963745 0.411263
O O6 0.903441 0.800456 0.350562
O O7 0.860121 0.000000 0.250000
O O8 0.006958 0.993043 0.375000
O O9 0.425993 0.037871 0.834395
O O10 0.596422 0.081234 0.692380
O O11 0.378518 0.042315 0.488847
#
# Coordination Sequence:
#
# PCOD9550616 Si02
#       6
#     4   8   8   4   8   8
#     4  10  22  46  76  88 138 184 234 294 336 412
#     4  10  24  44  69 100 129 185 235 281 352 411
#     4  11  22  43  69 100 139 181 225 279 351 417
#     4  12  26  42  64 100 136 182 220 290 342 402
#     4  11  24  44  71  97 140 183 226 286 349 416
#     4  11  26  41  68 105 135 177 236 284 345 422
#
# _framework density 20.374580000000002
#
# number of rings (size 3 to 8) (size 9 to 14) (size 15 to 20)
#    0.000    1.200    3.000    1.800    9.800    0.000 
#    7.200    0.000    0.000    0.000    0.000    0.000 
#    0.000    0.000    0.000    0.000    0.000    0.000 
#
# Total GULP energy -222868.548081 kJ/mol
# GULP energy per Si atom -5571.713702 kJ/mol
# Density = 2.032821 g / cm^3
# Si number density = 20.374580 Si / 1000 Ang^3
#
#
#
# Elastic Constant Matrix: (Units=GPa)
#
#
# Indices 1 2 3 4 5 6 
#
# 1 111.2212 62.6819 51.4666 0.0000 0.0000 0.0000
# 2 62.6819 111.2237 51.4651 0.0000 0.0000 0.0000
# 3 51.4666 51.4651 120.8898 0.0000 0.0000 0.0000
# 4 0.0000 0.0000 0.0000 25.5222 0.0000 0.0000
# 5 0.0000 0.0000 0.0000 0.0000 25.5208 0.0000
# 6 0.0000 0.0000 0.0000 0.0000 0.0000 10.0422
#
#
#
# Elastic Compliance Matrix: (Units=1/GPa)
#
#
# Indices 1 2 3 4 5 6 
#
# 1 0.014145 -0.006457 -0.003273 0.000000 0.000000 0.000000
# 2 -0.006457 0.014144 -0.003272 0.000000 0.000000 0.000000
# 3 -0.003273 -0.003272 0.011059 0.000000 0.000000 0.000000
# 4 0.000000 0.000000 0.000000 0.039182 0.000000 0.000000
# 5 0.000000 0.000000 0.000000 0.000000 0.039184 0.000000
# 6 0.000000 0.000000 0.000000 0.000000 0.000000 0.099579
#
#
# Mechanical properties :
#
#
# Convention : Reuss Voigt Hill
#
# Bulk Modulus (GPa) = 74.94880 74.95134 74.95007
# Shear Modulus (GPa) = 20.18210 24.06510 22.12360
#
# Velocity S-wave (km/s) = 3.15072 3.44049 3.29879
# Velocity P-wave (km/s) = 7.07823 7.25598 7.16765
#
# Compressibility (1/GPa) = 0.01334244
#
# Stress axis : x y z
#
# Youngs Moduli (GPa) = 70.69808 70.70108 90.42783
#
# Poissons Ratio (x) = 0.45652 0.29597
# Poissons Ratio (y) = 0.45650 0.29592
# Poissons Ratio (z) = 0.23139 0.23137
#
# Static dielectric constant tensor:
#      x y z
#    x 1.734800 0.000000 0.000000 
#    y 0.000000 1.734800 0.000000 
#    z 0.000000 0.000000 1.877630 
# 
# From -- ./inp_files/4865.got.cif
#   From: 2010.05.17/outbox.cif.g08.bks.cpg/sg95_3_cif.got.tgz:4865.got - 2010.06.03 19:46:49.
