data_PCOD9550343
_publ_section_title
;
Structure prediction by ZEFSAII (Michael W. Deem and Ramdas Pophale) SiO2 
 PCOD9550343
Probable space group: P 42 21 2
;
_chemical_formula_sum "Si O2"
_cell_formula_units_Z 52
_cell_length_a 19.617004
_cell_length_b 19.617004
_cell_length_c 5.719403
_cell_angle_alpha 90.000000
_cell_angle_beta 90.000000
_cell_angle_gamma 90.000000
_cell_volume 2200.979817
_symmetry_space_group_name_H-M "P 42 21 2"
_symmetry_group_IT_number 94
_symmetry_cell_setting 'tetragonal'
loop_
_space_group_symop_operation_xyz
x,y,z
1/2-y,1/2+x,1/2+z
-x,-y,z
1/2+y,1/2-x,1/2+z
1/2+x,1/2-y,1/2-z
1/2-x,1/2+y,1/2-z
y,x,-z
-y,-x,-z
loop_
_atom_site_type_symbol
_atom_site_label
_atom_site_fract_x
_atom_site_fract_y
_atom_site_fract_z
Si Si1 0.542860 0.598433 0.749504
Si Si2 0.292614 0.621054 0.681563
Si Si3 0.588885 0.411116 0.000000
Si Si4 0.412659 0.157988 0.246883
Si Si5 0.813959 0.282438 0.909672
Si Si6 0.958576 0.666498 0.952701
Si Si7 0.949544 0.254385 0.631695
O O1 0.573066 0.573066 0.500000
O O2 0.465408 0.574787 0.796368
O O3 0.539205 0.680207 0.764215
O O4 0.578780 0.578780 0.000000
O O5 0.346527 0.653474 0.500000
O O6 0.336495 0.584097 0.883386
O O7 0.250990 0.684080 0.789736
O O8 0.233682 0.574572 0.571104
O O9 0.342361 0.171477 0.382406
O O10 0.476212 0.139053 0.407025
O O11 0.391876 0.097745 0.073603
O O12 0.435811 0.230588 0.138455
O O13 0.877483 0.276959 0.740244
O O14 0.791076 0.208925 0.000000
O O15 0.990493 0.694990 0.711494
#
# Coordination Sequence:
#
# PCOD9550343 Si02
#       7
#     8   8   4   8   8   8   8
#     4  12  31  52  78 113 162 216 266 323 399 488
#     4  12  25  44  79 114 151 198 257 327 400 474
#     4  12  29  48  76 110 158 208 266 328 391 476
#     4  11  26  46  76 105 152 199 259 324 393 481
#     4  11  24  41  72 112 144 186 246 321 392 474
#     4  11  26  47  73 109 148 196 258 318 398 466
#     4  11  26  46  75 103 151 201 251 329 391 472
#
# _framework density 23.625843
#
# number of rings (size 3 to 8) (size 9 to 14) (size 15 to 20)
#    0.000    0.615    2.308    3.462   15.077    0.615 
#    0.000    2.308    0.000    0.000    0.000    0.000 
#    0.000    0.000    0.000    0.000    0.000    0.000 
#
# Total GULP energy -290710.514651 kJ/mol
# GULP energy per Si atom -5590.586820 kJ/mol
# Density = 2.357207 g / cm^3
# Si number density = 23.625843 Si / 1000 Ang^3
#
#
#
# Elastic Constant Matrix: (Units=GPa)
#
#
# Indices 1 2 3 4 5 6 
#
# 1 91.2178 35.8258 30.7802 0.0000 0.0000 0.0000
# 2 35.8258 91.2176 30.7813 0.0000 0.0000 0.0000
# 3 30.7802 30.7813 82.9777 0.0000 0.0000 0.0000
# 4 0.0000 0.0000 0.0000 10.8124 0.0000 0.0000
# 5 0.0000 0.0000 0.0000 0.0000 10.8108 0.0000
# 6 0.0000 0.0000 0.0000 0.0000 0.0000 34.6078
#
#
#
# Elastic Compliance Matrix: (Units=1/GPa)
#
#
# Indices 1 2 3 4 5 6 
#
# 1 0.013825 -0.004228 -0.003560 0.000000 0.000000 0.000000
# 2 -0.004228 0.013825 -0.003560 0.000000 0.000000 0.000000
# 3 -0.003560 -0.003560 0.014692 0.000000 0.000000 0.000000
# 4 0.000000 0.000000 0.000000 0.092487 0.000000 0.000000
# 5 0.000000 0.000000 0.000000 0.000000 0.092500 0.000000
# 6 0.000000 0.000000 0.000000 0.000000 0.000000 0.028895
#
#
# Mechanical properties :
#
#
# Convention : Reuss Voigt Hill
#
# Bulk Modulus (GPa) = 50.90107 51.13195 51.01651
# Shear Modulus (GPa) = 17.51508 22.44792 19.98150
#
# Velocity S-wave (km/s) = 2.72573 3.08578 2.91133
# Velocity P-wave (km/s) = 5.61227 5.86391 5.73947
#
# Compressibility (1/GPa) = 0.01964595
#
# Stress axis : x y z
#
# Youngs Moduli (GPa) = 72.33461 72.33376 68.06226
#
# Poissons Ratio (x) = 0.30586 0.24227
# Poissons Ratio (y) = 0.30586 0.24230
# Poissons Ratio (z) = 0.25748 0.25750
#
# Static dielectric constant tensor:
#      x y z
#    x 1.896800 0.000000 0.000000 
#    y 0.000000 1.896790 0.000000 
#    z 0.000000 0.000000 2.023840 
# 
# From -- ./inp_files/569.got.cif
#   From: 2010.05.17/outbox.cif.g08.bks.cpg/sg94_1_cif.got.tgz:569.got - 2010.06.03 19:43:16.
