data_PCOD9550764
_publ_section_title
;
Structure prediction by ZEFSAII (Michael W. Deem and Ramdas Pophale) SiO2 
 PCOD9550764
Probable space group: P 43 21 2
;
_chemical_formula_sum "Si O2"
_cell_formula_units_Z 60
_cell_length_a 12.803130
_cell_length_b 12.803130
_cell_length_c 18.407179
_cell_angle_alpha 90.000000
_cell_angle_beta 90.000000
_cell_angle_gamma 90.000000
_cell_volume 3017.307318
_symmetry_space_group_name_H-M "P 43 21 2"
_symmetry_group_IT_number 96
_symmetry_cell_setting 'tetragonal'
loop_
_space_group_symop_operation_xyz
x,y,z
1/2-y,1/2+x,3/4+z
-x,-y,1/2+z
1/2+y,1/2-x,1/4+z
1/2+x,1/2-y,1/4-z
1/2-x,1/2+y,3/4-z
y,x,-z
-y,-x,1/2-z
loop_
_atom_site_type_symbol
_atom_site_label
_atom_site_fract_x
_atom_site_fract_y
_atom_site_fract_z
Si Si1 0.011715 0.748062 0.753817
Si Si2 0.337644 0.698154 0.059353
Si Si3 0.354970 0.380629 0.881433
Si Si4 0.999925 0.935288 0.112650
Si Si5 0.845190 0.526564 0.979682
Si Si6 0.368336 0.291106 0.729699
Si Si7 0.635233 0.635233 0.000000
Si Si8 0.960117 0.420733 0.565209
O O1 0.899351 0.806665 0.757621
O O2 0.990564 0.633213 0.783711
O O3 0.061871 0.762636 0.674721
O O4 0.087183 0.805423 0.810996
O O5 0.398234 0.639507 0.124789
O O6 0.419462 0.779959 0.026942
O O7 0.229196 0.758863 0.071629
O O8 0.445948 0.463491 0.861413
O O9 0.326887 0.316030 0.809831
O O10 0.066741 0.890298 0.046965
O O11 0.074585 0.914689 0.181702
O O12 0.898400 0.546413 0.901098
O O13 0.757261 0.611837 0.997103
O O14 0.931414 0.529607 0.041572
O O15 0.444599 0.191559 0.724351
#
# Coordination Sequence:
#
# PCOD9550764 Si02
#       8
#     8   8   8   8   8   8   4   8
#     4   9  20  39  60  82 118 157 210 244 305 353
#     4   9  20  38  56  86 120 159 189 240 313 370
#     4  10  19  36  62  85 109 162 203 256 292 355
#     4  10  19  36  58  89 119 152 195 246 308 361
#     4  11  23  38  61  90 123 164 200 244 319 367
#     4  11  21  35  58  90 123 149 203 251 298 359
#     4  10  20  38  62  88 126 156 194 248 314 386
#     4  11  23  39  57  90 123 161 198 253 302 375
#
# _framework density 19.885280000000002
#
# number of rings (size 3 to 8) (size 9 to 14) (size 15 to 20)
#    0.000    1.867    2.667    3.600    1.867    1.067 
#    2.400    0.000    0.000    0.000    0.000    0.000 
#    0.000    0.000    0.000    0.000    0.000    0.000 
#
# Total GULP energy -334797.217469 kJ/mol
# GULP energy per Si atom -5579.953624 kJ/mol
# Density = 1.984002 g / cm^3
# Si number density = 19.885280 Si / 1000 Ang^3
#
#
#
# Elastic Constant Matrix: (Units=GPa)
#
#
# Indices 1 2 3 4 5 6 
#
# 1 55.7480 16.8883 1.2904 0.0000 0.0000 0.0000
# 2 16.8883 55.7480 1.2904 0.0000 0.0000 0.0000
# 3 1.2904 1.2904 67.8436 0.0000 0.0000 0.0000
# 4 0.0000 0.0000 0.0000 17.5205 0.0000 0.0000
# 5 0.0000 0.0000 0.0000 0.0000 17.5205 0.0000
# 6 0.0000 0.0000 0.0000 0.0000 0.0000 11.7513
#
#
#
# Elastic Compliance Matrix: (Units=1/GPa)
#
#
# Indices 1 2 3 4 5 6 
#
# 1 0.019755 -0.005979 -0.000262 0.000000 0.000000 0.000000
# 2 -0.005979 0.019755 -0.000262 0.000000 0.000000 0.000000
# 3 -0.000262 -0.000262 0.014750 0.000000 0.000000 0.000000
# 4 0.000000 0.000000 0.000000 0.057076 0.000000 0.000000
# 5 0.000000 0.000000 0.000000 0.000000 0.057076 0.000000
# 6 0.000000 0.000000 0.000000 0.000000 0.000000 0.085097
#
#
# Mechanical properties :
#
#
# Convention : Reuss Voigt Hill
#
# Bulk Modulus (GPa) = 24.23966 24.25308 24.24637
# Shear Modulus (GPa) = 17.84019 20.01647 18.92833
#
# Velocity S-wave (km/s) = 2.99851 3.17613 3.08860
# Velocity P-wave (km/s) = 4.91978 5.06689 4.99388
#
# Compressibility (1/GPa) = 0.04125470
#
# Stress axis : x y z
#
# Youngs Moduli (GPa) = 50.61988 50.61988 67.79773
#
# Poissons Ratio (x) = 0.30263 0.01777
# Poissons Ratio (y) = 0.30263 0.01777
# Poissons Ratio (z) = 0.01326 0.01326
#
# Static dielectric constant tensor:
#      x y z
#    x 1.706080 0.000000 0.000000 
#    y 0.000000 1.706080 0.000000 
#    z 0.000000 0.000000 1.720320 
# 
# From -- ./inp_files/3623.got.cif
#   From: 2010.05.17/outbox.cif.g08.bks.cpg/sg96_2_cif.got.tgz:3623.got - 2010.06.03 19:52:08.
