data_PCOD9550798
_publ_section_title
;
Structure prediction by ZEFSAII (Michael W. Deem and Ramdas Pophale) SiO2 
 PCOD9550798
Probable space group: P 43 21 2
;
_chemical_formula_sum "Si O2"
_cell_formula_units_Z 64
_cell_length_a 11.677242
_cell_length_b 11.677242
_cell_length_c 27.732386
_cell_angle_alpha 90.000000
_cell_angle_beta 90.000000
_cell_angle_gamma 90.000000
_cell_volume 3781.532156
_symmetry_space_group_name_H-M "P 43 21 2"
_symmetry_group_IT_number 96
_symmetry_cell_setting 'tetragonal'
loop_
_space_group_symop_operation_xyz
x,y,z
1/2-y,1/2+x,3/4+z
-x,-y,1/2+z
1/2+y,1/2-x,1/4+z
1/2+x,1/2-y,1/4-z
1/2-x,1/2+y,3/4-z
y,x,-z
-y,-x,1/2-z
loop_
_atom_site_type_symbol
_atom_site_label
_atom_site_fract_x
_atom_site_fract_y
_atom_site_fract_z
Si Si1 0.979149 0.560595 0.123164
Si Si2 0.742255 0.078191 0.688551
Si Si3 0.529011 0.415786 0.951962
Si Si4 0.286209 0.692998 0.805112
Si Si5 0.410645 0.610620 0.601170
Si Si6 0.350032 0.977366 0.704930
Si Si7 0.038264 0.667295 0.685089
Si Si8 0.446199 0.243943 0.547963
O O1 0.858280 0.594533 0.099583
O O2 0.069157 0.548089 0.079894
O O3 0.967110 0.436283 0.147794
O O4 0.022479 0.649141 0.163215
O O5 0.698376 0.069270 0.743539
O O6 0.833711 0.181849 0.688132
O O7 0.811026 0.961102 0.675678
O O8 0.469590 0.478521 0.906654
O O9 0.514588 0.281445 0.949946
O O10 0.659648 0.455046 0.954562
O O11 0.465328 0.465328 0.000000
O O12 0.325424 0.674576 0.750000
O O13 0.363911 0.631938 0.844991
O O14 0.157035 0.646677 0.808684
O O15 0.285480 0.830780 0.813489
O O16 0.449884 0.731424 0.578111
O O17 0.378425 0.987406 0.761365
#
# Coordination Sequence:
#
# PCOD9550798 Si02
#       8
#     8   8   8   8   8   8   8   8
#     4  12  24  34  58  87 121 148 182 243 297 339
#     4  10  21  41  59  81 111 152 197 235 280 338
#     4  11  18  37  64  81 104 150 204 235 265 344
#     4  10  20  34  55  83 122 152 182 232 293 347
#     4  11  18  35  62  83 110 149 191 235 282 338
#     4  11  21  34  56  88 116 148 186 236 288 340
#     4  11  20  35  55  88 119 146 189 232 290 347
#     4  10  22  40  59  79 108 157 199 235 277 334
#
# _framework density 16.924356
#
# number of rings (size 3 to 8) (size 9 to 14) (size 15 to 20)
#    0.000    1.250    7.500    1.125    1.750    0.000 
#    0.000    0.000    0.000    6.000    0.000    0.000 
#    0.000    0.000    0.000    0.000    0.000    0.000 
#
# Total GULP energy -357076.026406 kJ/mol
# GULP energy per Si atom -5579.312913 kJ/mol
# Density = 1.688583 g / cm^3
# Si number density = 16.924356 Si / 1000 Ang^3
#
#
#
# Elastic Constant Matrix: (Units=GPa)
#
#
# Indices 1 2 3 4 5 6 
#
# 1 56.0942 12.6780 41.1810 0.0000 0.0000 0.0000
# 2 12.6780 56.0942 41.1810 0.0000 0.0000 0.0000
# 3 41.1810 41.1810 113.2425 0.0000 0.0000 0.0000
# 4 0.0000 0.0000 0.0000 30.4297 0.0000 0.0000
# 5 0.0000 0.0000 0.0000 0.0000 30.4297 0.0000
# 6 0.0000 0.0000 0.0000 0.0000 0.0000 17.0336
#
#
#
# Elastic Compliance Matrix: (Units=1/GPa)
#
#
# Indices 1 2 3 4 5 6 
#
# 1 0.024396 0.001363 -0.009367 0.000000 0.000000 0.000000
# 2 0.001363 0.024396 -0.009367 0.000000 0.000000 0.000000
# 3 -0.009367 -0.009367 0.015644 0.000000 0.000000 0.000000
# 4 0.000000 0.000000 0.000000 0.032863 0.000000 0.000000
# 5 0.000000 0.000000 0.000000 0.000000 0.032863 0.000000
# 6 0.000000 0.000000 0.000000 0.000000 0.000000 0.058708
#
#
# Mechanical properties :
#
#
# Convention : Reuss Voigt Hill
#
# Bulk Modulus (GPa) = 33.67867 46.16789 39.92328
# Shear Modulus (GPa) = 21.41240 24.27130 22.84185
#
# Velocity S-wave (km/s) = 3.56080 3.79107 3.67774
# Velocity P-wave (km/s) = 6.07029 6.81917 6.45560
#
# Compressibility (1/GPa) = 0.02969239
#
# Stress axis : x y z
#
# Youngs Moduli (GPa) = 40.99019 40.99019 63.92379
#
# Poissons Ratio (x) = -0.05588 0.59880
# Poissons Ratio (y) = -0.05588 0.59880
# Poissons Ratio (z) = 0.38397 0.38397
#
# Static dielectric constant tensor:
#      x y z
#    x 1.561040 0.000000 0.000000 
#    y 0.000000 1.561040 0.000000 
#    z 0.000000 0.000000 1.575070 
# 
# From -- ./inp_files/3959.got.cif
#   From: 2010.05.17/outbox.cif.g08.bks.cpg/sg96_2_cif.got.tgz:3959.got - 2010.06.03 19:52:08.
