data_PCOD9550732
_publ_section_title
;
Structure prediction by ZEFSAII (Michael W. Deem and Ramdas Pophale) SiO2 
 PCOD9550732
Probable space group: P 43 21 2
;
_chemical_formula_sum "Si O2"
_cell_formula_units_Z 56
_cell_length_a 15.539447
_cell_length_b 15.539447
_cell_length_c 10.512192
_cell_angle_alpha 90.000000
_cell_angle_beta 90.000000
_cell_angle_gamma 90.000000
_cell_volume 2538.425393
_symmetry_space_group_name_H-M "P 43 21 2"
_symmetry_group_IT_number 96
_symmetry_cell_setting 'tetragonal'
loop_
_space_group_symop_operation_xyz
x,y,z
1/2-y,1/2+x,3/4+z
-x,-y,1/2+z
1/2+y,1/2-x,1/4+z
1/2+x,1/2-y,1/4-z
1/2-x,1/2+y,3/4-z
y,x,-z
-y,-x,1/2-z
loop_
_atom_site_type_symbol
_atom_site_label
_atom_site_fract_x
_atom_site_fract_y
_atom_site_fract_z
Si Si1 0.458404 0.954996 0.977523
Si Si2 0.145947 0.830261 0.613474
Si Si3 0.471269 0.244888 0.755879
Si Si4 0.987816 0.163165 0.758832
Si Si5 0.208438 0.373069 0.653535
Si Si6 0.078161 0.017761 0.865405
Si Si7 0.135206 0.623620 0.160760
O O1 0.463272 0.961923 0.824608
O O2 0.376073 0.901228 0.020161
O O3 0.546220 0.909126 0.023338
O O4 0.186395 0.813606 0.750000
O O5 0.178485 0.924732 0.577466
O O6 0.175727 0.767507 0.503185
O O7 0.041626 0.837943 0.616223
O O8 0.503256 0.288932 0.624553
O O9 0.399710 0.174279 0.711121
O O10 0.542944 0.198559 0.840759
O O11 0.907628 0.092373 0.750000
O O12 0.953967 0.234931 0.855591
O O13 0.071840 0.114872 0.812259
O O14 0.185131 0.327696 0.521295
O O15 0.031409 0.968592 0.750000
O O16 0.026902 0.026902 0.000000
#
# Coordination Sequence:
#
# PCOD9550732 Si02
#       7
#     8   8   8   8   8   8   8
#     4  10  20  38  62  95 121 168 221 269 327 404
#     4  11  23  38  64  93 133 179 213 268 348 416
#     4  11  21  41  67 100 126 175 229 286 346 403
#     4  10  18  34  67  89 123 172 215 275 326 403
#     4  10  19  36  59  91 121 168 218 256 333 395
#     4  10  18  34  60  91 124 171 225 260 325 410
#     4  10  21  38  71  97 125 161 228 290 328 412
#
# _framework density 22.060919999999999
#
# number of rings (size 3 to 8) (size 9 to 14) (size 15 to 20)
#    0.000    1.714    5.714    0.857    0.000    1.143 
#    0.000    0.000   22.000    0.857    0.000    0.000 
#    0.000    0.000    0.000    0.000    0.000    0.000 
#
# Total GULP energy -311784.915483 kJ/mol
# GULP energy per Si atom -5567.587776 kJ/mol
# Density = 2.201071 g / cm^3
# Si number density = 22.060920 Si / 1000 Ang^3
#
#
#
# Elastic Constant Matrix: (Units=GPa)
#
#
# Indices 1 2 3 4 5 6 
#
# 1 53.0384 14.1696 -9.7151 0.0000 0.0000 0.0000
# 2 14.1696 53.0381 -9.7156 0.0000 0.0000 0.0000
# 3 -9.7151 -9.7156 67.2734 0.0000 0.0000 0.0000
# 4 0.0000 0.0000 0.0000 23.6396 0.0000 0.0000
# 5 0.0000 0.0000 0.0000 0.0000 23.6392 0.0000
# 6 0.0000 0.0000 0.0000 0.0000 0.0000 28.7020
#
#
#
# Elastic Compliance Matrix: (Units=1/GPa)
#
#
# Indices 1 2 3 4 5 6 
#
# 1 0.020628 -0.005100 0.002242 0.000000 0.000000 0.000000
# 2 -0.005100 0.020628 0.002243 0.000000 0.000000 0.000000
# 3 0.002242 0.002243 0.015512 0.000000 0.000000 0.000000
# 4 0.000000 0.000000 0.000000 0.042302 0.000000 0.000000
# 5 0.000000 0.000000 0.000000 0.000000 0.042303 0.000000
# 6 0.000000 0.000000 0.000000 0.000000 0.000000 0.034841
#
#
# Mechanical properties :
#
#
# Convention : Reuss Voigt Hill
#
# Bulk Modulus (GPa) = 18.00596 18.09196 18.04896
# Shear Modulus (GPa) = 25.51597 27.10357 26.30977
#
# Velocity S-wave (km/s) = 3.40459 3.50891 3.45715
# Velocity P-wave (km/s) = 4.86155 4.96340 4.91274
#
# Compressibility (1/GPa) = 0.05553717
#
# Stress axis : x y z
#
# Youngs Moduli (GPa) = 48.47890 48.47854 64.46457
#
# Poissons Ratio (x) = 0.24724 -0.14455
# Poissons Ratio (y) = 0.24725 -0.14456
# Poissons Ratio (z) = -0.10871 -0.10872
#
# Static dielectric constant tensor:
#      x y z
#    x 1.880740 0.000000 0.000000 
#    y 0.000000 1.880740 0.000000 
#    z 0.000000 0.000000 1.905880 
# 
# From -- ./inp_files/2292.got.cif
#   From: 2010.05.17/outbox.cif.g08.bks.cpg/sg96_2_cif.got.tgz:2292.got - 2010.06.03 19:52:08.
