data_PCOD9550511
_publ_section_title
;
Structure prediction by ZEFSAII (Michael W. Deem and Ramdas Pophale) SiO2 
 PCOD9550511
Probable space group: P 43 2 2
;
_chemical_formula_sum "Si O2"
_cell_formula_units_Z 48
_cell_length_a 14.286301
_cell_length_b 14.286301
_cell_length_c 11.686868
_cell_angle_alpha 90.000000
_cell_angle_beta 90.000000
_cell_angle_gamma 90.000000
_cell_volume 2385.271016
_symmetry_space_group_name_H-M "P 43 2 2"
_symmetry_group_IT_number 95
_symmetry_cell_setting 'tetragonal'
loop_
_space_group_symop_operation_xyz
x,y,z
-y,x,3/4+z
-x,-y,1/2+z
y,-x,1/4+z
x,-y,1/2-z
-x,y,-z
y,x,1/4-z
-y,-x,3/4-z
loop_
_atom_site_type_symbol
_atom_site_label
_atom_site_fract_x
_atom_site_fract_y
_atom_site_fract_z
Si Si1 0.192756 0.838492 0.495358
Si Si2 0.167412 0.500000 0.250000
Si Si3 0.679201 0.320800 0.375000
Si Si4 0.784185 0.511047 0.001118
Si Si5 0.415158 0.000000 0.750000
Si Si6 0.658719 0.012874 0.000273
Si Si7 0.000000 0.062656 0.000000
Si Si8 0.192775 0.330740 0.845224
O O1 0.211231 0.788770 0.375000
O O2 0.243352 0.937231 0.488850
O O3 0.086568 0.867658 0.507572
O O4 0.216549 0.767197 0.594492
O O5 0.228642 0.489373 0.363971
O O6 0.094450 0.415916 0.222211
O O7 0.584932 0.289410 0.306044
O O8 0.676290 0.241934 0.472860
O O9 0.774314 0.415391 0.073216
O O10 0.897617 0.534445 0.005560
O O11 0.356827 0.995817 0.865943
O O12 0.652915 0.918125 0.928372
O O13 0.009275 0.009275 0.125000
#
# Coordination Sequence:
#
# PCOD9550511 Si02
#       8
#     8   4   4   8   4   8   4   8
#     4  11  24  40  59  90 129 176 233 276 324 404
#     4  10  22  40  68 102 130 170 226 286 324 400
#     4  12  26  40  62 106 140 168 220 276 338 430
#     4  11  23  42  68 101 139 173 222 274 343 403
#     4  10  20  38  62  98 134 162 220 268 332 402
#     4  11  22  38  64  96 133 170 219 284 329 391
#     4  10  22  42  58  86 132 188 234 272 332 416
#     4  12  23  41  67  96 132 184 215 273 356 388
#
# _framework density 20.123497
#
# number of rings (size 3 to 8) (size 9 to 14) (size 15 to 20)
#    0.000    1.000    1.667    7.500    0.000    2.667 
#    3.000    0.000    0.000    0.000   47.667    0.000 
#    0.000    0.000    0.000    0.000    0.000    0.000 
#
# Total GULP energy -267398.064957 kJ/mol
# GULP energy per Si atom -5570.793020 kJ/mol
# Density = 2.007770 g / cm^3
# Si number density = 20.123497 Si / 1000 Ang^3
#
#
#
# Elastic Constant Matrix: (Units=GPa)
#
#
# Indices 1 2 3 4 5 6 
#
# 1 31.3712 70.0349 29.8725 0.0000 0.0000 0.0000
# 2 70.0349 31.3669 29.8642 0.0000 0.0000 0.0000
# 3 29.8725 29.8642 157.4636 0.0000 0.0000 0.0000
# 4 0.0000 0.0000 0.0000 -85.1926 0.0000 0.0000
# 5 0.0000 0.0000 0.0000 0.0000 -85.1141 0.0000
# 6 0.0000 0.0000 0.0000 0.0000 0.0000 17.1169
#
#
#
# Elastic Compliance Matrix: (Units=1/GPa)
#
#
# Indices 1 2 3 4 5 6 
#
# 1 -0.007380 0.018482 -0.002105 0.000000 0.000000 0.000000
# 2 0.018482 -0.007380 -0.002107 0.000000 0.000000 0.000000
# 3 -0.002105 -0.002107 0.007150 0.000000 0.000000 0.000000
# 4 0.000000 0.000000 0.000000 -0.011738 0.000000 0.000000
# 5 0.000000 0.000000 0.000000 0.000000 -0.011749 0.000000
# 6 0.000000 0.000000 0.000000 0.000000 0.000000 0.058422
#
#
# Mechanical properties :
#
#
# Convention : Reuss Voigt Hill
#
# Bulk Modulus (GPa) = 47.77773 53.30497 50.54135
# Shear Modulus (GPa) = 868.14712 -24.60928 421.76892
#
# Velocity S-wave (km/s) = 20.79294 -3.50081 14.49294
# Velocity P-wave (km/s) = 24.50011 3.19461 17.47085
#
# Compressibility (1/GPa) = 0.02093025
#
# Stress axis : x y z
#
# Youngs Moduli (GPa) = -135.49989 -135.49360 139.86822
#
# Poissons Ratio (x) = 2.50424 0.29446
# Poissons Ratio (y) = 2.50436 0.29464
# Poissons Ratio (z) = -0.28526 -0.28542
#
# Static dielectric constant tensor:
#      x y z
#    x 2.142980 0.000000 0.000000 
#    y 0.000000 2.142660 0.000000 
#    z 0.000000 0.000000 1.302020 
# 
# From -- ./inp_files/3941.got.cif
#   From: 2010.05.17/outbox.cif.g08.bks.cpg/sg95_2_cif.got.tgz:3941.got - 2010.06.03 19:46:49.
