data_PCOD9550850
_publ_section_title
;
Structure prediction by ZEFSAII (Michael W. Deem and Ramdas Pophale) SiO2 
 PCOD9550850
Probable space group: P 43 21 2
;
_chemical_formula_sum "Si O2"
_cell_formula_units_Z 32
_cell_length_a 8.579275
_cell_length_b 8.579275
_cell_length_c 18.271217
_cell_angle_alpha 90.000000
_cell_angle_beta 90.000000
_cell_angle_gamma 90.000000
_cell_volume 1344.833917
_symmetry_space_group_name_H-M "P 43 21 2"
_symmetry_group_IT_number 96
_symmetry_cell_setting 'tetragonal'
loop_
_space_group_symop_operation_xyz
x,y,z
1/2-y,1/2+x,3/4+z
-x,-y,1/2+z
1/2+y,1/2-x,1/4+z
1/2+x,1/2-y,1/4-z
1/2-x,1/2+y,3/4-z
y,x,-z
-y,-x,1/2-z
loop_
_atom_site_type_symbol
_atom_site_label
_atom_site_fract_x
_atom_site_fract_y
_atom_site_fract_z
Si Si1 0.254001 0.488790 0.459700
Si Si2 0.544962 0.789521 0.529999
Si Si3 0.792986 0.719970 0.337928
Si Si4 0.742914 0.445715 0.623779
O O1 0.389265 0.389265 0.500000
O O2 0.175039 0.605766 0.518076
O O3 0.134732 0.363865 0.427894
O O4 0.334581 0.600062 0.399282
O O5 0.648893 0.648893 0.500000
O O6 0.405405 0.724656 0.579486
O O7 0.657652 0.873110 0.587946
O O8 0.475783 0.840591 0.452107
O O9 0.608552 0.680333 0.342803
#
# Coordination Sequence:
#
# PCOD9550850 Si02
#       4
#     8   8   8   8
#     4  11  25  45  70 104 141 183 235 292 357 426
#     4   9  20  40  66  97 136 174 224 285 346 413
#     4  10  20  40  70 100 134 180 228 281 346 421
#     4  10  23  45  69 101 144 181 230 296 356 424
#
# _framework density 23.794758999999999
#
# number of rings (size 3 to 8) (size 9 to 14) (size 15 to 20)
#    0.000    2.000    0.000    6.000    0.000   12.000 
#    0.000   10.000    0.000   22.500    0.000    0.000 
#    0.000    0.000    0.000    0.000    0.000    0.000 
#
# Total GULP energy -178515.168441 kJ/mol
# GULP energy per Si atom -5578.599014 kJ/mol
# Density = 2.374060 g / cm^3
# Si number density = 23.794759 Si / 1000 Ang^3
#
#
#
# Elastic Constant Matrix: (Units=GPa)
#
#
# Indices 1 2 3 4 5 6 
#
# 1 83.2885 16.5991 44.7411 0.0000 0.0000 0.0000
# 2 16.5991 83.2885 44.7411 0.0000 0.0000 0.0000
# 3 44.7411 44.7411 106.7134 0.0000 0.0000 0.0000
# 4 0.0000 0.0000 0.0000 62.3203 0.0000 0.0000
# 5 0.0000 0.0000 0.0000 0.0000 62.3203 0.0000
# 6 0.0000 0.0000 0.0000 0.0000 0.0000 34.9609
#
#
#
# Elastic Compliance Matrix: (Units=1/GPa)
#
#
# Indices 1 2 3 4 5 6 
#
# 1 0.015514 0.000519 -0.006722 0.000000 0.000000 0.000000
# 2 0.000519 0.015514 -0.006722 0.000000 0.000000 0.000000
# 3 -0.006722 -0.006722 0.015008 0.000000 0.000000 0.000000
# 4 0.000000 0.000000 0.000000 0.016046 0.000000 0.000000
# 5 0.000000 0.000000 0.000000 0.000000 0.016046 0.000000
# 6 0.000000 0.000000 0.000000 0.000000 0.000000 0.028603
#
#
# Mechanical properties :
#
#
# Convention : Reuss Voigt Hill
#
# Bulk Modulus (GPa) = 49.54085 53.93924 51.74005
# Shear Modulus (GPa) = 35.89120 43.06758 39.47939
#
# Velocity S-wave (km/s) = 3.88798 4.25898 4.07770
# Velocity P-wave (km/s) = 6.40472 6.84857 6.63036
#
# Compressibility (1/GPa) = 0.02018536
#
# Stress axis : x y z
#
# Youngs Moduli (GPa) = 64.45791 64.45791 66.63302
#
# Poissons Ratio (x) = -0.03346 0.44791
# Poissons Ratio (y) = -0.03346 0.44791
# Poissons Ratio (z) = 0.43329 0.43329
#
# Static dielectric constant tensor:
#      x y z
#    x 1.947380 0.000000 0.000000 
#    y 0.000000 1.947380 0.000000 
#    z 0.000000 0.000000 1.987530 
# 
# From -- ./inp_files/3353.got.cif
#   From: 2010.05.17/outbox.cif.g08.bks.cpg/sg96_2_cif.got.tgz:3353.got - 2010.06.03 19:52:08.
