data_PCOD9550191
_publ_section_title
;
Structure prediction by ZEFSAII (Michael W. Deem and Ramdas Pophale) SiO2 
 PCOD9550191
Probable space group: P 42 21 2
;
_chemical_formula_sum "Si O2"
_cell_formula_units_Z 24
_cell_length_a 6.894015
_cell_length_b 6.894015
_cell_length_c 25.196026
_cell_angle_alpha 90.000000
_cell_angle_beta 90.000000
_cell_angle_gamma 90.000000
_cell_volume 1197.502685
_symmetry_space_group_name_H-M "P 42 21 2"
_symmetry_group_IT_number 94
_symmetry_cell_setting 'tetragonal'
loop_
_space_group_symop_operation_xyz
x,y,z
1/2-y,1/2+x,1/2+z
-x,-y,z
1/2+y,1/2-x,1/2+z
1/2+x,1/2-y,1/2-z
1/2-x,1/2+y,1/2-z
y,x,-z
-y,-x,-z
loop_
_atom_site_type_symbol
_atom_site_label
_atom_site_fract_x
_atom_site_fract_y
_atom_site_fract_z
Si Si1 0.000000 0.000000 0.500000
Si Si2 0.500000 0.000000 0.248037
Si Si3 0.000000 0.000000 0.000000
Si Si4 0.153842 0.347906 0.928548
Si Si5 0.344633 0.664806 0.323520
O O1 0.968233 0.188684 0.462685
O O2 0.561830 0.174385 0.286264
O O3 0.324577 0.067242 0.210928
O O4 0.190966 0.031374 0.036689
O O5 0.248166 0.238006 0.878792
O O6 0.000000 0.500000 0.906534
O O7 0.500000 0.500000 0.337350
#
# Coordination Sequence:
#
# PCOD9550191 Si02
#       5
#     2   4   2   8   8
#     4  10  26  42  64 106 132 168 224 286 322 394
#     4  12  26  44  70 100 138 174 226 278 332 398
#     4  10  22  42  64  98 132 176 216 270 338 398
#     4  11  23  43  68  95 134 175 222 271 336 398
#     4  12  25  43  69 100 135 179 223 278 339 403
#
# _framework density 20.041709999999998
#
# number of rings (size 3 to 8) (size 9 to 14) (size 15 to 20)
#    0.000    0.667    6.667    1.000    0.000    5.333 
#   12.000    0.000    0.000    0.000    0.000    0.000 
#    0.000    0.000    0.000    0.000    0.000    0.000 
#
# Total GULP energy -133939.473232 kJ/mol
# GULP energy per Si atom -5580.811385 kJ/mol
# Density = 1.999609 g / cm^3
# Si number density = 20.041710 Si / 1000 Ang^3
#
#
#
# Elastic Constant Matrix: (Units=GPa)
#
#
# Indices 1 2 3 4 5 6 
#
# 1 74.7053 46.3732 33.2624 0.0000 0.0000 0.0000
# 2 46.3732 74.7053 33.2624 0.0000 0.0000 0.0000
# 3 33.2624 33.2624 115.9235 0.0000 0.0000 0.0000
# 4 0.0000 0.0000 0.0000 30.2943 0.0000 0.0000
# 5 0.0000 0.0000 0.0000 0.0000 30.2943 0.0000
# 6 0.0000 0.0000 0.0000 0.0000 0.0000 47.1230
#
#
#
# Elastic Compliance Matrix: (Units=1/GPa)
#
#
# Indices 1 2 3 4 5 6 
#
# 1 0.022550 -0.012745 -0.002813 0.000000 0.000000 0.000000
# 2 -0.012745 0.022550 -0.002813 0.000000 0.000000 0.000000
# 3 -0.002813 -0.002813 0.010241 0.000000 0.000000 0.000000
# 4 0.000000 0.000000 0.000000 0.033009 0.000000 0.000000
# 5 0.000000 0.000000 0.000000 0.000000 0.033009 0.000000
# 6 0.000000 0.000000 0.000000 0.000000 0.000000 0.021221
#
#
# Mechanical properties :
#
#
# Convention : Reuss Voigt Hill
#
# Bulk Modulus (GPa) = 53.77157 54.57003 54.17080
# Shear Modulus (GPa) = 26.95061 31.70473 29.32767
#
# Velocity S-wave (km/s) = 3.67103 3.98167 3.82950
# Velocity P-wave (km/s) = 6.69751 6.95885 6.82943
#
# Compressibility (1/GPa) = 0.01859719
#
# Stress axis : x y z
#
# Youngs Moduli (GPa) = 44.34546 44.34546 97.64792
#
# Poissons Ratio (x) = 0.56520 0.27472
# Poissons Ratio (y) = 0.56520 0.27472
# Poissons Ratio (z) = 0.12476 0.12476
#
# Static dielectric constant tensor:
#      x y z
#    x 1.660740 0.000000 0.000000 
#    y 0.000000 1.660740 0.000000 
#    z 0.000000 0.000000 1.687440 
# 
# From -- ./inp_files/5419.got.cif
#   From: 2010.05.17/outbox.cif.g08.bks.cpg/sg94_3_cif.got.tgz:5419.got - 2010.06.03 19:43:16.
