data_PCOD9550954
_publ_section_title
;
Structure prediction by ZEFSAII (Michael W. Deem and Ramdas Pophale) SiO2 
 PCOD9550954
Probable space group: P 43 21 2
;
_chemical_formula_sum "Si O2"
_cell_formula_units_Z 40
_cell_length_a 7.704273
_cell_length_b 7.704273
_cell_length_c 30.104492
_cell_angle_alpha 90.000000
_cell_angle_beta 90.000000
_cell_angle_gamma 90.000000
_cell_volume 1786.876882
_symmetry_space_group_name_H-M "P 43 21 2"
_symmetry_group_IT_number 96
_symmetry_cell_setting 'tetragonal'
loop_
_space_group_symop_operation_xyz
x,y,z
1/2-y,1/2+x,3/4+z
-x,-y,1/2+z
1/2+y,1/2-x,1/4+z
1/2+x,1/2-y,1/4-z
1/2-x,1/2+y,3/4-z
y,x,-z
-y,-x,1/2-z
loop_
_atom_site_type_symbol
_atom_site_label
_atom_site_fract_x
_atom_site_fract_y
_atom_site_fract_z
Si Si1 0.259250 0.624289 0.935314
Si Si2 0.138273 0.628285 0.028933
Si Si3 0.984968 0.859870 0.177387
Si Si4 0.849685 0.760603 0.086855
Si Si5 0.886583 0.527135 0.344950
O O1 0.453806 0.553047 0.943996
O O2 0.195103 0.548722 0.888872
O O3 0.268918 0.831597 0.929225
O O4 0.141514 0.584966 0.977576
O O5 0.325531 0.702556 0.042712
O O6 0.983096 0.752469 0.045910
O O7 0.112625 0.456835 0.059561
O O8 0.149436 0.730754 0.176002
O O9 0.912515 0.879498 0.127010
O O10 0.870877 0.564976 0.107152
#
# Coordination Sequence:
#
# PCOD9550954 Si02
#       5
#     8   8   8   8   8
#     4  11  22  40  65  93 135 177 236 286 367 419
#     4  10  22  40  64  98 132 179 234 289 345 438
#     4  11  19  38  65  94 131 176 224 287 353 415
#     4   9  20  38  62  95 128 174 225 281 349 414
#     4   9  22  40  63  94 132 177 220 293 348 414
#
# _framework density 22.385425000000001
#
# number of rings (size 3 to 8) (size 9 to 14) (size 15 to 20)
#    1.200    0.800    2.000    1.800    0.000    1.600 
#    3.600    0.000    0.000    0.000    0.000    0.000 
#    0.000    0.000    0.000    0.000    0.000    0.000 
#
# Total GULP energy -223290.784108 kJ/mol
# GULP energy per Si atom -5582.269603 kJ/mol
# Density = 2.233447 g / cm^3
# Si number density = 22.385425 Si / 1000 Ang^3
#
#
#
# Elastic Constant Matrix: (Units=GPa)
#
#
# Indices 1 2 3 4 5 6 
#
# 1 87.6111 7.8960 36.1457 0.0000 0.0000 0.0000
# 2 7.8960 87.6111 36.1457 0.0000 0.0000 0.0000
# 3 36.1457 36.1457 131.2011 0.0000 0.0000 0.0000
# 4 0.0000 0.0000 0.0000 25.6390 0.0000 0.0000
# 5 0.0000 0.0000 0.0000 0.0000 25.6390 0.0000
# 6 0.0000 0.0000 0.0000 0.0000 0.0000 21.7232
#
#
#
# Elastic Compliance Matrix: (Units=1/GPa)
#
#
# Indices 1 2 3 4 5 6 
#
# 1 0.012887 0.000342 -0.003645 0.000000 0.000000 0.000000
# 2 0.000342 0.012887 -0.003645 0.000000 0.000000 0.000000
# 3 -0.003645 -0.003645 0.009630 0.000000 0.000000 0.000000
# 4 0.000000 0.000000 0.000000 0.039003 0.000000 0.000000
# 5 0.000000 0.000000 0.000000 0.000000 0.039003 0.000000
# 6 0.000000 0.000000 0.000000 0.000000 0.000000 0.046034
#
#
# Mechanical properties :
#
#
# Convention : Reuss Voigt Hill
#
# Bulk Modulus (GPa) = 46.49031 51.86647 49.17839
# Shear Modulus (GPa) = 27.69966 29.68264 28.69115
#
# Velocity S-wave (km/s) = 3.52148 3.64535 3.58395
# Velocity P-wave (km/s) = 6.11127 6.39829 6.25643
#
# Compressibility (1/GPa) = 0.02150986
#
# Stress axis : x y z
#
# Youngs Moduli (GPa) = 77.59826 77.59826 103.84169
#
# Poissons Ratio (x) = -0.02655 0.37846
# Poissons Ratio (y) = -0.02655 0.37846
# Poissons Ratio (z) = 0.28281 0.28281
#
# Static dielectric constant tensor:
#      x y z
#    x 1.856950 0.000000 0.000000 
#    y 0.000000 1.856950 0.000000 
#    z 0.000000 0.000000 1.818620 
# 
# From -- ./inp_files/4312.got.cif
#   From: 2010.05.17/outbox.cif.g08.bks.cpg/sg96_3_cif.got.tgz:4312.got - 2010.06.03 19:52:08.
