data_PCOD9550159
_publ_section_title
;
Structure prediction by ZEFSAII (Michael W. Deem and Ramdas Pophale) SiO2 
 PCOD9550159
Probable space group: P 42 21 2
;
_chemical_formula_sum "Si O2"
_cell_formula_units_Z 60
_cell_length_a 18.855728
_cell_length_b 18.855728
_cell_length_c 7.472722
_cell_angle_alpha 90.000000
_cell_angle_beta 90.000000
_cell_angle_gamma 90.000000
_cell_volume 2656.840209
_symmetry_space_group_name_H-M "P 42 21 2"
_symmetry_group_IT_number 94
_symmetry_cell_setting 'tetragonal'
loop_
_space_group_symop_operation_xyz
x,y,z
1/2-y,1/2+x,1/2+z
-x,-y,z
1/2+y,1/2-x,1/2+z
1/2+x,1/2-y,1/2-z
1/2-x,1/2+y,1/2-z
y,x,-z
-y,-x,-z
loop_
_atom_site_type_symbol
_atom_site_label
_atom_site_fract_x
_atom_site_fract_y
_atom_site_fract_z
Si Si1 0.035481 0.142353 0.541781
Si Si2 0.125794 0.686585 0.877864
Si Si3 0.336906 0.914160 0.506314
Si Si4 0.053255 0.283367 0.384902
Si Si5 0.750268 0.672719 0.714763
Si Si6 0.466075 0.835061 0.511866
Si Si7 0.285822 0.638571 0.333892
Si Si8 0.132638 0.867363 0.500000
O O1 0.064750 0.064750 0.500000
O O2 0.055031 0.199014 0.386652
O O3 0.085440 0.171118 0.703224
O O4 0.950262 0.143701 0.551662
O O5 0.131300 0.690115 0.663610
O O6 0.180160 0.625846 0.937188
O O7 0.147300 0.750239 0.008252
O O8 0.044648 0.664781 0.912372
O O9 0.303016 0.882155 0.683943
O O10 0.421352 0.907659 0.521022
O O11 0.308413 0.992737 0.480031
O O12 0.031241 0.313716 0.194908
O O13 0.791003 0.748345 0.745165
O O14 0.679844 0.657981 0.830846
O O15 0.412980 0.777077 0.597097
O O16 0.332030 0.667971 0.500000
#
# Coordination Sequence:
#
# PCOD9550159 Si02
#       8
#     8   8   8   8   8   8   8   4
#     4  12  25  44  73 102 139 190 241 296 372 443
#     4  11  22  38  65 100 135 183 235 292 361 433
#     4  10  22  37  62  96 137 184 234 289 360 430
#     4  11  21  41  65  93 138 184 233 293 358 430
#     4  11  22  43  70  99 139 179 237 301 367 425
#     4  10  22  37  63  96 138 182 233 296 358 430
#     4  11  23  43  72 102 137 186 243 308 363 438
#     4  12  25  46  76 102 144 190 233 310 372 438
#
# _framework density 22.583217999999999
#
# number of rings (size 3 to 8) (size 9 to 14) (size 15 to 20)
#    0.000    1.067    4.667    1.800    1.867    0.533 
#    0.000    3.333    5.867    2.400    0.000    0.000 
#    0.000    0.000    0.000    0.000    0.000    0.000 
#
# Total GULP energy -335204.522400 kJ/mol
# GULP energy per Si atom -5586.742040 kJ/mol
# Density = 2.253182 g / cm^3
# Si number density = 22.583218 Si / 1000 Ang^3
#
#
#
# Elastic Constant Matrix: (Units=GPa)
#
#
# Indices 1 2 3 4 5 6 
#
# 1 101.0093 61.4897 6.6337 0.0000 0.0000 0.0000
# 2 61.4897 101.0095 6.6334 0.0000 0.0000 0.0000
# 3 6.6337 6.6334 50.2889 0.0000 0.0000 0.0000
# 4 0.0000 0.0000 0.0000 26.8415 0.0000 0.0000
# 5 0.0000 0.0000 0.0000 0.0000 26.8415 0.0000
# 6 0.0000 0.0000 0.0000 0.0000 0.0000 34.0919
#
#
#
# Elastic Compliance Matrix: (Units=1/GPa)
#
#
# Indices 1 2 3 4 5 6 
#
# 1 0.015762 -0.009541 -0.000821 0.000000 0.000000 0.000000
# 2 -0.009541 0.015762 -0.000821 0.000000 0.000000 0.000000
# 3 -0.000821 -0.000821 0.020102 0.000000 0.000000 0.000000
# 4 0.000000 0.000000 0.000000 0.037256 0.000000 0.000000
# 5 0.000000 0.000000 0.000000 0.000000 0.037256 0.000000
# 6 0.000000 0.000000 0.000000 0.000000 0.000000 0.029332
#
#
# Mechanical properties :
#
#
# Convention : Reuss Voigt Hill
#
# Bulk Modulus (GPa) = 34.17520 44.64682 39.41101
# Shear Modulus (GPa) = 26.65396 29.39169 28.02283
#
# Velocity S-wave (km/s) = 3.43921 3.61152 3.52642
# Velocity P-wave (km/s) = 5.56208 6.09948 5.83697
#
# Compressibility (1/GPa) = 0.02926099
#
# Stress axis : x y z
#
# Youngs Moduli (GPa) = 63.44219 63.44232 49.74732
#
# Poissons Ratio (x) = 0.60533 0.04083
# Poissons Ratio (y) = 0.60533 0.04082
# Poissons Ratio (z) = 0.05207 0.05205
#
# Static dielectric constant tensor:
#      x y z
#    x 1.865430 0.000000 0.000000 
#    y 0.000000 1.865420 0.000000 
#    z 0.000000 0.000000 1.858200 
# 
# From -- ./inp_files/1747.got.cif
#   From: 2010.05.17/outbox.cif.g08.bks.cpg/sg94_1_cif.got.tgz:1747.got - 2010.06.03 19:43:16.
