data_PCOD9550652
_publ_section_title
;
Structure prediction by ZEFSAII (Michael W. Deem and Ramdas Pophale) SiO2 
 PCOD9550652
Probable space group: P 43 2 2
;
_chemical_formula_sum "Si O2"
_cell_formula_units_Z 40
_cell_length_a 9.023138
_cell_length_b 9.023138
_cell_length_c 21.172770
_cell_angle_alpha 90.000000
_cell_angle_beta 90.000000
_cell_angle_gamma 90.000000
_cell_volume 1723.823825
_symmetry_space_group_name_H-M "P 43 2 2"
_symmetry_group_IT_number 95
_symmetry_cell_setting 'tetragonal'
loop_
_space_group_symop_operation_xyz
x,y,z
-y,x,3/4+z
-x,-y,1/2+z
y,-x,1/4+z
x,-y,1/2-z
-x,y,-z
y,x,1/4-z
-y,-x,3/4-z
loop_
_atom_site_type_symbol
_atom_site_label
_atom_site_fract_x
_atom_site_fract_y
_atom_site_fract_z
Si Si1 0.630762 0.722309 0.299553
Si Si2 0.038916 0.038916 0.125000
Si Si3 0.500000 0.840237 0.000000
Si Si4 0.095495 0.654386 0.305912
Si Si5 0.443395 0.000000 0.250000
Si Si6 0.203460 0.795424 0.570020
Si Si7 0.607853 0.607853 0.625000
O O1 0.738327 0.645793 0.248334
O O2 0.547571 0.870230 0.277343
O O3 0.718437 0.751468 0.364870
O O4 0.509244 0.598779 0.319355
O O5 0.184619 0.046847 0.081132
O O6 0.893103 0.057834 0.083854
O O7 0.456443 0.957172 0.054440
O O8 0.168796 0.686425 0.237511
O O9 0.225761 0.596976 0.349677
O O10 0.331193 0.913185 0.202664
#
# Coordination Sequence:
#
# PCOD9550652 Si02
#       7
#     8   4   4   8   4   8   4
#     4  12  29  45  77 111 160 192 257 324 395 450
#     4  11  20  42  69 110 138 196 253 313 376 448
#     4  12  28  46  66 118 156 188 240 330 382 444
#     4  11  22  45  76 101 147 197 265 305 366 466
#     4  12  26  52  74 112 150 206 256 322 380 476
#     4  12  24  45  78 105 146 201 263 313 371 464
#     4  11  24  50  79 108 138 218 261 305 380 468
#
# _framework density 23.204228000000001
#
# number of rings (size 3 to 8) (size 9 to 14) (size 15 to 20)
#    0.000    0.400    6.000    2.400    5.600    2.400 
#    0.000    1.000    0.000    0.000    0.000    0.000 
#    0.000    0.000    0.000    0.000    0.000    0.000 
#
# Total GULP energy -223552.023578 kJ/mol
# GULP energy per Si atom -5588.800589 kJ/mol
# Density = 2.315141 g / cm^3
# Si number density = 23.204228 Si / 1000 Ang^3
#
#
#
# Elastic Constant Matrix: (Units=GPa)
#
#
# Indices 1 2 3 4 5 6 
#
# 1 115.6783 53.0319 40.6274 0.0000 0.0000 0.0000
# 2 53.0319 115.6783 40.6274 0.0000 0.0000 0.0000
# 3 40.6274 40.6274 84.0757 0.0000 0.0000 0.0000
# 4 0.0000 0.0000 0.0000 43.6056 0.0000 0.0000
# 5 0.0000 0.0000 0.0000 0.0000 43.6056 0.0000
# 6 0.0000 0.0000 0.0000 0.0000 0.0000 58.4899
#
#
#
# Elastic Compliance Matrix: (Units=1/GPa)
#
#
# Indices 1 2 3 4 5 6 
#
# 1 0.011844 -0.004119 -0.003733 0.000000 0.000000 0.000000
# 2 -0.004119 0.011844 -0.003733 0.000000 0.000000 0.000000
# 3 -0.003733 -0.003733 0.015502 0.000000 0.000000 0.000000
# 4 0.000000 0.000000 0.000000 0.022933 0.000000 0.000000
# 5 0.000000 0.000000 0.000000 0.000000 0.022933 0.000000
# 6 0.000000 0.000000 0.000000 0.000000 0.000000 0.017097
#
#
# Mechanical properties :
#
#
# Convention : Reuss Voigt Hill
#
# Bulk Modulus (GPa) = 62.42118 64.88953 63.65535
# Shear Modulus (GPa) = 38.26670 41.21657 39.74163
#
# Velocity S-wave (km/s) = 4.06535 4.21913 4.14295
# Velocity P-wave (km/s) = 6.99966 7.19444 7.09772
#
# Compressibility (1/GPa) = 0.01602020
#
# Stress axis : x y z
#
# Youngs Moduli (GPa) = 84.43145 84.43145 64.50851
#
# Poissons Ratio (x) = 0.34775 0.24081
# Poissons Ratio (y) = 0.34775 0.24081
# Poissons Ratio (z) = 0.31518 0.31518
#
# Static dielectric constant tensor:
#      x y z
#    x 1.895320 0.000000 0.000000 
#    y 0.000000 1.895320 0.000000 
#    z 0.000000 0.000000 1.909300 
# 
# From -- ./inp_files/6942.got.cif
#   From: 2010.05.17/outbox.cif.g08.bks.cpg/sg95_4_cif.got.tgz:6942.got - 2010.06.03 19:46:49.
