data_PCOD9550187
_publ_section_title
;
Structure prediction by ZEFSAII (Michael W. Deem and Ramdas Pophale) SiO2 
 PCOD9550187
Probable space group: P 42 21 2
;
_chemical_formula_sum "Si O2"
_cell_formula_units_Z 34
_cell_length_a 13.922180
_cell_length_b 13.922180
_cell_length_c 6.710310
_cell_angle_alpha 90.000000
_cell_angle_beta 90.000000
_cell_angle_gamma 90.000000
_cell_volume 1300.639900
_symmetry_space_group_name_H-M "P 42 21 2"
_symmetry_group_IT_number 94
_symmetry_cell_setting 'tetragonal'
loop_
_space_group_symop_operation_xyz
x,y,z
1/2-y,1/2+x,1/2+z
-x,-y,z
1/2+y,1/2-x,1/2+z
1/2+x,1/2-y,1/2-z
1/2-x,1/2+y,1/2-z
y,x,-z
-y,-x,-z
loop_
_atom_site_type_symbol
_atom_site_label
_atom_site_fract_x
_atom_site_fract_y
_atom_site_fract_z
Si Si1 0.318015 0.166759 0.157334
Si Si2 0.013570 0.212761 0.073235
Si Si3 0.000000 0.000000 0.000000
Si Si4 0.887706 0.241130 0.710242
Si Si5 0.731094 0.432366 0.007907
O O1 0.156873 0.156873 0.500000
O O2 0.174220 0.384282 0.041632
O O3 0.034833 0.258939 0.286063
O O4 0.231054 0.105534 0.063657
O O5 0.998390 0.100603 0.114873
O O6 0.821753 0.395482 0.140272
O O7 0.927021 0.251340 0.933942
O O8 0.778794 0.202203 0.708490
O O9 0.681430 0.524643 0.112105
#
# Coordination Sequence:
#
# PCOD9550187 Si02
#       5
#     8   8   2   8   8
#     4  10  23  46  64 100 157 206 263 322 397 481
#     4  11  25  42  67 109 159 209 257 331 403 497
#     4  12  24  40  62 108 180 186 250 322 430 484
#     4  10  22  41  70 103 144 209 272 317 397 483
#     4  11  23  42  68 105 154 209 255 332 403 479
#
# _framework density 26.140976999999999
#
# number of rings (size 3 to 8) (size 9 to 14) (size 15 to 20)
#    0.000    1.412    0.000    7.059    6.588    5.647 
#    0.000    1.176    0.000    0.000    0.000   79.059 
#    0.000    0.000    0.000    0.000    0.000    0.000 
#
# Total GULP energy -189284.276104 kJ/mol
# GULP energy per Si atom -5567.184591 kJ/mol
# Density = 2.608148 g / cm^3
# Si number density = 26.140977 Si / 1000 Ang^3
#
#
#
# Elastic Constant Matrix: (Units=GPa)
#
#
# Indices 1 2 3 4 5 6 
#
# 1 85.4561 44.8832 68.2391 0.0000 0.0000 0.0000
# 2 44.8832 85.4561 68.2391 0.0000 0.0000 0.0000
# 3 68.2391 68.2391 252.1489 0.0000 0.0000 0.0000
# 4 0.0000 0.0000 0.0000 55.8873 0.0000 0.0000
# 5 0.0000 0.0000 0.0000 0.0000 55.8873 0.0000
# 6 0.0000 0.0000 0.0000 0.0000 0.0000 34.7295
#
#
#
# Elastic Compliance Matrix: (Units=1/GPa)
#
#
# Indices 1 2 3 4 5 6 
#
# 1 0.017677 -0.006970 -0.002897 0.000000 0.000000 0.000000
# 2 -0.006970 0.017677 -0.002897 0.000000 0.000000 0.000000
# 3 -0.002897 -0.002897 0.005534 0.000000 0.000000 0.000000
# 4 0.000000 0.000000 0.000000 0.017893 0.000000 0.000000
# 5 0.000000 0.000000 0.000000 0.000000 0.017893 0.000000
# 6 0.000000 0.000000 0.000000 0.000000 0.000000 0.028794
#
#
# Mechanical properties :
#
#
# Convention : Reuss Voigt Hill
#
# Bulk Modulus (GPa) = 65.11757 87.30932 76.21344
# Shear Modulus (GPa) = 36.73309 45.41412 41.07361
#
# Velocity S-wave (km/s) = 3.75266 4.17259 3.96818
# Velocity P-wave (km/s) = 6.61368 7.52900 7.08614
#
# Compressibility (1/GPa) = 0.01535684
#
# Stress axis : x y z
#
# Youngs Moduli (GPa) = 56.57203 56.57203 180.69584
#
# Poissons Ratio (x) = 0.39433 0.52355
# Poissons Ratio (y) = 0.39433 0.52355
# Poissons Ratio (z) = 0.16391 0.16391
#
# Static dielectric constant tensor:
#      x y z
#    x 2.137440 0.000000 0.000000 
#    y 0.000000 2.137440 0.000000 
#    z 0.000000 0.000000 2.187070 
# 
# From -- ./inp_files/2414.got.cif
#   From: 2010.05.17/outbox.cif.g08.bks.cpg/sg94_2_cif.got.tgz:2414.got - 2010.06.03 19:43:16.
