data_PCOD9550512
_publ_section_title
;
Structure prediction by ZEFSAII (Michael W. Deem and Ramdas Pophale) SiO2 
 PCOD9550512
Probable space group: P 43 2 2
;
_chemical_formula_sum "Si O2"
_cell_formula_units_Z 56
_cell_length_a 14.650306
_cell_length_b 14.650306
_cell_length_c 12.949216
_cell_angle_alpha 90.000000
_cell_angle_beta 90.000000
_cell_angle_gamma 90.000000
_cell_volume 2779.309212
_symmetry_space_group_name_H-M "P 43 2 2"
_symmetry_group_IT_number 95
_symmetry_cell_setting 'tetragonal'
loop_
_space_group_symop_operation_xyz
x,y,z
-y,x,3/4+z
-x,-y,1/2+z
y,-x,1/4+z
x,-y,1/2-z
-x,y,-z
y,x,1/4-z
-y,-x,3/4-z
loop_
_atom_site_type_symbol
_atom_site_label
_atom_site_fract_x
_atom_site_fract_y
_atom_site_fract_z
Si Si1 0.851780 0.500000 0.250000
Si Si2 0.193448 0.336637 0.092463
Si Si3 0.766899 0.766899 0.125000
Si Si4 0.052390 0.201049 0.093787
Si Si5 0.630153 0.699942 0.303023
Si Si6 0.403330 0.123500 0.944007
Si Si7 0.463882 0.719599 0.181205
Si Si8 0.308563 0.949382 0.972170
O O1 0.786140 0.489607 0.348405
O O2 0.905948 0.595413 0.263999
O O3 0.284292 0.284292 0.125000
O O4 0.112691 0.280586 0.039151
O O5 0.152821 0.350229 0.204569
O O6 0.219614 0.419089 0.020758
O O7 0.707471 0.734033 0.223663
O O8 0.871324 0.743686 0.157265
O O9 0.129347 0.129347 0.125000
O O10 0.990264 0.243451 0.186154
O O11 0.000000 0.155733 0.000000
O O12 0.599561 0.789550 0.368590
O O13 0.544217 0.664224 0.236501
O O14 0.666667 0.618923 0.375912
O O15 0.349301 0.034341 0.905127
O O16 0.500000 0.102003 0.000000
#
# Coordination Sequence:
#
# PCOD9550512 Si02
#       8
#     4   8   4   8   8   8   8   8
#     4  12  22  42  70 100 136 184 234 288 360 418
#     4  10  20  38  67  95 128 175 225 288 357 410
#     4  12  26  48  68 102 144 194 232 292 366 430
#     4  10  23  43  69 101 134 182 227 282 356 423
#     4  12  25  42  73  97 143 192 240 293 361 431
#     4  11  22  39  66 105 135 169 234 304 356 419
#     4  12  23  41  71  97 141 189 240 292 354 436
#     4  11  24  43  72 104 143 179 234 294 359 432
#
# _framework density 20.148890000000002
#
# number of rings (size 3 to 8) (size 9 to 14) (size 15 to 20)
#    0.000    0.857    6.429    0.857    0.000    0.571 
#    1.286    1.429   22.000    0.000    0.000    0.000 
#    0.000    0.000    0.000    0.000    0.000    0.000 
#
# Total GULP energy -311855.464091 kJ/mol
# GULP energy per Si atom -5568.847573 kJ/mol
# Density = 2.010303 g / cm^3
# Si number density = 20.148890 Si / 1000 Ang^3
#
#
#
# Elastic Constant Matrix: (Units=GPa)
#
#
# Indices 1 2 3 4 5 6 
#
# 1 92.5585 57.9936 34.0913 0.0000 0.0000 0.0000
# 2 57.9936 92.5585 34.0913 0.0000 0.0000 0.0000
# 3 34.0913 34.0913 66.1216 0.0000 0.0000 0.0000
# 4 0.0000 0.0000 0.0000 13.4851 0.0000 0.0000
# 5 0.0000 0.0000 0.0000 0.0000 13.4851 0.0000
# 6 0.0000 0.0000 0.0000 0.0000 0.0000 28.2414
#
#
#
# Elastic Compliance Matrix: (Units=1/GPa)
#
#
# Indices 1 2 3 4 5 6 
#
# 1 0.018798 -0.010133 -0.004468 0.000000 0.000000 0.000000
# 2 -0.010133 0.018798 -0.004468 0.000000 0.000000 0.000000
# 3 -0.004468 -0.004468 0.019731 0.000000 0.000000 0.000000
# 4 0.000000 0.000000 0.000000 0.074156 0.000000 0.000000
# 5 0.000000 0.000000 0.000000 0.000000 0.074156 0.000000
# 6 0.000000 0.000000 0.000000 0.000000 0.000000 0.035409
#
#
# Mechanical properties :
#
#
# Convention : Reuss Voigt Hill
#
# Bulk Modulus (GPa) = 52.10889 55.95453 54.03171
# Shear Modulus (GPa) = 17.50810 19.37982 18.44396
#
# Velocity S-wave (km/s) = 2.95097 3.10470 3.02881
# Velocity P-wave (km/s) = 6.12609 6.37833 6.25348
#
# Compressibility (1/GPa) = 0.01919059
#
# Stress axis : x y z
#
# Youngs Moduli (GPa) = 53.19612 53.19612 50.68221
#
# Poissons Ratio (x) = 0.53902 0.22644
# Poissons Ratio (y) = 0.53902 0.22644
# Poissons Ratio (z) = 0.23767 0.23767
#
# Static dielectric constant tensor:
#      x y z
#    x 1.747880 0.000000 0.000000 
#    y 0.000000 1.747880 0.000000 
#    z 0.000000 0.000000 1.662540 
# 
# From -- ./inp_files/4002.got.cif
#   From: 2010.05.17/outbox.cif.g08.bks.cpg/sg95_3_cif.got.tgz:4002.got - 2010.06.03 19:46:49.
