data_PCOD9550232
_publ_section_title
;
Structure prediction by ZEFSAII (Michael W. Deem and Ramdas Pophale) SiO2 
 PCOD9550232
Probable space group: P 42 21 2
;
_chemical_formula_sum "Si O2"
_cell_formula_units_Z 34
_cell_length_a 11.322554
_cell_length_b 11.322554
_cell_length_c 14.194294
_cell_angle_alpha 90.000000
_cell_angle_beta 90.000000
_cell_angle_gamma 90.000000
_cell_volume 1819.711742
_symmetry_space_group_name_H-M "P 42 21 2"
_symmetry_group_IT_number 94
_symmetry_cell_setting 'tetragonal'
loop_
_space_group_symop_operation_xyz
x,y,z
1/2-y,1/2+x,1/2+z
-x,-y,z
1/2+y,1/2-x,1/2+z
1/2+x,1/2-y,1/2-z
1/2-x,1/2+y,1/2-z
y,x,-z
-y,-x,-z
loop_
_atom_site_type_symbol
_atom_site_label
_atom_site_fract_x
_atom_site_fract_y
_atom_site_fract_z
Si Si1 0.133046 0.184044 0.096638
Si Si2 0.500000 0.500000 0.500000
Si Si3 0.594659 0.394241 0.888107
Si Si4 0.947348 0.698156 0.761122
Si Si5 0.175819 0.550706 0.763995
O O1 0.210495 0.097290 0.160511
O O2 0.096636 0.291738 0.159919
O O3 0.203951 0.203951 0.000000
O O4 0.014603 0.114983 0.064160
O O5 0.500000 0.500000 0.875392
O O6 0.549995 0.274763 0.835328
O O7 0.713769 0.430574 0.832755
O O8 0.617780 0.382221 0.000000
O O9 0.859277 0.586266 0.756748
O O10 0.068532 0.636024 0.791939
#
# Coordination Sequence:
#
# PCOD9550232 Si02
#       5
#     8   2   8   8   8
#     4   9  21  38  61  90 116 160 199 249 291 360
#     4   8  20  36  56  88 114 150 210 236 288 344
#     4  10  24  41  63  89 124 164 204 245 303 369
#     4  10  23  41  63  92 124 159 201 253 305 357
#     4  10  23  41  63  92 124 159 201 253 305 357
#
# _framework density 18.684277999999999
#
# number of rings (size 3 to 8) (size 9 to 14) (size 15 to 20)
#    0.706    1.647    0.000    0.000   13.176    3.765 
#    4.235    4.706    0.000    0.000    0.000    0.000 
#    0.000    0.000    0.000    0.000    0.000    0.000 
#
# Total GULP energy -189272.451936 kJ/mol
# GULP energy per Si atom -5566.836822 kJ/mol
# Density = 1.864175 g / cm^3
# Si number density = 18.684278 Si / 1000 Ang^3
#
#
#
# Elastic Constant Matrix: (Units=GPa)
#
#
# Indices 1 2 3 4 5 6 
#
# 1 76.0625 53.9950 35.5845 0.0000 0.0000 0.0000
# 2 53.9950 76.0627 35.5846 0.0000 0.0000 0.0000
# 3 35.5845 35.5846 118.5571 0.0000 0.0000 0.0000
# 4 0.0000 0.0000 0.0000 5.8514 0.0000 0.0000
# 5 0.0000 0.0000 0.0000 0.0000 5.8521 0.0000
# 6 0.0000 0.0000 0.0000 0.0000 0.0000 21.5790
#
#
#
# Elastic Compliance Matrix: (Units=1/GPa)
#
#
# Indices 1 2 3 4 5 6 
#
# 1 0.027258 -0.018058 -0.002761 0.000000 0.000000 0.000000
# 2 -0.018058 0.027258 -0.002761 0.000000 0.000000 0.000000
# 3 -0.002761 -0.002761 0.010092 0.000000 0.000000 0.000000
# 4 0.000000 0.000000 0.000000 0.170900 0.000000 0.000000
# 5 0.000000 0.000000 0.000000 0.000000 0.170880 0.000000
# 6 0.000000 0.000000 0.000000 0.000000 0.000000 0.046341
#
#
# Mechanical properties :
#
#
# Convention : Reuss Voigt Hill
#
# Bulk Modulus (GPa) = 57.31678 57.89008 57.60343
# Shear Modulus (GPa) = 9.88718 16.35769 13.12243
#
# Velocity S-wave (km/s) = 2.30287 2.96206 2.65302
# Velocity P-wave (km/s) = 6.14931 6.53827 6.34677
#
# Compressibility (1/GPa) = 0.01744690
#
# Stress axis : x y z
#
# Youngs Moduli (GPa) = 36.68690 36.68701 99.08481
#
# Poissons Ratio (x) = 0.66248 0.27361
# Poissons Ratio (y) = 0.66248 0.27361
# Poissons Ratio (z) = 0.10130 0.10131
#
# Static dielectric constant tensor:
#      x y z
#    x 1.714890 0.000000 0.000000 
#    y 0.000000 1.714890 0.000000 
#    z 0.000000 0.000000 1.666490 
# 
# From -- ./inp_files/3323.got.cif
#   From: 2010.05.17/outbox.cif.g08.bks.cpg/sg94_2_cif.got.tgz:3323.got - 2010.06.03 19:43:16.
