data_PCOD9550138
_publ_section_title
;
Structure prediction by ZEFSAII (Michael W. Deem and Ramdas Pophale) SiO2 
 PCOD9550138
Probable space group: P 42 21 2
;
_chemical_formula_sum "Si O2"
_cell_formula_units_Z 56
_cell_length_a 14.757348
_cell_length_b 14.757348
_cell_length_c 13.257273
_cell_angle_alpha 90.000000
_cell_angle_beta 90.000000
_cell_angle_gamma 90.000000
_cell_volume 2887.159899
_symmetry_space_group_name_H-M "P 42 21 2"
_symmetry_group_IT_number 94
_symmetry_cell_setting 'tetragonal'
loop_
_space_group_symop_operation_xyz
x,y,z
1/2-y,1/2+x,1/2+z
-x,-y,z
1/2+y,1/2-x,1/2+z
1/2+x,1/2-y,1/2-z
1/2-x,1/2+y,1/2-z
y,x,-z
-y,-x,-z
loop_
_atom_site_type_symbol
_atom_site_label
_atom_site_fract_x
_atom_site_fract_y
_atom_site_fract_z
Si Si1 0.567439 0.702509 0.043423
Si Si2 0.980536 0.195043 0.226193
Si Si3 0.848305 0.713257 0.957478
Si Si4 0.554736 0.798713 0.478060
Si Si5 0.743634 0.879116 0.451111
Si Si6 0.371425 0.681596 0.725603
Si Si7 0.377453 0.450139 0.398841
O O1 0.560170 0.708888 0.163796
O O2 0.634895 0.781560 0.006333
O O3 0.610396 0.610396 0.000000
O O4 0.467555 0.717847 0.004074
O O5 0.955700 0.264018 0.136873
O O6 0.932887 0.104696 0.184049
O O7 0.089867 0.187591 0.233613
O O8 0.835626 0.733818 0.839479
O O9 0.809631 0.809631 0.000000
O O10 0.950579 0.686027 0.986470
O O11 0.635767 0.870766 0.471741
O O12 0.584591 0.718927 0.556279
O O13 0.791667 0.791667 0.500000
O O14 0.777147 0.887676 0.335647
O O15 0.456343 0.647659 0.656736
O O16 0.437816 0.437816 0.500000
#
# Coordination Sequence:
#
# PCOD9550138 Si02
#       7
#     8   8   8   8   8   8   8
#     4  11  25  41  62  89 130 177 214 259 315 388
#     4  11  19  37  59  94 123 167 204 259 325 380
#     4  10  21  42  65  93 123 164 219 271 320 377
#     4  10  22  39  66  93 127 166 214 274 323 382
#     4  12  24  42  60  92 131 174 214 257 327 398
#     4  11  21  36  63  93 129 164 208 272 322 391
#     4   9  20  34  59  97 127 159 211 270 326 378
#
# _framework density 19.396225000000001
#
# number of rings (size 3 to 8) (size 9 to 14) (size 15 to 20)
#    0.000    1.429    2.857    3.429    0.000    2.571 
#    0.000    4.286    0.000    5.143    0.000    0.000 
#    0.000    0.000    0.000    0.000    0.000    0.000 
#
# Total GULP energy -311758.901358 kJ/mol
# GULP energy per Si atom -5567.123239 kJ/mol
# Density = 1.935208 g / cm^3
# Si number density = 19.396225 Si / 1000 Ang^3
#
#
#
# Elastic Constant Matrix: (Units=GPa)
#
#
# Indices 1 2 3 4 5 6 
#
# 1 72.7949 28.7827 16.2161 0.0000 0.0000 0.0000
# 2 28.7827 72.7949 16.2161 0.0000 0.0000 0.0000
# 3 16.2161 16.2161 102.3408 0.0000 0.0000 0.0000
# 4 0.0000 0.0000 0.0000 14.2315 0.0000 0.0000
# 5 0.0000 0.0000 0.0000 0.0000 14.2315 0.0000
# 6 0.0000 0.0000 0.0000 0.0000 0.0000 27.8371
#
#
#
# Elastic Compliance Matrix: (Units=1/GPa)
#
#
# Indices 1 2 3 4 5 6 
#
# 1 0.016545 -0.006176 -0.001643 0.000000 0.000000 0.000000
# 2 -0.006176 0.016545 -0.001643 0.000000 0.000000 0.000000
# 3 -0.001643 -0.001643 0.010292 0.000000 0.000000 0.000000
# 4 0.000000 0.000000 0.000000 0.070267 0.000000 0.000000
# 5 0.000000 0.000000 0.000000 0.000000 0.070267 0.000000
# 6 0.000000 0.000000 0.000000 0.000000 0.000000 0.035923
#
#
# Mechanical properties :
#
#
# Convention : Reuss Voigt Hill
#
# Bulk Modulus (GPa) = 40.88577 41.15116 41.01847
# Shear Modulus (GPa) = 20.24980 23.70770 21.97875
#
# Velocity S-wave (km/s) = 3.23462 3.49991 3.36988
# Velocity P-wave (km/s) = 5.92244 6.13145 6.02785
#
# Compressibility (1/GPa) = 0.02445839
#
# Stress axis : x y z
#
# Youngs Moduli (GPa) = 60.44077 60.44077 97.16320
#
# Poissons Ratio (x) = 0.37327 0.15964
# Poissons Ratio (y) = 0.37327 0.15964
# Poissons Ratio (z) = 0.09931 0.09931
#
# Static dielectric constant tensor:
#      x y z
#    x 1.705070 0.000000 0.000000 
#    y 0.000000 1.705070 0.000000 
#    z 0.000000 0.000000 1.562230 
# 
# From -- ./inp_files/2737.got.cif
#   From: 2010.05.17/outbox.cif.g08.bks.cpg/sg94_2_cif.got.tgz:2737.got - 2010.06.03 19:43:16.
