data_PCOD9550310
_publ_section_title
;
Structure prediction by ZEFSAII (Michael W. Deem and Ramdas Pophale) SiO2 
 PCOD9550310
Probable space group: P 42 21 2
;
_chemical_formula_sum "Si O2"
_cell_formula_units_Z 28
_cell_length_a 8.599674
_cell_length_b 8.599674
_cell_length_c 17.755970
_cell_angle_alpha 90.000000
_cell_angle_beta 90.000000
_cell_angle_gamma 90.000000
_cell_volume 1313.131982
_symmetry_space_group_name_H-M "P 42 21 2"
_symmetry_group_IT_number 94
_symmetry_cell_setting 'tetragonal'
loop_
_space_group_symop_operation_xyz
x,y,z
1/2-y,1/2+x,1/2+z
-x,-y,z
1/2+y,1/2-x,1/2+z
1/2+x,1/2-y,1/2-z
1/2-x,1/2+y,1/2-z
y,x,-z
-y,-x,-z
loop_
_atom_site_type_symbol
_atom_site_label
_atom_site_fract_x
_atom_site_fract_y
_atom_site_fract_z
Si Si1 0.453915 0.318264 0.065619
Si Si2 0.171612 0.559227 0.789732
Si Si3 0.166309 0.917391 0.844366
Si Si4 0.773984 0.226017 0.000000
O O1 0.500000 0.500000 0.072415
O O2 0.448802 0.266844 0.151988
O O3 0.598575 0.219743 0.032689
O O4 0.322045 0.322045 0.000000
O O5 0.180315 0.741621 0.810716
O O6 0.221715 0.525173 0.704723
O O7 0.000000 0.500000 0.800206
O O8 0.203954 0.893235 0.932120
O O9 0.000000 0.000000 0.836477
#
# Coordination Sequence:
#
# PCOD9550310 Si02
#       4
#     8   8   8   4
#     4   8  16  35  62  88 121 165 208 254 312 381
#     4  11  23  38  59  92 124 163 215 264 323 390
#     4  11  22  41  63  88 126 165 209 268 327 392
#     4   8  18  36  62  92 120 160 210 258 314 378
#
# _framework density 21.323063999999999
#
# number of rings (size 3 to 8) (size 9 to 14) (size 15 to 20)
#    0.000    2.571    0.000    3.000    0.000    4.571 
#    0.000   17.143    0.000    0.000    0.000    0.000 
#    0.000    0.000    0.000    0.000    0.000    0.000 
#
# Total GULP energy -155962.763458 kJ/mol
# GULP energy per Si atom -5570.098695 kJ/mol
# Density = 2.127453 g / cm^3
# Si number density = 21.323064 Si / 1000 Ang^3
#
#
#
# Elastic Constant Matrix: (Units=GPa)
#
#
# Indices 1 2 3 4 5 6 
#
# 1 59.1291 20.3696 34.6395 0.0000 0.0000 0.0000
# 2 20.3696 59.1288 34.6401 0.0000 0.0000 0.0000
# 3 34.6395 34.6401 150.0587 0.0000 0.0000 0.0000
# 4 0.0000 0.0000 0.0000 2.7299 0.0000 0.0000
# 5 0.0000 0.0000 0.0000 0.0000 2.7278 0.0000
# 6 0.0000 0.0000 0.0000 0.0000 0.0000 29.0567
#
#
#
# Elastic Compliance Matrix: (Units=1/GPa)
#
#
# Indices 1 2 3 4 5 6 
#
# 1 0.020773 -0.005027 -0.003635 0.000000 0.000000 0.000000
# 2 -0.005027 0.020774 -0.003635 0.000000 0.000000 0.000000
# 3 -0.003635 -0.003635 0.008342 0.000000 0.000000 0.000000
# 4 0.000000 0.000000 0.000000 0.366312 0.000000 0.000000
# 5 0.000000 0.000000 0.000000 0.000000 0.366602 0.000000
# 6 0.000000 0.000000 0.000000 0.000000 0.000000 0.034415
#
#
# Mechanical properties :
#
#
# Convention : Reuss Voigt Hill
#
# Bulk Modulus (GPa) = 39.53267 49.73499 44.63383
# Shear Modulus (GPa) = 5.88066 18.81402 12.34734
#
# Velocity S-wave (km/s) = 1.66249 2.97363 2.40898
# Velocity P-wave (km/s) = 4.71861 5.93002 5.35866
#
# Compressibility (1/GPa) = 0.02529554
#
# Stress axis : x y z
#
# Youngs Moduli (GPa) = 48.13870 48.13821 119.87157
#
# Poissons Ratio (x) = 0.24198 0.43572
# Poissons Ratio (y) = 0.24199 0.43574
# Poissons Ratio (z) = 0.17498 0.17498
#
# Static dielectric constant tensor:
#      x y z
#    x 1.780180 0.000000 0.000000 
#    y 0.000000 1.780180 0.000000 
#    z 0.000000 0.000000 1.867520 
# 
# From -- ./inp_files/3830.got.cif
#   From: 2010.05.17/outbox.cif.g08.bks.cpg/sg94_2_cif.got.tgz:3830.got - 2010.06.03 19:43:16.
