data_PCOD9550753
_publ_section_title
;
Structure prediction by ZEFSAII (Michael W. Deem and Ramdas Pophale) SiO2 
 PCOD9550753
Probable space group: P 43 21 2
;
_chemical_formula_sum "Si O2"
_cell_formula_units_Z 48
_cell_length_a 23.153906
_cell_length_b 23.153906
_cell_length_c 5.385080
_cell_angle_alpha 90.000000
_cell_angle_beta 90.000000
_cell_angle_gamma 90.000000
_cell_volume 2886.959498
_symmetry_space_group_name_H-M "P 43 21 2"
_symmetry_group_IT_number 96
_symmetry_cell_setting 'tetragonal'
loop_
_space_group_symop_operation_xyz
x,y,z
1/2-y,1/2+x,3/4+z
-x,-y,1/2+z
1/2+y,1/2-x,1/4+z
1/2+x,1/2-y,1/4-z
1/2-x,1/2+y,3/4-z
y,x,-z
-y,-x,1/2-z
loop_
_atom_site_type_symbol
_atom_site_label
_atom_site_fract_x
_atom_site_fract_y
_atom_site_fract_z
Si Si1 0.554045 0.445956 0.250000
Si Si2 0.669196 0.766229 0.254205
Si Si3 0.542161 0.325081 0.098108
Si Si4 0.107531 0.197171 0.623899
Si Si5 0.297723 0.793266 0.005572
Si Si6 0.067290 0.932711 0.250000
Si Si7 0.580164 0.667929 0.371148
O O1 0.558608 0.393047 0.057721
O O2 0.488646 0.438347 0.331061
O O3 0.674078 0.805102 0.497637
O O4 0.732005 0.733115 0.249367
O O5 0.615897 0.723061 0.282338
O O6 0.666566 0.799105 0.995733
O O7 0.568370 0.313986 0.376408
O O8 0.569158 0.288468 0.870139
O O9 0.473338 0.319758 0.054108
O O10 0.147594 0.147594 0.500000
O O11 0.154688 0.244153 0.709565
O O12 0.127605 0.939182 0.392833
O O13 0.627493 0.627493 0.500000
#
# Coordination Sequence:
#
# PCOD9550753 Si02
#       7
#     4   8   8   8   8   4   8
#     4  12  22  36  48  62  86 140 200 226 266 294
#     4  10  20  33  57  81  97 120 167 235 285 327
#     4  12  26  36  51  75 104 147 178 236 280 320
#     4  12  22  37  55  74 107 129 184 233 276 331
#     4  10  19  34  56  82  92 125 165 237 281 317
#     4  12  24  38  50  64  94 138 192 258 262 306
#     4  12  24  38  53  74 106 140 187 236 286 329
#
# _framework density 16.62649
#
# number of rings (size 3 to 8) (size 9 to 14) (size 15 to 20)
#    0.000    0.667    6.667    4.000    2.333    0.000 
#    0.000    0.000    0.000    0.000    0.000    0.000 
#    0.000    0.000    0.000    0.000    0.000   46.667 
#
# Total GULP energy -267266.951964 kJ/mol
# GULP energy per Si atom -5568.061499 kJ/mol
# Density = 1.658865 g / cm^3
# Si number density = 16.626490 Si / 1000 Ang^3
#
#
#
# Elastic Constant Matrix: (Units=GPa)
#
#
# Indices 1 2 3 4 5 6 
#
# 1 49.7765 70.8588 45.5757 0.0000 0.0000 0.0000
# 2 70.8588 49.7772 45.5704 0.0000 0.0000 0.0000
# 3 45.5757 45.5704 154.7945 0.0000 0.0000 0.0000
# 4 0.0000 0.0000 0.0000 16.9836 0.0000 0.0000
# 5 0.0000 0.0000 0.0000 0.0000 16.9864 0.0000
# 6 0.0000 0.0000 0.0000 0.0000 0.0000 32.8699
#
#
#
# Elastic Compliance Matrix: (Units=1/GPa)
#
#
# Indices 1 2 3 4 5 6 
#
# 1 -0.018388 0.029047 -0.003138 0.000000 0.000000 0.000000
# 2 0.029047 -0.018386 -0.003140 0.000000 0.000000 0.000000
# 3 -0.003138 -0.003140 0.008308 0.000000 0.000000 0.000000
# 4 0.000000 0.000000 0.000000 0.058880 0.000000 0.000000
# 5 0.000000 0.000000 0.000000 0.000000 0.058871 0.000000
# 6 0.000000 0.000000 0.000000 0.000000 0.000000 0.030423
#
#
# Mechanical properties :
#
#
# Convention : Reuss Voigt Hill
#
# Bulk Modulus (GPa) = 58.56404 64.26199 61.41302
# Shear Modulus (GPa) = 62.60903 19.52419 41.06661
#
# Velocity S-wave (km/s) = 6.14312 3.43050 4.97525
# Velocity P-wave (km/s) = 9.25295 7.37735 8.36787
#
# Compressibility (1/GPa) = 0.01707532
#
# Stress axis : x y z
#
# Youngs Moduli (GPa) = -54.38462 -54.39041 120.36183
#
# Poissons Ratio (x) = 1.57990 0.37764
# Poissons Ratio (y) = 1.57973 0.37791
# Poissons Ratio (z) = -0.17063 -0.17077
#
# Static dielectric constant tensor:
#      x y z
#    x 1.722790 0.000000 0.000000 
#    y 0.000000 1.722820 0.000000 
#    z 0.000000 0.000000 1.675720 
# 
# From -- ./inp_files/673.got.cif
#   From: 2010.05.17/outbox.cif.g08.bks.cpg/sg96_1_cif.got.tgz:673.got - 2010.06.03 19:52:08.
