data_PCOD9550338
_publ_section_title
;
Structure prediction by ZEFSAII (Michael W. Deem and Ramdas Pophale) SiO2 
 PCOD9550338
Probable space group: P 42 21 2
;
_chemical_formula_sum "Si O2"
_cell_formula_units_Z 48
_cell_length_a 9.013788
_cell_length_b 9.013788
_cell_length_c 26.671367
_cell_angle_alpha 90.000000
_cell_angle_beta 90.000000
_cell_angle_gamma 90.000000
_cell_volume 2167.005204
_symmetry_space_group_name_H-M "P 42 21 2"
_symmetry_group_IT_number 94
_symmetry_cell_setting 'tetragonal'
loop_
_space_group_symop_operation_xyz
x,y,z
1/2-y,1/2+x,1/2+z
-x,-y,z
1/2+y,1/2-x,1/2+z
1/2+x,1/2-y,1/2-z
1/2-x,1/2+y,1/2-z
y,x,-z
-y,-x,-z
loop_
_atom_site_type_symbol
_atom_site_label
_atom_site_fract_x
_atom_site_fract_y
_atom_site_fract_z
Si Si1 0.596542 0.147456 0.194507
Si Si2 0.123551 0.899844 0.265345
Si Si3 0.826841 0.508783 0.472881
Si Si4 0.227249 0.793338 0.901223
Si Si5 0.381453 0.728888 0.420558
Si Si6 0.972997 0.174254 0.624720
O O1 0.733500 0.140902 0.233447
O O2 0.473892 0.266207 0.212181
O O3 0.678382 0.175453 0.141739
O O4 0.500000 0.000000 0.191802
O O5 0.178653 0.986345 0.315072
O O6 0.000000 0.000000 0.237504
O O7 0.767532 0.665728 0.453489
O O8 0.714274 0.407290 0.440720
O O9 0.807038 0.450478 0.529591
O O10 0.000000 0.500000 0.460086
O O11 0.402844 0.774743 0.900407
O O12 0.189879 0.966373 0.891420
O O13 0.258752 0.823829 0.390938
O O14 0.000000 0.000000 0.610635
#
# Coordination Sequence:
#
# PCOD9550338 Si02
#       6
#     8   8   8   8   8   8
#     4  12  27  44  74 108 144 193 236 305 369 436
#     4  11  25  48  70 105 148 188 246 298 360 445
#     4  11  24  46  69 104 146 182 244 302 360 445
#     4  12  24  43  69 102 144 187 236 296 366 433
#     4  11  26  43  73 105 139 193 240 301 371 431
#     4  11  23  45  70 100 143 191 246 298 359 437
#
# _framework density 22.150385
#
# number of rings (size 3 to 8) (size 9 to 14) (size 15 to 20)
#    0.000    0.667    3.333    5.000    4.667    2.667 
#    0.000    5.000    0.000    0.000    0.000    0.000 
#    0.000    0.000    0.000    0.000    0.000    0.000 
#
# Total GULP energy -267986.561792 kJ/mol
# GULP energy per Si atom -5583.053371 kJ/mol
# Density = 2.209997 g / cm^3
# Si number density = 22.150385 Si / 1000 Ang^3
#
#
#
# Elastic Constant Matrix: (Units=GPa)
#
#
# Indices 1 2 3 4 5 6 
#
# 1 112.4327 18.9333 29.9373 0.0000 0.0000 0.0000
# 2 18.9333 112.4327 29.9373 0.0000 0.0000 0.0000
# 3 29.9373 29.9373 69.3774 0.0000 0.0000 0.0000
# 4 0.0000 0.0000 0.0000 27.6530 0.0000 0.0000
# 5 0.0000 0.0000 0.0000 0.0000 27.6530 0.0000
# 6 0.0000 0.0000 0.0000 0.0000 0.0000 42.2064
#
#
#
# Elastic Compliance Matrix: (Units=1/GPa)
#
#
# Indices 1 2 3 4 5 6 
#
# 1 0.010086 -0.000610 -0.004089 0.000000 0.000000 0.000000
# 2 -0.000610 0.010086 -0.004089 0.000000 0.000000 0.000000
# 3 -0.004089 -0.004089 0.017943 0.000000 0.000000 0.000000
# 4 0.000000 0.000000 0.000000 0.036162 0.000000 0.000000
# 5 0.000000 0.000000 0.000000 0.000000 0.036162 0.000000
# 6 0.000000 0.000000 0.000000 0.000000 0.000000 0.023693
#
#
# Mechanical properties :
#
#
# Convention : Reuss Voigt Hill
#
# Bulk Modulus (GPa) = 48.68838 50.20651 49.44744
# Shear Modulus (GPa) = 31.53501 33.86478 32.69989
#
# Velocity S-wave (km/s) = 3.77726 3.91430 3.84639
# Velocity P-wave (km/s) = 6.40719 6.56844 6.48832
#
# Compressibility (1/GPa) = 0.02053878
#
# Stress axis : x y z
#
# Youngs Moduli (GPa) = 99.15075 99.15075 55.73244
#
# Poissons Ratio (x) = 0.06044 0.22789
# Poissons Ratio (y) = 0.06044 0.22789
# Poissons Ratio (z) = 0.40543 0.40543
#
# Static dielectric constant tensor:
#      x y z
#    x 1.875060 0.000000 0.000000 
#    y 0.000000 1.875060 0.000000 
#    z 0.000000 0.000000 1.807870 
# 
# From -- ./inp_files/5552.got.cif
#   From: 2010.05.17/outbox.cif.g08.bks.cpg/sg94_3_cif.got.tgz:5552.got - 2010.06.03 19:43:16.
