data_PCOD9550726
_publ_section_title
;
Structure prediction by ZEFSAII (Michael W. Deem and Ramdas Pophale) SiO2 
 PCOD9550726
Probable space group: P 43 21 2
;
_chemical_formula_sum "Si O2"
_cell_formula_units_Z 56
_cell_length_a 12.296772
_cell_length_b 12.296772
_cell_length_c 19.742153
_cell_angle_alpha 90.000000
_cell_angle_beta 90.000000
_cell_angle_gamma 90.000000
_cell_volume 2985.222832
_symmetry_space_group_name_H-M "P 43 21 2"
_symmetry_group_IT_number 96
_symmetry_cell_setting 'tetragonal'
loop_
_space_group_symop_operation_xyz
x,y,z
1/2-y,1/2+x,3/4+z
-x,-y,1/2+z
1/2+y,1/2-x,1/4+z
1/2+x,1/2-y,1/4-z
1/2-x,1/2+y,3/4-z
y,x,-z
-y,-x,1/2-z
loop_
_atom_site_type_symbol
_atom_site_label
_atom_site_fract_x
_atom_site_fract_y
_atom_site_fract_z
Si Si1 0.119455 0.364929 0.466448
Si Si2 0.880903 0.038711 0.906246
Si Si3 0.816318 0.244212 0.850537
Si Si4 0.176794 0.078326 0.762476
Si Si5 0.426814 0.403844 0.889065
Si Si6 0.883429 0.264864 0.468633
Si Si7 0.227346 0.580338 0.445640
O O1 0.176750 0.338467 0.538002
O O2 0.195976 0.304970 0.411424
O O3 0.135917 0.492995 0.459633
O O4 0.997944 0.326209 0.459118
O O5 0.894012 0.139830 0.854468
O O6 0.794834 0.960802 0.869376
O O7 0.819932 0.088230 0.970815
O O8 0.990534 0.969567 0.910663
O O9 0.822646 0.307821 0.920619
O O10 0.291730 0.142732 0.768479
O O11 0.095900 0.181720 0.752912
O O12 0.155932 0.003663 0.695387
O O13 0.145608 0.995373 0.822846
O O14 0.363137 0.312331 0.846616
#
# Coordination Sequence:
#
# PCOD9550726 Si02
#       7
#     8   8   8   8   8   8   8
#     4  10  21  30  53  92 116 144 188 243 301 336
#     4  10  19  33  60  90 117 147 188 241 299 354
#     4  10  18  32  53  84 123 147 181 240 292 355
#     4  10  22  43  60  82 117 166 204 234 297 367
#     4  10  23  40  63  84 119 162 196 242 303 357
#     4  12  22  35  63  90 116 152 201 248 290 354
#     4  10  18  34  56  83 117 151 184 238 298 350
#
# _framework density 18.759069
#
# number of rings (size 3 to 8) (size 9 to 14) (size 15 to 20)
#    0.000    1.714    2.857    3.000    4.000    3.429 
#    0.000    4.286    6.286    0.000    0.000    0.000 
#    0.000    0.000    0.000    0.000    0.000    0.000 
#
# Total GULP energy -311891.318122 kJ/mol
# GULP energy per Si atom -5569.487824 kJ/mol
# Density = 1.871637 g / cm^3
# Si number density = 18.759069 Si / 1000 Ang^3
#
#
#
# Elastic Constant Matrix: (Units=GPa)
#
#
# Indices 1 2 3 4 5 6 
#
# 1 92.3353 45.3216 31.2009 0.0000 0.0000 0.0000
# 2 45.3216 92.3353 31.2009 0.0000 0.0000 0.0000
# 3 31.2009 31.2009 44.9426 0.0000 0.0000 0.0000
# 4 0.0000 0.0000 0.0000 19.2502 0.0000 0.0000
# 5 0.0000 0.0000 0.0000 0.0000 19.2502 0.0000
# 6 0.0000 0.0000 0.0000 0.0000 0.0000 35.7083
#
#
#
# Elastic Compliance Matrix: (Units=1/GPa)
#
#
# Indices 1 2 3 4 5 6 
#
# 1 0.015935 -0.005335 -0.007359 0.000000 0.000000 0.000000
# 2 -0.005335 0.015935 -0.007359 0.000000 0.000000 0.000000
# 3 -0.007359 -0.007359 0.032469 0.000000 0.000000 0.000000
# 4 0.000000 0.000000 0.000000 0.051947 0.000000 0.000000
# 5 0.000000 0.000000 0.000000 0.000000 0.051947 0.000000
# 6 0.000000 0.000000 0.000000 0.000000 0.000000 0.028005
#
#
# Mechanical properties :
#
#
# Convention : Reuss Voigt Hill
#
# Bulk Modulus (GPa) = 41.26660 49.45114 45.35887
# Shear Modulus (GPa) = 20.45626 22.96773 21.71200
#
# Velocity S-wave (km/s) = 3.30581 3.50287 3.40577
# Velocity P-wave (km/s) = 6.05121 6.54053 6.30062
#
# Compressibility (1/GPa) = 0.02423267
#
# Stress axis : x y z
#
# Youngs Moduli (GPa) = 62.75320 62.75320 30.79875
#
# Poissons Ratio (x) = 0.33478 0.22666
# Poissons Ratio (y) = 0.33478 0.22666
# Poissons Ratio (z) = 0.46182 0.46182
#
# Static dielectric constant tensor:
#      x y z
#    x 1.664900 0.000000 0.000000 
#    y 0.000000 1.664900 0.000000 
#    z 0.000000 0.000000 1.725040 
# 
# From -- ./inp_files/3536.got.cif
#   From: 2010.05.17/outbox.cif.g08.bks.cpg/sg96_2_cif.got.tgz:3536.got - 2010.06.03 19:52:08.
