data_PCOD9550620
_publ_section_title
;
Structure prediction by ZEFSAII (Michael W. Deem and Ramdas Pophale) SiO2 
 PCOD9550620
Probable space group: P 43 2 2
;
_chemical_formula_sum "Si O2"
_cell_formula_units_Z 48
_cell_length_a 11.910005
_cell_length_b 11.910005
_cell_length_c 18.148226
_cell_angle_alpha 90.000000
_cell_angle_beta 90.000000
_cell_angle_gamma 90.000000
_cell_volume 2574.293538
_symmetry_space_group_name_H-M "P 43 2 2"
_symmetry_group_IT_number 95
_symmetry_cell_setting 'tetragonal'
loop_
_space_group_symop_operation_xyz
x,y,z
-y,x,3/4+z
-x,-y,1/2+z
y,-x,1/4+z
x,-y,1/2-z
-x,y,-z
y,x,1/4-z
-y,-x,3/4-z
loop_
_atom_site_type_symbol
_atom_site_label
_atom_site_fract_x
_atom_site_fract_y
_atom_site_fract_z
Si Si1 0.988525 0.301742 0.173654
Si Si2 0.829838 0.448732 0.902297
Si Si3 0.661003 0.787949 0.809056
Si Si4 0.539535 0.395475 0.084284
Si Si5 0.053016 0.895300 0.078615
Si Si6 0.318611 0.097438 0.925270
O O1 0.885348 0.341548 0.120969
O O2 0.963616 0.169369 0.176212
O O3 0.101217 0.347689 0.135090
O O4 0.008837 0.337713 0.258724
O O5 0.703475 0.471309 0.875246
O O6 0.883469 0.565279 0.869805
O O7 0.825220 0.412040 0.988086
O O8 0.615212 0.671910 0.840363
O O9 0.788757 0.742021 0.790701
O O10 0.507648 0.507648 0.125000
O O11 0.500000 0.392685 0.000000
O O12 0.063736 0.775877 0.117548
O O13 0.969836 0.969836 0.125000
O O14 0.000000 0.878487 0.000000
#
# Coordination Sequence:
#
# PCOD9550620 Si02
#       6
#     8   8   8   8   8   8
#     4  11  23  38  63  94 132 162 212 272 323 383
#     4  11  22  39  65  93 130 164 213 269 332 381
#     4  10  23  40  63 101 126 165 219 271 323 393
#     4  11  21  39  67  94 127 165 214 270 324 388
#     4  11  23  40  64  92 129 170 217 262 319 392
#     4  10  23  41  64  94 130 174 213 265 335 389
#
# _framework density 18.645892
#
# number of rings (size 3 to 8) (size 9 to 14) (size 15 to 20)
#    0.000    1.333    3.333    3.000    2.333    1.333 
#    0.000    1.667    0.000    0.000    0.000    0.000 
#    0.000    0.000    0.000    0.000    0.000    0.000 
#
# Total GULP energy -267246.813704 kJ/mol
# GULP energy per Si atom -5567.641952 kJ/mol
# Density = 1.860345 g / cm^3
# Si number density = 18.645892 Si / 1000 Ang^3
#
#
#
# Elastic Constant Matrix: (Units=GPa)
#
#
# Indices 1 2 3 4 5 6 
#
# 1 43.2670 40.2311 58.0490 0.0000 0.0000 0.0000
# 2 40.2311 43.2670 58.0490 0.0000 0.0000 0.0000
# 3 58.0490 58.0490 140.5518 0.0000 0.0000 0.0000
# 4 0.0000 0.0000 0.0000 19.5309 0.0000 0.0000
# 5 0.0000 0.0000 0.0000 0.0000 19.5309 0.0000
# 6 0.0000 0.0000 0.0000 0.0000 0.0000 16.0263
#
#
#
# Elastic Compliance Matrix: (Units=1/GPa)
#
#
# Indices 1 2 3 4 5 6 
#
# 1 0.178766 -0.150635 -0.011618 0.000000 0.000000 0.000000
# 2 -0.150635 0.178766 -0.011618 0.000000 0.000000 0.000000
# 3 -0.011618 -0.011618 0.016712 0.000000 0.000000 0.000000
# 4 0.000000 0.000000 0.000000 0.051201 0.000000 0.000000
# 5 0.000000 0.000000 0.000000 0.000000 0.051201 0.000000
# 6 0.000000 0.000000 0.000000 0.000000 0.000000 0.062397
#
#
# Mechanical properties :
#
#
# Convention : Reuss Voigt Hill
#
# Bulk Modulus (GPa) = 37.73577 59.97158 48.85368
# Shear Modulus (GPa) = 5.58273 15.73473 10.65873
#
# Velocity S-wave (km/s) = 1.73222 2.90810 2.39349
# Velocity P-wave (km/s) = 4.92776 6.59616 5.82203
#
# Compressibility (1/GPa) = 0.02650005
#
# Stress axis : x y z
#
# Youngs Moduli (GPa) = 5.59391 5.59391 59.83882
#
# Poissons Ratio (x) = 0.84264 0.69521
# Poissons Ratio (y) = 0.84264 0.69521
# Poissons Ratio (z) = 0.06499 0.06499
#
# Static dielectric constant tensor:
#      x y z
#    x 1.856160 0.000000 0.000000 
#    y 0.000000 1.856160 0.000000 
#    z 0.000000 0.000000 1.639580 
# 
# From -- ./inp_files/5678.got.cif
#   From: 2010.05.17/outbox.cif.g08.bks.cpg/sg95_3_cif.got.tgz:5678.got - 2010.06.03 19:46:49.
