data_PCOD9550000
_publ_section_title
;
Structure prediction by ZEFSAII (Michael W. Deem and Ramdas Pophale) SiO2 
 PCOD9550000
Probable space group: P 42 21 2
;
_chemical_formula_sum "Si O2"
_cell_formula_units_Z 56
_cell_length_a 23.036465
_cell_length_b 23.036465
_cell_length_c 6.320827
_cell_angle_alpha 90.000000
_cell_angle_beta 90.000000
_cell_angle_gamma 90.000000
_cell_volume 3354.328380
_symmetry_space_group_name_H-M "P 42 21 2"
_symmetry_group_IT_number 94
_symmetry_cell_setting 'tetragonal'
loop_
_space_group_symop_operation_xyz
x,y,z
1/2-y,1/2+x,1/2+z
-x,-y,z
1/2+y,1/2-x,1/2+z
1/2+x,1/2-y,1/2-z
1/2-x,1/2+y,1/2-z
y,x,-z
-y,-x,-z
loop_
_atom_site_type_symbol
_atom_site_label
_atom_site_fract_x
_atom_site_fract_y
_atom_site_fract_z
Si Si1 0.356806 0.999039 0.822720
Si Si2 0.218215 0.646623 0.033701
Si Si3 0.094557 0.607504 0.864953
Si Si4 0.777277 0.687215 0.912866
Si Si5 0.056599 0.708133 0.555346
Si Si6 0.958903 0.735763 0.855926
Si Si7 0.862986 0.776453 0.114132
O O1 0.401625 0.042420 0.716706
O O2 0.309269 0.981210 0.648050
O O3 0.323666 0.030686 0.015162
O O4 0.385519 0.942451 0.922675
O O5 0.159071 0.629169 0.916247
O O6 0.270125 0.647578 0.863650
O O7 0.203319 0.704371 0.171070
O O8 0.230629 0.592663 0.187574
O O9 0.069051 0.649166 0.685116
O O10 0.771565 0.619451 0.969294
O O11 0.721779 0.721779 0.000000
O O12 0.831265 0.717404 0.033518
O O13 0.018123 0.746246 0.721343
O O14 0.929517 0.776912 0.034659
O O15 0.827581 0.827581 0.000000
#
# Coordination Sequence:
#
# PCOD9550000 Si02
#       7
#     8   8   8   8   8   8   8
#     4  11  22  35  53  70  95 138 185 232 272 312
#     4  11  18  36  56  72 102 135 173 223 262 326
#     4  11  21  34  53  69  95 134 190 225 277 310
#     4  10  21  32  50  79 106 135 177 217 272 329
#     4  11  20  35  53  71  99 139 177 224 272 317
#     4  10  20  32  55  73  97 135 176 215 268 327
#     4  10  20  34  52  81 105 132 174 220 275 322
#
# _framework density 16.694845999999998
#
# number of rings (size 3 to 8) (size 9 to 14) (size 15 to 20)
#    0.000    1.429    5.714    0.857    0.000    5.143 
#    0.000    2.143    0.000    0.000    0.000    0.000 
#    0.000    0.000    0.000   18.000    0.000    0.143 
#
# Total GULP energy -311819.440221 kJ/mol
# GULP energy per Si atom -5568.204290 kJ/mol
# Density = 1.665685 g / cm^3
# Si number density = 16.694846 Si / 1000 Ang^3
#
#
#
# Elastic Constant Matrix: (Units=GPa)
#
#
# Indices 1 2 3 4 5 6 
#
# 1 51.1192 26.2809 25.0170 0.0000 0.0000 0.0000
# 2 26.2809 51.1192 25.0170 0.0000 0.0000 0.0000
# 3 25.0170 25.0170 85.2615 0.0000 0.0000 0.0000
# 4 0.0000 0.0000 0.0000 23.1332 0.0000 0.0000
# 5 0.0000 0.0000 0.0000 0.0000 23.1332 0.0000
# 6 0.0000 0.0000 0.0000 0.0000 0.0000 21.1741
#
#
#
# Elastic Compliance Matrix: (Units=1/GPa)
#
#
# Indices 1 2 3 4 5 6 
#
# 1 0.028102 -0.012158 -0.004678 0.000000 0.000000 0.000000
# 2 -0.012158 0.028102 -0.004678 0.000000 0.000000 0.000000
# 3 -0.004678 -0.004678 0.014474 0.000000 0.000000 0.000000
# 4 0.000000 0.000000 0.000000 0.043228 0.000000 0.000000
# 5 0.000000 0.000000 0.000000 0.000000 0.043228 0.000000
# 6 0.000000 0.000000 0.000000 0.000000 0.000000 0.047228
#
#
# Mechanical properties :
#
#
# Convention : Reuss Voigt Hill
#
# Bulk Modulus (GPa) = 36.16748 37.79218 36.97983
# Shear Modulus (GPa) = 19.48502 20.90044 20.19273
#
# Velocity S-wave (km/s) = 3.42003 3.54207 3.48159
# Velocity P-wave (km/s) = 6.10789 6.27810 6.19358
#
# Compressibility (1/GPa) = 0.02764915
#
# Stress axis : x y z
#
# Youngs Moduli (GPa) = 35.58438 35.58438 69.08968
#
# Poissons Ratio (x) = 0.43264 0.32322
# Poissons Ratio (y) = 0.43264 0.32322
# Poissons Ratio (z) = 0.16647 0.16647
#
# Static dielectric constant tensor:
#      x y z
#    x 1.570580 0.000000 0.000000 
#    y 0.000000 1.570580 0.000000 
#    z 0.000000 0.000000 1.686620 
# 
# From -- ./inp_files/632.got.cif
#   From: 2010.05.17/outbox.cif.g08.bks.cpg/sg94_1_cif.got.tgz:632.got - 2010.06.03 19:43:16.
