data_PCOD9550881
_publ_section_title
;
Structure prediction by ZEFSAII (Michael W. Deem and Ramdas Pophale) SiO2 
 PCOD9550881
Probable space group: P 43 21 2
;
_chemical_formula_sum "Si O2"
_cell_formula_units_Z 56
_cell_length_a 11.816845
_cell_length_b 11.816845
_cell_length_c 15.549793
_cell_angle_alpha 90.000000
_cell_angle_beta 90.000000
_cell_angle_gamma 90.000000
_cell_volume 2171.339285
_symmetry_space_group_name_H-M "P 43 21 2"
_symmetry_group_IT_number 96
_symmetry_cell_setting 'tetragonal'
loop_
_space_group_symop_operation_xyz
x,y,z
1/2-y,1/2+x,3/4+z
-x,-y,1/2+z
1/2+y,1/2-x,1/4+z
1/2+x,1/2-y,1/4-z
1/2-x,1/2+y,3/4-z
y,x,-z
-y,-x,1/2-z
loop_
_atom_site_type_symbol
_atom_site_label
_atom_site_fract_x
_atom_site_fract_y
_atom_site_fract_z
Si Si1 0.070949 0.681039 0.510141
Si Si2 0.194661 0.034769 0.242936
Si Si3 0.479615 0.649017 0.184260
Si Si4 0.416998 0.014204 0.677700
Si Si5 0.692832 0.133202 0.043124
Si Si6 0.633902 0.842053 0.920447
Si Si7 0.677195 0.397666 0.344984
O O1 0.968725 0.589783 0.517948
O O2 0.082815 0.722133 0.412781
O O3 0.024367 0.770746 0.579830
O O4 0.194177 0.620304 0.516380
O O5 0.127641 0.021381 0.332374
O O6 0.265523 0.917937 0.243549
O O7 0.115745 0.079991 0.166285
O O8 0.450195 0.549806 0.250000
O O9 0.587599 0.710207 0.230048
O O10 0.373509 0.737383 0.182016
O O11 0.330794 0.090591 0.730638
O O12 0.356046 0.976661 0.591667
O O13 0.531732 0.082254 0.658784
O O14 0.688253 0.225055 0.118704
O O15 0.640926 0.359074 0.250000
#
# Coordination Sequence:
#
# PCOD9550881 Si02
#       7
#     8   8   8   8   8   8   8
#     4   9  17  32  53  82 118 145 179 231 285 349
#     4  10  21  36  56  85 118 155 186 232 291 354
#     4  10  23  36  52  84 116 151 195 233 287 348
#     4   9  16  29  50  84 107 138 173 225 306 350
#     4  10  21  31  56  82 116 150 183 242 291 350
#     4   9  16  32  55  78 113 146 178 230 290 351
#     4  11  22  35  57  90 118 150 194 238 296 348
#
# _framework density 25.790531000000001
#
# number of rings (size 3 to 8) (size 9 to 14) (size 15 to 20)
#    0.000    2.286    2.857    0.000    8.000    0.000 
#    0.000    0.000    0.000    0.857    3.714    0.000 
#    0.000    0.000    0.000    0.000    0.000    0.000 
#
# Total GULP energy -312030.221814 kJ/mol
# GULP energy per Si atom -5571.968247 kJ/mol
# Density = 2.573183 g / cm^3
# Si number density = 25.790531 Si / 1000 Ang^3
#
#
#
# Elastic Constant Matrix: (Units=GPa)
#
#
# Indices 1 2 3 4 5 6 
#
# 1 52.0702 59.3397 47.1052 0.0000 0.0000 0.0000
# 2 59.3397 52.0701 47.1047 0.0000 0.0000 0.0000
# 3 47.1052 47.1047 155.6010 0.0000 0.0000 0.0000
# 4 0.0000 0.0000 0.0000 23.0827 0.0000 0.0000
# 5 0.0000 0.0000 0.0000 0.0000 23.0827 0.0000
# 6 0.0000 0.0000 0.0000 0.0000 0.0000 47.2126
#
#
#
# Elastic Compliance Matrix: (Units=1/GPa)
#
#
# Indices 1 2 3 4 5 6 
#
# 1 -0.062749 0.074813 -0.003652 0.000000 0.000000 0.000000
# 2 0.074813 -0.062748 -0.003652 0.000000 0.000000 0.000000
# 3 -0.003652 -0.003652 0.008638 0.000000 0.000000 0.000000
# 4 0.000000 0.000000 0.000000 0.043323 0.000000 0.000000
# 5 0.000000 0.000000 0.000000 0.000000 0.043323 0.000000
# 6 0.000000 0.000000 0.000000 0.000000 0.000000 0.021181
#
#
# Mechanical properties :
#
#
# Convention : Reuss Voigt Hill
#
# Bulk Modulus (GPa) = 55.07329 62.98226 59.02777
# Shear Modulus (GPa) = -36.23267 25.75505 -5.23881
#
# Velocity S-wave (km/s) = -3.75224 3.16353 -1.42678
# Velocity P-wave (km/s) = 1.62111 6.14960 4.49698
#
# Compressibility (1/GPa) = 0.01815762
#
# Stress axis : x y z
#
# Youngs Moduli (GPa) = -15.93663 -15.93670 115.76834
#
# Poissons Ratio (x) = 1.19227 0.42278
# Poissons Ratio (y) = 1.19226 0.42284
# Poissons Ratio (z) = -0.05820 -0.05821
#
# Static dielectric constant tensor:
#      x y z
#    x 2.119930 0.000000 0.000000 
#    y 0.000000 2.119930 0.000000 
#    z 0.000000 0.000000 2.156850 
# 
# From -- ./inp_files/2762.got.cif
#   From: 2010.05.17/outbox.cif.g08.bks.cpg/sg96_2_cif.got.tgz:2762.got - 2010.06.03 19:52:08.
