data_PCOD9550136
_publ_section_title
;
Structure prediction by ZEFSAII (Michael W. Deem and Ramdas Pophale) SiO2 
 PCOD9550136
Probable space group: P 42 21 2
;
_chemical_formula_sum "Si O2"
_cell_formula_units_Z 40
_cell_length_a 8.691628
_cell_length_b 8.691628
_cell_length_c 22.610974
_cell_angle_alpha 90.000000
_cell_angle_beta 90.000000
_cell_angle_gamma 90.000000
_cell_volume 1708.132403
_symmetry_space_group_name_H-M "P 42 21 2"
_symmetry_group_IT_number 94
_symmetry_cell_setting 'tetragonal'
loop_
_space_group_symop_operation_xyz
x,y,z
1/2-y,1/2+x,1/2+z
-x,-y,z
1/2+y,1/2-x,1/2+z
1/2+x,1/2-y,1/2-z
1/2-x,1/2+y,1/2-z
y,x,-z
-y,-x,-z
loop_
_atom_site_type_symbol
_atom_site_label
_atom_site_fract_x
_atom_site_fract_y
_atom_site_fract_z
Si Si1 0.162488 0.415397 0.354004
Si Si2 0.170470 0.048967 0.561439
Si Si3 0.119640 0.870115 0.255379
Si Si4 0.085357 0.338139 0.170424
Si Si5 0.335131 0.715025 0.563618
O O1 0.133567 0.250123 0.383434
O O2 0.262185 0.423328 0.295403
O O3 0.253854 0.507490 0.403389
O O4 0.000000 0.500000 0.343750
O O5 0.146617 0.146617 0.500000
O O6 0.262442 0.887459 0.553380
O O7 0.000000 0.000000 0.577779
O O8 0.236439 0.829936 0.307647
O O9 0.015014 0.745811 0.221297
O O10 0.000000 0.000000 0.273676
O O11 0.102563 0.260909 0.106338
O O12 0.000000 0.500000 0.163883
O O13 0.355414 0.644587 0.500000
#
# Coordination Sequence:
#
# PCOD9550136 Si02
#       5
#     8   8   8   8   8
#     4  10  24  44  74 101 150 198 241 316 389 445
#     4  10  21  41  69 106 142 193 252 308 371 446
#     4  12  26  51  73 109 151 193 258 319 387 460
#     4  12  29  46  78 113 151 203 264 320 389 461
#     4  11  24  46  70 109 157 193 253 310 381 466
#
# _framework density 23.417387999999999
#
# number of rings (size 3 to 8) (size 9 to 14) (size 15 to 20)
#    0.000    1.000    4.000    1.800    8.400    4.800 
#    0.000    1.000    0.000    0.000    0.000    0.000 
#    0.000    0.000    0.000    0.000    0.000    0.000 
#
# Total GULP energy -223835.664596 kJ/mol
# GULP energy per Si atom -5595.891615 kJ/mol
# Density = 2.336409 g / cm^3
# Si number density = 23.417388 Si / 1000 Ang^3
#
#
#
# Elastic Constant Matrix: (Units=GPa)
#
#
# Indices 1 2 3 4 5 6 
#
# 1 80.0275 17.0608 27.7930 0.0000 0.0000 0.0000
# 2 17.0608 80.0279 27.7933 0.0000 0.0000 0.0000
# 3 27.7930 27.7933 122.5932 0.0000 0.0000 0.0000
# 4 0.0000 0.0000 0.0000 21.2222 0.0000 0.0000
# 5 0.0000 0.0000 0.0000 0.0000 21.2190 0.0000
# 6 0.0000 0.0000 0.0000 0.0000 0.0000 37.2473
#
#
#
# Elastic Compliance Matrix: (Units=1/GPa)
#
#
# Indices 1 2 3 4 5 6 
#
# 1 0.013859 -0.002023 -0.002683 0.000000 0.000000 0.000000
# 2 -0.002023 0.013859 -0.002683 0.000000 0.000000 0.000000
# 3 -0.002683 -0.002683 0.009374 0.000000 0.000000 0.000000
# 4 0.000000 0.000000 0.000000 0.047121 0.000000 0.000000
# 5 0.000000 0.000000 0.000000 0.000000 0.047128 0.000000
# 6 0.000000 0.000000 0.000000 0.000000 0.000000 0.026848
#
#
# Mechanical properties :
#
#
# Convention : Reuss Voigt Hill
#
# Bulk Modulus (GPa) = 44.81772 47.54922 46.18347
# Shear Modulus (GPa) = 27.71569 29.93780 28.82674
#
# Velocity S-wave (km/s) = 3.44401 3.57941 3.51236
# Velocity P-wave (km/s) = 5.91567 6.11818 6.01777
#
# Compressibility (1/GPa) = 0.02231261
#
# Stress axis : x y z
#
# Youngs Moduli (GPa) = 72.15626 72.15655 106.68076
#
# Poissons Ratio (x) = 0.14594 0.28627
# Poissons Ratio (y) = 0.14594 0.28627
# Poissons Ratio (z) = 0.19362 0.19362
#
# Static dielectric constant tensor:
#      x y z
#    x 2.019400 0.000000 0.000000 
#    y 0.000000 2.019460 0.000000 
#    z 0.000000 0.000000 1.876580 
# 
# From -- ./inp_files/4968.got.cif
#   From: 2010.05.17/outbox.cif.g08.bks.cpg/sg94_3_cif.got.tgz:4968.got - 2010.06.03 19:43:16.
