data_PCOD9550307
_publ_section_title
;
Structure prediction by ZEFSAII (Michael W. Deem and Ramdas Pophale) SiO2 
 PCOD9550307
Probable space group: P 42 21 2
;
_chemical_formula_sum "Si O2"
_cell_formula_units_Z 24
_cell_length_a 7.769595
_cell_length_b 7.769595
_cell_length_c 17.575910
_cell_angle_alpha 90.000000
_cell_angle_beta 90.000000
_cell_angle_gamma 90.000000
_cell_volume 1060.998042
_symmetry_space_group_name_H-M "P 42 21 2"
_symmetry_group_IT_number 94
_symmetry_cell_setting 'tetragonal'
loop_
_space_group_symop_operation_xyz
x,y,z
1/2-y,1/2+x,1/2+z
-x,-y,z
1/2+y,1/2-x,1/2+z
1/2+x,1/2-y,1/2-z
1/2-x,1/2+y,1/2-z
y,x,-z
-y,-x,-z
loop_
_atom_site_type_symbol
_atom_site_label
_atom_site_fract_x
_atom_site_fract_y
_atom_site_fract_z
Si Si1 0.625357 0.299532 0.413114
Si Si2 0.833793 0.216721 0.842342
Si Si3 0.684043 0.581243 0.823970
O O1 0.648352 0.351649 0.500000
O O2 0.429170 0.247999 0.395953
O O3 0.679526 0.465391 0.361145
O O4 0.768756 0.167052 0.386006
O O5 0.799056 0.419353 0.850512
O O6 0.772417 0.164937 0.757668
O O7 0.500000 0.500000 0.810820
#
# Coordination Sequence:
#
# PCOD9550307 Si02
#       3
#     8   8   8
#     4  11  25  47  68  98 141 185 232 290 355 411
#     4  11  21  44  73  95 135 185 229 284 345 423
#     4  12  23  41  70 103 135 177 237 285 343 424
#
# _framework density 22.620211000000001
#
# number of rings (size 3 to 8) (size 9 to 14) (size 15 to 20)
#    0.000    0.667    6.667    3.000    0.000    2.000 
#   18.000    0.000    0.000    0.000    0.000    0.000 
#    0.000    0.000    0.000    0.000    0.000    0.000 
#
# Total GULP energy -133976.536159 kJ/mol
# GULP energy per Si atom -5582.355673 kJ/mol
# Density = 2.256873 g / cm^3
# Si number density = 22.620211 Si / 1000 Ang^3
#
#
#
# Elastic Constant Matrix: (Units=GPa)
#
#
# Indices 1 2 3 4 5 6 
#
# 1 51.7746 6.4933 22.2283 0.0000 0.0000 0.0000
# 2 6.4933 51.7741 22.2284 0.0000 0.0000 0.0000
# 3 22.2283 22.2284 140.2429 0.0000 0.0000 0.0000
# 4 0.0000 0.0000 0.0000 23.0181 0.0000 0.0000
# 5 0.0000 0.0000 0.0000 0.0000 23.0175 0.0000
# 6 0.0000 0.0000 0.0000 0.0000 0.0000 31.0195
#
#
#
# Elastic Compliance Matrix: (Units=1/GPa)
#
#
# Indices 1 2 3 4 5 6 
#
# 1 0.020804 -0.001281 -0.003094 0.000000 0.000000 0.000000
# 2 -0.001281 0.020804 -0.003094 0.000000 0.000000 0.000000
# 3 -0.003094 -0.003094 0.008111 0.000000 0.000000 0.000000
# 4 0.000000 0.000000 0.000000 0.043444 0.000000 0.000000
# 5 0.000000 0.000000 0.000000 0.000000 0.043445 0.000000
# 6 0.000000 0.000000 0.000000 0.000000 0.000000 0.032238
#
#
# Mechanical properties :
#
#
# Convention : Reuss Voigt Hill
#
# Bulk Modulus (GPa) = 28.75210 38.41017 33.58113
# Shear Modulus (GPa) = 25.59141 28.26711 26.92926
#
# Velocity S-wave (km/s) = 3.36721 3.53886 3.45410
# Velocity P-wave (km/s) = 5.27786 5.80649 5.54848
#
# Compressibility (1/GPa) = 0.03478007
#
# Stress axis : x y z
#
# Youngs Moduli (GPa) = 48.06861 48.06804 123.28326
#
# Poissons Ratio (x) = 0.06156 0.38148
# Poissons Ratio (y) = 0.06156 0.38149
# Poissons Ratio (z) = 0.14874 0.14874
#
# Static dielectric constant tensor:
#      x y z
#    x 1.962580 0.000000 0.000000 
#    y 0.000000 1.962580 0.000000 
#    z 0.000000 0.000000 1.788520 
# 
# From -- ./inp_files/3060.got.cif
#   From: 2010.05.17/outbox.cif.g08.bks.cpg/sg94_2_cif.got.tgz:3060.got - 2010.06.03 19:43:16.
