data_PCOD9550645
_publ_section_title
;
Structure prediction by ZEFSAII (Michael W. Deem and Ramdas Pophale) SiO2 
 PCOD9550645
Probable space group: P 43 2 2
;
_chemical_formula_sum "Si O2"
_cell_formula_units_Z 24
_cell_length_a 10.446204
_cell_length_b 10.446204
_cell_length_c 9.592428
_cell_angle_alpha 90.000000
_cell_angle_beta 90.000000
_cell_angle_gamma 90.000000
_cell_volume 1046.756228
_symmetry_space_group_name_H-M "P 43 2 2"
_symmetry_group_IT_number 95
_symmetry_cell_setting 'tetragonal'
loop_
_space_group_symop_operation_xyz
x,y,z
-y,x,3/4+z
-x,-y,1/2+z
y,-x,1/4+z
x,-y,1/2-z
-x,y,-z
y,x,1/4-z
-y,-x,3/4-z
loop_
_atom_site_type_symbol
_atom_site_label
_atom_site_fract_x
_atom_site_fract_y
_atom_site_fract_z
Si Si1 0.898277 0.898277 0.625000
Si Si2 0.649561 0.707839 0.970883
Si Si3 0.350173 0.500000 0.250000
Si Si4 0.380065 0.001606 0.093392
O O1 0.000000 0.920900 0.500000
O O2 0.919157 0.750734 0.669715
O O3 0.703661 0.613147 0.851959
O O4 0.656699 0.854067 0.927745
O O5 0.500000 0.674146 0.000000
O O6 0.705561 0.705561 0.125000
O O7 0.422258 0.422258 0.125000
O O8 0.429516 0.000000 0.250000
O O9 0.500000 0.039954 0.000000
#
# Coordination Sequence:
#
# PCOD9550645 Si02
#       4
#     4   8   4   8
#     4  10  24  50  80 112 146 202 262 310 374 464
#     4  11  21  40  68 109 156 203 252 306 393 461
#     4  12  18  36  62 106 168 202 240 308 380 464
#     4  10  25  52  75 112 149 199 262 317 383 461
#
# _framework density 22.927973999999999
#
# number of rings (size 3 to 8) (size 9 to 14) (size 15 to 20)
#    0.000    1.333    5.000    0.000    2.333    1.333 
#   33.000    0.000    0.000    0.000    0.000    0.000 
#    0.000    0.000    0.000    0.000    0.000    0.000 
#
# Total GULP energy -133907.254798 kJ/mol
# GULP energy per Si atom -5579.468950 kJ/mol
# Density = 2.287579 g / cm^3
# Si number density = 22.927974 Si / 1000 Ang^3
#
#
#
# Elastic Constant Matrix: (Units=GPa)
#
#
# Indices 1 2 3 4 5 6 
#
# 1 148.9080 66.7838 81.9440 0.0000 0.0000 0.0000
# 2 66.7838 148.9080 81.9440 0.0000 0.0000 0.0000
# 3 81.9440 81.9440 220.7986 0.0000 0.0000 0.0000
# 4 0.0000 0.0000 0.0000 28.9475 0.0000 0.0000
# 5 0.0000 0.0000 0.0000 0.0000 28.9475 0.0000
# 6 0.0000 0.0000 0.0000 0.0000 0.0000 40.8003
#
#
#
# Elastic Compliance Matrix: (Units=1/GPa)
#
#
# Indices 1 2 3 4 5 6 
#
# 1 0.009317 -0.002860 -0.002396 0.000000 0.000000 0.000000
# 2 -0.002860 0.009317 -0.002396 0.000000 0.000000 0.000000
# 3 -0.002396 -0.002396 0.006308 0.000000 0.000000 0.000000
# 4 0.000000 0.000000 0.000000 0.034545 0.000000 0.000000
# 5 0.000000 0.000000 0.000000 0.000000 0.034545 0.000000
# 6 0.000000 0.000000 0.000000 0.000000 0.000000 0.024510
#
#
# Mechanical properties :
#
#
# Convention : Reuss Voigt Hill
#
# Bulk Modulus (GPa) = 103.77377 108.88424 106.32900
# Shear Modulus (GPa) = 36.48061 38.93522 37.70791
#
# Velocity S-wave (km/s) = 3.99318 4.12534 4.05980
# Velocity P-wave (km/s) = 8.16209 8.38355 8.27356
#
# Compressibility (1/GPa) = 0.00963635
#
# Stress axis : x y z
#
# Youngs Moduli (GPa) = 107.33203 107.33203 158.53552
#
# Poissons Ratio (x) = 0.30695 0.37991
# Poissons Ratio (y) = 0.30695 0.37991
# Poissons Ratio (z) = 0.25721 0.25721
#
# Static dielectric constant tensor:
#      x y z
#    x 1.899480 0.000000 0.000000 
#    y 0.000000 1.899480 0.000000 
#    z 0.000000 0.000000 1.728740 
# 
# From -- ./inp_files/1864.got.cif
#   From: 2010.05.17/outbox.cif.g08.bks.cpg/sg95_1_cif.got.tgz:1864.got - 2010.06.03 19:46:49.
