data_PCOD9550454
_publ_section_title
;
Structure prediction by ZEFSAII (Michael W. Deem and Ramdas Pophale) SiO2 
 PCOD9550454
Probable space group: P 43 2 2
;
_chemical_formula_sum "Si O2"
_cell_formula_units_Z 64
_cell_length_a 12.419473
_cell_length_b 12.419473
_cell_length_c 21.559150
_cell_angle_alpha 90.000000
_cell_angle_beta 90.000000
_cell_angle_gamma 90.000000
_cell_volume 3325.354648
_symmetry_space_group_name_H-M "P 43 2 2"
_symmetry_group_IT_number 95
_symmetry_cell_setting 'tetragonal'
loop_
_space_group_symop_operation_xyz
x,y,z
-y,x,3/4+z
-x,-y,1/2+z
y,-x,1/4+z
x,-y,1/2-z
-x,y,-z
y,x,1/4-z
-y,-x,3/4-z
loop_
_atom_site_type_symbol
_atom_site_label
_atom_site_fract_x
_atom_site_fract_y
_atom_site_fract_z
Si Si1 0.874340 0.731019 0.481715
Si Si2 0.445480 0.561296 0.067034
Si Si3 0.325447 0.257983 0.381076
Si Si4 0.733562 0.053521 0.035562
Si Si5 0.180506 0.030382 0.659040
Si Si6 0.750809 0.405106 0.913625
Si Si7 0.179161 0.166027 0.485315
Si Si8 0.554175 0.203368 0.057678
O O1 0.845374 0.677641 0.414407
O O2 0.819532 0.850626 0.478385
O O3 0.815467 0.657297 0.533419
O O4 0.000000 0.738220 0.500000
O O5 0.505101 0.505101 0.125000
O O6 0.429075 0.684468 0.090060
O O7 0.333128 0.494456 0.060852
O O8 0.500000 0.557030 0.000000
O O9 0.251064 0.237010 0.440603
O O10 0.273844 0.351326 0.337943
O O11 0.616018 0.103289 0.027064
O O12 0.740645 0.016596 0.107451
O O13 0.761623 0.945674 0.999149
O O14 0.077214 0.077214 0.625000
O O15 0.218705 0.130431 0.701746
O O16 0.143351 0.929665 0.698431
O O17 0.681471 0.318530 0.875000
O O18 0.820006 0.469624 0.862013
O O19 0.500000 0.264637 0.000000
#
# Coordination Sequence:
#
# PCOD9550454 Si02
#       8
#     8   8   8   8   8   8   8   8
#     4  11  23  36  54  87 126 161 198 246 309 363
#     4  10  21  40  69  93 112 153 211 270 327 376
#     4  10  21  39  59  87 124 150 194 267 309 356
#     4  10  21  37  57  87 122 164 201 256 299 362
#     4   9  18  33  56  86 116 161 212 233 277 353
#     4  10  21  38  59  84 112 151 201 254 309 378
#     4  10  19  34  59  84 122 162 200 239 295 357
#     4  10  20  38  57  79 113 153 197 243 310 370
#
# _framework density 19.246068000000001
#
# number of rings (size 3 to 8) (size 9 to 14) (size 15 to 20)
#    0.000    2.000    2.500    2.250    3.500    6.500 
#    0.000    6.250    0.000    0.000    0.000    0.000 
#    0.000    0.000    0.000    0.000    0.000    0.000 
#
# Total GULP energy -356379.794856 kJ/mol
# GULP energy per Si atom -5568.434295 kJ/mol
# Density = 1.920226 g / cm^3
# Si number density = 19.246068 Si / 1000 Ang^3
#
#
#
# Elastic Constant Matrix: (Units=GPa)
#
#
# Indices 1 2 3 4 5 6 
#
# 1 68.8517 34.0783 45.9110 0.0000 0.0000 0.0000
# 2 34.0783 68.8518 45.9106 0.0000 0.0000 0.0000
# 3 45.9110 45.9106 110.2897 0.0000 0.0000 0.0000
# 4 0.0000 0.0000 0.0000 27.6747 0.0000 0.0000
# 5 0.0000 0.0000 0.0000 0.0000 27.6747 0.0000
# 6 0.0000 0.0000 0.0000 0.0000 0.0000 11.5219
#
#
#
# Elastic Compliance Matrix: (Units=1/GPa)
#
#
# Indices 1 2 3 4 5 6 
#
# 1 0.022106 -0.006652 -0.006433 0.000000 0.000000 0.000000
# 2 -0.006652 0.022106 -0.006433 0.000000 0.000000 0.000000
# 3 -0.006433 -0.006433 0.014423 0.000000 0.000000 0.000000
# 4 0.000000 0.000000 0.000000 0.036134 0.000000 0.000000
# 5 0.000000 0.000000 0.000000 0.000000 0.036134 0.000000
# 6 0.000000 0.000000 0.000000 0.000000 0.000000 0.086791
#
#
# Mechanical properties :
#
#
# Convention : Reuss Voigt Hill
#
# Bulk Modulus (GPa) = 51.02389 55.53257 53.27823
# Shear Modulus (GPa) = 18.99242 21.51383 20.25312
#
# Velocity S-wave (km/s) = 3.14478 3.34702 3.24748
# Velocity P-wave (km/s) = 6.30516 6.62219 6.46562
#
# Compressibility (1/GPa) = 0.01959866
#
# Stress axis : x y z
#
# Youngs Moduli (GPa) = 45.23660 45.23694 69.33366
#
# Poissons Ratio (x) = 0.30090 0.44605
# Poissons Ratio (y) = 0.30090 0.44603
# Poissons Ratio (z) = 0.29102 0.29102
#
# Static dielectric constant tensor:
#      x y z
#    x 1.702390 0.000000 0.000000 
#    y 0.000000 1.702390 0.000000 
#    z 0.000000 0.000000 1.728390 
# 
# From -- ./inp_files/7084.got.cif
#   From: 2010.05.17/outbox.cif.g08.bks.cpg/sg95_4_cif.got.tgz:7084.got - 2010.06.03 19:46:49.
