data_PCOD9550146
_publ_section_title
;
Structure prediction by ZEFSAII (Michael W. Deem and Ramdas Pophale) SiO2 
 PCOD9550146
Probable space group: P 42 21 2
;
_chemical_formula_sum "Si O2"
_cell_formula_units_Z 50
_cell_length_a 9.071216
_cell_length_b 9.071216
_cell_length_c 28.001819
_cell_angle_alpha 90.000000
_cell_angle_beta 90.000000
_cell_angle_gamma 90.000000
_cell_volume 2304.184552
_symmetry_space_group_name_H-M "P 42 21 2"
_symmetry_group_IT_number 94
_symmetry_cell_setting 'tetragonal'
loop_
_space_group_symop_operation_xyz
x,y,z
1/2-y,1/2+x,1/2+z
-x,-y,z
1/2+y,1/2-x,1/2+z
1/2+x,1/2-y,1/2-z
1/2-x,1/2+y,1/2-z
y,x,-z
-y,-x,-z
loop_
_atom_site_type_symbol
_atom_site_label
_atom_site_fract_x
_atom_site_fract_y
_atom_site_fract_z
Si Si1 0.370053 0.772469 0.344666
Si Si2 0.272604 0.336818 0.713152
Si Si3 0.336678 0.061800 0.196493
Si Si4 0.954636 0.763777 0.536598
Si Si5 0.000000 0.000000 0.000000
Si Si6 0.332918 0.547301 0.149018
Si Si7 0.302128 0.045312 0.951120
O O1 0.498114 0.731742 0.307857
O O2 0.250589 0.640554 0.346870
O O3 0.278688 0.919592 0.334133
O O4 0.449479 0.808440 0.394152
O O5 0.433952 0.268668 0.716498
O O6 0.185772 0.344292 0.762664
O O7 0.189780 0.225355 0.676673
O O8 0.500000 0.000000 0.185950
O O9 0.881759 0.881759 0.500000
O O10 0.874796 0.605912 0.530776
O O11 0.936240 0.819300 0.591293
O O12 0.121020 0.698411 0.532397
O O13 0.136916 0.021825 0.965859
O O14 0.500000 0.500000 0.160275
#
# Coordination Sequence:
#
# PCOD9550146 Si02
#       7
#     8   8   8   8   2   8   8
#     4  11  24  45  69  95 134 179 225 275 344 415
#     4  12  24  43  68  94 135 180 225 279 340 411
#     4  12  26  42  66 100 134 173 230 285 336 397
#     4  10  21  43  69  98 136 175 226 278 345 410
#     4  12  24  40  70 100 138 172 228 282 332 432
#     4  11  23  40  68  98 133 175 221 282 337 401
#     4  10  23  41  69 102 131 182 222 278 346 415
#
# _framework density 21.699652
#
# number of rings (size 3 to 8) (size 9 to 14) (size 15 to 20)
#    0.000    0.960    2.400    4.800    2.240    4.160 
#    0.000    0.000    0.000    0.000    0.000    0.000 
#    0.000    0.000    0.000    0.000    0.000    0.000 
#
# Total GULP energy -279325.345324 kJ/mol
# GULP energy per Si atom -5586.506906 kJ/mol
# Density = 2.165026 g / cm^3
# Si number density = 21.699652 Si / 1000 Ang^3
#
#
#
# Elastic Constant Matrix: (Units=GPa)
#
#
# Indices 1 2 3 4 5 6 
#
# 1 81.5120 9.6712 15.2932 0.0000 0.0000 0.0000
# 2 9.6712 81.5120 15.2932 0.0000 0.0000 0.0000
# 3 15.2932 15.2932 46.0240 0.0000 0.0000 0.0000
# 4 0.0000 0.0000 0.0000 27.0031 0.0000 0.0000
# 5 0.0000 0.0000 0.0000 0.0000 27.0031 0.0000
# 6 0.0000 0.0000 0.0000 0.0000 0.0000 39.4891
#
#
#
# Elastic Compliance Matrix: (Units=1/GPa)
#
#
# Indices 1 2 3 4 5 6 
#
# 1 0.013131 -0.000788 -0.004101 0.000000 0.000000 0.000000
# 2 -0.000788 0.013131 -0.004101 0.000000 0.000000 0.000000
# 3 -0.004101 -0.004101 0.024453 0.000000 0.000000 0.000000
# 4 0.000000 0.000000 0.000000 0.037033 0.000000 0.000000
# 5 0.000000 0.000000 0.000000 0.000000 0.037033 0.000000
# 6 0.000000 0.000000 0.000000 0.000000 0.000000 0.025323
#
#
# Mechanical properties :
#
#
# Convention : Reuss Voigt Hill
#
# Bulk Modulus (GPa) = 30.54971 32.17366 31.36168
# Shear Modulus (GPa) = 27.93325 29.95176 28.94250
#
# Velocity S-wave (km/s) = 3.59174 3.71925 3.65605
# Velocity P-wave (km/s) = 5.59552 5.77086 5.68386
#
# Compressibility (1/GPa) = 0.03273354
#
# Stress axis : x y z
#
# Youngs Moduli (GPa) = 76.15465 76.15465 40.89406
#
# Poissons Ratio (x) = 0.06005 0.16772
# Poissons Ratio (y) = 0.06005 0.16772
# Poissons Ratio (z) = 0.31233 0.31233
#
# Static dielectric constant tensor:
#      x y z
#    x 1.838310 0.000000 0.000000 
#    y 0.000000 1.838310 0.000000 
#    z 0.000000 0.000000 1.835170 
# 
# From -- ./inp_files/5654.got.cif
#   From: 2010.05.17/outbox.cif.g08.bks.cpg/sg94_3_cif.got.tgz:5654.got - 2010.06.03 19:43:16.
