data_PCOD9550886
_publ_section_title
;
Structure prediction by ZEFSAII (Michael W. Deem and Ramdas Pophale) SiO2 
 PCOD9550886
Probable space group: P 43 21 2
;
_chemical_formula_sum "Si O2"
_cell_formula_units_Z 48
_cell_length_a 9.175095
_cell_length_b 9.175095
_cell_length_c 31.330141
_cell_angle_alpha 90.000000
_cell_angle_beta 90.000000
_cell_angle_gamma 90.000000
_cell_volume 2637.445467
_symmetry_space_group_name_H-M "P 43 21 2"
_symmetry_group_IT_number 96
_symmetry_cell_setting 'tetragonal'
loop_
_space_group_symop_operation_xyz
x,y,z
1/2-y,1/2+x,3/4+z
-x,-y,1/2+z
1/2+y,1/2-x,1/4+z
1/2+x,1/2-y,1/4-z
1/2-x,1/2+y,3/4-z
y,x,-z
-y,-x,1/2-z
loop_
_atom_site_type_symbol
_atom_site_label
_atom_site_fract_x
_atom_site_fract_y
_atom_site_fract_z
Si Si1 0.406165 0.072905 0.289674
Si Si2 0.588006 0.396281 0.126350
Si Si3 0.419520 0.889236 0.203974
Si Si4 0.080506 0.921066 0.461346
Si Si5 0.587446 0.064091 0.373703
Si Si6 0.400992 0.429332 0.452063
O O1 0.406158 0.246778 0.283261
O O2 0.516756 0.033830 0.327641
O O3 0.441155 0.989474 0.245762
O O4 0.246041 0.019958 0.303893
O O5 0.551494 0.494397 0.167341
O O6 0.519154 0.237864 0.129634
O O7 0.762771 0.384157 0.123972
O O8 0.537924 0.480609 0.083841
O O9 0.503198 0.737954 0.209180
O O10 0.244335 0.865126 0.200154
O O11 0.469966 0.974353 0.161672
O O12 0.990448 0.990448 0.500000
O O13 0.457227 0.457227 0.500000
#
# Coordination Sequence:
#
# PCOD9550886 Si02
#       6
#     8   8   8   8   8   8
#     4  10  21  36  56  84 113 144 188 234 278 330
#     4  10  22  38  57  83 116 148 185 233 282 333
#     4  10  21  38  60  82 110 151 194 230 274 336
#     4  11  22  37  58  84 114 148 187 232 279 331
#     4  10  22  38  57  84 116 149 186 232 283 334
#     4   9  19  37  57  81 110 146 193 233 270 332
#
# _framework density 18.199428999999999
#
# number of rings (size 3 to 8) (size 9 to 14) (size 15 to 20)
#    0.000    2.000    0.000    3.500    0.000    8.000 
#    0.000    3.333    0.000    0.000    0.000    0.000 
#    0.000    0.000    0.000    0.000    0.000    0.000 
#
# Total GULP energy -268135.575300 kJ/mol
# GULP energy per Si atom -5586.157819 kJ/mol
# Density = 1.815801 g / cm^3
# Si number density = 18.199429 Si / 1000 Ang^3
#
#
#
# Elastic Constant Matrix: (Units=GPa)
#
#
# Indices 1 2 3 4 5 6 
#
# 1 86.3461 63.0004 65.4744 0.0000 0.0000 0.0000
# 2 63.0004 86.3461 65.4744 0.0000 0.0000 0.0000
# 3 65.4744 65.4744 109.0003 0.0000 0.0000 0.0000
# 4 0.0000 0.0000 0.0000 24.3064 0.0000 0.0000
# 5 0.0000 0.0000 0.0000 0.0000 24.3064 0.0000
# 6 0.0000 0.0000 0.0000 0.0000 0.0000 38.3886
#
#
#
# Elastic Compliance Matrix: (Units=1/GPa)
#
#
# Indices 1 2 3 4 5 6 
#
# 1 0.028491 -0.014344 -0.008498 0.000000 0.000000 0.000000
# 2 -0.014344 0.028491 -0.008498 0.000000 0.000000 0.000000
# 3 -0.008498 -0.008498 0.019383 0.000000 0.000000 0.000000
# 4 0.000000 0.000000 0.000000 0.041141 0.000000 0.000000
# 5 0.000000 0.000000 0.000000 0.000000 0.041141 0.000000
# 6 0.000000 0.000000 0.000000 0.000000 0.000000 0.026049
#
#
# Mechanical properties :
#
#
# Convention : Reuss Voigt Hill
#
# Bulk Modulus (GPa) = 73.06834 74.39898 73.73366
# Shear Modulus (GPa) = 19.84627 23.24984 21.54806
#
# Velocity S-wave (km/s) = 3.30584 3.57810 3.44466
# Velocity P-wave (km/s) = 7.40319 7.61833 7.51153
#
# Compressibility (1/GPa) = 0.01368582
#
# Stress axis : x y z
#
# Youngs Moduli (GPa) = 35.09938 35.09938 51.59155
#
# Poissons Ratio (x) = 0.50346 0.43841
# Poissons Ratio (y) = 0.50346 0.43841
# Poissons Ratio (z) = 0.29826 0.29826
#
# Static dielectric constant tensor:
#      x y z
#    x 1.595340 0.000000 0.000000 
#    y 0.000000 1.595340 0.000000 
#    z 0.000000 0.000000 1.623160 
# 
# From -- ./inp_files/4484.got.cif
#   From: 2010.05.17/outbox.cif.g08.bks.cpg/sg96_3_cif.got.tgz:4484.got - 2010.06.03 19:52:08.
