data_PCOD9550691
_publ_section_title
;
Structure prediction by ZEFSAII (Michael W. Deem and Ramdas Pophale) SiO2 
 PCOD9550691
Probable space group: P 43 2 2
;
_chemical_formula_sum "Si O2"
_cell_formula_units_Z 32
_cell_length_a 10.568268
_cell_length_b 10.568268
_cell_length_c 11.596179
_cell_angle_alpha 90.000000
_cell_angle_beta 90.000000
_cell_angle_gamma 90.000000
_cell_volume 1295.157386
_symmetry_space_group_name_H-M "P 43 2 2"
_symmetry_group_IT_number 95
_symmetry_cell_setting 'tetragonal'
loop_
_space_group_symop_operation_xyz
x,y,z
-y,x,3/4+z
-x,-y,1/2+z
y,-x,1/4+z
x,-y,1/2-z
-x,y,-z
y,x,1/4-z
-y,-x,3/4-z
loop_
_atom_site_type_symbol
_atom_site_label
_atom_site_fract_x
_atom_site_fract_y
_atom_site_fract_z
Si Si1 0.578768 0.647360 0.245477
Si Si2 0.500000 0.001013 0.000000
Si Si3 0.168838 0.354980 0.059201
Si Si4 0.725917 0.163473 0.560995
Si Si5 0.000000 0.074619 0.500000
O O1 0.544488 0.500000 0.250000
O O2 0.458200 0.730447 0.265042
O O3 0.689203 0.694963 0.327119
O O4 0.652215 0.652215 0.125000
O O5 0.442568 0.086310 0.103016
O O6 0.379145 0.907846 0.981502
O O7 0.242113 0.242113 0.125000
O O8 0.112651 0.294615 0.941425
O O9 0.866459 0.147097 0.512686
O O10 0.005495 0.005495 0.625000
#
# Coordination Sequence:
#
# PCOD9550691 Si02
#       5
#     8   4   8   8   4
#     4  12  23  46  78 117 162 208 278 354 439 520
#     4  12  28  50  84 120 170 230 296 366 458 548
#     4  12  28  48  86 121 171 223 298 369 460 541
#     4  12  28  54  80 125 171 232 292 374 443 556
#     4  12  34  56  90 126 182 236 306 368 468 554
#
# _framework density 24.707424
#
# number of rings (size 3 to 8) (size 9 to 14) (size 15 to 20)
#    0.000    0.000    3.750    3.750   12.250    0.000 
#    0.000    0.000    0.000    0.000    0.000    0.000 
#    0.000    0.000    0.000    0.000    0.000    0.000 
#
# Total GULP energy -178611.547482 kJ/mol
# GULP energy per Si atom -5581.610859 kJ/mol
# Density = 2.465119 g / cm^3
# Si number density = 24.707424 Si / 1000 Ang^3
#
#
#
# Elastic Constant Matrix: (Units=GPa)
#
#
# Indices 1 2 3 4 5 6 
#
# 1 95.4103 85.9295 37.5032 0.0000 0.0000 0.0000
# 2 85.9295 95.4103 37.5032 0.0000 0.0000 0.0000
# 3 37.5032 37.5032 143.3205 0.0000 0.0000 0.0000
# 4 0.0000 0.0000 0.0000 54.1997 0.0000 0.0000
# 5 0.0000 0.0000 0.0000 0.0000 54.1997 0.0000
# 6 0.0000 0.0000 0.0000 0.0000 0.0000 16.8598
#
#
#
# Elastic Compliance Matrix: (Units=1/GPa)
#
#
# Indices 1 2 3 4 5 6 
#
# 1 0.055830 -0.049646 -0.001618 0.000000 0.000000 0.000000
# 2 -0.049646 0.055830 -0.001618 0.000000 0.000000 0.000000
# 3 -0.001618 -0.001618 0.007824 0.000000 0.000000 0.000000
# 4 0.000000 0.000000 0.000000 0.018450 0.000000 0.000000
# 5 0.000000 0.000000 0.000000 0.000000 0.018450 0.000000
# 6 0.000000 0.000000 0.000000 0.000000 0.000000 0.059313
#
#
# Mechanical properties :
#
#
# Convention : Reuss Voigt Hill
#
# Bulk Modulus (GPa) = 72.89011 72.89030 72.89021
# Shear Modulus (GPa) = 15.33577 36.59886 25.96731
#
# Velocity S-wave (km/s) = 2.49408 3.85293 3.24542
# Velocity P-wave (km/s) = 6.15299 7.02558 6.60371
#
# Compressibility (1/GPa) = 0.01371928
#
# Stress axis : x y z
#
# Youngs Moduli (GPa) = 17.91154 17.91154 127.80832
#
# Poissons Ratio (x) = 0.88924 0.20681
# Poissons Ratio (y) = 0.88924 0.20681
# Poissons Ratio (z) = 0.02898 0.02898
#
# Static dielectric constant tensor:
#      x y z
#    x 1.976160 0.000000 0.000000 
#    y 0.000000 1.976160 0.000000 
#    z 0.000000 0.000000 2.102380 
# 
# From -- ./inp_files/3485.got.cif
#   From: 2010.05.17/outbox.cif.g08.bks.cpg/sg95_2_cif.got.tgz:3485.got - 2010.06.03 19:46:49.
