data_PCOD9550524
_publ_section_title
;
Structure prediction by ZEFSAII (Michael W. Deem and Ramdas Pophale) SiO2 
 PCOD9550524
Probable space group: P 43 2 2
;
_chemical_formula_sum "Si O2"
_cell_formula_units_Z 44
_cell_length_a 9.107259
_cell_length_b 9.107259
_cell_length_c 26.592643
_cell_angle_alpha 90.000000
_cell_angle_beta 90.000000
_cell_angle_gamma 90.000000
_cell_volume 2205.651423
_symmetry_space_group_name_H-M "P 43 2 2"
_symmetry_group_IT_number 95
_symmetry_cell_setting 'tetragonal'
loop_
_space_group_symop_operation_xyz
x,y,z
-y,x,3/4+z
-x,-y,1/2+z
y,-x,1/4+z
x,-y,1/2-z
-x,y,-z
y,x,1/4-z
-y,-x,3/4-z
loop_
_atom_site_type_symbol
_atom_site_label
_atom_site_fract_x
_atom_site_fract_y
_atom_site_fract_z
Si Si1 0.765645 0.644539 0.420764
Si Si2 0.098127 0.656802 0.385930
Si Si3 0.468358 0.166769 0.769189
Si Si4 0.102220 0.569790 0.202153
Si Si5 0.783382 0.339077 0.269047
Si Si6 0.641029 0.641029 0.125000
O O1 0.758324 0.566604 0.475614
O O2 0.680214 0.795238 0.423090
O O3 0.686228 0.528118 0.383855
O O4 0.934186 0.680617 0.407392
O O5 0.202071 0.797930 0.375000
O O6 0.174715 0.552977 0.428061
O O7 0.068922 0.562321 0.335799
O O8 0.303543 0.230685 0.767813
O O9 0.457985 0.000000 0.750000
O O10 0.182784 0.500000 0.250000
O O11 0.958487 0.650309 0.224665
O O12 0.737320 0.500000 0.250000
O O13 0.724065 0.307809 0.324947
#
# Coordination Sequence:
#
# PCOD9550524 Si02
#       6
#     8   8   8   8   8   4
#     4  10  22  41  61  94 126 167 211 270 323 395
#     4  11  23  40  64  96 131 170 213 272 329 399
#     4   9  21  41  63  88 124 167 214 259 320 383
#     4  11  24  40  62  93 127 165 213 267 325 387
#     4  10  22  40  62  91 127 160 209 266 314 384
#     4  10  20  40  64  88 124 162 210 266 314 368
#
# _framework density 19.948755999999999
#
# number of rings (size 3 to 8) (size 9 to 14) (size 15 to 20)
#    0.000    1.818    1.818    1.091    3.818    4.364 
#    1.636    6.364    0.000    0.000    0.000    0.000 
#    0.000    0.000    0.000    0.000    0.000    0.000 
#
# Total GULP energy -245357.497536 kJ/mol
# GULP energy per Si atom -5576.306762 kJ/mol
# Density = 1.990335 g / cm^3
# Si number density = 19.948756 Si / 1000 Ang^3
#
#
#
# Elastic Constant Matrix: (Units=GPa)
#
#
# Indices 1 2 3 4 5 6 
#
# 1 77.8343 67.1102 12.5997 0.0000 0.0000 0.0000
# 2 67.1102 77.8335 12.5995 0.0000 0.0000 0.0000
# 3 12.5997 12.5995 75.5544 0.0000 0.0000 0.0000
# 4 0.0000 0.0000 0.0000 23.4395 0.0000 0.0000
# 5 0.0000 0.0000 0.0000 0.0000 23.4400 0.0000
# 6 0.0000 0.0000 0.0000 0.0000 0.0000 23.6099
#
#
#
# Elastic Compliance Matrix: (Units=1/GPa)
#
#
# Indices 1 2 3 4 5 6 
#
# 1 0.050178 -0.043073 -0.001185 0.000000 0.000000 0.000000
# 2 -0.043073 0.050179 -0.001185 0.000000 0.000000 0.000000
# 3 -0.001185 -0.001185 0.013631 0.000000 0.000000 0.000000
# 4 0.000000 0.000000 0.000000 0.042663 0.000000 0.000000
# 5 0.000000 0.000000 0.000000 0.000000 0.042662 0.000000
# 6 0.000000 0.000000 0.000000 0.000000 0.000000 0.042355
#
#
# Mechanical properties :
#
#
# Convention : Reuss Voigt Hill
#
# Bulk Modulus (GPa) = 43.28704 46.20453 44.74579
# Shear Modulus (GPa) = 14.69491 23.35872 19.02682
#
# Velocity S-wave (km/s) = 2.71704 3.42561 3.09169
# Velocity P-wave (km/s) = 5.62044 6.23364 5.93496
#
# Compressibility (1/GPa) = 0.02310160
#
# Stress axis : x y z
#
# Youngs Moduli (GPa) = 19.92903 19.92885 73.36389
#
# Poissons Ratio (x) = 0.85840 0.08693
# Poissons Ratio (y) = 0.85840 0.08692
# Poissons Ratio (z) = 0.02362 0.02361
#
# Static dielectric constant tensor:
#      x y z
#    x 1.705080 0.000000 0.000000 
#    y 0.000000 1.705080 0.000000 
#    z 0.000000 0.000000 1.726220 
# 
# From -- ./inp_files/7792.got.cif
#   From: 2010.05.17/outbox.cif.g08.bks.cpg/sg95_4_cif.got.tgz:7792.got - 2010.06.03 19:46:49.
