data_PCOD9550922
_publ_section_title
;
Structure prediction by ZEFSAII (Michael W. Deem and Ramdas Pophale) SiO2 
 PCOD9550922
Probable space group: P 43 21 2
;
_chemical_formula_sum "Si O2"
_cell_formula_units_Z 40
_cell_length_a 15.370973
_cell_length_b 15.370973
_cell_length_c 7.388968
_cell_angle_alpha 90.000000
_cell_angle_beta 90.000000
_cell_angle_gamma 90.000000
_cell_volume 1745.767906
_symmetry_space_group_name_H-M "P 43 21 2"
_symmetry_group_IT_number 96
_symmetry_cell_setting 'tetragonal'
loop_
_space_group_symop_operation_xyz
x,y,z
1/2-y,1/2+x,3/4+z
-x,-y,1/2+z
1/2+y,1/2-x,1/4+z
1/2+x,1/2-y,1/4-z
1/2-x,1/2+y,3/4-z
y,x,-z
-y,-x,1/2-z
loop_
_atom_site_type_symbol
_atom_site_label
_atom_site_fract_x
_atom_site_fract_y
_atom_site_fract_z
Si Si1 0.498387 0.219800 0.624094
Si Si2 0.406198 0.550296 0.543834
Si Si3 0.154868 0.726535 0.844419
Si Si4 0.631186 0.271494 0.894017
Si Si5 0.928657 0.580057 0.397620
O O1 0.521267 0.308012 0.511738
O O2 0.408254 0.231967 0.731562
O O3 0.566621 0.208605 0.789109
O O4 0.515745 0.138942 0.491796
O O5 0.473951 0.473951 0.500000
O O6 0.421616 0.578385 0.750000
O O7 0.420855 0.639410 0.432305
O O8 0.184708 0.815293 0.750000
O O9 0.116558 0.666237 0.687047
O O10 0.237336 0.674715 0.925174
O O11 0.705780 0.294221 0.750000
O O12 0.919774 0.482567 0.330531
#
# Coordination Sequence:
#
# PCOD9550922 Si02
#       5
#     8   8   8   8   8
#     4  11  24  40  66  97 128 169 224 284 334 398
#     4  11  23  41  65  93 130 178 224 272 339 416
#     4  12  25  42  66  99 134 169 216 281 343 396
#     4  10  21  42  63  88 127 170 211 262 333 403
#     4  12  25  45  69  95 131 180 228 273 333 409
#
# _framework density 22.912555999999999
#
# number of rings (size 3 to 8) (size 9 to 14) (size 15 to 20)
#    0.000    0.800    0.000    9.600    0.000    4.800 
#    0.000    0.000    0.000    0.000    0.000    0.000 
#    0.000    0.000    0.000    0.000    0.000    0.000 
#
# Total GULP energy -223711.718745 kJ/mol
# GULP energy per Si atom -5592.792969 kJ/mol
# Density = 2.286041 g / cm^3
# Si number density = 22.912556 Si / 1000 Ang^3
#
#
#
# Elastic Constant Matrix: (Units=GPa)
#
#
# Indices 1 2 3 4 5 6 
#
# 1 44.8249 24.1917 12.8702 0.0000 0.0000 0.0000
# 2 24.1917 44.8228 12.8705 0.0000 0.0000 0.0000
# 3 12.8702 12.8705 84.7164 0.0000 0.0000 0.0000
# 4 0.0000 0.0000 0.0000 49.5270 0.0000 0.0000
# 5 0.0000 0.0000 0.0000 0.0000 49.5271 0.0000
# 6 0.0000 0.0000 0.0000 0.0000 0.0000 35.1680
#
#
#
# Elastic Compliance Matrix: (Units=1/GPa)
#
#
# Indices 1 2 3 4 5 6 
#
# 1 0.031913 -0.016554 -0.002333 0.000000 0.000000 0.000000
# 2 -0.016554 0.031915 -0.002334 0.000000 0.000000 0.000000
# 3 -0.002333 -0.002334 0.012513 0.000000 0.000000 0.000000
# 4 0.000000 0.000000 0.000000 0.020191 0.000000 0.000000
# 5 0.000000 0.000000 0.000000 0.000000 0.020191 0.000000
# 6 0.000000 0.000000 0.000000 0.000000 0.000000 0.028435
#
#
# Mechanical properties :
#
#
# Convention : Reuss Voigt Hill
#
# Bulk Modulus (GPa) = 29.49962 30.46986 29.98474
# Shear Modulus (GPa) = 25.13827 35.13986 30.13907
#
# Velocity S-wave (km/s) = 3.31590 3.92043 3.63077
# Velocity P-wave (km/s) = 5.25006 5.81552 5.54001
#
# Compressibility (1/GPa) = 0.03389874
#
# Stress axis : x y z
#
# Youngs Moduli (GPa) = 31.33504 31.33344 79.91611
#
# Poissons Ratio (x) = 0.51870 0.18647
# Poissons Ratio (y) = 0.51872 0.18650
# Poissons Ratio (z) = 0.07311 0.07312
#
# Static dielectric constant tensor:
#      x y z
#    x 1.873460 0.000000 0.000000 
#    y 0.000000 1.873470 0.000000 
#    z 0.000000 0.000000 -1.327650 
# 
# From -- ./inp_files/394.got.cif
#   From: 2010.05.17/outbox.cif.g08.bks.cpg/sg96_1_cif.got.tgz:394.got - 2010.06.03 19:52:08.
