data_PCOD9550561
_publ_section_title
;
Structure prediction by ZEFSAII (Michael W. Deem and Ramdas Pophale) SiO2 
 PCOD9550561
Probable space group: P 43 2 2
;
_chemical_formula_sum "Si O2"
_cell_formula_units_Z 48
_cell_length_a 14.736836
_cell_length_b 14.736836
_cell_length_c 11.245545
_cell_angle_alpha 90.000000
_cell_angle_beta 90.000000
_cell_angle_gamma 90.000000
_cell_volume 2442.243760
_symmetry_space_group_name_H-M "P 43 2 2"
_symmetry_group_IT_number 95
_symmetry_cell_setting 'tetragonal'
loop_
_space_group_symop_operation_xyz
x,y,z
-y,x,3/4+z
-x,-y,1/2+z
y,-x,1/4+z
x,-y,1/2-z
-x,y,-z
y,x,1/4-z
-y,-x,3/4-z
loop_
_atom_site_type_symbol
_atom_site_label
_atom_site_fract_x
_atom_site_fract_y
_atom_site_fract_z
Si Si1 0.467930 0.152759 0.210081
Si Si2 0.741358 0.393212 0.395190
Si Si3 0.955092 0.356865 0.627939
Si Si4 0.781722 0.260073 0.602024
Si Si5 0.360652 0.119244 0.439432
Si Si6 0.397337 0.287607 0.039909
O O1 0.520231 0.236850 0.274416
O O2 0.546567 0.096490 0.143135
O O3 0.419227 0.104364 0.320513
O O4 0.397972 0.194228 0.116483
O O5 0.637819 0.362182 0.375000
O O6 0.780659 0.308925 0.473282
O O7 0.799624 0.398772 0.274564
O O8 0.882369 0.277332 0.649568
O O9 0.000000 0.339285 0.500000
O O10 0.030352 0.361273 0.729566
O O11 0.737263 0.161378 0.595976
O O12 0.719699 0.325040 0.684388
O O13 0.367257 0.367257 0.125000
O O14 0.500000 0.297773 0.000000
#
# Coordination Sequence:
#
# PCOD9550561 Si02
#       6
#     8   8   8   8   8   8
#     4  11  22  36  61  89 121 175 210 273 332 386
#     4   9  18  33  55  83 122 167 208 260 318 389
#     4  11  22  36  60  96 135 161 211 277 324 397
#     4  10  21  39  61  87 126 179 212 262 337 402
#     4  11  21  38  60  91 134 171 212 262 345 397
#     4  12  23  43  66  86 126 178 226 268 325 391
#
# _framework density 19.654057000000002
#
# number of rings (size 3 to 8) (size 9 to 14) (size 15 to 20)
#    0.000    1.333    8.333    0.500    0.000    2.667 
#    0.000    0.833    0.000    0.000    0.000    0.000 
#   10.000    0.000    0.000    0.000    0.000    0.000 
#
# Total GULP energy -267892.058767 kJ/mol
# GULP energy per Si atom -5581.084558 kJ/mol
# Density = 1.960932 g / cm^3
# Si number density = 19.654057 Si / 1000 Ang^3
#
#
#
# Elastic Constant Matrix: (Units=GPa)
#
#
# Indices 1 2 3 4 5 6 
#
# 1 68.6607 46.9856 44.1372 0.0000 0.0000 0.0000
# 2 46.9856 68.6600 44.1373 0.0000 0.0000 0.0000
# 3 44.1372 44.1373 110.2450 0.0000 0.0000 0.0000
# 4 0.0000 0.0000 0.0000 33.2398 0.0000 0.0000
# 5 0.0000 0.0000 0.0000 0.0000 33.2399 0.0000
# 6 0.0000 0.0000 0.0000 0.0000 0.0000 16.9691
#
#
#
# Elastic Compliance Matrix: (Units=1/GPa)
#
#
# Indices 1 2 3 4 5 6 
#
# 1 0.029294 -0.016842 -0.004985 0.000000 0.000000 0.000000
# 2 -0.016842 0.029295 -0.004986 0.000000 0.000000 0.000000
# 3 -0.004985 -0.004986 0.013063 0.000000 0.000000 0.000000
# 4 0.000000 0.000000 0.000000 0.030084 0.000000 0.000000
# 5 0.000000 0.000000 0.000000 0.000000 0.030084 0.000000
# 6 0.000000 0.000000 0.000000 0.000000 0.000000 0.058931
#
#
# Mechanical properties :
#
#
# Convention : Reuss Voigt Hill
#
# Bulk Modulus (GPa) = 55.47567 57.56510 56.52038
# Shear Modulus (GPa) = 19.96917 24.17681 22.07299
#
# Velocity S-wave (km/s) = 3.19099 3.51111 3.35487
# Velocity P-wave (km/s) = 6.47023 6.76683 6.62019
#
# Compressibility (1/GPa) = 0.01802592
#
# Stress axis : x y z
#
# Youngs Moduli (GPa) = 34.13613 34.13562 76.55435
#
# Poissons Ratio (x) = 0.57492 0.38165
# Poissons Ratio (y) = 0.57493 0.38167
# Poissons Ratio (z) = 0.17018 0.17019
#
# Static dielectric constant tensor:
#      x y z
#    x 1.726490 0.000000 0.000000 
#    y 0.000000 1.726490 0.000000 
#    z 0.000000 0.000000 1.752690 
# 
# From -- ./inp_files/3838.got.cif
#   From: 2010.05.17/outbox.cif.g08.bks.cpg/sg95_2_cif.got.tgz:3838.got - 2010.06.03 19:46:49.
