data_PCOD9550611
_publ_section_title
;
Structure prediction by ZEFSAII (Michael W. Deem and Ramdas Pophale) SiO2 
 PCOD9550611
Probable space group: P 43 2 2
;
_chemical_formula_sum "Si O2"
_cell_formula_units_Z 56
_cell_length_a 14.102404
_cell_length_b 14.102404
_cell_length_c 12.789426
_cell_angle_alpha 90.000000
_cell_angle_beta 90.000000
_cell_angle_gamma 90.000000
_cell_volume 2543.532888
_symmetry_space_group_name_H-M "P 43 2 2"
_symmetry_group_IT_number 95
_symmetry_cell_setting 'tetragonal'
loop_
_space_group_symop_operation_xyz
x,y,z
-y,x,3/4+z
-x,-y,1/2+z
y,-x,1/4+z
x,-y,1/2-z
-x,y,-z
y,x,1/4-z
-y,-x,3/4-z
loop_
_atom_site_type_symbol
_atom_site_label
_atom_site_fract_x
_atom_site_fract_y
_atom_site_fract_z
Si Si1 0.316558 0.386949 0.737705
Si Si2 0.458379 0.724943 0.619237
Si Si3 0.080836 0.735818 0.578934
Si Si4 0.799586 0.813085 0.009557
Si Si5 0.355955 0.781402 0.317769
Si Si6 0.354690 0.922385 0.668167
Si Si7 0.967208 0.395353 0.793837
O O1 0.294269 0.500000 0.750000
O O2 0.367849 0.367849 0.625000
O O3 0.383474 0.349870 0.833862
O O4 0.229710 0.309344 0.736521
O O5 0.500000 0.708899 0.500000
O O6 0.544614 0.731401 0.702233
O O7 0.416172 0.831620 0.629269
O O8 0.103094 0.801152 0.676255
O O9 0.177782 0.710067 0.521971
O O10 0.000000 0.770852 0.500000
O O11 0.044520 0.635302 0.622989
O O12 0.870967 0.732608 0.970672
O O13 0.833589 0.833589 0.125000
O O14 0.295327 0.704674 0.375000
O O15 0.377876 0.869195 0.395286
O O16 0.331122 0.973703 0.559541
O O17 0.396041 0.000000 0.750000
O O18 0.980155 0.500000 0.750000
#
# Coordination Sequence:
#
# PCOD9550611 Si02
#       7
#     8   8   8   8   8   8   8
#     4  10  25  42  60  88 129 186 250 295 344 412
#     4  11  23  41  63  93 133 180 240 296 354 412
#     4  10  24  38  63  96 126 170 223 283 354 423
#     4  10  22  44  62  92 138 178 223 281 361 428
#     4  11  22  37  60  88 129 177 216 280 346 407
#     4  11  21  36  68  95 134 176 224 286 346 427
#     4  11  21  38  56  94 128 162 226 282 350 412
#
# _framework density 22.016622000000002
#
# number of rings (size 3 to 8) (size 9 to 14) (size 15 to 20)
#    0.000    1.429    2.857    1.714    6.000    1.714 
#    0.000    0.714    0.000    0.000    0.000   36.000 
#    0.000    0.000    0.000    0.000    0.000    0.000 
#
# Total GULP energy -312370.599374 kJ/mol
# GULP energy per Si atom -5578.046417 kJ/mol
# Density = 2.196651 g / cm^3
# Si number density = 22.016622 Si / 1000 Ang^3
#
#
#
# Elastic Constant Matrix: (Units=GPa)
#
#
# Indices 1 2 3 4 5 6 
#
# 1 45.6784 -1.3447 13.6625 0.0000 0.0000 0.0000
# 2 -1.3447 45.6843 13.6650 0.0000 0.0000 0.0000
# 3 13.6625 13.6650 125.9572 0.0000 0.0000 0.0000
# 4 0.0000 0.0000 0.0000 23.5107 0.0000 0.0000
# 5 0.0000 0.0000 0.0000 0.0000 23.5095 0.0000
# 6 0.0000 0.0000 0.0000 0.0000 0.0000 9.9549
#
#
#
# Elastic Compliance Matrix: (Units=1/GPa)
#
#
# Indices 1 2 3 4 5 6 
#
# 1 0.022719 0.001453 -0.002622 0.000000 0.000000 0.000000
# 2 0.001453 0.022716 -0.002622 0.000000 0.000000 0.000000
# 3 -0.002622 -0.002622 0.008508 0.000000 0.000000 0.000000
# 4 0.000000 0.000000 0.000000 0.042534 0.000000 0.000000
# 5 0.000000 0.000000 0.000000 0.000000 0.042536 0.000000
# 6 0.000000 0.000000 0.000000 0.000000 0.000000 0.100453
#
#
# Mechanical properties :
#
#
# Convention : Reuss Voigt Hill
#
# Bulk Modulus (GPa) = 21.56957 29.92059 25.74508
# Shear Modulus (GPa) = 19.04742 24.15083 21.59912
#
# Velocity S-wave (km/s) = 2.94451 3.31560 3.13555
# Velocity P-wave (km/s) = 4.62368 5.31762 4.98275
#
# Compressibility (1/GPa) = 0.04636161
#
# Stress axis : x y z
#
# Youngs Moduli (GPa) = 44.01567 44.02100 117.53535
#
# Poissons Ratio (x) = -0.06396 0.30817
# Poissons Ratio (y) = -0.06396 0.30819
# Poissons Ratio (z) = 0.11541 0.11543
#
# Static dielectric constant tensor:
#      x y z
#    x 1.713670 0.000000 0.000000 
#    y 0.000000 1.713750 0.000000 
#    z 0.000000 0.000000 1.838580 
# 
# From -- ./inp_files/3973.got.cif
#   From: 2010.05.17/outbox.cif.g08.bks.cpg/sg95_2_cif.got.tgz:3973.got - 2010.06.03 19:46:49.
