data_PCOD9550222
_publ_section_title
;
Structure prediction by ZEFSAII (Michael W. Deem and Ramdas Pophale) SiO2 
 PCOD9550222
Probable space group: P 42 21 2
;
_chemical_formula_sum "Si O2"
_cell_formula_units_Z 38
_cell_length_a 15.669497
_cell_length_b 15.669497
_cell_length_c 6.595095
_cell_angle_alpha 90.000000
_cell_angle_beta 90.000000
_cell_angle_gamma 90.000000
_cell_volume 1619.314359
_symmetry_space_group_name_H-M "P 42 21 2"
_symmetry_group_IT_number 94
_symmetry_cell_setting 'tetragonal'
loop_
_space_group_symop_operation_xyz
x,y,z
1/2-y,1/2+x,1/2+z
-x,-y,z
1/2+y,1/2-x,1/2+z
1/2+x,1/2-y,1/2-z
1/2-x,1/2+y,1/2-z
y,x,-z
-y,-x,-z
loop_
_atom_site_type_symbol
_atom_site_label
_atom_site_fract_x
_atom_site_fract_y
_atom_site_fract_z
Si Si1 0.504289 0.379900 0.377644
Si Si2 0.244297 0.755704 0.500000
Si Si3 0.523146 0.899823 0.038116
Si Si4 0.101779 0.721245 0.175428
Si Si5 0.638616 0.164573 0.204487
Si Si6 0.000000 0.000000 0.500000
O O1 0.427786 0.427786 0.500000
O O2 0.587413 0.412588 0.500000
O O3 0.479140 0.281719 0.364372
O O4 0.503868 0.419955 0.152587
O O5 0.163209 0.757715 0.349709
O O6 0.326795 0.763664 0.355842
O O7 0.576313 0.872106 0.238385
O O8 0.445693 0.833090 0.067254
O O9 0.500000 0.000000 0.040903
O O10 0.582033 0.878610 0.846463
O O11 0.146543 0.711025 0.960230
#
# Coordination Sequence:
#
# PCOD9550222 Si02
#       6
#     8   4   8   8   8   2
#     4   9  18  32  56  91 127 172 213 259 312 386
#     4  10  23  38  64  95 132 174 217 263 340 402
#     4  11  24  41  67  98 124 172 230 284 337 396
#     4  11  22  40  66  95 131 174 219 272 330 401
#     4  11  22  40  65  96 129 169 222 279 335 402
#     4   8  16  32  60  82 132 164 218 254 304 380
#
# _framework density 23.466723999999999
#
# number of rings (size 3 to 8) (size 9 to 14) (size 15 to 20)
#    0.000    1.895    0.000    5.684    0.000    7.579 
#    1.895    0.000    4.632    0.000    0.000    0.000 
#    0.000    0.000    0.000    0.000    0.000    0.000 
#
# Total GULP energy -212099.540839 kJ/mol
# GULP energy per Si atom -5581.566864 kJ/mol
# Density = 2.341331 g / cm^3
# Si number density = 23.466724 Si / 1000 Ang^3
#
#
#
# Elastic Constant Matrix: (Units=GPa)
#
#
# Indices 1 2 3 4 5 6 
#
# 1 77.9353 26.2062 33.4771 0.0000 0.0000 0.0000
# 2 26.2062 77.9363 33.4765 0.0000 0.0000 0.0000
# 3 33.4771 33.4765 141.9725 0.0000 0.0000 0.0000
# 4 0.0000 0.0000 0.0000 23.8482 0.0000 0.0000
# 5 0.0000 0.0000 0.0000 0.0000 23.8480 0.0000
# 6 0.0000 0.0000 0.0000 0.0000 0.0000 35.3024
#
#
#
# Elastic Compliance Matrix: (Units=1/GPa)
#
#
# Indices 1 2 3 4 5 6 
#
# 1 0.015325 -0.004007 -0.002669 0.000000 0.000000 0.000000
# 2 -0.004007 0.015325 -0.002669 0.000000 0.000000 0.000000
# 3 -0.002669 -0.002669 0.008302 0.000000 0.000000 0.000000
# 4 0.000000 0.000000 0.000000 0.041932 0.000000 0.000000
# 5 0.000000 0.000000 0.000000 0.000000 0.041932 0.000000
# 6 0.000000 0.000000 0.000000 0.000000 0.000000 0.028327
#
#
# Mechanical properties :
#
#
# Convention : Reuss Voigt Hill
#
# Bulk Modulus (GPa) = 49.35055 53.79597 51.57326
# Shear Modulus (GPa) = 28.31497 30.24534 29.28016
#
# Velocity S-wave (km/s) = 3.47738 3.59397 3.53616
# Velocity P-wave (km/s) = 6.09907 6.34005 6.22073
#
# Compressibility (1/GPa) = 0.02026320
#
# Stress axis : x y z
#
# Youngs Moduli (GPa) = 65.25362 65.25487 120.44999
#
# Poissons Ratio (x) = 0.26145 0.32146
# Poissons Ratio (y) = 0.26145 0.32144
# Poissons Ratio (z) = 0.17415 0.17415
#
# Static dielectric constant tensor:
#      x y z
#    x 1.929260 0.000000 0.000000 
#    y 0.000000 1.929260 0.000000 
#    z 0.000000 0.000000 1.898200 
# 
# From -- ./inp_files/377.got.cif
#   From: 2010.05.17/outbox.cif.g08.bks.cpg/sg94_1_cif.got.tgz:377.got - 2010.06.03 19:43:16.
