data_PCOD9550111
_publ_section_title
;
Structure prediction by ZEFSAII (Michael W. Deem and Ramdas Pophale) SiO2 
 PCOD9550111
Probable space group: P 42 21 2
;
_chemical_formula_sum "Si O2"
_cell_formula_units_Z 56
_cell_length_a 11.876483
_cell_length_b 11.876483
_cell_length_c 19.919622
_cell_angle_alpha 90.000000
_cell_angle_beta 90.000000
_cell_angle_gamma 90.000000
_cell_volume 2809.679584
_symmetry_space_group_name_H-M "P 42 21 2"
_symmetry_group_IT_number 94
_symmetry_cell_setting 'tetragonal'
loop_
_space_group_symop_operation_xyz
x,y,z
1/2-y,1/2+x,1/2+z
-x,-y,z
1/2+y,1/2-x,1/2+z
1/2+x,1/2-y,1/2-z
1/2-x,1/2+y,1/2-z
y,x,-z
-y,-x,-z
loop_
_atom_site_type_symbol
_atom_site_label
_atom_site_fract_x
_atom_site_fract_y
_atom_site_fract_z
Si Si1 0.881248 0.074751 0.809834
Si Si2 0.967223 0.663956 0.360876
Si Si3 0.598558 0.587265 0.838777
Si Si4 0.457473 0.870111 0.293249
Si Si5 0.374760 0.260329 0.563136
Si Si6 0.329800 0.114841 0.052656
Si Si7 0.652166 0.788508 0.914084
O O1 0.894831 0.135222 0.737238
O O2 0.874916 0.153913 0.874430
O O3 0.752894 0.021907 0.803659
O O4 0.000000 0.000000 0.816091
O O5 0.931894 0.627904 0.286165
O O6 0.860559 0.665023 0.409450
O O7 0.020287 0.787631 0.353567
O O8 0.073216 0.596520 0.392310
O O9 0.500000 0.500000 0.838377
O O10 0.582098 0.678037 0.896622
O O11 0.361212 0.855739 0.347855
O O12 0.500000 0.000000 0.306682
O O13 0.305032 0.305032 0.500000
O O14 0.504200 0.242653 0.542056
O O15 0.252338 0.219126 0.075396
O O16 0.384038 0.150094 0.981747
#
# Coordination Sequence:
#
# PCOD9550111 Si02
#       7
#     8   8   8   8   8   8   8
#     4  10  22  40  60  89 125 159 202 259 313 367
#     4  10  23  41  59  86 125 162 195 249 322 374
#     4   9  20  39  64  89 116 155 204 253 304 367
#     4  11  22  38  64  93 121 161 211 258 310 374
#     4  12  24  37  59  88 118 157 205 252 301 365
#     4  10  22  41  60  83 123 164 195 241 318 383
#     4  10  21  39  62  87 117 160 203 248 305 374
#
# _framework density 19.931096
#
# number of rings (size 3 to 8) (size 9 to 14) (size 15 to 20)
#    0.000    1.714    0.000    3.857    0.000    6.000 
#    0.000    9.286    0.000    0.000    0.000    0.000 
#    0.000    0.000    0.000    0.000    0.000    0.000 
#
# Total GULP energy -311869.896161 kJ/mol
# GULP energy per Si atom -5569.105289 kJ/mol
# Density = 1.988573 g / cm^3
# Si number density = 19.931096 Si / 1000 Ang^3
#
#
#
# Elastic Constant Matrix: (Units=GPa)
#
#
# Indices 1 2 3 4 5 6 
#
# 1 69.6732 19.0403 48.6275 0.0000 0.0000 0.0000
# 2 19.0403 69.6732 48.6275 0.0000 0.0000 0.0000
# 3 48.6275 48.6275 125.0810 0.0000 0.0000 0.0000
# 4 0.0000 0.0000 0.0000 2050.0077 0.0000 0.0000
# 5 0.0000 0.0000 0.0000 0.0000 2050.0077 0.0000
# 6 0.0000 0.0000 0.0000 0.0000 0.0000 16.5548
#
#
#
# Elastic Compliance Matrix: (Units=1/GPa)
#
#
# Indices 1 2 3 4 5 6 
#
# 1 0.019697 -0.000053 -0.007637 0.000000 0.000000 0.000000
# 2 -0.000053 0.019697 -0.007637 0.000000 0.000000 0.000000
# 3 -0.007637 -0.007637 0.013933 0.000000 0.000000 0.000000
# 4 0.000000 0.000000 0.000000 0.000488 0.000000 0.000000
# 5 0.000000 0.000000 0.000000 0.000000 0.000488 0.000000
# 6 0.000000 0.000000 0.000000 0.000000 0.000000 0.060405
#
#
# Mechanical properties :
#
#
# Convention : Reuss Voigt Hill
#
# Bulk Modulus (GPa) = 44.10407 55.22423 49.66415
# Shear Modulus (GPa) = 32.69656 833.18951 432.94304
#
# Velocity S-wave (km/s) = 4.05468 20.46808 14.75437
# Velocity P-wave (km/s) = 6.64055 24.21482 17.75464
#
# Compressibility (1/GPa) = 0.02267364
#
# Stress axis : x y z
#
# Youngs Moduli (GPa) = 50.76797 50.76797 71.77154
#
# Poissons Ratio (x) = 0.00267 0.54814
# Poissons Ratio (y) = 0.00267 0.54814
# Poissons Ratio (z) = 0.38773 0.38773
#
# Static dielectric constant tensor:
#      x y z
#    x -60.685680 0.000000 0.000000 
#    y 0.000000 -60.685680 0.000000 
#    z 0.000000 0.000000 1.686680 
# 
# From -- ./inp_files/4710.got.cif
#   From: 2010.05.17/outbox.cif.g08.bks.cpg/sg94_3_cif.got.tgz:4710.got - 2010.06.03 19:43:16.
