data_PCOD9550540
_publ_section_title
;
Structure prediction by ZEFSAII (Michael W. Deem and Ramdas Pophale) SiO2 
 PCOD9550540
Probable space group: P 43 2 2
;
_chemical_formula_sum "Si O2"
_cell_formula_units_Z 56
_cell_length_a 16.791237
_cell_length_b 16.791237
_cell_length_c 11.773329
_cell_angle_alpha 90.000000
_cell_angle_beta 90.000000
_cell_angle_gamma 90.000000
_cell_volume 3319.438780
_symmetry_space_group_name_H-M "P 43 2 2"
_symmetry_group_IT_number 95
_symmetry_cell_setting 'tetragonal'
loop_
_space_group_symop_operation_xyz
x,y,z
-y,x,3/4+z
-x,-y,1/2+z
y,-x,1/4+z
x,-y,1/2-z
-x,y,-z
y,x,1/4-z
-y,-x,3/4-z
loop_
_atom_site_type_symbol
_atom_site_label
_atom_site_fract_x
_atom_site_fract_y
_atom_site_fract_z
Si Si1 0.245593 0.345025 0.203972
Si Si2 0.591732 0.084192 0.024165
Si Si3 0.193104 0.402426 0.745230
Si Si4 0.128525 0.562942 0.981326
Si Si5 0.513588 0.700541 0.705283
Si Si6 0.945330 0.600673 0.398486
Si Si7 0.650617 0.364369 0.149039
O O1 0.273117 0.273117 0.125000
O O2 0.152102 0.356964 0.213592
O O3 0.285641 0.424095 0.147398
O O4 0.283883 0.335031 0.327308
O O5 0.601783 0.000557 0.962565
O O6 0.500000 0.107304 0.000000
O O7 0.602650 0.088667 0.159103
O O8 0.192812 0.500000 0.750000
O O9 0.150700 0.383286 0.626429
O O10 0.141111 0.370998 0.852692
O O11 0.283524 0.373475 0.753602
O O12 0.074882 0.488983 0.939601
O O13 0.213099 0.524681 0.019853
O O14 0.564628 0.670577 0.811842
O O15 0.441176 0.640592 0.683292
O O16 0.000000 0.636197 0.500000
#
# Coordination Sequence:
#
# PCOD9550540 Si02
#       7
#     8   8   8   8   8   8   8
#     4  10  21  34  53  74  96 129 172 232 270 316
#     4  12  19  32  53  76  97 127 167 210 268 321
#     4  10  22  37  47  73  99 131 166 217 280 319
#     4  11  21  35  50  73 102 127 159 217 270 330
#     4  11  20  37  54  68  95 130 184 225 283 313
#     4  11  21  31  54  77 100 122 157 221 268 328
#     4  11  21  37  54  66  95 136 174 237 270 322
#
# _framework density 16.870322000000002
#
# number of rings (size 3 to 8) (size 9 to 14) (size 15 to 20)
#    0.000    1.143    7.143    1.714    2.000    0.571 
#    0.000    5.714    0.000    0.000    0.000    0.000 
#    0.000    0.000    0.000    0.000    0.000    0.000 
#
# Total GULP energy -312412.336771 kJ/mol
# GULP energy per Si atom -5578.791728 kJ/mol
# Density = 1.683192 g / cm^3
# Si number density = 16.870322 Si / 1000 Ang^3
#
#
#
# Elastic Constant Matrix: (Units=GPa)
#
#
# Indices 1 2 3 4 5 6 
#
# 1 58.7043 11.2314 14.0626 0.0000 0.0000 0.0000
# 2 11.2314 58.7043 14.0626 0.0000 0.0000 0.0000
# 3 14.0626 14.0626 79.3309 0.0000 0.0000 0.0000
# 4 0.0000 0.0000 0.0000 16.7757 0.0000 0.0000
# 5 0.0000 0.0000 0.0000 0.0000 16.7757 0.0000
# 6 0.0000 0.0000 0.0000 0.0000 0.0000 5.9102
#
#
#
# Elastic Compliance Matrix: (Units=1/GPa)
#
#
# Indices 1 2 3 4 5 6 
#
# 1 0.018231 -0.002834 -0.002729 0.000000 0.000000 0.000000
# 2 -0.002834 0.018231 -0.002729 0.000000 0.000000 0.000000
# 3 -0.002729 -0.002729 0.013573 0.000000 0.000000 0.000000
# 4 0.000000 0.000000 0.000000 0.059610 0.000000 0.000000
# 5 0.000000 0.000000 0.000000 0.000000 0.059610 0.000000
# 6 0.000000 0.000000 0.000000 0.000000 0.000000 0.169200
#
#
# Mechanical properties :
#
#
# Convention : Reuss Voigt Hill
#
# Bulk Modulus (GPa) = 29.89634 30.60585 30.25109
# Shear Modulus (GPa) = 13.65414 18.38449 16.01932
#
# Velocity S-wave (km/s) = 2.84801 3.30472 3.08483
# Velocity P-wave (km/s) = 5.34552 5.72213 5.53703
#
# Compressibility (1/GPa) = 0.03344892
#
# Stress axis : x y z
#
# Youngs Moduli (GPa) = 54.85295 54.85295 73.67548
#
# Poissons Ratio (x) = 0.15546 0.20108
# Poissons Ratio (y) = 0.15546 0.20108
# Poissons Ratio (z) = 0.14971 0.14971
#
# Static dielectric constant tensor:
#      x y z
#    x 1.576160 0.000000 0.000000 
#    y 0.000000 1.576160 0.000000 
#    z 0.000000 0.000000 1.673660 
# 
# From -- ./inp_files/4045.got.cif
#   From: 2010.05.17/outbox.cif.g08.bks.cpg/sg95_3_cif.got.tgz:4045.got - 2010.06.03 19:46:49.
