data_PCOD9550280
_publ_section_title
;
Structure prediction by ZEFSAII (Michael W. Deem and Ramdas Pophale) SiO2 
 PCOD9550280
Probable space group: P 42 21 2
;
_chemical_formula_sum "Si O2"
_cell_formula_units_Z 60
_cell_length_a 11.392751
_cell_length_b 11.392751
_cell_length_c 20.706428
_cell_angle_alpha 90.000000
_cell_angle_beta 90.000000
_cell_angle_gamma 90.000000
_cell_volume 2687.586171
_symmetry_space_group_name_H-M "P 42 21 2"
_symmetry_group_IT_number 94
_symmetry_cell_setting 'tetragonal'
loop_
_space_group_symop_operation_xyz
x,y,z
1/2-y,1/2+x,1/2+z
-x,-y,z
1/2+y,1/2-x,1/2+z
1/2+x,1/2-y,1/2-z
1/2-x,1/2+y,1/2-z
y,x,-z
-y,-x,-z
loop_
_atom_site_type_symbol
_atom_site_label
_atom_site_fract_x
_atom_site_fract_y
_atom_site_fract_z
Si Si1 0.975923 0.365156 0.200084
Si Si2 0.119907 0.471460 0.944931
Si Si3 0.660147 0.786515 0.847241
Si Si4 0.500000 0.500000 0.348780
Si Si5 0.112522 0.201018 0.934486
Si Si6 0.579591 0.171966 0.920823
Si Si7 0.373601 0.559594 0.896525
Si Si8 0.340208 0.440727 0.770104
O O1 0.910610 0.353553 0.130880
O O2 0.912030 0.296112 0.256360
O O3 0.000000 0.500000 0.213640
O O4 0.105714 0.311667 0.199155
O O5 0.094247 0.334736 0.957913
O O6 0.253082 0.493494 0.918524
O O7 0.000000 0.500000 0.904917
O O8 0.122362 0.556157 0.008095
O O9 0.771270 0.777032 0.892353
O O10 0.550588 0.821659 0.891131
O O11 0.618395 0.673381 0.808594
O O12 0.384432 0.531125 0.390990
O O13 0.461532 0.398269 0.298865
O O14 0.131008 0.131008 0.000000
O O15 0.627292 0.305573 0.919892
O O16 0.500000 0.500000 0.916513
O O17 0.365959 0.547110 0.818870
#
# Coordination Sequence:
#
# PCOD9550280 Si02
#       8
#     8   8   8   4   8   8   8   8
#     4  10  25  42  70  99 140 195 240 296 386 453
#     4  12  27  47  74 111 158 194 250 332 385 455
#     4  11  21  44  70 102 137 192 245 313 378 453
#     4  12  27  46  70 108 147 202 252 320 370 474
#     4  12  25  47  74 104 146 204 259 308 383 460
#     4  11  23  45  72 105 145 197 251 309 383 458
#     4  12  25  46  75 118 146 195 259 315 387 452
#     4  12  24  44  72 106 148 183 251 317 375 459
#
# _framework density 22.324863000000001
#
# number of rings (size 3 to 8) (size 9 to 14) (size 15 to 20)
#    0.000    0.533    6.000    1.800    1.867    4.267 
#    0.000    1.333    0.000    0.000    0.000    0.000 
#    0.000    0.000    0.000    0.000    0.000    0.000 
#
# Total GULP energy -334427.306234 kJ/mol
# GULP energy per Si atom -5573.788437 kJ/mol
# Density = 2.227405 g / cm^3
# Si number density = 22.324863 Si / 1000 Ang^3
#
#
#
# Elastic Constant Matrix: (Units=GPa)
#
#
# Indices 1 2 3 4 5 6 
#
# 1 101.1008 34.6981 37.5728 0.0000 0.0000 0.0000
# 2 34.6981 101.1008 37.5728 0.0000 0.0000 0.0000
# 3 37.5728 37.5728 86.4318 0.0000 0.0000 0.0000
# 4 0.0000 0.0000 0.0000 7.3066 0.0000 0.0000
# 5 0.0000 0.0000 0.0000 0.0000 7.3066 0.0000
# 6 0.0000 0.0000 0.0000 0.0000 0.0000 32.3748
#
#
#
# Elastic Compliance Matrix: (Units=1/GPa)
#
#
# Indices 1 2 3 4 5 6 
#
# 1 0.012378 -0.002682 -0.004215 0.000000 0.000000 0.000000
# 2 -0.002682 0.012378 -0.004215 0.000000 0.000000 0.000000
# 3 -0.004215 -0.004215 0.015234 0.000000 0.000000 0.000000
# 4 0.000000 0.000000 0.000000 0.136863 0.000000 0.000000
# 5 0.000000 0.000000 0.000000 0.000000 0.136863 0.000000
# 6 0.000000 0.000000 0.000000 0.000000 0.000000 0.030888
#
#
# Mechanical properties :
#
#
# Convention : Reuss Voigt Hill
#
# Bulk Modulus (GPa) = 56.28489 56.48008 56.38248
# Shear Modulus (GPa) = 13.41379 21.31692 17.36536
#
# Velocity S-wave (km/s) = 2.45387 3.09342 2.79202
# Velocity P-wave (km/s) = 5.77019 6.17358 5.97529
#
# Compressibility (1/GPa) = 0.01776676
#
# Stress axis : x y z
#
# Youngs Moduli (GPa) = 80.78884 80.78884 65.64064
#
# Poissons Ratio (x) = 0.21665 0.27668
# Poissons Ratio (y) = 0.21665 0.27668
# Poissons Ratio (z) = 0.34053 0.34053
#
# Static dielectric constant tensor:
#      x y z
#    x 1.973140 0.000000 0.000000 
#    y 0.000000 1.973140 0.000000 
#    z 0.000000 0.000000 1.839050 
# 
# From -- ./inp_files/4800.got.cif
#   From: 2010.05.17/outbox.cif.g08.bks.cpg/sg94_3_cif.got.tgz:4800.got - 2010.06.03 19:43:16.
