data_PCOD9550438
_publ_section_title
;
Structure prediction by ZEFSAII (Michael W. Deem and Ramdas Pophale) SiO2 
 PCOD9550438
Probable space group: P 43 2 2
;
_chemical_formula_sum "Si O2"
_cell_formula_units_Z 32
_cell_length_a 11.292304
_cell_length_b 11.292304
_cell_length_c 13.192912
_cell_angle_alpha 90.000000
_cell_angle_beta 90.000000
_cell_angle_gamma 90.000000
_cell_volume 1682.309077
_symmetry_space_group_name_H-M "P 43 2 2"
_symmetry_group_IT_number 95
_symmetry_cell_setting 'tetragonal'
loop_
_space_group_symop_operation_xyz
x,y,z
-y,x,3/4+z
-x,-y,1/2+z
y,-x,1/4+z
x,-y,1/2-z
-x,y,-z
y,x,1/4-z
-y,-x,3/4-z
loop_
_atom_site_type_symbol
_atom_site_label
_atom_site_fract_x
_atom_site_fract_y
_atom_site_fract_z
Si Si1 0.136829 0.165233 0.970153
Si Si2 0.063843 0.292528 0.781668
Si Si3 0.289411 0.289411 0.125000
Si Si4 0.545880 0.010982 0.368291
Si Si5 0.500000 0.795098 0.500000
O O1 0.142510 0.207607 0.853205
O O2 0.186678 0.269221 0.042215
O O3 0.000000 0.145526 0.000000
O O4 0.211418 0.049311 0.001493
O O5 0.096253 0.360506 0.676617
O O6 0.039309 0.409039 0.852310
O O7 0.278412 0.409060 0.185603
O O8 0.564829 0.883444 0.421853
O O9 0.562603 0.000000 0.250000
#
# Coordination Sequence:
#
# PCOD9550438 Si02
#       5
#     8   8   4   8   4
#     4  12  18  34  56  89 116 150 197 232 290 350
#     4  10  21  33  57  86 119 154 196 242 286 351
#     4  12  20  36  62  88 110 152 202 244 292 354
#     4  10  18  38  58  86 112 153 204 246 284 345
#     4  10  20  34  60  88 106 154 192 254 286 350
#
# _framework density 19.021476
#
# number of rings (size 3 to 8) (size 9 to 14) (size 15 to 20)
#    0.000    1.500    7.500    2.250    0.000    0.000 
#    0.000    5.000    0.000    6.000    0.000    0.000 
#    0.000    0.000    0.000    0.000    0.000    0.000 
#
# Total GULP energy -178144.850428 kJ/mol
# GULP energy per Si atom -5567.026576 kJ/mol
# Density = 1.897818 g / cm^3
# Si number density = 19.021476 Si / 1000 Ang^3
#
#
#
# Elastic Constant Matrix: (Units=GPa)
#
#
# Indices 1 2 3 4 5 6 
#
# 1 68.8546 23.0058 32.0199 0.0000 0.0000 0.0000
# 2 23.0058 68.8546 32.0199 0.0000 0.0000 0.0000
# 3 32.0199 32.0199 179.8280 0.0000 0.0000 0.0000
# 4 0.0000 0.0000 0.0000 32.4539 0.0000 0.0000
# 5 0.0000 0.0000 0.0000 0.0000 32.4539 0.0000
# 6 0.0000 0.0000 0.0000 0.0000 0.0000 17.1023
#
#
#
# Elastic Compliance Matrix: (Units=1/GPa)
#
#
# Indices 1 2 3 4 5 6 
#
# 1 0.017120 -0.004691 -0.002213 0.000000 0.000000 0.000000
# 2 -0.004691 0.017120 -0.002213 0.000000 0.000000 0.000000
# 3 -0.002213 -0.002213 0.006349 0.000000 0.000000 0.000000
# 4 0.000000 0.000000 0.000000 0.030813 0.000000 0.000000
# 5 0.000000 0.000000 0.000000 0.000000 0.030813 0.000000
# 6 0.000000 0.000000 0.000000 0.000000 0.000000 0.058472
#
#
# Mechanical properties :
#
#
# Convention : Reuss Voigt Hill
#
# Bulk Modulus (GPa) = 44.73373 54.62540 49.67957
# Shear Modulus (GPa) = 26.82808 31.76814 29.29811
#
# Velocity S-wave (km/s) = 3.75962 4.09114 3.92888
# Velocity P-wave (km/s) = 6.51267 7.14820 6.83782
#
# Compressibility (1/GPa) = 0.02235450
#
# Stress axis : x y z
#
# Youngs Moduli (GPa) = 58.41164 58.41164 157.50551
#
# Poissons Ratio (x) = 0.27401 0.34857
# Poissons Ratio (y) = 0.27401 0.34857
# Poissons Ratio (z) = 0.12927 0.12927
#
# Static dielectric constant tensor:
#      x y z
#    x 1.716770 0.000000 0.000000 
#    y 0.000000 1.716770 0.000000 
#    z 0.000000 0.000000 1.718660 
# 
# From -- ./inp_files/4603.got.cif
#   From: 2010.05.17/outbox.cif.g08.bks.cpg/sg95_3_cif.got.tgz:4603.got - 2010.06.03 19:46:49.
