data_PCOD9550706
_publ_section_title
;
Structure prediction by ZEFSAII (Michael W. Deem and Ramdas Pophale) SiO2 
 PCOD9550706
Probable space group: P 43 21 2
;
_chemical_formula_sum "Si O2"
_cell_formula_units_Z 28
_cell_length_a 6.976961
_cell_length_b 6.976961
_cell_length_c 18.621438
_cell_angle_alpha 90.000000
_cell_angle_beta 90.000000
_cell_angle_gamma 90.000000
_cell_volume 906.454076
_symmetry_space_group_name_H-M "P 43 21 2"
_symmetry_group_IT_number 96
_symmetry_cell_setting 'tetragonal'
loop_
_space_group_symop_operation_xyz
x,y,z
1/2-y,1/2+x,3/4+z
-x,-y,1/2+z
1/2+y,1/2-x,1/4+z
1/2+x,1/2-y,1/4-z
1/2-x,1/2+y,3/4-z
y,x,-z
-y,-x,1/2-z
loop_
_atom_site_type_symbol
_atom_site_label
_atom_site_fract_x
_atom_site_fract_y
_atom_site_fract_z
Si Si1 0.546778 0.706224 0.341919
Si Si2 0.075361 0.924640 0.250000
Si Si3 0.257988 0.520920 0.646340
Si Si4 0.030189 0.385522 0.274294
O O1 0.764623 0.712061 0.370524
O O2 0.499856 0.484982 0.341049
O O3 0.966857 0.646095 0.475116
O O4 0.532274 0.788825 0.264031
O O5 0.093506 0.775626 0.317308
O O6 0.609506 0.971408 0.140039
O O7 0.427094 0.652089 0.478324
#
# Coordination Sequence:
#
# PCOD9550706 Si02
#       4
#     8   4   8   8
#     4  10  18  29  52  83 107 143 194 229 277 341
#     4   8  16  24  42  78  98 126 182 220 256 328
#     4  10  15  28  47  78 105 136 187 225 273 333
#     4  10  17  31  51  80 109 145 190 231 281 338
#
# _framework density 30.889597999999999
#
# number of rings (size 3 to 8) (size 9 to 14) (size 15 to 20)
#    0.000    2.286    8.571    0.000    0.000    0.000 
#    0.000    0.000    0.000   13.714    0.000   40.000 
#    0.000    0.000    0.000    0.000    0.000    0.000 
#
# Total GULP energy -155877.764663 kJ/mol
# GULP energy per Si atom -5567.063024 kJ/mol
# Density = 3.081929 g / cm^3
# Si number density = 30.889598 Si / 1000 Ang^3
#
#
#
# Elastic Constant Matrix: (Units=GPa)
#
#
# Indices 1 2 3 4 5 6 
#
# 1 84.2352 -16.1672 52.0764 0.0000 0.0000 0.0000
# 2 -16.1672 84.2351 52.0762 0.0000 0.0000 0.0000
# 3 52.0764 52.0762 188.0922 0.0000 0.0000 0.0000
# 4 0.0000 0.0000 0.0000 71.9762 0.0000 0.0000
# 5 0.0000 0.0000 0.0000 0.0000 71.9762 0.0000
# 6 0.0000 0.0000 0.0000 0.0000 0.0000 19.6408
#
#
#
# Elastic Compliance Matrix: (Units=1/GPa)
#
#
# Indices 1 2 3 4 5 6 
#
# 1 0.017725 0.007765 -0.007057 0.000000 0.000000 0.000000
# 2 0.007765 0.017725 -0.007057 0.000000 0.000000 0.000000
# 3 -0.007057 -0.007057 0.009224 0.000000 0.000000 0.000000
# 4 0.000000 0.000000 0.000000 0.013893 0.000000 0.000000
# 5 0.000000 0.000000 0.000000 0.000000 0.013893 0.000000
# 6 0.000000 0.000000 0.000000 0.000000 0.000000 0.050914
#
#
# Mechanical properties :
#
#
# Convention : Reuss Voigt Hill
#
# Bulk Modulus (GPa) = 31.27470 59.17036 45.22253
# Shear Modulus (GPa) = 34.07561 50.62377 42.34969
#
# Velocity S-wave (km/s) = 3.32496 4.05268 3.70672
# Velocity P-wave (km/s) = 4.98870 6.41061 5.74383
#
# Compressibility (1/GPa) = 0.03197472
#
# Stress axis : x y z
#
# Youngs Moduli (GPa) = 56.41831 56.41825 108.40902
#
# Poissons Ratio (x) = -0.43808 0.76506
# Poissons Ratio (y) = -0.43808 0.76506
# Poissons Ratio (z) = 0.39815 0.39815
#
# Static dielectric constant tensor:
#      x y z
#    x 2.546130 0.000000 0.000000 
#    y 0.000000 2.546130 0.000000 
#    z 0.000000 0.000000 2.774510 
# 
# From -- ./inp_files/3285.got.cif
#   From: 2010.05.17/outbox.cif.g08.bks.cpg/sg96_2_cif.got.tgz:3285.got - 2010.06.03 19:52:08.
