data_PCOD9550893
_publ_section_title
;
Structure prediction by ZEFSAII (Michael W. Deem and Ramdas Pophale) SiO2 
 PCOD9550893
Probable space group: P 43 21 2
;
_chemical_formula_sum "Si O2"
_cell_formula_units_Z 52
_cell_length_a 17.549932
_cell_length_b 17.549932
_cell_length_c 8.787560
_cell_angle_alpha 90.000000
_cell_angle_beta 90.000000
_cell_angle_gamma 90.000000
_cell_volume 2706.569475
_symmetry_space_group_name_H-M "P 43 21 2"
_symmetry_group_IT_number 96
_symmetry_cell_setting 'tetragonal'
loop_
_space_group_symop_operation_xyz
x,y,z
1/2-y,1/2+x,3/4+z
-x,-y,1/2+z
1/2+y,1/2-x,1/4+z
1/2+x,1/2-y,1/4-z
1/2-x,1/2+y,3/4-z
y,x,-z
-y,-x,1/2-z
loop_
_atom_site_type_symbol
_atom_site_label
_atom_site_fract_x
_atom_site_fract_y
_atom_site_fract_z
Si Si1 0.837549 0.635447 0.838288
Si Si2 0.748199 0.251802 0.750000
Si Si3 0.241901 0.359522 0.013807
Si Si4 0.240044 0.536897 0.946119
Si Si5 0.410174 0.015233 0.292178
Si Si6 0.859493 0.856640 0.174040
Si Si7 0.896549 0.721465 0.364362
O O1 0.782931 0.667276 0.973718
O O2 0.788652 0.641832 0.685629
O O3 0.915258 0.684056 0.809006
O O4 0.865668 0.550803 0.868372
O O5 0.707028 0.294017 0.890285
O O6 0.326484 0.326484 0.000000
O O7 0.235212 0.446956 0.964391
O O8 0.188390 0.302348 0.917050
O O9 0.220689 0.558150 0.773429
O O10 0.322280 0.572833 0.989103
O O11 0.474952 0.052216 0.396204
O O12 0.346715 0.075210 0.241965
O O13 0.910257 0.803119 0.281952
O O14 0.880770 0.880770 0.000000
#
# Coordination Sequence:
#
# PCOD9550893 Si02
#       7
#     8   4   8   8   8   8   8
#     4  10  21  37  61  85 129 164 209 252 314 363
#     4   8  16  32  56  86 110 156 210 254 272 362
#     4  11  23  38  62  88 123 161 204 257 312 361
#     4  10  21  38  61  86 120 161 204 255 307 370
#     4  12  27  37  57  89 136 175 204 251 319 391
#     4   9  19  35  64  86 114 151 214 256 302 354
#     4  11  22  39  60  92 116 167 215 253 294 373
#
# _framework density 19.212513000000001
#
# number of rings (size 3 to 8) (size 9 to 14) (size 15 to 20)
#    0.462    1.231    0.000    6.000    8.615    1.231 
#    0.000    0.000    0.000    1.846    2.000    0.000 
#    0.000    0.000    0.000    0.000    0.000    0.000 
#
# Total GULP energy -289730.422913 kJ/mol
# GULP energy per Si atom -5571.738902 kJ/mol
# Density = 1.916878 g / cm^3
# Si number density = 19.212513 Si / 1000 Ang^3
#
#
#
# Elastic Constant Matrix: (Units=GPa)
#
#
# Indices 1 2 3 4 5 6 
#
# 1 38.5840 39.2777 23.7108 0.0000 0.0000 0.0000
# 2 39.2777 38.5827 23.7105 0.0000 0.0000 0.0000
# 3 23.7108 23.7105 65.9589 0.0000 0.0000 0.0000
# 4 0.0000 0.0000 0.0000 25.4100 0.0000 0.0000
# 5 0.0000 0.0000 0.0000 0.0000 25.4101 0.0000
# 6 0.0000 0.0000 0.0000 0.0000 0.0000 27.0006
#
#
#
# Elastic Compliance Matrix: (Units=1/GPa)
#
#
# Indices 1 2 3 4 5 6 
#
# 1 -0.711877 0.728335 -0.005913 0.000000 0.000000 0.000000
# 2 0.728335 -0.711905 -0.005909 0.000000 0.000000 0.000000
# 3 -0.005913 -0.005909 0.019411 0.000000 0.000000 0.000000
# 4 0.000000 0.000000 0.000000 0.039355 0.000000 0.000000
# 5 0.000000 0.000000 0.000000 0.000000 0.039354 0.000000
# 6 0.000000 0.000000 0.000000 0.000000 0.000000 0.037036
#
#
# Mechanical properties :
#
#
# Convention : Reuss Voigt Hill
#
# Bulk Modulus (GPa) = 34.89969 35.16929 35.03449
# Shear Modulus (GPa) = -1.84359 19.32592 8.74116
#
# Velocity S-wave (km/s) = -0.98064 3.17504 2.13532
# Velocity P-wave (km/s) = 4.11367 5.63793 4.93501
#
# Compressibility (1/GPa) = 0.02865355
#
# Stress axis : x y z
#
# Youngs Moduli (GPa) = -1.40474 -1.40468 51.51796
#
# Poissons Ratio (x) = 1.02308 0.30464
# Poissons Ratio (y) = 1.02312 0.30441
# Poissons Ratio (z) = -0.00831 -0.00830
#
# Static dielectric constant tensor:
#      x y z
#    x 1.721470 0.000000 0.000000 
#    y 0.000000 1.721470 0.000000 
#    z 0.000000 0.000000 1.705120 
# 
# From -- ./inp_files/1589.got.cif
#   From: 2010.05.17/outbox.cif.g08.bks.cpg/sg96_1_cif.got.tgz:1589.got - 2010.06.03 19:52:08.
