data_PCOD9550590
_publ_section_title
;
Structure prediction by ZEFSAII (Michael W. Deem and Ramdas Pophale) SiO2 
 PCOD9550590
Probable space group: P 43 2 2
;
_chemical_formula_sum "Si O2"
_cell_formula_units_Z 40
_cell_length_a 14.388269
_cell_length_b 14.388269
_cell_length_c 9.431938
_cell_angle_alpha 90.000000
_cell_angle_beta 90.000000
_cell_angle_gamma 90.000000
_cell_volume 1952.621355
_symmetry_space_group_name_H-M "P 43 2 2"
_symmetry_group_IT_number 95
_symmetry_cell_setting 'tetragonal'
loop_
_space_group_symop_operation_xyz
x,y,z
-y,x,3/4+z
-x,-y,1/2+z
y,-x,1/4+z
x,-y,1/2-z
-x,y,-z
y,x,1/4-z
-y,-x,3/4-z
loop_
_atom_site_type_symbol
_atom_site_label
_atom_site_fract_x
_atom_site_fract_y
_atom_site_fract_z
Si Si1 0.513606 0.841186 0.342037
Si Si2 0.735420 0.154389 0.580397
Si Si3 0.694180 0.612647 0.477168
Si Si4 0.109564 0.282501 0.505754
Si Si5 0.500000 0.401185 0.500000
Si Si6 0.000000 0.631519 0.500000
O O1 0.500000 0.807281 0.500000
O O2 0.480520 0.755334 0.248376
O O3 0.619393 0.869522 0.319137
O O4 0.440511 0.925700 0.318575
O O5 0.690929 0.231758 0.683718
O O6 0.703547 0.147299 0.416349
O O7 0.839854 0.193232 0.563092
O O8 0.699474 0.057412 0.646175
O O9 0.641082 0.641082 0.625000
O O10 0.644783 0.588401 0.328857
O O11 0.000000 0.267860 0.500000
O O12 0.538398 0.461603 0.375000
#
# Coordination Sequence:
#
# PCOD9550590 Si02
#       6
#     8   8   8   8   4   4
#     4  11  22  37  65  99 131 169 226 282 341 411
#     4  10  24  42  67  99 135 173 227 289 353 418
#     4  11  25  42  67  94 132 179 233 284 360 413
#     4  11  22  41  70  98 136 176 224 286 355 423
#     4  12  28  44  62  88 132 188 232 284 338 428
#     4  10  22  40  62 100 132 176 220 284 340 416
#
# _framework density 20.485281000000001
#
# number of rings (size 3 to 8) (size 9 to 14) (size 15 to 20)
#    0.000    1.200    1.000    4.200    8.400    3.200 
#    0.000    0.000    8.800    0.000    0.000    0.000 
#    0.000    0.000    0.000    0.000    0.000    0.000 
#
# Total GULP energy -222822.918236 kJ/mol
# GULP energy per Si atom -5570.572956 kJ/mol
# Density = 2.043866 g / cm^3
# Si number density = 20.485281 Si / 1000 Ang^3
#
#
#
# Elastic Constant Matrix: (Units=GPa)
#
#
# Indices 1 2 3 4 5 6 
#
# 1 60.4412 39.1055 15.8451 0.0000 0.0000 0.0000
# 2 39.1055 60.4402 15.8443 0.0000 0.0000 0.0000
# 3 15.8451 15.8443 93.2837 0.0000 0.0000 0.0000
# 4 0.0000 0.0000 0.0000 38.2740 0.0000 0.0000
# 5 0.0000 0.0000 0.0000 0.0000 38.2754 0.0000
# 6 0.0000 0.0000 0.0000 0.0000 0.0000 30.1711
#
#
#
# Elastic Compliance Matrix: (Units=1/GPa)
#
#
# Indices 1 2 3 4 5 6 
#
# 1 0.028745 -0.018125 -0.001804 0.000000 0.000000 0.000000
# 2 -0.018125 0.028745 -0.001804 0.000000 0.000000 0.000000
# 3 -0.001804 -0.001804 0.011333 0.000000 0.000000 0.000000
# 4 0.000000 0.000000 0.000000 0.026127 0.000000 0.000000
# 5 0.000000 0.000000 0.000000 0.000000 0.026126 0.000000
# 6 0.000000 0.000000 0.000000 0.000000 0.000000 0.033144
#
#
# Mechanical properties :
#
#
# Convention : Reuss Voigt Hill
#
# Bulk Modulus (GPa) = 39.43669 39.52829 39.48249
# Shear Modulus (GPa) = 24.25534 30.90212 27.57873
#
# Velocity S-wave (km/s) = 3.44472 3.88816 3.67314
# Velocity P-wave (km/s) = 5.92575 6.28450 6.10776
#
# Compressibility (1/GPa) = 0.02535710
#
# Stress axis : x y z
#
# Youngs Moduli (GPa) = 34.78849 34.78810 88.23972
#
# Poissons Ratio (x) = 0.63055 0.15918
# Poissons Ratio (y) = 0.63056 0.15915
# Poissons Ratio (z) = 0.06276 0.06275
#
# Static dielectric constant tensor:
#      x y z
#    x 1.272510 0.000000 0.000000 
#    y 0.000000 1.272680 0.000000 
#    z 0.000000 0.000000 1.861890 
# 
# From -- ./inp_files/2455.got.cif
#   From: 2010.05.17/outbox.cif.g08.bks.cpg/sg95_2_cif.got.tgz:2455.got - 2010.06.03 19:46:49.
