data_PCOD9550181
_publ_section_title
;
Structure prediction by ZEFSAII (Michael W. Deem and Ramdas Pophale) SiO2 
 PCOD9550181
Probable space group: P 42 21 2
;
_chemical_formula_sum "Si O2"
_cell_formula_units_Z 48
_cell_length_a 8.257785
_cell_length_b 8.257785
_cell_length_c 32.211453
_cell_angle_alpha 90.000000
_cell_angle_beta 90.000000
_cell_angle_gamma 90.000000
_cell_volume 2196.531614
_symmetry_space_group_name_H-M "P 42 21 2"
_symmetry_group_IT_number 94
_symmetry_cell_setting 'tetragonal'
loop_
_space_group_symop_operation_xyz
x,y,z
1/2-y,1/2+x,1/2+z
-x,-y,z
1/2+y,1/2-x,1/2+z
1/2+x,1/2-y,1/2-z
1/2-x,1/2+y,1/2-z
y,x,-z
-y,-x,-z
loop_
_atom_site_type_symbol
_atom_site_label
_atom_site_fract_x
_atom_site_fract_y
_atom_site_fract_z
Si Si1 0.697889 0.177257 0.900042
Si Si2 0.691178 0.308823 0.500000
Si Si3 0.000000 0.500000 0.528734
Si Si4 0.500000 0.000000 0.328624
Si Si5 0.699003 0.704456 0.791910
Si Si6 0.447438 0.332255 0.706109
Si Si7 0.500000 0.500000 0.430133
Si Si8 0.943900 0.684189 0.352669
O O1 0.613436 0.097403 0.860354
O O2 0.876562 0.104795 0.904038
O O3 0.722089 0.366603 0.891391
O O4 0.602880 0.118490 0.940848
O O5 0.620759 0.124822 0.495326
O O6 0.618435 0.397955 0.459695
O O7 0.366950 0.900990 0.302513
O O8 0.635616 0.626986 0.749671
O O9 0.884835 0.745498 0.784067
O O10 0.709843 0.582489 0.830757
O O11 0.500000 0.500000 0.684688
O O12 0.343933 0.202315 0.680430
O O13 0.000000 0.500000 0.362856
#
# Coordination Sequence:
#
# PCOD9550181 Si02
#       8
#     8   4   4   4   8   8   4   8
#     4  10  22  41  64  98 132 171 212 260 333 391
#     4   9  18  42  70 107 134 168 221 260 315 386
#     4   9  20  42  72 108 137 176 212 264 323 394
#     4  11  26  40  62  86 133 170 210 278 337 392
#     4  11  26  41  61  89 119 172 225 284 341 389
#     4  11  24  40  64  84 117 164 226 286 334 393
#     4   9  20  38  74  94 128 176 218 252 306 400
#     4  10  24  41  61  93 124 165 223 278 329 399
#
# _framework density 21.852632
#
# number of rings (size 3 to 8) (size 9 to 14) (size 15 to 20)
#    0.000    1.833    0.000    2.000   16.333    0.000 
#    1.500    1.667    0.000    7.000    0.000    0.000 
#    0.000    0.000    0.000    0.000    0.000    0.000 
#
# Total GULP energy -268107.951988 kJ/mol
# GULP energy per Si atom -5585.582333 kJ/mol
# Density = 2.180289 g / cm^3
# Si number density = 21.852632 Si / 1000 Ang^3
#
#
#
# Elastic Constant Matrix: (Units=GPa)
#
#
# Indices 1 2 3 4 5 6 
#
# 1 101.8903 37.8616 25.6710 0.0000 0.0000 0.0000
# 2 37.8616 101.8898 25.6708 0.0000 0.0000 0.0000
# 3 25.6710 25.6708 45.7691 0.0000 0.0000 0.0000
# 4 0.0000 0.0000 0.0000 52.5227 0.0000 0.0000
# 5 0.0000 0.0000 0.0000 0.0000 52.5225 0.0000
# 6 0.0000 0.0000 0.0000 0.0000 0.0000 40.3318
#
#
#
# Elastic Compliance Matrix: (Units=1/GPa)
#
#
# Indices 1 2 3 4 5 6 
#
# 1 0.012315 -0.003303 -0.005055 0.000000 0.000000 0.000000
# 2 -0.003303 0.012315 -0.005055 0.000000 0.000000 0.000000
# 3 -0.005055 -0.005055 0.027519 0.000000 0.000000 0.000000
# 4 0.000000 0.000000 0.000000 0.019039 0.000000 0.000000
# 5 0.000000 0.000000 0.000000 0.000000 0.019039 0.000000
# 6 0.000000 0.000000 0.000000 0.000000 0.000000 0.024794
#
#
# Mechanical properties :
#
#
# Convention : Reuss Voigt Hill
#
# Bulk Modulus (GPa) = 39.48732 47.55066 43.51899
# Shear Modulus (GPa) = 33.26900 39.76512 36.51706
#
# Velocity S-wave (km/s) = 3.90606 4.27042 4.09229
# Velocity P-wave (km/s) = 6.20098 6.79133 6.50286
#
# Compressibility (1/GPa) = 0.02532459
#
# Stress axis : x y z
#
# Youngs Moduli (GPa) = 81.19957 81.19937 36.33818
#
# Poissons Ratio (x) = 0.26818 0.18369
# Poissons Ratio (y) = 0.26818 0.18369
# Poissons Ratio (z) = 0.41047 0.41046
#
# Static dielectric constant tensor:
#      x y z
#    x 1.822050 0.000000 0.000000 
#    y 0.000000 1.822050 0.000000 
#    z 0.000000 0.000000 1.786880 
# 
# From -- ./inp_files/5686.got.cif
#   From: 2010.05.17/outbox.cif.g08.bks.cpg/sg94_3_cif.got.tgz:5686.got - 2010.06.03 19:43:16.
