data_PCOD9550877
_publ_section_title
;
Structure prediction by ZEFSAII (Michael W. Deem and Ramdas Pophale) SiO2 
 PCOD9550877
Probable space group: P 43 21 2
;
_chemical_formula_sum "Si O2"
_cell_formula_units_Z 60
_cell_length_a 16.177051
_cell_length_b 16.177051
_cell_length_c 9.451936
_cell_angle_alpha 90.000000
_cell_angle_beta 90.000000
_cell_angle_gamma 90.000000
_cell_volume 2473.543097
_symmetry_space_group_name_H-M "P 43 21 2"
_symmetry_group_IT_number 96
_symmetry_cell_setting 'tetragonal'
loop_
_space_group_symop_operation_xyz
x,y,z
1/2-y,1/2+x,3/4+z
-x,-y,1/2+z
1/2+y,1/2-x,1/4+z
1/2+x,1/2-y,1/4-z
1/2-x,1/2+y,3/4-z
y,x,-z
-y,-x,1/2-z
loop_
_atom_site_type_symbol
_atom_site_label
_atom_site_fract_x
_atom_site_fract_y
_atom_site_fract_z
Si Si1 0.747290 0.015851 0.373572
Si Si2 0.261301 0.795817 0.399466
Si Si3 0.499228 0.267640 0.443845
Si Si4 0.680013 0.549132 0.753960
Si Si5 0.334438 0.046906 0.622981
Si Si6 0.925652 0.501183 0.039460
Si Si7 0.894883 0.105118 0.250000
Si Si8 0.676146 0.331797 0.399408
O O1 0.803287 0.082859 0.296794
O O2 0.751769 0.040146 0.538543
O O3 0.667030 0.999587 0.275096
O O4 0.792437 0.925981 0.350500
O O5 0.218219 0.781781 0.250000
O O6 0.214588 0.857887 0.501465
O O7 0.354013 0.830966 0.384691
O O8 0.277376 0.709045 0.472957
O O9 0.462022 0.318801 0.575555
O O10 0.513505 0.171942 0.491092
O O11 0.579089 0.321449 0.405859
O O12 0.750134 0.485192 0.700881
O O13 0.601566 0.549517 0.646223
O O14 0.415515 0.035026 0.530209
O O15 0.933666 0.520265 0.206129
O O16 0.705049 0.294951 0.250000
#
# Coordination Sequence:
#
# PCOD9550877 Si02
#       8
#     8   8   8   8   8   8   4   8
#     4   9  22  42  70  93 131 174 222 280 342 416
#     4  11  22  35  64  92 123 170 219 272 332 401
#     4  11  22  43  67  96 132 174 227 284 330 414
#     4  11  23  40  64  94 137 171 222 287 336 404
#     4  10  20  45  60  86 131 175 217 271 335 405
#     4  12  26  42  63  97 133 180 230 280 344 406
#     4  10  24  42  62 100 136 172 216 278 358 400
#     4   9  21  43  66  92 126 174 230 268 337 412
#
# _framework density 24.256703000000002
#
# number of rings (size 3 to 8) (size 9 to 14) (size 15 to 20)
#    0.000    1.600    2.667    0.800    4.667    0.000 
#    2.400    4.000    0.000    0.000    0.000    0.000 
#    0.000    0.000    0.000    0.000    0.000    0.000 
#
# Total GULP energy -334275.546349 kJ/mol
# GULP energy per Si atom -5571.259106 kJ/mol
# Density = 2.420149 g / cm^3
# Si number density = 24.256703 Si / 1000 Ang^3
#
#
#
# Elastic Constant Matrix: (Units=GPa)
#
#
# Indices 1 2 3 4 5 6 
#
# 1 4.4601 24.5894 8.2513 0.0000 0.0000 0.0000
# 2 24.5894 4.4617 8.2509 0.0000 0.0000 0.0000
# 3 8.2513 8.2509 169.5101 0.0000 0.0000 0.0000
# 4 0.0000 0.0000 0.0000 34.6064 0.0000 0.0000
# 5 0.0000 0.0000 0.0000 0.0000 34.6054 0.0000
# 6 0.0000 0.0000 0.0000 0.0000 0.0000 8.7539
#
#
#
# Elastic Compliance Matrix: (Units=1/GPa)
#
#
# Indices 1 2 3 4 5 6 
#
# 1 -0.007141 0.042541 -0.001723 0.000000 0.000000 0.000000
# 2 0.042541 -0.007138 -0.001723 0.000000 0.000000 0.000000
# 3 -0.001723 -0.001723 0.006067 0.000000 0.000000 0.000000
# 4 0.000000 0.000000 0.000000 0.028896 0.000000 0.000000
# 5 0.000000 0.000000 0.000000 0.000000 0.028897 0.000000
# 6 0.000000 0.000000 0.000000 0.000000 0.000000 0.114234
#
#
# Mechanical properties :
#
#
# Convention : Reuss Voigt Hill
#
# Bulk Modulus (GPa) = 14.29021 28.95723 21.62372
# Shear Modulus (GPa) = 45.89159 24.74917 35.32038
#
# Velocity S-wave (km/s) = 4.35433 3.19768 3.82004
# Velocity P-wave (km/s) = 5.58429 5.05938 5.32830
#
# Compressibility (1/GPa) = 0.06997799
#
# Stress axis : x y z
#
# Youngs Moduli (GPa) = -140.03857 -140.09566 164.82300
#
# Poissons Ratio (x) = 5.95985 0.28400
# Poissons Ratio (y) = 5.95743 0.28405
# Poissons Ratio (z) = -0.24130 -0.24144
#
# Static dielectric constant tensor:
#      x y z
#    x 1.947970 0.000000 0.000000 
#    y 0.000000 1.947960 0.000000 
#    z 0.000000 0.000000 2.104100 
# 
# From -- ./inp_files/1611.got.cif
#   From: 2010.05.17/outbox.cif.g08.bks.cpg/sg96_1_cif.got.tgz:1611.got - 2010.06.03 19:52:08.
