data_PCOD9550027
_publ_section_title
;
Structure prediction by ZEFSAII (Michael W. Deem and Ramdas Pophale) SiO2 
 PCOD9550027
Probable space group: P 42 21 2
;
_chemical_formula_sum "Si O2"
_cell_formula_units_Z 48
_cell_length_a 9.959855
_cell_length_b 9.959855
_cell_length_c 18.238892
_cell_angle_alpha 90.000000
_cell_angle_beta 90.000000
_cell_angle_gamma 90.000000
_cell_volume 1809.274588
_symmetry_space_group_name_H-M "P 42 21 2"
_symmetry_group_IT_number 94
_symmetry_cell_setting 'tetragonal'
loop_
_space_group_symop_operation_xyz
x,y,z
1/2-y,1/2+x,1/2+z
-x,-y,z
1/2+y,1/2-x,1/2+z
1/2+x,1/2-y,1/2-z
1/2-x,1/2+y,1/2-z
y,x,-z
-y,-x,-z
loop_
_atom_site_type_symbol
_atom_site_label
_atom_site_fract_x
_atom_site_fract_y
_atom_site_fract_z
Si Si1 0.923570 0.300924 0.511880
Si Si2 0.322005 0.441209 0.323119
Si Si3 0.156172 0.545396 0.855781
Si Si4 0.778781 0.499699 0.703153
Si Si5 0.713044 0.504393 0.481196
Si Si6 0.786839 0.509556 0.171418
O O1 0.802868 0.197133 0.500000
O O2 0.012853 0.304181 0.438350
O O3 0.850201 0.448732 0.517216
O O4 0.994514 0.251208 0.586009
O O5 0.459823 0.360476 0.333616
O O6 0.278067 0.523406 0.394019
O O7 0.309245 0.503014 0.242392
O O8 0.201086 0.332422 0.333590
O O9 0.238631 0.477177 0.790563
O O10 0.000000 0.500000 0.844300
O O11 0.843927 0.358076 0.682266
O O12 0.894934 0.602915 0.681685
O O13 0.652837 0.652837 0.500000
O O14 0.596148 0.403853 0.500000
#
# Coordination Sequence:
#
# PCOD9550027 Si02
#       6
#     8   8   8   8   8   8
#     4  11  22  36  59  85 121 164 204 255 319 376
#     4  11  21  37  64  87 123 165 206 262 323 386
#     4  11  20  39  62  90 123 157 212 264 315 384
#     4  10  20  37  58  87 118 159 202 256 319 375
#     4  10  21  36  56  91 127 159 205 268 325 382
#     4  10  21  37  57  87 119 157 209 258 303 397
#
# _framework density 26.529966999999999
#
# number of rings (size 3 to 8) (size 9 to 14) (size 15 to 20)
#    0.000    1.500    5.000    2.000    2.333    2.667 
#    0.000    1.667    0.000    6.000    0.000    0.000 
#    0.000    0.000    0.000    0.000    0.000    0.000 
#
# Total GULP energy -268220.516850 kJ/mol
# GULP energy per Si atom -5587.927434 kJ/mol
# Density = 2.646958 g / cm^3
# Si number density = 26.529967 Si / 1000 Ang^3
#
#
#
# Elastic Constant Matrix: (Units=GPa)
#
#
# Indices 1 2 3 4 5 6 
#
# 1 47.6170 1.8652 10.3122 0.0000 0.0000 0.0000
# 2 1.8652 47.6166 10.3115 0.0000 0.0000 0.0000
# 3 10.3122 10.3115 198.8795 0.0000 0.0000 0.0000
# 4 0.0000 0.0000 0.0000 28.2402 0.0000 0.0000
# 5 0.0000 0.0000 0.0000 0.0000 28.2409 0.0000
# 6 0.0000 0.0000 0.0000 0.0000 0.0000 31.0935
#
#
#
# Elastic Compliance Matrix: (Units=1/GPa)
#
#
# Indices 1 2 3 4 5 6 
#
# 1 0.021256 -0.000601 -0.001071 0.000000 0.000000 0.000000
# 2 -0.000601 0.021257 -0.001071 0.000000 0.000000 0.000000
# 3 -0.001071 -0.001071 0.005139 0.000000 0.000000 0.000000
# 4 0.000000 0.000000 0.000000 0.035411 0.000000 0.000000
# 5 0.000000 0.000000 0.000000 0.000000 0.035410 0.000000
# 6 0.000000 0.000000 0.000000 0.000000 0.000000 0.032161
#
#
# Mechanical properties :
#
#
# Convention : Reuss Voigt Hill
#
# Bulk Modulus (GPa) = 23.71538 37.67677 30.69607
# Shear Modulus (GPa) = 29.38164 35.62320 32.50242
#
# Velocity S-wave (km/s) = 3.33151 3.66834 3.50397
# Velocity P-wave (km/s) = 4.87412 5.67227 5.28828
#
# Compressibility (1/GPa) = 0.04216673
#
# Stress axis : x y z
#
# Youngs Moduli (GPa) = 47.04473 47.04439 194.58156
#
# Poissons Ratio (x) = 0.02826 0.20840
# Poissons Ratio (y) = 0.02826 0.20839
# Poissons Ratio (z) = 0.05039 0.05038
#
# Static dielectric constant tensor:
#      x y z
#    x 2.172240 0.000000 0.000000 
#    y 0.000000 2.172250 0.000000 
#    z 0.000000 0.000000 2.094890 
# 
# From -- ./inp_files/4092.got.cif
#   From: 2010.05.17/outbox.cif.g08.bks.cpg/sg94_3_cif.got.tgz:4092.got - 2010.06.03 19:43:16.
