data_PCOD9550247
_publ_section_title
;
Structure prediction by ZEFSAII (Michael W. Deem and Ramdas Pophale) SiO2 
 PCOD9550247
Probable space group: P 42 21 2
;
_chemical_formula_sum "Si O2"
_cell_formula_units_Z 48
_cell_length_a 8.652794
_cell_length_b 8.652794
_cell_length_c 28.148834
_cell_angle_alpha 90.000000
_cell_angle_beta 90.000000
_cell_angle_gamma 90.000000
_cell_volume 2107.526959
_symmetry_space_group_name_H-M "P 42 21 2"
_symmetry_group_IT_number 94
_symmetry_cell_setting 'tetragonal'
loop_
_space_group_symop_operation_xyz
x,y,z
1/2-y,1/2+x,1/2+z
-x,-y,z
1/2+y,1/2-x,1/2+z
1/2+x,1/2-y,1/2-z
1/2-x,1/2+y,1/2-z
y,x,-z
-y,-x,-z
loop_
_atom_site_type_symbol
_atom_site_label
_atom_site_fract_x
_atom_site_fract_y
_atom_site_fract_z
Si Si1 0.700164 0.096691 0.202059
Si Si2 0.121571 0.748505 0.275213
Si Si3 0.821593 0.524981 0.470013
Si Si4 0.208926 0.772827 0.890450
Si Si5 0.404982 0.728159 0.426857
Si Si6 0.962753 0.319436 0.651737
O O1 0.850433 0.177792 0.223757
O O2 0.557369 0.208718 0.215937
O O3 0.697431 0.088125 0.145451
O O4 0.690523 0.924153 0.221777
O O5 0.214824 0.864527 0.311080
O O6 0.788326 0.686770 0.443692
O O7 0.712662 0.403490 0.442336
O O8 0.785399 0.488289 0.524807
O O9 0.000000 0.500000 0.462764
O O10 0.373916 0.749830 0.865326
O O11 0.176504 0.954806 0.893569
O O12 0.328051 0.863604 0.396791
O O13 0.000000 0.500000 0.667135
#
# Coordination Sequence:
#
# PCOD9550247 Si02
#       6
#     8   8   8   8   8   8
#     4  11  27  45  70 105 138 186 232 299 352 440
#     4  11  26  47  71  99 146 180 240 289 366 422
#     4  11  23  41  67 100 137 180 237 294 355 427
#     4  11  23  40  67  99 130 177 231 282 355 418
#     4  10  23  43  67  96 138 184 231 294 355 428
#     4  10  23  43  70  97 136 182 231 288 351 425
#
# _framework density 22.775507999999999
#
# number of rings (size 3 to 8) (size 9 to 14) (size 15 to 20)
#    0.000    1.333    0.000    4.500   11.667    5.333 
#    0.000    0.000    0.000    0.000    0.000    0.000 
#    0.000    0.000    0.000    0.000    0.000    0.000 
#
# Total GULP energy -268040.364113 kJ/mol
# GULP energy per Si atom -5584.174252 kJ/mol
# Density = 2.272367 g / cm^3
# Si number density = 22.775508 Si / 1000 Ang^3
#
#
#
# Elastic Constant Matrix: (Units=GPa)
#
#
# Indices 1 2 3 4 5 6 
#
# 1 80.6237 37.4520 23.1837 0.0000 0.0000 0.0000
# 2 37.4520 80.6237 23.1837 0.0000 0.0000 0.0000
# 3 23.1837 23.1837 112.9206 0.0000 0.0000 0.0000
# 4 0.0000 0.0000 0.0000 34.6814 0.0000 0.0000
# 5 0.0000 0.0000 0.0000 0.0000 34.6814 0.0000
# 6 0.0000 0.0000 0.0000 0.0000 0.0000 31.5316
#
#
#
# Elastic Compliance Matrix: (Units=1/GPa)
#
#
# Indices 1 2 3 4 5 6 
#
# 1 0.016188 -0.006976 -0.001891 0.000000 0.000000 0.000000
# 2 -0.006976 0.016188 -0.001891 0.000000 0.000000 0.000000
# 3 -0.001891 -0.001891 0.009632 0.000000 0.000000 0.000000
# 4 0.000000 0.000000 0.000000 0.028834 0.000000 0.000000
# 5 0.000000 0.000000 0.000000 0.000000 0.028834 0.000000
# 6 0.000000 0.000000 0.000000 0.000000 0.000000 0.031714
#
#
# Mechanical properties :
#
#
# Convention : Reuss Voigt Hill
#
# Bulk Modulus (GPa) = 48.80210 49.08966 48.94588
# Shear Modulus (GPa) = 31.30155 32.86878 32.08516
#
# Velocity S-wave (km/s) = 3.71125 3.80302 3.75741
# Velocity P-wave (km/s) = 6.31177 6.39409 6.35307
#
# Compressibility (1/GPa) = 0.02049092
#
# Stress axis : x y z
#
# Youngs Moduli (GPa) = 61.77572 61.77572 103.81655
#
# Poissons Ratio (x) = 0.43093 0.19635
# Poissons Ratio (y) = 0.43093 0.19635
# Poissons Ratio (z) = 0.11684 0.11684
#
# Static dielectric constant tensor:
#      x y z
#    x 1.864240 0.000000 0.000000 
#    y 0.000000 1.864240 0.000000 
#    z 0.000000 0.000000 1.852130 
# 
# From -- ./inp_files/5550.got.cif
#   From: 2010.05.17/outbox.cif.g08.bks.cpg/sg94_3_cif.got.tgz:5550.got - 2010.06.03 19:43:16.
