data_PCOD9550569
_publ_section_title
;
Structure prediction by ZEFSAII (Michael W. Deem and Ramdas Pophale) SiO2 
 PCOD9550569
Probable space group: P 43 2 2
;
_chemical_formula_sum "Si O2"
_cell_formula_units_Z 44
_cell_length_a 8.107769
_cell_length_b 8.107769
_cell_length_c 26.978876
_cell_angle_alpha 90.000000
_cell_angle_beta 90.000000
_cell_angle_gamma 90.000000
_cell_volume 1773.481185
_symmetry_space_group_name_H-M "P 43 2 2"
_symmetry_group_IT_number 95
_symmetry_cell_setting 'tetragonal'
loop_
_space_group_symop_operation_xyz
x,y,z
-y,x,3/4+z
-x,-y,1/2+z
y,-x,1/4+z
x,-y,1/2-z
-x,y,-z
y,x,1/4-z
-y,-x,3/4-z
loop_
_atom_site_type_symbol
_atom_site_label
_atom_site_fract_x
_atom_site_fract_y
_atom_site_fract_z
Si Si1 0.252715 0.625920 0.426561
Si Si2 0.341021 0.888739 0.160046
Si Si3 0.006465 0.151661 0.814121
Si Si4 0.790108 0.397834 0.340444
Si Si5 0.561776 0.500000 0.250000
Si Si6 0.036474 0.222398 0.289081
O O1 0.356171 0.643830 0.375000
O O2 0.202470 0.814942 0.436583
O O3 0.362934 0.542301 0.468969
O O4 0.060766 0.562466 0.421993
O O5 0.459641 0.766800 0.130737
O O6 0.232911 0.808843 0.203884
O O7 0.211214 0.924875 0.115709
O O8 0.054352 0.244057 0.763810
O O9 0.028152 0.958429 0.805417
O O10 0.758250 0.241751 0.375000
O O11 0.673677 0.419157 0.293253
O O12 0.976334 0.375802 0.321183
#
# Coordination Sequence:
#
# PCOD9550569 Si02
#       6
#     8   8   8   8   4   8
#     4   9  21  42  68 100 131 177 220 276 330 405
#     4  10  22  42  69  93 134 176 231 268 339 407
#     4   9  19  40  71  97 122 177 227 266 326 406
#     4  12  27  42  62  99 135 177 214 283 344 390
#     4  12  26  42  64 100 146 172 226 278 350 404
#     4  10  21  41  69  97 129 169 223 280 329 403
#
# _framework density 24.809964000000001
#
# number of rings (size 3 to 8) (size 9 to 14) (size 15 to 20)
#    0.000    1.818    0.000    4.364    5.091    2.909 
#    6.545    0.000    0.000    0.000    0.000    0.000 
#    0.000    0.000    0.000    0.000    0.000    0.000 
#
# Total GULP energy -245168.773446 kJ/mol
# GULP energy per Si atom -5572.017578 kJ/mol
# Density = 2.475350 g / cm^3
# Si number density = 24.809964 Si / 1000 Ang^3
#
#
#
# Elastic Constant Matrix: (Units=GPa)
#
#
# Indices 1 2 3 4 5 6 
#
# 1 42.4171 29.3498 46.0865 0.0000 0.0000 0.0000
# 2 29.3498 42.4184 46.0861 0.0000 0.0000 0.0000
# 3 46.0865 46.0861 140.5581 0.0000 0.0000 0.0000
# 4 0.0000 0.0000 0.0000 43.8804 0.0000 0.0000
# 5 0.0000 0.0000 0.0000 0.0000 43.8801 0.0000
# 6 0.0000 0.0000 0.0000 0.0000 0.0000 31.3174
#
#
#
# Elastic Compliance Matrix: (Units=1/GPa)
#
#
# Indices 1 2 3 4 5 6 
#
# 1 0.050298 -0.026227 -0.007893 0.000000 0.000000 0.000000
# 2 -0.026227 0.050295 -0.007891 0.000000 0.000000 0.000000
# 3 -0.007893 -0.007891 0.012290 0.000000 0.000000 0.000000
# 4 0.000000 0.000000 0.000000 0.022789 0.000000 0.000000
# 5 0.000000 0.000000 0.000000 0.000000 0.022789 0.000000
# 6 0.000000 0.000000 0.000000 0.000000 0.000000 0.031931
#
#
# Mechanical properties :
#
#
# Convention : Reuss Voigt Hill
#
# Bulk Modulus (GPa) = 34.64856 52.04871 43.34864
# Shear Modulus (GPa) = 17.60349 30.74031 24.17190
#
# Velocity S-wave (km/s) = 2.66660 3.52381 3.12473
# Velocity P-wave (km/s) = 4.84529 6.13032 5.52529
#
# Compressibility (1/GPa) = 0.02886123
#
# Stress axis : x y z
#
# Youngs Moduli (GPa) = 19.88148 19.88268 81.36857
#
# Poissons Ratio (x) = 0.52146 0.64221
# Poissons Ratio (y) = 0.52143 0.64211
# Poissons Ratio (z) = 0.15692 0.15690
#
# Static dielectric constant tensor:
#      x y z
#    x 2.055900 0.000000 0.000000 
#    y 0.000000 2.055900 0.000000 
#    z 0.000000 0.000000 2.067380 
# 
# From -- ./inp_files/7798.got.cif
#   From: 2010.05.17/outbox.cif.g08.bks.cpg/sg95_4_cif.got.tgz:7798.got - 2010.06.03 19:46:49.
