data_PCOD9550596
_publ_section_title
;
Structure prediction by ZEFSAII (Michael W. Deem and Ramdas Pophale) SiO2 
 PCOD9550596
Probable space group: P 43 2 2
;
_chemical_formula_sum "Si O2"
_cell_formula_units_Z 48
_cell_length_a 8.847741
_cell_length_b 8.847741
_cell_length_c 27.206275
_cell_angle_alpha 90.000000
_cell_angle_beta 90.000000
_cell_angle_gamma 90.000000
_cell_volume 2129.775789
_symmetry_space_group_name_H-M "P 43 2 2"
_symmetry_group_IT_number 95
_symmetry_cell_setting 'tetragonal'
loop_
_space_group_symop_operation_xyz
x,y,z
-y,x,3/4+z
-x,-y,1/2+z
y,-x,1/4+z
x,-y,1/2-z
-x,y,-z
y,x,1/4-z
-y,-x,3/4-z
loop_
_atom_site_type_symbol
_atom_site_label
_atom_site_fract_x
_atom_site_fract_y
_atom_site_fract_z
Si Si1 0.737595 0.429905 0.506815
Si Si2 0.319700 0.500000 0.250000
Si Si3 0.792732 0.114393 0.983371
Si Si4 0.252019 0.816152 0.079874
Si Si5 0.757834 0.602770 0.168339
Si Si6 0.826080 0.972637 0.409847
Si Si7 0.000000 0.364543 0.000000
O O1 0.608869 0.548549 0.525842
O O2 0.813740 0.324081 0.548068
O O3 0.666623 0.313786 0.468181
O O4 0.867771 0.528201 0.480073
O O5 0.195587 0.362098 0.252733
O O6 0.860657 0.040845 0.032947
O O7 0.902665 0.250613 0.965902
O O8 0.772682 0.980428 0.944580
O O9 0.427971 0.785471 0.078035
O O10 0.187662 0.801671 0.134448
O O11 0.643565 0.643565 0.125000
O O12 0.915705 0.684082 0.156887
O O13 0.949868 0.050133 0.375000
#
# Coordination Sequence:
#
# PCOD9550596 Si02
#       7
#     8   4   8   8   8   8   4
#     4  11  23  44  70 103 137 188 243 285 368 432
#     4  10  22  40  72 104 136 192 228 286 380 430
#     4  11  23  46  68 102 149 185 237 304 367 437
#     4  12  25  43  75 103 140 194 241 295 373 440
#     4  11  25  45  69 104 143 181 242 303 352 443
#     4  11  26  42  68 104 140 188 244 296 359 428
#     4  10  26  38  70 100 140 182 234 298 356 424
#
# _framework density 22.537586000000001
#
# number of rings (size 3 to 8) (size 9 to 14) (size 15 to 20)
#    0.000    1.000    3.333    2.000    9.333    0.667 
#    0.000    0.000    0.000    0.000    0.000    0.000 
#    0.000    0.000    0.000    0.000    0.000    0.000 
#
# Total GULP energy -267301.105826 kJ/mol
# GULP energy per Si atom -5568.773038 kJ/mol
# Density = 2.248629 g / cm^3
# Si number density = 22.537586 Si / 1000 Ang^3
#
#
#
# Elastic Constant Matrix: (Units=GPa)
#
#
# Indices 1 2 3 4 5 6 
#
# 1 117.8613 49.3099 15.4561 0.0000 0.0000 0.0000
# 2 49.3099 117.8613 15.4561 0.0000 0.0000 0.0000
# 3 15.4561 15.4561 75.3583 0.0000 0.0000 0.0000
# 4 0.0000 0.0000 0.0000 23.3483 0.0000 0.0000
# 5 0.0000 0.0000 0.0000 0.0000 23.3482 0.0000
# 6 0.0000 0.0000 0.0000 0.0000 0.0000 24.9846
#
#
#
# Elastic Compliance Matrix: (Units=1/GPa)
#
#
# Indices 1 2 3 4 5 6 
#
# 1 0.010403 -0.004185 -0.001275 0.000000 0.000000 0.000000
# 2 -0.004185 0.010403 -0.001275 0.000000 0.000000 0.000000
# 3 -0.001275 -0.001275 0.013793 0.000000 0.000000 0.000000
# 4 0.000000 0.000000 0.000000 0.042830 0.000000 0.000000
# 5 0.000000 0.000000 0.000000 0.000000 0.042830 0.000000
# 6 0.000000 0.000000 0.000000 0.000000 0.000000 0.040025
#
#
# Mechanical properties :
#
#
# Convention : Reuss Voigt Hill
#
# Bulk Modulus (GPa) = 47.33186 52.39168 49.86177
# Shear Modulus (GPa) = 27.65549 29.72681 28.69115
#
# Velocity S-wave (km/s) = 3.50677 3.63573 3.57183
# Velocity P-wave (km/s) = 6.11911 6.39699 6.25959
#
# Compressibility (1/GPa) = 0.02112742
#
# Stress axis : x y z
#
# Youngs Moduli (GPa) = 96.12938 96.12932 72.50030
#
# Poissons Ratio (x) = 0.40230 0.09246
# Poissons Ratio (y) = 0.40230 0.09246
# Poissons Ratio (z) = 0.12259 0.12259
#
# Static dielectric constant tensor:
#      x y z
#    x 1.891470 0.000000 0.000000 
#    y 0.000000 1.891470 0.000000 
#    z 0.000000 0.000000 1.861910 
# 
# From -- ./inp_files/8024.got.cif
#   From: 2010.05.17/outbox.cif.g08.bks.cpg/sg95_5_cif.got.tgz:8024.got - 2010.06.03 19:46:49.
