data_PCOD9550426
_publ_section_title
;
Structure prediction by ZEFSAII (Michael W. Deem and Ramdas Pophale) SiO2 
 PCOD9550426
Probable space group: P 43 2 2
;
_chemical_formula_sum "Si O2"
_cell_formula_units_Z 48
_cell_length_a 17.214296
_cell_length_b 17.214296
_cell_length_c 9.986307
_cell_angle_alpha 90.000000
_cell_angle_beta 90.000000
_cell_angle_gamma 90.000000
_cell_volume 2959.262194
_symmetry_space_group_name_H-M "P 43 2 2"
_symmetry_group_IT_number 95
_symmetry_cell_setting 'tetragonal'
loop_
_space_group_symop_operation_xyz
x,y,z
-y,x,3/4+z
-x,-y,1/2+z
y,-x,1/4+z
x,-y,1/2-z
-x,y,-z
y,x,1/4-z
-y,-x,3/4-z
loop_
_atom_site_type_symbol
_atom_site_label
_atom_site_fract_x
_atom_site_fract_y
_atom_site_fract_z
Si Si1 0.144408 0.922345 0.161410
Si Si2 0.056220 0.696792 0.725582
Si Si3 0.874041 0.352806 0.765970
Si Si4 0.200985 0.799016 0.375000
Si Si5 0.565110 0.092360 0.727173
Si Si6 0.000000 0.917126 0.000000
Si Si7 0.394838 0.907131 0.777030
O O1 0.212887 0.942899 0.058911
O O2 0.182407 0.862376 0.262353
O O3 0.123342 0.000000 0.250000
O O4 0.074294 0.882874 0.078141
O O5 0.097958 0.641349 0.615514
O O6 0.964591 0.675100 0.726006
O O7 0.097355 0.672675 0.863427
O O8 0.817015 0.284390 0.811803
O O9 0.869438 0.419372 0.878669
O O10 0.864931 0.378063 0.612697
O O11 0.480812 0.116087 0.671469
O O12 0.559158 0.000000 0.750000
O O13 0.035932 0.964069 0.875000
O O14 0.398427 0.000000 0.750000
#
# Coordination Sequence:
#
# PCOD9550426 Si02
#       7
#     8   8   8   4   8   4   8
#     4  12  22  39  51  66  89 122 174 226 273 313
#     4  10  18  32  52  71  93 117 153 212 282 315
#     4  10  19  31  48  70  93 130 155 200 252 319
#     4  12  22  36  52  62  94 130 174 210 262 322
#     4   9  15  30  51  72  96 123 146 192 267 337
#     4  12  26  40  54  68  80 118 182 234 278 300
#     4   9  18  29  48  78  99 111 149 203 267 333
#
# _framework density 16.220258999999999
#
# number of rings (size 3 to 8) (size 9 to 14) (size 15 to 20)
#    0.000    1.667    4.167    2.500    0.000    5.333 
#    3.000    0.000    0.000    0.000    0.000    0.000 
#    0.000    0.000    0.000    0.000    0.000    0.000 
#
# Total GULP energy -267219.290653 kJ/mol
# GULP energy per Si atom -5567.068555 kJ/mol
# Density = 1.618334 g / cm^3
# Si number density = 16.220259 Si / 1000 Ang^3
#
#
#
# Elastic Constant Matrix: (Units=GPa)
#
#
# Indices 1 2 3 4 5 6 
#
# 1 51.4602 4.8958 16.3808 0.0000 0.0000 0.0000
# 2 4.8958 51.4591 16.3802 0.0000 0.0000 0.0000
# 3 16.3808 16.3802 79.3629 0.0000 0.0000 0.0000
# 4 0.0000 0.0000 0.0000 16.2165 0.0000 0.0000
# 5 0.0000 0.0000 0.0000 0.0000 16.2166 0.0000
# 6 0.0000 0.0000 0.0000 0.0000 0.0000 -11.4334
#
#
#
# Elastic Compliance Matrix: (Units=1/GPa)
#
#
# Indices 1 2 3 4 5 6 
#
# 1 0.020820 -0.000656 -0.004162 0.000000 0.000000 0.000000
# 2 -0.000656 0.020820 -0.004162 0.000000 0.000000 0.000000
# 3 -0.004162 -0.004162 0.014318 0.000000 0.000000 0.000000
# 4 0.000000 0.000000 0.000000 0.061666 0.000000 0.000000
# 5 0.000000 0.000000 0.000000 0.000000 0.061665 0.000000
# 6 0.000000 0.000000 0.000000 0.000000 0.000000 -0.087463
#
#
# Mechanical properties :
#
#
# Convention : Reuss Voigt Hill
#
# Bulk Modulus (GPa) = 26.31660 28.62176 27.46918
# Shear Modulus (GPa) = 40.83250 13.84163 27.33706
#
# Velocity S-wave (km/s) = 5.02279 2.92439 4.10977
# Velocity P-wave (km/s) = 7.06383 5.39321 6.28428
#
# Compressibility (1/GPa) = 0.03799883
#
# Stress axis : x y z
#
# Youngs Moduli (GPa) = 48.03144 48.03050 69.84052
#
# Poissons Ratio (x) = 0.03151 0.29067
# Poissons Ratio (y) = 0.03151 0.29066
# Poissons Ratio (z) = 0.19990 0.19989
#
# Static dielectric constant tensor:
#      x y z
#    x 1.559310 0.000000 0.000000 
#    y 0.000000 1.559320 0.000000 
#    z 0.000000 0.000000 1.641700 
# 
# From -- ./inp_files/2673.got.cif
#   From: 2010.05.17/outbox.cif.g08.bks.cpg/sg95_2_cif.got.tgz:2673.got - 2010.06.03 19:46:49.
