data_PCOD9550866
_publ_section_title
;
Structure prediction by ZEFSAII (Michael W. Deem and Ramdas Pophale) SiO2 
 PCOD9550866
Probable space group: P 43 21 2
;
_chemical_formula_sum "Si O2"
_cell_formula_units_Z 40
_cell_length_a 17.099976
_cell_length_b 17.099976
_cell_length_c 5.546408
_cell_angle_alpha 90.000000
_cell_angle_beta 90.000000
_cell_angle_gamma 90.000000
_cell_volume 1621.820611
_symmetry_space_group_name_H-M "P 43 21 2"
_symmetry_group_IT_number 96
_symmetry_cell_setting 'tetragonal'
loop_
_space_group_symop_operation_xyz
x,y,z
1/2-y,1/2+x,3/4+z
-x,-y,1/2+z
1/2+y,1/2-x,1/4+z
1/2+x,1/2-y,1/4-z
1/2-x,1/2+y,3/4-z
y,x,-z
-y,-x,1/2-z
loop_
_atom_site_type_symbol
_atom_site_label
_atom_site_fract_x
_atom_site_fract_y
_atom_site_fract_z
Si Si1 0.390209 0.802616 0.606208
Si Si2 0.913308 0.913308 0.000000
Si Si3 0.254814 0.110816 0.358576
Si Si4 0.078917 0.921084 0.750000
Si Si5 0.190751 0.435181 0.323094
Si Si6 0.737843 0.566548 0.326603
O O1 0.351006 0.762374 0.373670
O O2 0.387929 0.894057 0.528347
O O3 0.475436 0.764553 0.645516
O O4 0.351650 0.785626 0.864062
O O5 0.836112 0.911434 0.834434
O O6 0.993103 0.911019 0.856048
O O7 0.303332 0.028946 0.400142
O O8 0.082350 0.853571 0.548399
O O9 0.215989 0.406599 0.588278
O O10 0.246489 0.407367 0.103879
#
# Coordination Sequence:
#
# PCOD9550866 Si02
#       6
#     8   4   8   4   8   8
#     4  10  20  42  68  96 138 177 220 285 349 420
#     4  12  26  42  72 100 140 192 242 312 352 424
#     4  10  23  42  65 104 132 176 239 279 344 428
#     4  12  26  42  72 100 140 192 242 312 352 424
#     4  10  20  42  68  96 138 177 220 285 349 420
#     4  10  23  42  65 104 132 176 239 279 344 428
#
# _framework density 24.663643
#
# number of rings (size 3 to 8) (size 9 to 14) (size 15 to 20)
#    0.000    1.600    4.000    1.200    5.600    1.600 
#    0.000    4.000    0.000   38.400    0.000    0.000 
#    0.000    0.000    0.000    0.000    0.000    0.000 
#
# Total GULP energy -222919.301888 kJ/mol
# GULP energy per Si atom -5572.982547 kJ/mol
# Density = 2.460751 g / cm^3
# Si number density = 24.663643 Si / 1000 Ang^3
#
#
#
# Elastic Constant Matrix: (Units=GPa)
#
#
# Indices 1 2 3 4 5 6 
#
# 1 46.6555 35.3220 23.8087 0.0000 0.0000 0.0000
# 2 35.3220 46.6570 23.8081 0.0000 0.0000 0.0000
# 3 23.8087 23.8081 241.5527 0.0000 0.0000 0.0000
# 4 0.0000 0.0000 0.0000 18.4522 0.0000 0.0000
# 5 0.0000 0.0000 0.0000 0.0000 18.4627 0.0000
# 6 0.0000 0.0000 0.0000 0.0000 0.0000 18.8233
#
#
#
# Elastic Compliance Matrix: (Units=1/GPa)
#
#
# Indices 1 2 3 4 5 6 
#
# 1 0.050585 -0.037645 -0.001276 0.000000 0.000000 0.000000
# 2 -0.037645 0.050583 -0.001275 0.000000 0.000000 0.000000
# 3 -0.001276 -0.001275 0.004391 0.000000 0.000000 0.000000
# 4 0.000000 0.000000 0.000000 0.054194 0.000000 0.000000
# 5 0.000000 0.000000 0.000000 0.000000 0.054163 0.000000
# 6 0.000000 0.000000 0.000000 0.000000 0.000000 0.053126
#
#
# Mechanical properties :
#
#
# Convention : Reuss Voigt Hill
#
# Bulk Modulus (GPa) = 39.73265 55.63808 47.68537
# Shear Modulus (GPa) = 14.05197 27.94275 20.99736
#
# Velocity S-wave (km/s) = 2.38952 3.36959 2.92095
# Velocity P-wave (km/s) = 4.87420 6.14382 5.54547
#
# Compressibility (1/GPa) = 0.02516822
#
# Stress axis : x y z
#
# Youngs Moduli (GPa) = 19.76881 19.76952 227.72373
#
# Poissons Ratio (x) = 0.74422 0.29047
# Poissons Ratio (y) = 0.74419 0.29038
# Poissons Ratio (z) = 0.02522 0.02521
#
# Static dielectric constant tensor:
#      x y z
#    x 2.108560 0.000000 0.000000 
#    y 0.000000 2.108530 0.000000 
#    z 0.000000 0.000000 2.036610 
# 
# From -- ./inp_files/436.got.cif
#   From: 2010.05.17/outbox.cif.g08.bks.cpg/sg96_1_cif.got.tgz:436.got - 2010.06.03 19:52:08.
