data_PCOD9550521
_publ_section_title
;
Structure prediction by ZEFSAII (Michael W. Deem and Ramdas Pophale) SiO2 
 PCOD9550521
Probable space group: P 43 2 2
;
_chemical_formula_sum "Si O2"
_cell_formula_units_Z 36
_cell_length_a 12.278799
_cell_length_b 12.278799
_cell_length_c 11.542204
_cell_angle_alpha 90.000000
_cell_angle_beta 90.000000
_cell_angle_gamma 90.000000
_cell_volume 1740.205457
_symmetry_space_group_name_H-M "P 43 2 2"
_symmetry_group_IT_number 95
_symmetry_cell_setting 'tetragonal'
loop_
_space_group_symop_operation_xyz
x,y,z
-y,x,3/4+z
-x,-y,1/2+z
y,-x,1/4+z
x,-y,1/2-z
-x,y,-z
y,x,1/4-z
-y,-x,3/4-z
loop_
_atom_site_type_symbol
_atom_site_label
_atom_site_fract_x
_atom_site_fract_y
_atom_site_fract_z
Si Si1 0.732150 0.576446 0.506365
Si Si2 0.500000 0.657650 0.500000
Si Si3 0.204812 0.200464 0.907459
Si Si4 0.800153 0.044853 0.446580
Si Si5 0.647027 0.808179 0.190363
O O1 0.605533 0.586088 0.466873
O O2 0.726091 0.542299 0.640795
O O3 0.784598 0.694004 0.486379
O O4 0.793078 0.481354 0.437638
O O5 0.105369 0.209644 0.817964
O O6 0.309642 0.196761 0.821880
O O7 0.194407 0.082820 0.963810
O O8 0.902687 0.097314 0.375000
O O9 0.697051 0.084527 0.369535
O O10 0.708975 0.708975 0.125000
#
# Coordination Sequence:
#
# PCOD9550521 Si02
#       5
#     8   4   8   8   8
#     4  11  21  39  63  98 126 180 214 271 338 404
#     4  10  24  38  62  88 142 172 206 276 332 398
#     4  10  20  39  69  93 134 172 227 274 341 398
#     4   9  19  38  69  97 126 180 223 291 330 394
#     4   9  19  33  61  99 130 169 227 275 323 397
#
# _framework density 20.687214000000001
#
# number of rings (size 3 to 8) (size 9 to 14) (size 15 to 20)
#    0.000    2.667    2.222    2.667    3.111    3.556 
#    0.000    2.222   19.556    0.000    0.000    0.000 
#    0.000    0.000    0.000    0.000    0.000    0.000 
#
# Total GULP energy -200927.679665 kJ/mol
# GULP energy per Si atom -5581.324435 kJ/mol
# Density = 2.064013 g / cm^3
# Si number density = 20.687214 Si / 1000 Ang^3
#
#
#
# Elastic Constant Matrix: (Units=GPa)
#
#
# Indices 1 2 3 4 5 6 
#
# 1 85.0403 105.5263 39.1048 0.0000 0.0000 0.0000
# 2 105.5263 85.0403 39.1030 0.0000 0.0000 0.0000
# 3 39.1048 39.1030 73.3861 0.0000 0.0000 0.0000
# 4 0.0000 0.0000 0.0000 6.6144 0.0000 0.0000
# 5 0.0000 0.0000 0.0000 0.0000 6.6148 0.0000
# 6 0.0000 0.0000 0.0000 0.0000 0.0000 0.2176
#
#
#
# Elastic Compliance Matrix: (Units=1/GPa)
#
#
# Indices 1 2 3 4 5 6 
#
# 1 -0.021049 0.027765 -0.003578 0.000000 0.000000 0.000000
# 2 0.027765 -0.021049 -0.003580 0.000000 0.000000 0.000000
# 3 -0.003578 -0.003580 0.017440 0.000000 0.000000 0.000000
# 4 0.000000 0.000000 0.000000 0.151185 0.000000 0.000000
# 5 0.000000 0.000000 0.000000 0.000000 0.151176 0.000000
# 6 0.000000 0.000000 0.000000 0.000000 0.000000 4.596193
#
#
# Mechanical properties :
#
#
# Convention : Reuss Voigt Hill
#
# Bulk Modulus (GPa) = 60.39418 67.88164 64.13791
# Shear Modulus (GPa) = 1.03344 6.67153 3.85249
#
# Velocity S-wave (km/s) = 0.70756 1.79776 1.36613
# Velocity P-wave (km/s) = 5.47036 6.09868 5.79304
#
# Compressibility (1/GPa) = 0.01655789
#
# Stress axis : x y z
#
# Youngs Moduli (GPa) = -47.50783 -47.50926 57.33802
#
# Poissons Ratio (x) = 1.31910 0.20515
# Poissons Ratio (y) = 1.31906 0.20524
# Poissons Ratio (z) = -0.16998 -0.17006
#
# Static dielectric constant tensor:
#      x y z
#    x 1.752770 0.000000 0.000000 
#    y 0.000000 1.752760 0.000000 
#    z 0.000000 0.000000 1.777250 
# 
# From -- ./inp_files/3571.got.cif
#   From: 2010.05.17/outbox.cif.g08.bks.cpg/sg95_2_cif.got.tgz:3571.got - 2010.06.03 19:46:49.
