data_PCOD9550384
_publ_section_title
;
Structure prediction by ZEFSAII (Michael W. Deem and Ramdas Pophale) SiO2 
 PCOD9550384
Probable space group: P 42 21 2
;
_chemical_formula_sum "Si O2"
_cell_formula_units_Z 38
_cell_length_a 9.823135
_cell_length_b 9.823135
_cell_length_c 17.414151
_cell_angle_alpha 90.000000
_cell_angle_beta 90.000000
_cell_angle_gamma 90.000000
_cell_volume 1680.360760
_symmetry_space_group_name_H-M "P 42 21 2"
_symmetry_group_IT_number 94
_symmetry_cell_setting 'tetragonal'
loop_
_space_group_symop_operation_xyz
x,y,z
1/2-y,1/2+x,1/2+z
-x,-y,z
1/2+y,1/2-x,1/2+z
1/2+x,1/2-y,1/2-z
1/2-x,1/2+y,1/2-z
y,x,-z
-y,-x,-z
loop_
_atom_site_type_symbol
_atom_site_label
_atom_site_fract_x
_atom_site_fract_y
_atom_site_fract_z
Si Si1 0.695472 0.572609 0.081166
Si Si2 0.118169 0.688395 0.305359
Si Si3 0.173024 0.197207 0.330066
Si Si4 0.000000 0.500000 0.543411
Si Si5 0.000000 0.000000 0.000000
Si Si6 0.039619 0.721469 0.919148
O O1 0.671026 0.684334 0.145829
O O2 0.859229 0.551506 0.079627
O O3 0.630662 0.630662 0.000000
O O4 0.050466 0.625033 0.992004
O O5 0.361982 0.570800 0.114016
O O6 0.144297 0.561152 0.361167
O O7 0.961243 0.732943 0.291842
O O8 0.212571 0.660735 0.232128
O O9 0.236491 0.314517 0.381647
O O10 0.131924 0.008215 0.053711
#
# Coordination Sequence:
#
# PCOD9550384 Si02
#       6
#     8   8   8   4   2   8
#     4  12  26  48  80 111 151 201 270 318 382 463
#     4  12  27  48  72 108 154 196 252 315 379 465
#     4  12  28  46  77 107 152 203 247 318 385 462
#     4  12  24  46  76 110 146 196 242 334 384 438
#     4  12  28  40  76 104 140 192 238 320 368 460
#     4  12  24  48  66 106 146 187 251 306 387 448
#
# _framework density 22.614193
#
# number of rings (size 3 to 8) (size 9 to 14) (size 15 to 20)
#    0.000    0.000    4.211    4.421    5.895    5.053 
#    0.000    0.000    0.000    0.000    0.000    0.000 
#    0.000    0.000    0.000    0.000    0.000    0.000 
#
# Total GULP energy -212537.649852 kJ/mol
# GULP energy per Si atom -5593.096049 kJ/mol
# Density = 2.256272 g / cm^3
# Si number density = 22.614193 Si / 1000 Ang^3
#
#
#
# Elastic Constant Matrix: (Units=GPa)
#
#
# Indices 1 2 3 4 5 6 
#
# 1 131.2502 -10.9452 34.8840 0.0000 0.0000 0.0000
# 2 -10.9452 131.2502 34.8840 0.0000 0.0000 0.0000
# 3 34.8840 34.8840 54.6514 0.0000 0.0000 0.0000
# 4 0.0000 0.0000 0.0000 79.3296 0.0000 0.0000
# 5 0.0000 0.0000 0.0000 0.0000 79.3296 0.0000
# 6 0.0000 0.0000 0.0000 0.0000 0.0000 33.5363
#
#
#
# Elastic Compliance Matrix: (Units=1/GPa)
#
#
# Indices 1 2 3 4 5 6 
#
# 1 0.010115 0.003082 -0.008424 0.000000 0.000000 0.000000
# 2 0.003082 0.010115 -0.008424 0.000000 0.000000 0.000000
# 3 -0.008424 -0.008424 0.029052 0.000000 0.000000 0.000000
# 4 0.000000 0.000000 0.000000 0.012606 0.000000 0.000000
# 5 0.000000 0.000000 0.000000 0.000000 0.012606 0.000000
# 6 0.000000 0.000000 0.000000 0.000000 0.000000 0.029818
#
#
# Mechanical properties :
#
#
# Convention : Reuss Voigt Hill
#
# Bulk Modulus (GPa) = 45.97498 48.31082 47.14290
# Shear Modulus (GPa) = 35.94723 55.66103 45.80413
#
# Velocity S-wave (km/s) = 3.99129 4.96656 4.50539
# Velocity P-wave (km/s) = 6.45095 7.36875 6.92507
#
# Compressibility (1/GPa) = 0.02175096
#
# Stress axis : x y z
#
# Youngs Moduli (GPa) = 98.86285 98.86285 34.42124
#
# Poissons Ratio (x) = -0.30474 0.28996
# Poissons Ratio (y) = -0.30474 0.28996
# Poissons Ratio (z) = 0.83282 0.83282
#
# Static dielectric constant tensor:
#      x y z
#    x 1.856980 0.000000 0.000000 
#    y 0.000000 1.856980 0.000000 
#    z 0.000000 0.000000 1.811030 
# 
# From -- ./inp_files/3466.got.cif
#   From: 2010.05.17/outbox.cif.g08.bks.cpg/sg94_2_cif.got.tgz:3466.got - 2010.06.03 19:43:16.
