data_PCOD9550956
_publ_section_title
;
Structure prediction by ZEFSAII (Michael W. Deem and Ramdas Pophale) SiO2 
 PCOD9550956
Probable space group: P 43 21 2
;
_chemical_formula_sum "Si O2"
_cell_formula_units_Z 48
_cell_length_a 11.940875
_cell_length_b 11.940875
_cell_length_c 13.902270
_cell_angle_alpha 90.000000
_cell_angle_beta 90.000000
_cell_angle_gamma 90.000000
_cell_volume 1982.248158
_symmetry_space_group_name_H-M "P 43 21 2"
_symmetry_group_IT_number 96
_symmetry_cell_setting 'tetragonal'
loop_
_space_group_symop_operation_xyz
x,y,z
1/2-y,1/2+x,3/4+z
-x,-y,1/2+z
1/2+y,1/2-x,1/4+z
1/2+x,1/2-y,1/4-z
1/2-x,1/2+y,3/4-z
y,x,-z
-y,-x,1/2-z
loop_
_atom_site_type_symbol
_atom_site_label
_atom_site_fract_x
_atom_site_fract_y
_atom_site_fract_z
Si Si1 0.149218 0.187243 0.383637
Si Si2 0.502968 0.510996 0.862239
Si Si3 0.236855 0.881807 0.156748
Si Si4 0.304240 0.353109 0.889317
Si Si5 0.093559 0.561097 0.663943
Si Si6 0.349651 0.940594 0.630722
O O1 0.166432 0.166432 0.500000
O O2 0.270977 0.224381 0.349603
O O3 0.096448 0.072223 0.342317
O O4 0.057348 0.281999 0.359091
O O5 0.509471 0.490530 0.750000
O O6 0.536428 0.638078 0.873892
O O7 0.380860 0.464300 0.887562
O O8 0.177038 0.822963 0.250000
O O9 0.344237 0.963237 0.144072
O O10 0.178525 0.379478 0.861375
O O11 0.362459 0.247973 0.836687
O O12 0.315012 0.315012 0.000000
O O13 0.119153 0.596976 0.774550
O O14 0.961959 0.536130 0.676692
#
# Coordination Sequence:
#
# PCOD9550956 Si02
#       6
#     8   8   8   8   8   8
#     4   9  22  43  67  97 139 187 239 305 383 458
#     4  10  22  40  66  96 132 181 237 301 377 452
#     4  11  26  42  67  99 143 187 246 311 384 469
#     4   9  21  44  64  95 136 179 232 296 376 446
#     4  11  26  41  71 101 139 187 243 311 385 461
#     4  10  24  44  69 100 140 187 246 314 382 468
#
# _framework density 24.214929000000001
#
# number of rings (size 3 to 8) (size 9 to 14) (size 15 to 20)
#    0.000    2.000    0.000    0.500   11.667    3.333 
#    0.000    0.000    0.000    0.000    0.000    0.000 
#    0.000    0.000    0.000    0.000    0.000    0.000 
#
# Total GULP energy -267249.270076 kJ/mol
# GULP energy per Si atom -5567.693127 kJ/mol
# Density = 2.415981 g / cm^3
# Si number density = 24.214929 Si / 1000 Ang^3
#
#
#
# Elastic Constant Matrix: (Units=GPa)
#
#
# Indices 1 2 3 4 5 6 
#
# 1 129.1942 81.3470 -3.0682 0.0000 0.0000 0.0000
# 2 81.3470 129.1916 -3.0690 0.0000 0.0000 0.0000
# 3 -3.0682 -3.0690 47.1319 0.0000 0.0000 0.0000
# 4 0.0000 0.0000 0.0000 23.4134 0.0000 0.0000
# 5 0.0000 0.0000 0.0000 0.0000 23.4137 0.0000
# 6 0.0000 0.0000 0.0000 0.0000 0.0000 17.8900
#
#
#
# Elastic Compliance Matrix: (Units=1/GPa)
#
#
# Indices 1 2 3 4 5 6 
#
# 1 0.012829 -0.008071 0.000310 0.000000 0.000000 0.000000
# 2 -0.008071 0.012830 0.000310 0.000000 0.000000 0.000000
# 3 0.000310 0.000310 0.021257 0.000000 0.000000 0.000000
# 4 0.000000 0.000000 0.000000 0.042711 0.000000 0.000000
# 5 0.000000 0.000000 0.000000 0.000000 0.042710 0.000000
# 6 0.000000 0.000000 0.000000 0.000000 0.000000 0.055897
#
#
# Mechanical properties :
#
#
# Convention : Reuss Voigt Hill
#
# Bulk Modulus (GPa) = 31.23621 50.65972 40.94797
# Shear Modulus (GPa) = 23.38547 28.29730 25.84138
#
# Velocity S-wave (km/s) = 3.11102 3.42217 3.27030
# Velocity P-wave (km/s) = 5.08253 6.04825 5.58630
#
# Compressibility (1/GPa) = 0.03201412
#
# Stress axis : x y z
#
# Youngs Moduli (GPa) = 77.94570 77.94408 47.04248
#
# Poissons Ratio (x) = 0.62908 -0.01457
# Poissons Ratio (y) = 0.62909 -0.01458
# Poissons Ratio (z) = -0.02414 -0.02416
#
# Static dielectric constant tensor:
#      x y z
#    x 1.956830 0.000000 0.000000 
#    y 0.000000 1.956820 0.000000 
#    z 0.000000 0.000000 1.969620 
# 
# From -- ./inp_files/3101.got.cif
#   From: 2010.05.17/outbox.cif.g08.bks.cpg/sg96_2_cif.got.tgz:3101.got - 2010.06.03 19:52:08.
