data_PCOD9550218
_publ_section_title
;
Structure prediction by ZEFSAII (Michael W. Deem and Ramdas Pophale) SiO2 
 PCOD9550218
Probable space group: P 42 21 2
;
_chemical_formula_sum "Si O2"
_cell_formula_units_Z 34
_cell_length_a 11.408618
_cell_length_b 11.408618
_cell_length_c 9.921681
_cell_angle_alpha 90.000000
_cell_angle_beta 90.000000
_cell_angle_gamma 90.000000
_cell_volume 1291.371915
_symmetry_space_group_name_H-M "P 42 21 2"
_symmetry_group_IT_number 94
_symmetry_cell_setting 'tetragonal'
loop_
_space_group_symop_operation_xyz
x,y,z
1/2-y,1/2+x,1/2+z
-x,-y,z
1/2+y,1/2-x,1/2+z
1/2+x,1/2-y,1/2-z
1/2-x,1/2+y,1/2-z
y,x,-z
-y,-x,-z
loop_
_atom_site_type_symbol
_atom_site_label
_atom_site_fract_x
_atom_site_fract_y
_atom_site_fract_z
Si Si1 0.000000 0.000000 0.000000
Si Si2 0.000000 0.500000 0.086351
Si Si3 0.841923 0.329016 0.914785
Si Si4 0.737186 0.737186 0.000000
Si Si5 0.468881 0.250584 0.821871
Si Si6 0.600071 0.339121 0.281637
O O1 0.890200 0.986231 0.895844
O O2 0.886245 0.499846 0.182347
O O3 0.950146 0.392181 0.992894
O O4 0.894599 0.234097 0.812708
O O5 0.771895 0.419854 0.814869
O O6 0.744390 0.255611 0.000000
O O7 0.603956 0.750547 0.958814
O O8 0.806534 0.785343 0.871762
O O9 0.560484 0.353994 0.817116
#
# Coordination Sequence:
#
# PCOD9550218 Si02
#       6
#     2   4   8   4   8   8
#     4  10  24  44  78 104 152 222 266 316 430 476
#     4  12  24  44  74 110 144 210 254 328 408 478
#     4  11  24  46  70 107 156 191 264 338 396 482
#     4   9  22  41  64  97 146 187 248 318 382 470
#     4  11  23  41  70 101 146 198 260 318 404 472
#     4  10  22  46  67 105 149 202 260 332 391 485
#
# _framework density 26.328589000000001
#
# number of rings (size 3 to 8) (size 9 to 14) (size 15 to 20)
#    0.000    1.412    2.353    2.118    1.647    1.882 
#    0.000    0.000    0.000    0.000    0.000    0.000 
#    0.000    0.000    0.000    0.000    0.000    0.000 
#
# Total GULP energy -189402.255926 kJ/mol
# GULP energy per Si atom -5570.654586 kJ/mol
# Density = 2.626866 g / cm^3
# Si number density = 26.328589 Si / 1000 Ang^3
#
#
#
# Elastic Constant Matrix: (Units=GPa)
#
#
# Indices 1 2 3 4 5 6 
#
# 1 70.5473 24.8953 25.2588 0.0000 0.0000 0.0000
# 2 24.8953 70.5465 25.2589 0.0000 0.0000 0.0000
# 3 25.2588 25.2589 81.1535 0.0000 0.0000 0.0000
# 4 0.0000 0.0000 0.0000 59.5678 0.0000 0.0000
# 5 0.0000 0.0000 0.0000 0.0000 59.5691 0.0000
# 6 0.0000 0.0000 0.0000 0.0000 0.0000 33.2256
#
#
#
# Elastic Compliance Matrix: (Units=1/GPa)
#
#
# Indices 1 2 3 4 5 6 
#
# 1 0.017224 -0.004680 -0.003904 0.000000 0.000000 0.000000
# 2 -0.004680 0.017225 -0.003904 0.000000 0.000000 0.000000
# 3 -0.003904 -0.003904 0.014753 0.000000 0.000000 0.000000
# 4 0.000000 0.000000 0.000000 0.016788 0.000000 0.000000
# 5 0.000000 0.000000 0.000000 0.000000 0.016787 0.000000
# 6 0.000000 0.000000 0.000000 0.000000 0.000000 0.030097
#
#
# Mechanical properties :
#
#
# Convention : Reuss Voigt Hill
#
# Bulk Modulus (GPa) = 41.28195 41.45260 41.36727
# Shear Modulus (GPa) = 34.26375 40.26145 37.26260
#
# Velocity S-wave (km/s) = 3.61139 3.91473 3.76612
# Velocity P-wave (km/s) = 5.75353 6.01764 5.88707
#
# Compressibility (1/GPa) = 0.02422366
#
# Stress axis : x y z
#
# Youngs Moduli (GPa) = 58.05699 58.05621 67.78397
#
# Poissons Ratio (x) = 0.27173 0.26465
# Poissons Ratio (y) = 0.27173 0.26465
# Poissons Ratio (z) = 0.22667 0.22667
#
# Static dielectric constant tensor:
#      x y z
#    x 2.095640 0.000000 0.000000 
#    y 0.000000 2.095640 0.000000 
#    z 0.000000 0.000000 4.797610 
# 
# From -- ./inp_files/2476.got.cif
#   From: 2010.05.17/outbox.cif.g08.bks.cpg/sg94_2_cif.got.tgz:2476.got - 2010.06.03 19:43:16.
