data_PCOD9550865
_publ_section_title
;
Structure prediction by ZEFSAII (Michael W. Deem and Ramdas Pophale) SiO2 
 PCOD9550865
Probable space group: P 43 21 2
;
_chemical_formula_sum "Si O2"
_cell_formula_units_Z 36
_cell_length_a 11.356445
_cell_length_b 11.356445
_cell_length_c 10.830649
_cell_angle_alpha 90.000000
_cell_angle_beta 90.000000
_cell_angle_gamma 90.000000
_cell_volume 1396.816271
_symmetry_space_group_name_H-M "P 43 21 2"
_symmetry_group_IT_number 96
_symmetry_cell_setting 'tetragonal'
loop_
_space_group_symop_operation_xyz
x,y,z
1/2-y,1/2+x,3/4+z
-x,-y,1/2+z
1/2+y,1/2-x,1/4+z
1/2+x,1/2-y,1/4-z
1/2-x,1/2+y,3/4-z
y,x,-z
-y,-x,1/2-z
loop_
_atom_site_type_symbol
_atom_site_label
_atom_site_fract_x
_atom_site_fract_y
_atom_site_fract_z
Si Si1 0.933223 0.326384 0.858735
Si Si2 0.049379 0.729936 0.091500
Si Si3 0.898875 0.768432 0.738053
Si Si4 0.903082 0.903082 0.000000
Si Si5 0.352420 0.203690 0.127518
O O1 0.844247 0.429965 0.824713
O O2 0.936412 0.249701 0.736451
O O3 0.063684 0.371721 0.889148
O O4 0.882929 0.270752 0.980730
O O5 0.142222 0.640433 0.037028
O O6 0.031602 0.852195 0.021481
O O7 0.793691 0.785676 0.633208
O O8 0.038296 0.765579 0.697916
O O9 0.879767 0.847929 0.861431
#
# Coordination Sequence:
#
# PCOD9550865 Si02
#       5
#     8   8   8   4   8
#     4  10  20  42  68 108 136 187 267 320 360 466
#     4  11  21  41  73  99 138 194 253 310 382 470
#     4  12  24  46  74 109 152 198 253 327 396 470
#     4  12  24  44  70 106 140 200 256 316 390 470
#     4  11  25  41  71 112 149 194 252 327 392 453
#
# _framework density 25.772894999999998
#
# number of rings (size 3 to 8) (size 9 to 14) (size 15 to 20)
#    0.000    0.889    6.667    2.667    3.111    0.889 
#    0.000    2.222    4.889    0.000    0.000    0.000 
#    0.000    0.000    0.000    0.000    0.000    0.000 
#
# Total GULP energy -200428.473281 kJ/mol
# GULP energy per Si atom -5567.457591 kJ/mol
# Density = 2.571423 g / cm^3
# Si number density = 25.772895 Si / 1000 Ang^3
#
#
#
# Elastic Constant Matrix: (Units=GPa)
#
#
# Indices 1 2 3 4 5 6 
#
# 1 -128.8338 257.3705 19.2729 0.0000 0.0000 0.0000
# 2 257.3705 -128.8338 19.2729 0.0000 0.0000 0.0000
# 3 19.2729 19.2729 119.3199 0.0000 0.0000 0.0000
# 4 0.0000 0.0000 0.0000 -96.0836 0.0000 0.0000
# 5 0.0000 0.0000 0.0000 0.0000 -96.0836 0.0000
# 6 0.0000 0.0000 0.0000 0.0000 0.0000 18.6397
#
#
#
# Elastic Compliance Matrix: (Units=1/GPa)
#
#
# Indices 1 2 3 4 5 6 
#
# 1 0.002793 0.005383 -0.001321 0.000000 0.000000 0.000000
# 2 0.005383 0.002793 -0.001321 0.000000 0.000000 0.000000
# 3 -0.001321 -0.001321 0.008807 0.000000 0.000000 0.000000
# 4 0.000000 0.000000 0.000000 -0.010408 0.000000 0.000000
# 5 0.000000 0.000000 0.000000 0.000000 -0.010408 0.000000
# 6 0.000000 0.000000 0.000000 0.000000 0.000000 0.053649
#
#
# Mechanical properties :
#
#
# Convention : Reuss Voigt Hill
#
# Bulk Modulus (GPa) = 50.30972 50.38719 50.34846
# Shear Modulus (GPa) = 103.36885 -63.65644 19.85621
#
# Velocity S-wave (km/s) = 6.33993 -4.97520 2.77867
# Velocity P-wave (km/s) = 8.55311 3.66205 5.46558
#
# Compressibility (1/GPa) = 0.01987687
#
# Stress axis : x y z
#
# Youngs Moduli (GPa) = 357.99971 357.99971 113.54032
#
# Poissons Ratio (x) = -1.92697 0.14994
# Poissons Ratio (y) = -1.92697 0.14994
# Poissons Ratio (z) = 0.47277 0.47277
#
# Static dielectric constant tensor:
#      x y z
#    x 2.144820 0.000000 0.000000 
#    y 0.000000 2.144820 0.000000 
#    z 0.000000 0.000000 2.081490 
# 
# From -- ./inp_files/2000.got.cif
#   From: 2010.05.17/outbox.cif.g08.bks.cpg/sg96_1_cif.got.tgz:2000.got - 2010.06.03 19:52:08.
