data_PCOD9550675
_publ_section_title
;
Structure prediction by ZEFSAII (Michael W. Deem and Ramdas Pophale) SiO2 
 PCOD9550675
Probable space group: P 43 2 2
;
_chemical_formula_sum "Si O2"
_cell_formula_units_Z 40
_cell_length_a 9.206515
_cell_length_b 9.206515
_cell_length_c 21.057251
_cell_angle_alpha 90.000000
_cell_angle_beta 90.000000
_cell_angle_gamma 90.000000
_cell_volume 1784.810877
_symmetry_space_group_name_H-M "P 43 2 2"
_symmetry_group_IT_number 95
_symmetry_cell_setting 'tetragonal'
loop_
_space_group_symop_operation_xyz
x,y,z
-y,x,3/4+z
-x,-y,1/2+z
y,-x,1/4+z
x,-y,1/2-z
-x,y,-z
y,x,1/4-z
-y,-x,3/4-z
loop_
_atom_site_type_symbol
_atom_site_label
_atom_site_fract_x
_atom_site_fract_y
_atom_site_fract_z
Si Si1 0.809345 0.598562 0.159649
Si Si2 0.486614 0.142748 0.724411
Si Si3 0.655553 0.749484 0.467933
Si Si4 0.825696 0.975185 0.994795
Si Si5 0.270694 0.268445 0.425164
O O1 0.675708 0.675708 0.125000
O O2 0.892108 0.715681 0.204089
O O3 0.750883 0.444206 0.185749
O O4 0.900266 0.557224 0.097050
O O5 0.589254 0.281452 0.727431
O O6 0.352400 0.185934 0.769168
O O7 0.563869 0.000000 0.750000
O O8 0.500000 0.771319 0.500000
O O9 0.656658 0.762831 0.391586
O O10 0.768392 0.862519 0.498225
O O11 0.787525 0.896147 0.928643
O O12 0.000000 0.963429 0.000000
#
# Coordination Sequence:
#
# PCOD9550675 Si02
#       5
#     8   8   8   8   8
#     4  11  24  40  70  99 137 180 240 295 349 441
#     4  11  24  43  69 103 140 184 235 300 356 440
#     4  11  27  46  69 103 145 185 244 299 369 440
#     4  12  26  45  71 103 141 191 236 303 368 443
#     4  11  25  42  72 100 137 190 235 293 368 427
#
# _framework density 22.411339000000002
#
# number of rings (size 3 to 8) (size 9 to 14) (size 15 to 20)
#    0.000    0.800    2.000    4.200    8.400    1.600 
#    0.000    2.000    0.000    0.000    0.000    0.000 
#    0.000    0.000    0.000    0.000    0.000    0.000 
#
# Total GULP energy -223125.276588 kJ/mol
# GULP energy per Si atom -5578.131915 kJ/mol
# Density = 2.236033 g / cm^3
# Si number density = 22.411339 Si / 1000 Ang^3
#
#
#
# Elastic Constant Matrix: (Units=GPa)
#
#
# Indices 1 2 3 4 5 6 
#
# 1 121.5394 10.1848 28.3406 0.0000 0.0000 0.0000
# 2 10.1848 121.5394 28.3406 0.0000 0.0000 0.0000
# 3 28.3406 28.3406 111.6416 0.0000 0.0000 0.0000
# 4 0.0000 0.0000 0.0000 21.9477 0.0000 0.0000
# 5 0.0000 0.0000 0.0000 0.0000 21.9477 0.0000
# 6 0.0000 0.0000 0.0000 0.0000 0.0000 29.8022
#
#
#
# Elastic Compliance Matrix: (Units=1/GPa)
#
#
# Indices 1 2 3 4 5 6 
#
# 1 0.008751 -0.000229 -0.002163 0.000000 0.000000 0.000000
# 2 -0.000229 0.008751 -0.002163 0.000000 0.000000 0.000000
# 3 -0.002163 -0.002163 0.010056 0.000000 0.000000 0.000000
# 4 0.000000 0.000000 0.000000 0.045563 0.000000 0.000000
# 5 0.000000 0.000000 0.000000 0.000000 0.045563 0.000000
# 6 0.000000 0.000000 0.000000 0.000000 0.000000 0.033555
#
#
# Mechanical properties :
#
#
# Convention : Reuss Voigt Hill
#
# Bulk Modulus (GPa) = 54.20979 54.27250 54.24115
# Shear Modulus (GPa) = 29.85081 33.92980 31.89031
#
# Velocity S-wave (km/s) = 3.65355 3.89518 3.77630
# Velocity P-wave (km/s) = 6.48375 6.67076 6.57792
#
# Compressibility (1/GPa) = 0.01844685
#
# Stress axis : x y z
#
# Youngs Moduli (GPa) = 114.26686 114.26686 99.44658
#
# Poissons Ratio (x) = 0.02615 0.21515
# Poissons Ratio (y) = 0.02615 0.21515
# Poissons Ratio (z) = 0.24721 0.24721
#
# Static dielectric constant tensor:
#      x y z
#    x 1.843540 0.000000 0.000000 
#    y 0.000000 1.843540 0.000000 
#    z 0.000000 0.000000 1.927370 
# 
# From -- ./inp_files/6840.got.cif
#   From: 2010.05.17/outbox.cif.g08.bks.cpg/sg95_4_cif.got.tgz:6840.got - 2010.06.03 19:46:49.
