data_PCOD9550026
_publ_section_title
;
Structure prediction by ZEFSAII (Michael W. Deem and Ramdas Pophale) SiO2 
 PCOD9550026
Probable space group: P 42 21 2
;
_chemical_formula_sum "Si O2"
_cell_formula_units_Z 34
_cell_length_a 8.573598
_cell_length_b 8.573598
_cell_length_c 17.415738
_cell_angle_alpha 90.000000
_cell_angle_beta 90.000000
_cell_angle_gamma 90.000000
_cell_volume 1280.171385
_symmetry_space_group_name_H-M "P 42 21 2"
_symmetry_group_IT_number 94
_symmetry_cell_setting 'tetragonal'
loop_
_space_group_symop_operation_xyz
x,y,z
1/2-y,1/2+x,1/2+z
-x,-y,z
1/2+y,1/2-x,1/2+z
1/2+x,1/2-y,1/2-z
1/2-x,1/2+y,1/2-z
y,x,-z
-y,-x,-z
loop_
_atom_site_type_symbol
_atom_site_label
_atom_site_fract_x
_atom_site_fract_y
_atom_site_fract_z
Si Si1 0.500000 0.500000 0.500000
Si Si2 0.305612 0.151522 0.153768
Si Si3 0.022000 0.679735 0.699939
Si Si4 0.957636 0.335573 0.002544
Si Si5 0.333344 0.586882 0.895739
O O1 0.332404 0.480441 0.543766
O O2 0.207924 0.306663 0.167772
O O3 0.477682 0.231898 0.160948
O O4 0.257459 0.021006 0.214974
O O5 0.308948 0.075838 0.069615
O O6 0.000000 0.500000 0.708158
O O7 0.893425 0.758732 0.645142
O O8 0.793305 0.378019 0.961492
O O9 0.000000 0.500000 0.041727
O O10 0.500000 0.500000 0.915141
#
# Coordination Sequence:
#
# PCOD9550026 Si02
#       5
#     2   8   8   8   8
#     4  12  28  48  74 102 120 180 236 290 340 384
#     4  10  20  37  58  86 135 170 207 266 323 391
#     4  11  20  31  57  98 125 173 214 251 324 409
#     4  10  23  48  66  91 132 166 216 288 331 389
#     4   9  20  39  61  89 131 171 208 261 337 398
#
# _framework density 26.558942999999999
#
# number of rings (size 3 to 8) (size 9 to 14) (size 15 to 20)
#    0.000    1.882    0.000    4.941    3.294    0.000 
#   19.059    0.000    0.000    0.000    0.000    0.000 
#    0.000    0.000    0.000    0.000    0.000    0.000 
#
# Total GULP energy -189846.777037 kJ/mol
# GULP energy per Si atom -5583.728736 kJ/mol
# Density = 2.649849 g / cm^3
# Si number density = 26.558943 Si / 1000 Ang^3
#
#
#
# Elastic Constant Matrix: (Units=GPa)
#
#
# Indices 1 2 3 4 5 6 
#
# 1 159.6056 38.0438 9.4886 0.0000 0.0000 0.0000
# 2 38.0438 159.6056 9.4886 0.0000 0.0000 0.0000
# 3 9.4886 9.4886 50.1380 0.0000 0.0000 0.0000
# 4 0.0000 0.0000 0.0000 15.0278 0.0000 0.0000
# 5 0.0000 0.0000 0.0000 0.0000 15.0278 0.0000
# 6 0.0000 0.0000 0.0000 0.0000 0.0000 26.8827
#
#
#
# Elastic Compliance Matrix: (Units=1/GPa)
#
#
# Indices 1 2 3 4 5 6 
#
# 1 0.006690 -0.001537 -0.000975 0.000000 0.000000 0.000000
# 2 -0.001537 0.006690 -0.000975 0.000000 0.000000 0.000000
# 3 -0.000975 -0.000975 0.020314 0.000000 0.000000 0.000000
# 4 0.000000 0.000000 0.000000 0.066543 0.000000 0.000000
# 5 0.000000 0.000000 0.000000 0.000000 0.066543 0.000000
# 6 0.000000 0.000000 0.000000 0.000000 0.000000 0.037199
#
#
# Mechanical properties :
#
#
# Convention : Reuss Voigt Hill
#
# Bulk Modulus (GPa) = 37.42601 53.71015 45.56808
# Shear Modulus (GPa) = 22.74184 32.20955 27.47570
#
# Velocity S-wave (km/s) = 2.92940 3.48624 3.21988
# Velocity P-wave (km/s) = 5.05610 6.03921 5.56939
#
# Compressibility (1/GPa) = 0.02671939
#
# Stress axis : x y z
#
# Youngs Moduli (GPa) = 149.48392 149.48392 49.22692
#
# Poissons Ratio (x) = 0.22969 0.04801
# Poissons Ratio (y) = 0.22969 0.04801
# Poissons Ratio (z) = 0.14578 0.14578
#
# Static dielectric constant tensor:
#      x y z
#    x 2.143900 0.000000 0.000000 
#    y 0.000000 2.143900 0.000000 
#    z 0.000000 0.000000 2.094650 
# 
# From -- ./inp_files/4499.got.cif
#   From: 2010.05.17/outbox.cif.g08.bks.cpg/sg94_3_cif.got.tgz:4499.got - 2010.06.03 19:43:16.
