data_PCOD9550859
_publ_section_title
;
Structure prediction by ZEFSAII (Michael W. Deem and Ramdas Pophale) SiO2 
 PCOD9550859
Probable space group: P 43 21 2
;
_chemical_formula_sum "Si O2"
_cell_formula_units_Z 44
_cell_length_a 8.164040
_cell_length_b 8.164040
_cell_length_c 24.003731
_cell_angle_alpha 90.000000
_cell_angle_beta 90.000000
_cell_angle_gamma 90.000000
_cell_volume 1599.885856
_symmetry_space_group_name_H-M "P 43 21 2"
_symmetry_group_IT_number 96
_symmetry_cell_setting 'tetragonal'
loop_
_space_group_symop_operation_xyz
x,y,z
1/2-y,1/2+x,3/4+z
-x,-y,1/2+z
1/2+y,1/2-x,1/4+z
1/2+x,1/2-y,1/4-z
1/2-x,1/2+y,3/4-z
y,x,-z
-y,-x,1/2-z
loop_
_atom_site_type_symbol
_atom_site_label
_atom_site_fract_x
_atom_site_fract_y
_atom_site_fract_z
Si Si1 0.751723 0.205284 0.342512
Si Si2 0.551109 0.448892 0.750000
Si Si3 0.422635 0.043475 0.978431
Si Si4 0.217541 0.290080 0.221083
Si Si5 0.000227 0.934109 0.130643
Si Si6 0.138522 0.411727 0.620106
O O1 0.778099 0.351873 0.299942
O O2 0.757661 0.277275 0.405319
O O3 0.567096 0.134297 0.337956
O O4 0.909012 0.088697 0.344366
O O5 0.724452 0.521330 0.731254
O O6 0.544722 0.524949 0.813489
O O7 0.330692 0.865862 0.992980
O O8 0.539260 0.988368 0.927243
O O9 0.534694 0.190460 0.005780
O O10 0.900317 0.768652 0.140941
O O11 0.179817 0.906898 0.154897
#
# Coordination Sequence:
#
# PCOD9550859 Si02
#       6
#     8   4   8   8   8   8
#     4  10  23  45  71 108 153 200 256 315 390 474
#     4  10  20  42  62 106 146 192 254 310 388 474
#     4  11  23  48  73 110 151 194 264 318 395 470
#     4  10  23  43  72 104 152 198 248 327 384 476
#     4  11  23  40  72 104 146 207 251 316 397 462
#     4  11  22  42  69 106 147 196 255 314 382 469
#
# _framework density 27.501961999999999
#
# number of rings (size 3 to 8) (size 9 to 14) (size 15 to 20)
#    0.000    1.455    1.818    4.364    0.000    1.455 
#    6.545    3.636    0.000    0.000    9.455    0.000 
#    0.000    0.000    0.000    0.000    0.000    0.000 
#
# Total GULP energy -245404.745094 kJ/mol
# GULP energy per Si atom -5577.380570 kJ/mol
# Density = 2.743937 g / cm^3
# Si number density = 27.501962 Si / 1000 Ang^3
#
#
#
# Elastic Constant Matrix: (Units=GPa)
#
#
# Indices 1 2 3 4 5 6 
#
# 1 184.8511 88.7872 36.1904 0.0000 0.0000 0.0000
# 2 88.7872 184.8512 36.1905 0.0000 0.0000 0.0000
# 3 36.1904 36.1905 93.7503 0.0000 0.0000 0.0000
# 4 0.0000 0.0000 0.0000 39.7661 0.0000 0.0000
# 5 0.0000 0.0000 0.0000 0.0000 39.7662 0.0000
# 6 0.0000 0.0000 0.0000 0.0000 0.0000 59.7440
#
#
#
# Elastic Compliance Matrix: (Units=1/GPa)
#
#
# Indices 1 2 3 4 5 6 
#
# 1 0.007240 -0.003170 -0.001571 0.000000 0.000000 0.000000
# 2 -0.003170 0.007240 -0.001571 0.000000 0.000000 0.000000
# 3 -0.001571 -0.001571 0.011880 0.000000 0.000000 0.000000
# 4 0.000000 0.000000 0.000000 0.025147 0.000000 0.000000
# 5 0.000000 0.000000 0.000000 0.000000 0.025147 0.000000
# 6 0.000000 0.000000 0.000000 0.000000 0.000000 0.016738
#
#
# Mechanical properties :
#
#
# Convention : Reuss Voigt Hill
#
# Bulk Modulus (GPa) = 72.80604 87.30984 80.05794
# Shear Modulus (GPa) = 45.21029 48.00756 46.60893
#
# Velocity S-wave (km/s) = 4.05889 4.18258 4.12120
# Velocity P-wave (km/s) = 6.96395 7.42569 7.19853
#
# Compressibility (1/GPa) = 0.01373512
#
# Stress axis : x y z
#
# Youngs Moduli (GPa) = 138.12361 138.12358 84.17742
#
# Poissons Ratio (x) = 0.43783 0.13226
# Poissons Ratio (y) = 0.43783 0.13226
# Poissons Ratio (z) = 0.21701 0.21702
#
# Static dielectric constant tensor:
#      x y z
#    x 2.155540 0.000000 0.000000 
#    y 0.000000 2.155540 0.000000 
#    z 0.000000 0.000000 2.361910 
# 
# From -- ./inp_files/4396.got.cif
#   From: 2010.05.17/outbox.cif.g08.bks.cpg/sg96_3_cif.got.tgz:4396.got - 2010.06.03 19:52:08.
