data_PCOD9550065
_publ_section_title
;
Structure prediction by ZEFSAII (Michael W. Deem and Ramdas Pophale) SiO2 
 PCOD9550065
Probable space group: P 42 21 2
;
_chemical_formula_sum "Si O2"
_cell_formula_units_Z 28
_cell_length_a 11.826285
_cell_length_b 11.826285
_cell_length_c 7.701043
_cell_angle_alpha 90.000000
_cell_angle_beta 90.000000
_cell_angle_gamma 90.000000
_cell_volume 1077.075705
_symmetry_space_group_name_H-M "P 42 21 2"
_symmetry_group_IT_number 94
_symmetry_cell_setting 'tetragonal'
loop_
_space_group_symop_operation_xyz
x,y,z
1/2-y,1/2+x,1/2+z
-x,-y,z
1/2+y,1/2-x,1/2+z
1/2+x,1/2-y,1/2-z
1/2-x,1/2+y,1/2-z
y,x,-z
-y,-x,-z
loop_
_atom_site_type_symbol
_atom_site_label
_atom_site_fract_x
_atom_site_fract_y
_atom_site_fract_z
Si Si1 0.445177 0.255573 0.105055
Si Si2 0.799382 0.116910 0.167373
Si Si3 0.867345 0.467347 0.539590
Si Si4 0.187050 0.187050 0.500000
O O1 0.382326 0.367319 0.173383
O O2 0.370396 0.165961 0.998214
O O3 0.489903 0.189174 0.280858
O O4 0.557058 0.284234 0.997556
O O5 0.740649 0.241345 0.156706
O O6 0.702560 0.028282 0.116275
O O7 0.882552 0.117449 0.000000
O O8 0.000000 0.500000 0.537790
#
# Coordination Sequence:
#
# PCOD9550065 Si02
#       4
#     8   8   8   4
#     4  11  21  39  73 107 149 198 247 319 374 442
#     4   8  19  38  62 104 146 179 252 306 354 458
#     4  11  20  37  75 106 144 202 255 305 375 448
#     4  10  20  40  64 105 149 186 254 316 366 465
#
# _framework density 25.996316
#
# number of rings (size 3 to 8) (size 9 to 14) (size 15 to 20)
#    0.857    1.143    2.857    0.857    0.000    0.000 
#    0.000    1.429   15.714    1.714   11.143    6.000 
#    0.000    0.000    0.000    0.000    0.000    0.000 
#
# Total GULP energy -156528.979299 kJ/mol
# GULP energy per Si atom -5590.320689 kJ/mol
# Density = 2.593715 g / cm^3
# Si number density = 25.996316 Si / 1000 Ang^3
#
#
#
# Elastic Constant Matrix: (Units=GPa)
#
#
# Indices 1 2 3 4 5 6 
#
# 1 80.6312 48.7748 37.5943 0.0000 0.0000 0.0000
# 2 48.7748 80.6321 37.5943 0.0000 0.0000 0.0000
# 3 37.5943 37.5943 146.2531 0.0000 0.0000 0.0000
# 4 0.0000 0.0000 0.0000 39.1186 0.0000 0.0000
# 5 0.0000 0.0000 0.0000 0.0000 39.1184 0.0000
# 6 0.0000 0.0000 0.0000 0.0000 0.0000 55.4204
#
#
#
# Elastic Compliance Matrix: (Units=1/GPa)
#
#
# Indices 1 2 3 4 5 6 
#
# 1 0.020238 -0.011153 -0.002335 0.000000 0.000000 0.000000
# 2 -0.011153 0.020237 -0.002335 0.000000 0.000000 0.000000
# 3 -0.002335 -0.002335 0.008038 0.000000 0.000000 0.000000
# 4 0.000000 0.000000 0.000000 0.025563 0.000000 0.000000
# 5 0.000000 0.000000 0.000000 0.000000 0.025563 0.000000
# 6 0.000000 0.000000 0.000000 0.000000 0.000000 0.018044
#
#
# Mechanical properties :
#
#
# Convention : Reuss Voigt Hill
#
# Bulk Modulus (GPa) = 59.29036 61.71593 60.50315
# Shear Modulus (GPa) = 32.26806 38.96834 35.61820
#
# Velocity S-wave (km/s) = 3.52697 3.87589 3.70554
# Velocity P-wave (km/s) = 6.28034 6.61980 6.45231
#
# Compressibility (1/GPa) = 0.01686615
#
# Stress axis : x y z
#
# Youngs Moduli (GPa) = 49.41319 49.41380 124.40983
#
# Poissons Ratio (x) = 0.55111 0.29052
# Poissons Ratio (y) = 0.55111 0.29051
# Poissons Ratio (z) = 0.11539 0.11539
#
# Static dielectric constant tensor:
#      x y z
#    x 2.047310 0.000000 0.000000 
#    y 0.000000 2.047310 0.000000 
#    z 0.000000 0.000000 2.334830 
# 
# From -- ./inp_files/2152.got.cif
#   From: 2010.05.17/outbox.cif.g08.bks.cpg/sg94_2_cif.got.tgz:2152.got - 2010.06.03 19:43:16.
