data_PCOD9550298
_publ_section_title
;
Structure prediction by ZEFSAII (Michael W. Deem and Ramdas Pophale) SiO2 
 PCOD9550298
Probable space group: P 42 21 2
;
_chemical_formula_sum "Si O2"
_cell_formula_units_Z 56
_cell_length_a 14.348866
_cell_length_b 14.348866
_cell_length_c 13.226643
_cell_angle_alpha 90.000000
_cell_angle_beta 90.000000
_cell_angle_gamma 90.000000
_cell_volume 2723.232938
_symmetry_space_group_name_H-M "P 42 21 2"
_symmetry_group_IT_number 94
_symmetry_cell_setting 'tetragonal'
loop_
_space_group_symop_operation_xyz
x,y,z
1/2-y,1/2+x,1/2+z
-x,-y,z
1/2+y,1/2-x,1/2+z
1/2+x,1/2-y,1/2-z
1/2-x,1/2+y,1/2-z
y,x,-z
-y,-x,-z
loop_
_atom_site_type_symbol
_atom_site_label
_atom_site_fract_x
_atom_site_fract_y
_atom_site_fract_z
Si Si1 0.807007 0.015646 0.104975
Si Si2 0.335955 0.825404 0.834871
Si Si3 0.111998 0.499450 0.054809
Si Si4 0.526762 0.891569 0.167578
Si Si5 0.173920 0.158652 0.790023
Si Si6 0.546244 0.665510 0.370869
Si Si7 0.375969 0.169790 0.757927
O O1 0.906769 0.064070 0.128045
O O2 0.731493 0.073355 0.171700
O O3 0.807344 0.908426 0.136975
O O4 0.800071 0.020729 0.983998
O O5 0.394784 0.853470 0.933313
O O6 0.345845 0.715548 0.813967
O O7 0.233389 0.868392 0.841926
O O8 0.376635 0.887234 0.741915
O O9 0.154640 0.445188 0.149023
O O10 0.000000 0.500000 0.065719
O O11 0.138151 0.456444 0.947250
O O12 0.430716 0.850031 0.210034
O O13 0.500000 0.000000 0.163843
O O14 0.277669 0.198630 0.808030
O O15 0.170782 0.046643 0.803183
#
# Coordination Sequence:
#
# PCOD9550298 Si02
#       7
#     8   8   8   8   8   8   8
#     4  11  24  43  68  99 132 172 223 272 324 389
#     4  12  21  40  63  94 129 171 214 267 331 389
#     4  11  21  37  62  92 128 164 206 265 330 394
#     4  11  21  37  62  92 128 164 206 265 330 394
#     4  12  24  39  67  93 130 171 213 275 329 392
#     4  11  24  43  68  99 132 172 223 272 324 389
#     4  12  21  40  63  94 129 171 214 267 331 389
#
# _framework density 20.563794999999999
#
# number of rings (size 3 to 8) (size 9 to 14) (size 15 to 20)
#    0.000    0.571    7.143    1.714    0.000    5.714 
#    0.000    0.000    0.000    0.000    0.000    2.000 
#    0.000    0.000    0.000    0.000    0.000    0.000 
#
# Total GULP energy -312265.314503 kJ/mol
# GULP energy per Si atom -5576.166330 kJ/mol
# Density = 2.051699 g / cm^3
# Si number density = 20.563795 Si / 1000 Ang^3
#
#
#
# Elastic Constant Matrix: (Units=GPa)
#
#
# Indices 1 2 3 4 5 6 
#
# 1 96.8703 10.4005 23.6359 0.0000 0.0000 0.0000
# 2 10.4005 96.8703 23.6359 0.0000 0.0000 0.0000
# 3 23.6359 23.6359 71.1186 0.0000 0.0000 0.0000
# 4 0.0000 0.0000 0.0000 -0.9957 0.0000 0.0000
# 5 0.0000 0.0000 0.0000 0.0000 -0.9957 0.0000
# 6 0.0000 0.0000 0.0000 0.0000 0.0000 23.9600
#
#
#
# Elastic Compliance Matrix: (Units=1/GPa)
#
#
# Indices 1 2 3 4 5 6 
#
# 1 0.011243 -0.000321 -0.003630 0.000000 0.000000 0.000000
# 2 -0.000321 0.011243 -0.003630 0.000000 0.000000 0.000000
# 3 -0.003630 -0.003630 0.016474 0.000000 0.000000 0.000000
# 4 0.000000 0.000000 0.000000 -1.004334 0.000000 0.000000
# 5 0.000000 0.000000 0.000000 0.000000 -1.004334 0.000000
# 6 0.000000 0.000000 0.000000 0.000000 0.000000 0.041736
#
#
# Mechanical properties :
#
#
# Convention : Reuss Voigt Hill
#
# Bulk Modulus (GPa) = 42.02020 42.24485 42.13252
# Shear Modulus (GPa) = -2.62484 18.20618 7.79067
#
# Velocity S-wave (km/s) = -1.13102 2.97871 1.94853
# Velocity P-wave (km/s) = 4.33276 5.69370 5.05920
#
# Compressibility (1/GPa) = 0.02379808
#
# Stress axis : x y z
#
# Youngs Moduli (GPa) = 88.94226 88.94226 60.70283
#
# Poissons Ratio (x) = 0.02859 0.22034
# Poissons Ratio (y) = 0.02859 0.22034
# Poissons Ratio (z) = 0.32284 0.32284
#
# Static dielectric constant tensor:
#      x y z
#    x 1.819370 0.000000 0.000000 
#    y 0.000000 1.819370 0.000000 
#    z 0.000000 0.000000 1.728920 
# 
# From -- ./inp_files/2731.got.cif
#   From: 2010.05.17/outbox.cif.g08.bks.cpg/sg94_2_cif.got.tgz:2731.got - 2010.06.03 19:43:16.
