data_PCOD9550208
_publ_section_title
;
Structure prediction by ZEFSAII (Michael W. Deem and Ramdas Pophale) SiO2 
 PCOD9550208
Probable space group: P 42 21 2
;
_chemical_formula_sum "Si O2"
_cell_formula_units_Z 40
_cell_length_a 8.846696
_cell_length_b 8.846696
_cell_length_c 21.739710
_cell_angle_alpha 90.000000
_cell_angle_beta 90.000000
_cell_angle_gamma 90.000000
_cell_volume 1701.437318
_symmetry_space_group_name_H-M "P 42 21 2"
_symmetry_group_IT_number 94
_symmetry_cell_setting 'tetragonal'
loop_
_space_group_symop_operation_xyz
x,y,z
1/2-y,1/2+x,1/2+z
-x,-y,z
1/2+y,1/2-x,1/2+z
1/2+x,1/2-y,1/2-z
1/2-x,1/2+y,1/2-z
y,x,-z
-y,-x,-z
loop_
_atom_site_type_symbol
_atom_site_label
_atom_site_fract_x
_atom_site_fract_y
_atom_site_fract_z
Si Si1 0.903748 0.639658 0.361230
Si Si2 0.320090 0.069017 0.510659
Si Si3 0.423071 0.660932 0.638579
Si Si4 0.421418 0.662180 0.779943
Si Si5 0.663847 0.078558 0.388518
O O1 0.976722 0.724050 0.419507
O O2 0.766947 0.547388 0.392604
O O3 0.851504 0.756522 0.310580
O O4 0.000000 0.500000 0.336391
O O5 0.238152 0.238152 0.500000
O O6 0.500000 0.000000 0.510302
O O7 0.259479 0.983048 0.450479
O O8 0.500000 0.500000 0.639636
O O9 0.407046 0.713914 0.709708
O O10 0.258722 0.653981 0.609803
O O11 0.500000 0.500000 0.777768
O O12 0.523425 0.758081 0.825989
O O13 0.500000 0.000000 0.385277
#
# Coordination Sequence:
#
# PCOD9550208 Si02
#       5
#     8   8   8   8   8
#     4  11  23  43  67  96 143 183 235 300 366 440
#     4  10  22  43  73  98 138 192 244 310 379 450
#     4  11  25  41  67 104 140 183 238 299 373 449
#     4  11  23  41  66 101 141 184 235 297 370 447
#     4  11  23  43  70  97 135 186 239 300 366 448
#
# _framework density 23.509535
#
# number of rings (size 3 to 8) (size 9 to 14) (size 15 to 20)
#    0.000    1.200    2.000    3.600    2.800    6.400 
#    0.000   17.000    0.000    0.000    0.000    0.000 
#    0.000    0.000    0.000    0.000    0.000    0.000 
#
# Total GULP energy -222871.393360 kJ/mol
# GULP energy per Si atom -5571.784834 kJ/mol
# Density = 2.345603 g / cm^3
# Si number density = 23.509535 Si / 1000 Ang^3
#
#
#
# Elastic Constant Matrix: (Units=GPa)
#
#
# Indices 1 2 3 4 5 6 
#
# 1 118.0544 47.6014 23.5272 0.0000 0.0000 0.0000
# 2 47.6014 118.0544 23.5272 0.0000 0.0000 0.0000
# 3 23.5272 23.5272 77.1933 0.0000 0.0000 0.0000
# 4 0.0000 0.0000 0.0000 13.9665 0.0000 0.0000
# 5 0.0000 0.0000 0.0000 0.0000 13.9665 0.0000
# 6 0.0000 0.0000 0.0000 0.0000 0.0000 35.0575
#
#
#
# Elastic Compliance Matrix: (Units=1/GPa)
#
#
# Indices 1 2 3 4 5 6 
#
# 1 0.010401 -0.003793 -0.002014 0.000000 0.000000 0.000000
# 2 -0.003793 0.010401 -0.002014 0.000000 0.000000 0.000000
# 3 -0.002014 -0.002014 0.014182 0.000000 0.000000 0.000000
# 4 0.000000 0.000000 0.000000 0.071600 0.000000 0.000000
# 5 0.000000 0.000000 0.000000 0.000000 0.071600 0.000000
# 6 0.000000 0.000000 0.000000 0.000000 0.000000 0.028525
#
#
# Mechanical properties :
#
#
# Convention : Reuss Voigt Hill
#
# Bulk Modulus (GPa) = 51.69863 55.84595 53.77229
# Shear Modulus (GPa) = 21.85329 27.17454 24.51391
#
# Velocity S-wave (km/s) = 3.05216 3.40353 3.23262
# Velocity P-wave (km/s) = 5.87019 6.26511 6.07086
#
# Compressibility (1/GPa) = 0.01934287
#
# Stress axis : x y z
#
# Youngs Moduli (GPa) = 96.14179 96.14179 70.51047
#
# Poissons Ratio (x) = 0.36462 0.14202
# Poissons Ratio (y) = 0.36462 0.14202
# Poissons Ratio (z) = 0.19365 0.19365
#
# Static dielectric constant tensor:
#      x y z
#    x 1.943110 0.000000 0.000000 
#    y 0.000000 1.943110 0.000000 
#    z 0.000000 0.000000 1.905600 
# 
# From -- ./inp_files/4910.got.cif
#   From: 2010.05.17/outbox.cif.g08.bks.cpg/sg94_3_cif.got.tgz:4910.got - 2010.06.03 19:43:16.
