data_PCOD9550882
_publ_section_title
;
Structure prediction by ZEFSAII (Michael W. Deem and Ramdas Pophale) SiO2 
 PCOD9550882
Probable space group: P 43 21 2
;
_chemical_formula_sum "Si O2"
_cell_formula_units_Z 56
_cell_length_a 12.129991
_cell_length_b 12.129991
_cell_length_c 15.959650
_cell_angle_alpha 90.000000
_cell_angle_beta 90.000000
_cell_angle_gamma 90.000000
_cell_volume 2348.249941
_symmetry_space_group_name_H-M "P 43 21 2"
_symmetry_group_IT_number 96
_symmetry_cell_setting 'tetragonal'
loop_
_space_group_symop_operation_xyz
x,y,z
1/2-y,1/2+x,3/4+z
-x,-y,1/2+z
1/2+y,1/2-x,1/4+z
1/2+x,1/2-y,1/4-z
1/2-x,1/2+y,3/4-z
y,x,-z
-y,-x,1/2-z
loop_
_atom_site_type_symbol
_atom_site_label
_atom_site_fract_x
_atom_site_fract_y
_atom_site_fract_z
Si Si1 0.804607 0.560921 0.308089
Si Si2 0.821295 0.511765 0.676427
Si Si3 0.188905 0.280448 0.670715
Si Si4 0.094910 0.029472 0.311646
Si Si5 0.120934 0.703498 0.254330
Si Si6 0.965801 0.367902 0.243146
Si Si7 0.123167 0.906219 0.472515
O O1 0.843486 0.671852 0.261647
O O2 0.885072 0.468298 0.270158
O O3 0.812365 0.573264 0.407250
O O4 0.678328 0.549584 0.276259
O O5 0.882799 0.396187 0.690479
O O6 0.800678 0.534590 0.579116
O O7 0.706469 0.520423 0.724646
O O8 0.910260 0.594998 0.717949
O O9 0.153502 0.368911 0.598753
O O10 0.320246 0.296558 0.672905
O O11 0.142185 0.158229 0.666182
O O12 0.992229 0.007772 0.250000
O O13 0.197879 0.962600 0.266863
O O14 0.064966 0.974155 0.400246
O O15 0.241572 0.758429 0.250000
#
# Coordination Sequence:
#
# PCOD9550882 Si02
#       7
#     8   8   8   8   8   8   8
#     4   9  21  35  53  84 112 153 192 244 292 352
#     4  11  22  36  57  89 117 153 198 248 298 360
#     4  10  21  32  55  81 118 144 185 234 295 357
#     4  11  19  33  54  86 114 152 179 239 296 353
#     4  11  20  33  56  87 121 148 181 242 309 351
#     4  10  22  35  57  82 117 152 202 248 290 346
#     4  10  21  34  54  84 117 145 192 234 297 360
#
# _framework density 23.847546999999999
#
# number of rings (size 3 to 8) (size 9 to 14) (size 15 to 20)
#    0.857    0.857    4.286    1.714    8.000    0.571 
#    0.000    0.000    0.000    3.429    0.000    0.000 
#    0.000    0.000    0.000    0.000    0.000    0.000 
#
# Total GULP energy -312333.744530 kJ/mol
# GULP energy per Si atom -5577.388295 kJ/mol
# Density = 2.379327 g / cm^3
# Si number density = 23.847547 Si / 1000 Ang^3
#
#
#
# Elastic Constant Matrix: (Units=GPa)
#
#
# Indices 1 2 3 4 5 6 
#
# 1 47.4740 2.9314 12.1126 0.0000 0.0000 0.0000
# 2 2.9314 47.4741 12.1125 0.0000 0.0000 0.0000
# 3 12.1126 12.1125 138.0221 0.0000 0.0000 0.0000
# 4 0.0000 0.0000 0.0000 23.8084 0.0000 0.0000
# 5 0.0000 0.0000 0.0000 0.0000 23.8083 0.0000
# 6 0.0000 0.0000 0.0000 0.0000 0.0000 39.4669
#
#
#
# Elastic Compliance Matrix: (Units=1/GPa)
#
#
# Indices 1 2 3 4 5 6 
#
# 1 0.021582 -0.000869 -0.001818 0.000000 0.000000 0.000000
# 2 -0.000869 0.021582 -0.001818 0.000000 0.000000 0.000000
# 3 -0.001818 -0.001818 0.007564 0.000000 0.000000 0.000000
# 4 0.000000 0.000000 0.000000 0.042002 0.000000 0.000000
# 5 0.000000 0.000000 0.000000 0.000000 0.042002 0.000000
# 6 0.000000 0.000000 0.000000 0.000000 0.000000 0.025338
#
#
# Mechanical properties :
#
#
# Convention : Reuss Voigt Hill
#
# Bulk Modulus (GPa) = 23.96998 31.92035 27.94517
# Shear Modulus (GPa) = 27.32480 31.13764 29.23122
#
# Velocity S-wave (km/s) = 3.38866 3.61736 3.50487
# Velocity P-wave (km/s) = 5.03824 5.55529 5.30307
#
# Compressibility (1/GPa) = 0.04171886
#
# Stress axis : x y z
#
# Youngs Moduli (GPa) = 46.33582 46.33594 132.20074
#
# Poissons Ratio (x) = 0.04026 0.24030
# Poissons Ratio (y) = 0.04026 0.24030
# Poissons Ratio (z) = 0.08423 0.08422
#
# Static dielectric constant tensor:
#      x y z
#    x 1.968570 0.000000 0.000000 
#    y 0.000000 1.968570 0.000000 
#    z 0.000000 0.000000 2.035060 
# 
# From -- ./inp_files/2753.got.cif
#   From: 2010.05.17/outbox.cif.g08.bks.cpg/sg96_2_cif.got.tgz:2753.got - 2010.06.03 19:52:08.
