data_PCOD9550404
_publ_section_title
;
Structure prediction by ZEFSAII (Michael W. Deem and Ramdas Pophale) SiO2 
 PCOD9550404
Probable space group: P 42 21 2
;
_chemical_formula_sum "Si O2"
_cell_formula_units_Z 56
_cell_length_a 15.000000
_cell_length_b 15.000000
_cell_length_c 12.000000
_cell_angle_alpha 90.000000
_cell_angle_beta 90.000000
_cell_angle_gamma 90.000000
_cell_volume 2700.000000
_symmetry_space_group_name_H-M "P 42 21 2"
_symmetry_group_IT_number 94
_symmetry_cell_setting 'tetragonal'
loop_
_space_group_symop_operation_xyz
x,y,z
1/2-y,1/2+x,1/2+z
-x,-y,z
1/2+y,1/2-x,1/2+z
1/2+x,1/2-y,1/2-z
1/2-x,1/2+y,1/2-z
y,x,-z
-y,-x,-z
loop_
_atom_site_type_symbol
_atom_site_label
_atom_site_fract_x
_atom_site_fract_y
_atom_site_fract_z
Si Si1 0.423852 0.289915 0.068305
Si Si2 0.301364 0.834876 0.237816
Si Si3 0.488071 0.736841 0.843934
Si Si4 0.319779 0.837828 0.767914
Si Si5 0.910357 0.950622 0.726855
Si Si6 0.749281 0.595181 0.497840
Si Si7 0.398487 0.723807 0.423249
O O1 0.385384 0.215216 0.154250
O O2 0.483952 0.356563 0.143474
O O3 0.347961 0.347961 0.000000
O O4 0.487866 0.248128 0.973560
O O5 0.249661 0.742093 0.227763
O O6 0.309559 0.868002 0.106966
O O7 0.370384 0.807907 0.340396
O O8 0.241439 0.915986 0.283984
O O9 0.421775 0.807171 0.784355
O O10 0.442012 0.640430 0.832486
O O11 0.293606 0.889719 0.880791
O O12 0.850670 0.926912 0.833079
O O13 0.000000 0.000000 0.763664
O O14 0.657635 0.657635 0.500000
O O15 0.736823 0.486967 0.498473
O O16 0.317423 0.682578 0.500000
#
# Coordination Sequence:
#
# PCOD9550404 Si02
#       7
#     8   8   8   8   8   8   8
#     4  12  24  42  72 107 156 197 253 329 395 467
#     4  11  25  46  68 108 150 196 255 311 380 477
#     4  12  26  41  74 109 146 202 261 311 386 481
#     4  11  24  46  69 104 150 207 248 312 403 453
#     4  12  24  41  68 117 152 189 256 321 396 459
#     4  10  25  45  71 102 152 197 250 323 381 461
#     4  12  27  43  75 107 155 204 255 317 405 472
#
# _framework density 20.740741
#
# number of rings (size 3 to 8) (size 9 to 14) (size 15 to 20)
#    0.000    0.571    5.714    1.286    8.000    1.143 
#    0.000    0.714    0.000    1.714    0.000    0.000 
#    0.000    0.000    0.000    0.000    0.000    0.000 
#
# Total GULP energy -312530.644065 kJ/mol
# GULP energy per Si atom -5580.904358 kJ/mol
# Density = 2.069353 g / cm^3
# Si number density = 20.740741 Si / 1000 Ang^3
#
#
#
# Elastic Constant Matrix: (Units=GPa)
#
#
# Indices 1 2 3 4 5 6 
#
# 1 81.8503 32.6253 36.2019 0.0000 0.0000 0.0000
# 2 32.6253 81.8501 36.2021 0.0000 0.0000 0.0000
# 3 36.2019 36.2021 153.8371 0.0000 0.0000 0.0000
# 4 0.0000 0.0000 0.0000 41.6408 0.0000 0.0000
# 5 0.0000 0.0000 0.0000 0.0000 41.6411 0.0000
# 6 0.0000 0.0000 0.0000 0.0000 0.0000 39.8934
#
#
#
# Elastic Compliance Matrix: (Units=1/GPa)
#
#
# Indices 1 2 3 4 5 6 
#
# 1 0.015289 -0.005026 -0.002415 0.000000 0.000000 0.000000
# 2 -0.005026 0.015289 -0.002415 0.000000 0.000000 0.000000
# 3 -0.002415 -0.002415 0.007637 0.000000 0.000000 0.000000
# 4 0.000000 0.000000 0.000000 0.024015 0.000000 0.000000
# 5 0.000000 0.000000 0.000000 0.000000 0.024015 0.000000
# 6 0.000000 0.000000 0.000000 0.000000 0.000000 0.025067
#
#
# Mechanical properties :
#
#
# Convention : Reuss Voigt Hill
#
# Bulk Modulus (GPa) = 54.04672 58.62179 56.33426
# Shear Modulus (GPa) = 36.44538 38.80225 37.62382
#
# Velocity S-wave (km/s) = 4.19643 4.32999 4.26373
# Velocity P-wave (km/s) = 7.04236 7.30232 7.17352
#
# Compressibility (1/GPa) = 0.01850251
#
# Stress axis : x y z
#
# Youngs Moduli (GPa) = 65.40675 65.40640 130.93985
#
# Poissons Ratio (x) = 0.32873 0.31624
# Poissons Ratio (y) = 0.32873 0.31625
# Poissons Ratio (z) = 0.15797 0.15797
#
# Static dielectric constant tensor:
#      x y z
#    x 1.770980 0.000000 0.000000 
#    y 0.000000 1.770980 0.000000 
#    z 0.000000 0.000000 1.784620 
# 
# From -- ./inp_files/2720.got.cif
#   From: 2010.05.17/outbox.ucp.g08.bks.cvg/sg94_2_cif.got.tgz:2720.got - 2010.06.11 10:37:05.
