data_PCOD9550085
_publ_section_title
;
Structure prediction by ZEFSAII (Michael W. Deem and Ramdas Pophale) SiO2 
 PCOD9550085
Probable space group: P 42 21 2
;
_chemical_formula_sum "Si O2"
_cell_formula_units_Z 42
_cell_length_a 20.713171
_cell_length_b 20.713171
_cell_length_c 5.224341
_cell_angle_alpha 90.000000
_cell_angle_beta 90.000000
_cell_angle_gamma 90.000000
_cell_volume 2241.427507
_symmetry_space_group_name_H-M "P 42 21 2"
_symmetry_group_IT_number 94
_symmetry_cell_setting 'tetragonal'
loop_
_space_group_symop_operation_xyz
x,y,z
1/2-y,1/2+x,1/2+z
-x,-y,z
1/2+y,1/2-x,1/2+z
1/2+x,1/2-y,1/2-z
1/2-x,1/2+y,1/2-z
y,x,-z
-y,-x,-z
loop_
_atom_site_type_symbol
_atom_site_label
_atom_site_fract_x
_atom_site_fract_y
_atom_site_fract_z
Si Si1 0.506168 0.633319 0.775507
Si Si2 0.284943 0.383939 0.041301
Si Si3 0.648523 0.064641 0.271798
Si Si4 0.492059 0.702395 0.268412
Si Si5 0.655255 0.975698 0.761913
Si Si6 0.000000 0.000000 0.000000
O O1 0.579943 0.658326 0.799770
O O2 0.478297 0.676574 0.547701
O O3 0.502183 0.561384 0.682873
O O4 0.476061 0.650429 0.049178
O O5 0.216253 0.397081 0.177898
O O6 0.311895 0.311895 0.000000
O O7 0.283300 0.431282 0.790292
O O8 0.638213 0.018980 0.517231
O O9 0.587743 0.112010 0.264304
O O10 0.651331 0.019576 0.018878
O O11 0.457363 0.769811 0.226518
#
# Coordination Sequence:
#
# PCOD9550085 Si02
#       6
#     8   8   8   8   8   2
#     4  10  21  35  57  86 123 151 186 255 305 358
#     4   9  19  37  59  87 109 156 207 246 293 350
#     4  11  23  37  65  89 125 167 197 271 303 386
#     4   9  19  38  56  80 123 157 184 251 311 355
#     4  11  21  40  59  94 124 159 211 242 337 364
#     4  12  24  34  60 106 108 150 208 250 308 382
#
# _framework density 18.738057999999999
#
# number of rings (size 3 to 8) (size 9 to 14) (size 15 to 20)
#    1.143    0.762    1.905    2.286    0.000    3.810 
#    0.000    0.000    2.095    0.000    9.905    0.000 
#    0.000    0.000    0.000    0.000    0.000    0.000 
#
# Total GULP energy -233977.460775 kJ/mol
# GULP energy per Si atom -5570.891923 kJ/mol
# Density = 1.869541 g / cm^3
# Si number density = 18.738058 Si / 1000 Ang^3
#
#
#
# Elastic Constant Matrix: (Units=GPa)
#
#
# Indices 1 2 3 4 5 6 
#
# 1 -411.5729 572.3259 17.6685 0.0000 0.0000 0.0000
# 2 572.3259 -411.5729 17.6685 0.0000 0.0000 0.0000
# 3 17.6685 17.6685 87.4007 0.0000 0.0000 0.0000
# 4 0.0000 0.0000 0.0000 16.7134 0.0000 0.0000
# 5 0.0000 0.0000 0.0000 0.0000 16.7134 0.0000
# 6 0.0000 0.0000 0.0000 0.0000 0.0000 26.9168
#
#
#
# Elastic Compliance Matrix: (Units=1/GPa)
#
#
# Indices 1 2 3 4 5 6 
#
# 1 0.002747 0.003763 -0.001316 0.000000 0.000000 0.000000
# 2 0.003763 0.002747 -0.001316 0.000000 0.000000 0.000000
# 3 -0.001316 -0.001316 0.011974 0.000000 0.000000 0.000000
# 4 0.000000 0.000000 0.000000 0.059832 0.000000 0.000000
# 5 0.000000 0.000000 0.000000 0.000000 0.059832 0.000000
# 6 0.000000 0.000000 0.000000 0.000000 0.000000 0.037152
#
#
# Mechanical properties :
#
#
# Convention : Reuss Voigt Hill
#
# Bulk Modulus (GPa) = 50.68542 53.28675 51.98608
# Shear Modulus (GPa) = 27.99585 -77.49183 -24.74799
#
# Velocity S-wave (km/s) = 3.86951 -6.43779 -3.63813
# Velocity P-wave (km/s) = 6.86092 5.17307 3.18682
#
# Compressibility (1/GPa) = 0.01972954
#
# Stress axis : x y z
#
# Youngs Moduli (GPa) = 364.05641 364.05641 83.51674
#
# Poissons Ratio (x) = -1.37001 0.10991
# Poissons Ratio (y) = -1.37001 0.10991
# Poissons Ratio (z) = 0.47911 0.47911
#
# Static dielectric constant tensor:
#      x y z
#    x 1.675090 0.000000 0.000000 
#    y 0.000000 1.675090 0.000000 
#    z 0.000000 0.000000 1.679860 
# 
# From -- ./inp_files/491.got.cif
#   From: 2010.05.17/outbox.cif.g08.bks.cpg/sg94_1_cif.got.tgz:491.got - 2010.06.03 19:43:16.
