data_PCOD9550862
_publ_section_title
;
Structure prediction by ZEFSAII (Michael W. Deem and Ramdas Pophale) SiO2 
 PCOD9550862
Probable space group: P 43 21 2
;
_chemical_formula_sum "Si O2"
_cell_formula_units_Z 40
_cell_length_a 13.426063
_cell_length_b 13.426063
_cell_length_c 9.614143
_cell_angle_alpha 90.000000
_cell_angle_beta 90.000000
_cell_angle_gamma 90.000000
_cell_volume 1733.037415
_symmetry_space_group_name_H-M "P 43 21 2"
_symmetry_group_IT_number 96
_symmetry_cell_setting 'tetragonal'
loop_
_space_group_symop_operation_xyz
x,y,z
1/2-y,1/2+x,3/4+z
-x,-y,1/2+z
1/2+y,1/2-x,1/4+z
1/2+x,1/2-y,1/4-z
1/2-x,1/2+y,3/4-z
y,x,-z
-y,-x,1/2-z
loop_
_atom_site_type_symbol
_atom_site_label
_atom_site_fract_x
_atom_site_fract_y
_atom_site_fract_z
Si Si1 0.667557 0.217254 0.931185
Si Si2 0.219261 0.359428 0.051093
Si Si3 0.349633 0.505269 0.217613
Si Si4 0.685419 0.114808 0.507026
Si Si5 0.478516 0.206792 0.523886
O O1 0.594016 0.300296 0.873436
O O2 0.777416 0.264381 0.955354
O O3 0.667316 0.129602 0.818482
O O4 0.642522 0.159209 0.074865
O O5 0.314495 0.410584 0.127720
O O6 0.250430 0.250430 0.000000
O O7 0.193908 0.410470 0.906142
O O8 0.462436 0.537565 0.250000
O O9 0.295001 0.496459 0.366434
O O10 0.568229 0.129429 0.536748
O O11 0.732919 0.034610 0.611518
#
# Coordination Sequence:
#
# PCOD9550862 Si02
#       5
#     8   8   8   8   8
#     4  10  20  42  65  85 123 170 211 261 316 382
#     4   9  23  40  61  89 129 162 207 271 324 370
#     4  11  20  40  65  89 120 169 220 254 318 384
#     4  11  22  41  60  95 129 163 215 261 323 379
#     4  11  21  37  64  92 124 166 207 256 312 391
#
# _framework density 23.080863000000001
#
# number of rings (size 3 to 8) (size 9 to 14) (size 15 to 20)
#    0.000    1.600    4.000    0.600    2.800    0.000 
#    3.600    7.000    0.000    0.000    0.000    0.000 
#    0.000    0.000    0.000    0.000    0.000    0.000 
#
# Total GULP energy -222919.176747 kJ/mol
# GULP energy per Si atom -5572.979419 kJ/mol
# Density = 2.302833 g / cm^3
# Si number density = 23.080863 Si / 1000 Ang^3
#
#
#
# Elastic Constant Matrix: (Units=GPa)
#
#
# Indices 1 2 3 4 5 6 
#
# 1 50.2995 3.9356 8.3196 0.0000 0.0000 0.0000
# 2 3.9356 50.3010 8.3198 0.0000 0.0000 0.0000
# 3 8.3196 8.3198 199.4748 0.0000 0.0000 0.0000
# 4 0.0000 0.0000 0.0000 19.4323 0.0000 0.0000
# 5 0.0000 0.0000 0.0000 0.0000 19.4317 0.0000
# 6 0.0000 0.0000 0.0000 0.0000 0.0000 15.4465
#
#
#
# Elastic Compliance Matrix: (Units=1/GPa)
#
#
# Indices 1 2 3 4 5 6 
#
# 1 0.020123 -0.001446 -0.000779 0.000000 0.000000 0.000000
# 2 -0.001446 0.020122 -0.000779 0.000000 0.000000 0.000000
# 3 -0.000779 -0.000779 0.005078 0.000000 0.000000 0.000000
# 4 0.000000 0.000000 0.000000 0.051461 0.000000 0.000000
# 5 0.000000 0.000000 0.000000 0.000000 0.051462 0.000000
# 6 0.000000 0.000000 0.000000 0.000000 0.000000 0.064740
#
#
# Mechanical properties :
#
#
# Convention : Reuss Voigt Hill
#
# Bulk Modulus (GPa) = 25.43483 37.91393 31.67438
# Shear Modulus (GPa) = 21.54258 29.49545 25.51901
#
# Velocity S-wave (km/s) = 3.05840 3.57868 3.32872
# Velocity P-wave (km/s) = 4.84928 5.79121 5.34105
#
# Compressibility (1/GPa) = 0.03931617
#
# Stress axis : x y z
#
# Youngs Moduli (GPa) = 49.69475 49.69614 196.92239
#
# Poissons Ratio (x) = 0.07184 0.15340
# Poissons Ratio (y) = 0.07184 0.15340
# Poissons Ratio (z) = 0.03871 0.03871
#
# Static dielectric constant tensor:
#      x y z
#    x 1.910180 0.000000 0.000000 
#    y 0.000000 1.910180 0.000000 
#    z 0.000000 0.000000 1.948490 
# 
# From -- ./inp_files/1301.got.cif
#   From: 2010.05.17/outbox.cif.g08.bks.cpg/sg96_1_cif.got.tgz:1301.got - 2010.06.03 19:52:08.
