data_PCOD9550685
_publ_section_title
;
Structure prediction by ZEFSAII (Michael W. Deem and Ramdas Pophale) SiO2 
 PCOD9550685
Probable space group: P 43 2 2
;
_chemical_formula_sum "Si O2"
_cell_formula_units_Z 40
_cell_length_a 11.020068
_cell_length_b 11.020068
_cell_length_c 15.782620
_cell_angle_alpha 90.000000
_cell_angle_beta 90.000000
_cell_angle_gamma 90.000000
_cell_volume 1916.671340
_symmetry_space_group_name_H-M "P 43 2 2"
_symmetry_group_IT_number 95
_symmetry_cell_setting 'tetragonal'
loop_
_space_group_symop_operation_xyz
x,y,z
-y,x,3/4+z
-x,-y,1/2+z
y,-x,1/4+z
x,-y,1/2-z
-x,y,-z
y,x,1/4-z
-y,-x,3/4-z
loop_
_atom_site_type_symbol
_atom_site_label
_atom_site_fract_x
_atom_site_fract_y
_atom_site_fract_z
Si Si1 0.871602 0.500000 0.750000
Si Si2 0.377487 0.910709 0.913711
Si Si3 0.251832 0.781693 0.067967
Si Si4 0.235272 0.000000 0.750000
Si Si5 0.405021 0.869422 0.203786
Si Si6 0.493240 0.303552 0.151118
O O1 0.785514 0.455910 0.824604
O O2 0.961537 0.400267 0.710700
O O3 0.307738 0.935716 0.826587
O O4 0.504270 0.864567 0.876425
O O5 0.321469 0.821505 0.982294
O O6 0.280606 0.850240 0.155305
O O7 0.285477 0.638965 0.085372
O O8 0.114476 0.819719 0.046388
O O9 0.434493 0.758552 0.266117
O O10 0.418059 0.000000 0.250000
O O11 0.434171 0.434171 0.125000
#
# Coordination Sequence:
#
# PCOD9550685 Si02
#       6
#     4   8   8   4   8   8
#     4  12  20  46  70 100 136 198 232 282 358 430
#     4  12  21  44  76 100 134 192 242 286 348 441
#     4  12  25  43  74 106 142 188 234 303 362 425
#     4  12  24  44  72 104 146 180 244 294 356 434
#     4  12  22  46  73 102 136 191 246 285 350 445
#     4  12  26  43  67 105 151 179 231 302 371 433
#
# _framework density 20.869513000000001
#
# number of rings (size 3 to 8) (size 9 to 14) (size 15 to 20)
#    0.000    0.000    9.000    1.800    0.000    0.000 
#   10.800    0.000    8.800    0.000    0.000    0.000 
#    0.000    0.000    0.000    0.000    0.000    0.000 
#
# Total GULP energy -222978.374686 kJ/mol
# GULP energy per Si atom -5574.459367 kJ/mol
# Density = 2.082201 g / cm^3
# Si number density = 20.869513 Si / 1000 Ang^3
#
#
#
# Elastic Constant Matrix: (Units=GPa)
#
#
# Indices 1 2 3 4 5 6 
#
# 1 61.4746 22.8028 19.5057 0.0000 0.0000 0.0000
# 2 22.8028 61.4746 19.5057 0.0000 0.0000 0.0000
# 3 19.5057 19.5057 86.7356 0.0000 0.0000 0.0000
# 4 0.0000 0.0000 0.0000 42.8193 0.0000 0.0000
# 5 0.0000 0.0000 0.0000 0.0000 42.8193 0.0000
# 6 0.0000 0.0000 0.0000 0.0000 0.0000 19.8756
#
#
#
# Elastic Compliance Matrix: (Units=1/GPa)
#
#
# Indices 1 2 3 4 5 6 
#
# 1 0.019551 -0.006307 -0.002978 0.000000 0.000000 0.000000
# 2 -0.006307 0.019551 -0.002978 0.000000 0.000000 0.000000
# 3 -0.002978 -0.002978 0.012869 0.000000 0.000000 0.000000
# 4 0.000000 0.000000 0.000000 0.023354 0.000000 0.000000
# 5 0.000000 0.000000 0.000000 0.000000 0.023354 0.000000
# 6 0.000000 0.000000 0.000000 0.000000 0.000000 0.050313
#
#
# Mechanical properties :
#
#
# Convention : Reuss Voigt Hill
#
# Bulk Modulus (GPa) = 36.43835 37.03483 36.73659
# Shear Modulus (GPa) = 27.37195 30.96088 29.16642
#
# Velocity S-wave (km/s) = 3.62550 3.85586 3.74245
# Velocity P-wave (km/s) = 5.91808 6.13253 6.02626
#
# Compressibility (1/GPa) = 0.02744362
#
# Stress axis : x y z
#
# Youngs Moduli (GPa) = 51.14706 51.14706 77.70656
#
# Poissons Ratio (x) = 0.32259 0.23145
# Poissons Ratio (y) = 0.32259 0.23145
# Poissons Ratio (z) = 0.15234 0.15234
#
# Static dielectric constant tensor:
#      x y z
#    x 1.860610 0.000000 0.000000 
#    y 0.000000 1.860610 0.000000 
#    z 0.000000 0.000000 1.752210 
# 
# From -- ./inp_files/4833.got.cif
#   From: 2010.05.17/outbox.cif.g08.bks.cpg/sg95_3_cif.got.tgz:4833.got - 2010.06.03 19:46:49.
