data_PCOD9550402
_publ_section_title
;
Structure prediction by ZEFSAII (Michael W. Deem and Ramdas Pophale) SiO2 
 PCOD9550402
Probable space group: P 42 21 2
;
_chemical_formula_sum "Si O2"
_cell_formula_units_Z 48
_cell_length_a 9.000000
_cell_length_b 9.000000
_cell_length_c 30.000000
_cell_angle_alpha 90.000000
_cell_angle_beta 90.000000
_cell_angle_gamma 90.000000
_cell_volume 2430.000000
_symmetry_space_group_name_H-M "P 42 21 2"
_symmetry_group_IT_number 94
_symmetry_cell_setting 'tetragonal'
loop_
_space_group_symop_operation_xyz
x,y,z
1/2-y,1/2+x,1/2+z
-x,-y,z
1/2+y,1/2-x,1/2+z
1/2+x,1/2-y,1/2-z
1/2-x,1/2+y,1/2-z
y,x,-z
-y,-x,-z
loop_
_atom_site_type_symbol
_atom_site_label
_atom_site_fract_x
_atom_site_fract_y
_atom_site_fract_z
Si Si1 0.612555 0.137168 0.199190
Si Si2 0.125262 0.887524 0.273448
Si Si3 0.822716 0.510632 0.471601
Si Si4 0.200890 0.776667 0.893298
Si Si5 0.409549 0.721849 0.429310
Si Si6 0.973584 0.328512 0.641155
O O1 0.749937 0.147853 0.235206
O O2 0.491362 0.266808 0.207195
O O3 0.689374 0.133390 0.149734
O O4 0.500000 0.000000 0.205648
O O5 0.223093 0.940145 0.316457
O O6 0.000000 0.000000 0.254201
O O7 0.791097 0.656251 0.441270
O O8 0.720707 0.389824 0.444901
O O9 0.776337 0.485892 0.523695
O O10 0.000000 0.500000 0.470469
O O11 0.375920 0.775384 0.882677
O O12 0.161408 0.951782 0.899873
O O13 0.338857 0.847897 0.397328
O O14 0.000000 0.500000 0.656746
#
# Coordination Sequence:
#
# PCOD9550402 Si02
#       6
#     8   8   8   8   8   8
#     4  12  28  45  70 108 138 184 235 297 350 431
#     4  12  26  47  72  99 144 186 238 291 359 422
#     4  11  23  42  67 103 140 176 234 293 351 429
#     4  11  23  42  67  99 135 180 232 282 353 422
#     4  10  24  42  70  98 137 187 228 294 361 420
#     4  10  23  44  70  94 134 185 234 282 354 430
#
# _framework density 19.753086
#
# number of rings (size 3 to 8) (size 9 to 14) (size 15 to 20)
#    0.000    1.000    1.667    4.500    9.333    2.667 
#    0.000    0.000    0.000    0.000    0.000    0.000 
#    0.000    0.000    0.000    0.000    0.000    0.000 
#
# Total GULP energy -267457.313145 kJ/mol
# GULP energy per Si atom -5572.027357 kJ/mol
# Density = 1.970813 g / cm^3
# Si number density = 19.753086 Si / 1000 Ang^3
#
#
#
# Elastic Constant Matrix: (Units=GPa)
#
#
# Indices 1 2 3 4 5 6 
#
# 1 108.8930 56.5108 43.6026 0.0000 0.0000 0.0000
# 2 56.5108 108.8930 43.6026 0.0000 0.0000 0.0000
# 3 43.6026 43.6026 116.9153 0.0000 0.0000 0.0000
# 4 0.0000 0.0000 0.0000 38.2208 0.0000 0.0000
# 5 0.0000 0.0000 0.0000 0.0000 38.2208 0.0000
# 6 0.0000 0.0000 0.0000 0.0000 0.0000 43.3023
#
#
#
# Elastic Compliance Matrix: (Units=1/GPa)
#
#
# Indices 1 2 3 4 5 6 
#
# 1 0.013308 -0.005782 -0.002807 0.000000 0.000000 0.000000
# 2 -0.005782 0.013308 -0.002807 0.000000 0.000000 0.000000
# 3 -0.002807 -0.002807 0.010647 0.000000 0.000000 0.000000
# 4 0.000000 0.000000 0.000000 0.026164 0.000000 0.000000
# 5 0.000000 0.000000 0.000000 0.000000 0.026164 0.000000
# 6 0.000000 0.000000 0.000000 0.000000 0.000000 0.023093
#
#
# Mechanical properties :
#
#
# Convention : Reuss Voigt Hill
#
# Bulk Modulus (GPa) = 69.10232 69.12592 69.11412
# Shear Modulus (GPa) = 35.63829 36.68113 36.15971
#
# Velocity S-wave (km/s) = 4.25218 4.31395 4.28318
# Velocity P-wave (km/s) = 7.69201 7.73851 7.71529
#
# Compressibility (1/GPa) = 0.01447129
#
# Stress axis : x y z
#
# Youngs Moduli (GPa) = 75.14286 75.14286 93.92689
#
# Poissons Ratio (x) = 0.43451 0.26361
# Poissons Ratio (y) = 0.43451 0.26361
# Poissons Ratio (z) = 0.21089 0.21089
#
# Static dielectric constant tensor:
#      x y z
#    x 1.766110 0.000000 0.000000 
#    y 0.000000 1.766110 0.000000 
#    z 0.000000 0.000000 1.672870 
# 
# From -- ./inp_files/5553.got.cif
#   From: 2010.05.17/outbox.ucp.g08.bks.cvg/sg94_3_cif.got.tgz:5553.got - 2010.06.11 10:37:05.
