data_PCOD9550900
_publ_section_title
;
Structure prediction by ZEFSAII (Michael W. Deem and Ramdas Pophale) SiO2 
 PCOD9550900
Probable space group: P 43 21 2
;
_chemical_formula_sum "Si O2"
_cell_formula_units_Z 56
_cell_length_a 15.096176
_cell_length_b 15.096176
_cell_length_c 11.107626
_cell_angle_alpha 90.000000
_cell_angle_beta 90.000000
_cell_angle_gamma 90.000000
_cell_volume 2531.367205
_symmetry_space_group_name_H-M "P 43 21 2"
_symmetry_group_IT_number 96
_symmetry_cell_setting 'tetragonal'
loop_
_space_group_symop_operation_xyz
x,y,z
1/2-y,1/2+x,3/4+z
-x,-y,1/2+z
1/2+y,1/2-x,1/4+z
1/2+x,1/2-y,1/4-z
1/2-x,1/2+y,3/4-z
y,x,-z
-y,-x,1/2-z
loop_
_atom_site_type_symbol
_atom_site_label
_atom_site_fract_x
_atom_site_fract_y
_atom_site_fract_z
Si Si1 0.999914 0.436787 0.695903
Si Si2 0.764061 0.166611 0.131267
Si Si3 0.739123 0.443295 0.887585
Si Si4 0.310996 0.632846 0.938482
Si Si5 0.483184 0.546362 0.873135
Si Si6 0.140311 0.842779 0.123953
Si Si7 0.703982 0.964533 0.115394
O O1 0.999481 0.460243 0.838830
O O2 0.897010 0.436806 0.655853
O O3 0.042755 0.340276 0.680245
O O4 0.825380 0.174621 0.250000
O O5 0.717622 0.070648 0.119192
O O6 0.694294 0.246021 0.136483
O O7 0.812827 0.179393 0.002474
O O8 0.689056 0.373670 0.970793
O O9 0.693756 0.540158 0.885417
O O10 0.743780 0.421775 0.746549
O O11 0.245038 0.572715 0.014512
O O12 0.381151 0.573132 0.868207
O O13 0.505577 0.494424 0.750000
O O14 0.551134 0.628368 0.873711
O O15 0.497455 0.497455 0.000000
O O16 0.185464 0.814536 0.250000
#
# Coordination Sequence:
#
# PCOD9550900 Si02
#       7
#     8   8   8   8   8   8   8
#     4  10  22  43  67  96 129 177 229 277 339 420
#     4  11  27  44  66 104 142 178 234 286 357 416
#     4  10  21  39  64 101 130 169 231 281 336 406
#     4  12  23  42  66 103 141 175 230 300 341 413
#     4  11  25  40  68 100 137 180 229 278 346 421
#     4  10  21  42  64  94 134 174 226 277 337 418
#     4  10  23  42  70  95 136 188 229 274 347 435
#
# _framework density 22.122433000000001
#
# number of rings (size 3 to 8) (size 9 to 14) (size 15 to 20)
#    0.000    1.429    2.857    3.429    6.000    4.571 
#    0.000    1.429    0.000    0.000    0.000    0.000 
#    0.000    0.000    0.000    0.000    0.000    0.000 
#
# Total GULP energy -312607.904947 kJ/mol
# GULP energy per Si atom -5582.284017 kJ/mol
# Density = 2.207208 g / cm^3
# Si number density = 22.122433 Si / 1000 Ang^3
#
#
#
# Elastic Constant Matrix: (Units=GPa)
#
#
# Indices 1 2 3 4 5 6 
#
# 1 44.0719 6.7317 12.4191 0.0000 0.0000 0.0000
# 2 6.7317 44.0736 12.4195 0.0000 0.0000 0.0000
# 3 12.4191 12.4195 132.4669 0.0000 0.0000 0.0000
# 4 0.0000 0.0000 0.0000 26.6036 0.0000 0.0000
# 5 0.0000 0.0000 0.0000 0.0000 26.6027 0.0000
# 6 0.0000 0.0000 0.0000 0.0000 0.0000 27.5806
#
#
#
# Elastic Compliance Matrix: (Units=1/GPa)
#
#
# Indices 1 2 3 4 5 6 
#
# 1 0.023705 -0.003076 -0.001934 0.000000 0.000000 0.000000
# 2 -0.003076 0.023704 -0.001934 0.000000 0.000000 0.000000
# 3 -0.001934 -0.001934 0.007912 0.000000 0.000000 0.000000
# 4 0.000000 0.000000 0.000000 0.037589 0.000000 0.000000
# 5 0.000000 0.000000 0.000000 0.000000 0.037590 0.000000
# 6 0.000000 0.000000 0.000000 0.000000 0.000000 0.036257
#
#
# Mechanical properties :
#
#
# Convention : Reuss Voigt Hill
#
# Bulk Modulus (GPa) = 24.13519 31.52813 27.83166
# Shear Modulus (GPa) = 25.71278 28.76018 27.23648
#
# Velocity S-wave (km/s) = 3.41294 3.60953 3.51261
# Velocity P-wave (km/s) = 5.14436 5.62620 5.39067
#
# Compressibility (1/GPa) = 0.04143328
#
# Stress axis : x y z
#
# Youngs Moduli (GPa) = 42.18518 42.18680 126.39500
#
# Poissons Ratio (x) = 0.12975 0.24445
# Poissons Ratio (y) = 0.12975 0.24445
# Poissons Ratio (z) = 0.08159 0.08159
#
# Static dielectric constant tensor:
#      x y z
#    x 1.851960 0.000000 0.000000 
#    y 0.000000 1.851970 0.000000 
#    z 0.000000 0.000000 1.882480 
# 
# From -- ./inp_files/2265.got.cif
#   From: 2010.05.17/outbox.cif.g08.bks.cpg/sg96_2_cif.got.tgz:2265.got - 2010.06.03 19:52:08.
