data_PCOD9550994
_publ_section_title
;
Structure prediction by ZEFSAII (Michael W. Deem and Ramdas Pophale) SiO2 
 PCOD9550994
Probable space group: P 43 21 2
;
_chemical_formula_sum "Si O2"
_cell_formula_units_Z 28
_cell_length_a 8.011053
_cell_length_b 8.011053
_cell_length_c 18.361371
_cell_angle_alpha 90.000000
_cell_angle_beta 90.000000
_cell_angle_gamma 90.000000
_cell_volume 1178.377159
_symmetry_space_group_name_H-M "P 43 21 2"
_symmetry_group_IT_number 96
_symmetry_cell_setting 'tetragonal'
loop_
_space_group_symop_operation_xyz
x,y,z
1/2-y,1/2+x,3/4+z
-x,-y,1/2+z
1/2+y,1/2-x,1/4+z
1/2+x,1/2-y,1/4-z
1/2-x,1/2+y,3/4-z
y,x,-z
-y,-x,1/2-z
loop_
_atom_site_type_symbol
_atom_site_label
_atom_site_fract_x
_atom_site_fract_y
_atom_site_fract_z
Si Si1 0.059801 0.059801 0.500000
Si Si2 0.874343 0.885707 0.626961
Si Si3 0.083370 0.409557 0.577825
Si Si4 0.898879 0.550119 0.457564
O O1 0.045081 0.243066 0.534438
O O2 0.016353 0.944103 0.569969
O O3 0.924173 0.746833 0.685250
O O4 0.723170 0.831684 0.574197
O O5 0.778032 0.038289 0.668316
O O6 0.966844 0.546484 0.538324
O O7 0.024300 0.429264 0.660985
#
# Coordination Sequence:
#
# PCOD9550994 Si02
#       4
#     4   8   8   8
#     4  12  24  48  70 106 154 194 258 314 376 482
#     4  10  24  44  76 103 149 203 244 318 388 442
#     4  10  26  40  76 105 152 196 252 316 378 453
#     4  10  22  45  69 108 142 197 254 307 381 453
#
# _framework density 23.761490999999999
#
# number of rings (size 3 to 8) (size 9 to 14) (size 15 to 20)
#    1.714    0.000    0.000    3.429    8.000    0.000 
#    0.000    4.286    0.000    0.000    0.000    0.000 
#    0.000    0.000    0.000    0.000    0.000    0.000 
#
# Total GULP energy -155928.550268 kJ/mol
# GULP energy per Si atom -5568.876795 kJ/mol
# Density = 2.370741 g / cm^3
# Si number density = 23.761491 Si / 1000 Ang^3
#
#
#
# Elastic Constant Matrix: (Units=GPa)
#
#
# Indices 1 2 3 4 5 6 
#
# 1 70.6080 22.4451 8.2281 0.0000 0.0000 0.0000
# 2 22.4451 70.6080 8.2281 0.0000 0.0000 0.0000
# 3 8.2281 8.2281 61.3013 0.0000 0.0000 0.0000
# 4 0.0000 0.0000 0.0000 43.2449 0.0000 0.0000
# 5 0.0000 0.0000 0.0000 0.0000 43.2449 0.0000
# 6 0.0000 0.0000 0.0000 0.0000 0.0000 31.4403
#
#
#
# Elastic Compliance Matrix: (Units=1/GPa)
#
#
# Indices 1 2 3 4 5 6 
#
# 1 0.015885 -0.004878 -0.001478 0.000000 0.000000 0.000000
# 2 -0.004878 0.015885 -0.001478 0.000000 0.000000 0.000000
# 3 -0.001478 -0.001478 0.016709 0.000000 0.000000 0.000000
# 4 0.000000 0.000000 0.000000 0.023124 0.000000 0.000000
# 5 0.000000 0.000000 0.000000 0.000000 0.023124 0.000000
# 6 0.000000 0.000000 0.000000 0.000000 0.000000 0.031806
#
#
# Mechanical properties :
#
#
# Convention : Reuss Voigt Hill
#
# Bulk Modulus (GPa) = 30.47373 31.14664 30.81019
# Shear Modulus (GPa) = 32.65025 34.49376 33.57201
#
# Velocity S-wave (km/s) = 3.71088 3.81421 3.76290
# Velocity P-wave (km/s) = 5.58691 5.70386 5.64569
#
# Compressibility (1/GPa) = 0.03281514
#
# Stress axis : x y z
#
# Youngs Moduli (GPa) = 62.95103 62.95103 59.84621
#
# Poissons Ratio (x) = 0.30704 0.08842
# Poissons Ratio (y) = 0.30704 0.08842
# Poissons Ratio (z) = 0.09301 0.09301
#
# Static dielectric constant tensor:
#      x y z
#    x 1.972070 0.000000 0.000000 
#    y 0.000000 1.972070 0.000000 
#    z 0.000000 0.000000 1.881170 
# 
# From -- ./inp_files/2980.got.cif
#   From: 2010.05.17/outbox.cif.g08.bks.cpg/sg96_2_cif.got.tgz:2980.got - 2010.06.03 19:52:08.
