data_PCOD9550485
_publ_section_title
;
Structure prediction by ZEFSAII (Michael W. Deem and Ramdas Pophale) SiO2 
 PCOD9550485
Probable space group: P 43 2 2
;
_chemical_formula_sum "Si O2"
_cell_formula_units_Z 32
_cell_length_a 12.247238
_cell_length_b 12.247238
_cell_length_c 10.130014
_cell_angle_alpha 90.000000
_cell_angle_beta 90.000000
_cell_angle_gamma 90.000000
_cell_volume 1519.449815
_symmetry_space_group_name_H-M "P 43 2 2"
_symmetry_group_IT_number 95
_symmetry_cell_setting 'tetragonal'
loop_
_space_group_symop_operation_xyz
x,y,z
-y,x,3/4+z
-x,-y,1/2+z
y,-x,1/4+z
x,-y,1/2-z
-x,y,-z
y,x,1/4-z
-y,-x,3/4-z
loop_
_atom_site_type_symbol
_atom_site_label
_atom_site_fract_x
_atom_site_fract_y
_atom_site_fract_z
Si Si1 0.000000 0.232171 0.000000
Si Si2 0.757702 0.218946 0.025883
Si Si3 0.992508 0.686471 0.211794
Si Si4 0.379189 0.238385 0.522534
Si Si5 0.072478 0.927523 0.875000
O O1 0.883455 0.173139 0.017631
O O2 0.008010 0.304384 0.130640
O O3 0.759710 0.313333 0.134116
O O4 0.681267 0.119897 0.078204
O O5 0.739470 0.260530 0.875000
O O6 0.889456 0.610413 0.181935
O O7 0.947465 0.801831 0.159231
O O8 0.500000 0.282606 0.500000
O O9 0.308993 0.308993 0.625000
O O10 0.044186 0.000000 0.750000
#
# Coordination Sequence:
#
# PCOD9550485 Si02
#       5
#     4   8   8   8   4
#     4   8  16  32  56  84 128 168 200 248 308 390
#     4   9  19  37  62  92 129 168 208 250 321 401
#     4  10  20  35  58  90 125 158 205 253 321 386
#     4  11  24  45  65  92 128 168 213 272 321 369
#     4  12  24  28  50  88 130 168 204 244 310 392
#
# _framework density 21.060254
#
# number of rings (size 3 to 8) (size 9 to 14) (size 15 to 20)
#    0.000    2.000    1.250    3.000    8.750    0.000 
#    0.000   17.500    0.000    0.000    0.000    0.000 
#    0.000    0.000    0.000    0.000    0.000    0.000 
#
# Total GULP energy -178358.207675 kJ/mol
# GULP energy per Si atom -5573.693990 kJ/mol
# Density = 2.101232 g / cm^3
# Si number density = 21.060254 Si / 1000 Ang^3
#
#
#
# Elastic Constant Matrix: (Units=GPa)
#
#
# Indices 1 2 3 4 5 6 
#
# 1 83.7972 23.9660 32.3757 0.0000 0.0000 0.0000
# 2 23.9660 83.7966 32.3759 0.0000 0.0000 0.0000
# 3 32.3757 32.3759 116.4162 0.0000 0.0000 0.0000
# 4 0.0000 0.0000 0.0000 12.0277 0.0000 0.0000
# 5 0.0000 0.0000 0.0000 0.0000 12.0279 0.0000
# 6 0.0000 0.0000 0.0000 0.0000 0.0000 5.7508
#
#
#
# Elastic Compliance Matrix: (Units=1/GPa)
#
#
# Indices 1 2 3 4 5 6 
#
# 1 0.013928 -0.002786 -0.003098 0.000000 0.000000 0.000000
# 2 -0.002786 0.013928 -0.003099 0.000000 0.000000 0.000000
# 3 -0.003098 -0.003099 0.010313 0.000000 0.000000 0.000000
# 4 0.000000 0.000000 0.000000 0.083142 0.000000 0.000000
# 5 0.000000 0.000000 0.000000 0.000000 0.083140 0.000000
# 6 0.000000 0.000000 0.000000 0.000000 0.000000 0.173890
#
#
# Mechanical properties :
#
#
# Convention : Reuss Voigt Hill
#
# Bulk Modulus (GPa) = 49.49954 51.27170 50.38562
# Shear Modulus (GPa) = 12.40570 18.98076 15.69323
#
# Velocity S-wave (km/s) = 2.42968 3.00536 2.73272
# Velocity P-wave (km/s) = 5.60588 6.03664 5.82524
#
# Compressibility (1/GPa) = 0.02020221
#
# Stress axis : x y z
#
# Youngs Moduli (GPa) = 71.80021 71.79955 96.96255
#
# Poissons Ratio (x) = 0.20005 0.30043
# Poissons Ratio (y) = 0.20005 0.30044
# Poissons Ratio (z) = 0.22247 0.22247
#
# Static dielectric constant tensor:
#      x y z
#    x 1.785580 0.000000 0.000000 
#    y 0.000000 1.785580 0.000000 
#    z 0.000000 0.000000 1.797820 
# 
# From -- ./inp_files/3454.got.cif
#   From: 2010.05.17/outbox.cif.g08.bks.cpg/sg95_2_cif.got.tgz:3454.got - 2010.06.03 19:46:49.
