data_PCOD9550275
_publ_section_title
;
Structure prediction by ZEFSAII (Michael W. Deem and Ramdas Pophale) SiO2 
 PCOD9550275
Probable space group: P 42 21 2
;
_chemical_formula_sum "Si O2"
_cell_formula_units_Z 40
_cell_length_a 8.739353
_cell_length_b 8.739353
_cell_length_c 23.723517
_cell_angle_alpha 90.000000
_cell_angle_beta 90.000000
_cell_angle_gamma 90.000000
_cell_volume 1811.914235
_symmetry_space_group_name_H-M "P 42 21 2"
_symmetry_group_IT_number 94
_symmetry_cell_setting 'tetragonal'
loop_
_space_group_symop_operation_xyz
x,y,z
1/2-y,1/2+x,1/2+z
-x,-y,z
1/2+y,1/2-x,1/2+z
1/2+x,1/2-y,1/2-z
1/2-x,1/2+y,1/2-z
y,x,-z
-y,-x,-z
loop_
_atom_site_type_symbol
_atom_site_label
_atom_site_fract_x
_atom_site_fract_y
_atom_site_fract_z
Si Si1 0.685187 0.159516 0.946132
Si Si2 0.360506 0.106539 0.145615
Si Si3 0.541163 0.326605 0.230028
Si Si4 0.820328 0.177535 0.823612
Si Si5 0.330173 0.202015 0.944393
O O1 0.777292 0.185448 0.888745
O O2 0.510906 0.206912 0.931730
O O3 0.698609 0.977513 0.957072
O O4 0.749845 0.250156 0.000000
O O5 0.443456 0.215827 0.189936
O O6 0.269934 0.213442 0.101767
O O7 0.500000 0.000000 0.120448
O O8 0.246921 0.990323 0.177417
O O9 0.500000 0.500000 0.215713
O O10 0.486448 0.302724 0.294316
O O11 0.712267 0.285314 0.213693
O O12 0.298788 0.298788 0.000000
#
# Coordination Sequence:
#
# PCOD9550275 Si02
#       5
#     8   8   8   8   8
#     4  11  27  48  72 106 140 188 242 301 369 438
#     4  10  24  44  71 103 143 189 237 298 360 430
#     4  11  24  43  69 102 141 189 236 292 356 421
#     4  11  25  44  72 104 146 186 241 296 358 439
#     4  11  26  45  75 101 141 185 238 301 362 441
#
# _framework density 22.076101000000001
#
# number of rings (size 3 to 8) (size 9 to 14) (size 15 to 20)
#    0.000    1.200    0.000    3.600   14.000    2.400 
#    7.200    0.000    0.000    0.000    0.000    0.000 
#    0.000    0.000    0.000    0.000    0.000    0.000 
#
# Total GULP energy -223710.829558 kJ/mol
# GULP energy per Si atom -5592.770739 kJ/mol
# Density = 2.202586 g / cm^3
# Si number density = 22.076101 Si / 1000 Ang^3
#
#
#
# Elastic Constant Matrix: (Units=GPa)
#
#
# Indices 1 2 3 4 5 6 
#
# 1 97.8091 29.7719 27.3695 0.0000 0.0000 0.0000
# 2 29.7719 97.8085 27.3687 0.0000 0.0000 0.0000
# 3 27.3695 27.3687 74.9956 0.0000 0.0000 0.0000
# 4 0.0000 0.0000 0.0000 35.6777 0.0000 0.0000
# 5 0.0000 0.0000 0.0000 0.0000 35.6778 0.0000
# 6 0.0000 0.0000 0.0000 0.0000 0.0000 42.4065
#
#
#
# Elastic Compliance Matrix: (Units=1/GPa)
#
#
# Indices 1 2 3 4 5 6 
#
# 1 0.011996 -0.002702 -0.003392 0.000000 0.000000 0.000000
# 2 -0.002702 0.011996 -0.003391 0.000000 0.000000 0.000000
# 3 -0.003392 -0.003391 0.015810 0.000000 0.000000 0.000000
# 4 0.000000 0.000000 0.000000 0.028029 0.000000 0.000000
# 5 0.000000 0.000000 0.000000 0.000000 0.028029 0.000000
# 6 0.000000 0.000000 0.000000 0.000000 0.000000 0.023581
#
#
# Mechanical properties :
#
#
# Convention : Reuss Voigt Hill
#
# Bulk Modulus (GPa) = 48.00756 48.84815 48.42785
# Shear Modulus (GPa) = 34.39892 35.15928 34.77910
#
# Velocity S-wave (km/s) = 3.95168 3.99512 3.97346
# Velocity P-wave (km/s) = 6.52799 6.59215 6.56015
#
# Compressibility (1/GPa) = 0.02083005
#
# Stress axis : x y z
#
# Youngs Moduli (GPa) = 83.36396 83.36392 63.25295
#
# Poissons Ratio (x) = 0.22527 0.21453
# Poissons Ratio (y) = 0.22527 0.21452
# Poissons Ratio (z) = 0.28274 0.28272
#
# Static dielectric constant tensor:
#      x y z
#    x 1.830240 0.000000 0.000000 
#    y 0.000000 1.830240 0.000000 
#    z 0.000000 0.000000 1.779740 
# 
# From -- ./inp_files/4989.got.cif
#   From: 2010.05.17/outbox.cif.g08.bks.cpg/sg94_3_cif.got.tgz:4989.got - 2010.06.03 19:43:16.
