data_PCOD9550226
_publ_section_title
;
Structure prediction by ZEFSAII (Michael W. Deem and Ramdas Pophale) SiO2 
 PCOD9550226
Probable space group: P 42 21 2
;
_chemical_formula_sum "Si O2"
_cell_formula_units_Z 40
_cell_length_a 7.934102
_cell_length_b 7.934102
_cell_length_c 27.282278
_cell_angle_alpha 90.000000
_cell_angle_beta 90.000000
_cell_angle_gamma 90.000000
_cell_volume 1717.418706
_symmetry_space_group_name_H-M "P 42 21 2"
_symmetry_group_IT_number 94
_symmetry_cell_setting 'tetragonal'
loop_
_space_group_symop_operation_xyz
x,y,z
1/2-y,1/2+x,1/2+z
-x,-y,z
1/2+y,1/2-x,1/2+z
1/2+x,1/2-y,1/2-z
1/2-x,1/2+y,1/2-z
y,x,-z
-y,-x,-z
loop_
_atom_site_type_symbol
_atom_site_label
_atom_site_fract_x
_atom_site_fract_y
_atom_site_fract_z
Si Si1 0.215081 0.177653 0.946388
Si Si2 0.021491 0.801848 0.376594
Si Si3 0.671176 0.668174 0.585154
Si Si4 0.822768 0.551657 0.680392
Si Si5 0.319184 0.582546 0.774034
O O1 0.277851 0.303116 0.904321
O O2 0.013690 0.178154 0.937321
O O3 0.267818 0.980069 0.944541
O O4 0.250647 0.250647 0.000000
O O5 0.858363 0.738486 0.407400
O O6 0.010813 0.732371 0.320853
O O7 0.000000 0.000000 0.369790
O O8 0.683158 0.585287 0.639382
O O9 0.779770 0.422873 0.723311
O O10 0.843301 0.728824 0.707668
O O11 0.000000 0.500000 0.656609
O O12 0.500000 0.500000 0.763725
#
# Coordination Sequence:
#
# PCOD9550226 Si02
#       5
#     8   8   8   8   8
#     4  11  25  48  72  99 137 186 239 290 359 424
#     4  10  24  45  68 105 140 179 231 293 352 422
#     4  10  24  44  69  98 140 178 234 287 351 419
#     4  11  24  39  64 101 133 185 229 282 353 416
#     4  10  23  39  63  95 139 177 228 278 340 428
#
# _framework density 23.290766999999999
#
# number of rings (size 3 to 8) (size 9 to 14) (size 15 to 20)
#    0.000    1.600    0.000    3.000   14.000    3.600 
#   10.800    0.000    0.000    0.000    0.000    0.000 
#    0.000    0.000    0.000    0.000    0.000    0.000 
#
# Total GULP energy -223414.454292 kJ/mol
# GULP energy per Si atom -5585.361357 kJ/mol
# Density = 2.323776 g / cm^3
# Si number density = 23.290767 Si / 1000 Ang^3
#
#
#
# Elastic Constant Matrix: (Units=GPa)
#
#
# Indices 1 2 3 4 5 6 
#
# 1 56.3911 -2.7901 4.9778 0.0000 0.0000 0.0000
# 2 -2.7901 56.3911 4.9778 0.0000 0.0000 0.0000
# 3 4.9778 4.9778 69.1142 0.0000 0.0000 0.0000
# 4 0.0000 0.0000 0.0000 25.5597 0.0000 0.0000
# 5 0.0000 0.0000 0.0000 0.0000 25.5597 0.0000
# 6 0.0000 0.0000 0.0000 0.0000 0.0000 33.9768
#
#
#
# Elastic Compliance Matrix: (Units=1/GPa)
#
#
# Indices 1 2 3 4 5 6 
#
# 1 0.017903 0.001006 -0.001362 0.000000 0.000000 0.000000
# 2 0.001006 0.017903 -0.001362 0.000000 0.000000 0.000000
# 3 -0.001362 -0.001362 0.014665 0.000000 0.000000 0.000000
# 4 0.000000 0.000000 0.000000 0.039124 0.000000 0.000000
# 5 0.000000 0.000000 0.000000 0.000000 0.039124 0.000000
# 6 0.000000 0.000000 0.000000 0.000000 0.000000 0.029432
#
#
# Mechanical properties :
#
#
# Convention : Reuss Voigt Hill
#
# Bulk Modulus (GPa) = 21.26029 21.80303 21.53166
# Shear Modulus (GPa) = 28.20624 28.66797 28.43710
#
# Velocity S-wave (km/s) = 3.48379 3.51219 3.49802
# Velocity P-wave (km/s) = 5.03293 5.08221 5.05763
#
# Compressibility (1/GPa) = 0.04703604
#
# Stress axis : x y z
#
# Youngs Moduli (GPa) = 55.85564 55.85564 68.18967
#
# Poissons Ratio (x) = -0.05619 0.09287
# Poissons Ratio (y) = -0.05619 0.09287
# Poissons Ratio (z) = 0.07607 0.07607
#
# Static dielectric constant tensor:
#      x y z
#    x 1.894380 0.000000 0.000000 
#    y 0.000000 1.894380 0.000000 
#    z 0.000000 0.000000 1.919240 
# 
# From -- ./inp_files/4975.got.cif
#   From: 2010.05.17/outbox.cif.g08.bks.cpg/sg94_3_cif.got.tgz:4975.got - 2010.06.03 19:43:16.
