data_PCOD9550341
_publ_section_title
;
Structure prediction by ZEFSAII (Michael W. Deem and Ramdas Pophale) SiO2 
 PCOD9550341
Probable space group: P 42 21 2
;
_chemical_formula_sum "Si O2"
_cell_formula_units_Z 18
_cell_length_a 9.490889
_cell_length_b 9.490889
_cell_length_c 8.241759
_cell_angle_alpha 90.000000
_cell_angle_beta 90.000000
_cell_angle_gamma 90.000000
_cell_volume 742.392711
_symmetry_space_group_name_H-M "P 42 21 2"
_symmetry_group_IT_number 94
_symmetry_cell_setting 'tetragonal'
loop_
_space_group_symop_operation_xyz
x,y,z
1/2-y,1/2+x,1/2+z
-x,-y,z
1/2+y,1/2-x,1/2+z
1/2+x,1/2-y,1/2-z
1/2-x,1/2+y,1/2-z
y,x,-z
-y,-x,-z
loop_
_atom_site_type_symbol
_atom_site_label
_atom_site_fract_x
_atom_site_fract_y
_atom_site_fract_z
Si Si1 0.760593 0.977150 0.563759
Si Si2 0.000000 0.000000 0.000000
Si Si3 0.227188 0.897121 0.239089
O O1 0.902578 0.902578 0.500000
O O2 0.675364 0.851532 0.642478
O O3 0.700037 0.033356 0.395163
O O4 0.794611 0.106371 0.684206
O O5 0.863164 0.005144 0.116469
#
# Coordination Sequence:
#
# PCOD9550341 Si02
#       3
#     8   2   8
#     4  11  23  48  76 113 156 218 269 339 405 501
#     4  12  20  38  80 110 148 216 252 332 408 484
#     4  11  24  46  78 112 161 212 274 334 422 482
#
# _framework density 24.245929
#
# number of rings (size 3 to 8) (size 9 to 14) (size 15 to 20)
#    0.000    0.889    6.667    1.333    0.000    3.556 
#    0.000   11.111    0.000    0.000    0.000    0.000 
#    0.000    0.000    0.000    0.000    0.000    0.000 
#
# Total GULP energy -100740.759635 kJ/mol
# GULP energy per Si atom -5596.708869 kJ/mol
# Density = 2.419074 g / cm^3
# Si number density = 24.245929 Si / 1000 Ang^3
#
#
#
# Elastic Constant Matrix: (Units=GPa)
#
#
# Indices 1 2 3 4 5 6 
#
# 1 129.4814 93.2064 105.7358 0.0000 0.0000 0.0000
# 2 93.2064 129.4814 105.7358 0.0000 0.0000 0.0000
# 3 105.7358 105.7358 220.1113 0.0000 0.0000 0.0000
# 4 0.0000 0.0000 0.0000 95.2053 0.0000 0.0000
# 5 0.0000 0.0000 0.0000 0.0000 95.2053 0.0000
# 6 0.0000 0.0000 0.0000 0.0000 0.0000 58.0672
#
#
#
# Elastic Compliance Matrix: (Units=1/GPa)
#
#
# Indices 1 2 3 4 5 6 
#
# 1 0.017912 -0.009655 -0.003967 0.000000 0.000000 0.000000
# 2 -0.009655 0.017912 -0.003967 0.000000 0.000000 0.000000
# 3 -0.003967 -0.003967 0.008354 0.000000 0.000000 0.000000
# 4 0.000000 0.000000 0.000000 0.010504 0.000000 0.000000
# 5 0.000000 0.000000 0.000000 0.000000 0.010504 0.000000
# 6 0.000000 0.000000 0.000000 0.000000 0.000000 0.017221
#
#
# Mechanical properties :
#
#
# Convention : Reuss Voigt Hill
#
# Bulk Modulus (GPa) = 111.08178 120.93669 116.00923
# Shear Modulus (GPa) = 41.46466 61.32199 51.39332
#
# Velocity S-wave (km/s) = 4.13991 5.03454 4.60898
# Velocity P-wave (km/s) = 8.29252 9.15330 8.73352
#
# Compressibility (1/GPa) = 0.00900238
#
# Stress axis : x y z
#
# Youngs Moduli (GPa) = 55.82750 55.82750 119.70115
#
# Poissons Ratio (x) = 0.53901 0.47482
# Poissons Ratio (y) = 0.53901 0.47482
# Poissons Ratio (z) = 0.22145 0.22145
#
# Static dielectric constant tensor:
#      x y z
#    x -0.707510 0.000000 0.000000 
#    y 0.000000 -0.707510 0.000000 
#    z 0.000000 0.000000 2.206660 
# 
# From -- ./inp_files/846.got.cif
#   From: 2010.05.17/outbox.cif.g08.bks.cpg/sg94_1_cif.got.tgz:846.got - 2010.06.03 19:43:16.
