data_PCOD9550072
_publ_section_title
;
Structure prediction by ZEFSAII (Michael W. Deem and Ramdas Pophale) SiO2 
 PCOD9550072
Probable space group: P 42 21 2
;
_chemical_formula_sum "Si O2"
_cell_formula_units_Z 60
_cell_length_a 11.723798
_cell_length_b 11.723798
_cell_length_c 21.512469
_cell_angle_alpha 90.000000
_cell_angle_beta 90.000000
_cell_angle_gamma 90.000000
_cell_volume 2956.833782
_symmetry_space_group_name_H-M "P 42 21 2"
_symmetry_group_IT_number 94
_symmetry_cell_setting 'tetragonal'
loop_
_space_group_symop_operation_xyz
x,y,z
1/2-y,1/2+x,1/2+z
-x,-y,z
1/2+y,1/2-x,1/2+z
1/2+x,1/2-y,1/2-z
1/2-x,1/2+y,1/2-z
y,x,-z
-y,-x,-z
loop_
_atom_site_type_symbol
_atom_site_label
_atom_site_fract_x
_atom_site_fract_y
_atom_site_fract_z
Si Si1 0.346498 0.211360 0.054063
Si Si2 0.136052 0.749094 0.659741
Si Si3 0.782729 0.524159 0.392860
Si Si4 0.386933 0.426988 0.281175
Si Si5 0.218115 0.617192 0.977282
Si Si6 0.006897 0.311789 0.204317
Si Si7 0.500000 0.000000 0.192349
Si Si8 0.108570 0.556201 0.092452
O O1 0.327239 0.281134 0.118536
O O2 0.482576 0.207931 0.039357
O O3 0.287634 0.086138 0.061489
O O4 0.281204 0.281204 0.000000
O O5 0.078079 0.806456 0.720090
O O6 0.205191 0.637371 0.682943
O O7 0.036768 0.699679 0.614973
O O8 0.677646 0.535222 0.344488
O O9 0.812084 0.644254 0.426958
O O10 0.889821 0.496607 0.349457
O O11 0.500000 0.500000 0.269573
O O12 0.434459 0.300243 0.288400
O O13 0.344333 0.655668 0.000000
O O14 0.156381 0.641262 0.042672
O O15 0.007919 0.388447 0.265333
O O16 0.943363 0.385464 0.152397
O O17 0.000000 0.500000 0.059377
#
# Coordination Sequence:
#
# PCOD9550072 Si02
#       8
#     8   8   8   8   8   8   4   8
#     4  12  25  45  72 104 141 187 234 298 360 424
#     4  11  23  41  68 101 135 185 224 284 362 412
#     4  12  25  48  71 102 139 190 244 290 355 438
#     4  12  27  44  67 107 148 179 231 301 364 420
#     4  12  26  44  70  98 138 186 238 290 345 426
#     4  11  22  42  70  97 137 181 235 285 343 430
#     4  12  20  44  74 102 130 190 244 282 344 432
#     4  10  20  41  66  92 127 176 238 276 337 420
#
# _framework density 20.291976999999999
#
# number of rings (size 3 to 8) (size 9 to 14) (size 15 to 20)
#    0.000    0.533    6.000    3.200    1.867    2.400 
#    2.400    0.000    0.000    0.000    0.000    0.000 
#    0.000    0.000    0.000    0.000    0.000    0.000 
#
# Total GULP energy -334814.813647 kJ/mol
# GULP energy per Si atom -5580.246894 kJ/mol
# Density = 2.024579 g / cm^3
# Si number density = 20.291977 Si / 1000 Ang^3
#
#
#
# Elastic Constant Matrix: (Units=GPa)
#
#
# Indices 1 2 3 4 5 6 
#
# 1 78.3402 30.9997 29.2389 0.0000 0.0000 0.0000
# 2 30.9997 78.3415 29.2393 0.0000 0.0000 0.0000
# 3 29.2389 29.2393 84.7854 0.0000 0.0000 0.0000
# 4 0.0000 0.0000 0.0000 60.6512 0.0000 0.0000
# 5 0.0000 0.0000 0.0000 0.0000 60.6415 0.0000
# 6 0.0000 0.0000 0.0000 0.0000 0.0000 33.4305
#
#
#
# Elastic Compliance Matrix: (Units=1/GPa)
#
#
# Indices 1 2 3 4 5 6 
#
# 1 0.016169 -0.004955 -0.003867 0.000000 0.000000 0.000000
# 2 -0.004955 0.016169 -0.003867 0.000000 0.000000 0.000000
# 3 -0.003867 -0.003867 0.014462 0.000000 0.000000 0.000000
# 4 0.000000 0.000000 0.000000 0.016488 0.000000 0.000000
# 5 0.000000 0.000000 0.000000 0.000000 0.016490 0.000000
# 6 0.000000 0.000000 0.000000 0.000000 0.000000 0.029913
#
#
# Mechanical properties :
#
#
# Convention : Reuss Voigt Hill
#
# Bulk Modulus (GPa) = 46.68356 46.71367 46.69861
# Shear Modulus (GPa) = 35.15960 41.07727 38.11844
#
# Velocity S-wave (km/s) = 4.16707 4.50412 4.33887
# Velocity P-wave (km/s) = 6.79768 7.07956 6.94005
#
# Compressibility (1/GPa) = 0.02142082
#
# Stress axis : x y z
#
# Youngs Moduli (GPa) = 61.84750 61.84848 69.14754
#
# Poissons Ratio (x) = 0.30643 0.26741
# Poissons Ratio (y) = 0.30643 0.26741
# Poissons Ratio (z) = 0.23918 0.23919
#
# Static dielectric constant tensor:
#      x y z
#    x 1.212980 0.000000 0.000000 
#    y 0.000000 1.213200 0.000000 
#    z 0.000000 0.000000 1.737500 
# 
# From -- ./inp_files/4784.got.cif
#   From: 2010.05.17/outbox.cif.g08.bks.cpg/sg94_3_cif.got.tgz:4784.got - 2010.06.03 19:43:16.
