data_PCOD9550839
_publ_section_title
;
Structure prediction by ZEFSAII (Michael W. Deem and Ramdas Pophale) SiO2 
 PCOD9550839
Probable space group: P 43 21 2
;
_chemical_formula_sum "Si O2"
_cell_formula_units_Z 56
_cell_length_a 15.366305
_cell_length_b 15.366305
_cell_length_c 9.605245
_cell_angle_alpha 90.000000
_cell_angle_beta 90.000000
_cell_angle_gamma 90.000000
_cell_volume 2268.022429
_symmetry_space_group_name_H-M "P 43 21 2"
_symmetry_group_IT_number 96
_symmetry_cell_setting 'tetragonal'
loop_
_space_group_symop_operation_xyz
x,y,z
1/2-y,1/2+x,3/4+z
-x,-y,1/2+z
1/2+y,1/2-x,1/4+z
1/2+x,1/2-y,1/4-z
1/2-x,1/2+y,3/4-z
y,x,-z
-y,-x,1/2-z
loop_
_atom_site_type_symbol
_atom_site_label
_atom_site_fract_x
_atom_site_fract_y
_atom_site_fract_z
Si Si1 0.808150 0.008551 0.507587
Si Si2 0.281471 0.200341 0.686476
Si Si3 0.258040 0.520692 0.066688
Si Si4 0.886351 0.604870 0.570550
Si Si5 0.570500 0.662268 0.187072
Si Si6 0.260172 0.585178 0.485472
Si Si7 0.131061 0.412696 0.768296
O O1 0.793068 0.985896 0.343798
O O2 0.890388 0.065741 0.553141
O O3 0.723207 0.066479 0.550326
O O4 0.797959 0.927226 0.608582
O O5 0.327756 0.150610 0.817203
O O6 0.353890 0.269422 0.639644
O O7 0.188428 0.243324 0.710933
O O8 0.246225 0.114208 0.608839
O O9 0.159986 0.486586 0.091463
O O10 0.315359 0.454188 0.154480
O O11 0.849760 0.629021 0.419178
O O12 0.989826 0.596847 0.551328
O O13 0.483291 0.681139 0.099995
O O14 0.157141 0.563712 0.458396
#
# Coordination Sequence:
#
# PCOD9550839 Si02
#       7
#     8   8   8   8   8   8   8
#     4  11  22  46  69 101 139 181 253 299 354 430
#     4  11  23  45  70 102 138 189 247 291 361 455
#     4  10  23  44  70 104 135 190 241 306 366 433
#     4  10  20  39  67 103 138 171 245 313 364 425
#     4  11  26  46  68 100 149 191 233 300 374 443
#     4  12  26  43  70 101 143 198 236 300 384 444
#     4  11  20  39  66 103 138 177 242 306 369 437
#
# _framework density 24.691113999999999
#
# number of rings (size 3 to 8) (size 9 to 14) (size 15 to 20)
#    0.000    1.143    5.714    0.857    0.000    5.143 
#    5.143    4.286    0.000    0.000    0.000    0.000 
#    0.000    0.000    0.000    0.000    0.000    0.000 
#
# Total GULP energy -311941.915134 kJ/mol
# GULP energy per Si atom -5570.391342 kJ/mol
# Density = 2.463492 g / cm^3
# Si number density = 24.691114 Si / 1000 Ang^3
#
#
#
# Elastic Constant Matrix: (Units=GPa)
#
#
# Indices 1 2 3 4 5 6 
#
# 1 61.6136 20.3615 15.9938 0.0000 0.0000 0.0000
# 2 20.3615 61.6136 15.9938 0.0000 0.0000 0.0000
# 3 15.9938 15.9938 80.7163 0.0000 0.0000 0.0000
# 4 0.0000 0.0000 0.0000 3.6836 0.0000 0.0000
# 5 0.0000 0.0000 0.0000 0.0000 3.6836 0.0000
# 6 0.0000 0.0000 0.0000 0.0000 0.0000 37.1422
#
#
#
# Elastic Compliance Matrix: (Units=1/GPa)
#
#
# Indices 1 2 3 4 5 6 
#
# 1 0.018731 -0.005510 -0.002620 0.000000 0.000000 0.000000
# 2 -0.005510 0.018731 -0.002620 0.000000 0.000000 0.000000
# 3 -0.002620 -0.002620 0.013427 0.000000 0.000000 0.000000
# 4 0.000000 0.000000 0.000000 0.271472 0.000000 0.000000
# 5 0.000000 0.000000 0.000000 0.000000 0.271472 0.000000
# 6 0.000000 0.000000 0.000000 0.000000 0.000000 0.026924
#
#
# Mechanical properties :
#
#
# Convention : Reuss Voigt Hill
#
# Bulk Modulus (GPa) = 34.02463 34.29353 34.15908
# Shear Modulus (GPa) = 7.66809 19.00818 13.33813
#
# Velocity S-wave (km/s) = 1.76418 2.77761 2.32674
# Velocity P-wave (km/s) = 4.23790 4.91996 4.59161
#
# Compressibility (1/GPa) = 0.02939047
#
# Stress axis : x y z
#
# Youngs Moduli (GPa) = 53.38708 53.38708 74.47539
#
# Poissons Ratio (x) = 0.29417 0.19511
# Poissons Ratio (y) = 0.29417 0.19511
# Poissons Ratio (z) = 0.13986 0.13986
#
# Static dielectric constant tensor:
#      x y z
#    x 2.056780 0.000000 0.000000 
#    y 0.000000 2.056780 0.000000 
#    z 0.000000 0.000000 2.108710 
# 
# From -- ./inp_files/2299.got.cif
#   From: 2010.05.17/outbox.cif.g08.bks.cpg/sg96_2_cif.got.tgz:2299.got - 2010.06.03 19:52:08.
