data_PCOD9550747
_publ_section_title
;
Structure prediction by ZEFSAII (Michael W. Deem and Ramdas Pophale) SiO2 
 PCOD9550747
Probable space group: P 43 21 2
;
_chemical_formula_sum "Si O2"
_cell_formula_units_Z 52
_cell_length_a 17.145175
_cell_length_b 17.145175
_cell_length_c 9.922825
_cell_angle_alpha 90.000000
_cell_angle_beta 90.000000
_cell_angle_gamma 90.000000
_cell_volume 2916.884124
_symmetry_space_group_name_H-M "P 43 21 2"
_symmetry_group_IT_number 96
_symmetry_cell_setting 'tetragonal'
loop_
_space_group_symop_operation_xyz
x,y,z
1/2-y,1/2+x,3/4+z
-x,-y,1/2+z
1/2+y,1/2-x,1/4+z
1/2+x,1/2-y,1/4-z
1/2-x,1/2+y,3/4-z
y,x,-z
-y,-x,1/2-z
loop_
_atom_site_type_symbol
_atom_site_label
_atom_site_fract_x
_atom_site_fract_y
_atom_site_fract_z
Si Si1 0.932938 0.506317 0.171703
Si Si2 0.311590 0.516416 0.256244
Si Si3 0.229967 0.566892 0.611252
Si Si4 0.278232 0.404762 0.475670
Si Si5 0.926346 0.945091 0.218278
Si Si6 0.624384 0.175943 0.666079
Si Si7 0.871514 0.871514 0.500000
O O1 0.852807 0.459914 0.165576
O O2 0.919607 0.593985 0.113549
O O3 0.964635 0.509428 0.320416
O O4 0.278770 0.436953 0.322609
O O5 0.375031 0.547018 0.367794
O O6 0.358260 0.512045 0.116820
O O7 0.239162 0.576396 0.247542
O O8 0.268451 0.484534 0.562433
O O9 0.216248 0.622911 0.481984
O O10 0.282416 0.608721 0.720290
O O11 0.357517 0.357517 0.500000
O O12 0.206281 0.349145 0.518692
O O13 0.898061 0.913975 0.362677
O O14 0.997251 0.002750 0.250000
#
# Coordination Sequence:
#
# PCOD9550747 Si02
#       7
#     8   8   8   8   8   8   4
#     4   9  18  37  62  84 111 151 198 243 291 357
#     4  10  21  39  56  94 117 149 215 256 288 384
#     4   9  20  35  57  87 114 156 201 238 297 380
#     4  10  19  31  60  85 116 152 200 245 309 358
#     4  11  23  35  61  85 127 162 205 248 307 368
#     4   9  18  36  60  85 115 154 198 248 301 357
#     4  12  20  36  60  84 124 164 192 250 322 358
#
# _framework density 17.827242999999999
#
# number of rings (size 3 to 8) (size 9 to 14) (size 15 to 20)
#    0.000    2.154    3.077    2.308    4.308    0.000 
#    2.769    0.000    6.769    0.000    2.000    0.000 
#    0.000    0.000    0.000    0.000    0.000    0.000 
#
# Total GULP energy -289647.033146 kJ/mol
# GULP energy per Si atom -5570.135253 kJ/mol
# Density = 1.778667 g / cm^3
# Si number density = 17.827243 Si / 1000 Ang^3
#
#
#
# Elastic Constant Matrix: (Units=GPa)
#
#
# Indices 1 2 3 4 5 6 
#
# 1 56.4124 59.9325 41.8969 0.0000 0.0000 0.0000
# 2 59.9325 56.4136 41.8979 0.0000 0.0000 0.0000
# 3 41.8969 41.8979 95.3119 0.0000 0.0000 0.0000
# 4 0.0000 0.0000 0.0000 25.5119 0.0000 0.0000
# 5 0.0000 0.0000 0.0000 0.0000 25.5095 0.0000
# 6 0.0000 0.0000 0.0000 0.0000 0.0000 32.6150
#
#
#
# Elastic Compliance Matrix: (Units=1/GPa)
#
#
# Indices 1 2 3 4 5 6 
#
# 1 -0.135779 0.148356 -0.005530 0.000000 0.000000 0.000000
# 2 0.148356 -0.135778 -0.005527 0.000000 0.000000 0.000000
# 3 -0.005530 -0.005527 0.015352 0.000000 0.000000 0.000000
# 4 0.000000 0.000000 0.000000 0.039197 0.000000 0.000000
# 5 0.000000 0.000000 0.000000 0.000000 0.039201 0.000000
# 6 0.000000 0.000000 0.000000 0.000000 0.000000 0.030661
#
#
# Mechanical properties :
#
#
# Convention : Reuss Voigt Hill
#
# Bulk Modulus (GPa) = 54.37180 55.06583 54.71882
# Shear Modulus (GPa) = -12.03044 21.02134 4.49545
#
# Velocity S-wave (km/s) = -2.60058 3.43763 1.58970
# Velocity P-wave (km/s) = 4.64200 6.83462 5.84210
#
# Compressibility (1/GPa) = 0.01839189
#
# Stress axis : x y z
#
# Youngs Moduli (GPa) = -7.36489 -7.36495 65.13642
#
# Poissons Ratio (x) = 1.09263 0.36019
# Poissons Ratio (y) = 1.09262 0.36004
# Poissons Ratio (z) = -0.04073 -0.04071
#
# Static dielectric constant tensor:
#      x y z
#    x 1.630480 0.000000 0.000000 
#    y 0.000000 1.630480 0.000000 
#    z 0.000000 0.000000 1.601720 
# 
# From -- ./inp_files/1565.got.cif
#   From: 2010.05.17/outbox.cif.g08.bks.cpg/sg96_1_cif.got.tgz:1565.got - 2010.06.03 19:52:08.
