data_PCOD9550735
_publ_section_title
;
Structure prediction by ZEFSAII (Michael W. Deem and Ramdas Pophale) SiO2 
 PCOD9550735
Probable space group: P 43 21 2
;
_chemical_formula_sum "Si O2"
_cell_formula_units_Z 28
_cell_length_a 12.446040
_cell_length_b 12.446040
_cell_length_c 8.018949
_cell_angle_alpha 90.000000
_cell_angle_beta 90.000000
_cell_angle_gamma 90.000000
_cell_volume 1242.166568
_symmetry_space_group_name_H-M "P 43 21 2"
_symmetry_group_IT_number 96
_symmetry_cell_setting 'tetragonal'
loop_
_space_group_symop_operation_xyz
x,y,z
1/2-y,1/2+x,3/4+z
-x,-y,1/2+z
1/2+y,1/2-x,1/4+z
1/2+x,1/2-y,1/4-z
1/2-x,1/2+y,3/4-z
y,x,-z
-y,-x,1/2-z
loop_
_atom_site_type_symbol
_atom_site_label
_atom_site_fract_x
_atom_site_fract_y
_atom_site_fract_z
Si Si1 0.974104 0.229491 0.191292
Si Si2 0.486444 0.486444 0.500000
Si Si3 0.823199 0.137448 0.965444
Si Si4 0.401024 0.906758 0.379704
O O1 0.900828 0.233349 0.026288
O O2 0.902239 0.224135 0.358171
O O3 0.051090 0.327744 0.227135
O O4 0.110544 0.028078 0.804735
O O5 0.453423 0.401912 0.642080
O O6 0.719159 0.138099 0.849099
O O7 0.475937 0.900989 0.216309
#
# Coordination Sequence:
#
# PCOD9550735 Si02
#       4
#     8   4   8   8
#     4   9  18  38  59  79 118 153 190 242 291 347
#     4  10  18  36  60  90 106 144 206 242 280 334
#     4   9  19  37  56  86 114 150 196 238 285 346
#     4  10  22  41  58  84 126 156 191 244 304 357
#
# _framework density 22.541260999999999
#
# number of rings (size 3 to 8) (size 9 to 14) (size 15 to 20)
#    0.000    2.857    0.000    3.429    0.000    2.286 
#   36.000    0.000    0.000    0.000    0.000    0.000 
#    0.000    0.000    0.000    0.000    0.000    0.000 
#
# Total GULP energy -155911.701303 kJ/mol
# GULP energy per Si atom -5568.275047 kJ/mol
# Density = 2.248996 g / cm^3
# Si number density = 22.541261 Si / 1000 Ang^3
#
#
#
# Elastic Constant Matrix: (Units=GPa)
#
#
# Indices 1 2 3 4 5 6 
#
# 1 27.8915 39.1060 -0.2274 0.0000 0.0000 0.0000
# 2 39.1060 27.8915 -0.2274 0.0000 0.0000 0.0000
# 3 -0.2274 -0.2274 72.4341 0.0000 0.0000 0.0000
# 4 0.0000 0.0000 0.0000 22.5119 0.0000 0.0000
# 5 0.0000 0.0000 0.0000 0.0000 22.5119 0.0000
# 6 0.0000 0.0000 0.0000 0.0000 0.0000 30.1782
#
#
#
# Elastic Compliance Matrix: (Units=1/GPa)
#
#
# Indices 1 2 3 4 5 6 
#
# 1 -0.037122 0.052048 0.000047 0.000000 0.000000 0.000000
# 2 0.052048 -0.037122 0.000047 0.000000 0.000000 0.000000
# 3 0.000047 0.000047 0.013806 0.000000 0.000000 0.000000
# 4 0.000000 0.000000 0.000000 0.044421 0.000000 0.000000
# 5 0.000000 0.000000 0.000000 0.000000 0.044421 0.000000
# 6 0.000000 0.000000 0.000000 0.000000 0.000000 0.033136
#
#
# Mechanical properties :
#
#
# Convention : Reuss Voigt Hill
#
# Bulk Modulus (GPa) = 22.80720 22.83554 22.82137
# Shear Modulus (GPa) = -177.75814 21.01146 -78.37334
#
# Velocity S-wave (km/s) = -8.88989 3.05640 -5.90291
# Velocity P-wave (km/s) = 9.75877 4.75478 6.02601
#
# Compressibility (1/GPa) = 0.04384581
#
# Stress axis : x y z
#
# Youngs Moduli (GPa) = -26.93823 -26.93823 72.43255
#
# Poissons Ratio (x) = 1.40209 -0.00339
# Poissons Ratio (y) = 1.40209 -0.00339
# Poissons Ratio (z) = 0.00126 0.00126
#
# Static dielectric constant tensor:
#      x y z
#    x 1.874730 0.000000 0.000000 
#    y 0.000000 1.874730 0.000000 
#    z 0.000000 0.000000 1.929770 
# 
# From -- ./inp_files/1063.got.cif
#   From: 2010.05.17/outbox.cif.g08.bks.cpg/sg96_1_cif.got.tgz:1063.got - 2010.06.03 19:52:08.
