data_PCOD9550224
_publ_section_title
;
Structure prediction by ZEFSAII (Michael W. Deem and Ramdas Pophale) SiO2 
 PCOD9550224
Probable space group: P 42 21 2
;
_chemical_formula_sum "Si O2"
_cell_formula_units_Z 44
_cell_length_a 8.534659
_cell_length_b 8.534659
_cell_length_c 29.824062
_cell_angle_alpha 90.000000
_cell_angle_beta 90.000000
_cell_angle_gamma 90.000000
_cell_volume 2172.396732
_symmetry_space_group_name_H-M "P 42 21 2"
_symmetry_group_IT_number 94
_symmetry_cell_setting 'tetragonal'
loop_
_space_group_symop_operation_xyz
x,y,z
1/2-y,1/2+x,1/2+z
-x,-y,z
1/2+y,1/2-x,1/2+z
1/2+x,1/2-y,1/2-z
1/2-x,1/2+y,1/2-z
y,x,-z
-y,-x,-z
loop_
_atom_site_type_symbol
_atom_site_label
_atom_site_fract_x
_atom_site_fract_y
_atom_site_fract_z
Si Si1 0.596134 0.341081 0.926663
Si Si2 0.000000 0.000000 0.898210
Si Si3 0.000000 0.500000 0.531204
Si Si4 0.244305 0.005799 0.328440
Si Si5 0.986866 0.749598 0.175575
Si Si6 0.755756 0.566092 0.464203
Si Si7 0.500000 0.500000 0.751511
O O1 0.500000 0.500000 0.941868
O O2 0.575232 0.337336 0.872728
O O3 0.778774 0.341889 0.943014
O O4 0.538242 0.163779 0.942647
O O5 0.855139 0.035222 0.866252
O O6 0.023814 0.154718 0.927572
O O7 0.136773 0.537432 0.495842
O O8 0.337242 0.848281 0.339922
O O9 0.139455 0.967626 0.285785
O O10 0.373638 0.131733 0.313883
O O11 0.958157 0.857723 0.218506
O O12 0.636225 0.636225 0.500000
#
# Coordination Sequence:
#
# PCOD9550224 Si02
#       7
#     8   4   4   8   8   8   4
#     4  11  23  44  69 101 137 180 236 288 354 428
#     4  11  21  42  61  90 130 168 217 274 343 419
#     4  10  24  44  66  98 136 176 228 292 356 414
#     4  11  21  41  64  92 128 171 223 274 343 420
#     4  10  23  38  66  92 128 171 219 275 349 420
#     4  10  23  42  62  96 129 171 227 278 344 421
#     4  11  22  40  63  98 126 170 219 284 344 417
#
# _framework density 20.254125999999999
#
# number of rings (size 3 to 8) (size 9 to 14) (size 15 to 20)
#    0.000    1.455    2.727    2.455    2.545    4.727 
#    6.545    0.000    0.000    0.000    0.000    0.000 
#    0.000    0.000    0.000    0.000    0.000    0.000 
#
# Total GULP energy -245236.547172 kJ/mol
# GULP energy per Si atom -5573.557890 kJ/mol
# Density = 2.020803 g / cm^3
# Si number density = 20.254126 Si / 1000 Ang^3
#
#
#
# Elastic Constant Matrix: (Units=GPa)
#
#
# Indices 1 2 3 4 5 6 
#
# 1 39.7759 4.4090 1.0355 0.0000 0.0000 0.0000
# 2 4.4090 39.7759 1.0355 0.0000 0.0000 0.0000
# 3 1.0355 1.0355 81.7700 0.0000 0.0000 0.0000
# 4 0.0000 0.0000 0.0000 -7.3124 0.0000 0.0000
# 5 0.0000 0.0000 0.0000 0.0000 -7.3124 0.0000
# 6 0.0000 0.0000 0.0000 0.0000 0.0000 23.9332
#
#
#
# Elastic Compliance Matrix: (Units=1/GPa)
#
#
# Indices 1 2 3 4 5 6 
#
# 1 0.025460 -0.002815 -0.000287 0.000000 0.000000 0.000000
# 2 -0.002815 0.025460 -0.000287 0.000000 0.000000 0.000000
# 3 -0.000287 -0.000287 0.012237 0.000000 0.000000 0.000000
# 4 0.000000 0.000000 0.000000 -0.136753 0.000000 0.000000
# 5 0.000000 0.000000 0.000000 0.000000 -0.136753 0.000000
# 6 0.000000 0.000000 0.000000 0.000000 0.000000 0.041783
#
#
# Mechanical properties :
#
#
# Convention : Reuss Voigt Hill
#
# Bulk Modulus (GPa) = 17.73653 19.36465 18.55059
# Shear Modulus (GPa) = -34.96590 12.18446 -11.39072
#
# Velocity S-wave (km/s) = -4.15946 2.45537 -2.37405
# Velocity P-wave (km/s) = 3.78049 4.19763 1.28996
#
# Compressibility (1/GPa) = 0.05638081
#
# Stress axis : x y z
#
# Youngs Moduli (GPa) = 39.27686 39.27686 81.72150
#
# Poissons Ratio (x) = 0.11055 0.02344
# Poissons Ratio (y) = 0.11055 0.02344
# Poissons Ratio (z) = 0.01126 0.01126
#
# Static dielectric constant tensor:
#      x y z
#    x 2.183940 0.000000 0.000000 
#    y 0.000000 2.183940 0.000000 
#    z 0.000000 0.000000 1.687720 
# 
# From -- ./inp_files/5516.got.cif
#   From: 2010.05.17/outbox.cif.g08.bks.cpg/sg94_3_cif.got.tgz:5516.got - 2010.06.03 19:43:16.
