data_PCOD9550829
_publ_section_title
;
Structure prediction by ZEFSAII (Michael W. Deem and Ramdas Pophale) SiO2 
 PCOD9550829
Probable space group: P 43 21 2
;
_chemical_formula_sum "Si O2"
_cell_formula_units_Z 52
_cell_length_a 19.434617
_cell_length_b 19.434617
_cell_length_c 6.740106
_cell_angle_alpha 90.000000
_cell_angle_beta 90.000000
_cell_angle_gamma 90.000000
_cell_volume 2545.767274
_symmetry_space_group_name_H-M "P 43 21 2"
_symmetry_group_IT_number 96
_symmetry_cell_setting 'tetragonal'
loop_
_space_group_symop_operation_xyz
x,y,z
1/2-y,1/2+x,3/4+z
-x,-y,1/2+z
1/2+y,1/2-x,1/4+z
1/2+x,1/2-y,1/4-z
1/2-x,1/2+y,3/4-z
y,x,-z
-y,-x,1/2-z
loop_
_atom_site_type_symbol
_atom_site_label
_atom_site_fract_x
_atom_site_fract_y
_atom_site_fract_z
Si Si1 0.760410 0.900241 0.821510
Si Si2 0.329242 0.872156 0.001592
Si Si3 0.900104 0.210844 0.302086
Si Si4 0.814447 0.544090 0.864222
Si Si5 0.038740 0.128861 0.380269
Si Si6 0.374667 0.625334 0.750000
Si Si7 0.944564 0.422642 0.277740
O O1 0.705863 0.837825 0.829721
O O2 0.805661 0.884595 0.627436
O O3 0.720435 0.973022 0.819465
O O4 0.812145 0.916200 0.005310
O O5 0.261578 0.902355 0.890175
O O6 0.386914 0.881010 0.831909
O O7 0.342087 0.917778 0.193931
O O8 0.832778 0.167223 0.250000
O O9 0.906433 0.260947 0.493953
O O10 0.961768 0.157366 0.352702
O O11 0.874448 0.530117 0.706917
O O12 0.059123 0.059123 0.500000
O O13 0.065881 0.120447 0.160083
O O14 0.927479 0.495748 0.367141
#
# Coordination Sequence:
#
# PCOD9550829 Si02
#       7
#     8   8   8   8   8   4   8
#     4  10  21  36  62  86 121 161 207 249 308 372
#     4  11  23  39  61  89 126 172 209 253 325 381
#     4  10  23  42  62  93 129 159 209 269 331 391
#     4  10  22  42  61  86 126 170 206 258 320 379
#     4   9  20  41  63  89 120 160 206 262 316 385
#     4  10  20  38  62  88 116 154 206 252 306 376
#     4  11  25  37  60  92 126 163 218 265 306 373
#
# _framework density 20.426061000000001
#
# number of rings (size 3 to 8) (size 9 to 14) (size 15 to 20)
#    0.000    1.846    0.000    2.769    5.385    5.538 
#    6.923    0.000    0.000    0.000    0.000    0.000 
#    0.000    0.000    0.000    0.000    0.000    0.000 
#
# Total GULP energy -289724.719624 kJ/mol
# GULP energy per Si atom -5571.629224 kJ/mol
# Density = 2.037957 g / cm^3
# Si number density = 20.426061 Si / 1000 Ang^3
#
#
#
# Elastic Constant Matrix: (Units=GPa)
#
#
# Indices 1 2 3 4 5 6 
#
# 1 35.7490 6.5639 11.8850 0.0000 0.0000 0.0000
# 2 6.5639 35.7414 11.8810 0.0000 0.0000 0.0000
# 3 11.8850 11.8810 96.9785 0.0000 0.0000 0.0000
# 4 0.0000 0.0000 0.0000 20.4638 0.0000 0.0000
# 5 0.0000 0.0000 0.0000 0.0000 20.4644 0.0000
# 6 0.0000 0.0000 0.0000 0.0000 0.0000 27.5628
#
#
#
# Elastic Compliance Matrix: (Units=1/GPa)
#
#
# Indices 1 2 3 4 5 6 
#
# 1 0.029823 -0.004443 -0.003111 0.000000 0.000000 0.000000
# 2 -0.004443 0.029828 -0.003110 0.000000 0.000000 0.000000
# 3 -0.003111 -0.003110 0.011074 0.000000 0.000000 0.000000
# 4 0.000000 0.000000 0.000000 0.048867 0.000000 0.000000
# 5 0.000000 0.000000 0.000000 0.000000 0.048865 0.000000
# 6 0.000000 0.000000 0.000000 0.000000 0.000000 0.036281
#
#
# Mechanical properties :
#
#
# Convention : Reuss Voigt Hill
#
# Bulk Modulus (GPa) = 20.24360 25.45874 22.85117
# Shear Modulus (GPa) = 20.61597 22.90748 21.76172
#
# Velocity S-wave (km/s) = 3.18039 3.35249 3.26757
# Velocity P-wave (km/s) = 4.83929 5.24180 5.04456
#
# Compressibility (1/GPa) = 0.04939832
#
# Stress axis : x y z
#
# Youngs Moduli (GPa) = 33.53147 33.52502 90.30358
#
# Poissons Ratio (x) = 0.14895 0.28089
# Poissons Ratio (y) = 0.14898 0.28083
# Poissons Ratio (z) = 0.10430 0.10426
#
# Static dielectric constant tensor:
#      x y z
#    x 1.774530 0.000000 0.000000 
#    y 0.000000 1.774530 0.000000 
#    z 0.000000 0.000000 1.693250 
# 
# From -- ./inp_files/709.got.cif
#   From: 2010.05.17/outbox.cif.g08.bks.cpg/sg96_1_cif.got.tgz:709.got - 2010.06.03 19:52:08.
