data_PCOD9550664
_publ_section_title
;
Structure prediction by ZEFSAII (Michael W. Deem and Ramdas Pophale) SiO2 
 PCOD9550664
Probable space group: P 43 2 2
;
_chemical_formula_sum "Si O2"
_cell_formula_units_Z 32
_cell_length_a 13.842935
_cell_length_b 13.842935
_cell_length_c 7.997165
_cell_angle_alpha 90.000000
_cell_angle_beta 90.000000
_cell_angle_gamma 90.000000
_cell_volume 1532.471533
_symmetry_space_group_name_H-M "P 43 2 2"
_symmetry_group_IT_number 95
_symmetry_cell_setting 'tetragonal'
loop_
_space_group_symop_operation_xyz
x,y,z
-y,x,3/4+z
-x,-y,1/2+z
y,-x,1/4+z
x,-y,1/2-z
-x,y,-z
y,x,1/4-z
-y,-x,3/4-z
loop_
_atom_site_type_symbol
_atom_site_label
_atom_site_fract_x
_atom_site_fract_y
_atom_site_fract_z
Si Si1 0.428579 0.000000 0.250000
Si Si2 0.197570 0.301348 0.371654
Si Si3 0.125043 0.697418 0.758007
Si Si4 0.818140 0.966153 0.572079
Si Si5 0.500000 0.842286 0.500000
O O1 0.376088 0.056372 0.407562
O O2 0.484223 0.914208 0.343637
O O3 0.280516 0.222094 0.403372
O O4 0.155984 0.327282 0.554844
O O5 0.117201 0.243695 0.264408
O O6 0.217315 0.401862 0.279484
O O7 0.063344 0.797983 0.778963
O O8 0.920292 0.920292 0.625000
O O9 0.777892 0.000000 0.750000
#
# Coordination Sequence:
#
# PCOD9550664 Si02
#       5
#     4   8   8   8   4
#     4  12  22  38  62  86 124 170 198 266 294 384
#     4  11  24  39  59  89 122 167 206 269 310 377
#     4  11  22  42  60  83 125 167 216 256 316 371
#     4  12  21  39  56  82 119 169 217 251 301 361
#     4  12  24  36  60  92 124 160 214 252 328 358
#
# _framework density 20.881301000000001
#
# number of rings (size 3 to 8) (size 9 to 14) (size 15 to 20)
#    0.000    0.500    6.250    2.250    0.000    0.000 
#    4.500    0.000    0.000    0.000    0.000    0.000 
#    0.000   40.000    0.000    0.000    0.000    0.000 
#
# Total GULP energy -178281.426006 kJ/mol
# GULP energy per Si atom -5571.294563 kJ/mol
# Density = 2.083377 g / cm^3
# Si number density = 20.881301 Si / 1000 Ang^3
#
#
#
# Elastic Constant Matrix: (Units=GPa)
#
#
# Indices 1 2 3 4 5 6 
#
# 1 74.8723 36.1785 12.3859 0.0000 0.0000 0.0000
# 2 36.1785 74.8723 12.3859 0.0000 0.0000 0.0000
# 3 12.3859 12.3859 73.3999 0.0000 0.0000 0.0000
# 4 0.0000 0.0000 0.0000 16.5454 0.0000 0.0000
# 5 0.0000 0.0000 0.0000 0.0000 16.5454 0.0000
# 6 0.0000 0.0000 0.0000 0.0000 0.0000 25.3819
#
#
#
# Elastic Compliance Matrix: (Units=1/GPa)
#
#
# Indices 1 2 3 4 5 6 
#
# 1 0.017601 -0.008243 -0.001579 0.000000 0.000000 0.000000
# 2 -0.008243 0.017601 -0.001579 0.000000 0.000000 0.000000
# 3 -0.001579 -0.001579 0.014157 0.000000 0.000000 0.000000
# 4 0.000000 0.000000 0.000000 0.060440 0.000000 0.000000
# 5 0.000000 0.000000 0.000000 0.000000 0.060440 0.000000
# 6 0.000000 0.000000 0.000000 0.000000 0.000000 0.039398
#
#
# Mechanical properties :
#
#
# Convention : Reuss Voigt Hill
#
# Bulk Modulus (GPa) = 37.65736 38.33832 37.99784
# Shear Modulus (GPa) = 20.72193 22.50748 21.61470
#
# Velocity S-wave (km/s) = 3.15360 3.28667 3.22082
# Velocity P-wave (km/s) = 5.59763 5.72738 5.66288
#
# Compressibility (1/GPa) = 0.02655523
#
# Stress axis : x y z
#
# Youngs Moduli (GPa) = 56.81653 56.81653 70.63702
#
# Poissons Ratio (x) = 0.46836 0.11153
# Poissons Ratio (y) = 0.46836 0.11153
# Poissons Ratio (z) = 0.08971 0.08971
#
# Static dielectric constant tensor:
#      x y z
#    x 1.900090 0.000000 0.000000 
#    y 0.000000 1.900090 0.000000 
#    z 0.000000 0.000000 2.424150 
# 
# From -- ./inp_files/2150.got.cif
#   From: 2010.05.17/outbox.cif.g08.bks.cpg/sg95_2_cif.got.tgz:2150.got - 2010.06.03 19:46:49.
