data_PCOD9550137
_publ_section_title
;
Structure prediction by ZEFSAII (Michael W. Deem and Ramdas Pophale) SiO2 
 PCOD9550137
Probable space group: P 42 21 2
;
_chemical_formula_sum "Si O2"
_cell_formula_units_Z 48
_cell_length_a 13.854263
_cell_length_b 13.854263
_cell_length_c 13.267896
_cell_angle_alpha 90.000000
_cell_angle_beta 90.000000
_cell_angle_gamma 90.000000
_cell_volume 2546.647962
_symmetry_space_group_name_H-M "P 42 21 2"
_symmetry_group_IT_number 94
_symmetry_cell_setting 'tetragonal'
loop_
_space_group_symop_operation_xyz
x,y,z
1/2-y,1/2+x,1/2+z
-x,-y,z
1/2+y,1/2-x,1/2+z
1/2+x,1/2-y,1/2-z
1/2-x,1/2+y,1/2-z
y,x,-z
-y,-x,-z
loop_
_atom_site_type_symbol
_atom_site_label
_atom_site_fract_x
_atom_site_fract_y
_atom_site_fract_z
Si Si1 0.143011 0.315514 0.132591
Si Si2 0.065021 0.365638 0.343752
Si Si3 0.938420 0.636656 0.918413
Si Si4 0.161096 0.035172 0.577058
Si Si5 0.404073 0.638298 0.614077
Si Si6 0.175416 0.824585 0.500000
Si Si7 0.500000 0.500000 0.758219
O O1 0.110843 0.371355 0.232232
O O2 0.111739 0.204345 0.149146
O O3 0.094138 0.363732 0.034746
O O4 0.254162 0.304653 0.094620
O O5 0.114832 0.448618 0.409108
O O6 0.083735 0.258698 0.384805
O O7 0.949473 0.387225 0.354574
O O8 0.916175 0.746088 0.884898
O O9 0.101165 0.101165 0.500000
O O10 0.189979 0.936150 0.523395
O O11 0.091618 0.002861 0.668177
O O12 0.402899 0.597102 0.500000
O O13 0.484243 0.590423 0.684440
#
# Coordination Sequence:
#
# PCOD9550137 Si02
#       7
#     8   8   8   8   8   4   4
#     4  11  21  41  68  90 127 173 216 260 324 399
#     4  11  24  42  64  98 128 170 222 260 322 393
#     4  10  23  43  63  91 132 167 215 266 318 386
#     4  12  24  42  62  99 130 163 214 271 324 379
#     4  10  21  42  64  94 125 167 212 264 319 389
#     4  12  21  42  68  85 130 176 204 262 332 387
#     4  12  22  38  66  90 128 158 214 268 316 382
#
# _framework density 18.848306999999998
#
# number of rings (size 3 to 8) (size 9 to 14) (size 15 to 20)
#    0.000    1.000    7.500    0.250    2.333    2.667 
#    3.000    3.333    0.000    0.000    0.000    0.000 
#    0.000    0.000    0.000    0.000    0.000    0.000 
#
# Total GULP energy -267572.403289 kJ/mol
# GULP energy per Si atom -5574.425069 kJ/mol
# Density = 1.880541 g / cm^3
# Si number density = 18.848307 Si / 1000 Ang^3
#
#
#
# Elastic Constant Matrix: (Units=GPa)
#
#
# Indices 1 2 3 4 5 6 
#
# 1 108.7277 28.9195 50.9382 0.0000 0.0000 0.0000
# 2 28.9195 108.7288 50.9385 0.0000 0.0000 0.0000
# 3 50.9382 50.9385 80.0635 0.0000 0.0000 0.0000
# 4 0.0000 0.0000 0.0000 26.4889 0.0000 0.0000
# 5 0.0000 0.0000 0.0000 0.0000 26.4892 0.0000
# 6 0.0000 0.0000 0.0000 0.0000 0.0000 23.3626
#
#
#
# Elastic Compliance Matrix: (Units=1/GPa)
#
#
# Indices 1 2 3 4 5 6 
#
# 1 0.013130 0.000600 -0.008736 0.000000 0.000000 0.000000
# 2 0.000600 0.013130 -0.008736 0.000000 0.000000 0.000000
# 3 -0.008736 -0.008736 0.023606 0.000000 0.000000 0.000000
# 4 0.000000 0.000000 0.000000 0.037752 0.000000 0.000000
# 5 0.000000 0.000000 0.000000 0.000000 0.037751 0.000000
# 6 0.000000 0.000000 0.000000 0.000000 0.000000 0.042803
#
#
# Mechanical properties :
#
#
# Convention : Reuss Voigt Hill
#
# Bulk Modulus (GPa) = 62.01921 62.12360 62.07141
# Shear Modulus (GPa) = 24.12094 26.38309 25.25202
#
# Velocity S-wave (km/s) = 3.58123 3.74539 3.66423
# Velocity P-wave (km/s) = 7.07645 7.19273 7.13482
#
# Compressibility (1/GPa) = 0.01612404
#
# Stress axis : x y z
#
# Youngs Moduli (GPa) = 76.16025 76.16094 42.36272
#
# Poissons Ratio (x) = -0.04571 0.37006
# Poissons Ratio (y) = -0.04571 0.37006
# Poissons Ratio (z) = 0.66531 0.66531
#
# Static dielectric constant tensor:
#      x y z
#    x 1.672860 0.000000 0.000000 
#    y 0.000000 1.672860 0.000000 
#    z 0.000000 0.000000 1.671050 
# 
# From -- ./inp_files/2684.got.cif
#   From: 2010.05.17/outbox.cif.g08.bks.cpg/sg94_2_cif.got.tgz:2684.got - 2010.06.03 19:43:16.
