data_PCOD9550481
_publ_section_title
;
Structure prediction by ZEFSAII (Michael W. Deem and Ramdas Pophale) SiO2 
 PCOD9550481
Probable space group: P 43 2 2
;
_chemical_formula_sum "Si O2"
_cell_formula_units_Z 40
_cell_length_a 10.696560
_cell_length_b 10.696560
_cell_length_c 18.525288
_cell_angle_alpha 90.000000
_cell_angle_beta 90.000000
_cell_angle_gamma 90.000000
_cell_volume 2119.596685
_symmetry_space_group_name_H-M "P 43 2 2"
_symmetry_group_IT_number 95
_symmetry_cell_setting 'tetragonal'
loop_
_space_group_symop_operation_xyz
x,y,z
-y,x,3/4+z
-x,-y,1/2+z
y,-x,1/4+z
x,-y,1/2-z
-x,y,-z
y,x,1/4-z
-y,-x,3/4-z
loop_
_atom_site_type_symbol
_atom_site_label
_atom_site_fract_x
_atom_site_fract_y
_atom_site_fract_z
Si Si1 0.567501 0.762736 0.142808
Si Si2 0.131753 0.327790 0.814911
Si Si3 0.003710 0.321284 0.328566
Si Si4 0.863452 0.352876 0.533738
Si Si5 0.049593 0.128188 0.920471
O O1 0.630176 0.630176 0.125000
O O2 0.445441 0.792030 0.095513
O O3 0.664072 0.869074 0.115978
O O4 0.553824 0.793290 0.228202
O O5 0.029910 0.358670 0.753456
O O6 0.230723 0.224873 0.785632
O O7 0.066356 0.260178 0.881590
O O8 0.100988 0.390820 0.383487
O O9 0.055685 0.181307 0.327454
O O10 0.000000 0.323949 0.500000
O O11 0.954686 0.045315 0.875000
O O12 0.000000 0.143840 0.000000
#
# Coordination Sequence:
#
# PCOD9550481 Si02
#       5
#     8   8   8   8   8
#     4  11  21  36  57  90 122 154 215 273 308 374
#     4  11  22  35  60  93 118 166 212 257 332 376
#     4  10  20  34  57  87 123 159 201 257 322 376
#     4   9  21  35  56  88 124 153 197 260 314 372
#     4  11  22  35  57  90 133 167 205 260 325 398
#
# _framework density 18.871516
#
# number of rings (size 3 to 8) (size 9 to 14) (size 15 to 20)
#    0.000    1.600    4.000    1.200    5.600    2.400 
#    0.000    0.000    0.000    0.000   62.400    0.000 
#    0.000    0.000    0.000    0.000    0.000    0.000 
#
# Total GULP energy -222810.082859 kJ/mol
# GULP energy per Si atom -5570.252071 kJ/mol
# Density = 1.882856 g / cm^3
# Si number density = 18.871516 Si / 1000 Ang^3
#
#
#
# Elastic Constant Matrix: (Units=GPa)
#
#
# Indices 1 2 3 4 5 6 
#
# 1 70.5742 32.6974 41.5438 0.0000 0.0000 0.0000
# 2 32.6974 70.5740 41.5435 0.0000 0.0000 0.0000
# 3 41.5438 41.5435 139.4847 0.0000 0.0000 0.0000
# 4 0.0000 0.0000 0.0000 28.1666 0.0000 0.0000
# 5 0.0000 0.0000 0.0000 0.0000 28.1701 0.0000
# 6 0.0000 0.0000 0.0000 0.0000 0.0000 2.6409
#
#
#
# Elastic Compliance Matrix: (Units=1/GPa)
#
#
# Indices 1 2 3 4 5 6 
#
# 1 0.019568 -0.006833 -0.003793 0.000000 0.000000 0.000000
# 2 -0.006833 0.019568 -0.003793 0.000000 0.000000 0.000000
# 3 -0.003793 -0.003793 0.009429 0.000000 0.000000 0.000000
# 4 0.000000 0.000000 0.000000 0.035503 0.000000 0.000000
# 5 0.000000 0.000000 0.000000 0.000000 0.035499 0.000000
# 6 0.000000 0.000000 0.000000 0.000000 0.000000 0.378655
#
#
# Mechanical properties :
#
#
# Convention : Reuss Voigt Hill
#
# Bulk Modulus (GPa) = 50.69298 56.91135 53.80216
# Shear Modulus (GPa) = 9.36970 22.78540 16.07755
#
# Velocity S-wave (km/s) = 2.23064 3.47853 2.92198
# Velocity P-wave (km/s) = 5.79265 6.80855 6.32104
#
# Compressibility (1/GPa) = 0.01972660
#
# Stress axis : x y z
#
# Youngs Moduli (GPa) = 51.10358 51.10358 106.06071
#
# Poissons Ratio (x) = 0.34921 0.40228
# Poissons Ratio (y) = 0.34921 0.40227
# Poissons Ratio (z) = 0.19383 0.19383
#
# Static dielectric constant tensor:
#      x y z
#    x 1.639140 0.000000 0.000000 
#    y 0.000000 1.639140 0.000000 
#    z 0.000000 0.000000 1.765250 
# 
# From -- ./inp_files/4818.got.cif
#   From: 2010.05.17/outbox.cif.g08.bks.cpg/sg95_3_cif.got.tgz:4818.got - 2010.06.03 19:46:49.
