data_PCOD9550663
_publ_section_title
;
Structure prediction by ZEFSAII (Michael W. Deem and Ramdas Pophale) SiO2 
 PCOD9550663
Probable space group: P 43 2 2
;
_chemical_formula_sum "Si O2"
_cell_formula_units_Z 56
_cell_length_a 14.869547
_cell_length_b 14.869547
_cell_length_c 12.119395
_cell_angle_alpha 90.000000
_cell_angle_beta 90.000000
_cell_angle_gamma 90.000000
_cell_volume 2679.639780
_symmetry_space_group_name_H-M "P 43 2 2"
_symmetry_group_IT_number 95
_symmetry_cell_setting 'tetragonal'
loop_
_space_group_symop_operation_xyz
x,y,z
-y,x,3/4+z
-x,-y,1/2+z
y,-x,1/4+z
x,-y,1/2-z
-x,y,-z
y,x,1/4-z
-y,-x,3/4-z
loop_
_atom_site_type_symbol
_atom_site_label
_atom_site_fract_x
_atom_site_fract_y
_atom_site_fract_z
Si Si1 0.849848 0.340801 0.564244
Si Si2 0.898027 0.146758 0.497280
Si Si3 0.449714 0.734551 0.119230
Si Si4 0.830476 0.980143 0.625234
Si Si5 0.453649 0.896270 0.266064
Si Si6 0.328499 0.608443 0.988863
Si Si7 0.691424 0.827668 0.566112
O O1 0.900940 0.248269 0.542419
O O2 0.893099 0.438475 0.540899
O O3 0.764847 0.338814 0.482462
O O4 0.813600 0.335382 0.689325
O O5 0.859150 0.140850 0.375000
O O6 0.000000 0.112372 0.500000
O O7 0.841242 0.076402 0.568622
O O8 0.426105 0.834739 0.160209
O O9 0.505189 0.700047 0.227179
O O10 0.500000 0.746233 0.000000
O O11 0.380990 0.655236 0.087707
O O12 0.924126 0.924126 0.625000
O O13 0.759018 0.913323 0.569839
O O14 0.803286 0.000000 0.750000
O O15 0.396571 0.854447 0.365623
O O16 0.429014 0.000000 0.250000
O O17 0.381105 0.618896 0.875000
O O18 0.746246 0.746246 0.625000
#
# Coordination Sequence:
#
# PCOD9550663 Si02
#       7
#     8   8   8   8   8   8   8
#     4  11  23  39  59  87 124 163 207 256 310 380
#     4  12  23  38  61  91 127 167 208 258 317 379
#     4   9  19  36  63  90 120 158 201 257 316 378
#     4  11  22  38  58  85 118 156 201 252 311 379
#     4  11  24  41  61  89 123 164 215 264 320 389
#     4   9  18  36  61  89 119 156 200 251 310 375
#     4  11  23  40  62  87 120 162 210 264 320 382
#
# _framework density 20.898330999999999
#
# number of rings (size 3 to 8) (size 9 to 14) (size 15 to 20)
#    0.000    1.429    0.000    6.857    0.000    2.286 
#    0.000    1.429    0.000   46.286    0.000    0.000 
#    0.000    0.000    0.000    0.000    0.000    0.000 
#
# Total GULP energy -312081.450939 kJ/mol
# GULP energy per Si atom -5572.883052 kJ/mol
# Density = 2.085077 g / cm^3
# Si number density = 20.898331 Si / 1000 Ang^3
#
#
#
# Elastic Constant Matrix: (Units=GPa)
#
#
# Indices 1 2 3 4 5 6 
#
# 1 83.0422 35.1687 26.9976 0.0000 0.0000 0.0000
# 2 35.1687 83.0439 26.9989 0.0000 0.0000 0.0000
# 3 26.9976 26.9989 85.5999 0.0000 0.0000 0.0000
# 4 0.0000 0.0000 0.0000 27.0847 0.0000 0.0000
# 5 0.0000 0.0000 0.0000 0.0000 27.0847 0.0000
# 6 0.0000 0.0000 0.0000 0.0000 0.0000 -4.6267
#
#
#
# Elastic Compliance Matrix: (Units=1/GPa)
#
#
# Indices 1 2 3 4 5 6 
#
# 1 0.015386 -0.005502 -0.003117 0.000000 0.000000 0.000000
# 2 -0.005502 0.015386 -0.003117 0.000000 0.000000 0.000000
# 3 -0.003117 -0.003117 0.013649 0.000000 0.000000 0.000000
# 4 0.000000 0.000000 0.000000 0.036921 0.000000 0.000000
# 5 0.000000 0.000000 0.000000 0.000000 0.036921 0.000000
# 6 0.000000 0.000000 0.000000 0.000000 0.000000 -0.216138
#
#
# Mechanical properties :
#
#
# Convention : Reuss Voigt Hill
#
# Bulk Modulus (GPa) = 47.74101 47.77961 47.76031
# Shear Modulus (GPa) = -74.16190 20.74326 -26.70932
#
# Velocity S-wave (km/s) = -5.96356 3.15394 -3.57888
# Velocity P-wave (km/s) = 4.95224 6.01462 2.41360
#
# Compressibility (1/GPa) = 0.02094635
#
# Stress axis : x y z
#
# Youngs Moduli (GPa) = 64.99530 64.99606 73.26770
#
# Poissons Ratio (x) = 0.35763 0.22838
# Poissons Ratio (y) = 0.35763 0.22840
# Poissons Ratio (z) = 0.20259 0.20261
#
# Static dielectric constant tensor:
#      x y z
#    x 1.972790 0.000000 0.000000 
#    y 0.000000 1.972780 0.000000 
#    z 0.000000 0.000000 1.743700 
# 
# From -- ./inp_files/3985.got.cif
#   From: 2010.05.17/outbox.cif.g08.bks.cpg/sg95_2_cif.got.tgz:3985.got - 2010.06.03 19:46:49.
