data_PCOD9550430
_publ_section_title
;
Structure prediction by ZEFSAII (Michael W. Deem and Ramdas Pophale) SiO2 
 PCOD9550430
Probable space group: P 43 2 2
;
_chemical_formula_sum "Si O2"
_cell_formula_units_Z 64
_cell_length_a 16.712194
_cell_length_b 16.712194
_cell_length_c 12.095576
_cell_angle_alpha 90.000000
_cell_angle_beta 90.000000
_cell_angle_gamma 90.000000
_cell_volume 3378.263271
_symmetry_space_group_name_H-M "P 43 2 2"
_symmetry_group_IT_number 95
_symmetry_cell_setting 'tetragonal'
loop_
_space_group_symop_operation_xyz
x,y,z
-y,x,3/4+z
-x,-y,1/2+z
y,-x,1/4+z
x,-y,1/2-z
-x,y,-z
y,x,1/4-z
-y,-x,3/4-z
loop_
_atom_site_type_symbol
_atom_site_label
_atom_site_fract_x
_atom_site_fract_y
_atom_site_fract_z
Si Si1 0.092356 0.156279 0.511845
Si Si2 0.114875 0.404106 0.449703
Si Si3 0.585969 0.088016 0.450400
Si Si4 0.315806 0.940912 0.488402
Si Si5 0.042276 0.810460 0.616585
Si Si6 0.235116 0.289456 0.508529
Si Si7 0.583838 0.908239 0.703125
Si Si8 0.174371 0.674843 0.632238
O O1 0.108613 0.108613 0.625000
O O2 0.116892 0.092725 0.417107
O O3 0.157188 0.228860 0.514839
O O4 0.000000 0.182525 0.500000
O O5 0.072302 0.407238 0.570430
O O6 0.093051 0.336475 0.358813
O O7 0.203394 0.378160 0.486425
O O8 0.103513 0.494278 0.407048
O O9 0.500000 0.105790 0.500000
O O10 0.647489 0.153800 0.492746
O O11 0.618971 0.011589 0.513828
O O12 0.348099 0.888841 0.387281
O O13 0.230641 0.979744 0.454611
O O14 0.109350 0.741797 0.598746
O O15 0.000000 0.827064 0.500000
O O16 0.280047 0.280047 0.625000
O O17 0.284749 0.259194 0.401546
O O18 0.601566 0.845802 0.802149
O O19 0.591874 0.000000 0.750000
#
# Coordination Sequence:
#
# PCOD9550430 Si02
#       8
#     8   8   8   8   8   8   8   8
#     4  10  24  39  56  74  99 138 195 269 313 337
#     4  12  23  30  53  86 113 144 183 231 295 350
#     4  11  18  30  50  82 113 143 183 227 290 353
#     4  11  21  32  52  84 116 138 173 241 302 368
#     4  10  19  38  61  74  98 149 193 235 321 377
#     4  10  22  39  52  75 110 155 194 233 291 355
#     4  12  19  35  56  86 117 144 184 242 301 362
#     4  10  18  34  56  72 108 152 187 224 275 363
#
# _framework density 18.944645000000001
#
# number of rings (size 3 to 8) (size 9 to 14) (size 15 to 20)
#    0.000    1.250    6.250    2.250    3.500    1.000 
#    0.000    0.625    0.000    0.000    0.000    0.000 
#    0.000    0.000    0.000   15.750    0.000    0.000 
#
# Total GULP energy -356410.978222 kJ/mol
# GULP energy per Si atom -5568.921535 kJ/mol
# Density = 1.890153 g / cm^3
# Si number density = 18.944645 Si / 1000 Ang^3
#
#
#
# Elastic Constant Matrix: (Units=GPa)
#
#
# Indices 1 2 3 4 5 6 
#
# 1 35.6429 5.9888 12.2140 0.0000 0.0000 0.0000
# 2 5.9888 35.6429 12.2140 0.0000 0.0000 0.0000
# 3 12.2140 12.2140 95.3505 0.0000 0.0000 0.0000
# 4 0.0000 0.0000 0.0000 17.3939 0.0000 0.0000
# 5 0.0000 0.0000 0.0000 0.0000 17.3939 0.0000
# 6 0.0000 0.0000 0.0000 0.0000 0.0000 21.2270
#
#
#
# Elastic Compliance Matrix: (Units=1/GPa)
#
#
# Indices 1 2 3 4 5 6 
#
# 1 0.029847 -0.003875 -0.003327 0.000000 0.000000 0.000000
# 2 -0.003875 0.029847 -0.003327 0.000000 0.000000 0.000000
# 3 -0.003327 -0.003327 0.011340 0.000000 0.000000 0.000000
# 4 0.000000 0.000000 0.000000 0.057492 0.000000 0.000000
# 5 0.000000 0.000000 0.000000 0.000000 0.057492 0.000000
# 6 0.000000 0.000000 0.000000 0.000000 0.000000 0.047110
#
#
# Mechanical properties :
#
#
# Convention : Reuss Voigt Hill
#
# Bulk Modulus (GPa) = 20.00930 25.27443 22.64186
# Shear Modulus (GPa) = 18.46083 20.28424 19.37253
#
# Velocity S-wave (km/s) = 3.12502 3.27572 3.20126
# Velocity P-wave (km/s) = 4.85859 5.26092 5.06376
#
# Compressibility (1/GPa) = 0.04997677
#
# Stress axis : x y z
#
# Youngs Moduli (GPa) = 33.50398 33.50398 88.18370
#
# Poissons Ratio (x) = 0.12982 0.29338
# Poissons Ratio (y) = 0.12982 0.29338
# Poissons Ratio (z) = 0.11147 0.11147
#
# Static dielectric constant tensor:
#      x y z
#    x 1.702430 0.000000 0.000000 
#    y 0.000000 1.702430 0.000000 
#    z 0.000000 0.000000 1.789770 
# 
# From -- ./inp_files/4083.got.cif
#   From: 2010.05.17/outbox.cif.g08.bks.cpg/sg95_3_cif.got.tgz:4083.got - 2010.06.03 19:46:49.
