data_PCOD9550349
_publ_section_title
;
Structure prediction by ZEFSAII (Michael W. Deem and Ramdas Pophale) SiO2 
 PCOD9550349
Probable space group: P 42 21 2
;
_chemical_formula_sum "Si O2"
_cell_formula_units_Z 40
_cell_length_a 14.384124
_cell_length_b 14.384124
_cell_length_c 9.164487
_cell_angle_alpha 90.000000
_cell_angle_beta 90.000000
_cell_angle_gamma 90.000000
_cell_volume 1896.160067
_symmetry_space_group_name_H-M "P 42 21 2"
_symmetry_group_IT_number 94
_symmetry_cell_setting 'tetragonal'
loop_
_space_group_symop_operation_xyz
x,y,z
1/2-y,1/2+x,1/2+z
-x,-y,z
1/2+y,1/2-x,1/2+z
1/2+x,1/2-y,1/2-z
1/2-x,1/2+y,1/2-z
y,x,-z
-y,-x,-z
loop_
_atom_site_type_symbol
_atom_site_label
_atom_site_fract_x
_atom_site_fract_y
_atom_site_fract_z
Si Si1 0.586562 0.430333 0.166008
Si Si2 0.782240 0.648608 0.913730
Si Si3 0.741516 0.971475 0.153329
Si Si4 0.090195 0.439179 0.150950
Si Si5 0.758952 0.001998 0.824791
O O1 0.500000 0.500000 0.166680
O O2 0.675819 0.480690 0.232228
O O3 0.559156 0.343552 0.266293
O O4 0.601735 0.398266 0.000000
O O5 0.861894 0.722612 0.871777
O O6 0.746223 0.594563 0.772241
O O7 0.700243 0.700243 0.000000
O O8 0.837826 0.576916 0.018478
O O9 0.647184 0.013411 0.218987
O O10 0.766542 0.016501 0.998250
O O11 0.052985 0.337836 0.194710
O O12 0.000000 0.500000 0.110893
#
# Coordination Sequence:
#
# PCOD9550349 Si02
#       5
#     8   8   8   8   8
#     4  11  26  48  71  99 139 190 237 292 361 429
#     4  11  25  44  71 103 148 187 241 297 361 423
#     4  11  24  45  70 105 144 182 237 298 350 434
#     4  11  24  44  71 106 142 189 235 293 361 428
#     4  11  25  41  71 104 139 184 237 292 360 418
#
# _framework density 21.095264
#
# number of rings (size 3 to 8) (size 9 to 14) (size 15 to 20)
#    0.000    1.000    2.000    4.200   11.200    3.200 
#    0.000    0.000    0.000    0.000    0.000    0.000 
#    0.000    0.000    0.000    0.000    0.000    0.000 
#
# Total GULP energy -223849.318941 kJ/mol
# GULP energy per Si atom -5596.232974 kJ/mol
# Density = 2.104725 g / cm^3
# Si number density = 21.095264 Si / 1000 Ang^3
#
#
#
# Elastic Constant Matrix: (Units=GPa)
#
#
# Indices 1 2 3 4 5 6 
#
# 1 87.5901 26.2859 51.6206 0.0000 0.0000 0.0000
# 2 26.2859 87.5903 51.6207 0.0000 0.0000 0.0000
# 3 51.6206 51.6207 153.5572 0.0000 0.0000 0.0000
# 4 0.0000 0.0000 0.0000 185.8639 0.0000 0.0000
# 5 0.0000 0.0000 0.0000 0.0000 185.7335 0.0000
# 6 0.0000 0.0000 0.0000 0.0000 0.0000 25.7434
#
#
#
# Elastic Compliance Matrix: (Units=1/GPa)
#
#
# Indices 1 2 3 4 5 6 
#
# 1 0.014472 -0.001841 -0.004246 0.000000 0.000000 0.000000
# 2 -0.001841 0.014472 -0.004246 0.000000 0.000000 0.000000
# 3 -0.004246 -0.004246 0.009367 0.000000 0.000000 0.000000
# 4 0.000000 0.000000 0.000000 0.005380 0.000000 0.000000
# 5 0.000000 0.000000 0.000000 0.000000 0.005384 0.000000
# 6 0.000000 0.000000 0.000000 0.000000 0.000000 0.038845
#
#
# Mechanical properties :
#
#
# Convention : Reuss Voigt Hill
#
# Bulk Modulus (GPa) = 56.67442 65.31023 60.99233
# Shear Modulus (GPa) = 43.68091 92.74886 68.21489
#
# Velocity S-wave (km/s) = 4.55538 6.63793 5.69270
# Velocity P-wave (km/s) = 7.38870 9.47504 8.49615
#
# Compressibility (1/GPa) = 0.01764464
#
# Stress axis : x y z
#
# Youngs Moduli (GPa) = 69.10093 69.10103 106.75724
#
# Poissons Ratio (x) = 0.12718 0.45331
# Poissons Ratio (y) = 0.12718 0.45331
# Poissons Ratio (z) = 0.29341 0.29341
#
# Static dielectric constant tensor:
#      x y z
#    x 1.744220 0.000000 0.000000 
#    y 0.000000 1.744220 0.000000 
#    z 0.000000 0.000000 1.765930 
# 
# From -- ./inp_files/1412.got.cif
#   From: 2010.05.17/outbox.cif.g08.bks.cpg/sg94_1_cif.got.tgz:1412.got - 2010.06.03 19:43:16.
