data_PCOD9550056
_publ_section_title
;
Structure prediction by ZEFSAII (Michael W. Deem and Ramdas Pophale) SiO2 
 PCOD9550056
Probable space group: P 42 21 2
;
_chemical_formula_sum "Si O2"
_cell_formula_units_Z 40
_cell_length_a 11.717875
_cell_length_b 11.717875
_cell_length_c 13.942022
_cell_angle_alpha 90.000000
_cell_angle_beta 90.000000
_cell_angle_gamma 90.000000
_cell_volume 1914.359446
_symmetry_space_group_name_H-M "P 42 21 2"
_symmetry_group_IT_number 94
_symmetry_cell_setting 'tetragonal'
loop_
_space_group_symop_operation_xyz
x,y,z
1/2-y,1/2+x,1/2+z
-x,-y,z
1/2+y,1/2-x,1/2+z
1/2+x,1/2-y,1/2-z
1/2-x,1/2+y,1/2-z
y,x,-z
-y,-x,-z
loop_
_atom_site_type_symbol
_atom_site_label
_atom_site_fract_x
_atom_site_fract_y
_atom_site_fract_z
Si Si1 0.376231 0.258885 0.086032
Si Si2 0.601824 0.587986 0.269590
Si Si3 0.839599 0.469168 0.299205
Si Si4 0.354998 0.192975 0.377426
Si Si5 0.621776 0.179971 0.086054
O O1 0.366378 0.350621 0.170529
O O2 0.346496 0.134937 0.126884
O O3 0.509924 0.251274 0.060562
O O4 0.297839 0.297839 0.000000
O O5 0.500000 0.500000 0.259743
O O6 0.711155 0.516610 0.301179
O O7 0.577684 0.695417 0.340072
O O8 0.867591 0.412542 0.195896
O O9 0.905599 0.582980 0.334839
O O10 0.379555 0.162288 0.487404
O O11 0.222845 0.237547 0.377377
#
# Coordination Sequence:
#
# PCOD9550056 Si02
#       5
#     8   8   8   8   8
#     4  11  23  37  59  90 118 154 204 251 298 357
#     4  10  21  38  61  86 115 157 196 243 304 360
#     4  10  21  39  58  85 123 156 196 247 303 364
#     4   9  20  38  61  88 122 157 198 251 298 363
#     4  10  20  39  62  89 122 159 200 247 306 362
#
# _framework density 20.894717
#
# number of rings (size 3 to 8) (size 9 to 14) (size 15 to 20)
#    0.000    2.000    0.000    3.000    0.000    3.600 
#    0.000   21.000    0.000    0.000    0.000    0.000 
#    0.000    0.000    0.000    0.000    0.000    0.000 
#
# Total GULP energy -223408.874612 kJ/mol
# GULP energy per Si atom -5585.221865 kJ/mol
# Density = 2.084716 g / cm^3
# Si number density = 20.894717 Si / 1000 Ang^3
#
#
#
# Elastic Constant Matrix: (Units=GPa)
#
#
# Indices 1 2 3 4 5 6 
#
# 1 48.9807 42.1079 20.1624 0.0000 0.0000 0.0000
# 2 42.1079 48.9807 20.1624 0.0000 0.0000 0.0000
# 3 20.1624 20.1624 98.5563 0.0000 0.0000 0.0000
# 4 0.0000 0.0000 0.0000 20.8000 0.0000 0.0000
# 5 0.0000 0.0000 0.0000 0.0000 20.8000 0.0000
# 6 0.0000 0.0000 0.0000 0.0000 0.0000 35.0556
#
#
#
# Elastic Compliance Matrix: (Units=1/GPa)
#
#
# Indices 1 2 3 4 5 6 
#
# 1 0.078786 -0.066715 -0.002470 0.000000 0.000000 0.000000
# 2 -0.066715 0.078786 -0.002470 0.000000 0.000000 0.000000
# 3 -0.002470 -0.002470 0.011157 0.000000 0.000000 0.000000
# 4 0.000000 0.000000 0.000000 0.048077 0.000000 0.000000
# 5 0.000000 0.000000 0.000000 0.000000 0.048077 0.000000
# 6 0.000000 0.000000 0.000000 0.000000 0.000000 0.028526
#
#
# Mechanical properties :
#
#
# Convention : Reuss Voigt Hill
#
# Bulk Modulus (GPa) = 39.33633 40.15371 39.74502
# Shear Modulus (GPa) = 11.23112 22.93680 17.08396
#
# Velocity S-wave (km/s) = 2.32094 3.31680 2.86251
# Velocity P-wave (km/s) = 5.10384 5.82470 5.47614
#
# Compressibility (1/GPa) = 0.02542179
#
# Stress axis : x y z
#
# Youngs Moduli (GPa) = 12.69253 12.69253 89.63042
#
# Poissons Ratio (x) = 0.84678 0.22135
# Poissons Ratio (y) = 0.84678 0.22135
# Poissons Ratio (z) = 0.03135 0.03135
#
# Static dielectric constant tensor:
#      x y z
#    x 1.753190 0.000000 0.000000 
#    y 0.000000 1.753190 0.000000 
#    z 0.000000 0.000000 1.775770 
# 
# From -- ./inp_files/3374.got.cif
#   From: 2010.05.17/outbox.cif.g08.bks.cpg/sg94_2_cif.got.tgz:3374.got - 2010.06.03 19:43:16.
