data_PCOD9550456
_publ_section_title
;
Structure prediction by ZEFSAII (Michael W. Deem and Ramdas Pophale) SiO2 
 PCOD9550456
Probable space group: P 43 2 2
;
_chemical_formula_sum "Si O2"
_cell_formula_units_Z 44
_cell_length_a 15.791853
_cell_length_b 15.791853
_cell_length_c 9.809022
_cell_angle_alpha 90.000000
_cell_angle_beta 90.000000
_cell_angle_gamma 90.000000
_cell_volume 2446.199618
_symmetry_space_group_name_H-M "P 43 2 2"
_symmetry_group_IT_number 95
_symmetry_cell_setting 'tetragonal'
loop_
_space_group_symop_operation_xyz
x,y,z
-y,x,3/4+z
-x,-y,1/2+z
y,-x,1/4+z
x,-y,1/2-z
-x,y,-z
y,x,1/4-z
-y,-x,3/4-z
loop_
_atom_site_type_symbol
_atom_site_label
_atom_site_fract_x
_atom_site_fract_y
_atom_site_fract_z
Si Si1 0.315950 0.142433 0.011263
Si Si2 0.442076 0.557925 0.875000
Si Si3 0.706294 0.788064 0.820680
Si Si4 0.500000 0.112766 0.500000
Si Si5 0.517528 0.737323 0.800820
Si Si6 0.966699 0.671619 0.343426
Si Si7 0.500000 0.201621 0.000000
O O1 0.302757 0.178167 0.164946
O O2 0.415621 0.146943 0.983580
O O3 0.288216 0.044816 0.011340
O O4 0.268794 0.210697 0.918139
O O5 0.468972 0.500000 0.750000
O O6 0.465124 0.655733 0.847019
O O7 0.617689 0.737924 0.844036
O O8 0.714168 0.874320 0.906403
O O9 0.516027 0.177150 0.373467
O O10 0.578834 0.055070 0.538283
O O11 0.512121 0.744773 0.637773
O O12 0.000000 0.665340 0.500000
#
# Coordination Sequence:
#
# PCOD9550456 Si02
#       7
#     8   4   8   4   8   8   4
#     4   9  16  29  48  76 100 135 180 221 273 335
#     4  12  28  40  56  78 112 158 210 236 270 334
#     4   8  17  31  48  68 108 138 168 228 278 326
#     4  10  19  36  55  72 112 142 182 241 294 335
#     4  10  22  38  51  77 106 152 187 236 288 322
#     4   9  17  29  50  77 105 140 178 228 286 340
#     4  10  21  32  57  76 106 142 192 239 276 331
#
# _framework density 17.987085
#
# number of rings (size 3 to 8) (size 9 to 14) (size 15 to 20)
#    0.000    2.545    0.909    1.636    3.818    1.455 
#    0.000    0.000    0.000    0.000    0.000    0.000 
#    0.000   52.364    0.000    0.000    0.000    0.000 
#
# Total GULP energy -245073.219801 kJ/mol
# GULP energy per Si atom -5569.845905 kJ/mol
# Density = 1.794615 g / cm^3
# Si number density = 17.987085 Si / 1000 Ang^3
#
#
#
# Elastic Constant Matrix: (Units=GPa)
#
#
# Indices 1 2 3 4 5 6 
#
# 1 103.4509 67.2157 12.6378 0.0000 0.0000 0.0000
# 2 67.2157 103.4520 12.6375 0.0000 0.0000 0.0000
# 3 12.6378 12.6375 53.4405 0.0000 0.0000 0.0000
# 4 0.0000 0.0000 0.0000 12.6459 0.0000 0.0000
# 5 0.0000 0.0000 0.0000 0.0000 12.6457 0.0000
# 6 0.0000 0.0000 0.0000 0.0000 0.0000 -37.0618
#
#
#
# Elastic Compliance Matrix: (Units=1/GPa)
#
#
# Indices 1 2 3 4 5 6 
#
# 1 0.016835 -0.010763 -0.001436 0.000000 0.000000 0.000000
# 2 -0.010763 0.016834 -0.001436 0.000000 0.000000 0.000000
# 3 -0.001436 -0.001436 0.019392 0.000000 0.000000 0.000000
# 4 0.000000 0.000000 0.000000 0.079077 0.000000 0.000000
# 5 0.000000 0.000000 0.000000 0.000000 0.079078 0.000000
# 6 0.000000 0.000000 0.000000 0.000000 0.000000 -0.026982
#
#
# Mechanical properties :
#
#
# Convention : Reuss Voigt Hill
#
# Bulk Modulus (GPa) = 38.77188 49.48060 44.12624
# Shear Modulus (GPa) = 22.71694 8.83612 15.77653
#
# Velocity S-wave (km/s) = 3.55767 2.21882 2.96481
# Velocity P-wave (km/s) = 6.20308 5.84233 6.02541
#
# Compressibility (1/GPa) = 0.02579189
#
# Stress axis : x y z
#
# Youngs Moduli (GPa) = 59.40134 59.40212 51.56893
#
# Poissons Ratio (x) = 0.63932 0.07405
# Poissons Ratio (y) = 0.63931 0.07404
# Poissons Ratio (z) = 0.08530 0.08529
#
# Static dielectric constant tensor:
#      x y z
#    x 1.630800 0.000000 0.000000 
#    y 0.000000 1.630800 0.000000 
#    z 0.000000 0.000000 1.656540 
# 
# From -- ./inp_files/3796.got.cif
#   From: 2010.05.17/outbox.cif.g08.bks.cpg/sg95_2_cif.got.tgz:3796.got - 2010.06.03 19:46:49.
