data_PCOD9550121
_publ_section_title
;
Structure prediction by ZEFSAII (Michael W. Deem and Ramdas Pophale) SiO2 
 PCOD9550121
Probable space group: P 42 21 2
;
_chemical_formula_sum "Si O2"
_cell_formula_units_Z 40
_cell_length_a 14.853116
_cell_length_b 14.853116
_cell_length_c 9.118090
_cell_angle_alpha 90.000000
_cell_angle_beta 90.000000
_cell_angle_gamma 90.000000
_cell_volume 2011.587926
_symmetry_space_group_name_H-M "P 42 21 2"
_symmetry_group_IT_number 94
_symmetry_cell_setting 'tetragonal'
loop_
_space_group_symop_operation_xyz
x,y,z
1/2-y,1/2+x,1/2+z
-x,-y,z
1/2+y,1/2-x,1/2+z
1/2+x,1/2-y,1/2-z
1/2-x,1/2+y,1/2-z
y,x,-z
-y,-x,-z
loop_
_atom_site_type_symbol
_atom_site_label
_atom_site_fract_x
_atom_site_fract_y
_atom_site_fract_z
Si Si1 0.538277 0.768409 0.133999
Si Si2 0.410414 0.054238 0.834903
Si Si3 0.218891 0.646042 0.430578
Si Si4 0.577993 0.567595 0.821034
Si Si5 0.495484 0.241206 0.798783
O O1 0.504560 0.855438 0.219085
O O2 0.645084 0.778327 0.108924
O O3 0.526476 0.674702 0.217308
O O4 0.491835 0.762884 0.974902
O O5 0.443392 0.148550 0.765334
O O6 0.500000 0.000000 0.884532
O O7 0.338966 0.082075 0.960129
O O8 0.304379 0.695622 0.500000
O O9 0.244011 0.587613 0.289879
O O10 0.500000 0.500000 0.773920
O O11 0.560215 0.668374 0.765612
O O12 0.574315 0.574315 0.000000
#
# Coordination Sequence:
#
# PCOD9550121 Si02
#       5
#     8   8   8   8   8
#     4  10  21  40  66  93 125 167 217 269 318 389
#     4  11  23  39  65  99 131 168 215 269 327 388
#     4  11  24  40  63  95 136 171 212 272 338 382
#     4   9  19  39  64  89 120 165 214 262 314 389
#     4  10  22  38  64  94 126 166 218 259 327 387
#
# _framework density 19.884788
#
# number of rings (size 3 to 8) (size 9 to 14) (size 15 to 20)
#    0.000    1.800    2.000    3.000    8.400    0.000 
#    0.000    1.000    0.000    7.200    0.000    0.000 
#    0.000    0.000    0.000    0.000    0.000    0.000 
#
# Total GULP energy -223227.951890 kJ/mol
# GULP energy per Si atom -5580.698797 kJ/mol
# Density = 1.983953 g / cm^3
# Si number density = 19.884788 Si / 1000 Ang^3
#
#
#
# Elastic Constant Matrix: (Units=GPa)
#
#
# Indices 1 2 3 4 5 6 
#
# 1 113.9601 44.3941 35.2971 0.0000 0.0000 0.0000
# 2 44.3941 113.9627 35.2976 0.0000 0.0000 0.0000
# 3 35.2971 35.2976 39.6884 0.0000 0.0000 0.0000
# 4 0.0000 0.0000 0.0000 18.7627 0.0000 0.0000
# 5 0.0000 0.0000 0.0000 0.0000 18.7617 0.0000
# 6 0.0000 0.0000 0.0000 0.0000 0.0000 30.7282
#
#
#
# Elastic Compliance Matrix: (Units=1/GPa)
#
#
# Indices 1 2 3 4 5 6 
#
# 1 0.012419 -0.001956 -0.009306 0.000000 0.000000 0.000000
# 2 -0.001956 0.012419 -0.009306 0.000000 0.000000 0.000000
# 3 -0.009306 -0.009306 0.041749 0.000000 0.000000 0.000000
# 4 0.000000 0.000000 0.000000 0.053297 0.000000 0.000000
# 5 0.000000 0.000000 0.000000 0.000000 0.053300 0.000000
# 6 0.000000 0.000000 0.000000 0.000000 0.000000 0.032543
#
#
# Mechanical properties :
#
#
# Convention : Reuss Voigt Hill
#
# Bulk Modulus (GPa) = 39.28896 55.28761 47.28829
# Shear Modulus (GPa) = 19.58132 23.82535 21.70333
#
# Velocity S-wave (km/s) = 3.14146 3.46521 3.30730
# Velocity P-wave (km/s) = 5.74104 6.62379 6.19815
#
# Compressibility (1/GPa) = 0.02545244
#
# Stress axis : x y z
#
# Youngs Moduli (GPa) = 80.52108 80.52282 23.95292
#
# Poissons Ratio (x) = 0.15747 0.22290
# Poissons Ratio (y) = 0.15747 0.22290
# Poissons Ratio (z) = 0.74931 0.74932
#
# Static dielectric constant tensor:
#      x y z
#    x 1.710670 0.000000 0.000000 
#    y 0.000000 1.710670 0.000000 
#    z 0.000000 0.000000 1.706020 
# 
# From -- ./inp_files/1411.got.cif
#   From: 2010.05.17/outbox.cif.g08.bks.cpg/sg94_1_cif.got.tgz:1411.got - 2010.06.03 19:43:16.
