data_PCOD9550789
_publ_section_title
;
Structure prediction by ZEFSAII (Michael W. Deem and Ramdas Pophale) SiO2 
 PCOD9550789
Probable space group: P 43 21 2
;
_chemical_formula_sum "Si O2"
_cell_formula_units_Z 60
_cell_length_a 17.524030
_cell_length_b 17.524030
_cell_length_c 8.662232
_cell_angle_alpha 90.000000
_cell_angle_beta 90.000000
_cell_angle_gamma 90.000000
_cell_volume 2660.098922
_symmetry_space_group_name_H-M "P 43 21 2"
_symmetry_group_IT_number 96
_symmetry_cell_setting 'tetragonal'
loop_
_space_group_symop_operation_xyz
x,y,z
1/2-y,1/2+x,3/4+z
-x,-y,1/2+z
1/2+y,1/2-x,1/4+z
1/2+x,1/2-y,1/4-z
1/2-x,1/2+y,3/4-z
y,x,-z
-y,-x,1/2-z
loop_
_atom_site_type_symbol
_atom_site_label
_atom_site_fract_x
_atom_site_fract_y
_atom_site_fract_z
Si Si1 0.949855 0.579370 0.305977
Si Si2 0.935504 0.935504 0.500000
Si Si3 0.882837 0.858729 0.786185
Si Si4 0.384211 0.209507 0.051119
Si Si5 0.510756 0.252390 0.519653
Si Si6 0.186756 0.963482 0.587289
Si Si7 0.081667 0.861171 0.408505
Si Si8 0.724079 0.249507 0.087608
O O1 0.869568 0.580666 0.397007
O O2 0.961227 0.667099 0.253974
O O3 0.019980 0.556839 0.416205
O O4 0.927301 0.870156 0.625780
O O5 0.014084 0.923875 0.412133
O O6 0.816590 0.922791 0.779996
O O7 0.831562 0.782116 0.790492
O O8 0.954425 0.855385 0.901075
O O9 0.368474 0.392193 0.199898
O O10 0.315864 0.236097 0.169940
O O11 0.447507 0.269219 0.996349
O O12 0.469940 0.260363 0.685273
O O13 0.458963 0.280175 0.373773
O O14 0.295355 0.835459 0.640627
O O15 0.127856 0.872145 0.250000
O O16 0.706469 0.293532 0.250000
#
# Coordination Sequence:
#
# PCOD9550789 Si02
#       8
#     8   4   8   8   8   8   8   8
#     4  12  29  50  76 102 137 188 252 319 384 440
#     4  10  20  28  56  92 142 186 222 268 340 410
#     4  11  20  38  67 101 138 188 243 288 360 446
#     4   9  22  41  68  96 141 174 240 299 363 432
#     4  10  23  48  68  97 148 195 233 301 383 446
#     4  11  24  38  71 108 142 186 238 305 357 458
#     4   9  22  38  60  97 147 182 226 277 354 429
#     4   8  18  38  62  94 134 182 235 282 359 429
#
# _framework density 22.555551000000001
#
# number of rings (size 3 to 8) (size 9 to 14) (size 15 to 20)
#    0.800    1.067    2.000    0.400   11.200    4.267 
#    2.400    0.000    0.000    0.000    0.000    0.000 
#    0.000    0.000    0.000    0.000    0.000    0.000 
#
# Total GULP energy -334074.769081 kJ/mol
# GULP energy per Si atom -5567.912818 kJ/mol
# Density = 2.250421 g / cm^3
# Si number density = 22.555551 Si / 1000 Ang^3
#
#
#
# Elastic Constant Matrix: (Units=GPa)
#
#
# Indices 1 2 3 4 5 6 
#
# 1 112.4043 52.6068 44.0350 0.0000 0.0000 0.0000
# 2 52.6068 112.4041 44.0352 0.0000 0.0000 0.0000
# 3 44.0350 44.0352 79.8299 0.0000 0.0000 0.0000
# 4 0.0000 0.0000 0.0000 21.3184 0.0000 0.0000
# 5 0.0000 0.0000 0.0000 0.0000 21.3187 0.0000
# 6 0.0000 0.0000 0.0000 0.0000 0.0000 33.8967
#
#
#
# Elastic Compliance Matrix: (Units=1/GPa)
#
#
# Indices 1 2 3 4 5 6 
#
# 1 0.012656 -0.004067 -0.004738 0.000000 0.000000 0.000000
# 2 -0.004067 0.012656 -0.004738 0.000000 0.000000 0.000000
# 3 -0.004738 -0.004738 0.017753 0.000000 0.000000 0.000000
# 4 0.000000 0.000000 0.000000 0.046908 0.000000 0.000000
# 5 0.000000 0.000000 0.000000 0.000000 0.046907 0.000000
# 6 0.000000 0.000000 0.000000 0.000000 0.000000 0.029501
#
#
# Mechanical properties :
#
#
# Convention : Reuss Voigt Hill
#
# Bulk Modulus (GPa) = 62.57730 65.11026 63.84378
# Shear Modulus (GPa) = 25.15173 26.23752 25.69462
#
# Velocity S-wave (km/s) = 3.34294 3.41433 3.37882
# Velocity P-wave (km/s) = 6.53484 6.66880 6.60216
#
# Compressibility (1/GPa) = 0.01598023
#
# Stress axis : x y z
#
# Youngs Moduli (GPa) = 79.01426 79.01388 56.32733
#
# Poissons Ratio (x) = 0.32136 0.26686
# Poissons Ratio (y) = 0.32136 0.26686
# Poissons Ratio (z) = 0.37434 0.37435
#
# Static dielectric constant tensor:
#      x y z
#    x 1.896350 0.000000 0.000000 
#    y 0.000000 1.896350 0.000000 
#    z 0.000000 0.000000 1.974960 
# 
# From -- ./inp_files/1614.got.cif
#   From: 2010.05.17/outbox.cif.g08.bks.cpg/sg96_1_cif.got.tgz:1614.got - 2010.06.03 19:52:08.
