data_PCOD9550383
_publ_section_title
;
Structure prediction by ZEFSAII (Michael W. Deem and Ramdas Pophale) SiO2 
 PCOD9550383
Probable space group: P 42 21 2
;
_chemical_formula_sum "Si O2"
_cell_formula_units_Z 32
_cell_length_a 8.568917
_cell_length_b 8.568917
_cell_length_c 19.176019
_cell_angle_alpha 90.000000
_cell_angle_beta 90.000000
_cell_angle_gamma 90.000000
_cell_volume 1408.024863
_symmetry_space_group_name_H-M "P 42 21 2"
_symmetry_group_IT_number 94
_symmetry_cell_setting 'tetragonal'
loop_
_space_group_symop_operation_xyz
x,y,z
1/2-y,1/2+x,1/2+z
-x,-y,z
1/2+y,1/2-x,1/2+z
1/2+x,1/2-y,1/2-z
1/2-x,1/2+y,1/2-z
y,x,-z
-y,-x,-z
loop_
_atom_site_type_symbol
_atom_site_label
_atom_site_fract_x
_atom_site_fract_y
_atom_site_fract_z
Si Si1 0.820613 0.817451 0.921004
Si Si2 0.679243 0.696678 0.579375
Si Si3 0.372646 0.623403 0.196042
Si Si4 0.388935 0.135106 0.800062
O O1 0.699441 0.773272 0.861493
O O2 0.997219 0.759137 0.910686
O O3 0.820291 0.007546 0.915592
O O4 0.775002 0.775002 0.000000
O O5 0.729956 0.729956 0.500000
O O6 0.788968 0.782088 0.634341
O O7 0.500000 0.500000 0.171866
O O8 0.429774 0.757060 0.248651
O O9 0.251468 0.510088 0.236739
O O10 0.500000 0.000000 0.829111
#
# Coordination Sequence:
#
# PCOD9550383 Si02
#       4
#     8   8   8   8
#     4   9  19  40  70  95 120 174 234 274 329 412
#     4   9  19  40  68  94 127 173 226 280 336 409
#     4  12  26  41  63 100 136 178 223 285 347 398
#     4  12  24  43  68  94 136 182 229 276 339 415
#
# _framework density 22.726870000000002
#
# number of rings (size 3 to 8) (size 9 to 14) (size 15 to 20)
#    0.000    1.500    2.500    4.500    3.500    0.500 
#    4.500    0.000    0.000    0.000    0.000    0.000 
#    0.000    0.000    0.000    0.000    0.000    0.000 
#
# Total GULP energy -178735.856106 kJ/mol
# GULP energy per Si atom -5585.495503 kJ/mol
# Density = 2.267514 g / cm^3
# Si number density = 22.726870 Si / 1000 Ang^3
#
#
#
# Elastic Constant Matrix: (Units=GPa)
#
#
# Indices 1 2 3 4 5 6 
#
# 1 87.7209 50.4740 51.0236 0.0000 0.0000 0.0000
# 2 50.4740 87.7209 51.0236 0.0000 0.0000 0.0000
# 3 51.0236 51.0236 137.4621 0.0000 0.0000 0.0000
# 4 0.0000 0.0000 0.0000 28.0366 0.0000 0.0000
# 5 0.0000 0.0000 0.0000 0.0000 28.0366 0.0000
# 6 0.0000 0.0000 0.0000 0.0000 0.0000 45.8665
#
#
#
# Elastic Compliance Matrix: (Units=1/GPa)
#
#
# Indices 1 2 3 4 5 6 
#
# 1 0.018408 -0.008440 -0.003700 0.000000 0.000000 0.000000
# 2 -0.008440 0.018408 -0.003700 0.000000 0.000000 0.000000
# 3 -0.003700 -0.003700 0.010022 0.000000 0.000000 0.000000
# 4 0.000000 0.000000 0.000000 0.035668 0.000000 0.000000
# 5 0.000000 0.000000 0.000000 0.000000 0.035668 0.000000
# 6 0.000000 0.000000 0.000000 0.000000 0.000000 0.021802
#
#
# Mechanical properties :
#
#
# Convention : Reuss Voigt Hill
#
# Bulk Modulus (GPa) = 65.97187 68.66073 67.31630
# Shear Modulus (GPa) = 28.29525 31.08013 29.68769
#
# Velocity S-wave (km/s) = 3.53230 3.70205 3.61817
# Velocity P-wave (km/s) = 6.76220 6.96781 6.86578
#
# Compressibility (1/GPa) = 0.01515798
#
# Stress axis : x y z
#
# Youngs Moduli (GPa) = 54.32371 54.32371 99.78471
#
# Poissons Ratio (x) = 0.45848 0.36922
# Poissons Ratio (y) = 0.45848 0.36922
# Poissons Ratio (z) = 0.20100 0.20100
#
# Static dielectric constant tensor:
#      x y z
#    x 1.890390 0.000000 0.000000 
#    y 0.000000 1.890390 0.000000 
#    z 0.000000 0.000000 1.824500 
# 
# From -- ./inp_files/4386.got.cif
#   From: 2010.05.17/outbox.cif.g08.bks.cpg/sg94_3_cif.got.tgz:4386.got - 2010.06.03 19:43:16.
