data_PCOD9550529
_publ_section_title
;
Structure prediction by ZEFSAII (Michael W. Deem and Ramdas Pophale) SiO2 
 PCOD9550529
Probable space group: P 43 2 2
;
_chemical_formula_sum "Si O2"
_cell_formula_units_Z 20
_cell_length_a 11.716666
_cell_length_b 11.716666
_cell_length_c 6.092075
_cell_angle_alpha 90.000000
_cell_angle_beta 90.000000
_cell_angle_gamma 90.000000
_cell_volume 836.321653
_symmetry_space_group_name_H-M "P 43 2 2"
_symmetry_group_IT_number 95
_symmetry_cell_setting 'tetragonal'
loop_
_space_group_symop_operation_xyz
x,y,z
-y,x,3/4+z
-x,-y,1/2+z
y,-x,1/4+z
x,-y,1/2-z
-x,y,-z
y,x,1/4-z
-y,-x,3/4-z
loop_
_atom_site_type_symbol
_atom_site_label
_atom_site_fract_x
_atom_site_fract_y
_atom_site_fract_z
Si Si1 0.643995 0.356006 0.875000
Si Si2 0.000000 0.827408 0.000000
Si Si3 0.268818 0.500000 0.750000
Si Si4 0.608751 0.125244 0.110897
O O1 0.568893 0.354851 0.657664
O O2 0.770620 0.377339 0.799945
O O3 0.064005 0.731271 0.145857
O O4 0.909330 0.909330 0.125000
O O5 0.184454 0.421687 0.596822
O O6 0.500000 0.059989 0.000000
#
# Coordination Sequence:
#
# PCOD9550529 Si02
#       4
#     4   4   4   8
#     4  10  20  40  72 102 148 196 262 320 396 472
#     4  12  28  48  72 120 160 202 256 330 408 480
#     4  10  20  40  72 104 144 204 256 330 386 476
#     4  10  24  46  76 104 148 205 264 320 384 480
#
# _framework density 23.914244
#
# number of rings (size 3 to 8) (size 9 to 14) (size 15 to 20)
#    0.000    1.600    0.000    3.600    5.600    0.000 
#    0.000    0.000  158.400    0.000    0.000    0.000 
#    0.000    0.000    0.000    0.000    0.000    0.000 
#
# Total GULP energy -111391.912603 kJ/mol
# GULP energy per Si atom -5569.595630 kJ/mol
# Density = 2.385981 g / cm^3
# Si number density = 23.914244 Si / 1000 Ang^3
#
#
#
# Elastic Constant Matrix: (Units=GPa)
#
#
# Indices 1 2 3 4 5 6 
#
# 1 116.5732 92.4213 41.4212 0.0000 0.0000 0.0000
# 2 92.4213 116.5742 41.4245 0.0000 0.0000 0.0000
# 3 41.4212 41.4245 101.8477 0.0000 0.0000 0.0000
# 4 0.0000 0.0000 0.0000 14.5249 0.0000 0.0000
# 5 0.0000 0.0000 0.0000 0.0000 14.5252 0.0000
# 6 0.0000 0.0000 0.0000 0.0000 0.0000 88.5767
#
#
#
# Elastic Compliance Matrix: (Units=1/GPa)
#
#
# Indices 1 2 3 4 5 6 
#
# 1 0.023554 -0.017850 -0.002319 0.000000 0.000000 0.000000
# 2 -0.017850 0.023554 -0.002321 0.000000 0.000000 0.000000
# 3 -0.002319 -0.002321 0.011706 0.000000 0.000000 0.000000
# 4 0.000000 0.000000 0.000000 0.068847 0.000000 0.000000
# 5 0.000000 0.000000 0.000000 0.000000 0.068846 0.000000
# 6 0.000000 0.000000 0.000000 0.000000 0.000000 0.011290
#
#
# Mechanical properties :
#
#
# Convention : Reuss Voigt Hill
#
# Bulk Modulus (GPa) = 72.28349 76.16988 74.22668
# Shear Modulus (GPa) = 19.42594 34.17391 26.79993
#
# Velocity S-wave (km/s) = 2.85321 3.78434 3.35127
# Velocity P-wave (km/s) = 6.41453 7.14250 6.78828
#
# Compressibility (1/GPa) = 0.01383442
#
# Stress axis : x y z
#
# Youngs Moduli (GPa) = 42.45578 42.45504 85.42768
#
# Poissons Ratio (x) = 0.75781 0.19814
# Poissons Ratio (y) = 0.75782 0.19827
# Poissons Ratio (z) = 0.09847 0.09853
#
# Static dielectric constant tensor:
#      x y z
#    x 1.971780 0.000000 0.000000 
#    y 0.000000 1.971790 0.000000 
#    z 0.000000 0.000000 1.941700 
# 
# From -- ./inp_files/197.got.cif
#   From: 2010.05.17/outbox.cif.g08.bks.cpg/sg95_1_cif.got.tgz:197.got - 2010.06.03 19:46:49.
