data_PCOD9550104
_publ_section_title
;
Structure prediction by ZEFSAII (Michael W. Deem and Ramdas Pophale) SiO2 
 PCOD9550104
Probable space group: P 42 21 2
;
_chemical_formula_sum "Si O2"
_cell_formula_units_Z 40
_cell_length_a 11.779950
_cell_length_b 11.779950
_cell_length_c 12.063001
_cell_angle_alpha 90.000000
_cell_angle_beta 90.000000
_cell_angle_gamma 90.000000
_cell_volume 1673.949138
_symmetry_space_group_name_H-M "P 42 21 2"
_symmetry_group_IT_number 94
_symmetry_cell_setting 'tetragonal'
loop_
_space_group_symop_operation_xyz
x,y,z
1/2-y,1/2+x,1/2+z
-x,-y,z
1/2+y,1/2-x,1/2+z
1/2+x,1/2-y,1/2-z
1/2-x,1/2+y,1/2-z
y,x,-z
-y,-x,-z
loop_
_atom_site_type_symbol
_atom_site_label
_atom_site_fract_x
_atom_site_fract_y
_atom_site_fract_z
Si Si1 0.031475 0.372404 0.610865
Si Si2 0.650025 0.175195 0.507615
Si Si3 0.322618 0.267406 0.327161
Si Si4 0.070498 0.224248 0.226849
Si Si5 0.512246 0.302572 0.693674
O O1 0.958605 0.358375 0.500814
O O2 0.992154 0.277533 0.699347
O O3 0.000000 0.500000 0.652063
O O4 0.162531 0.344830 0.592155
O O5 0.776835 0.223166 0.500000
O O6 0.589797 0.225708 0.397020
O O7 0.587511 0.226740 0.611831
O O8 0.189620 0.259961 0.288586
O O9 0.436535 0.252027 0.246290
O O10 0.335155 0.395813 0.363870
O O11 0.091178 0.089660 0.224613
#
# Coordination Sequence:
#
# PCOD9550104 Si02
#       5
#     8   8   8   8   8
#     4  11  21  40  64  99 139 168 229 289 344 418
#     4  10  21  41  65  97 136 181 223 289 344 417
#     4  11  20  39  67 100 134 182 230 285 347 415
#     4  10  21  38  65  99 137 175 232 287 338 419
#     4  10  22  37  68  97 133 186 228 280 350 411
#
# _framework density 23.895589999999999
#
# number of rings (size 3 to 8) (size 9 to 14) (size 15 to 20)
#    0.000    1.600    4.000    0.600    0.000    1.600 
#    0.000    5.000    0.000    0.000    5.200    0.000 
#    0.000    0.000    0.000    0.000    0.000    0.000 
#
# Total GULP energy -222828.161801 kJ/mol
# GULP energy per Si atom -5570.704045 kJ/mol
# Density = 2.384120 g / cm^3
# Si number density = 23.895590 Si / 1000 Ang^3
#
#
#
# Elastic Constant Matrix: (Units=GPa)
#
#
# Indices 1 2 3 4 5 6 
#
# 1 157.3533 19.1353 -6.1622 0.0000 0.0000 0.0000
# 2 19.1353 157.3546 -6.1618 0.0000 0.0000 0.0000
# 3 -6.1622 -6.1618 24.2304 0.0000 0.0000 0.0000
# 4 0.0000 0.0000 0.0000 19.4965 0.0000 0.0000
# 5 0.0000 0.0000 0.0000 0.0000 19.4958 0.0000
# 6 0.0000 0.0000 0.0000 0.0000 0.0000 37.5768
#
#
#
# Elastic Compliance Matrix: (Units=1/GPa)
#
#
# Indices 1 2 3 4 5 6 
#
# 1 0.006502 -0.000733 0.001467 0.000000 0.000000 0.000000
# 2 -0.000733 0.006502 0.001467 0.000000 0.000000 0.000000
# 3 0.001467 0.001467 0.042017 0.000000 0.000000 0.000000
# 4 0.000000 0.000000 0.000000 0.051291 0.000000 0.000000
# 5 0.000000 0.000000 0.000000 0.000000 0.051293 0.000000
# 6 0.000000 0.000000 0.000000 0.000000 0.000000 0.026612
#
#
# Mechanical properties :
#
#
# Convention : Reuss Voigt Hill
#
# Bulk Modulus (GPa) = 16.82890 39.17342 28.00116
# Shear Modulus (GPa) = 25.04733 37.45564 31.25148
#
# Velocity S-wave (km/s) = 3.24110 3.96342 3.62032
# Velocity P-wave (km/s) = 4.58959 6.11344 5.40548
#
# Compressibility (1/GPa) = 0.05942160
#
# Stress axis : x y z
#
# Youngs Moduli (GPa) = 153.80499 153.80640 23.80009
#
# Poissons Ratio (x) = 0.11277 -0.03492
# Poissons Ratio (y) = 0.11277 -0.03491
# Poissons Ratio (z) = -0.22564 -0.22562
#
# Static dielectric constant tensor:
#      x y z
#    x 1.977170 0.000000 0.000000 
#    y 0.000000 1.977170 0.000000 
#    z 0.000000 0.000000 1.909750 
# 
# From -- ./inp_files/3386.got.cif
#   From: 2010.05.17/outbox.cif.g08.bks.cpg/sg94_2_cif.got.tgz:3386.got - 2010.06.03 19:43:16.
