data_PCOD9550936
_publ_section_title
;
Structure prediction by ZEFSAII (Michael W. Deem and Ramdas Pophale) SiO2 
 PCOD9550936
Probable space group: P 43 21 2
;
_chemical_formula_sum "Si O2"
_cell_formula_units_Z 52
_cell_length_a 16.606648
_cell_length_b 16.606648
_cell_length_c 8.049740
_cell_angle_alpha 90.000000
_cell_angle_beta 90.000000
_cell_angle_gamma 90.000000
_cell_volume 2219.963397
_symmetry_space_group_name_H-M "P 43 21 2"
_symmetry_group_IT_number 96
_symmetry_cell_setting 'tetragonal'
loop_
_space_group_symop_operation_xyz
x,y,z
1/2-y,1/2+x,3/4+z
-x,-y,1/2+z
1/2+y,1/2-x,1/4+z
1/2+x,1/2-y,1/4-z
1/2-x,1/2+y,3/4-z
y,x,-z
-y,-x,1/2-z
loop_
_atom_site_type_symbol
_atom_site_label
_atom_site_fract_x
_atom_site_fract_y
_atom_site_fract_z
Si Si1 0.591491 0.658537 0.660896
Si Si2 0.949274 0.761146 0.796235
Si Si3 0.323453 0.903796 0.090986
Si Si4 0.859283 0.893132 0.680413
Si Si5 0.714816 0.969862 0.848942
Si Si6 0.098158 0.521906 0.932787
Si Si7 0.015117 0.015117 0.000000
O O1 0.648618 0.648618 0.500000
O O2 0.509087 0.697003 0.585362
O O3 0.617099 0.730460 0.788689
O O4 0.569269 0.566250 0.723327
O O5 0.877397 0.824322 0.812097
O O6 0.923463 0.674499 0.727716
O O7 0.992254 0.746402 0.970247
O O8 0.385409 0.831386 0.114498
O O9 0.329466 0.958320 0.256062
O O10 0.364545 0.956171 0.943702
O O11 0.851786 0.851786 0.500000
O O12 0.786633 0.948730 0.725213
O O13 0.935410 0.951862 0.660277
O O14 0.066949 0.474120 0.092803
#
# Coordination Sequence:
#
# PCOD9550936 Si02
#       7
#     8   8   8   8   8   8   4
#     4  10  21  46  64  99 128 169 227 273 344 393
#     4  10  24  40  65  98 128 170 218 280 328 411
#     4  11  24  41  64  94 132 183 216 282 325 406
#     4   9  18  41  69  85 125 171 213 261 328 401
#     4  12  23  42  64  97 136 172 230 270 342 393
#     4  11  24  39  62  93 131 173 225 271 339 390
#     4   8  16  38  70  90 124 162 214 266 326 396
#
# _framework density 23.423811000000001
#
# number of rings (size 3 to 8) (size 9 to 14) (size 15 to 20)
#    0.462    1.231    3.077    1.385    4.308    0.615 
#    8.308    2.308    0.000    0.000    0.000    0.000 
#    0.000    0.000    0.000    0.000    0.000    0.000 
#
# Total GULP energy -289890.143332 kJ/mol
# GULP energy per Si atom -5574.810449 kJ/mol
# Density = 2.337050 g / cm^3
# Si number density = 23.423811 Si / 1000 Ang^3
#
#
#
# Elastic Constant Matrix: (Units=GPa)
#
#
# Indices 1 2 3 4 5 6 
#
# 1 66.0793 20.3433 12.0853 0.0000 0.0000 0.0000
# 2 20.3433 66.0793 12.0853 0.0000 0.0000 0.0000
# 3 12.0853 12.0853 78.7754 0.0000 0.0000 0.0000
# 4 0.0000 0.0000 0.0000 20.9258 0.0000 0.0000
# 5 0.0000 0.0000 0.0000 0.0000 20.9258 0.0000
# 6 0.0000 0.0000 0.0000 0.0000 0.0000 23.7844
#
#
#
# Elastic Compliance Matrix: (Units=1/GPa)
#
#
# Indices 1 2 3 4 5 6 
#
# 1 0.016977 -0.004887 -0.001855 0.000000 0.000000 0.000000
# 2 -0.004887 0.016977 -0.001855 0.000000 0.000000 0.000000
# 3 -0.001855 -0.001855 0.013263 0.000000 0.000000 0.000000
# 4 0.000000 0.000000 0.000000 0.047788 0.000000 0.000000
# 5 0.000000 0.000000 0.000000 0.000000 0.047788 0.000000
# 6 0.000000 0.000000 0.000000 0.000000 0.000000 0.042044
#
#
# Mechanical properties :
#
#
# Convention : Reuss Voigt Hill
#
# Bulk Modulus (GPa) = 33.30672 33.32909 33.31791
# Shear Modulus (GPa) = 23.58046 24.22186 23.90116
#
# Velocity S-wave (km/s) = 3.17628 3.21918 3.19780
# Velocity P-wave (km/s) = 5.26324 5.29879 5.28104
#
# Compressibility (1/GPa) = 0.03002397
#
# Stress axis : x y z
#
# Youngs Moduli (GPa) = 58.90252 58.90252 75.39541
#
# Poissons Ratio (x) = 0.28788 0.13984
# Poissons Ratio (y) = 0.28788 0.13984
# Poissons Ratio (z) = 0.10925 0.10925
#
# Static dielectric constant tensor:
#      x y z
#    x 1.917350 0.000000 0.000000 
#    y 0.000000 1.917350 0.000000 
#    z 0.000000 0.000000 2.035510 
# 
# From -- ./inp_files/1563.got.cif
#   From: 2010.05.17/outbox.cif.g08.bks.cpg/sg96_1_cif.got.tgz:1563.got - 2010.06.03 19:52:08.
