data_PCOD9550212
_publ_section_title
;
Structure prediction by ZEFSAII (Michael W. Deem and Ramdas Pophale) SiO2 
 PCOD9550212
Probable space group: P 42 21 2
;
_chemical_formula_sum "Si O2"
_cell_formula_units_Z 40
_cell_length_a 12.795574
_cell_length_b 12.795574
_cell_length_c 10.198528
_cell_angle_alpha 90.000000
_cell_angle_beta 90.000000
_cell_angle_gamma 90.000000
_cell_volume 1669.771477
_symmetry_space_group_name_H-M "P 42 21 2"
_symmetry_group_IT_number 94
_symmetry_cell_setting 'tetragonal'
loop_
_space_group_symop_operation_xyz
x,y,z
1/2-y,1/2+x,1/2+z
-x,-y,z
1/2+y,1/2-x,1/2+z
1/2+x,1/2-y,1/2-z
1/2-x,1/2+y,1/2-z
y,x,-z
-y,-x,-z
loop_
_atom_site_type_symbol
_atom_site_label
_atom_site_fract_x
_atom_site_fract_y
_atom_site_fract_z
Si Si1 0.595695 0.584089 0.344978
Si Si2 0.250070 0.083091 0.272358
Si Si3 0.824363 0.347606 0.498068
Si Si4 0.542019 0.119130 0.004117
Si Si5 0.557428 0.256093 0.246976
O O1 0.500000 0.500000 0.351615
O O2 0.614054 0.614054 0.500000
O O3 0.690477 0.524867 0.271739
O O4 0.549673 0.677841 0.255411
O O5 0.319528 0.102740 0.143905
O O6 0.330857 0.110606 0.390116
O O7 0.153377 0.164799 0.282856
O O8 0.746761 0.253240 0.500000
O O9 0.784177 0.427727 0.605840
O O10 0.939109 0.312920 0.530184
O O11 0.500000 0.000000 0.995513
O O12 0.569072 0.158898 0.148378
#
# Coordination Sequence:
#
# PCOD9550212 Si02
#       5
#     8   8   8   8   8
#     4   9  16  35  73 111 139 173 221 286 357 422
#     4  10  22  44  72 103 138 177 230 290 353 420
#     4  10  24  44  66  94 135 181 228 281 335 412
#     4  12  29  43  66  97 142 190 232 286 344 411
#     4  10  22  44  72 103 138 177 230 290 353 420
#
# _framework density 23.955373999999999
#
# number of rings (size 3 to 8) (size 9 to 14) (size 15 to 20)
#    0.000    1.800    2.000    0.600    8.400    0.000 
#    0.000    3.000    4.400    0.000    0.000    0.000 
#    0.000    0.000    0.000    0.000    0.000    0.000 
#
# Total GULP energy -223080.765408 kJ/mol
# GULP energy per Si atom -5577.019135 kJ/mol
# Density = 2.390085 g / cm^3
# Si number density = 23.955374 Si / 1000 Ang^3
#
#
#
# Elastic Constant Matrix: (Units=GPa)
#
#
# Indices 1 2 3 4 5 6 
#
# 1 56.9653 14.1729 31.0504 0.0000 0.0000 0.0000
# 2 14.1729 56.9646 31.0548 0.0000 0.0000 0.0000
# 3 31.0504 31.0548 88.2696 0.0000 0.0000 0.0000
# 4 0.0000 0.0000 0.0000 233.0161 0.0000 0.0000
# 5 0.0000 0.0000 0.0000 0.0000 229.5591 0.0000
# 6 0.0000 0.0000 0.0000 0.0000 0.0000 1.1240
#
#
#
# Elastic Compliance Matrix: (Units=1/GPa)
#
#
# Indices 1 2 3 4 5 6 
#
# 1 0.021828 -0.001540 -0.007136 0.000000 0.000000 0.000000
# 2 -0.001540 0.021829 -0.007138 0.000000 0.000000 0.000000
# 3 -0.007136 -0.007138 0.016351 0.000000 0.000000 0.000000
# 4 0.000000 0.000000 0.000000 0.004292 0.000000 0.000000
# 5 0.000000 0.000000 0.000000 0.000000 0.004356 0.000000
# 6 0.000000 0.000000 0.000000 0.000000 0.000000 0.889677
#
#
# Mechanical properties :
#
#
# Convention : Reuss Voigt Hill
#
# Bulk Modulus (GPa) = 35.23851 39.41731 37.32791
# Shear Modulus (GPa) = 5.00289 101.13460 53.06875
#
# Velocity S-wave (km/s) = 1.44671 6.50458 4.71182
# Velocity P-wave (km/s) = 4.18720 8.53832 6.72442
#
# Compressibility (1/GPa) = 0.02837804
#
# Stress axis : x y z
#
# Youngs Moduli (GPa) = 45.81356 45.80968 61.15983
#
# Poissons Ratio (x) = 0.07056 0.43646
# Poissons Ratio (y) = 0.07057 0.43657
# Poissons Ratio (z) = 0.32694 0.32700
#
# Static dielectric constant tensor:
#      x y z
#    x -2.450030 0.000000 0.000000 
#    y 0.000000 -2.387760 0.000000 
#    z 0.000000 0.000000 2.007100 
# 
# From -- ./inp_files/1446.got.cif
#   From: 2010.05.17/outbox.cif.g08.bks.cpg/sg94_1_cif.got.tgz:1446.got - 2010.06.03 19:43:16.
