data_PCOD9550551
_publ_section_title
;
Structure prediction by ZEFSAII (Michael W. Deem and Ramdas Pophale) SiO2 
 PCOD9550551
Probable space group: P 43 2 2
;
_chemical_formula_sum "Si O2"
_cell_formula_units_Z 56
_cell_length_a 14.176098
_cell_length_b 14.176098
_cell_length_c 14.407226
_cell_angle_alpha 90.000000
_cell_angle_beta 90.000000
_cell_angle_gamma 90.000000
_cell_volume 2895.301415
_symmetry_space_group_name_H-M "P 43 2 2"
_symmetry_group_IT_number 95
_symmetry_cell_setting 'tetragonal'
loop_
_space_group_symop_operation_xyz
x,y,z
-y,x,3/4+z
-x,-y,1/2+z
y,-x,1/4+z
x,-y,1/2-z
-x,y,-z
y,x,1/4-z
-y,-x,3/4-z
loop_
_atom_site_type_symbol
_atom_site_label
_atom_site_fract_x
_atom_site_fract_y
_atom_site_fract_z
Si Si1 0.388794 0.403588 0.799910
Si Si2 0.370784 0.115278 0.877791
Si Si3 0.218427 0.330593 0.558996
Si Si4 0.276740 0.214783 0.028888
Si Si5 0.077157 0.475290 0.642918
Si Si6 0.212778 0.388503 0.930454
Si Si7 0.728965 0.469943 0.871905
O O1 0.414646 0.500000 0.750000
O O2 0.371298 0.318242 0.727535
O O3 0.288673 0.413103 0.851766
O O4 0.468577 0.365971 0.871340
O O5 0.320436 0.155586 0.784792
O O6 0.456536 0.187556 0.897336
O O7 0.420024 0.015589 0.861208
O O8 0.306807 0.122252 0.970771
O O9 0.242373 0.242373 0.625000
O O10 0.164209 0.406132 0.621825
O O11 0.217430 0.217430 0.125000
O O12 0.376860 0.264344 0.058939
O O13 0.222485 0.278630 0.953843
O O14 0.065808 0.500000 0.750000
O O15 0.109913 0.571115 0.592180
O O16 0.248270 0.434971 0.025034
#
# Coordination Sequence:
#
# PCOD9550551 Si02
#       7
#     8   8   8   8   8   8   8
#     4  11  22  35  52  74 119 168 220 263 312 356
#     4  11  22  41  65  86 121 167 224 279 331 403
#     4  11  22  40  61  86 125 170 213 277 328 385
#     4  10  21  38  59  79 117 164 209 277 332 377
#     4  12  24  38  62  91 124 171 222 279 341 390
#     4  11  20  36  52  80 112 162 207 272 319 376
#     4  10  21  37  55  77 115 161 233 267 312 372
#
# _framework density 19.341681000000001
#
# number of rings (size 3 to 8) (size 9 to 14) (size 15 to 20)
#    0.000    1.143    5.714    3.857    0.000    0.000 
#    7.714    0.000    0.000    0.000    0.000    0.000 
#    0.000    4.571    0.000    0.000    0.000    0.000 
#
# Total GULP energy -312434.333795 kJ/mol
# GULP energy per Si atom -5579.184532 kJ/mol
# Density = 1.929766 g / cm^3
# Si number density = 19.341681 Si / 1000 Ang^3
#
#
#
# Elastic Constant Matrix: (Units=GPa)
#
#
# Indices 1 2 3 4 5 6 
#
# 1 80.8038 22.8350 35.3196 0.0000 0.0000 0.0000
# 2 22.8350 80.8038 35.3196 0.0000 0.0000 0.0000
# 3 35.3196 35.3196 102.7928 0.0000 0.0000 0.0000
# 4 0.0000 0.0000 0.0000 22.5255 0.0000 0.0000
# 5 0.0000 0.0000 0.0000 0.0000 22.5255 0.0000
# 6 0.0000 0.0000 0.0000 0.0000 0.0000 23.7986
#
#
#
# Elastic Compliance Matrix: (Units=1/GPa)
#
#
# Indices 1 2 3 4 5 6 
#
# 1 0.014925 -0.002325 -0.004329 0.000000 0.000000 0.000000
# 2 -0.002325 0.014925 -0.004329 0.000000 0.000000 0.000000
# 3 -0.004329 -0.004329 0.012703 0.000000 0.000000 0.000000
# 4 0.000000 0.000000 0.000000 0.044394 0.000000 0.000000
# 5 0.000000 0.000000 0.000000 0.000000 0.044394 0.000000
# 6 0.000000 0.000000 0.000000 0.000000 0.000000 0.042019
#
#
# Mechanical properties :
#
#
# Convention : Reuss Voigt Hill
#
# Bulk Modulus (GPa) = 48.57736 50.14986 49.36361
# Shear Modulus (GPa) = 24.72909 25.16501 24.94705
#
# Velocity S-wave (km/s) = 3.57955 3.61096 3.59529
# Velocity P-wave (km/s) = 6.50031 6.58559 6.54309
#
# Compressibility (1/GPa) = 0.02058572
#
# Stress axis : x y z
#
# Youngs Moduli (GPa) = 67.00090 67.00090 78.71926
#
# Poissons Ratio (x) = 0.15581 0.34080
# Poissons Ratio (y) = 0.15581 0.34080
# Poissons Ratio (z) = 0.29006 0.29006
#
# Static dielectric constant tensor:
#      x y z
#    x 1.706090 0.000000 0.000000 
#    y 0.000000 1.706090 0.000000 
#    z 0.000000 0.000000 1.776840 
# 
# From -- ./inp_files/4971.got.cif
#   From: 2010.05.17/outbox.cif.g08.bks.cpg/sg95_3_cif.got.tgz:4971.got - 2010.06.03 19:46:49.
