data_PCOD9550567
_publ_section_title
;
Structure prediction by ZEFSAII (Michael W. Deem and Ramdas Pophale) SiO2 
 PCOD9550567
Probable space group: P 43 2 2
;
_chemical_formula_sum "Si O2"
_cell_formula_units_Z 48
_cell_length_a 8.498825
_cell_length_b 8.498825
_cell_length_c 32.920134
_cell_angle_alpha 90.000000
_cell_angle_beta 90.000000
_cell_angle_gamma 90.000000
_cell_volume 2377.822147
_symmetry_space_group_name_H-M "P 43 2 2"
_symmetry_group_IT_number 95
_symmetry_cell_setting 'tetragonal'
loop_
_space_group_symop_operation_xyz
x,y,z
-y,x,3/4+z
-x,-y,1/2+z
y,-x,1/4+z
x,-y,1/2-z
-x,y,-z
y,x,1/4-z
-y,-x,3/4-z
loop_
_atom_site_type_symbol
_atom_site_label
_atom_site_fract_x
_atom_site_fract_y
_atom_site_fract_z
Si Si1 0.438627 0.581392 0.582761
Si Si2 0.107739 0.271643 0.760356
Si Si3 0.607194 0.500000 0.250000
Si Si4 0.601531 0.157676 0.356196
Si Si5 0.436689 0.069018 0.081137
Si Si6 0.899806 0.899806 0.625000
Si Si7 0.054773 0.907229 0.940619
O O1 0.523807 0.523807 0.625000
O O2 0.493208 0.490097 0.541959
O O3 0.251926 0.543282 0.586201
O O4 0.481873 0.762840 0.577539
O O5 0.276959 0.350241 0.753517
O O6 0.051332 0.208497 0.716887
O O7 0.006028 0.390301 0.787742
O O8 0.110269 0.107926 0.784893
O O9 0.701684 0.298317 0.375000
O O10 0.733170 0.076885 0.328333
O O11 0.541223 0.045822 0.391516
O O12 0.272484 0.084918 0.105986
O O13 0.951102 0.023615 0.659537
#
# Coordination Sequence:
#
# PCOD9550567 Si02
#       7
#     8   8   4   8   8   4   8
#     4  11  25  45  67 102 144 182 232 291 357 414
#     4  10  23  41  66  99 137 179 218 291 341 417
#     4  12  24  46  70 104 144 182 232 286 356 422
#     4  11  23  41  68  99 128 183 233 275 340 425
#     4  11  25  43  70  99 138 180 231 293 352 415
#     4  10  22  42  68 100 132 182 228 288 342 414
#     4  10  21  41  67  97 135 175 233 276 345 416
#
# _framework density 20.186537999999999
#
# number of rings (size 3 to 8) (size 9 to 14) (size 15 to 20)
#    0.000    1.333    3.333    2.000    7.000    0.667 
#    3.000    0.000    0.000    0.000    0.000    0.000 
#    0.000    0.000    0.000    0.000    0.000    0.000 
#
# Total GULP energy -267823.343312 kJ/mol
# GULP energy per Si atom -5579.652986 kJ/mol
# Density = 2.014059 g / cm^3
# Si number density = 20.186538 Si / 1000 Ang^3
#
#
#
# Elastic Constant Matrix: (Units=GPa)
#
#
# Indices 1 2 3 4 5 6 
#
# 1 97.4993 21.1423 41.9456 0.0000 0.0000 0.0000
# 2 21.1423 97.5041 41.9457 0.0000 0.0000 0.0000
# 3 41.9456 41.9457 111.2343 0.0000 0.0000 0.0000
# 4 0.0000 0.0000 0.0000 33.6224 0.0000 0.0000
# 5 0.0000 0.0000 0.0000 0.0000 33.6224 0.0000
# 6 0.0000 0.0000 0.0000 0.0000 0.0000 35.4826
#
#
#
# Elastic Compliance Matrix: (Units=1/GPa)
#
#
# Indices 1 2 3 4 5 6 
#
# 1 0.012295 -0.000801 -0.004334 0.000000 0.000000 0.000000
# 2 -0.000801 0.012294 -0.004334 0.000000 0.000000 0.000000
# 3 -0.004334 -0.004334 0.012259 0.000000 0.000000 0.000000
# 4 0.000000 0.000000 0.000000 0.029742 0.000000 0.000000
# 5 0.000000 0.000000 0.000000 0.000000 0.029742 0.000000
# 6 0.000000 0.000000 0.000000 0.000000 0.000000 0.028183
#
#
# Mechanical properties :
#
#
# Convention : Reuss Voigt Hill
#
# Bulk Modulus (GPa) = 55.83801 57.36719 56.60260
# Shear Modulus (GPa) = 33.46207 33.95909 33.71058
#
# Velocity S-wave (km/s) = 4.07583 4.10599 4.09094
# Velocity P-wave (km/s) = 7.06194 7.13857 7.10035
#
# Compressibility (1/GPa) = 0.01790895
#
# Stress axis : x y z
#
# Youngs Moduli (GPa) = 81.33482 81.33954 81.57525
#
# Poissons Ratio (x) = 0.06519 0.35355
# Poissons Ratio (y) = 0.06519 0.35353
# Poissons Ratio (z) = 0.35251 0.35251
#
# Static dielectric constant tensor:
#      x y z
#    x 1.709120 0.000000 0.000000 
#    y 0.000000 1.709120 0.000000 
#    z 0.000000 0.000000 1.716920 
# 
# From -- ./inp_files/8018.got.cif
#   From: 2010.05.17/outbox.cif.g08.bks.cpg/sg95_5_cif.got.tgz:8018.got - 2010.06.03 19:46:49.
