data_PCOD9550329
_publ_section_title
;
Structure prediction by ZEFSAII (Michael W. Deem and Ramdas Pophale) SiO2 
 PCOD9550329
Probable space group: P 42 21 2
;
_chemical_formula_sum "Si O2"
_cell_formula_units_Z 40
_cell_length_a 17.772710
_cell_length_b 17.772710
_cell_length_c 6.032564
_cell_angle_alpha 90.000000
_cell_angle_beta 90.000000
_cell_angle_gamma 90.000000
_cell_volume 1905.501290
_symmetry_space_group_name_H-M "P 42 21 2"
_symmetry_group_IT_number 94
_symmetry_cell_setting 'tetragonal'
loop_
_space_group_symop_operation_xyz
x,y,z
1/2-y,1/2+x,1/2+z
-x,-y,z
1/2+y,1/2-x,1/2+z
1/2+x,1/2-y,1/2-z
1/2-x,1/2+y,1/2-z
y,x,-z
-y,-x,-z
loop_
_atom_site_type_symbol
_atom_site_label
_atom_site_fract_x
_atom_site_fract_y
_atom_site_fract_z
Si Si1 0.553685 0.669374 0.588507
Si Si2 0.393964 0.606037 0.500000
Si Si3 0.749676 0.132702 0.427432
Si Si4 0.678200 0.041552 0.817981
Si Si5 0.162808 0.162808 0.500000
Si Si6 0.167448 0.618127 0.910365
O O1 0.628426 0.628426 0.500000
O O2 0.481707 0.620633 0.536599
O O3 0.572007 0.689438 0.841127
O O4 0.537927 0.749038 0.474899
O O5 0.358929 0.630670 0.746361
O O6 0.794098 0.205903 0.500000
O O7 0.703338 0.093148 0.615649
O O8 0.691680 0.155957 0.239310
O O9 0.664797 0.957763 0.732657
O O10 0.615566 0.093192 0.934794
O O11 0.135651 0.250702 0.519620
#
# Coordination Sequence:
#
# PCOD9550329 Si02
#       6
#     8   4   8   8   4   8
#     4  11  23  42  66 107 147 195 241 298 379 453
#     4  12  27  44  74 108 160 192 242 311 382 454
#     4  11  23  42  75 100 141 196 256 310 374 461
#     4  11  24  46  68 105 144 194 248 319 375 453
#     4  12  26  46  75 112 144 199 256 312 376 462
#     4  11  26  43  73 105 146 195 258 319 386 455
#
# _framework density 20.991851
#
# number of rings (size 3 to 8) (size 9 to 14) (size 15 to 20)
#    0.000    0.800    4.000    2.700    7.000    3.200 
#    0.000    4.000    0.000    0.000    0.000    0.000 
#    0.000    0.000    0.000    0.000    0.000    0.000 
#
# Total GULP energy -222873.553332 kJ/mol
# GULP energy per Si atom -5571.838833 kJ/mol
# Density = 2.094407 g / cm^3
# Si number density = 20.991851 Si / 1000 Ang^3
#
#
#
# Elastic Constant Matrix: (Units=GPa)
#
#
# Indices 1 2 3 4 5 6 
#
# 1 151.5215 7.8290 36.4739 0.0000 0.0000 0.0000
# 2 7.8290 151.5209 36.4736 0.0000 0.0000 0.0000
# 3 36.4739 36.4736 83.7964 0.0000 0.0000 0.0000
# 4 0.0000 0.0000 0.0000 24.6145 0.0000 0.0000
# 5 0.0000 0.0000 0.0000 0.0000 24.5985 0.0000
# 6 0.0000 0.0000 0.0000 0.0000 0.0000 39.3988
#
#
#
# Elastic Compliance Matrix: (Units=1/GPa)
#
#
# Indices 1 2 3 4 5 6 
#
# 1 0.007398 0.000439 -0.003411 0.000000 0.000000 0.000000
# 2 0.000439 0.007398 -0.003411 0.000000 0.000000 0.000000
# 3 -0.003411 -0.003411 0.014903 0.000000 0.000000 0.000000
# 4 0.000000 0.000000 0.000000 0.040626 0.000000 0.000000
# 5 0.000000 0.000000 0.000000 0.000000 0.040653 0.000000
# 6 0.000000 0.000000 0.000000 0.000000 0.000000 0.025381
#
#
# Mechanical properties :
#
#
# Convention : Reuss Voigt Hill
#
# Bulk Modulus (GPa) = 59.05785 60.93243 59.99514
# Shear Modulus (GPa) = 32.30563 38.12651 35.21607
#
# Velocity S-wave (km/s) = 3.92721 4.26638 4.10030
# Velocity P-wave (km/s) = 6.98275 7.30472 7.14555
#
# Compressibility (1/GPa) = 0.01693255
#
# Stress axis : x y z
#
# Youngs Moduli (GPa) = 135.16819 135.16786 67.09942
#
# Poissons Ratio (x) = -0.05932 0.22889
# Poissons Ratio (y) = -0.05932 0.22889
# Poissons Ratio (z) = 0.46109 0.46109
#
# Static dielectric constant tensor:
#      x y z
#    x 1.839650 0.000000 0.000000 
#    y 0.000000 1.839770 0.000000 
#    z 0.000000 0.000000 1.713470 
# 
# From -- ./inp_files/363.got.cif
#   From: 2010.05.17/outbox.cif.g08.bks.cpg/sg94_1_cif.got.tgz:363.got - 2010.06.03 19:43:16.
