data_PCOD9550805
_publ_section_title
;
Structure prediction by ZEFSAII (Michael W. Deem and Ramdas Pophale) SiO2 
 PCOD9550805
Probable space group: P 43 21 2
;
_chemical_formula_sum "Si O2"
_cell_formula_units_Z 52
_cell_length_a 14.672821
_cell_length_b 14.672821
_cell_length_c 9.263328
_cell_angle_alpha 90.000000
_cell_angle_beta 90.000000
_cell_angle_gamma 90.000000
_cell_volume 1994.317411
_symmetry_space_group_name_H-M "P 43 21 2"
_symmetry_group_IT_number 96
_symmetry_cell_setting 'tetragonal'
loop_
_space_group_symop_operation_xyz
x,y,z
1/2-y,1/2+x,3/4+z
-x,-y,1/2+z
1/2+y,1/2-x,1/4+z
1/2+x,1/2-y,1/4-z
1/2-x,1/2+y,3/4-z
y,x,-z
-y,-x,1/2-z
loop_
_atom_site_type_symbol
_atom_site_label
_atom_site_fract_x
_atom_site_fract_y
_atom_site_fract_z
Si Si1 0.223896 0.029150 0.369036
Si Si2 0.681374 0.922729 0.130576
Si Si3 0.082430 0.500239 0.524263
Si Si4 0.705837 0.881331 0.445213
Si Si5 0.912579 0.912579 0.500000
Si Si6 0.708087 0.216065 0.471845
Si Si7 0.041874 0.958127 0.250000
Si Si8 0.220964 0.779037 0.250000
O O1 0.315688 0.000648 0.287714
O O2 0.138786 0.968731 0.327712
O O3 0.238648 0.027380 0.541242
O O4 0.220509 0.133436 0.308848
O O5 0.590422 0.957940 0.054124
O O6 0.674468 0.933460 0.301306
O O7 0.696223 0.818173 0.077046
O O8 0.023136 0.577323 0.443216
O O9 0.803277 0.924265 0.492515
O O10 0.661945 0.850175 0.599011
O O11 0.729157 0.784210 0.368000
O O12 0.960199 0.957119 0.362842
O O13 0.763571 0.165450 0.598294
#
# Coordination Sequence:
#
# PCOD9550805 Si02
#       8
#     8   8   8   8   4   8   4   4
#     4  10  20  35  54  80 119 153 190 248 300 353
#     4   9  19  33  58  82 114 151 198 247 302 356
#     4  10  23  43  61  86 106 146 208 266 321 366
#     4   9  15  31  48  82 113 149 198 222 272 345
#     4  10  22  31  52  91 123 160 196 216 277 366
#     4   8  14  27  47  77 110 147 182 223 267 339
#     4  12  22  35  56  91 133 164 196 233 288 374
#     4   8  14  26  52  82 110 148 182 221 289 352
#
# _framework density 26.074086000000001
#
# number of rings (size 3 to 8) (size 9 to 14) (size 15 to 20)
#    0.000    2.769    3.077    0.000    2.154    2.462 
#    0.000    0.000    0.000    0.000   32.000    0.000 
#    0.000    0.000    0.000    0.000    0.000    0.000 
#
# Total GULP energy -289705.556578 kJ/mol
# GULP energy per Si atom -5571.260703 kJ/mol
# Density = 2.601474 g / cm^3
# Si number density = 26.074086 Si / 1000 Ang^3
#
#
#
# Elastic Constant Matrix: (Units=GPa)
#
#
# Indices 1 2 3 4 5 6 
#
# 1 43.4957 -1.9128 11.1742 0.0000 0.0000 0.0000
# 2 -1.9128 43.4951 11.1737 0.0000 0.0000 0.0000
# 3 11.1742 11.1737 243.1271 0.0000 0.0000 0.0000
# 4 0.0000 0.0000 0.0000 35.6661 0.0000 0.0000
# 5 0.0000 0.0000 0.0000 0.0000 35.6660 0.0000
# 6 0.0000 0.0000 0.0000 0.0000 0.0000 25.1527
#
#
#
# Elastic Compliance Matrix: (Units=1/GPa)
#
#
# Indices 1 2 3 4 5 6 
#
# 1 0.023340 0.001318 -0.001133 0.000000 0.000000 0.000000
# 2 0.001318 0.023340 -0.001133 0.000000 0.000000 0.000000
# 3 -0.001133 -0.001133 0.004217 0.000000 0.000000 0.000000
# 4 0.000000 0.000000 0.000000 0.028038 0.000000 0.000000
# 5 0.000000 0.000000 0.000000 0.000000 0.028038 0.000000
# 6 0.000000 0.000000 0.000000 0.000000 0.000000 0.039757
#
#
# Mechanical properties :
#
#
# Convention : Reuss Voigt Hill
#
# Bulk Modulus (GPa) = 20.40842 41.22089 30.81466
# Shear Modulus (GPa) = 30.31016 39.94247 35.12631
#
# Velocity S-wave (km/s) = 3.41319 3.91817 3.67437
# Velocity P-wave (km/s) = 4.83500 6.02602 5.46306
#
# Compressibility (1/GPa) = 0.04899939
#
# Stress axis : x y z
#
# Youngs Moduli (GPa) = 42.84517 42.84459 237.12182
#
# Poissons Ratio (x) = -0.05645 0.26872
# Poissons Ratio (y) = -0.05645 0.26871
# Poissons Ratio (z) = 0.04855 0.04855
#
# Static dielectric constant tensor:
#      x y z
#    x 2.234160 0.000000 0.000000 
#    y 0.000000 2.234170 0.000000 
#    z 0.000000 0.000000 2.143430 
# 
# From -- ./inp_files/1595.got.cif
#   From: 2010.05.17/outbox.cif.g08.bks.cpg/sg96_1_cif.got.tgz:1595.got - 2010.06.03 19:52:08.
