data_PCOD9550005
_publ_section_title
;
Structure prediction by ZEFSAII (Michael W. Deem and Ramdas Pophale) SiO2 
 PCOD9550005
Probable space group: P 42 21 2
;
_chemical_formula_sum "Si O2"
_cell_formula_units_Z 60
_cell_length_a 10.393072
_cell_length_b 10.393072
_cell_length_c 23.059608
_cell_angle_alpha 90.000000
_cell_angle_beta 90.000000
_cell_angle_gamma 90.000000
_cell_volume 2490.805363
_symmetry_space_group_name_H-M "P 42 21 2"
_symmetry_group_IT_number 94
_symmetry_cell_setting 'tetragonal'
loop_
_space_group_symop_operation_xyz
x,y,z
1/2-y,1/2+x,1/2+z
-x,-y,z
1/2+y,1/2-x,1/2+z
1/2+x,1/2-y,1/2-z
1/2-x,1/2+y,1/2-z
y,x,-z
-y,-x,-z
loop_
_atom_site_type_symbol
_atom_site_label
_atom_site_fract_x
_atom_site_fract_y
_atom_site_fract_z
Si Si1 0.936733 0.132839 0.682124
Si Si2 0.102832 0.616628 0.897341
Si Si3 0.825061 0.902965 0.061625
Si Si4 0.902984 0.621715 0.639605
Si Si5 0.000000 0.000000 0.151162
Si Si6 0.148162 0.836461 0.561175
Si Si7 0.797283 0.170140 0.203834
Si Si8 0.358637 0.052239 0.481045
O O1 0.872784 0.093469 0.620965
O O2 0.838989 0.202642 0.726739
O O3 0.034897 0.245452 0.663832
O O4 0.000000 0.000000 0.703408
O O5 0.165552 0.669886 0.837314
O O6 0.000000 0.500000 0.884843
O O7 0.028159 0.740354 0.924368
O O8 0.191702 0.579969 0.953894
O O9 0.937207 0.893703 0.108812
O O10 0.718559 0.791196 0.061600
O O11 0.892804 0.892804 0.000000
O O12 0.784623 0.610952 0.683194
O O13 0.849448 0.634834 0.572892
O O14 0.000000 0.500000 0.642208
O O15 0.121978 0.956335 0.187505
O O16 0.104499 0.895502 0.500000
O O17 0.061136 0.709248 0.554807
O O18 0.500000 0.000000 0.493608
#
# Coordination Sequence:
#
# PCOD9550005 Si02
#       8
#     8   8   8   8   4   8   8   8
#     4  11  26  47  66  98 135 177 230 289 356 415
#     4  10  21  37  61  98 141 179 226 289 351 419
#     4  10  20  34  59  96 130 173 220 271 347 406
#     4  10  25  44  71 102 131 187 236 286 360 428
#     4  10  23  36  62  96 135 176 222 278 338 402
#     4  10  21  38  67  93 121 178 223 281 346 414
#     4  11  25  43  68  96 140 180 232 290 345 429
#     4   9  18  36  61  94 134 170 225 284 345 413
#
# _framework density 24.088592999999999
#
# number of rings (size 3 to 8) (size 9 to 14) (size 15 to 20)
#    0.000    1.867    0.667    3.400    7.467    6.667 
#    0.000    2.667    0.000    0.000    0.000    0.000 
#    0.000    0.000    0.000    0.000    0.000    0.000 
#
# Total GULP energy -334151.665681 kJ/mol
# GULP energy per Si atom -5569.194428 kJ/mol
# Density = 2.403377 g / cm^3
# Si number density = 24.088593 Si / 1000 Ang^3
#
#
#
# Elastic Constant Matrix: (Units=GPa)
#
#
# Indices 1 2 3 4 5 6 
#
# 1 61.0416 11.1461 28.0810 0.0000 0.0000 0.0000
# 2 11.1461 61.0413 28.0808 0.0000 0.0000 0.0000
# 3 28.0810 28.0808 170.7948 0.0000 0.0000 0.0000
# 4 0.0000 0.0000 0.0000 -98.8034 0.0000 0.0000
# 5 0.0000 0.0000 0.0000 0.0000 -98.7338 0.0000
# 6 0.0000 0.0000 0.0000 0.0000 0.0000 35.3033
#
#
#
# Elastic Compliance Matrix: (Units=1/GPa)
#
#
# Indices 1 2 3 4 5 6 
#
# 1 0.017963 -0.002079 -0.002612 0.000000 0.000000 0.000000
# 2 -0.002079 0.017963 -0.002612 0.000000 0.000000 0.000000
# 3 -0.002612 -0.002612 0.006714 0.000000 0.000000 0.000000
# 4 0.000000 0.000000 0.000000 -0.010121 0.000000 0.000000
# 5 0.000000 0.000000 0.000000 0.000000 -0.010128 0.000000
# 6 0.000000 0.000000 0.000000 0.000000 0.000000 0.028326
#
#
# Mechanical properties :
#
#
# Convention : Reuss Voigt Hill
#
# Bulk Modulus (GPa) = 35.66783 47.49929 41.58356
# Shear Modulus (GPa) = 66.96459 -17.40878 24.77791
#
# Velocity S-wave (km/s) = 5.27822 -2.69122 3.21068
# Velocity P-wave (km/s) = 7.21008 3.17876 5.57179
#
# Compressibility (1/GPa) = 0.02803647
#
# Stress axis : x y z
#
# Youngs Moduli (GPa) = 55.66918 55.66897 148.94801
#
# Poissons Ratio (x) = 0.11572 0.38900
# Poissons Ratio (y) = 0.11572 0.38900
# Poissons Ratio (z) = 0.14539 0.14539
#
# Static dielectric constant tensor:
#      x y z
#    x 2.024950 0.000000 0.000000 
#    y 0.000000 2.024950 0.000000 
#    z 0.000000 0.000000 2.112900 
# 
# From -- ./inp_files/4807.got.cif
#   From: 2010.05.17/outbox.cif.g08.bks.cpg/sg94_3_cif.got.tgz:4807.got - 2010.06.03 19:43:16.
