data_PCOD9550046
_publ_section_title
;
Structure prediction by ZEFSAII (Michael W. Deem and Ramdas Pophale) SiO2 
 PCOD9550046
Probable space group: P 42 21 2
;
_chemical_formula_sum "Si O2"
_cell_formula_units_Z 52
_cell_length_a 17.764624
_cell_length_b 17.764624
_cell_length_c 8.313082
_cell_angle_alpha 90.000000
_cell_angle_beta 90.000000
_cell_angle_gamma 90.000000
_cell_volume 2623.457929
_symmetry_space_group_name_H-M "P 42 21 2"
_symmetry_group_IT_number 94
_symmetry_cell_setting 'tetragonal'
loop_
_space_group_symop_operation_xyz
x,y,z
1/2-y,1/2+x,1/2+z
-x,-y,z
1/2+y,1/2-x,1/2+z
1/2+x,1/2-y,1/2-z
1/2-x,1/2+y,1/2-z
y,x,-z
-y,-x,-z
loop_
_atom_site_type_symbol
_atom_site_label
_atom_site_fract_x
_atom_site_fract_y
_atom_site_fract_z
Si Si1 0.179737 0.289405 0.752474
Si Si2 0.069821 0.719583 0.459111
Si Si3 0.844992 0.844992 0.000000
Si Si4 0.330137 0.207410 0.728413
Si Si5 0.157247 0.468379 0.476023
Si Si6 0.236500 0.052911 0.781145
Si Si7 0.129560 0.546630 0.144237
O O1 0.194612 0.371147 0.825909
O O2 0.156912 0.230992 0.892784
O O3 0.259364 0.260085 0.688585
O O4 0.108220 0.302192 0.638967
O O5 0.124834 0.738706 0.612315
O O6 0.005889 0.770782 0.368647
O O7 0.021224 0.650822 0.527826
O O8 0.837162 0.911883 0.869442
O O9 0.393842 0.196029 0.596566
O O10 0.290299 0.125536 0.748680
O O11 0.218324 0.509287 0.582056
O O12 0.129654 0.516196 0.324469
O O13 0.087418 0.444584 0.585253
#
# Coordination Sequence:
#
# PCOD9550046 Si02
#       7
#     8   8   4   8   8   8   8
#     4  11  19  39  61  81 118 162 206 250 298 361
#     4  11  20  36  58  86 122 157 205 247 301 367
#     4  10  20  38  62  80 117 170 201 254 304 354
#     4  10  22  39  59  83 118 162 206 254 299 369
#     4  11  22  38  56  86 123 158 200 246 301 370
#     4  11  20  37  58  84 121 159 201 250 299 364
#     4  11  23  37  57  87 126 158 205 247 295 371
#
# _framework density 19.821166000000002
#
# number of rings (size 3 to 8) (size 9 to 14) (size 15 to 20)
#    0.000    1.231    7.692    0.000    0.000    0.615 
#    0.000   14.615    0.000    0.000    0.000    2.154 
#    9.231    0.000    0.000    0.000    0.000    0.000 
#
# Total GULP energy -289934.067306 kJ/mol
# GULP energy per Si atom -5575.655140 kJ/mol
# Density = 1.977605 g / cm^3
# Si number density = 19.821166 Si / 1000 Ang^3
#
#
#
# Elastic Constant Matrix: (Units=GPa)
#
#
# Indices 1 2 3 4 5 6 
#
# 1 42.4616 55.5899 26.1045 0.0000 0.0000 0.0000
# 2 55.5899 42.4616 26.1045 0.0000 0.0000 0.0000
# 3 26.1045 26.1045 85.0114 0.0000 0.0000 0.0000
# 4 0.0000 0.0000 0.0000 21.2927 0.0000 0.0000
# 5 0.0000 0.0000 0.0000 0.0000 21.2927 0.0000
# 6 0.0000 0.0000 0.0000 0.0000 0.0000 23.8106
#
#
#
# Elastic Compliance Matrix: (Units=1/GPa)
#
#
# Indices 1 2 3 4 5 6 
#
# 1 -0.031990 0.044182 -0.003744 0.000000 0.000000 0.000000
# 2 0.044182 -0.031990 -0.003744 0.000000 0.000000 0.000000
# 3 -0.003744 -0.003744 0.014062 0.000000 0.000000 0.000000
# 4 0.000000 0.000000 0.000000 0.046965 0.000000 0.000000
# 5 0.000000 0.000000 0.000000 0.000000 0.046965 0.000000
# 6 0.000000 0.000000 0.000000 0.000000 0.000000 0.041998
#
#
# Mechanical properties :
#
#
# Convention : Reuss Voigt Hill
#
# Bulk Modulus (GPa) = 42.60520 42.83695 42.72107
# Shear Modulus (GPa) = 244.54927 17.42157 130.98542
#
# Velocity S-wave (km/s) = 11.11961 2.96790 8.13800
# Velocity P-wave (km/s) = 13.65293 5.77955 10.48345
#
# Compressibility (1/GPa) = 0.02347132
#
# Stress axis : x y z
#
# Youngs Moduli (GPa) = -31.26011 -31.26011 71.11164
#
# Poissons Ratio (x) = 1.38113 0.26623
# Poissons Ratio (y) = 1.38113 0.26623
# Poissons Ratio (z) = -0.11703 -0.11703
#
# Static dielectric constant tensor:
#      x y z
#    x 1.719110 0.000000 0.000000 
#    y 0.000000 1.719110 0.000000 
#    z 0.000000 0.000000 1.801460 
# 
# From -- ./inp_files/1699.got.cif
#   From: 2010.05.17/outbox.cif.g08.bks.cpg/sg94_1_cif.got.tgz:1699.got - 2010.06.03 19:43:16.
