data_PCOD9550373
_publ_section_title
;
Structure prediction by ZEFSAII (Michael W. Deem and Ramdas Pophale) SiO2 
 PCOD9550373
Probable space group: P 42 21 2
;
_chemical_formula_sum "Si O2"
_cell_formula_units_Z 28
_cell_length_a 8.512833
_cell_length_b 8.512833
_cell_length_c 15.999450
_cell_angle_alpha 90.000000
_cell_angle_beta 90.000000
_cell_angle_gamma 90.000000
_cell_volume 1159.453353
_symmetry_space_group_name_H-M "P 42 21 2"
_symmetry_group_IT_number 94
_symmetry_cell_setting 'tetragonal'
loop_
_space_group_symop_operation_xyz
x,y,z
1/2-y,1/2+x,1/2+z
-x,-y,z
1/2+y,1/2-x,1/2+z
1/2+x,1/2-y,1/2-z
1/2-x,1/2+y,1/2-z
y,x,-z
-y,-x,-z
loop_
_atom_site_type_symbol
_atom_site_label
_atom_site_fract_x
_atom_site_fract_y
_atom_site_fract_z
Si Si1 0.261525 0.261525 0.000000
Si Si2 0.259101 0.413511 0.703331
Si Si3 0.412158 0.844223 0.965753
Si Si4 0.079462 0.234792 0.832460
O O1 0.431403 0.258305 0.956508
O O2 0.131290 0.231324 0.928802
O O3 0.151755 0.407433 0.621561
O O4 0.159705 0.377937 0.785235
O O5 0.396520 0.286230 0.685593
O O6 0.341593 0.580672 0.707814
O O7 0.500000 0.000000 0.008007
O O8 0.269026 0.730975 0.000000
#
# Coordination Sequence:
#
# PCOD9550373 Si02
#       4
#     4   8   8   8
#     4  12  25  47  76 112 151 202 261 334 391 494
#     4  11  26  47  74 107 152 204 258 330 398 489
#     4  12  26  48  76 111 156 205 265 329 409 482
#     4  11  26  47  76 109 154 201 267 322 409 472
#
# _framework density 24.149311999999998
#
# number of rings (size 3 to 8) (size 9 to 14) (size 15 to 20)
#    0.000    0.571    2.857    3.857    4.000    1.143 
#    0.000    0.000    0.000    0.000    0.000    0.000 
#    0.000    0.000    0.000    0.000    0.000    0.000 
#
# Total GULP energy -156332.135168 kJ/mol
# GULP energy per Si atom -5583.290542 kJ/mol
# Density = 2.409435 g / cm^3
# Si number density = 24.149312 Si / 1000 Ang^3
#
#
#
# Elastic Constant Matrix: (Units=GPa)
#
#
# Indices 1 2 3 4 5 6 
#
# 1 119.0500 31.4931 17.5731 0.0000 0.0000 0.0000
# 2 31.4931 119.0500 17.5736 0.0000 0.0000 0.0000
# 3 17.5731 17.5736 56.3534 0.0000 0.0000 0.0000
# 4 0.0000 0.0000 0.0000 30.5885 0.0000 0.0000
# 5 0.0000 0.0000 0.0000 0.0000 30.5888 0.0000
# 6 0.0000 0.0000 0.0000 0.0000 0.0000 58.0586
#
#
#
# Elastic Compliance Matrix: (Units=1/GPa)
#
#
# Indices 1 2 3 4 5 6 
#
# 1 0.009293 -0.002128 -0.002234 0.000000 0.000000 0.000000
# 2 -0.002128 0.009293 -0.002234 0.000000 0.000000 0.000000
# 3 -0.002234 -0.002234 0.019139 0.000000 0.000000 0.000000
# 4 0.000000 0.000000 0.000000 0.032692 0.000000 0.000000
# 5 0.000000 0.000000 0.000000 0.000000 0.032692 0.000000
# 6 0.000000 0.000000 0.000000 0.000000 0.000000 0.017224
#
#
# Mechanical properties :
#
#
# Convention : Reuss Voigt Hill
#
# Bulk Modulus (GPa) = 40.76553 47.52590 44.14571
# Shear Modulus (GPa) = 35.28538 39.03476 37.16007
#
# Velocity S-wave (km/s) = 3.82662 4.02480 3.92696
# Velocity P-wave (km/s) = 6.03667 6.42817 6.23549
#
# Compressibility (1/GPa) = 0.02453053
#
# Stress axis : x y z
#
# Youngs Moduli (GPa) = 107.61180 107.61149 52.25067
#
# Poissons Ratio (x) = 0.22905 0.11673
# Poissons Ratio (y) = 0.22905 0.11674
# Poissons Ratio (z) = 0.24041 0.24042
#
# Static dielectric constant tensor:
#      x y z
#    x 1.988640 0.000000 0.000000 
#    y 0.000000 1.988640 0.000000 
#    z 0.000000 0.000000 1.884290 
# 
# From -- ./inp_files/3821.got.cif
#   From: 2010.05.17/outbox.cif.g08.bks.cpg/sg94_2_cif.got.tgz:3821.got - 2010.06.03 19:43:16.
