data_PCOD9550386
_publ_section_title
;
Structure prediction by ZEFSAII (Michael W. Deem and Ramdas Pophale) SiO2 
 PCOD9550386
Probable space group: P 42 21 2
;
_chemical_formula_sum "Si O2"
_cell_formula_units_Z 22
_cell_length_a 8.142613
_cell_length_b 8.142613
_cell_length_c 12.676095
_cell_angle_alpha 90.000000
_cell_angle_beta 90.000000
_cell_angle_gamma 90.000000
_cell_volume 840.452307
_symmetry_space_group_name_H-M "P 42 21 2"
_symmetry_group_IT_number 94
_symmetry_cell_setting 'tetragonal'
loop_
_space_group_symop_operation_xyz
x,y,z
1/2-y,1/2+x,1/2+z
-x,-y,z
1/2+y,1/2-x,1/2+z
1/2+x,1/2-y,1/2-z
1/2-x,1/2+y,1/2-z
y,x,-z
-y,-x,-z
loop_
_atom_site_type_symbol
_atom_site_label
_atom_site_fract_x
_atom_site_fract_y
_atom_site_fract_z
Si Si1 0.500000 0.000000 0.955111
Si Si2 0.298843 0.330123 0.664279
Si Si3 0.030048 0.806146 0.390276
Si Si4 0.500000 0.500000 0.500000
O O1 0.439949 0.166065 0.019462
O O2 0.653570 0.058723 0.884785
O O3 0.307391 0.355081 0.788539
O O4 0.254970 0.144672 0.648102
O O5 0.457173 0.362741 0.589291
O O6 0.000000 0.000000 0.408177
#
# Coordination Sequence:
#
# PCOD9550386 Si02
#       4
#     4   8   8   2
#     4  12  28  52  84 120 162 226 276 342 440 500
#     4  12  29  51  80 120 162 221 275 353 419 513
#     4  12  30  54  81 125 167 218 287 354 431 514
#     4  12  24  52  70 108 168 204 268 334 412 492
#
# _framework density 26.176383999999999
#
# number of rings (size 3 to 8) (size 9 to 14) (size 15 to 20)
#    0.000    0.000    5.455    1.091   15.273    2.909 
#    0.000    0.000    0.000    0.000    0.000    0.000 
#    0.000    0.000    0.000    0.000    0.000    0.000 
#
# Total GULP energy -122812.697410 kJ/mol
# GULP energy per Si atom -5582.395337 kJ/mol
# Density = 2.611681 g / cm^3
# Si number density = 26.176384 Si / 1000 Ang^3
#
#
#
# Elastic Constant Matrix: (Units=GPa)
#
#
# Indices 1 2 3 4 5 6 
#
# 1 52.3599 -13.2494 -9.2727 0.0000 0.0000 0.0000
# 2 -13.2494 52.3599 -9.2727 0.0000 0.0000 0.0000
# 3 -9.2727 -9.2727 119.4487 0.0000 0.0000 0.0000
# 4 0.0000 0.0000 0.0000-1476.9446 0.0000 0.0000
# 5 0.0000 0.0000 0.0000 0.0000-1476.9446 0.0000
# 6 0.0000 0.0000 0.0000 0.0000 0.0000 48.0672
#
#
#
# Elastic Compliance Matrix: (Units=1/GPa)
#
#
# Indices 1 2 3 4 5 6 
#
# 1 0.020894 0.005652 0.002061 0.000000 0.000000 0.000000
# 2 0.005652 0.020894 0.002061 0.000000 0.000000 0.000000
# 3 0.002061 0.002061 0.008692 0.000000 0.000000 0.000000
# 4 0.000000 0.000000 0.000000 -0.000677 0.000000 0.000000
# 5 0.000000 0.000000 0.000000 0.000000 -0.000677 0.000000
# 6 0.000000 0.000000 0.000000 0.000000 0.000000 0.020804
#
#
# Mechanical properties :
#
#
# Convention : Reuss Voigt Hill
#
# Bulk Modulus (GPa) = 14.28042 17.84213 16.06127
# Shear Modulus (GPa) = 67.82016 -564.10019 -248.14002
#
# Velocity S-wave (km/s) = 5.09560 -14.69583 -9.74685
# Velocity P-wave (km/s) = 6.33147 16.76680 10.97812
#
# Compressibility (1/GPa) = 0.07002595
#
# Stress axis : x y z
#
# Youngs Moduli (GPa) = 47.86130 47.86130 115.05179
#
# Poissons Ratio (x) = -0.27051 -0.23709
# Poissons Ratio (y) = -0.27051 -0.23709
# Poissons Ratio (z) = -0.09863 -0.09863
#
# Static dielectric constant tensor:
#      x y z
#    x 2.464970 0.000000 0.000000 
#    y 0.000000 2.464970 0.000000 
#    z 0.000000 0.000000 2.580970 
# 
# From -- ./inp_files/2938.got.cif
#   From: 2010.05.17/outbox.cif.g08.bks.cpg/sg94_2_cif.got.tgz:2938.got - 2010.06.03 19:43:16.
