data_PCOD9550199
_publ_section_title
;
Structure prediction by ZEFSAII (Michael W. Deem and Ramdas Pophale) SiO2 
 PCOD9550199
Probable space group: P 42 21 2
;
_chemical_formula_sum "Si O2"
_cell_formula_units_Z 32
_cell_length_a 9.830201
_cell_length_b 9.830201
_cell_length_c 13.584460
_cell_angle_alpha 90.000000
_cell_angle_beta 90.000000
_cell_angle_gamma 90.000000
_cell_volume 1312.705109
_symmetry_space_group_name_H-M "P 42 21 2"
_symmetry_group_IT_number 94
_symmetry_cell_setting 'tetragonal'
loop_
_space_group_symop_operation_xyz
x,y,z
1/2-y,1/2+x,1/2+z
-x,-y,z
1/2+y,1/2-x,1/2+z
1/2+x,1/2-y,1/2-z
1/2-x,1/2+y,1/2-z
y,x,-z
-y,-x,-z
loop_
_atom_site_type_symbol
_atom_site_label
_atom_site_fract_x
_atom_site_fract_y
_atom_site_fract_z
Si Si1 0.444093 0.285246 0.122333
Si Si2 0.132850 0.594165 0.045977
Si Si3 0.564950 0.332913 0.794110
Si Si4 0.446671 0.722345 0.578952
O O1 0.526613 0.248407 0.023230
O O2 0.373894 0.431524 0.140686
O O3 0.565418 0.305542 0.200812
O O4 0.333111 0.166112 0.117144
O O5 0.000000 0.500000 0.058388
O O6 0.071241 0.713389 0.979779
O O7 0.195959 0.616507 0.153142
O O8 0.510751 0.336160 0.683518
O O9 0.373360 0.626641 0.500000
#
# Coordination Sequence:
#
# PCOD9550199 Si02
#       4
#     8   8   8   8
#     4  10  23  46  69 107 137 201 249 298 362 452
#     4  10  22  42  70 105 143 189 244 300 361 439
#     4  11  24  43  78  99 149 199 250 301 372 455
#     4  11  26  44  72 112 155 186 248 319 373 445
#
# _framework density 24.377141999999999
#
# number of rings (size 3 to 8) (size 9 to 14) (size 15 to 20)
#    0.000    1.500    0.000    4.500    7.000    7.000 
#    0.000    2.500    0.000    0.000    0.000    0.000 
#    0.000    0.000    0.000    0.000    0.000    0.000 
#
# Total GULP energy -178346.104704 kJ/mol
# GULP energy per Si atom -5573.315772 kJ/mol
# Density = 2.432166 g / cm^3
# Si number density = 24.377142 Si / 1000 Ang^3
#
#
#
# Elastic Constant Matrix: (Units=GPa)
#
#
# Indices 1 2 3 4 5 6 
#
# 1 92.3688 54.4643 65.5886 0.0000 0.0000 0.0000
# 2 54.4643 92.3689 65.5885 0.0000 0.0000 0.0000
# 3 65.5886 65.5885 183.5423 0.0000 0.0000 0.0000
# 4 0.0000 0.0000 0.0000 41.9172 0.0000 0.0000
# 5 0.0000 0.0000 0.0000 0.0000 41.9158 0.0000
# 6 0.0000 0.0000 0.0000 0.0000 0.0000 44.0694
#
#
#
# Elastic Compliance Matrix: (Units=1/GPa)
#
#
# Indices 1 2 3 4 5 6 
#
# 1 0.018193 -0.008189 -0.003575 0.000000 0.000000 0.000000
# 2 -0.008189 0.018193 -0.003575 0.000000 0.000000 0.000000
# 3 -0.003575 -0.003575 0.008003 0.000000 0.000000 0.000000
# 4 0.000000 0.000000 0.000000 0.023857 0.000000 0.000000
# 5 0.000000 0.000000 0.000000 0.000000 0.023857 0.000000
# 6 0.000000 0.000000 0.000000 0.000000 0.000000 0.022691
#
#
# Mechanical properties :
#
#
# Convention : Reuss Voigt Hill
#
# Bulk Modulus (GPa) = 72.92940 82.17365 77.55153
# Shear Modulus (GPa) = 33.32368 37.75641 35.54004
#
# Velocity S-wave (km/s) = 3.70131 3.93981 3.82242
# Velocity P-wave (km/s) = 6.94611 7.38096 7.16683
#
# Compressibility (1/GPa) = 0.01371189
#
# Stress axis : x y z
#
# Youngs Moduli (GPa) = 54.96563 54.96584 124.94709
#
# Poissons Ratio (x) = 0.45011 0.44669
# Poissons Ratio (y) = 0.45011 0.44668
# Poissons Ratio (z) = 0.19650 0.19650
#
# Static dielectric constant tensor:
#      x y z
#    x 2.046200 0.000000 0.000000 
#    y 0.000000 2.046200 0.000000 
#    z 0.000000 0.000000 1.897630 
# 
# From -- ./inp_files/3217.got.cif
#   From: 2010.05.17/outbox.cif.g08.bks.cpg/sg94_2_cif.got.tgz:3217.got - 2010.06.03 19:43:16.
