data_PCOD9550630
_publ_section_title
;
Structure prediction by ZEFSAII (Michael W. Deem and Ramdas Pophale) SiO2 
 PCOD9550630
Probable space group: P 43 2 2
;
_chemical_formula_sum "Si O2"
_cell_formula_units_Z 36
_cell_length_a 8.614902
_cell_length_b 8.614902
_cell_length_c 21.906666
_cell_angle_alpha 90.000000
_cell_angle_beta 90.000000
_cell_angle_gamma 90.000000
_cell_volume 1625.836876
_symmetry_space_group_name_H-M "P 43 2 2"
_symmetry_group_IT_number 95
_symmetry_cell_setting 'tetragonal'
loop_
_space_group_symop_operation_xyz
x,y,z
-y,x,3/4+z
-x,-y,1/2+z
y,-x,1/4+z
x,-y,1/2-z
-x,y,-z
y,x,1/4-z
-y,-x,3/4-z
loop_
_atom_site_type_symbol
_atom_site_label
_atom_site_fract_x
_atom_site_fract_y
_atom_site_fract_z
Si Si1 0.785478 0.500000 0.250000
Si Si2 0.859844 0.140157 0.375000
Si Si3 0.155112 0.298279 0.066873
Si Si4 0.980043 0.000000 0.750000
Si Si5 0.485975 0.878571 0.125320
Si Si6 0.344039 0.519505 0.527594
O O1 0.883936 0.559007 0.305215
O O2 0.665129 0.370645 0.273742
O O3 0.896095 0.326531 0.378757
O O4 0.930681 0.070900 0.310340
O O5 0.263532 0.263532 0.125000
O O6 0.999324 0.377814 0.090931
O O7 0.218630 0.423203 0.019580
O O8 0.123704 0.138466 0.030810
O O9 0.444957 0.710648 0.154534
O O10 0.500000 0.591471 0.500000
#
# Coordination Sequence:
#
# PCOD9550630 Si02
#       6
#     4   4   8   4   8   8
#     4  10  24  42  74 106 136 178 248 302 352 442
#     4  12  28  48  76 104 144 202 244 296 372 448
#     4  12  28  47  69 107 148 193 237 305 371 434
#     4  12  28  46  68 106 150 186 240 296 366 452
#     4  12  25  47  73 107 143 193 245 302 371 439
#     4  10  23  44  75 101 138 178 248 297 359 423
#
# _framework density 22.142443
#
# number of rings (size 3 to 8) (size 9 to 14) (size 15 to 20)
#    0.667    0.000    5.556    0.000    9.333    3.556 
#    0.000    0.000    0.000    0.000    0.000    0.000 
#    0.000    0.000    0.000    0.000    0.000    0.000 
#
# Total GULP energy -200718.647428 kJ/mol
# GULP energy per Si atom -5575.517984 kJ/mol
# Density = 2.209205 g / cm^3
# Si number density = 22.142443 Si / 1000 Ang^3
#
#
#
# Elastic Constant Matrix: (Units=GPa)
#
#
# Indices 1 2 3 4 5 6 
#
# 1 49.0707 8.6770 22.5287 0.0000 0.0000 0.0000
# 2 8.6770 49.0711 22.5288 0.0000 0.0000 0.0000
# 3 22.5287 22.5288 151.0980 0.0000 0.0000 0.0000
# 4 0.0000 0.0000 0.0000 8.8336 0.0000 0.0000
# 5 0.0000 0.0000 0.0000 0.0000 8.8336 0.0000
# 6 0.0000 0.0000 0.0000 0.0000 0.0000 30.0002
#
#
#
# Elastic Compliance Matrix: (Units=1/GPa)
#
#
# Indices 1 2 3 4 5 6 
#
# 1 0.022176 -0.002580 -0.002922 0.000000 0.000000 0.000000
# 2 -0.002580 0.022176 -0.002922 0.000000 0.000000 0.000000
# 3 -0.002922 -0.002922 0.007490 0.000000 0.000000 0.000000
# 4 0.000000 0.000000 0.000000 0.113204 0.000000 0.000000
# 5 0.000000 0.000000 0.000000 0.000000 0.113204 0.000000
# 6 0.000000 0.000000 0.000000 0.000000 0.000000 0.033333
#
#
# Mechanical properties :
#
#
# Convention : Reuss Voigt Hill
#
# Bulk Modulus (GPa) = 28.57552 39.63431 34.10491
# Shear Modulus (GPa) = 14.70176 22.56717 18.63447
#
# Velocity S-wave (km/s) = 2.57954 3.19593 2.90413
# Velocity P-wave (km/s) = 4.66962 5.61758 5.16539
#
# Compressibility (1/GPa) = 0.03499499
#
# Stress axis : x y z
#
# Youngs Moduli (GPa) = 45.09300 45.09336 133.52010
#
# Poissons Ratio (x) = 0.11634 0.39012
# Poissons Ratio (y) = 0.11634 0.39012
# Poissons Ratio (z) = 0.13175 0.13175
#
# Static dielectric constant tensor:
#      x y z
#    x 1.844940 0.000000 0.000000 
#    y 0.000000 1.844940 0.000000 
#    z 0.000000 0.000000 1.833760 
# 
# From -- ./inp_files/6281.got.cif
#   From: 2010.05.17/outbox.cif.g08.bks.cpg/sg95_4_cif.got.tgz:6281.got - 2010.06.03 19:46:49.
