data_PCOD9550548
_publ_section_title
;
Structure prediction by ZEFSAII (Michael W. Deem and Ramdas Pophale) SiO2 
 PCOD9550548
Probable space group: P 43 2 2
;
_chemical_formula_sum "Si O2"
_cell_formula_units_Z 48
_cell_length_a 20.039060
_cell_length_b 20.039060
_cell_length_c 5.751768
_cell_angle_alpha 90.000000
_cell_angle_beta 90.000000
_cell_angle_gamma 90.000000
_cell_volume 2309.702538
_symmetry_space_group_name_H-M "P 43 2 2"
_symmetry_group_IT_number 95
_symmetry_cell_setting 'tetragonal'
loop_
_space_group_symop_operation_xyz
x,y,z
-y,x,3/4+z
-x,-y,1/2+z
y,-x,1/4+z
x,-y,1/2-z
-x,y,-z
y,x,1/4-z
-y,-x,3/4-z
loop_
_atom_site_type_symbol
_atom_site_label
_atom_site_fract_x
_atom_site_fract_y
_atom_site_fract_z
Si Si1 0.723797 0.819136 0.730068
Si Si2 0.835470 0.835470 0.125000
Si Si3 0.042687 0.500000 0.750000
Si Si4 0.617180 0.288795 0.250149
Si Si5 0.620034 0.852460 0.069857
Si Si6 0.400094 0.599906 0.375000
Si Si7 0.363156 0.500000 0.750000
Si Si8 0.075885 0.741592 0.072428
O O1 0.747955 0.747955 0.625000
O O2 0.732079 0.885232 0.568072
O O3 0.779895 0.825359 0.928272
O O4 0.649702 0.820094 0.833598
O O5 0.816071 0.904151 0.241690
O O6 0.093639 0.562507 0.776266
O O7 0.000000 0.504231 0.500000
O O8 0.685890 0.314111 0.375000
O O9 0.608726 0.209441 0.254994
O O10 0.559423 0.317135 0.413605
O O11 0.602786 0.330625 0.018023
O O12 0.682760 0.890759 0.174819
O O13 0.402385 0.536189 0.543890
O O14 0.000000 0.733595 0.000000
#
# Coordination Sequence:
#
# PCOD9550548 Si02
#       8
#     8   4   4   8   8   4   4   8
#     4   9  20  38  64  98 139 169 229 292 362 438
#     4   8  18  36  54  92 130 164 220 278 344 416
#     4  12  31  56  74 104 149 206 270 308 366 461
#     4  10  23  41  67 100 136 175 231 292 365 440
#     4  11  25  42  69  99 136 186 236 302 369 431
#     4  10  22  44  74  96 146 172 236 288 360 458
#     4  10  21  44  68  96 133 178 220 286 354 441
#     4  10  21  36  63  97 132 178 224 288 355 417
#
# _framework density 20.781898000000002
#
# number of rings (size 3 to 8) (size 9 to 14) (size 15 to 20)
#    0.000    2.000    0.000    1.500   11.667    4.667 
#    4.500    0.000   66.000    0.000    6.500    0.000 
#    0.000    0.000    0.000    0.000    0.000    0.000 
#
# Total GULP energy -267229.610188 kJ/mol
# GULP energy per Si atom -5567.283546 kJ/mol
# Density = 2.073460 g / cm^3
# Si number density = 20.781898 Si / 1000 Ang^3
#
#
#
# Elastic Constant Matrix: (Units=GPa)
#
#
# Indices 1 2 3 4 5 6 
#
# 1 -94.3952 254.2603 41.7443 0.0000 0.0000 0.0000
# 2 254.2603 -94.3136 41.7512 0.0000 0.0000 0.0000
# 3 41.7443 41.7512 82.0949 0.0000 0.0000 0.0000
# 4 0.0000 0.0000 0.0000 17.7330 0.0000 0.0000
# 5 0.0000 0.0000 0.0000 0.0000 17.7324 0.0000
# 6 0.0000 0.0000 0.0000 0.0000 0.0000 37.6185
#
#
#
# Elastic Compliance Matrix: (Units=1/GPa)
#
#
# Indices 1 2 3 4 5 6 
#
# 1 0.002822 0.005692 -0.004330 0.000000 0.000000 0.000000
# 2 0.005692 0.002824 -0.004330 0.000000 0.000000 0.000000
# 3 -0.004330 -0.004330 0.016585 0.000000 0.000000 0.000000
# 4 0.000000 0.000000 0.000000 0.056392 0.000000 0.000000
# 5 0.000000 0.000000 0.000000 0.000000 0.056394 0.000000
# 6 0.000000 0.000000 0.000000 0.000000 0.000000 0.026583
#
#
# Mechanical properties :
#
#
# Convention : Reuss Voigt Hill
#
# Bulk Modulus (GPa) = 61.37125 63.21086 62.29105
# Shear Modulus (GPa) = 28.90717 -15.00786 6.94965
#
# Velocity S-wave (km/s) = 3.73363 -2.69022 1.83067
# Velocity P-wave (km/s) = 6.94132 4.56428 5.87429
#
# Compressibility (1/GPa) = 0.01629428
#
# Stress axis : x y z
#
# Youngs Moduli (GPa) = 354.34312 354.11467 60.29613
#
# Poissons Ratio (x) = -2.01545 0.26106
# Poissons Ratio (y) = -2.01675 0.26110
# Poissons Ratio (z) = 1.53415 1.53341
#
# Static dielectric constant tensor:
#      x y z
#    x 1.797410 0.000000 0.000000 
#    y 0.000000 1.797410 0.000000 
#    z 0.000000 0.000000 1.926790 
# 
# From -- ./inp_files/1338.got.cif
#   From: 2010.05.17/outbox.cif.g08.bks.cpg/sg95_1_cif.got.tgz:1338.got - 2010.06.03 19:46:49.
