data_PCOD9550892
_publ_section_title
;
Structure prediction by ZEFSAII (Michael W. Deem and Ramdas Pophale) SiO2 
 PCOD9550892
Probable space group: P 43 21 2
;
_chemical_formula_sum "Si O2"
_cell_formula_units_Z 40
_cell_length_a 8.790782
_cell_length_b 8.790782
_cell_length_c 23.984342
_cell_angle_alpha 90.000000
_cell_angle_beta 90.000000
_cell_angle_gamma 90.000000
_cell_volume 1853.458340
_symmetry_space_group_name_H-M "P 43 21 2"
_symmetry_group_IT_number 96
_symmetry_cell_setting 'tetragonal'
loop_
_space_group_symop_operation_xyz
x,y,z
1/2-y,1/2+x,3/4+z
-x,-y,1/2+z
1/2+y,1/2-x,1/4+z
1/2+x,1/2-y,1/4-z
1/2-x,1/2+y,3/4-z
y,x,-z
-y,-x,1/2-z
loop_
_atom_site_type_symbol
_atom_site_label
_atom_site_fract_x
_atom_site_fract_y
_atom_site_fract_z
Si Si1 0.286334 0.844031 0.423905
Si Si2 0.721458 0.650301 0.436447
Si Si3 0.044834 0.066816 0.636704
Si Si4 0.387800 0.029689 0.896095
Si Si5 0.623925 0.590240 0.280585
O O1 0.158136 0.896340 0.380130
O O2 0.438962 0.940855 0.412762
O O3 0.327813 0.669335 0.415193
O O4 0.221748 0.871360 0.485313
O O5 0.701562 0.701562 0.500000
O O6 0.583760 0.532716 0.423609
O O7 0.866324 0.560391 0.412264
O O8 0.690663 0.802800 0.400052
O O9 0.113605 0.002093 0.578460
O O10 0.286174 0.936894 0.940685
O O11 0.562623 0.437378 0.250000
#
# Coordination Sequence:
#
# PCOD9550892 Si02
#       5
#     8   8   8   8   8
#     4  10  21  37  58  83 113 149 191 239 293 346
#     4  10  22  40  60  87 119 156 201 247 298 355
#     4   9  21  37  54  81 115 146 188 237 284 350
#     4  10  22  38  60  86 115 152 199 243 288 356
#     4   9  19  38  56  77 114 153 185 234 296 345
#
# _framework density 21.581277
#
# number of rings (size 3 to 8) (size 9 to 14) (size 15 to 20)
#    0.000    2.400    0.000    0.600    0.000   17.600 
#    0.000    3.000    0.000    0.000    0.000    0.000 
#    0.000    0.000    0.000    0.000    0.000    0.000 
#
# Total GULP energy -223190.884327 kJ/mol
# GULP energy per Si atom -5579.772108 kJ/mol
# Density = 2.153216 g / cm^3
# Si number density = 21.581277 Si / 1000 Ang^3
#
#
#
# Elastic Constant Matrix: (Units=GPa)
#
#
# Indices 1 2 3 4 5 6 
#
# 1 42.0638 -1.2873 3.9459 0.0000 0.0000 0.0000
# 2 -1.2873 42.0640 3.9459 0.0000 0.0000 0.0000
# 3 3.9459 3.9459 72.6466 0.0000 0.0000 0.0000
# 4 0.0000 0.0000 0.0000 27.4648 0.0000 0.0000
# 5 0.0000 0.0000 0.0000 0.0000 27.4646 0.0000
# 6 0.0000 0.0000 0.0000 0.0000 0.0000 40.1643
#
#
#
# Elastic Compliance Matrix: (Units=1/GPa)
#
#
# Indices 1 2 3 4 5 6 
#
# 1 0.023926 0.000859 -0.001346 0.000000 0.000000 0.000000
# 2 0.000859 0.023926 -0.001346 0.000000 0.000000 0.000000
# 3 -0.001346 -0.001346 0.013912 0.000000 0.000000 0.000000
# 4 0.000000 0.000000 0.000000 0.036410 0.000000 0.000000
# 5 0.000000 0.000000 0.000000 0.000000 0.036410 0.000000
# 6 0.000000 0.000000 0.000000 0.000000 0.000000 0.024898
#
#
# Mechanical properties :
#
#
# Convention : Reuss Voigt Hill
#
# Bulk Modulus (GPa) = 17.21303 18.88705 18.05004
# Shear Modulus (GPa) = 27.39507 29.03009 28.21258
#
# Velocity S-wave (km/s) = 3.56672 3.67161 3.61954
# Velocity P-wave (km/s) = 4.99552 5.17155 5.08429
#
# Compressibility (1/GPa) = 0.05809552
#
# Stress axis : x y z
#
# Youngs Moduli (GPa) = 41.79563 41.79582 71.88293
#
# Poissons Ratio (x) = -0.03588 0.09677
# Poissons Ratio (y) = -0.03588 0.09677
# Poissons Ratio (z) = 0.05627 0.05627
#
# Static dielectric constant tensor:
#      x y z
#    x 1.810370 0.000000 0.000000 
#    y 0.000000 1.810370 0.000000 
#    z 0.000000 0.000000 1.857000 
# 
# From -- ./inp_files/3763.got.cif
#   From: 2010.05.17/outbox.cif.g08.bks.cpg/sg96_2_cif.got.tgz:3763.got - 2010.06.03 19:52:08.
