data_PCOD9550235
_publ_section_title
;
Structure prediction by ZEFSAII (Michael W. Deem and Ramdas Pophale) SiO2 
 PCOD9550235
Probable space group: P 42 21 2
;
_chemical_formula_sum "Si O2"
_cell_formula_units_Z 58
_cell_length_a 17.269816
_cell_length_b 17.269816
_cell_length_c 9.849204
_cell_angle_alpha 90.000000
_cell_angle_beta 90.000000
_cell_angle_gamma 90.000000
_cell_volume 2937.491061
_symmetry_space_group_name_H-M "P 42 21 2"
_symmetry_group_IT_number 94
_symmetry_cell_setting 'tetragonal'
loop_
_space_group_symop_operation_xyz
x,y,z
1/2-y,1/2+x,1/2+z
-x,-y,z
1/2+y,1/2-x,1/2+z
1/2+x,1/2-y,1/2-z
1/2-x,1/2+y,1/2-z
y,x,-z
-y,-x,-z
loop_
_atom_site_type_symbol
_atom_site_label
_atom_site_fract_x
_atom_site_fract_y
_atom_site_fract_z
Si Si1 0.370330 0.815100 0.577009
Si Si2 0.766072 0.124391 0.924143
Si Si3 0.278136 0.686668 0.187152
Si Si4 0.000000 0.000000 0.500000
Si Si5 0.545009 0.760433 0.150590
Si Si6 0.168270 0.017473 0.394855
Si Si7 0.293304 0.965516 0.181254
Si Si8 0.390016 0.820941 0.263535
O O1 0.330710 0.744438 0.656662
O O2 0.312811 0.887245 0.588385
O O3 0.449627 0.828976 0.659990
O O4 0.390171 0.799639 0.421849
O O5 0.711603 0.197636 0.884001
O O6 0.781534 0.080210 0.783368
O O7 0.839806 0.160195 0.000000
O O8 0.726722 0.068782 0.033714
O O9 0.313845 0.608610 0.126197
O O10 0.335886 0.758731 0.186830
O O11 0.922952 0.997701 0.406986
O O12 0.474982 0.814053 0.201866
O O13 0.512540 0.703762 0.036388
O O14 0.216626 0.975235 0.274663
O O15 0.351753 0.904838 0.247856
#
# Coordination Sequence:
#
# PCOD9550235 Si02
#       8
#     8   8   8   2   8   8   8   8
#     4  10  23  43  61 103 128 172 215 272 329 399
#     4  11  22  39  65  98 123 167 216 271 319 389
#     4  10  23  41  68  89 129 169 230 260 327 390
#     4  12  28  40  64  94 136 168 216 266 334 366
#     4  11  24  41  69  95 133 170 216 269 334 398
#     4  11  25  44  63  96 130 172 218 274 322 399
#     4  11  23  42  67  95 135 163 214 272 328 392
#     4  12  21  41  69  95 129 174 213 276 326 392
#
# _framework density 19.744741000000001
#
# number of rings (size 3 to 8) (size 9 to 14) (size 15 to 20)
#    0.000    1.103    4.138    2.069    2.897    0.552 
#    0.000    1.379    0.000    0.828    0.000    0.000 
#    0.000    0.000    0.000    0.000    0.000    0.000 
#
# Total GULP energy -324131.087968 kJ/mol
# GULP energy per Si atom -5588.467034 kJ/mol
# Density = 1.969980 g / cm^3
# Si number density = 19.744741 Si / 1000 Ang^3
#
#
#
# Elastic Constant Matrix: (Units=GPa)
#
#
# Indices 1 2 3 4 5 6 
#
# 1 82.0036 25.7849 15.3738 0.0000 0.0000 0.0000
# 2 25.7849 82.0040 15.3739 0.0000 0.0000 0.0000
# 3 15.3738 15.3739 110.5385 0.0000 0.0000 0.0000
# 4 0.0000 0.0000 0.0000 28.7127 0.0000 0.0000
# 5 0.0000 0.0000 0.0000 0.0000 28.7127 0.0000
# 6 0.0000 0.0000 0.0000 0.0000 0.0000 16.4470
#
#
#
# Elastic Compliance Matrix: (Units=1/GPa)
#
#
# Indices 1 2 3 4 5 6 
#
# 1 0.013724 -0.004063 -0.001344 0.000000 0.000000 0.000000
# 2 -0.004063 0.013724 -0.001344 0.000000 0.000000 0.000000
# 3 -0.001344 -0.001344 0.009420 0.000000 0.000000 0.000000
# 4 0.000000 0.000000 0.000000 0.034828 0.000000 0.000000
# 5 0.000000 0.000000 0.000000 0.000000 0.034828 0.000000
# 6 0.000000 0.000000 0.000000 0.000000 0.000000 0.060801
#
#
# Mechanical properties :
#
#
# Convention : Reuss Voigt Hill
#
# Bulk Modulus (GPa) = 42.79490 43.06791 42.93141
# Shear Modulus (GPa) = 26.50889 29.30872 27.90881
#
# Velocity S-wave (km/s) = 3.66810 3.85695 3.76371
# Velocity P-wave (km/s) = 6.29770 6.45712 6.37791
#
# Compressibility (1/GPa) = 0.02336727
#
# Stress axis : x y z
#
# Youngs Moduli (GPa) = 72.86405 72.86443 106.15301
#
# Poissons Ratio (x) = 0.29608 0.14263
# Poissons Ratio (y) = 0.29608 0.14263
# Poissons Ratio (z) = 0.09790 0.09790
#
# Static dielectric constant tensor:
#      x y z
#    x 1.677540 0.000000 0.000000 
#    y 0.000000 1.677540 0.000000 
#    z 0.000000 0.000000 1.714120 
# 
# From -- ./inp_files/1742.got.cif
#   From: 2010.05.17/outbox.cif.g08.bks.cpg/sg94_1_cif.got.tgz:1742.got - 2010.06.03 19:43:16.
