data_PCOD9550508
_publ_section_title
;
Structure prediction by ZEFSAII (Michael W. Deem and Ramdas Pophale) SiO2 
 PCOD9550508
Probable space group: P 43 2 2
;
_chemical_formula_sum "Si O2"
_cell_formula_units_Z 60
_cell_length_a 18.721797
_cell_length_b 18.721797
_cell_length_c 8.603563
_cell_angle_alpha 90.000000
_cell_angle_beta 90.000000
_cell_angle_gamma 90.000000
_cell_volume 3015.597725
_symmetry_space_group_name_H-M "P 43 2 2"
_symmetry_group_IT_number 95
_symmetry_cell_setting 'tetragonal'
loop_
_space_group_symop_operation_xyz
x,y,z
-y,x,3/4+z
-x,-y,1/2+z
y,-x,1/4+z
x,-y,1/2-z
-x,y,-z
y,x,1/4-z
-y,-x,3/4-z
loop_
_atom_site_type_symbol
_atom_site_label
_atom_site_fract_x
_atom_site_fract_y
_atom_site_fract_z
Si Si1 0.492328 0.283481 0.184453
Si Si2 0.614701 0.805282 0.230772
Si Si3 0.785846 0.222512 0.561198
Si Si4 0.086063 0.174151 0.023388
Si Si5 0.057293 0.434979 0.365385
Si Si6 0.192650 0.374627 0.885799
Si Si7 0.559754 0.559754 0.625000
Si Si8 0.673676 0.069680 0.854896
O O1 0.572784 0.269674 0.248255
O O2 0.438067 0.238306 0.290642
O O3 0.456891 0.361610 0.188808
O O4 0.500000 0.265369 0.000000
O O5 0.693216 0.809854 0.311351
O O6 0.565702 0.863996 0.313382
O O7 0.615541 0.823469 0.047334
O O8 0.789349 0.210652 0.375000
O O9 0.818064 0.148787 0.639621
O O10 0.705342 0.226013 0.631283
O O11 0.106864 0.106864 0.125000
O O12 0.098477 0.246357 0.123359
O O13 0.000000 0.171272 0.000000
O O14 0.046553 0.500000 0.250000
O O15 0.050712 0.363666 0.264048
O O16 0.000000 0.437131 0.500000
O O17 0.125248 0.369770 0.000378
O O18 0.500000 0.548547 0.500000
O O19 0.678738 0.000000 0.750000
#
# Coordination Sequence:
#
# PCOD9550508 Si02
#       8
#     8   8   8   8   8   8   4   8
#     4  11  24  40  59  89 121 163 208 260 319 380
#     4  11  22  39  64  92 124 163 215 265 328 394
#     4   9  21  40  64  97 129 165 216 270 325 387
#     4  10  21  40  65  94 129 168 211 261 316 384
#     4  12  25  39  57  87 126 169 212 264 322 393
#     4  10  21  38  62  93 124 164 211 270 324 388
#     4  10  26  46  62  86 118 158 206 262 318 382
#     4  10  20  38  61  88 123 165 208 259 318 379
#
# _framework density 19.896553000000001
#
# number of rings (size 3 to 8) (size 9 to 14) (size 15 to 20)
#    0.000    1.600    0.000    4.400    3.733    4.267 
#    2.400    1.333    0.000    0.000    0.000    0.000 
#    0.000    0.000    0.000    0.000    0.000    0.000 
#
# Total GULP energy -334069.407904 kJ/mol
# GULP energy per Si atom -5567.823465 kJ/mol
# Density = 1.985127 g / cm^3
# Si number density = 19.896553 Si / 1000 Ang^3
#
#
#
# Elastic Constant Matrix: (Units=GPa)
#
#
# Indices 1 2 3 4 5 6 
#
# 1 104.5037 53.2007 49.2709 0.0000 0.0000 0.0000
# 2 53.2007 104.5038 49.2708 0.0000 0.0000 0.0000
# 3 49.2709 49.2708 89.6445 0.0000 0.0000 0.0000
# 4 0.0000 0.0000 0.0000 32.7011 0.0000 0.0000
# 5 0.0000 0.0000 0.0000 0.0000 32.7011 0.0000
# 6 0.0000 0.0000 0.0000 0.0000 0.0000 19.5299
#
#
#
# Elastic Compliance Matrix: (Units=1/GPa)
#
#
# Indices 1 2 3 4 5 6 
#
# 1 0.014575 -0.004917 -0.005308 0.000000 0.000000 0.000000
# 2 -0.004917 0.014575 -0.005308 0.000000 0.000000 0.000000
# 3 -0.005308 -0.005308 0.016990 0.000000 0.000000 0.000000
# 4 0.000000 0.000000 0.000000 0.030580 0.000000 0.000000
# 5 0.000000 0.000000 0.000000 0.000000 0.030580 0.000000
# 6 0.000000 0.000000 0.000000 0.000000 0.000000 0.051204
#
#
# Mechanical properties :
#
#
# Convention : Reuss Voigt Hill
#
# Bulk Modulus (GPa) = 66.34336 66.90408 66.62372
# Shear Modulus (GPa) = 25.69442 26.78040 26.23741
#
# Velocity S-wave (km/s) = 3.59750 3.67274 3.63532
# Velocity P-wave (km/s) = 7.11847 7.18918 7.15391
#
# Compressibility (1/GPa) = 0.01507310
#
# Stress axis : x y z
#
# Youngs Moduli (GPa) = 68.61105 68.61122 58.85754
#
# Poissons Ratio (x) = 0.33737 0.31243
# Poissons Ratio (y) = 0.33737 0.31242
# Poissons Ratio (z) = 0.36420 0.36420
#
# Static dielectric constant tensor:
#      x y z
#    x 1.775530 0.000000 0.000000 
#    y 0.000000 1.775530 0.000000 
#    z 0.000000 0.000000 1.685180 
# 
# From -- ./inp_files/2810.got.cif
#   From: 2010.05.17/outbox.cif.g08.bks.cpg/sg95_2_cif.got.tgz:2810.got - 2010.06.03 19:46:49.
