data_PCOD9550243
_publ_section_title
;
Structure prediction by ZEFSAII (Michael W. Deem and Ramdas Pophale) SiO2 
 PCOD9550243
Probable space group: P 42 21 2
;
_chemical_formula_sum "Si O2"
_cell_formula_units_Z 48
_cell_length_a 8.238448
_cell_length_b 8.238448
_cell_length_c 31.906624
_cell_angle_alpha 90.000000
_cell_angle_beta 90.000000
_cell_angle_gamma 90.000000
_cell_volume 2165.567196
_symmetry_space_group_name_H-M "P 42 21 2"
_symmetry_group_IT_number 94
_symmetry_cell_setting 'tetragonal'
loop_
_space_group_symop_operation_xyz
x,y,z
1/2-y,1/2+x,1/2+z
-x,-y,z
1/2+y,1/2-x,1/2+z
1/2+x,1/2-y,1/2-z
1/2-x,1/2+y,1/2-z
y,x,-z
-y,-x,-z
loop_
_atom_site_type_symbol
_atom_site_label
_atom_site_fract_x
_atom_site_fract_y
_atom_site_fract_z
Si Si1 0.305103 0.305103 0.000000
Si Si2 0.000000 0.000000 0.144238
Si Si3 0.086402 0.821546 0.721922
Si Si4 0.119031 0.367094 0.485077
Si Si5 0.373695 0.764963 0.579440
Si Si6 0.235422 0.301773 0.692518
Si Si7 0.974712 0.308401 0.346580
O O1 0.274732 0.486662 0.984573
O O2 0.207767 0.238467 0.040875
O O3 0.862827 0.931980 0.113498
O O4 0.060144 0.846723 0.171777
O O5 0.168715 0.761523 0.764531
O O6 0.224164 0.857969 0.687413
O O7 0.952360 0.692995 0.706216
O O8 0.000000 0.000000 0.728653
O O9 0.285458 0.285458 0.500000
O O10 0.167451 0.466100 0.443666
O O11 0.000000 0.500000 0.508134
O O12 0.286563 0.900723 0.607612
O O13 0.235297 0.151946 0.660199
O O14 0.000000 0.500000 0.339151
#
# Coordination Sequence:
#
# PCOD9550243 Si02
#       7
#     4   4   8   8   8   8   8
#     4  10  23  45  72 100 141 190 243 302 379 462
#     4  12  26  41  72 102 148 192 258 317 376 460
#     4  10  23  42  70 108 147 200 253 305 377 455
#     4  10  23  45  72 106 141 188 245 299 378 452
#     4  11  26  45  70 105 145 192 245 311 385 444
#     4  11  23  43  70 106 146 197 251 311 379 453
#     4  11  21  43  69  98 145 193 244 308 380 448
#
# _framework density 22.165091
#
# number of rings (size 3 to 8) (size 9 to 14) (size 15 to 20)
#    0.000    1.333    2.500    2.750    4.667    0.000 
#    3.000    7.500    0.000    0.000    0.000    0.000 
#    0.000    0.000    0.000    0.000    0.000    0.000 
#
# Total GULP energy -267481.062686 kJ/mol
# GULP energy per Si atom -5572.522139 kJ/mol
# Density = 2.211464 g / cm^3
# Si number density = 22.165091 Si / 1000 Ang^3
#
#
#
# Elastic Constant Matrix: (Units=GPa)
#
#
# Indices 1 2 3 4 5 6 
#
# 1 75.9199 52.5232 56.2821 0.0000 0.0000 0.0000
# 2 52.5232 75.9199 56.2821 0.0000 0.0000 0.0000
# 3 56.2821 56.2821 151.9561 0.0000 0.0000 0.0000
# 4 0.0000 0.0000 0.0000 26.9953 0.0000 0.0000
# 5 0.0000 0.0000 0.0000 0.0000 26.9953 0.0000
# 6 0.0000 0.0000 0.0000 0.0000 0.0000 48.1539
#
#
#
# Elastic Compliance Matrix: (Units=1/GPa)
#
#
# Indices 1 2 3 4 5 6 
#
# 1 0.027134 -0.015607 -0.004270 0.000000 0.000000 0.000000
# 2 -0.015607 0.027134 -0.004270 0.000000 0.000000 0.000000
# 3 -0.004270 -0.004270 0.009744 0.000000 0.000000 0.000000
# 4 0.000000 0.000000 0.000000 0.037044 0.000000 0.000000
# 5 0.000000 0.000000 0.000000 0.000000 0.037044 0.000000
# 6 0.000000 0.000000 0.000000 0.000000 0.000000 0.020767
#
#
# Mechanical properties :
#
#
# Convention : Reuss Voigt Hill
#
# Bulk Modulus (GPa) = 63.61318 70.44119 67.02719
# Shear Modulus (GPa) = 23.54078 29.67613 26.60846
#
# Velocity S-wave (km/s) = 3.26247 3.66302 3.46853
# Velocity P-wave (km/s) = 6.55390 7.05263 6.80783
#
# Compressibility (1/GPa) = 0.01572001
#
# Stress axis : x y z
#
# Youngs Moduli (GPa) = 36.85396 36.85396 102.63188
#
# Poissons Ratio (x) = 0.57518 0.43819
# Poissons Ratio (y) = 0.57518 0.43819
# Poissons Ratio (z) = 0.15735 0.15735
#
# Static dielectric constant tensor:
#      x y z
#    x 2.005430 0.000000 0.000000 
#    y 0.000000 2.005430 0.000000 
#    z 0.000000 0.000000 1.800150 
# 
# From -- ./inp_files/5648.got.cif
#   From: 2010.05.17/outbox.cif.g08.bks.cpg/sg94_3_cif.got.tgz:5648.got - 2010.06.03 19:43:16.
