data_PCOD9550487
_publ_section_title
;
Structure prediction by ZEFSAII (Michael W. Deem and Ramdas Pophale) SiO2 
 PCOD9550487
Probable space group: P 43 2 2
;
_chemical_formula_sum "Si O2"
_cell_formula_units_Z 60
_cell_length_a 11.275163
_cell_length_b 11.275163
_cell_length_c 20.300342
_cell_angle_alpha 90.000000
_cell_angle_beta 90.000000
_cell_angle_gamma 90.000000
_cell_volume 2580.768282
_symmetry_space_group_name_H-M "P 43 2 2"
_symmetry_group_IT_number 95
_symmetry_cell_setting 'tetragonal'
loop_
_space_group_symop_operation_xyz
x,y,z
-y,x,3/4+z
-x,-y,1/2+z
y,-x,1/4+z
x,-y,1/2-z
-x,y,-z
y,x,1/4-z
-y,-x,3/4-z
loop_
_atom_site_type_symbol
_atom_site_label
_atom_site_fract_x
_atom_site_fract_y
_atom_site_fract_z
Si Si1 0.885448 0.427376 0.395227
Si Si2 0.501013 0.657192 0.570065
Si Si3 0.447026 0.679040 0.073013
Si Si4 0.688344 0.166078 0.912845
Si Si5 0.756297 0.000000 0.250000
Si Si6 0.901044 0.353540 0.693325
Si Si7 0.336942 0.009753 0.320567
Si Si8 0.824723 0.203557 0.161305
O O1 0.756629 0.453876 0.363378
O O2 0.906214 0.549785 0.434913
O O3 0.927889 0.326042 0.446760
O O4 0.978186 0.411293 0.334206
O O5 0.500000 0.590669 0.500000
O O6 0.432449 0.595656 0.631104
O O7 0.635577 0.705158 0.570108
O O8 0.436000 0.785000 0.562462
O O9 0.323781 0.755175 0.067093
O O10 0.500000 0.660232 0.000000
O O11 0.811147 0.188854 0.875000
O O12 0.613320 0.108963 0.853304
O O13 0.683638 0.094028 0.980494
O O14 0.832246 0.104585 0.217091
O O15 0.864306 0.246554 0.646281
O O16 0.250754 0.059229 0.375786
O O17 0.279590 0.000000 0.250000
#
# Coordination Sequence:
#
# PCOD9550487 Si02
#       8
#     8   8   8   8   4   8   8   8
#     4  10  20  35  67  99 128 179 223 278 334 415
#     4   9  19  39  61  90 131 178 224 271 333 410
#     4  10  22  38  65 102 142 176 228 287 343 419
#     4  11  22  36  63  91 126 171 219 276 344 401
#     4  10  20  44  68  92 136 184 236 272 342 430
#     4   9  18  37  62  94 126 166 223 273 328 407
#     4  11  21  35  63 100 131 163 220 288 343 396
#     4   9  21  39  66  98 133 173 226 281 337 411
#
# _framework density 23.248889999999999
#
# number of rings (size 3 to 8) (size 9 to 14) (size 15 to 20)
#    0.000    2.133    2.000    0.800    3.733    1.067 
#    0.000    4.000    4.400    3.200    0.000    0.000 
#    0.000    0.000    0.000    0.000    0.000    0.000 
#
# Total GULP energy -334028.891608 kJ/mol
# GULP energy per Si atom -5567.148193 kJ/mol
# Density = 2.319597 g / cm^3
# Si number density = 23.248890 Si / 1000 Ang^3
#
#
#
# Elastic Constant Matrix: (Units=GPa)
#
#
# Indices 1 2 3 4 5 6 
#
# 1 66.6428 37.6234 47.0741 0.0000 0.0000 0.0000
# 2 37.6234 66.6429 47.0746 0.0000 0.0000 0.0000
# 3 47.0741 47.0746 181.8226 0.0000 0.0000 0.0000
# 4 0.0000 0.0000 0.0000 30.4552 0.0000 0.0000
# 5 0.0000 0.0000 0.0000 0.0000 30.4549 0.0000
# 6 0.0000 0.0000 0.0000 0.0000 0.0000 24.8817
#
#
#
# Elastic Compliance Matrix: (Units=1/GPa)
#
#
# Indices 1 2 3 4 5 6 
#
# 1 0.023488 -0.010971 -0.003241 0.000000 0.000000 0.000000
# 2 -0.010971 0.023488 -0.003241 0.000000 0.000000 0.000000
# 3 -0.003241 -0.003241 0.007178 0.000000 0.000000 0.000000
# 4 0.000000 0.000000 0.000000 0.032835 0.000000 0.000000
# 5 0.000000 0.000000 0.000000 0.000000 0.032835 0.000000
# 6 0.000000 0.000000 0.000000 0.000000 0.000000 0.040190
#
#
# Mechanical properties :
#
#
# Convention : Reuss Voigt Hill
#
# Bulk Modulus (GPa) = 51.95005 64.29471 58.12238
# Shear Modulus (GPa) = 24.83398 29.38079 27.10738
#
# Velocity S-wave (km/s) = 3.27185 3.55878 3.41833
# Velocity P-wave (km/s) = 6.05533 6.67844 6.37450
#
# Compressibility (1/GPa) = 0.01924926
#
# Stress axis : x y z
#
# Youngs Moduli (GPa) = 42.57434 42.57425 139.31612
#
# Poissons Ratio (x) = 0.46709 0.45148
# Poissons Ratio (y) = 0.46709 0.45149
# Poissons Ratio (z) = 0.13797 0.13797
#
# Static dielectric constant tensor:
#      x y z
#    x 1.977120 0.000000 0.000000 
#    y 0.000000 1.977120 0.000000 
#    z 0.000000 0.000000 1.977230 
# 
# From -- ./inp_files/6516.got.cif
#   From: 2010.05.17/outbox.cif.g08.bks.cpg/sg95_4_cif.got.tgz:6516.got - 2010.06.03 19:46:49.
