data_PCOD9550328
_publ_section_title
;
Structure prediction by ZEFSAII (Michael W. Deem and Ramdas Pophale) SiO2 
 PCOD9550328
Probable space group: P 42 21 2
;
_chemical_formula_sum "Si O2"
_cell_formula_units_Z 48
_cell_length_a 9.435532
_cell_length_b 9.435532
_cell_length_c 27.104457
_cell_angle_alpha 90.000000
_cell_angle_beta 90.000000
_cell_angle_gamma 90.000000
_cell_volume 2413.089861
_symmetry_space_group_name_H-M "P 42 21 2"
_symmetry_group_IT_number 94
_symmetry_cell_setting 'tetragonal'
loop_
_space_group_symop_operation_xyz
x,y,z
1/2-y,1/2+x,1/2+z
-x,-y,z
1/2+y,1/2-x,1/2+z
1/2+x,1/2-y,1/2-z
1/2-x,1/2+y,1/2-z
y,x,-z
-y,-x,-z
loop_
_atom_site_type_symbol
_atom_site_label
_atom_site_fract_x
_atom_site_fract_y
_atom_site_fract_z
Si Si1 0.582316 0.351628 0.325421
Si Si2 0.132245 0.412779 0.849868
Si Si3 0.115118 0.601551 0.156757
Si Si4 0.735693 0.486204 0.058622
Si Si5 0.413721 0.645358 0.212327
Si Si6 0.007588 0.759190 0.448460
O O1 0.500000 0.500000 0.326240
O O2 0.743028 0.368542 0.344796
O O3 0.476758 0.242683 0.352497
O O4 0.598307 0.302011 0.268462
O O5 0.261512 0.484180 0.821351
O O6 0.149011 0.456912 0.906609
O O7 0.000000 0.500000 0.828993
O O8 0.165418 0.525463 0.106133
O O9 0.257528 0.630156 0.188198
O O10 0.000000 0.500000 0.182555
O O11 0.628349 0.619566 0.058712
O O12 0.637989 0.345273 0.060168
O O13 0.800473 0.499209 0.003891
O O14 0.500000 0.500000 0.214939
#
# Coordination Sequence:
#
# PCOD9550328 Si02
#       6
#     8   8   8   8   8   8
#     4  11  26  42  59  91 132 169 210 267 328 391
#     4  12  24  40  64  90 123 169 215 261 327 397
#     4  12  23  37  64  96 125 164 212 274 330 380
#     4   9  18  35  64  93 124 157 210 265 311 373
#     4  11  23  42  64  87 123 170 221 264 315 390
#     4   9  18  36  62  95 122 159 210 262 309 377
#
# _framework density 19.891508000000002
#
# number of rings (size 3 to 8) (size 9 to 14) (size 15 to 20)
#    0.000    1.333    1.667    6.000    0.000    6.000 
#    0.000    0.000    0.000    0.000    0.000    0.000 
#    0.000    0.000    0.000    0.000    0.000    0.000 
#
# Total GULP energy -267813.415536 kJ/mol
# GULP energy per Si atom -5579.446157 kJ/mol
# Density = 1.984623 g / cm^3
# Si number density = 19.891508 Si / 1000 Ang^3
#
#
#
# Elastic Constant Matrix: (Units=GPa)
#
#
# Indices 1 2 3 4 5 6 
#
# 1 80.8444 51.2124 30.6922 0.0000 0.0000 0.0000
# 2 51.2124 80.8444 30.6922 0.0000 0.0000 0.0000
# 3 30.6922 30.6922 109.1127 0.0000 0.0000 0.0000
# 4 0.0000 0.0000 0.0000 19.0701 0.0000 0.0000
# 5 0.0000 0.0000 0.0000 0.0000 19.0701 0.0000
# 6 0.0000 0.0000 0.0000 0.0000 0.0000 30.3128
#
#
#
# Elastic Compliance Matrix: (Units=1/GPa)
#
#
# Indices 1 2 3 4 5 6 
#
# 1 0.021229 -0.012518 -0.002450 0.000000 0.000000 0.000000
# 2 -0.012518 0.021229 -0.002450 0.000000 0.000000 0.000000
# 3 -0.002450 -0.002450 0.010543 0.000000 0.000000 0.000000
# 4 0.000000 0.000000 0.000000 0.052438 0.000000 0.000000
# 5 0.000000 0.000000 0.000000 0.000000 0.052438 0.000000
# 6 0.000000 0.000000 0.000000 0.000000 0.000000 0.032989
#
#
# Mechanical properties :
#
#
# Convention : Reuss Voigt Hill
#
# Bulk Modulus (GPa) = 55.05193 55.11057 55.08125
# Shear Modulus (GPa) = 21.57403 24.23759 22.90581
#
# Velocity S-wave (km/s) = 3.29688 3.49447 3.39711
# Velocity P-wave (km/s) = 6.49836 6.63683 6.56796
#
# Compressibility (1/GPa) = 0.01816467
#
# Stress axis : x y z
#
# Youngs Moduli (GPa) = 47.10445 47.10445 94.84590
#
# Poissons Ratio (x) = 0.58965 0.23242
# Poissons Ratio (y) = 0.58965 0.23242
# Poissons Ratio (z) = 0.11543 0.11543
#
# Static dielectric constant tensor:
#      x y z
#    x 1.724040 0.000000 0.000000 
#    y 0.000000 1.724040 0.000000 
#    z 0.000000 0.000000 1.729450 
# 
# From -- ./inp_files/5597.got.cif
#   From: 2010.05.17/outbox.cif.g08.bks.cpg/sg94_3_cif.got.tgz:5597.got - 2010.06.03 19:43:16.
