data_PCOD9550995
_publ_section_title
;
Structure prediction by ZEFSAII (Michael W. Deem and Ramdas Pophale) SiO2 
 PCOD9550995
Probable space group: P 43 21 2
;
_chemical_formula_sum "Si O2"
_cell_formula_units_Z 40
_cell_length_a 7.931150
_cell_length_b 7.931150
_cell_length_c 24.865432
_cell_angle_alpha 90.000000
_cell_angle_beta 90.000000
_cell_angle_gamma 90.000000
_cell_volume 1564.113758
_symmetry_space_group_name_H-M "P 43 21 2"
_symmetry_group_IT_number 96
_symmetry_cell_setting 'tetragonal'
loop_
_space_group_symop_operation_xyz
x,y,z
1/2-y,1/2+x,3/4+z
-x,-y,1/2+z
1/2+y,1/2-x,1/4+z
1/2+x,1/2-y,1/4-z
1/2-x,1/2+y,3/4-z
y,x,-z
-y,-x,1/2-z
loop_
_atom_site_type_symbol
_atom_site_label
_atom_site_fract_x
_atom_site_fract_y
_atom_site_fract_z
Si Si1 0.397524 0.904742 0.354258
Si Si2 0.796779 0.100256 0.569412
Si Si3 0.747885 0.747885 0.000000
Si Si4 0.252790 0.699180 0.853947
Si Si5 0.236718 0.642444 0.526950
Si Si6 0.120352 0.879649 0.750000
O O1 0.250929 0.879287 0.397729
O O2 0.363478 0.773391 0.304273
O O3 0.575617 0.884207 0.383030
O O4 0.395165 0.096965 0.334161
O O5 0.773403 0.123142 0.506020
O O6 0.885978 0.927605 0.586152
O O7 0.560115 0.784783 0.976084
O O8 0.305308 0.769708 0.911732
O O9 0.211338 0.819075 0.803820
O O10 0.421656 0.657423 0.499358
#
# Coordination Sequence:
#
# PCOD9550995 Si02
#       6
#     8   8   4   8   8   4
#     4  11  24  45  74 110 151 197 250 313 377 457
#     4  11  25  45  74 106 150 196 250 310 383 452
#     4   9  20  44  74 105 146 206 255 310 397 460
#     4  12  25  44  75 112 148 197 258 317 383 460
#     4  10  22  45  71 105 148 202 254 319 388 459
#     4  11  24  44  70 105 148 198 259 318 381 466
#
# _framework density 25.573585999999999
#
# number of rings (size 3 to 8) (size 9 to 14) (size 15 to 20)
#    0.000    1.200    4.000    1.200    0.000    6.400 
#    0.000    0.000    0.000    0.000    0.000    0.000 
#    0.000    0.000    0.000    0.000    0.000    0.000 
#
# Total GULP energy -223617.555779 kJ/mol
# GULP energy per Si atom -5590.438894 kJ/mol
# Density = 2.551538 g / cm^3
# Si number density = 25.573586 Si / 1000 Ang^3
#
#
#
# Elastic Constant Matrix: (Units=GPa)
#
#
# Indices 1 2 3 4 5 6 
#
# 1 142.3714 12.5771 46.2633 0.0000 0.0000 0.0000
# 2 12.5771 142.3712 46.2619 0.0000 0.0000 0.0000
# 3 46.2633 46.2619 121.5411 0.0000 0.0000 0.0000
# 4 0.0000 0.0000 0.0000 31.8580 0.0000 0.0000
# 5 0.0000 0.0000 0.0000 0.0000 31.8580 0.0000
# 6 0.0000 0.0000 0.0000 0.0000 0.0000 23.0864
#
#
#
# Elastic Compliance Matrix: (Units=1/GPa)
#
#
# Indices 1 2 3 4 5 6 
#
# 1 0.008028 0.000324 -0.003179 0.000000 0.000000 0.000000
# 2 0.000324 0.008028 -0.003179 0.000000 0.000000 0.000000
# 3 -0.003179 -0.003179 0.010648 0.000000 0.000000 0.000000
# 4 0.000000 0.000000 0.000000 0.031389 0.000000 0.000000
# 5 0.000000 0.000000 0.000000 0.000000 0.031389 0.000000
# 6 0.000000 0.000000 0.000000 0.000000 0.000000 0.043315
#
#
# Mechanical properties :
#
#
# Convention : Reuss Voigt Hill
#
# Bulk Modulus (GPa) = 68.32627 68.49870 68.41249
# Shear Modulus (GPa) = 33.38991 37.43924 35.41458
#
# Velocity S-wave (km/s) = 3.61729 3.83035 3.72534
# Velocity P-wave (km/s) = 6.64995 6.81214 6.73153
#
# Compressibility (1/GPa) = 0.01463566
#
# Stress axis : x y z
#
# Youngs Moduli (GPa) = 124.55881 124.55969 93.91605
#
# Poissons Ratio (x) = -0.04033 0.29857
# Poissons Ratio (y) = -0.04033 0.29856
# Poissons Ratio (z) = 0.39599 0.39598
#
# Static dielectric constant tensor:
#      x y z
#    x 2.033520 0.000000 0.000000 
#    y 0.000000 2.033520 0.000000 
#    z 0.000000 0.000000 2.062920 
# 
# From -- ./inp_files/3867.got.cif
#   From: 2010.05.17/outbox.cif.g08.bks.cpg/sg96_2_cif.got.tgz:3867.got - 2010.06.03 19:52:08.
