data_PCOD9550024
_publ_section_title
;
Structure prediction by ZEFSAII (Michael W. Deem and Ramdas Pophale) SiO2 
 PCOD9550024
Probable space group: P 42 21 2
;
_chemical_formula_sum "Si O2"
_cell_formula_units_Z 32
_cell_length_a 9.064973
_cell_length_b 9.064973
_cell_length_c 14.685923
_cell_angle_alpha 90.000000
_cell_angle_beta 90.000000
_cell_angle_gamma 90.000000
_cell_volume 1206.797152
_symmetry_space_group_name_H-M "P 42 21 2"
_symmetry_group_IT_number 94
_symmetry_cell_setting 'tetragonal'
loop_
_space_group_symop_operation_xyz
x,y,z
1/2-y,1/2+x,1/2+z
-x,-y,z
1/2+y,1/2-x,1/2+z
1/2+x,1/2-y,1/2-z
1/2-x,1/2+y,1/2-z
y,x,-z
-y,-x,-z
loop_
_atom_site_type_symbol
_atom_site_label
_atom_site_fract_x
_atom_site_fract_y
_atom_site_fract_z
Si Si1 0.647055 0.288290 0.192651
Si Si2 0.587169 0.843370 0.062584
Si Si3 0.164711 0.434985 0.147215
Si Si4 0.149680 0.952821 0.099621
O O1 0.495814 0.263382 0.134481
O O2 0.719415 0.449700 0.191138
O O3 0.641329 0.205593 0.288648
O O4 0.765866 0.184567 0.141198
O O5 0.789449 0.584278 0.041772
O O6 0.500000 0.000000 0.065654
O O7 0.746339 0.906077 0.088229
O O8 0.000000 0.500000 0.143980
O O9 0.103303 0.896698 0.000000
O O10 0.000000 0.000000 0.149289
#
# Coordination Sequence:
#
# PCOD9550024 Si02
#       4
#     8   8   8   8
#     4  11  23  41  67 101 141 191 247 316 392 470
#     4   9  19  40  65  99 145 187 238 308 385 452
#     4  11  23  41  68 101 141 190 247 313 388 469
#     4  10  20  36  64 100 138 182 237 299 365 452
#
# _framework density 26.516468
#
# number of rings (size 3 to 8) (size 9 to 14) (size 15 to 20)
#    0.000    1.750    0.000    7.500    0.000    6.000 
#    0.000    0.000    0.000    0.000    0.000   42.000 
#    0.000    0.000    0.000    0.000    0.000    0.000 
#
# Total GULP energy -179451.933186 kJ/mol
# GULP energy per Si atom -5607.872912 kJ/mol
# Density = 2.645612 g / cm^3
# Si number density = 26.516468 Si / 1000 Ang^3
#
#
#
# Elastic Constant Matrix: (Units=GPa)
#
#
# Indices 1 2 3 4 5 6 
#
# 1 141.1341 70.5369 74.2937 0.0000 0.0000 0.0000
# 2 70.5369 141.1341 74.2936 0.0000 0.0000 0.0000
# 3 74.2937 74.2936 166.0346 0.0000 0.0000 0.0000
# 4 0.0000 0.0000 0.0000 45.7510 0.0000 0.0000
# 5 0.0000 0.0000 0.0000 0.0000 45.7510 0.0000
# 6 0.0000 0.0000 0.0000 0.0000 0.0000 45.6373
#
#
#
# Elastic Compliance Matrix: (Units=1/GPa)
#
#
# Indices 1 2 3 4 5 6 
#
# 1 0.010526 -0.003639 -0.003082 0.000000 0.000000 0.000000
# 2 -0.003639 0.010526 -0.003082 0.000000 0.000000 0.000000
# 3 -0.003082 -0.003082 0.008781 0.000000 0.000000 0.000000
# 4 0.000000 0.000000 0.000000 0.021857 0.000000 0.000000
# 5 0.000000 0.000000 0.000000 0.000000 0.021857 0.000000
# 6 0.000000 0.000000 0.000000 0.000000 0.000000 0.021912
#
#
# Mechanical properties :
#
#
# Convention : Reuss Voigt Hill
#
# Bulk Modulus (GPa) = 97.76552 98.50568 98.13560
# Shear Modulus (GPa) = 42.20297 42.70642 42.45470
#
# Velocity S-wave (km/s) = 3.99378 4.01753 4.00568
# Velocity P-wave (km/s) = 7.63000 7.66487 7.64746
#
# Compressibility (1/GPa) = 0.01022855
#
# Stress axis : x y z
#
# Youngs Moduli (GPa) = 94.99977 94.99990 113.88239
#
# Poissons Ratio (x) = 0.34566 0.35099
# Poissons Ratio (y) = 0.34566 0.35099
# Poissons Ratio (z) = 0.29279 0.29279
#
# Static dielectric constant tensor:
#      x y z
#    x 2.092520 0.000000 0.000000 
#    y 0.000000 2.092520 0.000000 
#    z 0.000000 0.000000 2.075940 
# 
# From -- ./inp_files/4413.got.cif
#   From: 2010.05.17/outbox.cif.g08.bks.cpg/sg94_3_cif.got.tgz:4413.got - 2010.06.03 19:43:16.
