data_PCOD9550346
_publ_section_title
;
Structure prediction by ZEFSAII (Michael W. Deem and Ramdas Pophale) SiO2 
 PCOD9550346
Probable space group: P 42 21 2
;
_chemical_formula_sum "Si O2"
_cell_formula_units_Z 40
_cell_length_a 8.615556
_cell_length_b 8.615556
_cell_length_c 21.677234
_cell_angle_alpha 90.000000
_cell_angle_beta 90.000000
_cell_angle_gamma 90.000000
_cell_volume 1609.053502
_symmetry_space_group_name_H-M "P 42 21 2"
_symmetry_group_IT_number 94
_symmetry_cell_setting 'tetragonal'
loop_
_space_group_symop_operation_xyz
x,y,z
1/2-y,1/2+x,1/2+z
-x,-y,z
1/2+y,1/2-x,1/2+z
1/2+x,1/2-y,1/2-z
1/2-x,1/2+y,1/2-z
y,x,-z
-y,-x,-z
loop_
_atom_site_type_symbol
_atom_site_label
_atom_site_fract_x
_atom_site_fract_y
_atom_site_fract_z
Si Si1 0.652281 0.593990 0.178318
Si Si2 0.324738 0.960309 0.140936
Si Si3 0.613359 0.275339 0.382490
Si Si4 0.825874 0.569498 0.504681
Si Si5 0.807671 0.656529 0.706448
O O1 0.500000 0.500000 0.162429
O O2 0.733083 0.668256 0.118422
O O3 0.770786 0.475999 0.211213
O O4 0.623296 0.725381 0.229147
O O5 0.175203 0.070590 0.151543
O O6 0.500000 0.000000 0.160750
O O7 0.279927 0.795431 0.168276
O O8 0.324599 0.972708 0.066796
O O9 0.525352 0.283368 0.447483
O O10 0.493539 0.196008 0.336086
O O11 0.745930 0.745930 0.500000
O O12 0.000000 0.500000 0.524724
#
# Coordination Sequence:
#
# PCOD9550346 Si02
#       5
#     8   8   8   8   8
#     4  12  26  43  67 101 145 190 242 309 379 451
#     4  11  24  42  70 102 140 184 240 304 367 444
#     4  12  25  45  72 105 143 193 248 307 375 454
#     4  11  24  45  77 113 151 196 251 315 384 455
#     4  12  24  43  69  99 138 188 245 301 371 454
#
# _framework density 24.859335999999999
#
# number of rings (size 3 to 8) (size 9 to 14) (size 15 to 20)
#    0.000    0.400    2.000    7.800    0.000    2.400 
#    0.000    0.000    0.000    0.000    0.000    0.000 
#    0.000    0.000    0.000    0.000    0.000    0.000 
#
# Total GULP energy -223411.132810 kJ/mol
# GULP energy per Si atom -5585.278320 kJ/mol
# Density = 2.480275 g / cm^3
# Si number density = 24.859336 Si / 1000 Ang^3
#
#
#
# Elastic Constant Matrix: (Units=GPa)
#
#
# Indices 1 2 3 4 5 6 
#
# 1 112.5846 44.5216 21.9670 0.0000 0.0000 0.0000
# 2 44.5216 112.5846 21.9670 0.0000 0.0000 0.0000
# 3 21.9670 21.9670 88.2343 0.0000 0.0000 0.0000
# 4 0.0000 0.0000 0.0000 27.2265 0.0000 0.0000
# 5 0.0000 0.0000 0.0000 0.0000 27.2265 0.0000
# 6 0.0000 0.0000 0.0000 0.0000 0.0000 60.9685
#
#
#
# Elastic Compliance Matrix: (Units=1/GPa)
#
#
# Indices 1 2 3 4 5 6 
#
# 1 0.010767 -0.003925 -0.001703 0.000000 0.000000 0.000000
# 2 -0.003925 0.010767 -0.001703 0.000000 0.000000 0.000000
# 3 -0.001703 -0.001703 0.012182 0.000000 0.000000 0.000000
# 4 0.000000 0.000000 0.000000 0.036729 0.000000 0.000000
# 5 0.000000 0.000000 0.000000 0.000000 0.036729 0.000000
# 6 0.000000 0.000000 0.000000 0.000000 0.000000 0.016402
#
#
# Mechanical properties :
#
#
# Convention : Reuss Voigt Hill
#
# Bulk Modulus (GPa) = 52.48965 54.47943 53.48454
# Shear Modulus (GPa) = 34.58068 38.08081 36.33074
#
# Velocity S-wave (km/s) = 3.73373 3.91813 3.82704
# Velocity P-wave (km/s) = 6.30461 6.51396 6.41014
#
# Compressibility (1/GPa) = 0.01905138
#
# Stress axis : x y z
#
# Youngs Moduli (GPa) = 92.87761 92.87761 82.09132
#
# Poissons Ratio (x) = 0.36458 0.13982
# Poissons Ratio (y) = 0.36458 0.13982
# Poissons Ratio (z) = 0.15819 0.15819
#
# Static dielectric constant tensor:
#      x y z
#    x 2.079380 0.000000 0.000000 
#    y 0.000000 2.079380 0.000000 
#    z 0.000000 0.000000 1.903460 
# 
# From -- ./inp_files/4912.got.cif
#   From: 2010.05.17/outbox.cif.g08.bks.cpg/sg94_3_cif.got.tgz:4912.got - 2010.06.03 19:43:16.
