data_PCOD9550737
_publ_section_title
;
Structure prediction by ZEFSAII (Michael W. Deem and Ramdas Pophale) SiO2 
 PCOD9550737
Probable space group: P 43 21 2
;
_chemical_formula_sum "Si O2"
_cell_formula_units_Z 40
_cell_length_a 7.447239
_cell_length_b 7.447239
_cell_length_c 36.789548
_cell_angle_alpha 90.000000
_cell_angle_beta 90.000000
_cell_angle_gamma 90.000000
_cell_volume 2040.398687
_symmetry_space_group_name_H-M "P 43 21 2"
_symmetry_group_IT_number 96
_symmetry_cell_setting 'tetragonal'
loop_
_space_group_symop_operation_xyz
x,y,z
1/2-y,1/2+x,3/4+z
-x,-y,1/2+z
1/2+y,1/2-x,1/4+z
1/2+x,1/2-y,1/4-z
1/2-x,1/2+y,3/4-z
y,x,-z
-y,-x,1/2-z
loop_
_atom_site_type_symbol
_atom_site_label
_atom_site_fract_x
_atom_site_fract_y
_atom_site_fract_z
Si Si1 0.880227 0.889135 0.960108
Si Si2 0.553989 0.938909 0.167935
Si Si3 0.584450 0.249277 0.365477
Si Si4 0.334630 0.703273 0.709401
Si Si5 0.172973 0.989059 0.612653
O O1 0.720752 0.009852 0.944767
O O2 0.062319 0.003570 0.963653
O O3 0.928349 0.765105 0.925748
O O4 0.824631 0.824631 0.000000
O O5 0.733585 0.904687 0.145090
O O6 0.393413 0.972335 0.138882
O O7 0.587162 0.117690 0.191311
O O8 0.617486 0.209286 0.322405
O O9 0.515380 0.455936 0.366444
O O10 0.784399 0.240990 0.383018
O O11 0.261912 0.738089 0.750000
#
# Coordination Sequence:
#
# PCOD9550737 Si02
#       5
#     8   8   8   8   8
#     4  10  22  39  58  88 122 155 194 248 301 349
#     4  11  22  38  60  89 119 155 207 239 290 365
#     4  10  18  37  61  84 118 154 199 246 285 353
#     4   9  20  39  58  86 119 154 198 240 301 348
#     4  10  20  37  61  89 114 160 200 242 295 350
#
# _framework density 19.604012000000001
#
# number of rings (size 3 to 8) (size 9 to 14) (size 15 to 20)
#    0.000    2.000    6.000    0.000    5.600    1.600 
#    0.000    4.000    0.000    0.000    0.000    0.000 
#    0.000    0.000    0.000    0.000    0.000    0.000 
#
# Total GULP energy -222777.526873 kJ/mol
# GULP energy per Si atom -5569.438172 kJ/mol
# Density = 1.955939 g / cm^3
# Si number density = 19.604012 Si / 1000 Ang^3
#
#
#
# Elastic Constant Matrix: (Units=GPa)
#
#
# Indices 1 2 3 4 5 6 
#
# 1 63.3933 11.8435 41.4305 0.0000 0.0000 0.0000
# 2 11.8435 63.3933 41.4303 0.0000 0.0000 0.0000
# 3 41.4305 41.4303 184.0899 0.0000 0.0000 0.0000
# 4 0.0000 0.0000 0.0000 15.3881 0.0000 0.0000
# 5 0.0000 0.0000 0.0000 0.0000 15.3875 0.0000
# 6 0.0000 0.0000 0.0000 0.0000 0.0000 16.4943
#
#
#
# Elastic Compliance Matrix: (Units=1/GPa)
#
#
# Indices 1 2 3 4 5 6 
#
# 1 0.018535 -0.000864 -0.003977 0.000000 0.000000 0.000000
# 2 -0.000864 0.018535 -0.003977 0.000000 0.000000 0.000000
# 3 -0.003977 -0.003977 0.007222 0.000000 0.000000 0.000000
# 4 0.000000 0.000000 0.000000 0.064985 0.000000 0.000000
# 5 0.000000 0.000000 0.000000 0.000000 0.064988 0.000000
# 6 0.000000 0.000000 0.000000 0.000000 0.000000 0.060627
#
#
# Mechanical properties :
#
#
# Convention : Reuss Voigt Hill
#
# Bulk Modulus (GPa) = 37.51377 55.58724 46.55051
# Shear Modulus (GPa) = 19.12681 23.86548 21.49615
#
# Velocity S-wave (km/s) = 3.12694 3.49288 3.31496
# Velocity P-wave (km/s) = 5.67577 6.68457 6.20072
#
# Compressibility (1/GPa) = 0.02665688
#
# Stress axis : x y z
#
# Youngs Moduli (GPa) = 53.95178 53.95185 138.46126
#
# Poissons Ratio (x) = 0.04660 0.55067
# Poissons Ratio (y) = 0.04660 0.55067
# Poissons Ratio (z) = 0.21457 0.21457
#
# Static dielectric constant tensor:
#      x y z
#    x 1.719230 0.000000 0.000000 
#    y 0.000000 1.719230 0.000000 
#    z 0.000000 0.000000 1.824110 
# 
# From -- ./inp_files/4315.got.cif
#   From: 2010.05.17/outbox.cif.g08.bks.cpg/sg96_3_cif.got.tgz:4315.got - 2010.06.03 19:52:08.
