data_PCOD9550564
_publ_section_title
;
Structure prediction by ZEFSAII (Michael W. Deem and Ramdas Pophale) SiO2 
 PCOD9550564
Probable space group: P 43 2 2
;
_chemical_formula_sum "Si O2"
_cell_formula_units_Z 44
_cell_length_a 8.207838
_cell_length_b 8.207838
_cell_length_c 32.357361
_cell_angle_alpha 90.000000
_cell_angle_beta 90.000000
_cell_angle_gamma 90.000000
_cell_volume 2179.870260
_symmetry_space_group_name_H-M "P 43 2 2"
_symmetry_group_IT_number 95
_symmetry_cell_setting 'tetragonal'
loop_
_space_group_symop_operation_xyz
x,y,z
-y,x,3/4+z
-x,-y,1/2+z
y,-x,1/4+z
x,-y,1/2-z
-x,y,-z
y,x,1/4-z
-y,-x,3/4-z
loop_
_atom_site_type_symbol
_atom_site_label
_atom_site_fract_x
_atom_site_fract_y
_atom_site_fract_z
Si Si1 0.989616 0.820742 0.770394
Si Si2 0.828138 0.558536 0.118946
Si Si3 0.001612 0.858534 0.090433
Si Si4 0.611849 0.166229 0.720777
Si Si5 0.500000 0.555304 0.000000
Si Si6 0.161402 0.648479 0.698737
O O1 0.046637 0.680912 0.738859
O O2 0.804385 0.803320 0.784075
O O3 0.990515 0.000000 0.750000
O O4 0.112317 0.854521 0.807926
O O5 0.652977 0.652977 0.125000
O O6 0.842927 0.465930 0.074974
O O7 0.882220 0.450062 0.157713
O O8 0.959030 0.700419 0.115691
O O9 0.166642 0.824660 0.066875
O O10 0.001751 0.001751 0.125000
O O11 0.541761 0.334296 0.739913
O O12 0.585963 0.000000 0.750000
O O13 0.559905 0.676158 0.963987
#
# Coordination Sequence:
#
# PCOD9550564 Si02
#       6
#     8   8   8   8   4   8
#     4   9  21  41  67  94 125 174 227 274 336 404
#     4  11  22  41  62  95 133 172 218 272 337 401
#     4  10  21  40  66  93 124 176 225 273 335 399
#     4  11  23  44  69  98 137 178 223 283 346 408
#     4  12  24  40  66  98 136 178 224 274 346 406
#     4  11  23  41  65  96 131 170 222 279 326 412
#
# _framework density 20.184685000000002
#
# number of rings (size 3 to 8) (size 9 to 14) (size 15 to 20)
#    0.000    1.455    1.818    3.273    2.545    2.182 
#    3.273    0.000    0.000    0.000    0.000    0.000 
#    0.000    0.000    0.000    0.000    0.000    0.000 
#
# Total GULP energy -244971.124017 kJ/mol
# GULP energy per Si atom -5567.525546 kJ/mol
# Density = 2.013874 g / cm^3
# Si number density = 20.184685 Si / 1000 Ang^3
#
#
#
# Elastic Constant Matrix: (Units=GPa)
#
#
# Indices 1 2 3 4 5 6 
#
# 1 47.4486 104.5342 42.1612 0.0000 0.0000 0.0000
# 2 104.5342 47.4486 42.1612 0.0000 0.0000 0.0000
# 3 42.1612 42.1612 86.9979 0.0000 0.0000 0.0000
# 4 0.0000 0.0000 0.0000 43.1949 0.0000 0.0000
# 5 0.0000 0.0000 0.0000 0.0000 43.1949 0.0000
# 6 0.0000 0.0000 0.0000 0.0000 0.0000 28.0232
#
#
#
# Elastic Compliance Matrix: (Units=1/GPa)
#
#
# Indices 1 2 3 4 5 6 
#
# 1 -0.004259 0.013258 -0.004361 0.000000 0.000000 0.000000
# 2 0.013258 -0.004259 -0.004361 0.000000 0.000000 0.000000
# 3 -0.004361 -0.004361 0.015722 0.000000 0.000000 0.000000
# 4 0.000000 0.000000 0.000000 0.023151 0.000000 0.000000
# 5 0.000000 0.000000 0.000000 0.000000 0.023151 0.000000
# 6 0.000000 0.000000 0.000000 0.000000 0.000000 0.035685
#
#
# Mechanical properties :
#
#
# Convention : Reuss Voigt Hill
#
# Bulk Modulus (GPa) = 61.44297 62.17872 61.81084
# Shear Modulus (GPa) = 58.44981 22.41852 40.43416
#
# Velocity S-wave (km/s) = 5.38706 3.33629 4.48058
# Velocity P-wave (km/s) = 8.31867 6.76113 7.58001
#
# Compressibility (1/GPa) = 0.01627526
#
# Stress axis : x y z
#
# Youngs Moduli (GPa) = -234.79387 -234.79387 63.60621
#
# Poissons Ratio (x) = 3.11301 0.27741
# Poissons Ratio (y) = 3.11301 0.27741
# Poissons Ratio (z) = -1.02401 -1.02401
#
# Static dielectric constant tensor:
#      x y z
#    x 1.705550 0.000000 0.000000 
#    y 0.000000 1.705550 0.000000 
#    z 0.000000 0.000000 1.889110 
# 
# From -- ./inp_files/7827.got.cif
#   From: 2010.05.17/outbox.cif.g08.bks.cpg/sg95_4_cif.got.tgz:7827.got - 2010.06.03 19:46:49.
