data_PCOD9550175
_publ_section_title
;
Structure prediction by ZEFSAII (Michael W. Deem and Ramdas Pophale) SiO2 
 PCOD9550175
Probable space group: P 42 21 2
;
_chemical_formula_sum "Si O2"
_cell_formula_units_Z 38
_cell_length_a 12.071982
_cell_length_b 12.071982
_cell_length_c 13.134571
_cell_angle_alpha 90.000000
_cell_angle_beta 90.000000
_cell_angle_gamma 90.000000
_cell_volume 1914.137144
_symmetry_space_group_name_H-M "P 42 21 2"
_symmetry_group_IT_number 94
_symmetry_cell_setting 'tetragonal'
loop_
_space_group_symop_operation_xyz
x,y,z
1/2-y,1/2+x,1/2+z
-x,-y,z
1/2+y,1/2-x,1/2+z
1/2+x,1/2-y,1/2-z
1/2-x,1/2+y,1/2-z
y,x,-z
-y,-x,-z
loop_
_atom_site_type_symbol
_atom_site_label
_atom_site_fract_x
_atom_site_fract_y
_atom_site_fract_z
Si Si1 0.612638 0.048525 0.174817
Si Si2 0.000000 0.000000 0.000000
Si Si3 0.332299 0.155342 0.871598
Si Si4 0.500000 0.000000 0.984233
Si Si5 0.073457 0.163951 0.840315
Si Si6 0.000000 0.000000 0.663489
Si Si7 0.873654 0.126347 0.500000
O O1 0.662394 0.136655 0.252242
O O2 0.500000 0.000000 0.222754
O O3 0.565434 0.081253 0.063739
O O4 0.706608 0.954965 0.164250
O O5 0.999676 0.894041 0.927211
O O6 0.200235 0.144767 0.872977
O O7 0.372315 0.259661 0.937660
O O8 0.403376 0.056931 0.920782
O O9 0.041631 0.099441 0.736539
O O10 0.900682 0.037699 0.588721
#
# Coordination Sequence:
#
# PCOD9550175 Si02
#       7
#     8   2   8   4   8   4   4
#     4  10  23  43  64  97 133 169 232 281 332 414
#     4  10  22  42  70  94 140 168 226 278 350 426
#     4  12  23  41  73  95 135 181 225 281 354 412
#     4  10  22  40  62 100 132 170 218 280 334 414
#     4  11  23  44  66 102 130 187 221 287 349 414
#     4  10  24  42  68  92 142 168 238 272 340 428
#     4  11  23  42  65  97 128 188 216 283 345 408
#
# _framework density 19.852284999999998
#
# number of rings (size 3 to 8) (size 9 to 14) (size 15 to 20)
#    0.632    0.632    3.158    3.158    2.947    0.000 
#    0.000    0.000    0.000    0.000    0.000    0.000 
#    0.000    0.000    0.000    0.000    0.000    0.000 
#
# Total GULP energy -211624.662715 kJ/mol
# GULP energy per Si atom -5569.070071 kJ/mol
# Density = 1.980710 g / cm^3
# Si number density = 19.852285 Si / 1000 Ang^3
#
#
#
# Elastic Constant Matrix: (Units=GPa)
#
#
# Indices 1 2 3 4 5 6 
#
# 1 89.5467 55.0931 42.6512 0.0000 0.0000 0.0000
# 2 55.0931 89.5466 42.6510 0.0000 0.0000 0.0000
# 3 42.6512 42.6510 116.8694 0.0000 0.0000 0.0000
# 4 0.0000 0.0000 0.0000 11.2273 0.0000 0.0000
# 5 0.0000 0.0000 0.0000 0.0000 11.2249 0.0000
# 6 0.0000 0.0000 0.0000 0.0000 0.0000 24.3194
#
#
#
# Elastic Compliance Matrix: (Units=1/GPa)
#
#
# Indices 1 2 3 4 5 6 
#
# 1 0.018917 -0.010107 -0.003215 0.000000 0.000000 0.000000
# 2 -0.010107 0.018917 -0.003215 0.000000 0.000000 0.000000
# 3 -0.003215 -0.003215 0.010903 0.000000 0.000000 0.000000
# 4 0.000000 0.000000 0.000000 0.089069 0.000000 0.000000
# 5 0.000000 0.000000 0.000000 0.000000 0.089088 0.000000
# 6 0.000000 0.000000 0.000000 0.000000 0.000000 0.041119
#
#
# Mechanical properties :
#
#
# Convention : Reuss Voigt Hill
#
# Bulk Modulus (GPa) = 63.84689 64.08373 63.96531
# Shear Modulus (GPa) = 16.32335 19.72547 18.02441
#
# Velocity S-wave (km/s) = 2.87058 3.15558 3.01645
# Velocity P-wave (km/s) = 6.57402 6.75480 6.66502
#
# Compressibility (1/GPa) = 0.01566247
#
# Stress axis : x y z
#
# Youngs Moduli (GPa) = 52.86180 52.86185 91.71566
#
# Poissons Ratio (x) = 0.53429 0.29488
# Poissons Ratio (y) = 0.53429 0.29488
# Poissons Ratio (z) = 0.16996 0.16996
#
# Static dielectric constant tensor:
#      x y z
#    x 1.851000 0.000000 0.000000 
#    y 0.000000 1.851010 0.000000 
#    z 0.000000 0.000000 1.750670 
# 
# From -- ./inp_files/3476.got.cif
#   From: 2010.05.17/outbox.cif.g08.bks.cpg/sg94_2_cif.got.tgz:3476.got - 2010.06.03 19:43:16.
