data_PCOD9550504
_publ_section_title
;
Structure prediction by ZEFSAII (Michael W. Deem and Ramdas Pophale) SiO2 
 PCOD9550504
Probable space group: P 43 2 2
;
_chemical_formula_sum "Si O2"
_cell_formula_units_Z 32
_cell_length_a 16.480682
_cell_length_b 16.480682
_cell_length_c 5.878333
_cell_angle_alpha 90.000000
_cell_angle_beta 90.000000
_cell_angle_gamma 90.000000
_cell_volume 1596.630951
_symmetry_space_group_name_H-M "P 43 2 2"
_symmetry_group_IT_number 95
_symmetry_cell_setting 'tetragonal'
loop_
_space_group_symop_operation_xyz
x,y,z
-y,x,3/4+z
-x,-y,1/2+z
y,-x,1/4+z
x,-y,1/2-z
-x,y,-z
y,x,1/4-z
-y,-x,3/4-z
loop_
_atom_site_type_symbol
_atom_site_label
_atom_site_fract_x
_atom_site_fract_y
_atom_site_fract_z
Si Si1 0.000000 0.821728 0.000000
Si Si2 0.385550 0.614451 0.875000
Si Si3 0.254803 0.857020 0.013933
Si Si4 0.418954 0.219375 0.371099
Si Si5 0.500000 0.677897 0.500000
Si Si6 0.884723 0.115277 0.875000
O O1 0.929913 0.763125 0.091497
O O2 0.039147 0.875967 0.202938
O O3 0.299662 0.606352 0.756297
O O4 0.455285 0.620930 0.683983
O O5 0.344563 0.841921 0.106566
O O6 0.195224 0.879094 0.220288
O O7 0.220940 0.779061 0.875000
O O8 0.500000 0.188576 0.500000
O O9 0.439426 0.259036 0.126571
#
# Coordination Sequence:
#
# PCOD9550504 Si02
#       6
#     4   4   8   8   4   4
#     4  10  22  42  68 100 130 168 210 256 316 392
#     4  10  20  38  58  86 124 166 212 274 322 386
#     4  10  21  39  70  93 123 167 216 261 317 383
#     4  10  21  37  63  93 122 164 220 273 319 381
#     4  10  22  34  62  86 130 160 218 274 328 378
#     4  10  22  38  70  98 134 168 208 256 320 384
#
# _framework density 20.042202
#
# number of rings (size 3 to 8) (size 9 to 14) (size 15 to 20)
#    0.000    2.000    1.250    1.500    3.500    2.000 
#    0.000    0.000  203.500    0.000    0.000    0.000 
#    0.000    0.000    0.000    0.000    0.000    0.000 
#
# Total GULP energy -178502.169892 kJ/mol
# GULP energy per Si atom -5578.192809 kJ/mol
# Density = 1.999658 g / cm^3
# Si number density = 20.042202 Si / 1000 Ang^3
#
#
#
# Elastic Constant Matrix: (Units=GPa)
#
#
# Indices 1 2 3 4 5 6 
#
# 1 106.4928 52.9198 45.0874 0.0000 0.0000 0.0000
# 2 52.9198 106.4946 45.0867 0.0000 0.0000 0.0000
# 3 45.0874 45.0867 112.2509 0.0000 0.0000 0.0000
# 4 0.0000 0.0000 0.0000 12.8570 0.0000 0.0000
# 5 0.0000 0.0000 0.0000 0.0000 12.8560 0.0000
# 6 0.0000 0.0000 0.0000 0.0000 0.0000 24.4921
#
#
#
# Elastic Compliance Matrix: (Units=1/GPa)
#
#
# Indices 1 2 3 4 5 6 
#
# 1 0.013392 -0.005274 -0.003261 0.000000 0.000000 0.000000
# 2 -0.005274 0.013391 -0.003260 0.000000 0.000000 0.000000
# 3 -0.003261 -0.003260 0.011528 0.000000 0.000000 0.000000
# 4 0.000000 0.000000 0.000000 0.077779 0.000000 0.000000
# 5 0.000000 0.000000 0.000000 0.000000 0.077785 0.000000
# 6 0.000000 0.000000 0.000000 0.000000 0.000000 0.040830
#
#
# Mechanical properties :
#
#
# Convention : Reuss Voigt Hill
#
# Bulk Modulus (GPa) = 67.93154 67.93624 67.93389
# Shear Modulus (GPa) = 18.99687 22.18396 20.59041
#
# Velocity S-wave (km/s) = 3.08205 3.33056 3.20871
# Velocity P-wave (km/s) = 6.82885 6.98286 6.90629
#
# Compressibility (1/GPa) = 0.01472070
#
# Stress axis : x y z
#
# Youngs Moduli (GPa) = 74.67298 74.67493 86.74690
#
# Poissons Ratio (x) = 0.39386 0.28284
# Poissons Ratio (y) = 0.39385 0.28282
# Poissons Ratio (z) = 0.24347 0.24346
#
# Static dielectric constant tensor:
#      x y z
#    x 1.711880 0.000000 0.000000 
#    y 0.000000 1.711880 0.000000 
#    z 0.000000 0.000000 1.822510 
# 
# From -- ./inp_files/755.got.cif
#   From: 2010.05.17/outbox.cif.g08.bks.cpg/sg95_1_cif.got.tgz:755.got - 2010.06.03 19:46:49.
