data_PCOD9550112
_publ_section_title
;
Structure prediction by ZEFSAII (Michael W. Deem and Ramdas Pophale) SiO2 
 PCOD9550112
Probable space group: P 42 21 2
;
_chemical_formula_sum "Si O2"
_cell_formula_units_Z 48
_cell_length_a 12.133070
_cell_length_b 12.133070
_cell_length_c 16.226096
_cell_angle_alpha 90.000000
_cell_angle_beta 90.000000
_cell_angle_gamma 90.000000
_cell_volume 2388.666108
_symmetry_space_group_name_H-M "P 42 21 2"
_symmetry_group_IT_number 94
_symmetry_cell_setting 'tetragonal'
loop_
_space_group_symop_operation_xyz
x,y,z
1/2-y,1/2+x,1/2+z
-x,-y,z
1/2+y,1/2-x,1/2+z
1/2+x,1/2-y,1/2-z
1/2-x,1/2+y,1/2-z
y,x,-z
-y,-x,-z
loop_
_atom_site_type_symbol
_atom_site_label
_atom_site_fract_x
_atom_site_fract_y
_atom_site_fract_z
Si Si1 0.442450 0.110244 0.495642
Si Si2 0.765125 0.043332 0.774296
Si Si3 0.646965 0.878504 0.668514
Si Si4 0.240651 0.644766 0.125743
Si Si5 0.734079 0.377987 0.580444
Si Si6 0.780996 0.101547 0.317118
O O1 0.434479 0.109865 0.593147
O O2 0.320472 0.127866 0.460907
O O3 0.523189 0.201623 0.462717
O O4 0.500000 0.000000 0.463427
O O5 0.700509 0.141450 0.821105
O O6 0.853822 0.101233 0.714493
O O7 0.672816 0.988152 0.717677
O O8 0.810000 0.947153 0.837642
O O9 0.764909 0.835190 0.634867
O O10 0.602593 0.792690 0.734824
O O11 0.279929 0.523500 0.151599
O O12 0.667391 0.332610 0.500000
O O13 0.813278 0.281719 0.619401
#
# Coordination Sequence:
#
# PCOD9550112 Si02
#       6
#     8   8   8   8   8   8
#     4  11  22  37  62  91 116 165 208 256 318 371
#     4   9  22  39  62  92 124 165 214 259 322 384
#     4  10  23  36  60  91 120 162 207 260 313 384
#     4  10  21  41  58  86 128 155 208 263 314 379
#     4  10  22  40  64  98 130 167 217 271 318 391
#     4  10  21  39  63  89 127 171 209 269 323 386
#
# _framework density 20.094895999999999
#
# number of rings (size 3 to 8) (size 9 to 14) (size 15 to 20)
#    0.000    2.000    1.667    0.500    4.667    3.333 
#    0.000    1.667    0.000   24.000    0.000    0.000 
#    0.000    0.000    0.000    0.000    0.000    0.000 
#
# Total GULP energy -267231.034831 kJ/mol
# GULP energy per Si atom -5567.313226 kJ/mol
# Density = 2.004916 g / cm^3
# Si number density = 20.094896 Si / 1000 Ang^3
#
#
#
# Elastic Constant Matrix: (Units=GPa)
#
#
# Indices 1 2 3 4 5 6 
#
# 1 48.0659 12.4057 16.7781 0.0000 0.0000 0.0000
# 2 12.4057 48.0663 16.7778 0.0000 0.0000 0.0000
# 3 16.7781 16.7778 99.4603 0.0000 0.0000 0.0000
# 4 0.0000 0.0000 0.0000 58.4635 0.0000 0.0000
# 5 0.0000 0.0000 0.0000 0.0000 58.4615 0.0000
# 6 0.0000 0.0000 0.0000 0.0000 0.0000 18.5741
#
#
#
# Elastic Compliance Matrix: (Units=1/GPa)
#
#
# Indices 1 2 3 4 5 6 
#
# 1 0.023143 -0.004899 -0.003078 0.000000 0.000000 0.000000
# 2 -0.004899 0.023143 -0.003078 0.000000 0.000000 0.000000
# 3 -0.003078 -0.003078 0.011093 0.000000 0.000000 0.000000
# 4 0.000000 0.000000 0.000000 0.017105 0.000000 0.000000
# 5 0.000000 0.000000 0.000000 0.000000 0.017105 0.000000
# 6 0.000000 0.000000 0.000000 0.000000 0.000000 0.053839
#
#
# Mechanical properties :
#
#
# Convention : Reuss Voigt Hill
#
# Bulk Modulus (GPa) = 28.35205 31.94621 30.14913
# Shear Modulus (GPa) = 27.88728 37.07519 32.48123
#
# Velocity S-wave (km/s) = 3.72933 4.30001 4.02480
# Velocity P-wave (km/s) = 5.71696 6.37069 6.05265
#
# Compressibility (1/GPa) = 0.03527081
#
# Stress axis : x y z
#
# Youngs Moduli (GPa) = 43.20871 43.20916 90.15024
#
# Poissons Ratio (x) = 0.21168 0.27746
# Poissons Ratio (y) = 0.21168 0.27744
# Poissons Ratio (z) = 0.13298 0.13298
#
# Static dielectric constant tensor:
#      x y z
#    x 1.679800 0.000000 0.000000 
#    y 0.000000 1.679800 0.000000 
#    z 0.000000 0.000000 1.780580 
# 
# From -- ./inp_files/4106.got.cif
#   From: 2010.05.17/outbox.cif.g08.bks.cpg/sg94_3_cif.got.tgz:4106.got - 2010.06.03 19:43:16.
