data_PCOD9550759
_publ_section_title
;
Structure prediction by ZEFSAII (Michael W. Deem and Ramdas Pophale) SiO2 
 PCOD9550759
Probable space group: P 43 21 2
;
_chemical_formula_sum "Si O2"
_cell_formula_units_Z 36
_cell_length_a 13.506688
_cell_length_b 13.506688
_cell_length_c 8.155625
_cell_angle_alpha 90.000000
_cell_angle_beta 90.000000
_cell_angle_gamma 90.000000
_cell_volume 1487.835731
_symmetry_space_group_name_H-M "P 43 21 2"
_symmetry_group_IT_number 96
_symmetry_cell_setting 'tetragonal'
loop_
_space_group_symop_operation_xyz
x,y,z
1/2-y,1/2+x,3/4+z
-x,-y,1/2+z
1/2+y,1/2-x,1/4+z
1/2+x,1/2-y,1/4-z
1/2-x,1/2+y,3/4-z
y,x,-z
-y,-x,1/2-z
loop_
_atom_site_type_symbol
_atom_site_label
_atom_site_fract_x
_atom_site_fract_y
_atom_site_fract_z
Si Si1 0.143292 0.693450 0.613827
Si Si2 0.414908 0.268001 0.819805
Si Si3 0.100371 0.100371 0.500000
Si Si4 0.927190 0.830501 0.357782
Si Si5 0.381788 0.224995 0.477720
O O1 0.189682 0.803182 0.583656
O O2 0.065642 0.711926 0.759026
O O3 0.229480 0.621329 0.673883
O O4 0.114189 0.656289 0.431962
O O5 0.490182 0.358355 0.788746
O O6 0.416050 0.197296 0.660061
O O7 0.120494 0.148118 0.679941
O O8 0.909625 0.909625 0.500000
O O9 0.041340 0.810877 0.324175
O O10 0.273926 0.273926 0.500000
#
# Coordination Sequence:
#
# PCOD9550759 Si02
#       5
#     8   8   4   8   8
#     4  10  19  35  57  77 118 159 193 241 295 357
#     4   9  18  36  50  79 117 150 186 237 294 348
#     4  10  22  34  54  86 116 148 200 246 302 358
#     4  11  21  35  57  87 114 160 205 238 300 372
#     4   9  20  36  52  82 115 152 185 248 297 345
#
# _framework density 24.196218999999999
#
# number of rings (size 3 to 8) (size 9 to 14) (size 15 to 20)
#    0.000    2.222    2.222    1.333    4.667    0.000 
#   50.000    0.000    0.000    0.000   11.556    0.000 
#    0.000    0.000    0.000    0.000    0.000    0.000 
#
# Total GULP energy -200449.502199 kJ/mol
# GULP energy per Si atom -5568.041728 kJ/mol
# Density = 2.414115 g / cm^3
# Si number density = 24.196219 Si / 1000 Ang^3
#
#
#
# Elastic Constant Matrix: (Units=GPa)
#
#
# Indices 1 2 3 4 5 6 
#
# 1 21.3188 31.0598 7.7460 0.0000 0.0000 0.0000
# 2 31.0598 21.3188 7.7460 0.0000 0.0000 0.0000
# 3 7.7460 7.7460 213.5495 0.0000 0.0000 0.0000
# 4 0.0000 0.0000 0.0000 28.4643 0.0000 0.0000
# 5 0.0000 0.0000 0.0000 0.0000 28.4643 0.0000
# 6 0.0000 0.0000 0.0000 0.0000 0.0000 16.6193
#
#
#
# Elastic Compliance Matrix: (Units=1/GPa)
#
#
# Indices 1 2 3 4 5 6 
#
# 1 -0.041680 0.060979 -0.000700 0.000000 0.000000 0.000000
# 2 0.060979 -0.041680 -0.000700 0.000000 0.000000 0.000000
# 3 -0.000700 -0.000700 0.004734 0.000000 0.000000 0.000000
# 4 0.000000 0.000000 0.000000 0.035132 0.000000 0.000000
# 5 0.000000 0.000000 0.000000 0.000000 0.035132 0.000000
# 6 0.000000 0.000000 0.000000 0.000000 0.000000 0.060171
#
#
# Mechanical properties :
#
#
# Convention : Reuss Voigt Hill
#
# Bulk Modulus (GPa) = 24.67241 38.81006 31.74124
# Shear Modulus (GPa) = -92.87045 28.68526 -32.09260
#
# Velocity S-wave (km/s) = -6.20206 3.44688 -3.64586
# Velocity P-wave (km/s) = 6.40847 5.64941 2.13923
#
# Compressibility (1/GPa) = 0.04053110
#
# Stress axis : x y z
#
# Youngs Moduli (GPa) = -23.99244 -23.99244 211.25843
#
# Poissons Ratio (x) = 1.46303 0.14788
# Poissons Ratio (y) = 1.46303 0.14788
# Poissons Ratio (z) = -0.01680 -0.01680
#
# Static dielectric constant tensor:
#      x y z
#    x 1.921190 0.000000 0.000000 
#    y 0.000000 1.921190 0.000000 
#    z 0.000000 0.000000 2.137880 
# 
# From -- ./inp_files/1204.got.cif
#   From: 2010.05.17/outbox.cif.g08.bks.cpg/sg96_1_cif.got.tgz:1204.got - 2010.06.03 19:52:08.
