data_PCOD9550740
_publ_section_title
;
Structure prediction by ZEFSAII (Michael W. Deem and Ramdas Pophale) SiO2 
 PCOD9550740
Probable space group: P 43 21 2
;
_chemical_formula_sum "Si O2"
_cell_formula_units_Z 40
_cell_length_a 11.570367
_cell_length_b 11.570367
_cell_length_c 14.169791
_cell_angle_alpha 90.000000
_cell_angle_beta 90.000000
_cell_angle_gamma 90.000000
_cell_volume 1896.957992
_symmetry_space_group_name_H-M "P 43 21 2"
_symmetry_group_IT_number 96
_symmetry_cell_setting 'tetragonal'
loop_
_space_group_symop_operation_xyz
x,y,z
1/2-y,1/2+x,3/4+z
-x,-y,1/2+z
1/2+y,1/2-x,1/4+z
1/2+x,1/2-y,1/4-z
1/2-x,1/2+y,3/4-z
y,x,-z
-y,-x,1/2-z
loop_
_atom_site_type_symbol
_atom_site_label
_atom_site_fract_x
_atom_site_fract_y
_atom_site_fract_z
Si Si1 0.565337 0.137408 0.767498
Si Si2 0.138413 0.486228 0.029342
Si Si3 0.673056 0.673056 0.000000
Si Si4 0.411478 0.588523 0.750000
Si Si5 0.327914 0.381352 0.284820
Si Si6 0.756888 0.340009 0.396872
O O1 0.567080 0.155810 0.879442
O O2 0.692920 0.144226 0.730492
O O3 0.490636 0.244236 0.730244
O O4 0.492929 0.019066 0.750878
O O5 0.164427 0.359079 0.067514
O O6 0.219323 0.537183 0.948421
O O7 0.620236 0.648622 0.102700
O O8 0.547094 0.608789 0.737861
O O9 0.362225 0.656424 0.841258
O O10 0.257680 0.281227 0.226332
#
# Coordination Sequence:
#
# PCOD9550740 Si02
#       6
#     8   8   4   4   8   8
#     4  10  18  40  65  93 128 174 212 285 315 399
#     4   8  18  39  64  89 120 168 227 251 332 385
#     4  12  21  40  69 100 136 170 226 278 331 396
#     4  12  27  44  63 100 146 164 226 280 329 420
#     4  10  25  44  62 103 130 179 223 264 354 387
#     4  10  22  43  68  95 128 183 213 280 328 401
#
# _framework density 21.086393000000001
#
# number of rings (size 3 to 8) (size 9 to 14) (size 15 to 20)
#    0.000    2.400    4.000    0.600    2.800    4.800 
#    7.200    0.000    0.000    0.000    0.000    0.000 
#    0.000    0.000    0.000    0.000    0.000    0.000 
#
# Total GULP energy -222735.608893 kJ/mol
# GULP energy per Si atom -5568.390222 kJ/mol
# Density = 2.103840 g / cm^3
# Si number density = 21.086393 Si / 1000 Ang^3
#
#
#
# Elastic Constant Matrix: (Units=GPa)
#
#
# Indices 1 2 3 4 5 6 
#
# 1 118.0978 -66.5939 14.7673 0.0000 0.0000 0.0000
# 2 -66.5939 118.0946 14.7655 0.0000 0.0000 0.0000
# 3 14.7673 14.7655 87.4396 0.0000 0.0000 0.0000
# 4 0.0000 0.0000 0.0000 15.6922 0.0000 0.0000
# 5 0.0000 0.0000 0.0000 0.0000 15.6918 0.0000
# 6 0.0000 0.0000 0.0000 0.0000 0.0000 12.4318
#
#
#
# Elastic Compliance Matrix: (Units=1/GPa)
#
#
# Indices 1 2 3 4 5 6 
#
# 1 0.013456 0.008042 -0.003631 0.000000 0.000000 0.000000
# 2 0.008042 0.013457 -0.003631 0.000000 0.000000 0.000000
# 3 -0.003631 -0.003631 0.012663 0.000000 0.000000 0.000000
# 4 0.000000 0.000000 0.000000 0.063726 0.000000 0.000000
# 5 0.000000 0.000000 0.000000 0.000000 0.063728 0.000000
# 6 0.000000 0.000000 0.000000 0.000000 0.000000 0.080439
#
#
# Mechanical properties :
#
#
# Convention : Reuss Voigt Hill
#
# Bulk Modulus (GPa) = 24.30877 27.72328 26.01603
# Shear Modulus (GPa) = 19.25902 32.80938 26.03420
#
# Velocity S-wave (km/s) = 3.02543 3.94883 3.51756
# Velocity P-wave (km/s) = 4.87417 5.82813 5.37236
#
# Compressibility (1/GPa) = 0.04113741
#
# Stress axis : x y z
#
# Youngs Moduli (GPa) = 74.31452 74.31286 78.97215
#
# Poissons Ratio (x) = -0.59762 0.28672
# Poissons Ratio (y) = -0.59764 0.28671
# Poissons Ratio (z) = 0.26981 0.26979
#
# Static dielectric constant tensor:
#      x y z
#    x 1.771980 0.000000 0.000000 
#    y 0.000000 1.771980 0.000000 
#    z 0.000000 0.000000 1.792840 
# 
# From -- ./inp_files/2667.got.cif
#   From: 2010.05.17/outbox.cif.g08.bks.cpg/sg96_2_cif.got.tgz:2667.got - 2010.06.03 19:52:08.
