data_PCOD9550986
_publ_section_title
;
Structure prediction by ZEFSAII (Michael W. Deem and Ramdas Pophale) SiO2 
 PCOD9550986
Probable space group: P 43 21 2
;
_chemical_formula_sum "Si O2"
_cell_formula_units_Z 32
_cell_length_a 6.958311
_cell_length_b 6.958311
_cell_length_c 33.134254
_cell_angle_alpha 90.000000
_cell_angle_beta 90.000000
_cell_angle_gamma 90.000000
_cell_volume 1604.297358
_symmetry_space_group_name_H-M "P 43 21 2"
_symmetry_group_IT_number 96
_symmetry_cell_setting 'tetragonal'
loop_
_space_group_symop_operation_xyz
x,y,z
1/2-y,1/2+x,3/4+z
-x,-y,1/2+z
1/2+y,1/2-x,1/4+z
1/2+x,1/2-y,1/4-z
1/2-x,1/2+y,3/4-z
y,x,-z
-y,-x,1/2-z
loop_
_atom_site_type_symbol
_atom_site_label
_atom_site_fract_x
_atom_site_fract_y
_atom_site_fract_z
Si Si1 0.439286 0.343847 0.691114
Si Si2 0.575327 0.984208 0.417541
Si Si3 0.866138 0.337438 0.169972
Si Si4 0.654497 0.743483 0.283332
O O1 0.482113 0.153553 0.666052
O O2 0.626174 0.478066 0.696397
O O3 0.373359 0.277225 0.735695
O O4 0.271587 0.477662 0.673704
O O5 0.656719 0.773031 0.427201
O O6 0.656325 0.132140 0.450846
O O7 0.460738 0.843667 0.548466
O O8 0.954211 0.335561 0.125276
#
# Coordination Sequence:
#
# PCOD9550986 Si02
#       4
#     8   8   8   8
#     4  10  24  39  65  88 123 160 201 251 301 362
#     4  11  23  40  64  91 125 162 202 251 301 359
#     4  11  23  39  63  92 125 162 203 250 301 360
#     4  10  22  44  60  91 123 156 202 252 303 359
#
# _framework density 19.946425000000001
#
# number of rings (size 3 to 8) (size 9 to 14) (size 15 to 20)
#    0.000    1.500    2.500    1.500    3.500    5.000 
#    0.000    0.000    0.000    0.000    0.000    0.000 
#    0.000    0.000    0.000    0.000    0.000    0.000 
#
# Total GULP energy -178931.165972 kJ/mol
# GULP energy per Si atom -5591.598937 kJ/mol
# Density = 1.990103 g / cm^3
# Si number density = 19.946425 Si / 1000 Ang^3
#
#
#
# Elastic Constant Matrix: (Units=GPa)
#
#
# Indices 1 2 3 4 5 6 
#
# 1 63.3675 34.3650 -5.2414 0.0000 0.0000 0.0000
# 2 34.3650 63.3675 -5.2414 0.0000 0.0000 0.0000
# 3 -5.2414 -5.2414 19.6806 0.0000 0.0000 0.0000
# 4 0.0000 0.0000 0.0000 27.9743 0.0000 0.0000
# 5 0.0000 0.0000 0.0000 0.0000 27.9743 0.0000
# 6 0.0000 0.0000 0.0000 0.0000 0.0000 5.8158
#
#
#
# Elastic Compliance Matrix: (Units=1/GPa)
#
#
# Indices 1 2 3 4 5 6 
#
# 1 0.022506 -0.011973 0.002805 0.000000 0.000000 0.000000
# 2 -0.011973 0.022506 0.002805 0.000000 0.000000 0.000000
# 3 0.002805 0.002805 0.052306 0.000000 0.000000 0.000000
# 4 0.000000 0.000000 0.000000 0.035747 0.000000 0.000000
# 5 0.000000 0.000000 0.000000 0.000000 0.035747 0.000000
# 6 0.000000 0.000000 0.000000 0.000000 0.000000 0.171944
#
#
# Mechanical properties :
#
#
# Convention : Reuss Voigt Hill
#
# Bulk Modulus (GPa) = 11.82142 21.57555 16.69849
# Shear Modulus (GPa) = 13.09996 20.52178 16.81087
#
# Velocity S-wave (km/s) = 2.56551 3.21104 2.90625
# Velocity P-wave (km/s) = 3.83604 4.95862 4.43301
#
# Compressibility (1/GPa) = 0.08459218
#
# Stress axis : x y z
#
# Youngs Moduli (GPa) = 44.43193 44.43193 19.11836
#
# Poissons Ratio (x) = 0.53200 -0.05363
# Poissons Ratio (y) = 0.53200 -0.05363
# Poissons Ratio (z) = -0.12464 -0.12464
#
# Static dielectric constant tensor:
#      x y z
#    x 1.684020 0.000000 0.000000 
#    y 0.000000 1.684020 0.000000 
#    z 0.000000 0.000000 1.687230 
# 
# From -- ./inp_files/4001.got.cif
#   From: 2010.05.17/outbox.cif.g08.bks.cpg/sg96_3_cif.got.tgz:4001.got - 2010.06.03 19:52:08.
