data_PCOD9550330
_publ_section_title
;
Structure prediction by ZEFSAII (Michael W. Deem and Ramdas Pophale) SiO2 
 PCOD9550330
Probable space group: P 42 21 2
;
_chemical_formula_sum "Si O2"
_cell_formula_units_Z 34
_cell_length_a 12.255107
_cell_length_b 12.255107
_cell_length_c 10.789376
_cell_angle_alpha 90.000000
_cell_angle_beta 90.000000
_cell_angle_gamma 90.000000
_cell_volume 1620.431000
_symmetry_space_group_name_H-M "P 42 21 2"
_symmetry_group_IT_number 94
_symmetry_cell_setting 'tetragonal'
loop_
_space_group_symop_operation_xyz
x,y,z
1/2-y,1/2+x,1/2+z
-x,-y,z
1/2+y,1/2-x,1/2+z
1/2+x,1/2-y,1/2-z
1/2-x,1/2+y,1/2-z
y,x,-z
-y,-x,-z
loop_
_atom_site_type_symbol
_atom_site_label
_atom_site_fract_x
_atom_site_fract_y
_atom_site_fract_z
Si Si1 0.540094 0.734464 0.929341
Si Si2 0.510095 0.129634 0.696375
Si Si3 0.705325 0.276011 0.627909
Si Si4 0.856768 0.728279 0.392116
Si Si5 0.500000 0.500000 0.000000
O O1 0.489978 0.819911 0.833599
O O2 0.668226 0.745124 0.899699
O O3 0.480874 0.759471 0.059796
O O4 0.507324 0.607673 0.915489
O O5 0.620508 0.177102 0.639757
O O6 0.399860 0.168916 0.626930
O O7 0.500000 0.000000 0.700491
O O8 0.666702 0.333299 0.500000
O O9 0.713834 0.338224 0.759034
O O10 0.782782 0.782782 0.500000
#
# Coordination Sequence:
#
# PCOD9550330 Si02
#       5
#     8   8   8   8   2
#     4  11  23  42  69 101 134 193 230 293 347 429
#     4  11  25  43  71 104 142 183 237 300 355 415
#     4  11  23  44  67 108 140 182 244 286 358 422
#     4  11  23  46  69  99 146 183 238 292 357 415
#     4  12  20  40  68  92 146 176 248 264 358 424
#
# _framework density 20.982071999999999
#
# number of rings (size 3 to 8) (size 9 to 14) (size 15 to 20)
#    0.000    0.941    4.706    1.412    0.000    4.706 
#    4.235    2.353    0.000    0.000    0.000    0.000 
#    0.000    0.000    0.000    0.000    0.000    0.000 
#
# Total GULP energy -189403.020234 kJ/mol
# GULP energy per Si atom -5570.677066 kJ/mol
# Density = 2.093432 g / cm^3
# Si number density = 20.982072 Si / 1000 Ang^3
#
#
#
# Elastic Constant Matrix: (Units=GPa)
#
#
# Indices 1 2 3 4 5 6 
#
# 1 107.3634 47.8522 63.5206 0.0000 0.0000 0.0000
# 2 47.8522 107.3624 63.5203 0.0000 0.0000 0.0000
# 3 63.5206 63.5203 164.1613 0.0000 0.0000 0.0000
# 4 0.0000 0.0000 0.0000 36.3519 0.0000 0.0000
# 5 0.0000 0.0000 0.0000 0.0000 36.3520 0.0000
# 6 0.0000 0.0000 0.0000 0.0000 0.0000 36.2833
#
#
#
# Elastic Compliance Matrix: (Units=1/GPa)
#
#
# Indices 1 2 3 4 5 6 
#
# 1 0.013116 -0.003687 -0.003648 0.000000 0.000000 0.000000
# 2 -0.003687 0.013116 -0.003648 0.000000 0.000000 0.000000
# 3 -0.003648 -0.003648 0.008915 0.000000 0.000000 0.000000
# 4 0.000000 0.000000 0.000000 0.027509 0.000000 0.000000
# 5 0.000000 0.000000 0.000000 0.000000 0.027509 0.000000
# 6 0.000000 0.000000 0.000000 0.000000 0.000000 0.027561
#
#
# Mechanical properties :
#
#
# Convention : Reuss Voigt Hill
#
# Bulk Modulus (GPa) = 75.87785 80.96372 78.42078
# Shear Modulus (GPa) = 34.70116 35.39705 35.04910
#
# Velocity S-wave (km/s) = 4.07116 4.11178 4.09152
# Velocity P-wave (km/s) = 7.63812 7.82389 7.73156
#
# Compressibility (1/GPa) = 0.01317908
#
# Stress axis : x y z
#
# Youngs Moduli (GPa) = 76.24168 76.24100 112.17085
#
# Poissons Ratio (x) = 0.28113 0.40924
# Poissons Ratio (y) = 0.28114 0.40924
# Poissons Ratio (z) = 0.27816 0.27816
#
# Static dielectric constant tensor:
#      x y z
#    x 1.797410 0.000000 0.000000 
#    y 0.000000 1.797410 0.000000 
#    z 0.000000 0.000000 1.830570 
# 
# From -- ./inp_files/2337.got.cif
#   From: 2010.05.17/outbox.cif.g08.bks.cpg/sg94_2_cif.got.tgz:2337.got - 2010.06.03 19:43:16.
