data_PCOD9550496
_publ_section_title
;
Structure prediction by ZEFSAII (Michael W. Deem and Ramdas Pophale) SiO2 
 PCOD9550496
Probable space group: P 43 2 2
;
_chemical_formula_sum "Si O2"
_cell_formula_units_Z 40
_cell_length_a 14.498691
_cell_length_b 14.498691
_cell_length_c 8.924414
_cell_angle_alpha 90.000000
_cell_angle_beta 90.000000
_cell_angle_gamma 90.000000
_cell_volume 1876.019279
_symmetry_space_group_name_H-M "P 43 2 2"
_symmetry_group_IT_number 95
_symmetry_cell_setting 'tetragonal'
loop_
_space_group_symop_operation_xyz
x,y,z
-y,x,3/4+z
-x,-y,1/2+z
y,-x,1/4+z
x,-y,1/2-z
-x,y,-z
y,x,1/4-z
-y,-x,3/4-z
loop_
_atom_site_type_symbol
_atom_site_label
_atom_site_fract_x
_atom_site_fract_y
_atom_site_fract_z
Si Si1 0.205033 0.841337 0.642012
Si Si2 0.628626 0.911586 0.154002
Si Si3 0.696420 0.652629 0.361754
Si Si4 0.461669 0.263219 0.700058
Si Si5 0.016074 0.759226 0.675851
O O1 0.279477 0.864431 0.772083
O O2 0.234820 0.736284 0.598176
O O3 0.099030 0.833794 0.693459
O O4 0.216788 0.922382 0.518149
O O5 0.542709 0.845861 0.180774
O O6 0.610701 0.000000 0.250000
O O7 0.663511 0.944048 0.992952
O O8 0.700312 0.564386 0.466751
O O9 0.598545 0.700162 0.336863
O O10 0.714126 0.598057 0.202450
O O11 0.000000 0.752811 0.500000
#
# Coordination Sequence:
#
# PCOD9550496 Si02
#       5
#     8   8   8   8   8
#     4  10  20  37  57  85 119 159 209 253 304 365
#     4   9  18  34  59  85 114 156 208 253 295 364
#     4   9  17  31  60  89 120 153 204 259 302 371
#     4   9  16  31  58  92 119 152 204 252 310 366
#     4  11  21  35  55  83 119 160 196 247 314 366
#
# _framework density 21.321742
#
# number of rings (size 3 to 8) (size 9 to 14) (size 15 to 20)
#    0.000    2.400    2.000    1.200    0.000    0.000 
#    0.000   12.000    0.000    2.400   10.400   22.400 
#    0.000    0.000    0.000    3.000    0.000    0.000 
#
# Total GULP energy -222695.510651 kJ/mol
# GULP energy per Si atom -5567.387766 kJ/mol
# Density = 2.127321 g / cm^3
# Si number density = 21.321742 Si / 1000 Ang^3
#
#
#
# Elastic Constant Matrix: (Units=GPa)
#
#
# Indices 1 2 3 4 5 6 
#
# 1 110.8513 48.3369 17.8662 0.0000 0.0000 0.0000
# 2 48.3369 110.8513 17.8662 0.0000 0.0000 0.0000
# 3 17.8662 17.8662 57.1263 0.0000 0.0000 0.0000
# 4 0.0000 0.0000 0.0000 8.3267 0.0000 0.0000
# 5 0.0000 0.0000 0.0000 0.0000 8.3267 0.0000
# 6 0.0000 0.0000 0.0000 0.0000 0.0000 1.8376
#
#
#
# Elastic Compliance Matrix: (Units=1/GPa)
#
#
# Indices 1 2 3 4 5 6 
#
# 1 0.011376 -0.004620 -0.002113 0.000000 0.000000 0.000000
# 2 -0.004620 0.011376 -0.002113 0.000000 0.000000 0.000000
# 3 -0.002113 -0.002113 0.018827 0.000000 0.000000 0.000000
# 4 0.000000 0.000000 0.000000 0.120095 0.000000 0.000000
# 5 0.000000 0.000000 0.000000 0.000000 0.120095 0.000000
# 6 0.000000 0.000000 0.000000 0.000000 0.000000 0.544186
#
#
# Mechanical properties :
#
#
# Convention : Reuss Voigt Hill
#
# Bulk Modulus (GPa) = 41.86351 49.66303 45.76327
# Shear Modulus (GPa) = 5.87123 16.68218 11.27671
#
# Velocity S-wave (km/s) = 1.66121 2.80018 2.30224
# Velocity P-wave (km/s) = 4.83284 5.81356 5.34573
#
# Compressibility (1/GPa) = 0.02388715
#
# Stress axis : x y z
#
# Youngs Moduli (GPa) = 87.90253 87.90253 53.11594
#
# Poissons Ratio (x) = 0.40612 0.11223
# Poissons Ratio (y) = 0.40612 0.11223
# Poissons Ratio (z) = 0.18574 0.18574
#
# Static dielectric constant tensor:
#      x y z
#    x 1.817000 0.000000 0.000000 
#    y 0.000000 1.817000 0.000000 
#    z 0.000000 0.000000 1.838970 
# 
# From -- ./inp_files/2360.got.cif
#   From: 2010.05.17/outbox.cif.g08.bks.cpg/sg95_2_cif.got.tgz:2360.got - 2010.06.03 19:46:49.
