data_PCOD9550996
_publ_section_title
;
Structure prediction by ZEFSAII (Michael W. Deem and Ramdas Pophale) SiO2 
 PCOD9550996
Probable space group: P 43 21 2
;
_chemical_formula_sum "Si O2"
_cell_formula_units_Z 40
_cell_length_a 14.113463
_cell_length_b 14.113463
_cell_length_c 8.433842
_cell_angle_alpha 90.000000
_cell_angle_beta 90.000000
_cell_angle_gamma 90.000000
_cell_volume 1679.935620
_symmetry_space_group_name_H-M "P 43 21 2"
_symmetry_group_IT_number 96
_symmetry_cell_setting 'tetragonal'
loop_
_space_group_symop_operation_xyz
x,y,z
1/2-y,1/2+x,3/4+z
-x,-y,1/2+z
1/2+y,1/2-x,1/4+z
1/2+x,1/2-y,1/4-z
1/2-x,1/2+y,3/4-z
y,x,-z
-y,-x,1/2-z
loop_
_atom_site_type_symbol
_atom_site_label
_atom_site_fract_x
_atom_site_fract_y
_atom_site_fract_z
Si Si1 0.037472 0.098218 0.672240
Si Si2 0.424177 0.094871 0.895040
Si Si3 0.261068 0.073929 0.111838
Si Si4 0.803335 0.641569 0.162498
Si Si5 0.253320 0.379479 0.319242
O O1 0.999387 0.000614 0.750000
O O2 0.944835 0.161185 0.630764
O O3 0.091148 0.157777 0.811059
O O4 0.085846 0.085846 0.500000
O O5 0.441356 0.189014 0.794409
O O6 0.420515 0.003484 0.779705
O O7 0.319759 0.119025 0.968218
O O8 0.329701 0.098953 0.259338
O O9 0.270705 0.965158 0.063355
O O10 0.720020 0.704517 0.239028
O O11 0.806109 0.651712 0.973951
#
# Coordination Sequence:
#
# PCOD9550996 Si02
#       5
#     8   8   8   8   8
#     4  11  25  52  78 105 147 197 250 311 377 450
#     4  12  29  44  73 114 153 202 252 315 380 460
#     4  11  23  46  72 106 147 194 249 308 374 451
#     4  10  22  45  74  98 148 192 247 309 372 448
#     4  10  24  48  71 107 149 199 244 310 377 448
#
# _framework density 23.810438000000001
#
# number of rings (size 3 to 8) (size 9 to 14) (size 15 to 20)
#    0.000    1.200    6.000    0.000   14.000    0.800 
#   10.800    0.000    0.000    0.000    0.000    0.000 
#    0.000    0.000    0.000    0.000    0.000    0.000 
#
# Total GULP energy -223101.296191 kJ/mol
# GULP energy per Si atom -5577.532405 kJ/mol
# Density = 2.375624 g / cm^3
# Si number density = 23.810438 Si / 1000 Ang^3
#
#
#
# Elastic Constant Matrix: (Units=GPa)
#
#
# Indices 1 2 3 4 5 6 
#
# 1 45.8013 19.4621 35.5492 0.0000 0.0000 0.0000
# 2 19.4621 45.8020 35.5486 0.0000 0.0000 0.0000
# 3 35.5492 35.5486 91.5921 0.0000 0.0000 0.0000
# 4 0.0000 0.0000 0.0000 45.4809 0.0000 0.0000
# 5 0.0000 0.0000 0.0000 0.0000 45.4805 0.0000
# 6 0.0000 0.0000 0.0000 0.0000 0.0000 29.6252
#
#
#
# Elastic Compliance Matrix: (Units=1/GPa)
#
#
# Indices 1 2 3 4 5 6 
#
# 1 0.032257 -0.005709 -0.010304 0.000000 0.000000 0.000000
# 2 -0.005709 0.032256 -0.010303 0.000000 0.000000 0.000000
# 3 -0.010304 -0.010303 0.018916 0.000000 0.000000 0.000000
# 4 0.000000 0.000000 0.000000 0.021987 0.000000 0.000000
# 5 0.000000 0.000000 0.000000 0.000000 0.021987 0.000000
# 6 0.000000 0.000000 0.000000 0.000000 0.000000 0.033755
#
#
# Mechanical properties :
#
#
# Convention : Reuss Voigt Hill
#
# Bulk Modulus (GPa) = 32.47169 40.47946 36.47557
# Shear Modulus (GPa) = 22.31584 30.29303 26.30444
#
# Velocity S-wave (km/s) = 3.06474 3.57074 3.32737
# Velocity P-wave (km/s) = 5.11769 5.83420 5.48765
#
# Compressibility (1/GPa) = 0.03079606
#
# Stress axis : x y z
#
# Youngs Moduli (GPa) = 31.00117 31.00226 52.86546
#
# Poissons Ratio (x) = 0.17700 0.54471
# Poissons Ratio (y) = 0.17700 0.54468
# Poissons Ratio (z) = 0.31943 0.31942
#
# Static dielectric constant tensor:
#      x y z
#    x 1.918490 0.000000 0.000000 
#    y 0.000000 1.918490 0.000000 
#    z 0.000000 0.000000 1.922740 
# 
# From -- ./inp_files/1313.got.cif
#   From: 2010.05.17/outbox.cif.g08.bks.cpg/sg96_1_cif.got.tgz:1313.got - 2010.06.03 19:52:08.
