data_PCOD9550397
_publ_section_title
;
Structure prediction by ZEFSAII (Michael W. Deem and Ramdas Pophale) SiO2 
 PCOD9550397
Probable space group: P 42 21 2
;
_chemical_formula_sum "Si O2"
_cell_formula_units_Z 32
_cell_length_a 9.887287
_cell_length_b 9.887287
_cell_length_c 12.268623
_cell_angle_alpha 90.000000
_cell_angle_beta 90.000000
_cell_angle_gamma 90.000000
_cell_volume 1199.361497
_symmetry_space_group_name_H-M "P 42 21 2"
_symmetry_group_IT_number 94
_symmetry_cell_setting 'tetragonal'
loop_
_space_group_symop_operation_xyz
x,y,z
1/2-y,1/2+x,1/2+z
-x,-y,z
1/2+y,1/2-x,1/2+z
1/2+x,1/2-y,1/2-z
1/2-x,1/2+y,1/2-z
y,x,-z
-y,-x,-z
loop_
_atom_site_type_symbol
_atom_site_label
_atom_site_fract_x
_atom_site_fract_y
_atom_site_fract_z
Si Si1 0.390997 0.116884 0.924449
Si Si2 0.957330 0.781459 0.417836
Si Si3 0.240496 0.861316 0.205122
Si Si4 0.867774 0.880496 0.805249
O O1 0.428294 0.198204 0.814405
O O2 0.237491 0.074438 0.898316
O O3 0.500000 0.000000 0.932986
O O4 0.414556 0.213712 0.026738
O O5 0.887203 0.887203 0.500000
O O6 0.849896 0.663168 0.390666
O O7 0.979697 0.847689 0.299696
O O8 0.243709 0.705771 0.252460
O O9 0.144152 0.979320 0.161857
#
# Coordination Sequence:
#
# PCOD9550397 Si02
#       4
#     8   8   8   8
#     4   9  17  29  51  82 114 146 206 254 301 382
#     4   9  15  29  54  80 121 155 198 256 324 358
#     4   8  17  29  54  78 120 153 194 259 322 363
#     4   8  17  30  53  80 121 152 201 254 324 366
#
# _framework density 26.680862000000001
#
# number of rings (size 3 to 8) (size 9 to 14) (size 15 to 20)
#    3.000    0.000    2.500    0.000    0.000    4.000 
#    0.000    1.250    0.000    7.500    0.000    0.000 
#   22.500    0.000    0.000    0.000    0.000    0.000 
#
# Total GULP energy -178210.515624 kJ/mol
# GULP energy per Si atom -5569.078613 kJ/mol
# Density = 2.662014 g / cm^3
# Si number density = 26.680862 Si / 1000 Ang^3
#
#
#
# Elastic Constant Matrix: (Units=GPa)
#
#
# Indices 1 2 3 4 5 6 
#
# 1 105.2207 71.7709 44.7404 0.0000 0.0000 0.0000
# 2 71.7709 105.2207 44.7404 0.0000 0.0000 0.0000
# 3 44.7404 44.7404 120.6131 0.0000 0.0000 0.0000
# 4 0.0000 0.0000 0.0000 33.6641 0.0000 0.0000
# 5 0.0000 0.0000 0.0000 0.0000 33.6641 0.0000
# 6 0.0000 0.0000 0.0000 0.0000 0.0000 52.9308
#
#
#
# Elastic Compliance Matrix: (Units=1/GPa)
#
#
# Indices 1 2 3 4 5 6 
#
# 1 0.018425 -0.011471 -0.002580 0.000000 0.000000 0.000000
# 2 -0.011471 0.018425 -0.002580 0.000000 0.000000 0.000000
# 3 -0.002580 -0.002580 0.010205 0.000000 0.000000 0.000000
# 4 0.000000 0.000000 0.000000 0.029705 0.000000 0.000000
# 5 0.000000 0.000000 0.000000 0.000000 0.029705 0.000000
# 6 0.000000 0.000000 0.000000 0.000000 0.000000 0.018893
#
#
# Mechanical properties :
#
#
# Convention : Reuss Voigt Hill
#
# Bulk Modulus (GPa) = 72.49178 72.61758 72.55468
# Shear Modulus (GPa) = 30.63435 35.37196 33.00316
#
# Velocity S-wave (km/s) = 3.39215 3.64503 3.52086
# Velocity P-wave (km/s) = 6.52466 6.70754 6.61673
#
# Compressibility (1/GPa) = 0.01379467
#
# Stress axis : x y z
#
# Youngs Moduli (GPa) = 54.27459 54.27459 97.99393
#
# Poissons Ratio (x) = 0.62257 0.25278
# Poissons Ratio (y) = 0.62257 0.25278
# Poissons Ratio (z) = 0.14001 0.14001
#
# Static dielectric constant tensor:
#      x y z
#    x 2.234110 0.000000 0.000000 
#    y 0.000000 2.234110 0.000000 
#    z 0.000000 0.000000 2.094260 
# 
# From -- ./inp_files/2266.got.cif
#   From: 2010.05.17/outbox.cif.g08.bks.cpg/sg94_2_cif.got.tgz:2266.got - 2010.06.03 19:43:16.
