data_PCOD9550195
_publ_section_title
;
Structure prediction by ZEFSAII (Michael W. Deem and Ramdas Pophale) SiO2 
 PCOD9550195
Probable space group: P 42 21 2
;
_chemical_formula_sum "Si O2"
_cell_formula_units_Z 48
_cell_length_a 9.195889
_cell_length_b 9.195889
_cell_length_c 28.088916
_cell_angle_alpha 90.000000
_cell_angle_beta 90.000000
_cell_angle_gamma 90.000000
_cell_volume 2375.321612
_symmetry_space_group_name_H-M "P 42 21 2"
_symmetry_group_IT_number 94
_symmetry_cell_setting 'tetragonal'
loop_
_space_group_symop_operation_xyz
x,y,z
1/2-y,1/2+x,1/2+z
-x,-y,z
1/2+y,1/2-x,1/2+z
1/2+x,1/2-y,1/2-z
1/2-x,1/2+y,1/2-z
y,x,-z
-y,-x,-z
loop_
_atom_site_type_symbol
_atom_site_label
_atom_site_fract_x
_atom_site_fract_y
_atom_site_fract_z
Si Si1 0.835302 0.974669 0.782198
Si Si2 0.277151 0.070828 0.523993
Si Si3 0.694919 0.191833 0.199948
Si Si4 0.667792 0.483334 0.873795
Si Si5 0.730732 0.929475 0.028051
Si Si6 0.895374 0.732912 0.857644
O O1 0.721604 0.892149 0.748418
O O2 0.856558 0.881605 0.830382
O O3 0.784374 0.136351 0.791574
O O4 0.000000 0.000000 0.761513
O O5 0.133237 0.133237 0.500000
O O6 0.252943 0.071100 0.580187
O O7 0.411695 0.176597 0.512802
O O8 0.325687 0.906096 0.513799
O O9 0.636925 0.317133 0.165996
O O10 0.675762 0.037035 0.172182
O O11 0.500000 0.500000 0.886126
O O12 0.758077 0.623338 0.855283
O O13 0.749630 0.926645 0.085712
O O14 0.868856 0.868856 0.000000
#
# Coordination Sequence:
#
# PCOD9550195 Si02
#       6
#     8   8   8   8   8   8
#     4  10  23  40  67  97 131 171 225 273 334 400
#     4  10  23  40  63  99 128 173 220 271 331 391
#     4  11  21  41  65  96 131 172 221 271 335 400
#     4  11  23  39  65  93 130 172 220 266 332 394
#     4  10  22  42  68  97 134 178 222 271 336 398
#     4  10  22  44  67  95 133 177 218 275 335 402
#
# _framework density 20.207789999999999
#
# number of rings (size 3 to 8) (size 9 to 14) (size 15 to 20)
#    0.000    1.667    1.667    2.000    4.667    4.333 
#    3.000    4.167    0.000    0.000    0.000    0.000 
#    0.000    0.000    0.000    0.000    0.000    0.000 
#
# Total GULP energy -267818.299186 kJ/mol
# GULP energy per Si atom -5579.547900 kJ/mol
# Density = 2.016180 g / cm^3
# Si number density = 20.207790 Si / 1000 Ang^3
#
#
#
# Elastic Constant Matrix: (Units=GPa)
#
#
# Indices 1 2 3 4 5 6 
#
# 1 72.4469 56.5391 39.9547 0.0000 0.0000 0.0000
# 2 56.5391 72.4469 39.9547 0.0000 0.0000 0.0000
# 3 39.9547 39.9547 54.2823 0.0000 0.0000 0.0000
# 4 0.0000 0.0000 0.0000 47.7709 0.0000 0.0000
# 5 0.0000 0.0000 0.0000 0.0000 47.7709 0.0000
# 6 0.0000 0.0000 0.0000 0.0000 0.0000 39.5850
#
#
#
# Elastic Compliance Matrix: (Units=1/GPa)
#
#
# Indices 1 2 3 4 5 6 
#
# 1 0.038557 -0.024305 -0.010490 0.000000 0.000000 0.000000
# 2 -0.024305 0.038557 -0.010490 0.000000 0.000000 0.000000
# 3 -0.010490 -0.010490 0.033864 0.000000 0.000000 0.000000
# 4 0.000000 0.000000 0.000000 0.020933 0.000000 0.000000
# 5 0.000000 0.000000 0.000000 0.000000 0.020933 0.000000
# 6 0.000000 0.000000 0.000000 0.000000 0.000000 0.025262
#
#
# Mechanical properties :
#
#
# Convention : Reuss Voigt Hill
#
# Bulk Modulus (GPa) = 49.00052 52.45256 50.72654
# Shear Modulus (GPa) = 18.15018 31.20720 24.67869
#
# Velocity S-wave (km/s) = 3.00021 3.93404 3.49842
# Velocity P-wave (km/s) = 6.02517 6.82997 6.44016
#
# Compressibility (1/GPa) = 0.02040795
#
# Stress axis : x y z
#
# Youngs Moduli (GPa) = 25.93573 25.93573 29.52961
#
# Poissons Ratio (x) = 0.63038 0.30976
# Poissons Ratio (y) = 0.63038 0.30976
# Poissons Ratio (z) = 0.27206 0.27206
#
# Static dielectric constant tensor:
#      x y z
#    x 1.655640 0.000000 0.000000 
#    y 0.000000 1.655640 0.000000 
#    z 0.000000 0.000000 1.723510 
# 
# From -- ./inp_files/5558.got.cif
#   From: 2010.05.17/outbox.cif.g08.bks.cpg/sg94_3_cif.got.tgz:5558.got - 2010.06.03 19:43:16.
