data_PCOD9550916
_publ_section_title
;
Structure prediction by ZEFSAII (Michael W. Deem and Ramdas Pophale) SiO2 
 PCOD9550916
Probable space group: P 43 21 2
;
_chemical_formula_sum "Si O2"
_cell_formula_units_Z 56
_cell_length_a 11.277871
_cell_length_b 11.277871
_cell_length_c 18.627603
_cell_angle_alpha 90.000000
_cell_angle_beta 90.000000
_cell_angle_gamma 90.000000
_cell_volume 2369.251798
_symmetry_space_group_name_H-M "P 43 21 2"
_symmetry_group_IT_number 96
_symmetry_cell_setting 'tetragonal'
loop_
_space_group_symop_operation_xyz
x,y,z
1/2-y,1/2+x,3/4+z
-x,-y,1/2+z
1/2+y,1/2-x,1/4+z
1/2+x,1/2-y,1/4-z
1/2-x,1/2+y,3/4-z
y,x,-z
-y,-x,1/2-z
loop_
_atom_site_type_symbol
_atom_site_label
_atom_site_fract_x
_atom_site_fract_y
_atom_site_fract_z
Si Si1 0.167208 0.863443 0.911060
Si Si2 0.252365 0.892615 0.438311
Si Si3 0.869035 0.061477 0.680437
Si Si4 0.134413 0.521978 0.781800
Si Si5 0.108329 0.400509 0.511182
Si Si6 0.283351 0.029817 0.641116
Si Si7 0.365312 0.720060 0.828761
O O1 0.252663 0.977723 0.921215
O O2 0.040062 0.839785 0.872263
O O3 0.254380 0.771576 0.871252
O O4 0.134002 0.825219 0.991674
O O5 0.165953 0.906086 0.372080
O O6 0.348126 0.785744 0.434764
O O7 0.326632 0.013917 0.442295
O O8 0.950817 0.049183 0.750000
O O9 0.741630 0.104678 0.711557
O O10 0.856677 0.945280 0.631606
O O11 0.062692 0.628931 0.819058
O O12 0.171681 0.555369 0.700931
O O13 0.038720 0.419982 0.770752
O O14 0.073982 0.347170 0.432886
O O15 0.331315 0.668686 0.750000
#
# Coordination Sequence:
#
# PCOD9550916 Si02
#       7
#     8   8   8   8   8   8   8
#     4  11  22  41  67  97 135 177 232 293 351 421
#     4  10  23  40  65 103 140 175 233 296 363 419
#     4  12  24  43  72 102 143 190 242 293 365 448
#     4  11  21  39  70  94 133 177 235 283 345 425
#     4  10  22  38  68 101 130 177 237 292 342 427
#     4  10  21  41  64  99 131 173 229 295 349 414
#     4  12  25  44  67 104 143 189 238 299 365 436
#
# _framework density 23.636153
#
# number of rings (size 3 to 8) (size 9 to 14) (size 15 to 20)
#    0.000    1.143    5.714    0.857    2.000    1.143 
#    0.000    3.571    0.000    0.000    0.000    0.000 
#    0.000    0.000    0.000    0.000    0.000    0.000 
#
# Total GULP energy -312642.556680 kJ/mol
# GULP energy per Si atom -5582.902798 kJ/mol
# Density = 2.358236 g / cm^3
# Si number density = 23.636153 Si / 1000 Ang^3
#
#
#
# Elastic Constant Matrix: (Units=GPa)
#
#
# Indices 1 2 3 4 5 6 
#
# 1 27.3455 -2.3932 9.5141 0.0000 0.0000 0.0000
# 2 -2.3932 27.3458 9.5142 0.0000 0.0000 0.0000
# 3 9.5141 9.5142 108.9439 0.0000 0.0000 0.0000
# 4 0.0000 0.0000 0.0000 36.0070 0.0000 0.0000
# 5 0.0000 0.0000 0.0000 0.0000 36.0068 0.0000
# 6 0.0000 0.0000 0.0000 0.0000 0.0000 18.1990
#
#
#
# Elastic Compliance Matrix: (Units=1/GPa)
#
#
# Indices 1 2 3 4 5 6 
#
# 1 0.038281 0.004655 -0.003750 0.000000 0.000000 0.000000
# 2 0.004655 0.038281 -0.003750 0.000000 0.000000 0.000000
# 3 -0.003750 -0.003750 0.009834 0.000000 0.000000 0.000000
# 4 0.000000 0.000000 0.000000 0.027772 0.000000 0.000000
# 5 0.000000 0.000000 0.000000 0.000000 0.027773 0.000000
# 6 0.000000 0.000000 0.000000 0.000000 0.000000 0.054948
#
#
# Mechanical properties :
#
#
# Convention : Reuss Voigt Hill
#
# Bulk Modulus (GPa) = 12.39054 21.87840 17.13447
# Shear Modulus (GPa) = 21.78841 27.84255 24.81548
#
# Velocity S-wave (km/s) = 3.03945 3.43587 3.24372
# Velocity P-wave (km/s) = 4.19181 5.00167 4.61454
#
# Compressibility (1/GPa) = 0.08070676
#
# Stress axis : x y z
#
# Youngs Moduli (GPa) = 26.12262 26.12286 101.68854
#
# Poissons Ratio (x) = -0.12160 0.38129
# Poissons Ratio (y) = -0.12160 0.38129
# Poissons Ratio (z) = 0.09795 0.09795
#
# Static dielectric constant tensor:
#      x y z
#    x 2.005310 0.000000 0.000000 
#    y 0.000000 2.005320 0.000000 
#    z 0.000000 0.000000 1.916320 
# 
# From -- ./inp_files/3566.got.cif
#   From: 2010.05.17/outbox.cif.g08.bks.cpg/sg96_2_cif.got.tgz:3566.got - 2010.06.03 19:52:08.
