data_PCOD9550801
_publ_section_title
;
Structure prediction by ZEFSAII (Michael W. Deem and Ramdas Pophale) SiO2 
 PCOD9550801
Probable space group: P 43 21 2
;
_chemical_formula_sum "Si O2"
_cell_formula_units_Z 40
_cell_length_a 15.648003
_cell_length_b 15.648003
_cell_length_c 8.244029
_cell_angle_alpha 90.000000
_cell_angle_beta 90.000000
_cell_angle_gamma 90.000000
_cell_volume 2018.632924
_symmetry_space_group_name_H-M "P 43 21 2"
_symmetry_group_IT_number 96
_symmetry_cell_setting 'tetragonal'
loop_
_space_group_symop_operation_xyz
x,y,z
1/2-y,1/2+x,3/4+z
-x,-y,1/2+z
1/2+y,1/2-x,1/4+z
1/2+x,1/2-y,1/4-z
1/2-x,1/2+y,3/4-z
y,x,-z
-y,-x,1/2-z
loop_
_atom_site_type_symbol
_atom_site_label
_atom_site_fract_x
_atom_site_fract_y
_atom_site_fract_z
Si Si1 0.343040 0.185184 0.249823
Si Si2 0.766055 0.481366 0.081910
Si Si3 0.684704 0.315297 0.750000
Si Si4 0.488040 0.488040 0.500000
Si Si5 0.094397 0.094397 0.000000
Si Si6 0.008270 0.827853 0.005154
Si Si7 0.336941 0.336941 0.000000
O O1 0.338556 0.089602 0.182137
O O2 0.432769 0.206819 0.331042
O O3 0.261158 0.192807 0.371067
O O4 0.334174 0.253486 0.109620
O O5 0.685903 0.432481 0.172515
O O6 0.741183 0.510715 0.899621
O O7 0.685675 0.412872 0.682201
O O8 0.470669 0.572689 0.602902
O O9 0.413480 0.482923 0.365740
O O10 0.082367 0.830352 0.872794
#
# Coordination Sequence:
#
# PCOD9550801 Si02
#       7
#     8   8   4   4   4   8   4
#     4  11  24  41  63  88 123 167 214 259 308 370
#     4  10  23  44  62  86 124 169 213 262 312 371
#     4  10  23  43  62  88 127 169 204 250 314 378
#     4  10  20  34  57  92 131 163 188 241 320 390
#     4  10  20  36  61  92 126 156 201 262 328 384
#     4  10  22  36  60  93 129 163 197 251 319 386
#     4  12  23  37  64  98 124 158 205 261 324 382
#
# _framework density 19.815391000000002
#
# number of rings (size 3 to 8) (size 9 to 14) (size 15 to 20)
#    0.000    1.600    0.000    4.800    0.000   16.000 
#    0.000    4.000    0.000    0.000    0.000    0.000 
#    0.000    0.000    0.000    0.000    0.000    0.000 
#
# Total GULP energy -223154.040982 kJ/mol
# GULP energy per Si atom -5578.851025 kJ/mol
# Density = 1.977029 g / cm^3
# Si number density = 19.815391 Si / 1000 Ang^3
#
#
#
# Elastic Constant Matrix: (Units=GPa)
#
#
# Indices 1 2 3 4 5 6 
#
# 1 125.3503 67.1836 76.2910 0.0000 0.0000 0.0000
# 2 67.1836 125.3519 76.2909 0.0000 0.0000 0.0000
# 3 76.2910 76.2909 118.6656 0.0000 0.0000 0.0000
# 4 0.0000 0.0000 0.0000 19.9766 0.0000 0.0000
# 5 0.0000 0.0000 0.0000 0.0000 19.9771 0.0000
# 6 0.0000 0.0000 0.0000 0.0000 0.0000 28.1122
#
#
#
# Elastic Compliance Matrix: (Units=1/GPa)
#
#
# Indices 1 2 3 4 5 6 
#
# 1 0.013890 -0.003301 -0.006808 0.000000 0.000000 0.000000
# 2 -0.003301 0.013890 -0.006808 0.000000 0.000000 0.000000
# 3 -0.006808 -0.006808 0.017180 0.000000 0.000000 0.000000
# 4 0.000000 0.000000 0.000000 0.050059 0.000000 0.000000
# 5 0.000000 0.000000 0.000000 0.000000 0.050057 0.000000
# 6 0.000000 0.000000 0.000000 0.000000 0.000000 0.035572
#
#
# Mechanical properties :
#
#
# Convention : Reuss Voigt Hill
#
# Bulk Modulus (GPa) = 89.86721 89.87766 89.87243
# Shear Modulus (GPa) = 22.91566 23.58667 23.25117
#
# Velocity S-wave (km/s) = 3.40436 3.45385 3.42919
# Velocity P-wave (km/s) = 7.80408 7.83335 7.81873
#
# Compressibility (1/GPa) = 0.01112753
#
# Stress axis : x y z
#
# Youngs Moduli (GPa) = 71.99189 71.99351 58.20574
#
# Poissons Ratio (x) = 0.23768 0.39625
# Poissons Ratio (y) = 0.23768 0.39624
# Poissons Ratio (z) = 0.49010 0.49010
#
# Static dielectric constant tensor:
#      x y z
#    x 1.713010 0.000000 0.000000 
#    y 0.000000 1.713010 0.000000 
#    z 0.000000 0.000000 1.723280 
# 
# From -- ./inp_files/1396.got.cif
#   From: 2010.05.17/outbox.cif.g08.bks.cpg/sg96_1_cif.got.tgz:1396.got - 2010.06.03 19:52:08.
