data_PCOD9550941
_publ_section_title
;
Structure prediction by ZEFSAII (Michael W. Deem and Ramdas Pophale) SiO2 
 PCOD9550941
Probable space group: P 43 21 2
;
_chemical_formula_sum "Si O2"
_cell_formula_units_Z 52
_cell_length_a 18.188932
_cell_length_b 18.188932
_cell_length_c 7.875589
_cell_angle_alpha 90.000000
_cell_angle_beta 90.000000
_cell_angle_gamma 90.000000
_cell_volume 2605.538186
_symmetry_space_group_name_H-M "P 43 21 2"
_symmetry_group_IT_number 96
_symmetry_cell_setting 'tetragonal'
loop_
_space_group_symop_operation_xyz
x,y,z
1/2-y,1/2+x,3/4+z
-x,-y,1/2+z
1/2+y,1/2-x,1/4+z
1/2+x,1/2-y,1/4-z
1/2-x,1/2+y,3/4-z
y,x,-z
-y,-x,1/2-z
loop_
_atom_site_type_symbol
_atom_site_label
_atom_site_fract_x
_atom_site_fract_y
_atom_site_fract_z
Si Si1 0.308228 0.572551 0.707873
Si Si2 0.813762 0.455797 0.960644
Si Si3 0.677669 0.124083 0.760043
Si Si4 0.182294 0.817707 0.750000
Si Si5 0.314816 0.162822 0.851493
Si Si6 0.449362 0.919633 0.723896
Si Si7 0.899113 0.171454 0.914491
O O1 0.381543 0.618458 0.750000
O O2 0.264105 0.578501 0.525804
O O3 0.251356 0.609458 0.842898
O O4 0.324385 0.485453 0.711841
O O5 0.857835 0.466131 0.137069
O O6 0.811398 0.541633 0.909092
O O7 0.857084 0.399489 0.836584
O O8 0.745672 0.126551 0.631036
O O9 0.687355 0.184963 0.906845
O O10 0.269656 0.824028 0.728301
O O11 0.145102 0.850158 0.582527
O O12 0.389395 0.118271 0.871175
O O13 0.510773 0.933704 0.587182
O O14 0.878144 0.121857 0.750000
#
# Coordination Sequence:
#
# PCOD9550941 Si02
#       7
#     8   8   8   4   8   8   8
#     4  10  23  46  68  93 134 173 226 297 351 404
#     4  10  22  38  61  92 139 175 224 278 332 411
#     4  11  23  40  64  99 135 181 230 271 340 420
#     4  12  24  46  74  98 136 174 228 274 356 410
#     4  11  25  39  67  96 135 178 222 276 338 407
#     4  11  24  37  56  90 133 184 217 264 326 401
#     4  11  24  47  73  99 130 177 232 295 348 424
#
# _framework density 19.95749
#
# number of rings (size 3 to 8) (size 9 to 14) (size 15 to 20)
#    0.000    1.231    3.846    1.846    8.615    0.000 
#    1.385    0.000    0.000    0.000    0.000    0.000 
#    0.000    0.000    0.000    0.000    0.000    0.000 
#
# Total GULP energy -289673.771240 kJ/mol
# GULP energy per Si atom -5570.649447 kJ/mol
# Density = 1.991207 g / cm^3
# Si number density = 19.957490 Si / 1000 Ang^3
#
#
#
# Elastic Constant Matrix: (Units=GPa)
#
#
# Indices 1 2 3 4 5 6 
#
# 1 77.3567 19.0272 20.8493 0.0000 0.0000 0.0000
# 2 19.0272 77.3619 20.8503 0.0000 0.0000 0.0000
# 3 20.8493 20.8503 61.6206 0.0000 0.0000 0.0000
# 4 0.0000 0.0000 0.0000 31.1473 0.0000 0.0000
# 5 0.0000 0.0000 0.0000 0.0000 31.1470 0.0000
# 6 0.0000 0.0000 0.0000 0.0000 0.0000 10.7141
#
#
#
# Elastic Compliance Matrix: (Units=1/GPa)
#
#
# Indices 1 2 3 4 5 6 
#
# 1 0.014649 -0.002495 -0.004112 0.000000 0.000000 0.000000
# 2 -0.002495 0.014648 -0.004112 0.000000 0.000000 0.000000
# 3 -0.004112 -0.004112 0.019011 0.000000 0.000000 0.000000
# 4 0.000000 0.000000 0.000000 0.032105 0.000000 0.000000
# 5 0.000000 0.000000 0.000000 0.000000 0.032106 0.000000
# 6 0.000000 0.000000 0.000000 0.000000 0.000000 0.093335
#
#
# Mechanical properties :
#
#
# Convention : Reuss Voigt Hill
#
# Bulk Modulus (GPa) = 37.21662 37.53253 37.37458
# Shear Modulus (GPa) = 21.16397 24.97583 23.06990
#
# Velocity S-wave (km/s) = 3.25999 3.54142 3.40362
# Velocity P-wave (km/s) = 5.73223 5.96400 5.84927
#
# Compressibility (1/GPa) = 0.02686971
#
# Stress axis : x y z
#
# Youngs Moduli (GPa) = 68.26356 68.26800 52.60033
#
# Poissons Ratio (x) = 0.17030 0.21632
# Poissons Ratio (y) = 0.17029 0.21631
# Poissons Ratio (z) = 0.28073 0.28074
#
# Static dielectric constant tensor:
#      x y z
#    x 1.739310 0.000000 0.000000 
#    y 0.000000 1.739310 0.000000 
#    z 0.000000 0.000000 1.739370 
# 
# From -- ./inp_files/1556.got.cif
#   From: 2010.05.17/outbox.cif.g08.bks.cpg/sg96_1_cif.got.tgz:1556.got - 2010.06.03 19:52:08.
