data_PCOD9550571
_publ_section_title
;
Structure prediction by ZEFSAII (Michael W. Deem and Ramdas Pophale) SiO2 
 PCOD9550571
Probable space group: P 43 2 2
;
_chemical_formula_sum "Si O2"
_cell_formula_units_Z 40
_cell_length_a 10.650502
_cell_length_b 10.650502
_cell_length_c 16.131408
_cell_angle_alpha 90.000000
_cell_angle_beta 90.000000
_cell_angle_gamma 90.000000
_cell_volume 1829.837115
_symmetry_space_group_name_H-M "P 43 2 2"
_symmetry_group_IT_number 95
_symmetry_cell_setting 'tetragonal'
loop_
_space_group_symop_operation_xyz
x,y,z
-y,x,3/4+z
-x,-y,1/2+z
y,-x,1/4+z
x,-y,1/2-z
-x,y,-z
y,x,1/4-z
-y,-x,3/4-z
loop_
_atom_site_type_symbol
_atom_site_label
_atom_site_fract_x
_atom_site_fract_y
_atom_site_fract_z
Si Si1 0.735700 0.315256 0.565433
Si Si2 0.431564 0.365184 0.211257
Si Si3 0.759414 0.904729 0.174083
Si Si4 0.961675 0.452202 0.657323
Si Si5 0.111109 0.660746 0.556536
O O1 0.626328 0.418226 0.556603
O O2 0.781679 0.286571 0.472593
O O3 0.725196 0.185596 0.616647
O O4 0.836406 0.398319 0.616443
O O5 0.394634 0.500000 0.250000
O O6 0.358439 0.358439 0.125000
O O7 0.396046 0.235293 0.259154
O O8 0.887166 0.887166 0.125000
O O9 0.663522 0.944533 0.103117
O O10 0.764759 0.000000 0.250000
O O11 0.945302 0.500000 0.750000
O O12 0.025148 0.554715 0.598578
O O13 0.000000 0.726394 0.500000
#
# Coordination Sequence:
#
# PCOD9550571 Si02
#       5
#     8   8   8   8   8
#     4  11  24  42  69 104 144 193 248 310 372 452
#     4  12  25  42  68 108 155 185 239 315 376 441
#     4  10  21  42  65  95 134 185 251 313 370 446
#     4  11  23  42  68 100 143 198 247 309 381 445
#     4  12  24  45  68 100 148 199 244 297 389 457
#
# _framework density 21.859870000000001
#
# number of rings (size 3 to 8) (size 9 to 14) (size 15 to 20)
#    0.000    0.800    6.000    1.800    2.800    3.200 
#    0.000    4.000    0.000    1.200    0.000    0.000 
#    0.000    0.000    0.000    0.000    0.000    0.000 
#
# Total GULP energy -222688.007374 kJ/mol
# GULP energy per Si atom -5567.200184 kJ/mol
# Density = 2.181012 g / cm^3
# Si number density = 21.859870 Si / 1000 Ang^3
#
#
#
# Elastic Constant Matrix: (Units=GPa)
#
#
# Indices 1 2 3 4 5 6 
#
# 1 -60.6539 158.4857 31.2391 0.0000 0.0000 0.0000
# 2 158.4857 -60.6539 31.2391 0.0000 0.0000 0.0000
# 3 31.2391 31.2391 86.6999 0.0000 0.0000 0.0000
# 4 0.0000 0.0000 0.0000 22.0569 0.0000 0.0000
# 5 0.0000 0.0000 0.0000 0.0000 22.0569 0.0000
# 6 0.0000 0.0000 0.0000 0.0000 0.0000 11.2897
#
#
#
# Elastic Compliance Matrix: (Units=1/GPa)
#
#
# Indices 1 2 3 4 5 6 
#
# 1 0.004357 0.008920 -0.004784 0.000000 0.000000 0.000000
# 2 0.008920 0.004357 -0.004784 0.000000 0.000000 0.000000
# 3 -0.004784 -0.004784 0.014981 0.000000 0.000000 0.000000
# 4 0.000000 0.000000 0.000000 0.045337 0.000000 0.000000
# 5 0.000000 0.000000 0.000000 0.000000 0.045337 0.000000
# 6 0.000000 0.000000 0.000000 0.000000 0.000000 0.088576
#
#
# Mechanical properties :
#
#
# Convention : Reuss Voigt Hill
#
# Bulk Modulus (GPa) = 44.64355 45.25777 44.95066
# Shear Modulus (GPa) = 23.61756 -5.95740 8.83008
#
# Velocity S-wave (km/s) = 3.29052 -1.65263 2.01201
# Velocity P-wave (km/s) = 5.90793 4.13606 5.09954
#
# Compressibility (1/GPa) = 0.02239965
#
# Stress axis : x y z
#
# Youngs Moduli (GPa) = 229.53232 229.53232 66.74973
#
# Poissons Ratio (x) = -2.04743 0.31931
# Poissons Ratio (y) = -2.04743 0.31931
# Poissons Ratio (z) = 1.09803 1.09803
#
# Static dielectric constant tensor:
#      x y z
#    x 1.869170 0.000000 0.000000 
#    y 0.000000 1.869170 0.000000 
#    z 0.000000 0.000000 1.870870 
# 
# From -- ./inp_files/4800.got.cif
#   From: 2010.05.17/outbox.cif.g08.bks.cpg/sg95_3_cif.got.tgz:4800.got - 2010.06.03 19:46:49.
