data_PCOD9550410
_publ_section_title
;
Structure prediction by ZEFSAII (Michael W. Deem and Ramdas Pophale) SiO2 
 PCOD9550410
Probable space group: P 43 2 2
;
_chemical_formula_sum "Si O2"
_cell_formula_units_Z 48
_cell_length_a 12.301970
_cell_length_b 12.301970
_cell_length_c 14.430909
_cell_angle_alpha 90.000000
_cell_angle_beta 90.000000
_cell_angle_gamma 90.000000
_cell_volume 2183.951629
_symmetry_space_group_name_H-M "P 43 2 2"
_symmetry_group_IT_number 95
_symmetry_cell_setting 'tetragonal'
loop_
_space_group_symop_operation_xyz
x,y,z
-y,x,3/4+z
-x,-y,1/2+z
y,-x,1/4+z
x,-y,1/2-z
-x,y,-z
y,x,1/4-z
-y,-x,3/4-z
loop_
_atom_site_type_symbol
_atom_site_label
_atom_site_fract_x
_atom_site_fract_y
_atom_site_fract_z
Si Si1 0.366605 0.288493 0.878954
Si Si2 0.000000 0.769882 0.000000
Si Si3 0.340334 0.159138 0.613014
Si Si4 0.720035 0.991920 0.547155
Si Si5 0.500000 0.874766 0.500000
Si Si6 0.151812 0.152500 0.903914
Si Si7 0.521220 0.670828 0.183249
O O1 0.249671 0.232825 0.876075
O O2 0.353541 0.394942 0.941925
O O3 0.415002 0.320399 0.779659
O O4 0.445031 0.200184 0.923397
O O5 0.059567 0.844904 0.074801
O O6 0.919441 0.689487 0.052957
O O7 0.259077 0.259077 0.625000
O O8 0.456688 0.216666 0.625996
O O9 0.306851 0.091780 0.523048
O O10 0.600087 0.937902 0.549463
O O11 0.805211 0.908765 0.496592
O O12 0.777818 0.042369 0.637863
O O13 0.573674 0.573674 0.125000
#
# Coordination Sequence:
#
# PCOD9550410 Si02
#       7
#     8   4   8   8   4   8   8
#     4  11  24  43  61  99 132 174 220 264 328 420
#     4  10  16  32  56  84 126 154 192 272 324 364
#     4  10  18  33  57  96 126 155 210 277 326 381
#     4  10  21  38  65  99 130 179 213 281 331 403
#     4  10  26  42  64  92 140 186 218 264 344 402
#     4  10  20  37  63  95 130 164 223 270 333 386
#     4  11  23  38  65  98 126 167 220 278 330 389
#
# _framework density 21.978508000000001
#
# number of rings (size 3 to 8) (size 9 to 14) (size 15 to 20)
#    0.000    1.667    3.333    1.500    4.667    0.000 
#    0.000    0.000    0.000   10.000    0.000    0.000 
#    0.000    0.000    0.000    0.000    0.000    0.000 
#
# Total GULP energy -267973.130102 kJ/mol
# GULP energy per Si atom -5582.773544 kJ/mol
# Density = 2.192848 g / cm^3
# Si number density = 21.978508 Si / 1000 Ang^3
#
#
#
# Elastic Constant Matrix: (Units=GPa)
#
#
# Indices 1 2 3 4 5 6 
#
# 1 103.3868 57.3812 25.0171 0.0000 0.0000 0.0000
# 2 57.3812 103.3868 25.0171 0.0000 0.0000 0.0000
# 3 25.0171 25.0171 48.7201 0.0000 0.0000 0.0000
# 4 0.0000 0.0000 0.0000 22.0490 0.0000 0.0000
# 5 0.0000 0.0000 0.0000 0.0000 22.0490 0.0000
# 6 0.0000 0.0000 0.0000 0.0000 0.0000 16.7954
#
#
#
# Elastic Compliance Matrix: (Units=1/GPa)
#
#
# Indices 1 2 3 4 5 6 
#
# 1 0.014570 -0.007167 -0.003801 0.000000 0.000000 0.000000
# 2 -0.007167 0.014570 -0.003801 0.000000 0.000000 0.000000
# 3 -0.003801 -0.003801 0.024429 0.000000 0.000000 0.000000
# 4 0.000000 0.000000 0.000000 0.045354 0.000000 0.000000
# 5 0.000000 0.000000 0.000000 0.000000 0.045354 0.000000
# 6 0.000000 0.000000 0.000000 0.000000 0.000000 0.059540
#
#
# Mechanical properties :
#
#
# Convention : Reuss Voigt Hill
#
# Bulk Modulus (GPa) = 41.61460 52.25830 46.93645
# Shear Modulus (GPa) = 20.71546 22.05055 21.38300
#
# Velocity S-wave (km/s) = 3.07340 3.17089 3.12253
# Velocity P-wave (km/s) = 5.61869 6.10202 5.86534
#
# Compressibility (1/GPa) = 0.02403003
#
# Stress axis : x y z
#
# Youngs Moduli (GPa) = 68.63490 68.63490 40.93424
#
# Poissons Ratio (x) = 0.49188 0.15561
# Poissons Ratio (y) = 0.49188 0.15561
# Poissons Ratio (z) = 0.26091 0.26091
#
# Static dielectric constant tensor:
#      x y z
#    x 1.844360 0.000000 0.000000 
#    y 0.000000 1.844360 0.000000 
#    z 0.000000 0.000000 1.838070 
# 
# From -- ./inp_files/5703.got.cif
#   From: 2010.05.17/outbox.cif.g08.bks.cpg/sg95_3_cif.got.tgz:5703.got - 2010.06.03 19:46:49.
