data_PCOD9550929
_publ_section_title
;
Structure prediction by ZEFSAII (Michael W. Deem and Ramdas Pophale) SiO2 
 PCOD9550929
Probable space group: P 43 21 2
;
_chemical_formula_sum "Si O2"
_cell_formula_units_Z 52
_cell_length_a 16.991573
_cell_length_b 16.991573
_cell_length_c 8.949531
_cell_angle_alpha 90.000000
_cell_angle_beta 90.000000
_cell_angle_gamma 90.000000
_cell_volume 2583.850893
_symmetry_space_group_name_H-M "P 43 21 2"
_symmetry_group_IT_number 96
_symmetry_cell_setting 'tetragonal'
loop_
_space_group_symop_operation_xyz
x,y,z
1/2-y,1/2+x,3/4+z
-x,-y,1/2+z
1/2+y,1/2-x,1/4+z
1/2+x,1/2-y,1/4-z
1/2-x,1/2+y,3/4-z
y,x,-z
-y,-x,1/2-z
loop_
_atom_site_type_symbol
_atom_site_label
_atom_site_fract_x
_atom_site_fract_y
_atom_site_fract_z
Si Si1 0.083909 0.024224 0.841330
Si Si2 0.663394 0.860157 0.195022
Si Si3 0.695779 0.415812 0.974302
Si Si4 0.969074 0.416648 0.008865
Si Si5 0.516308 0.172084 0.692178
Si Si6 0.244314 0.555205 0.799904
Si Si7 0.727621 0.272379 0.750000
O O1 0.072434 0.103174 0.742256
O O2 0.176785 0.019573 0.877341
O O3 0.040366 0.040366 0.000000
O O4 0.047687 0.952314 0.750000
O O5 0.571158 0.856255 0.219820
O O6 0.710558 0.875321 0.346255
O O7 0.693520 0.788144 0.092711
O O8 0.680884 0.936806 0.094865
O O9 0.730028 0.410047 0.140772
O O10 0.745200 0.484203 0.894198
O O11 0.715150 0.340338 0.873489
O O12 0.040450 0.455562 0.915878
O O13 0.063796 0.391630 0.659420
O O14 0.991808 0.325598 0.028103
#
# Coordination Sequence:
#
# PCOD9550929 Si02
#       7
#     8   8   8   8   8   8   4
#     4  10  23  42  71  93 123 171 226 284 348 404
#     4  11  23  37  62  91 128 172 220 271 334 411
#     4  10  21  43  64  93 126 172 217 279 341 400
#     4  12  23  39  65  97 141 184 222 273 337 413
#     4  11  22  38  62  95 132 176 222 266 337 414
#     4  11  23  39  66  97 130 170 227 278 340 407
#     4  10  22  40  66  86 130 172 214 276 338 398
#
# _framework density 20.125001999999999
#
# number of rings (size 3 to 8) (size 9 to 14) (size 15 to 20)
#    0.000    1.231    4.615    0.923    3.231    0.000 
#    1.385    0.000   10.154    0.000    0.000    0.000 
#    0.000    0.000    0.000    0.000    0.000    0.000 
#
# Total GULP energy -290540.945579 kJ/mol
# GULP energy per Si atom -5587.325877 kJ/mol
# Density = 2.007920 g / cm^3
# Si number density = 20.125002 Si / 1000 Ang^3
#
#
#
# Elastic Constant Matrix: (Units=GPa)
#
#
# Indices 1 2 3 4 5 6 
#
# 1 79.7595 43.8352 35.8592 0.0000 0.0000 0.0000
# 2 43.8352 79.7647 35.8590 0.0000 0.0000 0.0000
# 3 35.8592 35.8590 73.5865 0.0000 0.0000 0.0000
# 4 0.0000 0.0000 0.0000 24.2325 0.0000 0.0000
# 5 0.0000 0.0000 0.0000 0.0000 24.2320 0.0000
# 6 0.0000 0.0000 0.0000 0.0000 0.0000 21.2769
#
#
#
# Elastic Compliance Matrix: (Units=1/GPa)
#
#
# Indices 1 2 3 4 5 6 
#
# 1 0.019558 -0.008277 -0.005498 0.000000 0.000000 0.000000
# 2 -0.008277 0.019557 -0.005497 0.000000 0.000000 0.000000
# 3 -0.005498 -0.005497 0.018947 0.000000 0.000000 0.000000
# 4 0.000000 0.000000 0.000000 0.041267 0.000000 0.000000
# 5 0.000000 0.000000 0.000000 0.000000 0.041268 0.000000
# 6 0.000000 0.000000 0.000000 0.000000 0.000000 0.046999
#
#
# Mechanical properties :
#
#
# Convention : Reuss Voigt Hill
#
# Bulk Modulus (GPa) = 51.23020 51.57971 51.40495
# Shear Modulus (GPa) = 21.49204 21.78543 21.63874
#
# Velocity S-wave (km/s) = 3.27146 3.29372 3.28261
# Velocity P-wave (km/s) = 6.30723 6.33641 6.32184
#
# Compressibility (1/GPa) = 0.01951974
#
# Stress axis : x y z
#
# Youngs Moduli (GPa) = 51.12930 51.13380 52.77898
#
# Poissons Ratio (x) = 0.42323 0.29015
# Poissons Ratio (y) = 0.42319 0.29010
# Poissons Ratio (z) = 0.28108 0.28106
#
# Static dielectric constant tensor:
#      x y z
#    x 1.720770 0.000000 0.000000 
#    y 0.000000 1.720760 0.000000 
#    z 0.000000 0.000000 1.743450 
# 
# From -- ./inp_files/1554.got.cif
#   From: 2010.05.17/outbox.cif.g08.bks.cpg/sg96_1_cif.got.tgz:1554.got - 2010.06.03 19:52:08.
