data_PCOD9550673
_publ_section_title
;
Structure prediction by ZEFSAII (Michael W. Deem and Ramdas Pophale) SiO2 
 PCOD9550673
Probable space group: P 43 2 2
;
_chemical_formula_sum "Si O2"
_cell_formula_units_Z 40
_cell_length_a 8.740919
_cell_length_b 8.740919
_cell_length_c 24.501155
_cell_angle_alpha 90.000000
_cell_angle_beta 90.000000
_cell_angle_gamma 90.000000
_cell_volume 1871.978038
_symmetry_space_group_name_H-M "P 43 2 2"
_symmetry_group_IT_number 95
_symmetry_cell_setting 'tetragonal'
loop_
_space_group_symop_operation_xyz
x,y,z
-y,x,3/4+z
-x,-y,1/2+z
y,-x,1/4+z
x,-y,1/2-z
-x,y,-z
y,x,1/4-z
-y,-x,3/4-z
loop_
_atom_site_type_symbol
_atom_site_label
_atom_site_fract_x
_atom_site_fract_y
_atom_site_fract_z
Si Si1 0.437380 0.000000 0.250000
Si Si2 0.326320 0.533104 0.157201
Si Si3 0.159469 0.840532 0.875000
Si Si4 0.766423 0.711716 0.739485
Si Si5 0.111506 0.696354 0.070206
Si Si6 0.322879 0.125400 0.515441
O O1 0.321234 0.868109 0.266480
O O2 0.560048 0.999690 0.299399
O O3 0.475757 0.475757 0.125000
O O4 0.246923 0.383301 0.183618
O O5 0.334089 0.634552 0.211752
O O6 0.221548 0.623081 0.114976
O O7 0.166475 0.712823 0.828049
O O8 0.997013 0.824112 0.904438
O O9 0.944097 0.714302 0.756939
O O10 0.214195 0.770790 0.022665
O O11 0.500000 0.147767 0.500000
#
# Coordination Sequence:
#
# PCOD9550673 Si02
#       6
#     4   8   4   8   8   8
#     4  12  26  44  72 108 138 186 234 294 350 428
#     4  11  23  47  72 103 143 184 237 291 353 425
#     4  12  24  50  74 102 148 186 244 298 354 432
#     4  11  25  46  74 103 144 185 240 292 353 424
#     4  12  26  47  71 106 144 189 238 291 361 422
#     4  12  26  49  73 107 144 188 242 297 360 432
#
# _framework density 21.367771999999999
#
# number of rings (size 3 to 8) (size 9 to 14) (size 15 to 20)
#    0.000    0.400    8.000    0.000    2.800    4.800 
#    5.400    0.000    0.000    0.000    0.000    0.000 
#    0.000    0.000    0.000    0.000    0.000    0.000 
#
# Total GULP energy -223309.652388 kJ/mol
# GULP energy per Si atom -5582.741310 kJ/mol
# Density = 2.131914 g / cm^3
# Si number density = 21.367772 Si / 1000 Ang^3
#
#
#
# Elastic Constant Matrix: (Units=GPa)
#
#
# Indices 1 2 3 4 5 6 
#
# 1 53.1467 67.7472 23.8892 0.0000 0.0000 0.0000
# 2 67.7472 53.1474 23.8888 0.0000 0.0000 0.0000
# 3 23.8892 23.8888 112.1359 0.0000 0.0000 0.0000
# 4 0.0000 0.0000 0.0000 2313.0673 0.0000 0.0000
# 5 0.0000 0.0000 0.0000 0.0000 2316.0521 0.0000
# 6 0.0000 0.0000 0.0000 0.0000 0.0000 32.4570
#
#
#
# Elastic Compliance Matrix: (Units=1/GPa)
#
#
# Indices 1 2 3 4 5 6 
#
# 1 -0.029730 0.038762 -0.001924 0.000000 0.000000 0.000000
# 2 0.038762 -0.029730 -0.001924 0.000000 0.000000 0.000000
# 3 -0.001924 -0.001924 0.009738 0.000000 0.000000 0.000000
# 4 0.000000 0.000000 0.000000 0.000432 0.000000 0.000000
# 5 0.000000 0.000000 0.000000 0.000000 0.000432 0.000000
# 6 0.000000 0.000000 0.000000 0.000000 0.000000 0.030810
#
#
# Mechanical properties :
#
#
# Convention : Reuss Voigt Hill
#
# Bulk Modulus (GPa) = 49.73846 49.94228 49.84037
# Shear Modulus (GPa) = -61.59535 939.17562 438.79013
#
# Velocity S-wave (km/s) = -5.37484 20.98769 14.34563
# Velocity P-wave (km/s) = 3.89752 24.71304 17.25607
#
# Compressibility (1/GPa) = 0.02010517
#
# Stress axis : x y z
#
# Youngs Moduli (GPa) = -33.63552 -33.63615 102.69488
#
# Poissons Ratio (x) = 1.30382 0.19758
# Poissons Ratio (y) = 1.30379 0.19762
# Poissons Ratio (z) = -0.06471 -0.06473
#
# Static dielectric constant tensor:
#      x y z
#    x -2.956090 0.000000 0.000000 
#    y 0.000000 -2.962400 0.000000 
#    z 0.000000 0.000000 1.781050 
# 
# From -- ./inp_files/6912.got.cif
#   From: 2010.05.17/outbox.cif.g08.bks.cpg/sg95_4_cif.got.tgz:6912.got - 2010.06.03 19:46:49.
