data_PCOD9550699
_publ_section_title
;
Structure prediction by ZEFSAII (Michael W. Deem and Ramdas Pophale) SiO2 
 PCOD9550699
Probable space group: P 43 2 2
;
_chemical_formula_sum "Si O2"
_cell_formula_units_Z 48
_cell_length_a 12.000000
_cell_length_b 12.000000
_cell_length_c 18.000000
_cell_angle_alpha 90.000000
_cell_angle_beta 90.000000
_cell_angle_gamma 90.000000
_cell_volume 2592.000000
_symmetry_space_group_name_H-M "P 43 2 2"
_symmetry_group_IT_number 95
_symmetry_cell_setting 'tetragonal'
loop_
_space_group_symop_operation_xyz
x,y,z
-y,x,3/4+z
-x,-y,1/2+z
y,-x,1/4+z
x,-y,1/2-z
-x,y,-z
y,x,1/4-z
-y,-x,3/4-z
loop_
_atom_site_type_symbol
_atom_site_label
_atom_site_fract_x
_atom_site_fract_y
_atom_site_fract_z
Si Si1 0.245116 0.879361 0.533839
Si Si2 0.775140 0.789394 0.932319
Si Si3 0.949838 0.416799 0.358827
Si Si4 0.602344 0.298695 0.450785
Si Si5 0.183366 0.000000 0.250000
Si Si6 0.028097 0.329286 0.144339
Si Si7 0.000000 0.718507 0.000000
O O1 0.257877 0.785047 0.597861
O O2 0.109698 0.887185 0.524923
O O3 0.321549 0.980277 0.565438
O O4 0.294312 0.873530 0.450767
O O5 0.722265 0.911563 0.925343
O O6 0.703701 0.718254 0.990859
O O7 0.902164 0.790537 0.962472
O O8 0.826811 0.429848 0.325526
O O9 0.010501 0.537185 0.359394
O O10 0.944236 0.363356 0.440159
O O11 0.500000 0.344995 0.500000
O O12 0.636758 0.363243 0.375000
O O13 0.265505 0.960286 0.316153
#
# Coordination Sequence:
#
# PCOD9550699 Si02
#       7
#     8   8   8   8   4   8   4
#     4  10  21  36  56  86 130 162 207 252 316 382
#     4  10  21  35  56  90 123 160 206 254 312 381
#     4  11  20  36  64  90 124 160 220 263 306 384
#     4  12  22  40  66  94 123 167 214 273 326 378
#     4  10  23  37  56  86 134 177 210 255 330 412
#     4  11  20  38  58  87 124 172 220 255 312 377
#     4  10  21  35  54  96 126 151 196 261 328 368
#
# _framework density 18.518519000000001
#
# number of rings (size 3 to 8) (size 9 to 14) (size 15 to 20)
#    0.000    1.333    5.000    1.500    0.000    0.667 
#    0.000    3.333    0.000    4.000    0.000    0.000 
#    0.000    0.000    0.000    0.000    0.000    0.000 
#
# Total GULP energy -267421.397380 kJ/mol
# GULP energy per Si atom -5571.279112 kJ/mol
# Density = 1.847637 g / cm^3
# Si number density = 18.518519 Si / 1000 Ang^3
#
#
#
# Elastic Constant Matrix: (Units=GPa)
#
#
# Indices 1 2 3 4 5 6 
#
# 1 79.4300 24.1071 23.9603 0.0000 0.0000 0.0000
# 2 24.1071 79.4301 23.9604 0.0000 0.0000 0.0000
# 3 23.9603 23.9604 134.6116 0.0000 0.0000 0.0000
# 4 0.0000 0.0000 0.0000 34.9368 0.0000 0.0000
# 5 0.0000 0.0000 0.0000 0.0000 34.9366 0.0000
# 6 0.0000 0.0000 0.0000 0.0000 0.0000 16.6887
#
#
#
# Elastic Compliance Matrix: (Units=1/GPa)
#
#
# Indices 1 2 3 4 5 6 
#
# 1 0.014301 -0.003775 -0.001873 0.000000 0.000000 0.000000
# 2 -0.003775 0.014301 -0.001874 0.000000 0.000000 0.000000
# 3 -0.001873 -0.001874 0.008096 0.000000 0.000000 0.000000
# 4 0.000000 0.000000 0.000000 0.028623 0.000000 0.000000
# 5 0.000000 0.000000 0.000000 0.000000 0.028623 0.000000
# 6 0.000000 0.000000 0.000000 0.000000 0.000000 0.059921
#
#
# Mechanical properties :
#
#
# Convention : Reuss Voigt Hill
#
# Bulk Modulus (GPa) = 46.18355 48.61413 47.39884
# Shear Modulus (GPa) = 28.38879 32.07535 30.23207
#
# Velocity S-wave (km/s) = 3.91960 4.16633 4.04484
# Velocity P-wave (km/s) = 6.74371 7.03228 6.88951
#
# Compressibility (1/GPa) = 0.02165273
#
# Stress axis : x y z
#
# Youngs Moduli (GPa) = 69.92723 69.92723 123.52187
#
# Poissons Ratio (x) = 0.26398 0.23142
# Poissons Ratio (y) = 0.26398 0.23142
# Poissons Ratio (z) = 0.13101 0.13101
#
# Static dielectric constant tensor:
#      x y z
#    x 1.634480 0.000000 0.000000 
#    y 0.000000 1.634480 0.000000 
#    z 0.000000 0.000000 1.742600 
# 
# From -- ./inp_files/5711.got.cif
#   From: 2010.05.17/outbox.ucp.g08.bks.cvg/sg95_3_cif.got.tgz:5711.got - 2010.06.11 10:37:16.
