data_PCOD9550407
_publ_section_title
;
Structure prediction by ZEFSAII (Michael W. Deem and Ramdas Pophale) SiO2 
 PCOD9550407
Probable space group: P 43 2 2
;
_chemical_formula_sum "Si O2"
_cell_formula_units_Z 56
_cell_length_a 26.135495
_cell_length_b 26.135495
_cell_length_c 5.435777
_cell_angle_alpha 90.000000
_cell_angle_beta 90.000000
_cell_angle_gamma 90.000000
_cell_volume 3712.984118
_symmetry_space_group_name_H-M "P 43 2 2"
_symmetry_group_IT_number 95
_symmetry_cell_setting 'tetragonal'
loop_
_space_group_symop_operation_xyz
x,y,z
-y,x,3/4+z
-x,-y,1/2+z
y,-x,1/4+z
x,-y,1/2-z
-x,y,-z
y,x,1/4-z
-y,-x,3/4-z
loop_
_atom_site_type_symbol
_atom_site_label
_atom_site_fract_x
_atom_site_fract_y
_atom_site_fract_z
Si Si1 0.025760 0.335894 0.246037
Si Si2 0.332230 0.753177 0.402748
Si Si3 0.064080 0.557914 0.260084
Si Si4 0.222201 0.361032 0.660510
Si Si5 0.714165 0.132695 0.909271
Si Si6 0.165398 0.250786 0.652251
Si Si7 0.558505 0.869115 0.012421
O O1 0.022701 0.397430 0.243493
O O2 0.085306 0.322807 0.209412
O O3 0.000000 0.317818 0.500000
O O4 0.000000 0.314870 0.000000
O O5 0.281544 0.718457 0.375000
O O6 0.363312 0.747332 0.654993
O O7 0.316382 0.813427 0.403576
O O8 0.363874 0.744196 0.155440
O O9 0.043321 0.500000 0.250000
O O10 0.098781 0.565062 0.507701
O O11 0.096439 0.563475 0.007749
O O12 0.198847 0.303222 0.654045
O O13 0.175920 0.400590 0.698317
O O14 0.744890 0.132845 0.652578
O O15 0.748851 0.133677 0.151560
O O16 0.204338 0.204338 0.625000
O O17 0.500000 0.849536 0.000000
#
# Coordination Sequence:
#
# PCOD9550407 Si02
#       7
#     8   8   8   8   8   8   8
#     4  12  24  35  46  60  79 109 148 179 217 271
#     4  10  18  28  45  67  84 100 125 159 217 272
#     4  10  20  34  48  59  74  97 136 193 238 264
#     4  10  16  25  40  59  86 107 122 156 201 253
#     4  10  18  30  43  58  83 105 124 162 206 249
#     4  10  17  27  46  68  84 100 125 159 217 273
#     4  10  19  31  47  65  81 106 142 174 219 276
#
# _framework density 15.082208
#
# number of rings (size 3 to 8) (size 9 to 14) (size 15 to 20)
#    0.000    1.714    0.000   10.286    0.000    0.571 
#    0.000    0.000    0.000    0.000    0.000    0.000 
#    0.000    0.000    0.000    0.000    0.000    0.000 
#
# Total GULP energy -311947.890291 kJ/mol
# GULP energy per Si atom -5570.498041 kJ/mol
# Density = 1.504788 g / cm^3
# Si number density = 15.082208 Si / 1000 Ang^3
#
#
#
# Elastic Constant Matrix: (Units=GPa)
#
#
# Indices 1 2 3 4 5 6 
#
# 1 31.9784 6.9850 14.5049 0.0000 0.0000 0.0000
# 2 6.9850 31.9838 14.4981 0.0000 0.0000 0.0000
# 3 14.5049 14.4981 158.1521 0.0000 0.0000 0.0000
# 4 0.0000 0.0000 0.0000 16.5688 0.0000 0.0000
# 5 0.0000 0.0000 0.0000 0.0000 16.5689 0.0000
# 6 0.0000 0.0000 0.0000 0.0000 0.0000 2.0813
#
#
#
# Elastic Compliance Matrix: (Units=1/GPa)
#
#
# Indices 1 2 3 4 5 6 
#
# 1 0.033778 -0.006232 -0.002527 0.000000 0.000000 0.000000
# 2 -0.006232 0.033771 -0.002524 0.000000 0.000000 0.000000
# 3 -0.002527 -0.002524 0.006786 0.000000 0.000000 0.000000
# 4 0.000000 0.000000 0.000000 0.060355 0.000000 0.000000
# 5 0.000000 0.000000 0.000000 0.000000 0.060354 0.000000
# 6 0.000000 0.000000 0.000000 0.000000 0.000000 0.480467
#
#
# Mechanical properties :
#
#
# Convention : Reuss Voigt Hill
#
# Bulk Modulus (GPa) = 19.31610 32.67671 25.99640
# Shear Modulus (GPa) = 6.98975 19.45222 13.22098
#
# Velocity S-wave (km/s) = 2.15511 3.59520 2.96395
# Velocity P-wave (km/s) = 4.36207 6.24073 5.38398
#
# Compressibility (1/GPa) = 0.05177029
#
# Stress axis : x y z
#
# Youngs Moduli (GPa) = 29.60480 29.61123 147.35847
#
# Poissons Ratio (x) = 0.18452 0.37233
# Poissons Ratio (y) = 0.18448 0.37198
# Poissons Ratio (z) = 0.07480 0.07475
#
# Static dielectric constant tensor:
#      x y z
#    x 1.525870 0.000000 0.000000 
#    y 0.000000 1.525870 0.000000 
#    z 0.000000 0.000000 1.648330 
# 
# From -- ./inp_files/1496.got.cif
#   From: 2010.05.17/outbox.cif.g08.bks.cpg/sg95_1_cif.got.tgz:1496.got - 2010.06.03 19:46:49.
