data_PCOD9550176
_publ_section_title
;
Structure prediction by ZEFSAII (Michael W. Deem and Ramdas Pophale) SiO2 
 PCOD9550176
Probable space group: P 42 21 2
;
_chemical_formula_sum "Si O2"
_cell_formula_units_Z 56
_cell_length_a 15.209700
_cell_length_b 15.209700
_cell_length_c 10.955506
_cell_angle_alpha 90.000000
_cell_angle_beta 90.000000
_cell_angle_gamma 90.000000
_cell_volume 2534.391697
_symmetry_space_group_name_H-M "P 42 21 2"
_symmetry_group_IT_number 94
_symmetry_cell_setting 'tetragonal'
loop_
_space_group_symop_operation_xyz
x,y,z
1/2-y,1/2+x,1/2+z
-x,-y,z
1/2+y,1/2-x,1/2+z
1/2+x,1/2-y,1/2-z
1/2-x,1/2+y,1/2-z
y,x,-z
-y,-x,-z
loop_
_atom_site_type_symbol
_atom_site_label
_atom_site_fract_x
_atom_site_fract_y
_atom_site_fract_z
Si Si1 0.504499 0.907417 0.378331
Si Si2 0.848742 0.368895 0.288407
Si Si3 0.665082 0.170049 0.260764
Si Si4 0.146009 0.169803 0.645404
Si Si5 0.177130 0.853836 0.633775
Si Si6 0.018208 0.901341 0.805397
Si Si7 0.230059 0.473300 0.432859
O O1 0.570631 0.922471 0.267236
O O2 0.410220 0.878186 0.333645
O O3 0.543530 0.821685 0.444116
O O4 0.500000 0.000000 0.449807
O O5 0.773445 0.354391 0.184361
O O6 0.883481 0.277137 0.343469
O O7 0.804167 0.431633 0.387905
O O8 0.635159 0.263166 0.205174
O O9 0.748923 0.184969 0.346404
O O10 0.698888 0.103782 0.157119
O O11 0.151306 0.151306 0.500000
O O12 0.059884 0.130230 0.712311
O O13 0.136070 0.863931 0.500000
O O14 0.109722 0.892817 0.731803
O O15 0.022239 0.834370 0.918977
O O16 0.000000 0.000000 0.841055
#
# Coordination Sequence:
#
# PCOD9550176 Si02
#       7
#     8   8   8   8   8   8   8
#     4  12  24  37  68 100 131 171 215 265 344 391
#     4  10  22  41  61  94 129 164 217 270 321 412
#     4  10  22  41  61  94 129 164 217 270 321 412
#     4  10  22  40  65  89 126 170 218 270 335 381
#     4  10  22  40  65  89 126 170 218 270 335 381
#     4  10  24  41  63  93 129 168 226 277 316 400
#     4  10  22  44  63  93 134 167 215 272 332 401
#
# _framework density 22.096031
#
# number of rings (size 3 to 8) (size 9 to 14) (size 15 to 20)
#    0.000    1.714    1.429    1.714    6.000    0.000 
#    0.000    0.000    3.143    0.000    0.000    0.000 
#    0.000    0.000    0.000    0.000    0.000    0.000 
#
# Total GULP energy -312833.504281 kJ/mol
# GULP energy per Si atom -5586.312576 kJ/mol
# Density = 2.204574 g / cm^3
# Si number density = 22.096031 Si / 1000 Ang^3
#
#
#
# Elastic Constant Matrix: (Units=GPa)
#
#
# Indices 1 2 3 4 5 6 
#
# 1 94.1065 5.5757 3.5226 0.0000 0.0000 0.0000
# 2 5.5757 94.1065 3.5225 0.0000 0.0000 0.0000
# 3 3.5226 3.5225 26.7800 0.0000 0.0000 0.0000
# 4 0.0000 0.0000 0.0000 18.1444 0.0000 0.0000
# 5 0.0000 0.0000 0.0000 0.0000 18.1445 0.0000
# 6 0.0000 0.0000 0.0000 0.0000 0.0000 25.1204
#
#
#
# Elastic Compliance Matrix: (Units=1/GPa)
#
#
# Indices 1 2 3 4 5 6 
#
# 1 0.010711 -0.000585 -0.001332 0.000000 0.000000 0.000000
# 2 -0.000585 0.010711 -0.001332 0.000000 0.000000 0.000000
# 3 -0.001332 -0.001332 0.037692 0.000000 0.000000 0.000000
# 4 0.000000 0.000000 0.000000 0.055113 0.000000 0.000000
# 5 0.000000 0.000000 0.000000 0.000000 0.055113 0.000000
# 6 0.000000 0.000000 0.000000 0.000000 0.000000 0.039808
#
#
# Mechanical properties :
#
#
# Convention : Reuss Voigt Hill
#
# Bulk Modulus (GPa) = 19.00564 26.69273 22.84918
# Shear Modulus (GPa) = 21.44231 25.77335 23.60783
#
# Velocity S-wave (km/s) = 3.11853 3.41900 3.27221
# Velocity P-wave (km/s) = 4.64618 5.26238 4.96385
#
# Compressibility (1/GPa) = 0.05261597
#
# Stress axis : x y z
#
# Youngs Moduli (GPa) = 93.36406 93.36402 26.53103
#
# Poissons Ratio (x) = 0.05459 0.03534
# Poissons Ratio (y) = 0.05459 0.03534
# Poissons Ratio (z) = 0.12436 0.12436
#
# Static dielectric constant tensor:
#      x y z
#    x 1.821280 0.000000 0.000000 
#    y 0.000000 1.821280 0.000000 
#    z 0.000000 0.000000 1.831390 
# 
# From -- ./inp_files/2725.got.cif
#   From: 2010.05.17/outbox.cif.g08.bks.cpg/sg94_2_cif.got.tgz:2725.got - 2010.06.03 19:43:16.
