data_PCOD9550600
_publ_section_title
;
Structure prediction by ZEFSAII (Michael W. Deem and Ramdas Pophale) SiO2 
 PCOD9550600
Probable space group: P 43 2 2
;
_chemical_formula_sum "Si O2"
_cell_formula_units_Z 36
_cell_length_a 9.318741
_cell_length_b 9.318741
_cell_length_c 15.032121
_cell_angle_alpha 90.000000
_cell_angle_beta 90.000000
_cell_angle_gamma 90.000000
_cell_volume 1305.373361
_symmetry_space_group_name_H-M "P 43 2 2"
_symmetry_group_IT_number 95
_symmetry_cell_setting 'tetragonal'
loop_
_space_group_symop_operation_xyz
x,y,z
-y,x,3/4+z
-x,-y,1/2+z
y,-x,1/4+z
x,-y,1/2-z
-x,y,-z
y,x,1/4-z
-y,-x,3/4-z
loop_
_atom_site_type_symbol
_atom_site_label
_atom_site_fract_x
_atom_site_fract_y
_atom_site_fract_z
Si Si1 0.502956 0.699133 0.838909
Si Si2 0.212014 0.040982 0.043452
Si Si3 0.507479 0.000037 0.090676
Si Si4 0.211518 0.706390 0.071572
Si Si5 0.000000 0.253579 0.000000
O O1 0.451124 0.548877 0.875000
O O2 0.673658 0.694016 0.846451
O O3 0.407179 0.728767 0.752434
O O4 0.468684 0.829115 0.906064
O O5 0.188214 0.869679 0.038782
O O6 0.383532 0.045673 0.014688
O O7 0.132520 0.132520 0.125000
O O8 0.124083 0.138070 0.973266
O O9 0.631395 0.067305 0.149366
O O10 0.365785 0.015760 0.166561
#
# Coordination Sequence:
#
# PCOD9550600 Si02
#       5
#     8   8   8   8   4
#     4  11  24  45  69  99 139 180 238 295 347 425
#     4  10  23  41  67  97 136 175 226 278 349 406
#     4  11  24  43  66 100 136 179 232 286 351 420
#     4  11  25  43  70 100 135 187 235 286 363 418
#     4  10  22  42  64  98 138 170 222 282 336 426
#
# _framework density 27.578316999999998
#
# number of rings (size 3 to 8) (size 9 to 14) (size 15 to 20)
#    0.000    1.333    0.000    5.333    9.333    1.778 
#    4.000    0.000    0.000    0.000    0.000    0.000 
#    0.000    0.000    0.000    0.000    0.000    0.000 
#
# Total GULP energy -200411.976588 kJ/mol
# GULP energy per Si atom -5566.999350 kJ/mol
# Density = 2.751555 g / cm^3
# Si number density = 27.578317 Si / 1000 Ang^3
#
#
#
# Elastic Constant Matrix: (Units=GPa)
#
#
# Indices 1 2 3 4 5 6 
#
# 1 186.0251 106.9584 26.9916 0.0000 0.0000 0.0000
# 2 106.9584 186.0259 26.9918 0.0000 0.0000 0.0000
# 3 26.9916 26.9918 68.4048 0.0000 0.0000 0.0000
# 4 0.0000 0.0000 0.0000 54.0264 0.0000 0.0000
# 5 0.0000 0.0000 0.0000 0.0000 54.0256 0.0000
# 6 0.0000 0.0000 0.0000 0.0000 0.0000 61.5823
#
#
#
# Elastic Compliance Matrix: (Units=1/GPa)
#
#
# Indices 1 2 3 4 5 6 
#
# 1 0.008164 -0.004483 -0.001452 0.000000 0.000000 0.000000
# 2 -0.004483 0.008164 -0.001452 0.000000 0.000000 0.000000
# 3 -0.001452 -0.001452 0.015765 0.000000 0.000000 0.000000
# 4 0.000000 0.000000 0.000000 0.018509 0.000000 0.000000
# 5 0.000000 0.000000 0.000000 0.000000 0.018510 0.000000
# 6 0.000000 0.000000 0.000000 0.000000 0.000000 0.016238
#
#
# Mechanical properties :
#
#
# Convention : Reuss Voigt Hill
#
# Bulk Modulus (GPa) = 57.74664 84.70438 71.22551
# Shear Modulus (GPa) = 47.21457 52.56113 49.88785
#
# Velocity S-wave (km/s) = 4.14214 4.37038 4.25779
# Velocity P-wave (km/s) = 6.62277 7.49985 7.07492
#
# Compressibility (1/GPa) = 0.01731702
#
# Stress axis : x y z
#
# Youngs Moduli (GPa) = 122.48694 122.48736 63.43152
#
# Poissons Ratio (x) = 0.54915 0.09213
# Poissons Ratio (y) = 0.54915 0.09213
# Poissons Ratio (z) = 0.17790 0.17790
#
# Static dielectric constant tensor:
#      x y z
#    x 2.400360 0.000000 0.000000 
#    y 0.000000 2.400360 0.000000 
#    z 0.000000 0.000000 -1.004710 
# 
# From -- ./inp_files/7292.got.cif
#   From: 2010.05.17/outbox.cif.g08.bks.cpg/sg95_4_cif.got.tgz:7292.got - 2010.06.03 19:46:49.
