data_PCOD9550116
_publ_section_title
;
Structure prediction by ZEFSAII (Michael W. Deem and Ramdas Pophale) SiO2 
 PCOD9550116
Probable space group: P 42 21 2
;
_chemical_formula_sum "Si O2"
_cell_formula_units_Z 58
_cell_length_a 17.399397
_cell_length_b 17.399397
_cell_length_c 9.166654
_cell_angle_alpha 90.000000
_cell_angle_beta 90.000000
_cell_angle_gamma 90.000000
_cell_volume 2775.103812
_symmetry_space_group_name_H-M "P 42 21 2"
_symmetry_group_IT_number 94
_symmetry_cell_setting 'tetragonal'
loop_
_space_group_symop_operation_xyz
x,y,z
1/2-y,1/2+x,1/2+z
-x,-y,z
1/2+y,1/2-x,1/2+z
1/2+x,1/2-y,1/2-z
1/2-x,1/2+y,1/2-z
y,x,-z
-y,-x,-z
loop_
_atom_site_type_symbol
_atom_site_label
_atom_site_fract_x
_atom_site_fract_y
_atom_site_fract_z
Si Si1 0.988211 0.165361 0.634412
Si Si2 0.626826 0.242682 0.004531
Si Si3 0.636631 0.745294 0.399018
Si Si4 0.572766 0.117709 0.208219
Si Si5 0.411852 0.914317 0.539179
Si Si6 0.760765 0.139265 0.561621
Si Si7 0.520342 0.781960 0.618065
Si Si8 0.000000 0.000000 0.500000
O O1 0.914615 0.188485 0.540803
O O2 0.981343 0.202514 0.793910
O O3 0.056759 0.216395 0.571261
O O4 0.001601 0.075668 0.602917
O O5 0.591408 0.204635 0.152434
O O6 0.692658 0.307343 0.000000
O O7 0.670180 0.175078 0.916421
O O8 0.686137 0.686137 0.500000
O O9 0.637164 0.720656 0.232292
O O10 0.551070 0.757337 0.459549
O O11 0.554909 0.094266 0.374944
O O12 0.657710 0.082191 0.182261
O O13 0.500520 0.086055 0.110245
O O14 0.323147 0.893137 0.537865
O O15 0.449201 0.840604 0.620252
O O16 0.775382 0.224619 0.500000
#
# Coordination Sequence:
#
# PCOD9550116 Si02
#       8
#     8   8   8   8   8   8   8   2
#     4  12  23  45  69 102 130 187 243 304 367 446
#     4  10  21  39  69  96 141 180 238 290 365 434
#     4  10  23  41  67  99 134 188 227 293 369 436
#     4  11  23  43  69 109 148 204 237 302 364 465
#     4  12  25  41  70 103 153 193 246 294 377 446
#     4  12  24  41  69  98 135 181 242 298 357 443
#     4  11  24  42  68 101 148 185 241 292 366 449
#     4  12  28  44  80  98 136 184 258 324 386 438
#
# _framework density 20.900119
#
# number of rings (size 3 to 8) (size 9 to 14) (size 15 to 20)
#    0.000    0.828    4.138    2.897    3.862    4.414 
#    0.000    0.000    0.000    0.828    0.000    0.000 
#    0.000    0.000    0.000    0.000    0.000    0.000 
#
# Total GULP energy -323050.083011 kJ/mol
# GULP energy per Si atom -5569.829017 kJ/mol
# Density = 2.085255 g / cm^3
# Si number density = 20.900119 Si / 1000 Ang^3
#
#
#
# Elastic Constant Matrix: (Units=GPa)
#
#
# Indices 1 2 3 4 5 6 
#
# 1 89.1977 -0.7511 26.4627 0.0000 0.0000 0.0000
# 2 -0.7511 89.1894 26.4609 0.0000 0.0000 0.0000
# 3 26.4627 26.4609 124.4572 0.0000 0.0000 0.0000
# 4 0.0000 0.0000 0.0000 25.1004 0.0000 0.0000
# 5 0.0000 0.0000 0.0000 0.0000 25.1108 0.0000
# 6 0.0000 0.0000 0.0000 0.0000 0.0000 15.6442
#
#
#
# Elastic Compliance Matrix: (Units=1/GPa)
#
#
# Indices 1 2 3 4 5 6 
#
# 1 0.012036 0.000919 -0.002754 0.000000 0.000000 0.000000
# 2 0.000919 0.012037 -0.002755 0.000000 0.000000 0.000000
# 3 -0.002754 -0.002755 0.009206 0.000000 0.000000 0.000000
# 4 0.000000 0.000000 0.000000 0.039840 0.000000 0.000000
# 5 0.000000 0.000000 0.000000 0.000000 0.039823 0.000000
# 6 0.000000 0.000000 0.000000 0.000000 0.000000 0.063922
#
#
# Mechanical properties :
#
#
# Convention : Reuss Voigt Hill
#
# Bulk Modulus (GPa) = 41.49651 45.24324 43.36987
# Shear Modulus (GPa) = 25.76284 29.88252 27.82268
#
# Velocity S-wave (km/s) = 3.51474 3.78534 3.65255
# Velocity P-wave (km/s) = 6.03067 6.38744 6.21162
#
# Compressibility (1/GPa) = 0.02409841
#
# Stress axis : x y z
#
# Youngs Moduli (GPa) = 83.08435 83.07691 108.62255
#
# Poissons Ratio (x) = -0.07631 0.29919
# Poissons Ratio (y) = -0.07632 0.29920
# Poissons Ratio (z) = 0.22885 0.22884
#
# Static dielectric constant tensor:
#      x y z
#    x 1.750890 0.000000 0.000000 
#    y 0.000000 1.750630 0.000000 
#    z 0.000000 0.000000 1.806610 
# 
# From -- ./inp_files/1743.got.cif
#   From: 2010.05.17/outbox.cif.g08.bks.cpg/sg94_1_cif.got.tgz:1743.got - 2010.06.03 19:43:16.
