data_PCOD9550320
_publ_section_title
;
Structure prediction by ZEFSAII (Michael W. Deem and Ramdas Pophale) SiO2 
 PCOD9550320
Probable space group: P 42 21 2
;
_chemical_formula_sum "Si O2"
_cell_formula_units_Z 40
_cell_length_a 8.339761
_cell_length_b 8.339761
_cell_length_c 26.726414
_cell_angle_alpha 90.000000
_cell_angle_beta 90.000000
_cell_angle_gamma 90.000000
_cell_volume 1858.865218
_symmetry_space_group_name_H-M "P 42 21 2"
_symmetry_group_IT_number 94
_symmetry_cell_setting 'tetragonal'
loop_
_space_group_symop_operation_xyz
x,y,z
1/2-y,1/2+x,1/2+z
-x,-y,z
1/2+y,1/2-x,1/2+z
1/2+x,1/2-y,1/2-z
1/2-x,1/2+y,1/2-z
y,x,-z
-y,-x,-z
loop_
_atom_site_type_symbol
_atom_site_label
_atom_site_fract_x
_atom_site_fract_y
_atom_site_fract_z
Si Si1 0.811956 0.847163 0.559316
Si Si2 0.037522 0.816172 0.109043
Si Si3 0.155383 0.395393 0.716143
Si Si4 0.409483 0.360841 0.801586
Si Si5 0.325009 0.292764 0.905761
O O1 0.833676 0.833676 0.500000
O O2 0.697067 0.705973 0.579281
O O3 0.987146 0.798702 0.580761
O O4 0.765118 0.031709 0.574526
O O5 0.068123 0.717957 0.160568
O O6 0.880854 0.747813 0.079120
O O7 0.000000 0.000000 0.121257
O O8 0.295902 0.404120 0.756028
O O9 0.000000 0.500000 0.728747
O O10 0.067575 0.226207 0.718223
O O11 0.500000 0.500000 0.830906
O O12 0.307223 0.281545 0.845341
#
# Coordination Sequence:
#
# PCOD9550320 Si02
#       5
#     8   8   8   8   8
#     4  11  24  50  79 104 140 192 247 306 377 433
#     4  12  26  47  72 106 154 188 241 305 368 443
#     4  12  24  43  66 100 141 194 237 300 370 427
#     4  12  23  40  68  98 137 187 243 291 357 437
#     4  11  22  48  74 101 141 190 241 307 358 437
#
# _framework density 21.518504
#
# number of rings (size 3 to 8) (size 9 to 14) (size 15 to 20)
#    0.000    0.400    6.000    3.600    2.800    1.200 
#   10.800    0.000    0.000    0.000    0.000    0.000 
#    0.000    0.000    0.000    0.000    0.000    0.000 
#
# Total GULP energy -222838.104390 kJ/mol
# GULP energy per Si atom -5570.952610 kJ/mol
# Density = 2.146953 g / cm^3
# Si number density = 21.518504 Si / 1000 Ang^3
#
#
#
# Elastic Constant Matrix: (Units=GPa)
#
#
# Indices 1 2 3 4 5 6 
#
# 1 82.5019 77.8904 36.7231 0.0000 0.0000 0.0000
# 2 77.8904 82.5019 36.7231 0.0000 0.0000 0.0000
# 3 36.7231 36.7231 116.9949 0.0000 0.0000 0.0000
# 4 0.0000 0.0000 0.0000 22.3614 0.0000 0.0000
# 5 0.0000 0.0000 0.0000 0.0000 22.3614 0.0000
# 6 0.0000 0.0000 0.0000 0.0000 0.0000 56.1355
#
#
#
# Elastic Compliance Matrix: (Units=1/GPa)
#
#
# Indices 1 2 3 4 5 6 
#
# 1 0.112065 -0.104783 -0.002285 0.000000 0.000000 0.000000
# 2 -0.104783 0.112065 -0.002285 0.000000 0.000000 0.000000
# 3 -0.002285 -0.002285 0.009982 0.000000 0.000000 0.000000
# 4 0.000000 0.000000 0.000000 0.044720 0.000000 0.000000
# 5 0.000000 0.000000 0.000000 0.000000 0.044720 0.000000
# 6 0.000000 0.000000 0.000000 0.000000 0.000000 0.017814
#
#
# Mechanical properties :
#
#
# Convention : Reuss Voigt Hill
#
# Bulk Modulus (GPa) = 64.92355 64.96354 64.94355
# Shear Modulus (GPa) = 8.84630 28.88245 18.86437
#
# Velocity S-wave (km/s) = 2.02976 3.66760 2.96405
# Velocity P-wave (km/s) = 5.97744 6.94192 6.47765
#
# Compressibility (1/GPa) = 0.01540273
#
# Stress axis : x y z
#
# Youngs Moduli (GPa) = 8.92342 8.92342 100.17878
#
# Poissons Ratio (x) = 0.93503 0.22896
# Poissons Ratio (y) = 0.93503 0.22896
# Poissons Ratio (z) = 0.02039 0.02039
#
# Static dielectric constant tensor:
#      x y z
#    x 1.728130 0.000000 0.000000 
#    y 0.000000 1.728130 0.000000 
#    z 0.000000 0.000000 1.737600 
# 
# From -- ./inp_files/5272.got.cif
#   From: 2010.05.17/outbox.cif.g08.bks.cpg/sg94_3_cif.got.tgz:5272.got - 2010.06.03 19:43:16.
