data_PCOD9550022
_publ_section_title
;
Structure prediction by ZEFSAII (Michael W. Deem and Ramdas Pophale) SiO2 
 PCOD9550022
Probable space group: P 42 21 2
;
_chemical_formula_sum "Si O2"
_cell_formula_units_Z 36
_cell_length_a 8.797793
_cell_length_b 8.797793
_cell_length_c 20.909992
_cell_angle_alpha 90.000000
_cell_angle_beta 90.000000
_cell_angle_gamma 90.000000
_cell_volume 1618.457671
_symmetry_space_group_name_H-M "P 42 21 2"
_symmetry_group_IT_number 94
_symmetry_cell_setting 'tetragonal'
loop_
_space_group_symop_operation_xyz
x,y,z
1/2-y,1/2+x,1/2+z
-x,-y,z
1/2+y,1/2-x,1/2+z
1/2+x,1/2-y,1/2-z
1/2-x,1/2+y,1/2-z
y,x,-z
-y,-x,-z
loop_
_atom_site_type_symbol
_atom_site_label
_atom_site_fract_x
_atom_site_fract_y
_atom_site_fract_z
Si Si1 0.314658 0.277826 0.431164
Si Si2 0.000000 0.500000 0.531503
Si Si3 0.543484 0.722857 0.051118
Si Si4 0.739652 0.088315 0.694291
Si Si5 0.242483 0.414296 0.300372
O O1 0.351952 0.351952 0.500000
O O2 0.320169 0.380328 0.368731
O O3 0.137691 0.228385 0.438371
O O4 0.414709 0.125868 0.427022
O O5 0.920093 0.383158 0.482734
O O6 0.611462 0.705373 0.121398
O O7 0.605778 0.605778 0.000000
O O8 0.863010 0.145790 0.744340
O O9 0.586846 0.186966 0.703816
O O10 0.687550 0.912730 0.702464
#
# Coordination Sequence:
#
# PCOD9550022 Si02
#       5
#     8   4   8   8   8
#     4   9  19  36  60  87 118 154 195 245 297 351
#     4  10  20  36  60  90 120 154 198 252 302 350
#     4  10  21  39  63  89 120 158 202 249 298 357
#     4  10  22  41  60  86 120 159 198 246 300 357
#     4  10  22  40  62  85 120 158 198 246 301 359
#
# _framework density 22.243399
#
# number of rings (size 3 to 8) (size 9 to 14) (size 15 to 20)
#    0.000    2.222    0.000    4.000    0.000   12.000 
#    0.000   11.111    0.000   15.333    0.000    0.000 
#    0.000    0.000    0.000    0.000    0.000    0.000 
#
# Total GULP energy -201225.759449 kJ/mol
# GULP energy per Si atom -5589.604429 kJ/mol
# Density = 2.219277 g / cm^3
# Si number density = 22.243399 Si / 1000 Ang^3
#
#
#
# Elastic Constant Matrix: (Units=GPa)
#
#
# Indices 1 2 3 4 5 6 
#
# 1 43.6802 26.3727 34.8013 0.0000 0.0000 0.0000
# 2 26.3727 43.6802 34.8013 0.0000 0.0000 0.0000
# 3 34.8013 34.8013 133.0593 0.0000 0.0000 0.0000
# 4 0.0000 0.0000 0.0000 -56.5607 0.0000 0.0000
# 5 0.0000 0.0000 0.0000 0.0000 -56.5607 0.0000
# 6 0.0000 0.0000 0.0000 0.0000 0.0000 40.8470
#
#
#
# Elastic Compliance Matrix: (Units=1/GPa)
#
#
# Indices 1 2 3 4 5 6 
#
# 1 0.038533 -0.019246 -0.005044 0.000000 0.000000 0.000000
# 2 -0.019246 0.038533 -0.005044 0.000000 0.000000 0.000000
# 3 -0.005044 -0.005044 0.010154 0.000000 0.000000 0.000000
# 4 0.000000 0.000000 0.000000 -0.017680 0.000000 0.000000
# 5 0.000000 0.000000 0.000000 0.000000 -0.017680 0.000000
# 6 0.000000 0.000000 0.000000 0.000000 0.000000 0.024482
#
#
# Mechanical properties :
#
#
# Convention : Reuss Voigt Hill
#
# Bulk Modulus (GPa) = 35.02592 45.81893 40.42243
# Shear Modulus (GPa) = 34.59561 -6.15858 14.21852
#
# Velocity S-wave (km/s) = 3.94803 -1.66575 2.53103
# Velocity P-wave (km/s) = 6.04677 4.11630 5.17240
#
# Compressibility (1/GPa) = 0.02855028
#
# Stress axis : x y z
#
# Youngs Moduli (GPa) = 25.95198 25.95198 98.48163
#
# Poissons Ratio (x) = 0.49946 0.49679
# Poissons Ratio (y) = 0.49946 0.49679
# Poissons Ratio (z) = 0.13091 0.13091
#
# Static dielectric constant tensor:
#      x y z
#    x 1.976330 0.000000 0.000000 
#    y 0.000000 1.976330 0.000000 
#    z 0.000000 0.000000 1.814450 
# 
# From -- ./inp_files/4542.got.cif
#   From: 2010.05.17/outbox.cif.g08.bks.cpg/sg94_3_cif.got.tgz:4542.got - 2010.06.03 19:43:16.
