data_PCOD9550811
_publ_section_title
;
Structure prediction by ZEFSAII (Michael W. Deem and Ramdas Pophale) SiO2 
 PCOD9550811
Probable space group: P 43 21 2
;
_chemical_formula_sum "Si O2"
_cell_formula_units_Z 32
_cell_length_a 15.303739
_cell_length_b 15.303739
_cell_length_c 6.710980
_cell_angle_alpha 90.000000
_cell_angle_beta 90.000000
_cell_angle_gamma 90.000000
_cell_volume 1571.741228
_symmetry_space_group_name_H-M "P 43 21 2"
_symmetry_group_IT_number 96
_symmetry_cell_setting 'tetragonal'
loop_
_space_group_symop_operation_xyz
x,y,z
1/2-y,1/2+x,3/4+z
-x,-y,1/2+z
1/2+y,1/2-x,1/4+z
1/2+x,1/2-y,1/4-z
1/2-x,1/2+y,3/4-z
y,x,-z
-y,-x,1/2-z
loop_
_atom_site_type_symbol
_atom_site_label
_atom_site_fract_x
_atom_site_fract_y
_atom_site_fract_z
Si Si1 0.362976 0.189081 0.676949
Si Si2 0.517403 0.230112 0.931253
Si Si3 0.570612 0.570612 0.000000
Si Si4 0.402062 0.597939 0.250000
Si Si5 0.729661 0.634760 0.249336
O O1 0.462765 0.206091 0.735295
O O2 0.337933 0.091840 0.741657
O O3 0.301700 0.264049 0.781334
O O4 0.356764 0.205189 0.439192
O O5 0.576435 0.313092 0.865998
O O6 0.437648 0.240297 0.089970
O O7 0.475731 0.585160 0.084132
O O8 0.639168 0.592742 0.171796
#
# Coordination Sequence:
#
# PCOD9550811 Si02
#       5
#     8   8   4   4   8
#     4  10  24  45  64  97 136 177 226 284 337 413
#     4  12  24  43  69  97 133 184 227 285 345 409
#     4  10  20  35  64  98 135 164 210 288 342 418
#     4  12  20  37  68 102 129 168 224 280 362 400
#     4  10  21  46  66  96 140 172 218 287 345 406
#
# _framework density 20.359584999999999
#
# number of rings (size 3 to 8) (size 9 to 14) (size 15 to 20)
#    0.000    1.500    5.000    3.750    0.000    2.000 
#   13.500    0.000    0.000    0.000    0.000    0.000 
#    0.000    0.000    0.000    0.000    0.000    0.000 
#
# Total GULP energy -178195.922642 kJ/mol
# GULP energy per Si atom -5568.622583 kJ/mol
# Density = 2.031325 g / cm^3
# Si number density = 20.359585 Si / 1000 Ang^3
#
#
#
# Elastic Constant Matrix: (Units=GPa)
#
#
# Indices 1 2 3 4 5 6 
#
# 1 55.1465 58.2405 21.6043 0.0000 0.0000 0.0000
# 2 58.2405 55.1468 21.6044 0.0000 0.0000 0.0000
# 3 21.6043 21.6044 47.9207 0.0000 0.0000 0.0000
# 4 0.0000 0.0000 0.0000 21.3762 0.0000 0.0000
# 5 0.0000 0.0000 0.0000 0.0000 21.3760 0.0000
# 6 0.0000 0.0000 0.0000 0.0000 0.0000 27.9813
#
#
#
# Elastic Compliance Matrix: (Units=1/GPa)
#
#
# Indices 1 2 3 4 5 6 
#
# 1 -0.156285 0.166933 -0.004801 0.000000 0.000000 0.000000
# 2 0.166933 -0.156284 -0.004801 0.000000 0.000000 0.000000
# 3 -0.004801 -0.004801 0.025197 0.000000 0.000000 0.000000
# 4 0.000000 0.000000 0.000000 0.046781 0.000000 0.000000
# 5 0.000000 0.000000 0.000000 0.000000 0.046781 0.000000
# 6 0.000000 0.000000 0.000000 0.000000 0.000000 0.035738
#
#
# Mechanical properties :
#
#
# Convention : Reuss Voigt Hill
#
# Bulk Modulus (GPa) = 36.64237 40.12358 38.38298
# Shear Modulus (GPa) = -10.78427 17.93101 3.57337
#
# Velocity S-wave (km/s) = -2.30400 2.97091 1.32625
# Velocity P-wave (km/s) = 3.31041 5.61414 4.60855
#
# Compressibility (1/GPa) = 0.02729081
#
# Stress axis : x y z
#
# Youngs Moduli (GPa) = -6.39857 -6.39860 39.68786
#
# Poissons Ratio (x) = 1.06814 0.19054
# Poissons Ratio (y) = 1.06813 0.19053
# Poissons Ratio (z) = -0.03072 -0.03072
#
# Static dielectric constant tensor:
#      x y z
#    x 1.725800 0.000000 0.000000 
#    y 0.000000 1.725800 0.000000 
#    z 0.000000 0.000000 1.849400 
# 
# From -- ./inp_files/1179.got.cif
#   From: 2010.05.17/outbox.cif.g08.bks.cpg/sg96_1_cif.got.tgz:1179.got - 2010.06.03 19:52:08.
