data_PCOD9550506
_publ_section_title
;
Structure prediction by ZEFSAII (Michael W. Deem and Ramdas Pophale) SiO2 
 PCOD9550506
Probable space group: P 43 2 2
;
_chemical_formula_sum "Si O2"
_cell_formula_units_Z 40
_cell_length_a 13.859631
_cell_length_b 13.859631
_cell_length_c 10.665924
_cell_angle_alpha 90.000000
_cell_angle_beta 90.000000
_cell_angle_gamma 90.000000
_cell_volume 2048.810637
_symmetry_space_group_name_H-M "P 43 2 2"
_symmetry_group_IT_number 95
_symmetry_cell_setting 'tetragonal'
loop_
_space_group_symop_operation_xyz
x,y,z
-y,x,3/4+z
-x,-y,1/2+z
y,-x,1/4+z
x,-y,1/2-z
-x,y,-z
y,x,1/4-z
-y,-x,3/4-z
loop_
_atom_site_type_symbol
_atom_site_label
_atom_site_fract_x
_atom_site_fract_y
_atom_site_fract_z
Si Si1 0.750898 0.384479 0.461112
Si Si2 0.389937 0.077709 0.856423
Si Si3 0.413251 0.384008 0.917104
Si Si4 0.286090 0.713911 0.375000
Si Si5 0.378753 0.919504 0.356421
Si Si6 0.500000 0.259656 0.500000
O O1 0.684697 0.315304 0.375000
O O2 0.826485 0.337189 0.554290
O O3 0.684451 0.449440 0.553469
O O4 0.803494 0.443465 0.350566
O O5 0.505455 0.101052 0.851926
O O6 0.371099 0.000000 0.750000
O O7 0.362790 0.050351 0.997914
O O8 0.334456 0.444683 0.840558
O O9 0.500000 0.429426 0.000000
O O10 0.357073 0.315952 0.012811
O O11 0.314749 0.823032 0.337984
O O12 0.359220 0.000000 0.250000
#
# Coordination Sequence:
#
# PCOD9550506 Si02
#       6
#     8   8   8   4   8   4
#     4  10  21  36  51  76 112 153 205 252 309 367
#     4  10  20  38  60  84 122 156 203 260 309 375
#     4  11  21  36  50  74 111 164 210 257 301 362
#     4  12  22  38  64  80 124 162 202 264 312 378
#     4  10  22  38  62  93 116 159 210 255 322 375
#     4  10  22  36  46  72 108 160 218 258 290 354
#
# _framework density 19.523523000000001
#
# number of rings (size 3 to 8) (size 9 to 14) (size 15 to 20)
#    0.000    1.600    2.000    3.600    0.000    6.400 
#   27.000    0.000    0.000    0.000    0.000    1.400 
#    0.000    0.000    0.000    0.000    0.000    0.000 
#
# Total GULP energy -222772.189110 kJ/mol
# GULP energy per Si atom -5569.304728 kJ/mol
# Density = 1.947909 g / cm^3
# Si number density = 19.523523 Si / 1000 Ang^3
#
#
#
# Elastic Constant Matrix: (Units=GPa)
#
#
# Indices 1 2 3 4 5 6 
#
# 1 57.2724 6.4090 40.6842 0.0000 0.0000 0.0000
# 2 6.4090 57.2722 40.6839 0.0000 0.0000 0.0000
# 3 40.6842 40.6839 189.6132 0.0000 0.0000 0.0000
# 4 0.0000 0.0000 0.0000 30.0218 0.0000 0.0000
# 5 0.0000 0.0000 0.0000 0.0000 30.0224 0.0000
# 6 0.0000 0.0000 0.0000 0.0000 0.0000 70.5287
#
#
#
# Elastic Compliance Matrix: (Units=1/GPa)
#
#
# Indices 1 2 3 4 5 6 
#
# 1 0.020647 0.000987 -0.004642 0.000000 0.000000 0.000000
# 2 0.000987 0.020647 -0.004642 0.000000 0.000000 0.000000
# 3 -0.004642 -0.004642 0.007266 0.000000 0.000000 0.000000
# 4 0.000000 0.000000 0.000000 0.033309 0.000000 0.000000
# 5 0.000000 0.000000 0.000000 0.000000 0.033308 0.000000
# 6 0.000000 0.000000 0.000000 0.000000 0.000000 0.014179
#
#
# Mechanical properties :
#
#
# Convention : Reuss Voigt Hill
#
# Bulk Modulus (GPa) = 31.28238 53.30133 42.29186
# Shear Modulus (GPa) = 31.92717 40.53999 36.23358
#
# Velocity S-wave (km/s) = 4.04829 4.56177 4.31268
# Velocity P-wave (km/s) = 6.15705 7.42339 6.81968
#
# Compressibility (1/GPa) = 0.03196688
#
# Stress axis : x y z
#
# Youngs Moduli (GPa) = 48.43216 48.43208 137.62965
#
# Poissons Ratio (x) = -0.04780 0.63887
# Poissons Ratio (y) = -0.04780 0.63887
# Poissons Ratio (z) = 0.22482 0.22482
#
# Static dielectric constant tensor:
#      x y z
#    x 1.786270 0.000000 0.000000 
#    y 0.000000 1.786270 0.000000 
#    z 0.000000 0.000000 1.724550 
# 
# From -- ./inp_files/2452.got.cif
#   From: 2010.05.17/outbox.cif.g08.bks.cpg/sg95_2_cif.got.tgz:2452.got - 2010.06.03 19:46:49.
