data_PCOD9550075
_publ_section_title
;
Structure prediction by ZEFSAII (Michael W. Deem and Ramdas Pophale) SiO2 
 PCOD9550075
Probable space group: P 42 21 2
;
_chemical_formula_sum "Si O2"
_cell_formula_units_Z 40
_cell_length_a 13.643355
_cell_length_b 13.643355
_cell_length_c 10.150539
_cell_angle_alpha 90.000000
_cell_angle_beta 90.000000
_cell_angle_gamma 90.000000
_cell_volume 1889.432857
_symmetry_space_group_name_H-M "P 42 21 2"
_symmetry_group_IT_number 94
_symmetry_cell_setting 'tetragonal'
loop_
_space_group_symop_operation_xyz
x,y,z
1/2-y,1/2+x,1/2+z
-x,-y,z
1/2+y,1/2-x,1/2+z
1/2+x,1/2-y,1/2-z
1/2-x,1/2+y,1/2-z
y,x,-z
-y,-x,-z
loop_
_atom_site_type_symbol
_atom_site_label
_atom_site_fract_x
_atom_site_fract_y
_atom_site_fract_z
Si Si1 0.993623 0.855131 0.058911
Si Si2 0.675331 0.413679 0.808959
Si Si3 0.349831 0.217573 0.401784
Si Si4 0.299730 0.244034 0.849379
Si Si5 0.526642 0.250727 0.914436
O O1 0.044300 0.749974 0.043904
O O2 0.989528 0.874679 0.212783
O O3 0.073661 0.926340 0.000000
O O4 0.890403 0.890403 0.000000
O O5 0.753336 0.354599 0.716774
O O6 0.590948 0.338238 0.850878
O O7 0.724170 0.468155 0.930728
O O8 0.266564 0.266564 0.500000
O O9 0.323882 0.261548 0.257907
O O10 0.339658 0.101071 0.396127
O O11 0.418077 0.241501 0.858054
O O12 0.264973 0.264973 0.000000
#
# Coordination Sequence:
#
# PCOD9550075 Si02
#       5
#     8   8   8   8   8
#     4  10  22  34  61  92 124 162 219 276 334 394
#     4  10  21  41  58  92 135 168 219 278 341 395
#     4  10  20  42  60  88 134 173 209 277 347 385
#     4  11  22  38  66  94 125 178 231 270 327 421
#     4  10  21  39  66  87 129 183 210 271 350 398
#
# _framework density 21.170373999999999
#
# number of rings (size 3 to 8) (size 9 to 14) (size 15 to 20)
#    0.000    1.800    4.000    1.800    8.400    0.000 
#    0.000    2.000    0.000    2.400    0.000    0.000 
#    0.000    0.000    0.000    0.000    0.000    0.000 
#
# Total GULP energy -222843.664899 kJ/mol
# GULP energy per Si atom -5571.091622 kJ/mol
# Density = 2.112219 g / cm^3
# Si number density = 21.170374 Si / 1000 Ang^3
#
#
#
# Elastic Constant Matrix: (Units=GPa)
#
#
# Indices 1 2 3 4 5 6 
#
# 1 65.0380 67.8114 49.4881 0.0000 0.0000 0.0000
# 2 67.8114 65.0325 49.4928 0.0000 0.0000 0.0000
# 3 49.4881 49.4928 149.2073 0.0000 0.0000 0.0000
# 4 0.0000 0.0000 0.0000 107.5273 0.0000 0.0000
# 5 0.0000 0.0000 0.0000 0.0000 107.8195 0.0000
# 6 0.0000 0.0000 0.0000 0.0000 0.0000 21.7700
#
#
#
# Elastic Compliance Matrix: (Units=1/GPa)
#
#
# Indices 1 2 3 4 5 6 
#
# 1 -0.175089 0.185103 -0.003327 0.000000 0.000000 0.000000
# 2 0.185103 -0.175120 -0.003306 0.000000 0.000000 0.000000
# 3 -0.003327 -0.003306 0.008902 0.000000 0.000000 0.000000
# 4 0.000000 0.000000 0.000000 0.009300 0.000000 0.000000
# 5 0.000000 0.000000 0.000000 0.000000 0.009275 0.000000
# 6 0.000000 0.000000 0.000000 0.000000 0.000000 0.045935
#
#
# Mechanical properties :
#
#
# Convention : Reuss Voigt Hill
#
# Bulk Modulus (GPa) = 63.96535 68.09581 66.03058
# Shear Modulus (GPa) = -7.95509 54.92241 23.48366
#
# Velocity S-wave (km/s) = -1.94057 5.09896 3.33418
# Velocity P-wave (km/s) = 5.02584 8.17932 6.78824
#
# Compressibility (1/GPa) = 0.01563346
#
# Stress axis : x y z
#
# Youngs Moduli (GPa) = -5.71137 -5.71036 112.33318
#
# Poissons Ratio (x) = 1.05701 0.37375
# Poissons Ratio (y) = 1.05719 0.37132
# Poissons Ratio (z) = -0.01900 -0.01888
#
# Static dielectric constant tensor:
#      x y z
#    x 1.623570 0.000000 0.000000 
#    y 0.000000 1.622950 0.000000 
#    z 0.000000 0.000000 1.814240 
# 
# From -- ./inp_files/1422.got.cif
#   From: 2010.05.17/outbox.cif.g08.bks.cpg/sg94_1_cif.got.tgz:1422.got - 2010.06.03 19:43:16.
