data_PCOD9550098
_publ_section_title
;
Structure prediction by ZEFSAII (Michael W. Deem and Ramdas Pophale) SiO2 
 PCOD9550098
Probable space group: P 42 21 2
;
_chemical_formula_sum "Si O2"
_cell_formula_units_Z 54
_cell_length_a 12.095806
_cell_length_b 12.095806
_cell_length_c 19.532651
_cell_angle_alpha 90.000000
_cell_angle_beta 90.000000
_cell_angle_gamma 90.000000
_cell_volume 2857.793314
_symmetry_space_group_name_H-M "P 42 21 2"
_symmetry_group_IT_number 94
_symmetry_cell_setting 'tetragonal'
loop_
_space_group_symop_operation_xyz
x,y,z
1/2-y,1/2+x,1/2+z
-x,-y,z
1/2+y,1/2-x,1/2+z
1/2+x,1/2-y,1/2-z
1/2-x,1/2+y,1/2-z
y,x,-z
-y,-x,-z
loop_
_atom_site_type_symbol
_atom_site_label
_atom_site_fract_x
_atom_site_fract_y
_atom_site_fract_z
Si Si1 0.500000 0.500000 0.500000
Si Si2 0.436440 0.736537 0.030845
Si Si3 0.231128 0.270455 0.353673
Si Si4 0.000000 0.500000 0.706840
Si Si5 0.791545 0.485009 0.115886
Si Si6 0.112247 0.928854 0.640252
Si Si7 0.732412 0.960880 0.750582
Si Si8 0.530127 0.621969 0.366423
O O1 0.504568 0.603079 0.447183
O O2 0.351584 0.796057 0.082804
O O3 0.534349 0.685502 0.075553
O O4 0.366712 0.633289 0.000000
O O5 0.477784 0.804723 0.965996
O O6 0.261289 0.140831 0.362048
O O7 0.158055 0.279484 0.285326
O O8 0.341869 0.342937 0.356951
O O9 0.980589 0.397107 0.657873
O O10 0.111735 0.484715 0.749110
O O11 0.694706 0.569610 0.134592
O O12 0.183622 0.965115 0.705621
O O13 0.000000 0.000000 0.639700
O O14 0.785957 0.960952 0.825983
O O15 0.500000 0.500000 0.336991
#
# Coordination Sequence:
#
# PCOD9550098 Si02
#       8
#     2   8   8   4   8   8   8   8
#     4   8  24  36  72 100 128 178 232 292 320 424
#     4   9  18  32  64  97 124 146 207 273 334 391
#     4  10  21  37  66  96 124 173 213 279 340 391
#     4  12  28  40  54  84 138 186 216 256 336 402
#     4  11  22  36  63  92 129 165 207 272 327 405
#     4  11  19  37  67 100 117 155 216 276 334 383
#     4  11  24  41  60  94 131 170 222 277 333 396
#     4  10  22  40  66  97 132 172 235 277 330 416
#
# _framework density 18.895699
#
# number of rings (size 3 to 8) (size 9 to 14) (size 15 to 20)
#    0.444    1.185    5.926    0.889    5.185    0.000 
#    0.000    2.963    3.259    0.000    0.000    0.000 
#    0.000    0.000    0.000    0.000    0.000    0.000 
#
# Total GULP energy -301105.142862 kJ/mol
# GULP energy per Si atom -5576.021164 kJ/mol
# Density = 1.885269 g / cm^3
# Si number density = 18.895699 Si / 1000 Ang^3
#
#
#
# Elastic Constant Matrix: (Units=GPa)
#
#
# Indices 1 2 3 4 5 6 
#
# 1 83.6268 52.6383 37.5542 0.0000 0.0000 0.0000
# 2 52.6383 83.6266 37.5539 0.0000 0.0000 0.0000
# 3 37.5542 37.5539 101.8295 0.0000 0.0000 0.0000
# 4 0.0000 0.0000 0.0000 -35.0337 0.0000 0.0000
# 5 0.0000 0.0000 0.0000 0.0000 -35.0281 0.0000
# 6 0.0000 0.0000 0.0000 0.0000 0.0000 32.7503
#
#
#
# Elastic Compliance Matrix: (Units=1/GPa)
#
#
# Indices 1 2 3 4 5 6 
#
# 1 0.020741 -0.011530 -0.003397 0.000000 0.000000 0.000000
# 2 -0.011530 0.020741 -0.003397 0.000000 0.000000 0.000000
# 3 -0.003397 -0.003397 0.012326 0.000000 0.000000 0.000000
# 4 0.000000 0.000000 0.000000 -0.028544 0.000000 0.000000
# 5 0.000000 0.000000 0.000000 0.000000 -0.028549 0.000000
# 6 0.000000 0.000000 0.000000 0.000000 0.000000 0.030534
#
#
# Mechanical properties :
#
#
# Convention : Reuss Voigt Hill
#
# Bulk Modulus (GPa) = 58.27481 58.28620 58.28050
# Shear Modulus (GPa) = 71.82294 1.96014 36.89154
#
# Velocity S-wave (km/s) = 6.17193 1.01961 4.42337
# Velocity P-wave (km/s) = 9.03867 5.68325 7.54973
#
# Compressibility (1/GPa) = 0.01716007
#
# Stress axis : x y z
#
# Youngs Moduli (GPa) = 48.21462 48.21470 81.12996
#
# Poissons Ratio (x) = 0.55589 0.27560
# Poissons Ratio (y) = 0.55589 0.27559
# Poissons Ratio (z) = 0.16379 0.16378
#
# Static dielectric constant tensor:
#      x y z
#    x 1.660510 0.000000 0.000000 
#    y 0.000000 1.660510 0.000000 
#    z 0.000000 0.000000 1.699840 
# 
# From -- ./inp_files/4768.got.cif
#   From: 2010.05.17/outbox.cif.g08.bks.cpg/sg94_3_cif.got.tgz:4768.got - 2010.06.03 19:43:16.
