data_PCOD9550312
_publ_section_title
;
Structure prediction by ZEFSAII (Michael W. Deem and Ramdas Pophale) SiO2 
 PCOD9550312
Probable space group: P 42 21 2
;
_chemical_formula_sum "Si O2"
_cell_formula_units_Z 26
_cell_length_a 12.650941
_cell_length_b 12.650941
_cell_length_c 7.645298
_cell_angle_alpha 90.000000
_cell_angle_beta 90.000000
_cell_angle_gamma 90.000000
_cell_volume 1223.601720
_symmetry_space_group_name_H-M "P 42 21 2"
_symmetry_group_IT_number 94
_symmetry_cell_setting 'tetragonal'
loop_
_space_group_symop_operation_xyz
x,y,z
1/2-y,1/2+x,1/2+z
-x,-y,z
1/2+y,1/2-x,1/2+z
1/2+x,1/2-y,1/2-z
1/2-x,1/2+y,1/2-z
y,x,-z
-y,-x,-z
loop_
_atom_site_type_symbol
_atom_site_label
_atom_site_fract_x
_atom_site_fract_y
_atom_site_fract_z
Si Si1 0.937396 0.650813 0.217851
Si Si2 0.072534 0.339773 0.813646
Si Si3 0.621232 0.397159 0.806772
Si Si4 0.000000 0.000000 0.000000
O O1 0.882164 0.546593 0.291803
O O2 0.901359 0.752900 0.321567
O O3 0.064759 0.639170 0.227483
O O4 0.901986 0.661597 0.018291
O O5 0.085975 0.221454 0.744009
O O6 0.591181 0.476376 0.645862
O O7 0.578465 0.421536 0.000000
#
# Coordination Sequence:
#
# PCOD9550312 Si02
#       4
#     8   8   8   2
#     4  11  22  42  68 102 139 182 233 280 336 409
#     4  11  22  42  68 102 139 182 233 280 336 409
#     4  12  25  46  70 102 140 180 227 284 349 401
#     4  12  26  48  64  98 136 170 226 278 352 406
#
# _framework density 21.248745
#
# number of rings (size 3 to 8) (size 9 to 14) (size 15 to 20)
#    0.000    0.615    3.077    7.846    0.000    2.462 
#    5.538    6.154    0.000    0.000    0.000    0.000 
#    0.000    0.000    0.000    0.000    0.000    0.000 
#
# Total GULP energy -145065.194569 kJ/mol
# GULP energy per Si atom -5579.430560 kJ/mol
# Density = 2.120038 g / cm^3
# Si number density = 21.248745 Si / 1000 Ang^3
#
#
#
# Elastic Constant Matrix: (Units=GPa)
#
#
# Indices 1 2 3 4 5 6 
#
# 1 51.8834 80.2951 5.3370 0.0000 0.0000 0.0000
# 2 80.2951 51.8817 5.3363 0.0000 0.0000 0.0000
# 3 5.3370 5.3363 138.3925 0.0000 0.0000 0.0000
# 4 0.0000 0.0000 0.0000 33.2995 0.0000 0.0000
# 5 0.0000 0.0000 0.0000 0.0000 33.3001 0.0000
# 6 0.0000 0.0000 0.0000 0.0000 0.0000 18.9447
#
#
#
# Elastic Compliance Matrix: (Units=1/GPa)
#
#
# Indices 1 2 3 4 5 6 
#
# 1 -0.013803 0.021392 -0.000293 0.000000 0.000000 0.000000
# 2 0.021392 -0.013803 -0.000293 0.000000 0.000000 0.000000
# 3 -0.000293 -0.000293 0.007248 0.000000 0.000000 0.000000
# 4 0.000000 0.000000 0.000000 0.030030 0.000000 0.000000
# 5 0.000000 0.000000 0.000000 0.000000 0.030030 0.000000
# 6 0.000000 0.000000 0.000000 0.000000 0.000000 0.052785
#
#
# Mechanical properties :
#
#
# Convention : Reuss Voigt Hill
#
# Bulk Modulus (GPa) = 47.04509 47.12159 47.08334
# Shear Modulus (GPa) = 86.26869 27.18816 56.72842
#
# Velocity S-wave (km/s) = 6.37868 3.58092 5.17255
# Velocity P-wave (km/s) = 8.74290 6.27069 7.60789
#
# Compressibility (1/GPa) = 0.02125620
#
# Stress axis : x y z
#
# Youngs Moduli (GPa) = -72.44782 -72.44544 137.96159
#
# Poissons Ratio (x) = 1.54979 0.04036
# Poissons Ratio (y) = 1.54984 0.04038
# Poissons Ratio (z) = -0.02120 -0.02121
#
# Static dielectric constant tensor:
#      x y z
#    x 1.759000 0.000000 0.000000 
#    y 0.000000 1.759000 0.000000 
#    z 0.000000 0.000000 1.541630 
# 
# From -- ./inp_files/1004.got.cif
#   From: 2010.05.17/outbox.cif.g08.bks.cpg/sg94_1_cif.got.tgz:1004.got - 2010.06.03 19:43:16.
