data_PCOD9550961
_publ_section_title
;
Structure prediction by ZEFSAII (Michael W. Deem and Ramdas Pophale) SiO2 
 PCOD9550961
Probable space group: P 43 21 2
;
_chemical_formula_sum "Si O2"
_cell_formula_units_Z 40
_cell_length_a 9.190922
_cell_length_b 9.190922
_cell_length_c 18.365648
_cell_angle_alpha 90.000000
_cell_angle_beta 90.000000
_cell_angle_gamma 90.000000
_cell_volume 1551.402251
_symmetry_space_group_name_H-M "P 43 21 2"
_symmetry_group_IT_number 96
_symmetry_cell_setting 'tetragonal'
loop_
_space_group_symop_operation_xyz
x,y,z
1/2-y,1/2+x,3/4+z
-x,-y,1/2+z
1/2+y,1/2-x,1/4+z
1/2+x,1/2-y,1/4-z
1/2-x,1/2+y,3/4-z
y,x,-z
-y,-x,1/2-z
loop_
_atom_site_type_symbol
_atom_site_label
_atom_site_fract_x
_atom_site_fract_y
_atom_site_fract_z
Si Si1 0.958368 0.483846 0.981951
Si Si2 0.704172 0.330111 0.939596
Si Si3 0.055454 0.678163 0.860842
Si Si4 0.877881 0.787083 0.417379
Si Si5 0.368112 0.475121 0.316814
O O1 0.980624 0.632580 0.937101
O O2 0.037326 0.362520 0.930735
O O3 0.790913 0.437666 0.992402
O O4 0.043367 0.464002 0.056369
O O5 0.532775 0.300993 0.933667
O O6 0.727860 0.412908 0.862688
O O7 0.776511 0.171501 0.947897
O O8 0.223558 0.717454 0.872975
O O9 0.834651 0.834651 0.500000
O O10 0.991468 0.908227 0.390629
O O11 0.439756 0.560245 0.250000
#
# Coordination Sequence:
#
# PCOD9550961 Si02
#       5
#     8   8   8   8   8
#     4  10  23  42  61  96 127 166 219 268 320 392
#     4  11  23  40  65  98 124 169 224 261 327 392
#     4  11  23  39  68  90 128 172 212 266 325 389
#     4   8  19  40  62  90 128 168 212 259 334 389
#     4  10  22  41  65  91 134 172 208 272 330 387
#
# _framework density 25.783124999999998
#
# number of rings (size 3 to 8) (size 9 to 14) (size 15 to 20)
#    0.000    2.000    2.000    1.200    5.600    1.600 
#    0.000    0.000    0.000    0.000    0.000    0.000 
#    0.000    0.000    0.000    0.000    0.000    0.000 
#
# Total GULP energy -223414.408043 kJ/mol
# GULP energy per Si atom -5585.360201 kJ/mol
# Density = 2.572444 g / cm^3
# Si number density = 25.783125 Si / 1000 Ang^3
#
#
#
# Elastic Constant Matrix: (Units=GPa)
#
#
# Indices 1 2 3 4 5 6 
#
# 1 114.7977 37.5226 19.1840 0.0000 0.0000 0.0000
# 2 37.5226 114.7978 19.1839 0.0000 0.0000 0.0000
# 3 19.1840 19.1839 61.4373 0.0000 0.0000 0.0000
# 4 0.0000 0.0000 0.0000 36.5061 0.0000 0.0000
# 5 0.0000 0.0000 0.0000 0.0000 36.5061 0.0000
# 6 0.0000 0.0000 0.0000 0.0000 0.0000 45.7990
#
#
#
# Elastic Compliance Matrix: (Units=1/GPa)
#
#
# Indices 1 2 3 4 5 6 
#
# 1 0.010033 -0.002908 -0.002225 0.000000 0.000000 0.000000
# 2 -0.002908 0.010033 -0.002225 0.000000 0.000000 0.000000
# 3 -0.002225 -0.002225 0.017666 0.000000 0.000000 0.000000
# 4 0.000000 0.000000 0.000000 0.027393 0.000000 0.000000
# 5 0.000000 0.000000 0.000000 0.000000 0.027393 0.000000
# 6 0.000000 0.000000 0.000000 0.000000 0.000000 0.021835
#
#
# Mechanical properties :
#
#
# Convention : Reuss Voigt Hill
#
# Bulk Modulus (GPa) = 43.44522 49.20153 46.32338
# Shear Modulus (GPa) = 36.56573 38.10507 37.33540
#
# Velocity S-wave (km/s) = 3.76999 3.84853 3.80946
# Velocity P-wave (km/s) = 5.98642 6.23478 6.11186
#
# Compressibility (1/GPa) = 0.02301749
#
# Stress axis : x y z
#
# Youngs Moduli (GPa) = 99.66942 99.66955 56.60509
#
# Poissons Ratio (x) = 0.28980 0.12595
# Poissons Ratio (y) = 0.28980 0.12594
# Poissons Ratio (z) = 0.22176 0.22176
#
# Static dielectric constant tensor:
#      x y z
#    x 2.087530 0.000000 0.000000 
#    y 0.000000 2.087530 0.000000 
#    z 0.000000 0.000000 2.005980 
# 
# From -- ./inp_files/3779.got.cif
#   From: 2010.05.17/outbox.cif.g08.bks.cpg/sg96_2_cif.got.tgz:3779.got - 2010.06.03 19:52:08.
