data_PCOD9550678
_publ_section_title
;
Structure prediction by ZEFSAII (Michael W. Deem and Ramdas Pophale) SiO2 
 PCOD9550678
Probable space group: P 43 2 2
;
_chemical_formula_sum "Si O2"
_cell_formula_units_Z 48
_cell_length_a 8.856423
_cell_length_b 8.856423
_cell_length_c 26.970808
_cell_angle_alpha 90.000000
_cell_angle_beta 90.000000
_cell_angle_gamma 90.000000
_cell_volume 2115.488455
_symmetry_space_group_name_H-M "P 43 2 2"
_symmetry_group_IT_number 95
_symmetry_cell_setting 'tetragonal'
loop_
_space_group_symop_operation_xyz
x,y,z
-y,x,3/4+z
-x,-y,1/2+z
y,-x,1/4+z
x,-y,1/2-z
-x,y,-z
y,x,1/4-z
-y,-x,3/4-z
loop_
_atom_site_type_symbol
_atom_site_label
_atom_site_fract_x
_atom_site_fract_y
_atom_site_fract_z
Si Si1 0.253799 0.500000 0.250000
Si Si2 0.070325 0.580130 0.342466
Si Si3 0.100969 0.930522 0.087621
Si Si4 0.780637 0.586254 0.473013
Si Si5 0.771776 0.471501 0.365555
Si Si6 0.765793 0.395326 0.574043
Si Si7 0.144650 0.000000 0.250000
O O1 0.155855 0.588902 0.290287
O O2 0.359643 0.609148 0.218712
O O3 0.000415 0.741110 0.357815
O O4 0.178382 0.513337 0.384540
O O5 0.927103 0.468448 0.335093
O O6 0.965402 0.965402 0.125000
O O7 0.132145 0.755960 0.076687
O O8 0.065208 0.032577 0.040642
O O9 0.825362 0.517313 0.420796
O O10 0.784647 0.475536 0.520557
O O11 0.875047 0.738366 0.480709
O O12 0.678266 0.321735 0.375000
O O13 0.664935 0.598373 0.339339
#
# Coordination Sequence:
#
# PCOD9550678 Si02
#       7
#     4   8   8   8   8   8   4
#     4  12  24  42  72 100 136 194 242 298 356 438
#     4  11  25  44  67 101 140 185 240 293 360 437
#     4  11  25  44  70 101 140 184 234 294 360 431
#     4  12  24  45  72 102 138 185 243 291 355 436
#     4  11  25  44  67 101 141 183 232 300 361 422
#     4  11  25  45  73 103 138 185 243 293 360 434
#     4  12  24  44  72 100 136 180 232 284 348 422
#
# _framework density 22.689793999999999
#
# number of rings (size 3 to 8) (size 9 to 14) (size 15 to 20)
#    0.000    0.667    3.333    5.000    0.000    5.333 
#    0.000    0.000    0.000    0.000    0.000    0.000 
#    0.000    0.000    0.000    0.000    0.000    0.000 
#
# Total GULP energy -268531.365204 kJ/mol
# GULP energy per Si atom -5594.403442 kJ/mol
# Density = 2.263815 g / cm^3
# Si number density = 22.689794 Si / 1000 Ang^3
#
#
#
# Elastic Constant Matrix: (Units=GPa)
#
#
# Indices 1 2 3 4 5 6 
#
# 1 55.8520 12.4100 18.4317 0.0000 0.0000 0.0000
# 2 12.4100 55.8535 18.4327 0.0000 0.0000 0.0000
# 3 18.4317 18.4327 108.1697 0.0000 0.0000 0.0000
# 4 0.0000 0.0000 0.0000 25.8285 0.0000 0.0000
# 5 0.0000 0.0000 0.0000 0.0000 25.8275 0.0000
# 6 0.0000 0.0000 0.0000 0.0000 0.0000 36.9786
#
#
#
# Elastic Compliance Matrix: (Units=1/GPa)
#
#
# Indices 1 2 3 4 5 6 
#
# 1 0.019577 -0.003442 -0.002749 0.000000 0.000000 0.000000
# 2 -0.003442 0.019576 -0.002749 0.000000 0.000000 0.000000
# 3 -0.002749 -0.002749 0.010182 0.000000 0.000000 0.000000
# 4 0.000000 0.000000 0.000000 0.038717 0.000000 0.000000
# 5 0.000000 0.000000 0.000000 0.000000 0.038718 0.000000
# 6 0.000000 0.000000 0.000000 0.000000 0.000000 0.027043
#
#
# Mechanical properties :
#
#
# Convention : Reuss Voigt Hill
#
# Bulk Modulus (GPa) = 31.79384 35.38047 33.58715
# Shear Modulus (GPa) = 27.44561 29.10031 28.27296
#
# Velocity S-wave (km/s) = 3.48171 3.58513 3.53379
# Velocity P-wave (km/s) = 5.49598 5.72403 5.61116
#
# Compressibility (1/GPa) = 0.03145263
#
# Stress axis : x y z
#
# Youngs Moduli (GPa) = 51.08134 51.08250 98.21561
#
# Poissons Ratio (x) = 0.17585 0.27001
# Poissons Ratio (y) = 0.17584 0.27003
# Poissons Ratio (z) = 0.14043 0.14044
#
# Static dielectric constant tensor:
#      x y z
#    x 1.805720 0.000000 0.000000 
#    y 0.000000 1.805720 0.000000 
#    z 0.000000 0.000000 1.768260 
# 
# From -- ./inp_files/8021.got.cif
#   From: 2010.05.17/outbox.cif.g08.bks.cpg/sg95_5_cif.got.tgz:8021.got - 2010.06.03 19:46:49.
