data_PCOD9550371
_publ_section_title
;
Structure prediction by ZEFSAII (Michael W. Deem and Ramdas Pophale) SiO2 
 PCOD9550371
Probable space group: P 42 21 2
;
_chemical_formula_sum "Si O2"
_cell_formula_units_Z 18
_cell_length_a 12.152289
_cell_length_b 12.152289
_cell_length_c 4.965540
_cell_angle_alpha 90.000000
_cell_angle_beta 90.000000
_cell_angle_gamma 90.000000
_cell_volume 733.301651
_symmetry_space_group_name_H-M "P 42 21 2"
_symmetry_group_IT_number 94
_symmetry_cell_setting 'tetragonal'
loop_
_space_group_symop_operation_xyz
x,y,z
1/2-y,1/2+x,1/2+z
-x,-y,z
1/2+y,1/2-x,1/2+z
1/2+x,1/2-y,1/2-z
1/2-x,1/2+y,1/2-z
y,x,-z
-y,-x,-z
loop_
_atom_site_type_symbol
_atom_site_label
_atom_site_fract_x
_atom_site_fract_y
_atom_site_fract_z
Si Si1 0.962573 0.793676 0.112552
Si Si2 0.000000 0.000000 0.500000
Si Si3 0.166741 0.724061 0.759385
O O1 0.906823 0.680859 0.214847
O O2 0.001202 0.888785 0.319553
O O3 0.857349 0.857349 0.000000
O O4 0.051812 0.763779 0.887470
O O5 0.205269 0.794732 0.500000
O O6 0.251120 0.748881 0.000000
#
# Coordination Sequence:
#
# PCOD9550371 Si02
#       3
#     8   2   8
#     4  11  26  46  83 121 161 212 276 332 417 477
#     4  12  22  48  78 128 148 222 270 336 398 508
#     4  11  26  47  80 119 163 209 272 340 400 487
#
# _framework density 24.546513999999998
#
# number of rings (size 3 to 8) (size 9 to 14) (size 15 to 20)
#    0.000    0.889    2.222    3.333   12.444    0.000 
#    0.000    0.000   19.556   10.667    0.000    0.000 
#    0.000    0.000    0.000    0.000    0.000    0.000 
#
# Total GULP energy -100459.892703 kJ/mol
# GULP energy per Si atom -5581.105150 kJ/mol
# Density = 2.449064 g / cm^3
# Si number density = 24.546514 Si / 1000 Ang^3
#
#
#
# Elastic Constant Matrix: (Units=GPa)
#
#
# Indices 1 2 3 4 5 6 
#
# 1 117.5351 125.8393 73.5939 0.0000 0.0000 0.0000
# 2 125.8393 117.5355 73.5941 0.0000 0.0000 0.0000
# 3 73.5939 73.5941 169.3286 0.0000 0.0000 0.0000
# 4 0.0000 0.0000 0.0000 41.7101 0.0000 0.0000
# 5 0.0000 0.0000 0.0000 0.0000 41.7126 0.0000
# 6 0.0000 0.0000 0.0000 0.0000 0.0000 59.0385
#
#
#
# Elastic Compliance Matrix: (Units=1/GPa)
#
#
# Indices 1 2 3 4 5 6 
#
# 1 -0.057424 0.062998 -0.002423 0.000000 0.000000 0.000000
# 2 0.062998 -0.057424 -0.002423 0.000000 0.000000 0.000000
# 3 -0.002423 -0.002423 0.008012 0.000000 0.000000 0.000000
# 4 0.000000 0.000000 0.000000 0.023975 0.000000 0.000000
# 5 0.000000 0.000000 0.000000 0.000000 0.023974 0.000000
# 6 0.000000 0.000000 0.000000 0.000000 0.000000 0.016938
#
#
# Mechanical properties :
#
#
# Convention : Reuss Voigt Hill
#
# Bulk Modulus (GPa) = 105.60581 105.60596 105.60589
# Shear Modulus (GPa) = -32.23712 37.25034 2.50661
#
# Velocity S-wave (km/s) = -3.62789 3.89979 1.01162
# Velocity P-wave (km/s) = 5.05642 7.96203 6.66938
#
# Compressibility (1/GPa) = 0.00946918
#
# Stress axis : x y z
#
# Youngs Moduli (GPa) = -17.41417 -17.41422 124.82045
#
# Poissons Ratio (x) = 1.09707 0.30240
# Poissons Ratio (y) = 1.09707 0.30238
# Poissons Ratio (z) = -0.04219 -0.04219
#
# Static dielectric constant tensor:
#      x y z
#    x 2.205830 0.000000 0.000000 
#    y 0.000000 2.205830 0.000000 
#    z 0.000000 0.000000 1.968610 
# 
# From -- ./inp_files/70.got.cif
#   From: 2010.05.17/outbox.cif.g08.bks.cpg/sg94_1_cif.got.tgz:70.got - 2010.06.03 19:43:16.
