data_PCOD9550282
_publ_section_title
;
Structure prediction by ZEFSAII (Michael W. Deem and Ramdas Pophale) SiO2 
 PCOD9550282
Probable space group: P 42 21 2
;
_chemical_formula_sum "Si O2"
_cell_formula_units_Z 28
_cell_length_a 16.303938
_cell_length_b 16.303938
_cell_length_c 5.185633
_cell_angle_alpha 90.000000
_cell_angle_beta 90.000000
_cell_angle_gamma 90.000000
_cell_volume 1378.436638
_symmetry_space_group_name_H-M "P 42 21 2"
_symmetry_group_IT_number 94
_symmetry_cell_setting 'tetragonal'
loop_
_space_group_symop_operation_xyz
x,y,z
1/2-y,1/2+x,1/2+z
-x,-y,z
1/2+y,1/2-x,1/2+z
1/2+x,1/2-y,1/2-z
1/2-x,1/2+y,1/2-z
y,x,-z
-y,-x,-z
loop_
_atom_site_type_symbol
_atom_site_label
_atom_site_fract_x
_atom_site_fract_y
_atom_site_fract_z
Si Si1 0.634006 0.365995 0.000000
Si Si2 0.198346 0.460588 0.322750
Si Si3 0.690661 0.925384 0.672650
Si Si4 0.537169 0.615477 0.743937
O O1 0.722103 0.379678 0.868341
O O2 0.559692 0.376957 0.797636
O O3 0.190728 0.520948 0.567413
O O4 0.138051 0.383840 0.334701
O O5 0.292458 0.431723 0.304307
O O6 0.181163 0.512635 0.066122
O O7 0.562561 0.562561 0.500000
O O8 0.577102 0.577102 0.000000
#
# Coordination Sequence:
#
# PCOD9550282 Si02
#       4
#     4   8   8   8
#     4  10  25  44  64 100 132 173 212 278 324 396
#     4  11  25  44  67 101 129 178 222 269 328 395
#     4  11  25  45  67  96 136 169 227 270 333 386
#     4  11  24  42  67  97 134 171 220 261 331 390
#
# _framework density 20.312866
#
# number of rings (size 3 to 8) (size 9 to 14) (size 15 to 20)
#    0.000    1.143    0.000    5.571    2.000   17.143 
#    5.143    0.000    0.000    0.000    0.000    0.000 
#    0.000    0.000    0.000    0.000    0.000    0.000 
#
# Total GULP energy -156771.894992 kJ/mol
# GULP energy per Si atom -5598.996250 kJ/mol
# Density = 2.026663 g / cm^3
# Si number density = 20.312866 Si / 1000 Ang^3
#
#
#
# Elastic Constant Matrix: (Units=GPa)
#
#
# Indices 1 2 3 4 5 6 
#
# 1 104.5068 81.4359 28.4920 0.0000 0.0000 0.0000
# 2 81.4359 104.5067 28.4914 0.0000 0.0000 0.0000
# 3 28.4920 28.4914 129.2880 0.0000 0.0000 0.0000
# 4 0.0000 0.0000 0.0000 -27.2815 0.0000 0.0000
# 5 0.0000 0.0000 0.0000 0.0000 -27.2781 0.0000
# 6 0.0000 0.0000 0.0000 0.0000 0.0000 71.2661
#
#
#
# Elastic Compliance Matrix: (Units=1/GPa)
#
#
# Indices 1 2 3 4 5 6 
#
# 1 0.024556 -0.018789 -0.001271 0.000000 0.000000 0.000000
# 2 -0.018789 0.024556 -0.001271 0.000000 0.000000 0.000000
# 3 -0.001271 -0.001271 0.008295 0.000000 0.000000 0.000000
# 4 0.000000 0.000000 0.000000 -0.036655 0.000000 0.000000
# 5 0.000000 0.000000 0.000000 0.000000 -0.036659 0.000000
# 6 0.000000 0.000000 0.000000 0.000000 0.000000 0.014032
#
#
# Mechanical properties :
#
#
# Convention : Reuss Voigt Hill
#
# Bulk Modulus (GPa) = 67.81567 68.34889 68.08228
# Shear Modulus (GPa) = 109.40587 16.66678 63.03633
#
# Velocity S-wave (km/s) = 7.34693 2.86755 5.57674
# Velocity P-wave (km/s) = 10.26780 6.68468 8.66351
#
# Compressibility (1/GPa) = 0.01474585
#
# Stress axis : x y z
#
# Youngs Moduli (GPa) = 40.72294 40.72303 120.55650
#
# Poissons Ratio (x) = 0.76513 0.15324
# Poissons Ratio (y) = 0.76513 0.15322
# Poissons Ratio (z) = 0.05176 0.05175
#
# Static dielectric constant tensor:
#      x y z
#    x 1.726440 0.000000 0.000000 
#    y 0.000000 1.726440 0.000000 
#    z 0.000000 0.000000 1.700630 
# 
# From -- ./inp_files/233.got.cif
#   From: 2010.05.17/outbox.cif.g08.bks.cpg/sg94_1_cif.got.tgz:233.got - 2010.06.03 19:43:16.
