data_PCOD9550760
_publ_section_title
;
Structure prediction by ZEFSAII (Michael W. Deem and Ramdas Pophale) SiO2 
 PCOD9550760
Probable space group: P 43 21 2
;
_chemical_formula_sum "Si O2"
_cell_formula_units_Z 44
_cell_length_a 9.304725
_cell_length_b 9.304725
_cell_length_c 27.528072
_cell_angle_alpha 90.000000
_cell_angle_beta 90.000000
_cell_angle_gamma 90.000000
_cell_volume 2383.322866
_symmetry_space_group_name_H-M "P 43 21 2"
_symmetry_group_IT_number 96
_symmetry_cell_setting 'tetragonal'
loop_
_space_group_symop_operation_xyz
x,y,z
1/2-y,1/2+x,3/4+z
-x,-y,1/2+z
1/2+y,1/2-x,1/4+z
1/2+x,1/2-y,1/4-z
1/2-x,1/2+y,3/4-z
y,x,-z
-y,-x,1/2-z
loop_
_atom_site_type_symbol
_atom_site_label
_atom_site_fract_x
_atom_site_fract_y
_atom_site_fract_z
Si Si1 0.643634 0.356367 0.750000
Si Si2 0.579005 0.917634 0.168715
Si Si3 0.435944 0.405226 0.659717
Si Si4 0.124917 0.461570 0.219319
Si Si5 0.862297 0.440912 0.146509
Si Si6 0.315003 0.387555 0.132360
O O1 0.520761 0.380575 0.710103
O O2 0.798665 0.383785 0.726972
O O3 0.591906 0.759862 0.144049
O O4 0.595322 0.903832 0.226635
O O5 0.425937 0.981484 0.151565
O O6 0.695602 0.028681 0.148636
O O7 0.286106 0.487243 0.662240
O O8 0.545114 0.510277 0.631396
O O9 0.244725 0.379357 0.186583
O O10 0.981114 0.464256 0.188163
O O11 0.845287 0.271706 0.136384
#
# Coordination Sequence:
#
# PCOD9550760 Si02
#       6
#     4   8   8   8   8   8
#     4   8  18  36  58  80 114 156 194 234 286 354
#     4  10  21  37  57  80 112 153 197 240 291 359
#     4  10  19  35  57  81 112 153 194 238 295 355
#     4   9  20  37  58  84 114 151 194 239 292 355
#     4  11  22  36  58  86 116 151 196 250 301 351
#     4  10  21  38  57  84 119 152 192 246 300 357
#
# _framework density 18.46162
#
# number of rings (size 3 to 8) (size 9 to 14) (size 15 to 20)
#    0.000    2.182    0.000    3.273    0.000    8.000 
#    0.000    0.000    0.000    4.364    0.000    0.000 
#    0.000    0.000    0.000    0.000    0.000    0.000 
#
# Total GULP energy -245112.721570 kJ/mol
# GULP energy per Si atom -5570.743672 kJ/mol
# Density = 1.841960 g / cm^3
# Si number density = 18.461620 Si / 1000 Ang^3
#
#
#
# Elastic Constant Matrix: (Units=GPa)
#
#
# Indices 1 2 3 4 5 6 
#
# 1 119.2214 36.2276 34.3824 0.0000 0.0000 0.0000
# 2 36.2276 119.2211 34.3827 0.0000 0.0000 0.0000
# 3 34.3824 34.3827 69.2471 0.0000 0.0000 0.0000
# 4 0.0000 0.0000 0.0000 16.3699 0.0000 0.0000
# 5 0.0000 0.0000 0.0000 0.0000 16.3701 0.0000
# 6 0.0000 0.0000 0.0000 0.0000 0.0000 27.3770
#
#
#
# Elastic Compliance Matrix: (Units=1/GPa)
#
#
# Indices 1 2 3 4 5 6 
#
# 1 0.010146 -0.001903 -0.004093 0.000000 0.000000 0.000000
# 2 -0.001903 0.010146 -0.004093 0.000000 0.000000 0.000000
# 3 -0.004093 -0.004093 0.018506 0.000000 0.000000 0.000000
# 4 0.000000 0.000000 0.000000 0.061088 0.000000 0.000000
# 5 0.000000 0.000000 0.000000 0.000000 0.061087 0.000000
# 6 0.000000 0.000000 0.000000 0.000000 0.000000 0.036527
#
#
# Mechanical properties :
#
#
# Convention : Reuss Voigt Hill
#
# Bulk Modulus (GPa) = 53.70444 57.51946 55.61195
# Shear Modulus (GPa) = 22.33293 25.53654 23.93474
#
# Velocity S-wave (km/s) = 3.48184 3.72321 3.60454
# Velocity P-wave (km/s) = 6.73181 7.05031 6.89290
#
# Compressibility (1/GPa) = 0.01862043
#
# Stress axis : x y z
#
# Youngs Moduli (GPa) = 98.55756 98.55698 54.03743
#
# Poissons Ratio (x) = 0.18753 0.22118
# Poissons Ratio (y) = 0.18753 0.22118
# Poissons Ratio (z) = 0.40341 0.40341
#
# Static dielectric constant tensor:
#      x y z
#    x 1.642020 0.000000 0.000000 
#    y 0.000000 1.642020 0.000000 
#    z 0.000000 0.000000 1.673710 
# 
# From -- ./inp_files/4377.got.cif
#   From: 2010.05.17/outbox.cif.g08.bks.cpg/sg96_3_cif.got.tgz:4377.got - 2010.06.03 19:52:08.
