data_PCOD9550013
_publ_section_title
;
Structure prediction by ZEFSAII (Michael W. Deem and Ramdas Pophale) SiO2 
 PCOD9550013
Probable space group: P 42 21 2
;
_chemical_formula_sum "Si O2"
_cell_formula_units_Z 64
_cell_length_a 12.033777
_cell_length_b 12.033777
_cell_length_c 22.008544
_cell_angle_alpha 90.000000
_cell_angle_beta 90.000000
_cell_angle_gamma 90.000000
_cell_volume 3187.096627
_symmetry_space_group_name_H-M "P 42 21 2"
_symmetry_group_IT_number 94
_symmetry_cell_setting 'tetragonal'
loop_
_space_group_symop_operation_xyz
x,y,z
1/2-y,1/2+x,1/2+z
-x,-y,z
1/2+y,1/2-x,1/2+z
1/2+x,1/2-y,1/2-z
1/2-x,1/2+y,1/2-z
y,x,-z
-y,-x,-z
loop_
_atom_site_type_symbol
_atom_site_label
_atom_site_fract_x
_atom_site_fract_y
_atom_site_fract_z
Si Si1 0.569093 0.237981 0.168333
Si Si2 0.668965 0.847806 0.192583
Si Si3 0.235162 0.614332 0.167751
Si Si4 0.566189 0.893082 0.901863
Si Si5 0.899402 0.736607 0.197715
Si Si6 0.048662 0.696278 0.893660
Si Si7 0.410056 0.326394 0.367667
Si Si8 0.939714 0.760154 0.018816
O O1 0.437611 0.230496 0.180111
O O2 0.634195 0.354938 0.163465
O O3 0.615446 0.197466 0.233796
O O4 0.616216 0.154604 0.117257
O O5 0.691670 0.889952 0.262035
O O6 0.782585 0.784800 0.175648
O O7 0.651123 0.951544 0.148813
O O8 0.201413 0.512530 0.124894
O O9 0.169104 0.720550 0.142182
O O10 0.633103 0.934760 0.842730
O O11 0.660930 0.868430 0.950677
O O12 0.500000 0.000000 0.925579
O O13 0.997502 0.825516 0.185538
O O14 0.074634 0.822366 0.871156
O O15 0.008088 0.710684 0.962430
O O16 0.476968 0.308360 0.430082
O O17 0.858342 0.858342 0.000000
#
# Coordination Sequence:
#
# PCOD9550013 Si02
#       8
#     8   8   8   8   8   8   8   8
#     4  10  21  37  57  87 131 160 200 256 307 373
#     4  11  21  37  58  92 130 162 193 260 317 370
#     4  10  20  38  63  89 116 166 215 246 299 367
#     4  11  19  37  65  86 111 159 219 250 291 385
#     4  10  20  35  62  86 122 163 204 253 307 368
#     4  11  23  36  61  93 122 157 200 256 325 368
#     4  10  20  40  62  87 120 159 205 250 307 382
#     4  11  24  40  60  91 124 157 198 262 316 371
#
# _framework density 20.080973
#
# number of rings (size 3 to 8) (size 9 to 14) (size 15 to 20)
#    0.000    1.500    3.750    3.000    0.000    3.500 
#    0.000    0.625    0.000    0.000    0.000    2.625 
#    0.000    0.000    0.000    0.000    0.000    0.000 
#
# Total GULP energy -356815.886586 kJ/mol
# GULP energy per Si atom -5575.248228 kJ/mol
# Density = 2.003527 g / cm^3
# Si number density = 20.080973 Si / 1000 Ang^3
#
#
#
# Elastic Constant Matrix: (Units=GPa)
#
#
# Indices 1 2 3 4 5 6 
#
# 1 64.6039 14.9730 6.4332 0.0000 0.0000 0.0000
# 2 14.9730 64.6039 6.4332 0.0000 0.0000 0.0000
# 3 6.4332 6.4332 75.0482 0.0000 0.0000 0.0000
# 4 0.0000 0.0000 0.0000 27.5826 0.0000 0.0000
# 5 0.0000 0.0000 0.0000 0.0000 27.5826 0.0000
# 6 0.0000 0.0000 0.0000 0.0000 0.0000 39.0986
#
#
#
# Elastic Compliance Matrix: (Units=1/GPa)
#
#
# Indices 1 2 3 4 5 6 
#
# 1 0.016446 -0.003703 -0.001092 0.000000 0.000000 0.000000
# 2 -0.003703 0.016446 -0.001092 0.000000 0.000000 0.000000
# 3 -0.001092 -0.001092 0.013512 0.000000 0.000000 0.000000
# 4 0.000000 0.000000 0.000000 0.036255 0.000000 0.000000
# 5 0.000000 0.000000 0.000000 0.000000 0.036255 0.000000
# 6 0.000000 0.000000 0.000000 0.000000 0.000000 0.025576
#
#
# Mechanical properties :
#
#
# Convention : Reuss Voigt Hill
#
# Bulk Modulus (GPa) = 28.87769 28.88165 28.87967
# Shear Modulus (GPa) = 29.79600 30.61386 30.20493
#
# Velocity S-wave (km/s) = 3.85618 3.90875 3.88255
# Velocity P-wave (km/s) = 5.85138 5.89787 5.87467
#
# Compressibility (1/GPa) = 0.03462880
#
# Stress axis : x y z
#
# Youngs Moduli (GPa) = 60.80535 60.80535 74.00807
#
# Poissons Ratio (x) = 0.22515 0.08084
# Poissons Ratio (y) = 0.22515 0.08084
# Poissons Ratio (z) = 0.06642 0.06642
#
# Static dielectric constant tensor:
#      x y z
#    x 1.785780 0.000000 0.000000 
#    y 0.000000 1.785780 0.000000 
#    z 0.000000 0.000000 1.714850 
# 
# From -- ./inp_files/5168.got.cif
#   From: 2010.05.17/outbox.cif.g08.bks.cpg/sg94_3_cif.got.tgz:5168.got - 2010.06.03 19:43:16.
