data_PCOD9550583
_publ_section_title
;
Structure prediction by ZEFSAII (Michael W. Deem and Ramdas Pophale) SiO2 
 PCOD9550583
Probable space group: P 43 2 2
;
_chemical_formula_sum "Si O2"
_cell_formula_units_Z 48
_cell_length_a 16.781478
_cell_length_b 16.781478
_cell_length_c 10.098235
_cell_angle_alpha 90.000000
_cell_angle_beta 90.000000
_cell_angle_gamma 90.000000
_cell_volume 2843.844783
_symmetry_space_group_name_H-M "P 43 2 2"
_symmetry_group_IT_number 95
_symmetry_cell_setting 'tetragonal'
loop_
_space_group_symop_operation_xyz
x,y,z
-y,x,3/4+z
-x,-y,1/2+z
y,-x,1/4+z
x,-y,1/2-z
-x,y,-z
y,x,1/4-z
-y,-x,3/4-z
loop_
_atom_site_type_symbol
_atom_site_label
_atom_site_fract_x
_atom_site_fract_y
_atom_site_fract_z
Si Si1 0.305549 0.179969 0.121455
Si Si2 0.597682 0.181947 0.609502
Si Si3 0.920039 0.588002 0.809348
Si Si4 0.587932 0.360223 0.514239
Si Si5 0.412223 0.677754 0.485404
Si Si6 0.575985 0.104771 0.352759
O O1 0.214361 0.214361 0.125000
O O2 0.340722 0.174864 0.270388
O O3 0.352950 0.250742 0.046732
O O4 0.340481 0.103385 0.041267
O O5 0.576955 0.273262 0.579779
O O6 0.624410 0.150541 0.466160
O O7 0.516340 0.134164 0.642794
O O8 0.900208 0.500000 0.750000
O O9 0.013106 0.581878 0.850769
O O10 0.880074 0.602401 0.952708
O O11 0.500000 0.395561 0.500000
O O12 0.632961 0.367040 0.375000
O O13 0.638926 0.403429 0.622838
O O14 0.500000 0.711893 0.500000
O O15 0.389220 0.610781 0.375000
#
# Coordination Sequence:
#
# PCOD9550583 Si02
#       6
#     8   8   8   8   8   8
#     4  11  23  36  53  75 105 151 179 229 288 361
#     4  11  20  36  52  74 107 127 189 232 300 360
#     4  11  20  35  57  84 109 136 187 237 292 344
#     4  12  25  36  52  71  98 142 190 258 303 339
#     4  11  23  37  50  68  92 136 193 235 301 334
#     4  10  22  33  58  85 100 138 174 254 296 326
#
# _framework density 16.878557000000001
#
# number of rings (size 3 to 8) (size 9 to 14) (size 15 to 20)
#    0.000    1.000    8.333    1.500    2.333    2.667 
#    0.000    0.000    0.000    0.000    0.000    0.000 
#    0.000    0.000    0.000    0.000    0.000   33.333 
#
# Total GULP energy -267273.646529 kJ/mol
# GULP energy per Si atom -5568.200969 kJ/mol
# Density = 1.684014 g / cm^3
# Si number density = 16.878557 Si / 1000 Ang^3
#
#
#
# Elastic Constant Matrix: (Units=GPa)
#
#
# Indices 1 2 3 4 5 6 
#
# 1 36.2818 15.6424 6.9821 0.0000 0.0000 0.0000
# 2 15.6424 36.2832 6.9829 0.0000 0.0000 0.0000
# 3 6.9821 6.9829 119.4013 0.0000 0.0000 0.0000
# 4 0.0000 0.0000 0.0000 101.0538 0.0000 0.0000
# 5 0.0000 0.0000 0.0000 0.0000 101.0216 0.0000
# 6 0.0000 0.0000 0.0000 0.0000 0.0000 -150.9186
#
#
#
# Elastic Compliance Matrix: (Units=1/GPa)
#
#
# Indices 1 2 3 4 5 6 
#
# 1 0.034008 -0.014442 -0.001144 0.000000 0.000000 0.000000
# 2 -0.014442 0.034007 -0.001144 0.000000 0.000000 0.000000
# 3 -0.001144 -0.001144 0.008509 0.000000 0.000000 0.000000
# 4 0.000000 0.000000 0.000000 0.009896 0.000000 0.000000
# 5 0.000000 0.000000 0.000000 0.000000 0.009899 0.000000
# 6 0.000000 0.000000 0.000000 0.000000 0.000000 -0.006626
#
#
# Mechanical properties :
#
#
# Convention : Reuss Voigt Hill
#
# Bulk Modulus (GPa) = 23.22091 27.90902 25.56496
# Shear Modulus (GPa) = 36.36149 21.05526 28.70837
#
# Velocity S-wave (km/s) = 4.64648 3.53577 4.12864
# Velocity P-wave (km/s) = 6.52487 5.76541 6.15686
#
# Compressibility (1/GPa) = 0.04306464
#
# Stress axis : x y z
#
# Youngs Moduli (GPa) = 29.40445 29.40547 117.52333
#
# Poissons Ratio (x) = 0.42466 0.13446
# Poissons Ratio (y) = 0.42465 0.13449
# Poissons Ratio (z) = 0.03364 0.03365
#
# Static dielectric constant tensor:
#      x y z
#    x 1.562980 0.000000 0.000000 
#    y 0.000000 1.563010 0.000000 
#    z 0.000000 0.000000 1.606820 
# 
# From -- ./inp_files/2622.got.cif
#   From: 2010.05.17/outbox.cif.g08.bks.cpg/sg95_2_cif.got.tgz:2622.got - 2010.06.03 19:46:49.
