data_PCOD9550408
_publ_section_title
;
Structure prediction by ZEFSAII (Michael W. Deem and Ramdas Pophale) SiO2 
 PCOD9550408
Probable space group: P 43 2 2
;
_chemical_formula_sum "Si O2"
_cell_formula_units_Z 32
_cell_length_a 21.895780
_cell_length_b 21.895780
_cell_length_c 5.112127
_cell_angle_alpha 90.000000
_cell_angle_beta 90.000000
_cell_angle_gamma 90.000000
_cell_volume 2450.882416
_symmetry_space_group_name_H-M "P 43 2 2"
_symmetry_group_IT_number 95
_symmetry_cell_setting 'tetragonal'
loop_
_space_group_symop_operation_xyz
x,y,z
-y,x,3/4+z
-x,-y,1/2+z
y,-x,1/4+z
x,-y,1/2-z
-x,y,-z
y,x,1/4-z
-y,-x,3/4-z
loop_
_atom_site_type_symbol
_atom_site_label
_atom_site_fract_x
_atom_site_fract_y
_atom_site_fract_z
Si Si1 0.693470 0.925733 0.262121
Si Si2 0.000000 0.905825 0.000000
Si Si3 0.622970 0.926190 0.764428
Si Si4 0.109430 0.169319 0.366796
Si Si5 0.500000 0.957015 0.000000
O O1 0.642889 0.906428 0.476671
O O2 0.759247 0.901002 0.342589
O O3 0.696805 0.000000 0.250000
O O4 0.671986 0.904819 0.976993
O O5 0.042467 0.861919 0.175069
O O6 0.951341 0.951341 0.125000
O O7 0.555454 0.917609 0.882332
O O8 0.626241 0.000000 0.750000
O O9 0.139820 0.139820 0.625000
O O10 0.151388 0.151388 0.125000
O O11 0.480085 0.000000 0.750000
#
# Coordination Sequence:
#
# PCOD9550408 Si02
#       5
#     8   4   8   8   4
#     4  10  18  31  41  58  74  97 117 147 181 225
#     4  10  20  34  46  58  70  86 110 156 206 254
#     4   9  17  26  43  57  79  97 115 136 168 208
#     4  11  22  33  46  58  72  93 121 156 191 238
#     4  10  16  26  40  62  82  98 118 134 160 206
#
# _framework density 13.056521999999999
#
# number of rings (size 3 to 8) (size 9 to 14) (size 15 to 20)
#    0.000    2.000    1.250    6.000    0.000    3.000 
#    0.000    0.000    0.000    0.000    0.000    0.000 
#    0.000    0.000    0.000    0.000    0.000    0.000 
#
# Total GULP energy -178192.869436 kJ/mol
# GULP energy per Si atom -5568.527170 kJ/mol
# Density = 1.302680 g / cm^3
# Si number density = 13.056522 Si / 1000 Ang^3
#
#
#
# Elastic Constant Matrix: (Units=GPa)
#
#
# Indices 1 2 3 4 5 6 
#
# 1 46.4197 27.2011 17.5471 0.0000 0.0000 0.0000
# 2 27.2011 46.4197 17.5471 0.0000 0.0000 0.0000
# 3 17.5471 17.5471 76.7259 0.0000 0.0000 0.0000
# 4 0.0000 0.0000 0.0000 -32.2524 0.0000 0.0000
# 5 0.0000 0.0000 0.0000 0.0000 -32.2524 0.0000
# 6 0.0000 0.0000 0.0000 0.0000 0.0000 5.0616
#
#
#
# Elastic Compliance Matrix: (Units=1/GPa)
#
#
# Indices 1 2 3 4 5 6 
#
# 1 0.033639 -0.018394 -0.003487 0.000000 0.000000 0.000000
# 2 -0.018394 0.033639 -0.003487 0.000000 0.000000 0.000000
# 3 -0.003487 -0.003487 0.014628 0.000000 0.000000 0.000000
# 4 0.000000 0.000000 0.000000 -0.031005 0.000000 0.000000
# 5 0.000000 0.000000 0.000000 0.000000 -0.031005 0.000000
# 6 0.000000 0.000000 0.000000 0.000000 0.000000 0.197568
#
#
# Mechanical properties :
#
#
# Convention : Reuss Voigt Hill
#
# Bulk Modulus (GPa) = 32.07985 32.68399 32.38192
# Shear Modulus (GPa) = 17.94766 -4.73733 6.60516
#
# Velocity S-wave (km/s) = 3.71160 -1.90688 2.25164
# Velocity P-wave (km/s) = 6.55677 4.49875 5.62272
#
# Compressibility (1/GPa) = 0.03117221
#
# Stress axis : x y z
#
# Youngs Moduli (GPa) = 29.72737 29.72737 68.36143
#
# Poissons Ratio (x) = 0.54680 0.23834
# Poissons Ratio (y) = 0.54680 0.23834
# Poissons Ratio (z) = 0.10365 0.10365
#
# Static dielectric constant tensor:
#      x y z
#    x 1.443710 0.000000 0.000000 
#    y 0.000000 1.443710 0.000000 
#    z 0.000000 0.000000 1.475130 
# 
# From -- ./inp_files/1038.got.cif
#   From: 2010.05.17/outbox.cif.g08.bks.cpg/sg95_1_cif.got.tgz:1038.got - 2010.06.03 19:46:49.
