data_PCOD9550434
_publ_section_title
;
Structure prediction by ZEFSAII (Michael W. Deem and Ramdas Pophale) SiO2 
 PCOD9550434
Probable space group: P 43 2 2
;
_chemical_formula_sum "Si O2"
_cell_formula_units_Z 64
_cell_length_a 12.389683
_cell_length_b 12.389683
_cell_length_c 21.765185
_cell_angle_alpha 90.000000
_cell_angle_beta 90.000000
_cell_angle_gamma 90.000000
_cell_volume 3341.048287
_symmetry_space_group_name_H-M "P 43 2 2"
_symmetry_group_IT_number 95
_symmetry_cell_setting 'tetragonal'
loop_
_space_group_symop_operation_xyz
x,y,z
-y,x,3/4+z
-x,-y,1/2+z
y,-x,1/4+z
x,-y,1/2-z
-x,y,-z
y,x,1/4-z
-y,-x,3/4-z
loop_
_atom_site_type_symbol
_atom_site_label
_atom_site_fract_x
_atom_site_fract_y
_atom_site_fract_z
Si Si1 0.728039 0.121982 0.526112
Si Si2 0.532823 0.913643 0.401305
Si Si3 0.271775 0.602598 0.636657
Si Si4 0.302166 0.122274 0.727315
Si Si5 0.631764 0.336412 0.003161
Si Si6 0.453546 0.728291 0.699401
Si Si7 0.608350 0.856057 0.103930
Si Si8 0.107284 0.677028 0.265315
O O1 0.669317 0.168451 0.586915
O O2 0.828954 0.198006 0.511353
O O3 0.648476 0.136165 0.466531
O O4 0.753019 0.994278 0.528682
O O5 0.528977 0.814713 0.354930
O O6 0.636841 0.897328 0.444784
O O7 0.427602 0.915206 0.443196
O O8 0.546019 0.033966 0.376387
O O9 0.320582 0.637930 0.570959
O O10 0.364344 0.639360 0.683419
O O11 0.240576 0.477036 0.639712
O O12 0.403547 0.196391 0.747563
O O13 0.297103 0.141165 0.654332
O O14 0.316894 0.000000 0.750000
O O15 0.500000 0.317804 0.000000
O O16 0.664164 0.439373 0.964099
O O17 0.696969 0.233541 0.976490
#
# Coordination Sequence:
#
# PCOD9550434 Si02
#       8
#     8   8   8   8   8   8   8   8
#     4  10  23  36  63  91 112 160 213 264 315 365
#     4  10  18  35  61  85 114 153 212 249 293 371
#     4  11  22  39  57  88 128 159 205 258 310 373
#     4  11  22  38  61  91 123 154 202 262 324 377
#     4  12  24  39  59  91 130 173 206 250 317 390
#     4  11  23  37  57  90 122 166 200 249 316 372
#     4  11  20  38  62  89 121 157 206 260 311 380
#     4  10  19  38  60  85 114 162 212 250 295 373
#
# _framework density 19.155663000000001
#
# number of rings (size 3 to 8) (size 9 to 14) (size 15 to 20)
#    0.000    1.250    6.250    0.750    0.000    4.000 
#    2.250    0.000    0.000    2.250    3.250    0.000 
#    0.000    0.000    0.000    0.000    0.000    0.000 
#
# Total GULP energy -356635.464718 kJ/mol
# GULP energy per Si atom -5572.429136 kJ/mol
# Density = 1.911206 g / cm^3
# Si number density = 19.155663 Si / 1000 Ang^3
#
#
#
# Elastic Constant Matrix: (Units=GPa)
#
#
# Indices 1 2 3 4 5 6 
#
# 1 83.2944 28.3991 11.5313 0.0000 0.0000 0.0000
# 2 28.3991 83.2944 11.5313 0.0000 0.0000 0.0000
# 3 11.5313 11.5313 59.4820 0.0000 0.0000 0.0000
# 4 0.0000 0.0000 0.0000 20.9481 0.0000 0.0000
# 5 0.0000 0.0000 0.0000 0.0000 20.9481 0.0000
# 6 0.0000 0.0000 0.0000 0.0000 0.0000 17.8218
#
#
#
# Elastic Compliance Matrix: (Units=1/GPa)
#
#
# Indices 1 2 3 4 5 6 
#
# 1 0.013771 -0.004445 -0.001808 0.000000 0.000000 0.000000
# 2 -0.004445 0.013771 -0.001808 0.000000 0.000000 0.000000
# 3 -0.001808 -0.001808 0.017513 0.000000 0.000000 0.000000
# 4 0.000000 0.000000 0.000000 0.047737 0.000000 0.000000
# 5 0.000000 0.000000 0.000000 0.000000 0.047737 0.000000
# 6 0.000000 0.000000 0.000000 0.000000 0.000000 0.056111
#
#
# Mechanical properties :
#
#
# Convention : Reuss Voigt Hill
#
# Bulk Modulus (GPa) = 34.56204 36.55492 35.55848
# Shear Modulus (GPa) = 22.48122 23.58417 23.03269
#
# Velocity S-wave (km/s) = 3.42951 3.51263 3.47132
# Velocity P-wave (km/s) = 5.81068 5.96456 5.88812
#
# Compressibility (1/GPa) = 0.02893347
#
# Stress axis : x y z
#
# Youngs Moduli (GPa) = 72.61399 72.61399 57.10096
#
# Poissons Ratio (x) = 0.32277 0.10324
# Poissons Ratio (y) = 0.32277 0.10324
# Poissons Ratio (z) = 0.13129 0.13129
#
# Static dielectric constant tensor:
#      x y z
#    x 1.689880 0.000000 0.000000 
#    y 0.000000 1.689880 0.000000 
#    z 0.000000 0.000000 1.743070 
# 
# From -- ./inp_files/7061.got.cif
#   From: 2010.05.17/outbox.cif.g08.bks.cpg/sg95_4_cif.got.tgz:7061.got - 2010.06.03 19:46:49.
