data_PCOD9550887
_publ_section_title
;
Structure prediction by ZEFSAII (Michael W. Deem and Ramdas Pophale) SiO2 
 PCOD9550887
Probable space group: P 43 21 2
;
_chemical_formula_sum "Si O2"
_cell_formula_units_Z 60
_cell_length_a 18.423339
_cell_length_b 18.423339
_cell_length_c 9.601754
_cell_angle_alpha 90.000000
_cell_angle_beta 90.000000
_cell_angle_gamma 90.000000
_cell_volume 3259.021773
_symmetry_space_group_name_H-M "P 43 21 2"
_symmetry_group_IT_number 96
_symmetry_cell_setting 'tetragonal'
loop_
_space_group_symop_operation_xyz
x,y,z
1/2-y,1/2+x,3/4+z
-x,-y,1/2+z
1/2+y,1/2-x,1/4+z
1/2+x,1/2-y,1/4-z
1/2-x,1/2+y,3/4-z
y,x,-z
-y,-x,1/2-z
loop_
_atom_site_type_symbol
_atom_site_label
_atom_site_fract_x
_atom_site_fract_y
_atom_site_fract_z
Si Si1 0.228703 0.847911 0.372379
Si Si2 0.041936 0.686864 0.299445
Si Si3 0.586568 0.179370 0.652947
Si Si4 0.669967 0.330034 0.250000
Si Si5 0.599505 0.621866 0.337960
Si Si6 0.003087 0.204890 0.042357
Si Si7 0.202358 0.200917 0.695810
Si Si8 0.709231 0.461568 0.615979
O O1 0.175023 0.824978 0.250000
O O2 0.262237 0.921452 0.317423
O O3 0.185737 0.856453 0.514111
O O4 0.285323 0.782843 0.388810
O O5 0.102242 0.624221 0.315597
O O6 0.966693 0.666007 0.227561
O O7 0.028745 0.732057 0.442113
O O8 0.648308 0.236940 0.605714
O O9 0.546676 0.220237 0.783415
O O10 0.685590 0.415813 0.244384
O O11 0.704853 0.298453 0.388377
O O12 0.616353 0.616353 0.500000
O O13 0.633083 0.547375 0.278352
O O14 0.516092 0.647986 0.323773
O O15 0.009953 0.225836 0.207509
O O16 0.178899 0.120056 0.652440
#
# Coordination Sequence:
#
# PCOD9550887 Si02
#       8
#     8   8   8   4   8   8   8   8
#     4  12  20  35  63  95 118 158 220 261 306 370
#     4  12  24  42  66  92 126 170 211 271 320 385
#     4  12  23  43  66  92 123 166 214 268 315 379
#     4  10  22  38  62  94 124 164 200 266 328 372
#     4  10  21  36  56  88 133 166 200 257 324 383
#     4  10  21  41  59  91 133 163 206 255 324 396
#     4  11  21  38  64  92 125 161 219 265 312 378
#     4  10  21  37  61  93 126 166 207 261 313 380
#
# _framework density 18.410432
#
# number of rings (size 3 to 8) (size 9 to 14) (size 15 to 20)
#    0.000    1.067    6.667    0.400    0.933    0.000 
#    2.400    2.667    2.933    0.000    0.000    0.000 
#    0.000    0.000    0.000    0.000    0.000    0.000 
#
# Total GULP energy -334394.800130 kJ/mol
# GULP energy per Si atom -5573.246669 kJ/mol
# Density = 1.836853 g / cm^3
# Si number density = 18.410432 Si / 1000 Ang^3
#
#
#
# Elastic Constant Matrix: (Units=GPa)
#
#
# Indices 1 2 3 4 5 6 
#
# 1 67.7093 27.9263 30.4728 0.0000 0.0000 0.0000
# 2 27.9263 67.7123 30.4737 0.0000 0.0000 0.0000
# 3 30.4728 30.4737 68.4704 0.0000 0.0000 0.0000
# 4 0.0000 0.0000 0.0000 30.8735 0.0000 0.0000
# 5 0.0000 0.0000 0.0000 0.0000 30.8727 0.0000
# 6 0.0000 0.0000 0.0000 0.0000 0.0000 25.7971
#
#
#
# Elastic Compliance Matrix: (Units=1/GPa)
#
#
# Indices 1 2 3 4 5 6 
#
# 1 0.019866 -0.005270 -0.006496 0.000000 0.000000 0.000000
# 2 -0.005270 0.019865 -0.006496 0.000000 0.000000 0.000000
# 3 -0.006496 -0.006496 0.020387 0.000000 0.000000 0.000000
# 4 0.000000 0.000000 0.000000 0.032390 0.000000 0.000000
# 5 0.000000 0.000000 0.000000 0.000000 0.032391 0.000000
# 6 0.000000 0.000000 0.000000 0.000000 0.000000 0.038764
#
#
# Mechanical properties :
#
#
# Convention : Reuss Voigt Hill
#
# Bulk Modulus (GPa) = 42.38221 42.40416 42.39319
# Shear Modulus (GPa) = 24.03243 25.17661 24.60452
#
# Velocity S-wave (km/s) = 3.61691 3.70201 3.65971
# Velocity P-wave (km/s) = 6.36502 6.43085 6.39802
#
# Compressibility (1/GPa) = 0.02359481
#
# Stress axis : x y z
#
# Youngs Moduli (GPa) = 50.33711 50.33920 49.05081
#
# Poissons Ratio (x) = 0.26528 0.31863
# Poissons Ratio (y) = 0.26526 0.31863
# Poissons Ratio (z) = 0.32699 0.32700
#
# Static dielectric constant tensor:
#      x y z
#    x 1.642540 0.000000 0.000000 
#    y 0.000000 1.642540 0.000000 
#    z 0.000000 0.000000 1.661910 
# 
# From -- ./inp_files/1633.got.cif
#   From: 2010.05.17/outbox.cif.g08.bks.cpg/sg96_1_cif.got.tgz:1633.got - 2010.06.03 19:52:08.
