data_PCOD9550420
_publ_section_title
;
Structure prediction by ZEFSAII (Michael W. Deem and Ramdas Pophale) SiO2 
 PCOD9550420
Probable space group: P 43 2 2
;
_chemical_formula_sum "Si O2"
_cell_formula_units_Z 52
_cell_length_a 18.103317
_cell_length_b 18.103317
_cell_length_c 10.013498
_cell_angle_alpha 90.000000
_cell_angle_beta 90.000000
_cell_angle_gamma 90.000000
_cell_volume 3281.724565
_symmetry_space_group_name_H-M "P 43 2 2"
_symmetry_group_IT_number 95
_symmetry_cell_setting 'tetragonal'
loop_
_space_group_symop_operation_xyz
x,y,z
-y,x,3/4+z
-x,-y,1/2+z
y,-x,1/4+z
x,-y,1/2-z
-x,y,-z
y,x,1/4-z
-y,-x,3/4-z
loop_
_atom_site_type_symbol
_atom_site_label
_atom_site_fract_x
_atom_site_fract_y
_atom_site_fract_z
Si Si1 0.456258 0.323150 0.365797
Si Si2 0.414351 0.164998 0.972378
Si Si3 0.683321 0.586375 0.903025
Si Si4 0.824448 0.371435 0.221474
Si Si5 0.559844 0.085563 0.287831
Si Si6 0.383793 0.914150 0.265916
Si Si7 0.288708 0.711293 0.875000
O O1 0.500000 0.346501 0.500000
O O2 0.393904 0.385206 0.343987
O O3 0.509913 0.315906 0.237583
O O4 0.420369 0.244021 0.410977
O O5 0.409352 0.252974 0.958261
O O6 0.399740 0.132836 0.826243
O O7 0.500000 0.147154 0.000000
O O8 0.372535 0.122886 0.090089
O O9 0.701454 0.646795 0.016500
O O10 0.879998 0.415246 0.320869
O O11 0.787378 0.305437 0.303245
O O12 0.868754 0.342024 0.096014
O O13 0.471242 0.094470 0.272530
O O14 0.574800 0.000000 0.250000
O O15 0.367177 0.000000 0.250000
#
# Coordination Sequence:
#
# PCOD9550420 Si02
#       7
#     8   8   8   8   8   8   4
#     4  11  18  32  51  69  88 123 176 226 274 311
#     4  10  19  33  46  66 100 117 147 205 261 308
#     4  11  20  34  51  68  88 127 175 226 273 310
#     4  11  19  32  53  69  93 129 169 208 248 310
#     4  10  18  28  49  74  94 122 159 201 254 312
#     4  10  20  31  48  75 102 127 151 197 268 318
#     4  10  20  32  54  72  84 130 184 208 254 310
#
# _framework density 15.845328
#
# number of rings (size 3 to 8) (size 9 to 14) (size 15 to 20)
#    0.000    1.538    4.615    4.154    0.000    2.462 
#    0.000    9.231    0.000    0.000    0.000    0.000 
#    0.000    0.000    0.000    0.000    0.000    1.538 
#
# Total GULP energy -289819.714305 kJ/mol
# GULP energy per Si atom -5573.456044 kJ/mol
# Density = 1.580926 g / cm^3
# Si number density = 15.845328 Si / 1000 Ang^3
#
#
#
# Elastic Constant Matrix: (Units=GPa)
#
#
# Indices 1 2 3 4 5 6 
#
# 1 57.3628 24.4141 22.4650 0.0000 0.0000 0.0000
# 2 24.4141 57.3633 22.4648 0.0000 0.0000 0.0000
# 3 22.4650 22.4648 71.1376 0.0000 0.0000 0.0000
# 4 0.0000 0.0000 0.0000 17.1452 0.0000 0.0000
# 5 0.0000 0.0000 0.0000 0.0000 17.1451 0.0000
# 6 0.0000 0.0000 0.0000 0.0000 0.0000 6.7781
#
#
#
# Elastic Compliance Matrix: (Units=1/GPa)
#
#
# Indices 1 2 3 4 5 6 
#
# 1 0.022573 -0.007777 -0.004672 0.000000 0.000000 0.000000
# 2 -0.007777 0.022573 -0.004672 0.000000 0.000000 0.000000
# 3 -0.004672 -0.004672 0.017008 0.000000 0.000000 0.000000
# 4 0.000000 0.000000 0.000000 0.058325 0.000000 0.000000
# 5 0.000000 0.000000 0.000000 0.000000 0.058326 0.000000
# 6 0.000000 0.000000 0.000000 0.000000 0.000000 0.147534
#
#
# Mechanical properties :
#
#
# Convention : Reuss Voigt Hill
#
# Bulk Modulus (GPa) = 35.82971 36.06128 35.94549
# Shear Modulus (GPa) = 13.51769 15.98168 14.74969
#
# Velocity S-wave (km/s) = 2.92396 3.17930 3.05430
# Velocity P-wave (km/s) = 5.83615 6.02370 5.93067
#
# Compressibility (1/GPa) = 0.02790980
#
# Stress axis : x y z
#
# Youngs Moduli (GPa) = 44.30102 44.30164 58.79498
#
# Poissons Ratio (x) = 0.34455 0.27471
# Poissons Ratio (y) = 0.34454 0.27470
# Poissons Ratio (z) = 0.20699 0.20699
#
# Static dielectric constant tensor:
#      x y z
#    x 1.559300 0.000000 0.000000 
#    y 0.000000 1.559300 0.000000 
#    z 0.000000 0.000000 1.578630 
# 
# From -- ./inp_files/2752.got.cif
#   From: 2010.05.17/outbox.cif.g08.bks.cpg/sg95_2_cif.got.tgz:2752.got - 2010.06.03 19:46:49.
