data_PCOD9550695
_publ_section_title
;
Structure prediction by ZEFSAII (Michael W. Deem and Ramdas Pophale) SiO2 
 PCOD9550695
Probable space group: P 43 2 2
;
_chemical_formula_sum "Si O2"
_cell_formula_units_Z 36
_cell_length_a 8.429135
_cell_length_b 8.429135
_cell_length_c 20.796075
_cell_angle_alpha 90.000000
_cell_angle_beta 90.000000
_cell_angle_gamma 90.000000
_cell_volume 1477.567718
_symmetry_space_group_name_H-M "P 43 2 2"
_symmetry_group_IT_number 95
_symmetry_cell_setting 'tetragonal'
loop_
_space_group_symop_operation_xyz
x,y,z
-y,x,3/4+z
-x,-y,1/2+z
y,-x,1/4+z
x,-y,1/2-z
-x,y,-z
y,x,1/4-z
-y,-x,3/4-z
loop_
_atom_site_type_symbol
_atom_site_label
_atom_site_fract_x
_atom_site_fract_y
_atom_site_fract_z
Si Si1 0.284742 0.631827 0.307601
Si Si2 0.922688 0.077313 0.375000
Si Si3 0.319458 0.205672 0.517216
Si Si4 0.837148 0.486161 0.027327
Si Si5 0.275474 0.061259 0.390044
O O1 0.285305 0.500000 0.250000
O O2 0.385408 0.614593 0.375000
O O3 0.351299 0.788283 0.272828
O O4 0.107598 0.667726 0.332486
O O5 0.870745 0.209730 0.321534
O O6 0.109840 0.070444 0.353732
O O7 0.500000 0.156363 0.500000
O O8 0.306860 0.391972 0.529854
O O9 0.233833 0.171382 0.450278
O O10 0.868938 0.413898 0.096541
O O11 0.000000 0.560684 0.000000
#
# Coordination Sequence:
#
# PCOD9550695 Si02
#       5
#     8   4   8   8   8
#     4  12  27  50  81 120 165 219 284 354 434 516
#     4  12  24  50  78 112 156 208 276 348 422 512
#     4  12  28  47  72 110 157 206 267 341 428 501
#     4  12  25  47  76 113 161 212 278 340 416 510
#     4  12  25  48  79 112 154 210 278 345 418 515
#
# _framework density 24.364366
#
# number of rings (size 3 to 8) (size 9 to 14) (size 15 to 20)
#    0.000    0.000    3.333    6.000    3.111    1.778 
#    4.000    1.111    0.000    0.000    0.000    0.000 
#    0.000    0.000    0.000    0.000    0.000    0.000 
#
# Total GULP energy -200613.321350 kJ/mol
# GULP energy per Si atom -5572.592260 kJ/mol
# Density = 2.430891 g / cm^3
# Si number density = 24.364366 Si / 1000 Ang^3
#
#
#
# Elastic Constant Matrix: (Units=GPa)
#
#
# Indices 1 2 3 4 5 6 
#
# 1 78.9996 33.1795 24.0323 0.0000 0.0000 0.0000
# 2 33.1795 79.0000 24.0333 0.0000 0.0000 0.0000
# 3 24.0323 24.0333 84.8068 0.0000 0.0000 0.0000
# 4 0.0000 0.0000 0.0000 37.7424 0.0000 0.0000
# 5 0.0000 0.0000 0.0000 0.0000 37.7315 0.0000
# 6 0.0000 0.0000 0.0000 0.0000 0.0000 48.2233
#
#
#
# Elastic Compliance Matrix: (Units=1/GPa)
#
#
# Indices 1 2 3 4 5 6 
#
# 1 0.015985 -0.005839 -0.002875 0.000000 0.000000 0.000000
# 2 -0.005839 0.015985 -0.002875 0.000000 0.000000 0.000000
# 3 -0.002875 -0.002875 0.013421 0.000000 0.000000 0.000000
# 4 0.000000 0.000000 0.000000 0.026495 0.000000 0.000000
# 5 0.000000 0.000000 0.000000 0.000000 0.026503 0.000000
# 6 0.000000 0.000000 0.000000 0.000000 0.000000 0.020737
#
#
# Mechanical properties :
#
#
# Convention : Reuss Voigt Hill
#
# Bulk Modulus (GPa) = 45.01960 45.03295 45.02628
# Shear Modulus (GPa) = 33.39780 35.51020 34.45400
#
# Velocity S-wave (km/s) = 3.70640 3.82182 3.76455
# Velocity P-wave (km/s) = 6.06913 6.16428 6.11689
#
# Compressibility (1/GPa) = 0.02221255
#
# Stress axis : x y z
#
# Youngs Moduli (GPa) = 62.55750 62.55733 74.50946
#
# Poissons Ratio (x) = 0.36527 0.21422
# Poissons Ratio (y) = 0.36528 0.21425
# Poissons Ratio (z) = 0.17986 0.17988
#
# Static dielectric constant tensor:
#      x y z
#    x 2.047260 0.000000 0.000000 
#    y 0.000000 2.047270 0.000000 
#    z 0.000000 0.000000 2.047540 
# 
# From -- ./inp_files/6212.got.cif
#   From: 2010.05.17/outbox.cif.g08.bks.cpg/sg95_4_cif.got.tgz:6212.got - 2010.06.03 19:46:49.
