data_PCOD9550774
_publ_section_title
;
Structure prediction by ZEFSAII (Michael W. Deem and Ramdas Pophale) SiO2 
 PCOD9550774
Probable space group: P 43 21 2
;
_chemical_formula_sum "Si O2"
_cell_formula_units_Z 64
_cell_length_a 11.765585
_cell_length_b 11.765585
_cell_length_c 20.837828
_cell_angle_alpha 90.000000
_cell_angle_beta 90.000000
_cell_angle_gamma 90.000000
_cell_volume 2884.559492
_symmetry_space_group_name_H-M "P 43 21 2"
_symmetry_group_IT_number 96
_symmetry_cell_setting 'tetragonal'
loop_
_space_group_symop_operation_xyz
x,y,z
1/2-y,1/2+x,3/4+z
-x,-y,1/2+z
1/2+y,1/2-x,1/4+z
1/2+x,1/2-y,1/4-z
1/2-x,1/2+y,3/4-z
y,x,-z
-y,-x,1/2-z
loop_
_atom_site_type_symbol
_atom_site_label
_atom_site_fract_x
_atom_site_fract_y
_atom_site_fract_z
Si Si1 0.505598 0.323805 0.500759
Si Si2 0.202795 0.131406 0.654348
Si Si3 0.912349 0.929056 0.619253
Si Si4 0.827683 0.569026 0.538574
Si Si5 0.524907 0.628370 0.296985
Si Si6 0.723874 0.207617 0.340114
Si Si7 0.805244 0.146238 0.557430
Si Si8 0.092691 0.607658 0.536448
O O1 0.382656 0.382656 0.500000
O O2 0.577378 0.347830 0.565470
O O3 0.575021 0.391860 0.444992
O O4 0.515534 0.190406 0.482572
O O5 0.198377 0.063816 0.588283
O O6 0.262592 0.251827 0.649477
O O7 0.275129 0.054762 0.703286
O O8 0.826094 0.844975 0.584181
O O9 0.870541 0.053133 0.597936
O O10 0.039529 0.912551 0.594938
O O11 0.756126 0.648223 0.588272
O O12 0.799962 0.626242 0.470135
O O13 0.963744 0.569004 0.549104
O O14 0.452177 0.547824 0.250000
O O15 0.614267 0.688758 0.250637
O O16 0.673604 0.145380 0.402430
O O17 0.696679 0.090596 0.522426
#
# Coordination Sequence:
#
# PCOD9550774 Si02
#       8
#     8   8   8   8   8   8   8   8
#     4  10  21  39  64  97 126 173 219 266 325 381
#     4  11  24  40  62  97 140 165 214 279 326 403
#     4  10  19  38  65  94 122 164 226 268 308 396
#     4  11  23  38  59  96 132 169 210 269 346 386
#     4  10  21  38  68  90 120 172 222 267 318 382
#     4  10  22  34  60  93 125 169 213 267 329 400
#     4  10  21  39  63  90 127 172 217 266 318 384
#     4  10  21  39  61  90 132 172 207 269 330 393
#
# _framework density 22.187094999999999
#
# number of rings (size 3 to 8) (size 9 to 14) (size 15 to 20)
#    0.000    1.750    2.500    1.500    5.250    5.000 
#    0.000    8.125    0.000    0.000    0.000    0.000 
#    0.000    0.000    0.000    0.000    0.000    0.000 
#
# Total GULP energy -357638.995419 kJ/mol
# GULP energy per Si atom -5588.109303 kJ/mol
# Density = 2.213660 g / cm^3
# Si number density = 22.187095 Si / 1000 Ang^3
#
#
#
# Elastic Constant Matrix: (Units=GPa)
#
#
# Indices 1 2 3 4 5 6 
#
# 1 96.5981 38.9540 -0.3401 0.0000 0.0000 0.0000
# 2 38.9540 96.5984 -0.3398 0.0000 0.0000 0.0000
# 3 -0.3401 -0.3398 35.4895 0.0000 0.0000 0.0000
# 4 0.0000 0.0000 0.0000 14.8486 0.0000 0.0000
# 5 0.0000 0.0000 0.0000 0.0000 14.8473 0.0000
# 6 0.0000 0.0000 0.0000 0.0000 0.0000 30.2957
#
#
#
# Elastic Compliance Matrix: (Units=1/GPa)
#
#
# Indices 1 2 3 4 5 6 
#
# 1 0.012363 -0.004985 0.000071 0.000000 0.000000 0.000000
# 2 -0.004985 0.012363 0.000071 0.000000 0.000000 0.000000
# 3 0.000071 0.000071 0.028179 0.000000 0.000000 0.000000
# 4 0.000000 0.000000 0.000000 0.067347 0.000000 0.000000
# 5 0.000000 0.000000 0.000000 0.000000 0.067352 0.000000
# 6 0.000000 0.000000 0.000000 0.000000 0.000000 0.033008
#
#
# Mechanical properties :
#
#
# Convention : Reuss Voigt Hill
#
# Bulk Modulus (GPa) = 23.13930 33.91492 28.52711
# Shear Modulus (GPa) = 20.43286 24.69244 22.56265
#
# Velocity S-wave (km/s) = 3.03798 3.33966 3.19239
# Velocity P-wave (km/s) = 4.77049 5.49456 5.14528
#
# Compressibility (1/GPa) = 0.04321651
#
# Stress axis : x y z
#
# Youngs Moduli (GPa) = 80.88846 80.88868 35.48780
#
# Poissons Ratio (x) = 0.40324 -0.00251
# Poissons Ratio (y) = 0.40324 -0.00250
# Poissons Ratio (z) = -0.00572 -0.00571
#
# Static dielectric constant tensor:
#      x y z
#    x 1.806220 0.000000 0.000000 
#    y 0.000000 1.806220 0.000000 
#    z 0.000000 0.000000 1.845370 
# 
# From -- ./inp_files/3967.got.cif
#   From: 2010.05.17/outbox.cif.g08.bks.cpg/sg96_2_cif.got.tgz:3967.got - 2010.06.03 19:52:08.
