data_PCOD9550281
_publ_section_title
;
Structure prediction by ZEFSAII (Michael W. Deem and Ramdas Pophale) SiO2 
 PCOD9550281
Probable space group: P 42 21 2
;
_chemical_formula_sum "Si O2"
_cell_formula_units_Z 56
_cell_length_a 15.518576
_cell_length_b 15.518576
_cell_length_c 10.704229
_cell_angle_alpha 90.000000
_cell_angle_beta 90.000000
_cell_angle_gamma 90.000000
_cell_volume 2577.858805
_symmetry_space_group_name_H-M "P 42 21 2"
_symmetry_group_IT_number 94
_symmetry_cell_setting 'tetragonal'
loop_
_space_group_symop_operation_xyz
x,y,z
1/2-y,1/2+x,1/2+z
-x,-y,z
1/2+y,1/2-x,1/2+z
1/2+x,1/2-y,1/2-z
1/2-x,1/2+y,1/2-z
y,x,-z
-y,-x,-z
loop_
_atom_site_type_symbol
_atom_site_label
_atom_site_fract_x
_atom_site_fract_y
_atom_site_fract_z
Si Si1 0.553474 0.342035 0.093485
Si Si2 0.891128 0.217539 0.563142
Si Si3 0.611521 0.065803 0.310348
Si Si4 0.688916 0.638356 0.697986
Si Si5 0.901809 0.971387 0.875580
Si Si6 0.632093 0.079014 0.828071
Si Si7 0.174911 0.323315 0.418373
O O1 0.560063 0.368855 0.239382
O O2 0.617002 0.261472 0.078273
O O3 0.584907 0.415094 0.000000
O O4 0.461784 0.318404 0.032504
O O5 0.798596 0.201405 0.500000
O O6 0.914029 0.315243 0.589761
O O7 0.880902 0.165574 0.694971
O O8 0.521528 0.110569 0.347173
O O9 0.638592 0.113253 0.185822
O O10 0.610332 0.962880 0.287400
O O11 0.653634 0.559800 0.612342
O O12 0.781756 0.603153 0.750162
O O13 0.699591 0.728509 0.625386
O O14 0.909561 0.909561 0.000000
O O15 0.000000 0.000000 0.857578
O O16 0.659178 0.125176 0.955241
#
# Coordination Sequence:
#
# PCOD9550281 Si02
#       7
#     8   8   8   8   8   8   8
#     4  12  24  45  76 108 143 196 254 306 373 448
#     4  11  23  43  73 101 145 184 247 310 366 442
#     4  10  25  43  67 109 137 187 253 299 377 451
#     4  11  24  45  69 105 144 196 240 305 376 440
#     4  11  26  45  70 106 151 195 244 298 375 449
#     4  11  23  44  73  97 144 194 241 309 379 452
#     4  11  25  45  71 102 148 192 249 308 377 458
#
# _framework density 21.723454
#
# number of rings (size 3 to 8) (size 9 to 14) (size 15 to 20)
#    0.000    1.000    2.857    3.000    4.000    3.429 
#    0.000    6.429    0.000    0.000    0.000    0.000 
#    0.000    0.000    0.000    0.000    0.000    0.000 
#
# Total GULP energy -312214.638535 kJ/mol
# GULP energy per Si atom -5575.261402 kJ/mol
# Density = 2.167401 g / cm^3
# Si number density = 21.723454 Si / 1000 Ang^3
#
#
#
# Elastic Constant Matrix: (Units=GPa)
#
#
# Indices 1 2 3 4 5 6 
#
# 1 102.2112 97.0643 38.8149 0.0000 0.0000 0.0000
# 2 97.0643 102.1976 38.8100 0.0000 0.0000 0.0000
# 3 38.8149 38.8100 118.0099 0.0000 0.0000 0.0000
# 4 0.0000 0.0000 0.0000 33.4119 0.0000 0.0000
# 5 0.0000 0.0000 0.0000 0.0000 33.4119 0.0000
# 6 0.0000 0.0000 0.0000 0.0000 0.0000 37.6154
#
#
#
# Elastic Compliance Matrix: (Units=1/GPa)
#
#
# Indices 1 2 3 4 5 6 
#
# 1 0.100147 -0.094397 -0.001895 0.000000 0.000000 0.000000
# 2 -0.094397 0.100158 -0.001891 0.000000 0.000000 0.000000
# 3 -0.001895 -0.001891 0.009719 0.000000 0.000000 0.000000
# 4 0.000000 0.000000 0.000000 0.029929 0.000000 0.000000
# 5 0.000000 0.000000 0.000000 0.000000 0.029929 0.000000
# 6 0.000000 0.000000 0.000000 0.000000 0.000000 0.026585
#
#
# Mechanical properties :
#
#
# Convention : Reuss Voigt Hill
#
# Bulk Modulus (GPa) = 73.21441 74.64413 73.92927
# Shear Modulus (GPa) = 10.05254 30.73646 20.39450
#
# Velocity S-wave (km/s) = 2.15350 3.76559 3.06735
# Velocity P-wave (km/s) = 6.32135 7.30356 6.83013
#
# Compressibility (1/GPa) = 0.01365851
#
# Stress axis : x y z
#
# Youngs Moduli (GPa) = 9.98534 9.98418 102.89057
#
# Poissons Ratio (x) = 0.94247 0.19499
# Poissons Ratio (y) = 0.94259 0.19456
# Poissons Ratio (z) = 0.01892 0.01888
#
# Static dielectric constant tensor:
#      x y z
#    x 1.846250 0.000000 0.000000 
#    y 0.000000 1.846250 0.000000 
#    z 0.000000 0.000000 1.868170 
# 
# From -- ./inp_files/2734.got.cif
#   From: 2010.05.17/outbox.cif.g08.bks.cpg/sg94_2_cif.got.tgz:2734.got - 2010.06.03 19:43:16.
