data_PCOD9550361
_publ_section_title
;
Structure prediction by ZEFSAII (Michael W. Deem and Ramdas Pophale) SiO2 
 PCOD9550361
Probable space group: P 42 21 2
;
_chemical_formula_sum "Si O2"
_cell_formula_units_Z 24
_cell_length_a 7.054251
_cell_length_b 7.054251
_cell_length_c 16.439930
_cell_angle_alpha 90.000000
_cell_angle_beta 90.000000
_cell_angle_gamma 90.000000
_cell_volume 818.091313
_symmetry_space_group_name_H-M "P 42 21 2"
_symmetry_group_IT_number 94
_symmetry_cell_setting 'tetragonal'
loop_
_space_group_symop_operation_xyz
x,y,z
1/2-y,1/2+x,1/2+z
-x,-y,z
1/2+y,1/2-x,1/2+z
1/2+x,1/2-y,1/2-z
1/2-x,1/2+y,1/2-z
y,x,-z
-y,-x,-z
loop_
_atom_site_type_symbol
_atom_site_label
_atom_site_fract_x
_atom_site_fract_y
_atom_site_fract_z
Si Si1 0.724368 0.842170 0.645356
Si Si2 0.526340 0.774587 0.466549
Si Si3 0.661043 0.748170 0.828574
O O1 0.660259 0.732866 0.563005
O O2 0.651862 0.769726 0.731641
O O3 0.950582 0.804579 0.642172
O O4 0.707393 0.069938 0.646966
O O5 0.354283 0.645718 0.500000
O O6 0.441672 0.776182 0.369939
O O7 0.500000 0.000000 0.483463
#
# Coordination Sequence:
#
# PCOD9550361 Si02
#       3
#     8   8   8
#     4  11  25  45  78 118 161 217 287 345 421 516
#     4  11  27  48  75 114 169 205 274 344 438 476
#     4  11  25  45  78 118 161 217 287 345 421 516
#
# _framework density 29.336575
#
# number of rings (size 3 to 8) (size 9 to 14) (size 15 to 20)
#    0.000    1.000    3.333    1.000    9.333    5.333 
#    0.000    3.333    0.000    0.000    0.000    0.000 
#    0.000    0.000    0.000    0.000    0.000    0.000 
#
# Total GULP energy -134574.382091 kJ/mol
# GULP energy per Si atom -5607.265920 kJ/mol
# Density = 2.926980 g / cm^3
# Si number density = 29.336575 Si / 1000 Ang^3
#
#
#
# Elastic Constant Matrix: (Units=GPa)
#
#
# Indices 1 2 3 4 5 6 
#
# 1 228.8320 90.4468 102.9177 0.0000 0.0000 0.0000
# 2 90.4468 228.8300 102.9174 0.0000 0.0000 0.0000
# 3 102.9177 102.9174 265.6210 0.0000 0.0000 0.0000
# 4 0.0000 0.0000 0.0000 106.8789 0.0000 0.0000
# 5 0.0000 0.0000 0.0000 0.0000 106.8796 0.0000
# 6 0.0000 0.0000 0.0000 0.0000 0.0000 67.8036
#
#
#
# Elastic Compliance Matrix: (Units=1/GPa)
#
#
# Indices 1 2 3 4 5 6 
#
# 1 0.005701 -0.001526 -0.001618 0.000000 0.000000 0.000000
# 2 -0.001526 0.005701 -0.001618 0.000000 0.000000 0.000000
# 3 -0.001618 -0.001618 0.005018 0.000000 0.000000 0.000000
# 4 0.000000 0.000000 0.000000 0.009356 0.000000 0.000000
# 5 0.000000 0.000000 0.000000 0.000000 0.009356 0.000000
# 6 0.000000 0.000000 0.000000 0.000000 0.000000 0.014748
#
#
# Mechanical properties :
#
#
# Convention : Reuss Voigt Hill
#
# Bulk Modulus (GPa) = 144.97640 146.20518 145.59079
# Shear Modulus (GPa) = 81.03504 84.77915 82.90710
#
# Velocity S-wave (km/s) = 5.26142 5.38159 5.32184
# Velocity P-wave (km/s) = 9.29707 9.41067 9.35405
#
# Compressibility (1/GPa) = 0.00689767
#
# Stress axis : x y z
#
# Youngs Moduli (GPa) = 175.42109 175.41948 199.27108
#
# Poissons Ratio (x) = 0.26763 0.32234
# Poissons Ratio (y) = 0.26763 0.32235
# Poissons Ratio (z) = 0.28376 0.28376
#
# Static dielectric constant tensor:
#      x y z
#    x 2.146100 0.000000 0.000000 
#    y 0.000000 2.146100 0.000000 
#    z 0.000000 0.000000 2.266860 
# 
# From -- ./inp_files/3709.got.cif
#   From: 2010.05.17/outbox.cif.g08.bks.cpg/sg94_2_cif.got.tgz:3709.got - 2010.06.03 19:43:16.
