data_PCOD9550791
_publ_section_title
;
Structure prediction by ZEFSAII (Michael W. Deem and Ramdas Pophale) SiO2 
 PCOD9550791
Probable space group: P 43 21 2
;
_chemical_formula_sum "Si O2"
_cell_formula_units_Z 24
_cell_length_a 14.107399
_cell_length_b 14.107399
_cell_length_c 4.891580
_cell_angle_alpha 90.000000
_cell_angle_beta 90.000000
_cell_angle_gamma 90.000000
_cell_volume 973.515925
_symmetry_space_group_name_H-M "P 43 21 2"
_symmetry_group_IT_number 96
_symmetry_cell_setting 'tetragonal'
loop_
_space_group_symop_operation_xyz
x,y,z
1/2-y,1/2+x,3/4+z
-x,-y,1/2+z
1/2+y,1/2-x,1/4+z
1/2+x,1/2-y,1/4-z
1/2-x,1/2+y,3/4-z
y,x,-z
-y,-x,1/2-z
loop_
_atom_site_type_symbol
_atom_site_label
_atom_site_fract_x
_atom_site_fract_y
_atom_site_fract_z
Si Si1 0.952517 0.132450 0.479452
Si Si2 0.170812 0.386054 0.129008
Si Si3 0.418431 0.796337 0.149205
O O1 0.896336 0.103665 0.750000
O O2 0.779300 0.092153 0.191795
O O3 0.045550 0.187895 0.594246
O O4 0.950911 0.049090 0.250000
O O5 0.144066 0.490796 0.237119
O O6 0.163380 0.315596 0.383564
O O7 0.112154 0.339116 0.888106
#
# Coordination Sequence:
#
# PCOD9550791 Si02
#       3
#     8   8   8
#     4  10  20  34  52  70 104 142 180 216 256 296
#     4  10  20  32  50  73 107 140 179 203 254 315
#     4  10  20  32  50  73 107 140 179 203 254 315
#
# _framework density 24.652906999999999
#
# number of rings (size 3 to 8) (size 9 to 14) (size 15 to 20)
#    2.000    0.000    0.000    6.000    0.000    2.667 
#    0.000    0.000    0.000    0.000    0.000    0.000 
#    0.000   74.667    0.000    0.000    0.000    0.000 
#
# Total GULP energy -133686.538647 kJ/mol
# GULP energy per Si atom -5570.272444 kJ/mol
# Density = 2.459680 g / cm^3
# Si number density = 24.652907 Si / 1000 Ang^3
#
#
#
# Elastic Constant Matrix: (Units=GPa)
#
#
# Indices 1 2 3 4 5 6 
#
# 1 44.2011 74.7066 30.4533 0.0000 0.0000 0.0000
# 2 74.7066 44.1963 30.4521 0.0000 0.0000 0.0000
# 3 30.4533 30.4521 163.5842 0.0000 0.0000 0.0000
# 4 0.0000 0.0000 0.0000 22.0366 0.0000 0.0000
# 5 0.0000 0.0000 0.0000 0.0000 22.0367 0.0000
# 6 0.0000 0.0000 0.0000 0.0000 0.0000 57.4747
#
#
#
# Elastic Compliance Matrix: (Units=1/GPa)
#
#
# Indices 1 2 3 4 5 6 
#
# 1 -0.011740 0.021037 -0.001731 0.000000 0.000000 0.000000
# 2 0.021037 -0.011742 -0.001731 0.000000 0.000000 0.000000
# 3 -0.001731 -0.001731 0.006757 0.000000 0.000000 0.000000
# 4 0.000000 0.000000 0.000000 0.045379 0.000000 0.000000
# 5 0.000000 0.000000 0.000000 0.000000 0.045379 0.000000
# 6 0.000000 0.000000 0.000000 0.000000 0.000000 0.017399
#
#
# Mechanical properties :
#
#
# Convention : Reuss Voigt Hill
#
# Bulk Modulus (GPa) = 54.26551 58.13394 56.19973
# Shear Modulus (GPa) = 80.09929 28.06758 54.08343
#
# Velocity S-wave (km/s) = 5.70625 3.37784 4.68888
# Velocity P-wave (km/s) = 8.09165 6.23260 7.22219
#
# Compressibility (1/GPa) = 0.01842791
#
# Stress axis : x y z
#
# Youngs Moduli (GPa) = -85.17666 -85.16718 147.98580
#
# Poissons Ratio (x) = 1.79170 0.25611
# Poissons Ratio (y) = 1.79190 0.25611
# Poissons Ratio (z) = -0.14741 -0.14739
#
# Static dielectric constant tensor:
#      x y z
#    x 2.090970 0.000000 0.000000 
#    y 0.000000 2.090970 0.000000 
#    z 0.000000 0.000000 2.193910 
# 
# From -- ./inp_files/222.got.cif
#   From: 2010.05.17/outbox.cif.g08.bks.cpg/sg96_1_cif.got.tgz:222.got - 2010.06.03 19:52:08.
