data_PCOD9550522
_publ_section_title
;
Structure prediction by ZEFSAII (Michael W. Deem and Ramdas Pophale) SiO2 
 PCOD9550522
Probable space group: P 43 2 2
;
_chemical_formula_sum "Si O2"
_cell_formula_units_Z 60
_cell_length_a 17.991984
_cell_length_b 17.991984
_cell_length_c 8.694128
_cell_angle_alpha 90.000000
_cell_angle_beta 90.000000
_cell_angle_gamma 90.000000
_cell_volume 2814.389114
_symmetry_space_group_name_H-M "P 43 2 2"
_symmetry_group_IT_number 95
_symmetry_cell_setting 'tetragonal'
loop_
_space_group_symop_operation_xyz
x,y,z
-y,x,3/4+z
-x,-y,1/2+z
y,-x,1/4+z
x,-y,1/2-z
-x,y,-z
y,x,1/4-z
-y,-x,3/4-z
loop_
_atom_site_type_symbol
_atom_site_label
_atom_site_fract_x
_atom_site_fract_y
_atom_site_fract_z
Si Si1 0.695282 0.587467 0.711992
Si Si2 0.666533 0.034235 0.914357
Si Si3 0.252646 0.635072 0.951224
Si Si4 0.885039 0.307538 0.289054
Si Si5 0.861556 0.069732 0.504300
Si Si6 0.216173 0.500000 0.750000
Si Si7 0.607505 0.163076 0.744621
Si Si8 0.093209 0.819563 0.264745
O O1 0.684958 0.500000 0.750000
O O2 0.625351 0.625351 0.625000
O O3 0.763075 0.602435 0.594569
O O4 0.720159 0.622719 0.875519
O O5 0.606258 0.092663 0.857349
O O6 0.732458 0.079845 0.993936
O O7 0.695569 0.000000 0.750000
O O8 0.649170 0.963132 0.017585
O O9 0.301007 0.698994 0.875000
O O10 0.167464 0.660832 0.922055
O O11 0.261958 0.561147 0.845794
O O12 0.907190 0.221195 0.304948
O O13 0.843715 0.322409 0.123735
O O14 0.924318 0.075683 0.375000
O O15 0.886131 0.134539 0.616451
O O16 0.852453 0.986794 0.567971
O O17 0.166101 0.540119 0.623903
O O18 0.160513 0.839488 0.375000
#
# Coordination Sequence:
#
# PCOD9550522 Si02
#       8
#     8   8   8   8   8   4   8   8
#     4  12  26  46  71 105 142 175 228 285 341 426
#     4   9  19  37  63  92 131 171 222 286 343 405
#     4  11  23  41  72 101 134 183 224 278 351 409
#     4   9  20  40  64  92 131 174 225 282 341 412
#     4  11  23  36  52  82 121 162 220 279 336 401
#     4  10  20  40  66 102 138 176 224 286 336 418
#     4  10  20  39  69  96 133 173 219 275 339 402
#     4  11  21  35  54  79 116 168 219 276 338 401
#
# _framework density 21.319013000000002
#
# number of rings (size 3 to 8) (size 9 to 14) (size 15 to 20)
#    0.000    1.600    1.333    5.200    0.000    5.333 
#    0.000    2.667   23.467    0.000    0.000    0.000 
#    0.000    0.000    0.000    0.000    0.000    0.000 
#
# Total GULP energy -334676.020097 kJ/mol
# GULP energy per Si atom -5577.933668 kJ/mol
# Density = 2.127049 g / cm^3
# Si number density = 21.319013 Si / 1000 Ang^3
#
#
#
# Elastic Constant Matrix: (Units=GPa)
#
#
# Indices 1 2 3 4 5 6 
#
# 1 65.7591 27.2420 29.2556 0.0000 0.0000 0.0000
# 2 27.2420 65.7546 29.2552 0.0000 0.0000 0.0000
# 3 29.2556 29.2552 75.8525 0.0000 0.0000 0.0000
# 4 0.0000 0.0000 0.0000 23.8230 0.0000 0.0000
# 5 0.0000 0.0000 0.0000 0.0000 23.8168 0.0000
# 6 0.0000 0.0000 0.0000 0.0000 0.0000 -2.5219
#
#
#
# Elastic Compliance Matrix: (Units=1/GPa)
#
#
# Indices 1 2 3 4 5 6 
#
# 1 0.020080 -0.005883 -0.005476 0.000000 0.000000 0.000000
# 2 -0.005883 0.020082 -0.005476 0.000000 0.000000 0.000000
# 3 -0.005476 -0.005476 0.017408 0.000000 0.000000 0.000000
# 4 0.000000 0.000000 0.000000 0.041976 0.000000 0.000000
# 5 0.000000 0.000000 0.000000 0.000000 0.041987 0.000000
# 6 0.000000 0.000000 0.000000 0.000000 0.000000 -0.396528
#
#
# Mechanical properties :
#
#
# Convention : Reuss Voigt Hill
#
# Bulk Modulus (GPa) = 41.84167 42.09686 41.96927
# Shear Modulus (GPa) = -23.43480 17.13114 -3.15183
#
# Velocity S-wave (km/s) = -3.31908 2.83779 -1.21722
# Velocity P-wave (km/s) = 2.23174 5.52507 4.21350
#
# Compressibility (1/GPa) = 0.02389962
#
# Stress axis : x y z
#
# Youngs Moduli (GPa) = 49.80015 49.79624 57.44634
#
# Poissons Ratio (x) = 0.29295 0.31456
# Poissons Ratio (y) = 0.29297 0.31459
# Poissons Ratio (z) = 0.27269 0.27270
#
# Static dielectric constant tensor:
#      x y z
#    x 1.783580 0.000000 0.000000 
#    y 0.000000 1.783580 0.000000 
#    z 0.000000 0.000000 1.517870 
# 
# From -- ./inp_files/2826.got.cif
#   From: 2010.05.17/outbox.cif.g08.bks.cpg/sg95_2_cif.got.tgz:2826.got - 2010.06.03 19:46:49.
