data_PCOD9550229
_publ_section_title
;
Structure prediction by ZEFSAII (Michael W. Deem and Ramdas Pophale) SiO2 
 PCOD9550229
Probable space group: P 42 21 2
;
_chemical_formula_sum "Si O2"
_cell_formula_units_Z 38
_cell_length_a 8.647206
_cell_length_b 8.647206
_cell_length_c 23.302119
_cell_angle_alpha 90.000000
_cell_angle_beta 90.000000
_cell_angle_gamma 90.000000
_cell_volume 1742.396645
_symmetry_space_group_name_H-M "P 42 21 2"
_symmetry_group_IT_number 94
_symmetry_cell_setting 'tetragonal'
loop_
_space_group_symop_operation_xyz
x,y,z
1/2-y,1/2+x,1/2+z
-x,-y,z
1/2+y,1/2-x,1/2+z
1/2+x,1/2-y,1/2-z
1/2-x,1/2+y,1/2-z
y,x,-z
-y,-x,-z
loop_
_atom_site_type_symbol
_atom_site_label
_atom_site_fract_x
_atom_site_fract_y
_atom_site_fract_z
Si Si1 0.000000 0.000000 0.000000
Si Si2 0.661717 0.770789 0.377727
Si Si3 0.500000 0.000000 0.969172
Si Si4 0.697598 0.981755 0.071672
Si Si5 0.682452 0.000779 0.272006
Si Si6 0.665340 0.331093 0.326713
O O1 0.143006 0.998752 0.040299
O O2 0.799144 0.654096 0.397938
O O3 0.704985 0.879540 0.324090
O O4 0.505896 0.682592 0.354638
O O5 0.599205 0.884611 0.429088
O O6 0.597159 0.913370 0.019011
O O7 0.713765 0.862699 0.122630
O O8 0.798870 0.959818 0.221038
O O9 0.500000 0.000000 0.253833
O O10 0.705081 0.170336 0.296840
#
# Coordination Sequence:
#
# PCOD9550229 Si02
#       6
#     2   8   4   8   8   8
#     4  12  20  36  64 100 114 166 232 256 322 400
#     4  11  21  44  65  96 134 177 221 273 332 403
#     4  12  22  40  64  98 132 176 222 280 320 398
#     4  12  23  37  68  96 129 171 225 272 331 397
#     4  10  23  40  66  94 135 170 218 275 342 397
#     4  11  21  40  65  98 127 171 218 278 332 409
#
# _framework density 21.809042000000002
#
# number of rings (size 3 to 8) (size 9 to 14) (size 15 to 20)
#    0.000    0.842    7.368    1.263    1.474    1.684 
#    0.000    0.000    0.000    0.000    5.474    0.000 
#    0.000    0.000    0.000    0.000    0.000    0.000 
#
# Total GULP energy -211622.527386 kJ/mol
# GULP energy per Si atom -5569.013879 kJ/mol
# Density = 2.175940 g / cm^3
# Si number density = 21.809042 Si / 1000 Ang^3
#
#
#
# Elastic Constant Matrix: (Units=GPa)
#
#
# Indices 1 2 3 4 5 6 
#
# 1 72.6809 18.4132 40.8362 0.0000 0.0000 0.0000
# 2 18.4132 72.6809 40.8362 0.0000 0.0000 0.0000
# 3 40.8362 40.8362 154.8947 0.0000 0.0000 0.0000
# 4 0.0000 0.0000 0.0000 16.7617 0.0000 0.0000
# 5 0.0000 0.0000 0.0000 0.0000 16.7617 0.0000
# 6 0.0000 0.0000 0.0000 0.0000 0.0000 12.9096
#
#
#
# Elastic Compliance Matrix: (Units=1/GPa)
#
#
# Indices 1 2 3 4 5 6 
#
# 1 0.016401 -0.002026 -0.003790 0.000000 0.000000 0.000000
# 2 -0.002026 0.016401 -0.003790 0.000000 0.000000 0.000000
# 3 -0.003790 -0.003790 0.008454 0.000000 0.000000 0.000000
# 4 0.000000 0.000000 0.000000 0.059660 0.000000 0.000000
# 5 0.000000 0.000000 0.000000 0.000000 0.059660 0.000000
# 6 0.000000 0.000000 0.000000 0.000000 0.000000 0.077462
#
#
# Mechanical properties :
#
#
# Convention : Reuss Voigt Hill
#
# Bulk Modulus (GPa) = 45.36019 55.60308 50.48164
# Shear Modulus (GPa) = 18.89657 22.63133 20.76395
#
# Velocity S-wave (km/s) = 2.94676 3.22484 3.08893
# Velocity P-wave (km/s) = 5.69401 6.27829 5.99327
#
# Compressibility (1/GPa) = 0.02204576
#
# Stress axis : x y z
#
# Youngs Moduli (GPa) = 60.97034 60.97034 118.28205
#
# Poissons Ratio (x) = 0.12351 0.44829
# Poissons Ratio (y) = 0.12351 0.44829
# Poissons Ratio (z) = 0.23108 0.23108
#
# Static dielectric constant tensor:
#      x y z
#    x 1.774450 0.000000 0.000000 
#    y 0.000000 1.774450 0.000000 
#    z 0.000000 0.000000 1.810190 
# 
# From -- ./inp_files/5023.got.cif
#   From: 2010.05.17/outbox.cif.g08.bks.cpg/sg94_3_cif.got.tgz:5023.got - 2010.06.03 19:43:16.
