data_PCOD9550319
_publ_section_title
;
Structure prediction by ZEFSAII (Michael W. Deem and Ramdas Pophale) SiO2 
 PCOD9550319
Probable space group: P 42 21 2
;
_chemical_formula_sum "Si O2"
_cell_formula_units_Z 36
_cell_length_a 9.087705
_cell_length_b 9.087705
_cell_length_c 20.490393
_cell_angle_alpha 90.000000
_cell_angle_beta 90.000000
_cell_angle_gamma 90.000000
_cell_volume 1692.227427
_symmetry_space_group_name_H-M "P 42 21 2"
_symmetry_group_IT_number 94
_symmetry_cell_setting 'tetragonal'
loop_
_space_group_symop_operation_xyz
x,y,z
1/2-y,1/2+x,1/2+z
-x,-y,z
1/2+y,1/2-x,1/2+z
1/2+x,1/2-y,1/2-z
1/2-x,1/2+y,1/2-z
y,x,-z
-y,-x,-z
loop_
_atom_site_type_symbol
_atom_site_label
_atom_site_fract_x
_atom_site_fract_y
_atom_site_fract_z
Si Si1 0.243598 0.213661 0.569225
Si Si2 0.785495 0.747480 0.817620
Si Si3 0.500000 0.000000 0.124271
Si Si4 0.041569 0.162537 0.692792
Si Si5 0.344988 0.543915 0.569017
O O1 0.169103 0.169103 0.500000
O O2 0.389883 0.113531 0.584956
O O3 0.140839 0.215553 0.632899
O O4 0.271274 0.387629 0.558645
O O5 0.884498 0.602745 0.835161
O O6 0.868991 0.829021 0.759537
O O7 0.617965 0.731058 0.795251
O O8 0.771562 0.841850 0.883381
O O9 0.000000 0.000000 0.672989
O O10 0.500000 0.500000 0.601556
O O11 0.381769 0.618232 0.500000
#
# Coordination Sequence:
#
# PCOD9550319 Si02
#       5
#     8   8   4   8   8
#     4  12  26  47  73 110 147 190 247 296 369 438
#     4  12  27  46  75 103 148 190 247 294 371 437
#     4  12  24  46  74 106 144 198 236 312 368 426
#     4  12  29  48  71 109 148 191 241 309 370 432
#     4  11  22  45  77 105 140 191 241 293 347 438
#
# _framework density 21.273736
#
# number of rings (size 3 to 8) (size 9 to 14) (size 15 to 20)
#    0.000    0.222    6.667    2.000    3.111    4.889 
#    0.000    0.000    0.000    0.000    0.000    0.000 
#    0.000    0.000    0.000    0.000    0.000    0.000 
#
# Total GULP energy -200836.008157 kJ/mol
# GULP energy per Si atom -5578.778004 kJ/mol
# Density = 2.122532 g / cm^3
# Si number density = 21.273736 Si / 1000 Ang^3
#
#
#
# Elastic Constant Matrix: (Units=GPa)
#
#
# Indices 1 2 3 4 5 6 
#
# 1 57.3918 10.9149 19.4039 0.0000 0.0000 0.0000
# 2 10.9149 57.3917 19.4040 0.0000 0.0000 0.0000
# 3 19.4039 19.4040 98.1461 0.0000 0.0000 0.0000
# 4 0.0000 0.0000 0.0000 27.5098 0.0000 0.0000
# 5 0.0000 0.0000 0.0000 0.0000 27.5076 0.0000
# 6 0.0000 0.0000 0.0000 0.0000 0.0000 24.0104
#
#
#
# Elastic Compliance Matrix: (Units=1/GPa)
#
#
# Indices 1 2 3 4 5 6 
#
# 1 0.019004 -0.002512 -0.003261 0.000000 0.000000 0.000000
# 2 -0.002512 0.019004 -0.003261 0.000000 0.000000 0.000000
# 3 -0.003261 -0.003261 0.011478 0.000000 0.000000 0.000000
# 4 0.000000 0.000000 0.000000 0.036351 0.000000 0.000000
# 5 0.000000 0.000000 0.000000 0.000000 0.036354 0.000000
# 6 0.000000 0.000000 0.000000 0.000000 0.000000 0.041649
#
#
# Mechanical properties :
#
#
# Convention : Reuss Voigt Hill
#
# Bulk Modulus (GPa) = 31.82643 34.70834 33.26738
# Shear Modulus (GPa) = 25.99034 26.68602 26.33818
#
# Velocity S-wave (km/s) = 3.49909 3.54561 3.52243
# Velocity P-wave (km/s) = 5.59623 5.75433 5.67583
#
# Compressibility (1/GPa) = 0.03142043
#
# Stress axis : x y z
#
# Youngs Moduli (GPa) = 52.61997 52.61979 87.12196
#
# Poissons Ratio (x) = 0.13217 0.28407
# Poissons Ratio (y) = 0.13217 0.28407
# Poissons Ratio (z) = 0.17157 0.17157
#
# Static dielectric constant tensor:
#      x y z
#    x 1.376210 0.000000 0.000000 
#    y 0.000000 1.377430 0.000000 
#    z 0.000000 0.000000 1.741640 
# 
# From -- ./inp_files/4516.got.cif
#   From: 2010.05.17/outbox.cif.g08.bks.cpg/sg94_3_cif.got.tgz:4516.got - 2010.06.03 19:43:16.
