data_PCOD9550935
_publ_section_title
;
Structure prediction by ZEFSAII (Michael W. Deem and Ramdas Pophale) SiO2 
 PCOD9550935
Probable space group: P 43 21 2
;
_chemical_formula_sum "Si O2"
_cell_formula_units_Z 40
_cell_length_a 18.352049
_cell_length_b 18.352049
_cell_length_c 5.134623
_cell_angle_alpha 90.000000
_cell_angle_beta 90.000000
_cell_angle_gamma 90.000000
_cell_volume 1729.329230
_symmetry_space_group_name_H-M "P 43 21 2"
_symmetry_group_IT_number 96
_symmetry_cell_setting 'tetragonal'
loop_
_space_group_symop_operation_xyz
x,y,z
1/2-y,1/2+x,3/4+z
-x,-y,1/2+z
1/2+y,1/2-x,1/4+z
1/2+x,1/2-y,1/4-z
1/2-x,1/2+y,3/4-z
y,x,-z
-y,-x,1/2-z
loop_
_atom_site_type_symbol
_atom_site_label
_atom_site_fract_x
_atom_site_fract_y
_atom_site_fract_z
Si Si1 0.535857 0.535857 0.000000
Si Si2 0.829605 0.287420 0.860666
Si Si3 0.691686 0.948471 0.109466
Si Si4 0.816956 0.183044 0.250000
Si Si5 0.390841 0.021785 0.118897
Si Si6 0.049401 0.805077 0.119538
O O1 0.504009 0.495991 0.750000
O O2 0.623032 0.522253 0.013786
O O3 0.767150 0.232851 0.750000
O O4 0.814398 0.367515 0.761533
O O5 0.909775 0.256007 0.793415
O O6 0.825544 0.267046 0.164250
O O7 0.639957 0.994121 0.908651
O O8 0.768781 0.987375 0.057982
O O9 0.667094 0.947274 0.409699
O O10 0.881115 0.169337 0.452267
O O11 0.423903 0.955378 0.953336
#
# Coordination Sequence:
#
# PCOD9550935 Si02
#       6
#     4   8   8   4   8   8
#     4  12  27  46  76 108 140 192 243 306 376 452
#     4  10  23  44  70 102 140 196 240 301 376 445
#     4  12  28  41  75 107 139 187 255 305 357 444
#     4  10  21  44  78  92 144 200 247 284 380 466
#     4  12  25  45  63 100 150 193 234 294 365 433
#     4  11  24  47  72 105 145 191 246 303 374 448
#
# _framework density 23.130358000000001
#
# number of rings (size 3 to 8) (size 9 to 14) (size 15 to 20)
#    0.000    0.800    3.000    5.400   11.200    0.800 
#    1.800    0.000    0.000    0.000    0.000    0.000 
#    0.000    0.000    0.000    0.000    0.000    0.000 
#
# Total GULP energy -223183.298697 kJ/mol
# GULP energy per Si atom -5579.582467 kJ/mol
# Density = 2.307771 g / cm^3
# Si number density = 23.130358 Si / 1000 Ang^3
#
#
#
# Elastic Constant Matrix: (Units=GPa)
#
#
# Indices 1 2 3 4 5 6 
#
# 1 83.3302 16.5309 6.7639 0.0000 0.0000 0.0000
# 2 16.5309 83.3302 6.7641 0.0000 0.0000 0.0000
# 3 6.7639 6.7641 93.9745 0.0000 0.0000 0.0000
# 4 0.0000 0.0000 0.0000 37.1767 0.0000 0.0000
# 5 0.0000 0.0000 0.0000 0.0000 37.1768 0.0000
# 6 0.0000 0.0000 0.0000 0.0000 0.0000 24.2222
#
#
#
# Elastic Compliance Matrix: (Units=1/GPa)
#
#
# Indices 1 2 3 4 5 6 
#
# 1 0.012541 -0.002429 -0.000728 0.000000 0.000000 0.000000
# 2 -0.002429 0.012541 -0.000728 0.000000 0.000000 0.000000
# 3 -0.000728 -0.000728 0.010746 0.000000 0.000000 0.000000
# 4 0.000000 0.000000 0.000000 0.026899 0.000000 0.000000
# 5 0.000000 0.000000 0.000000 0.000000 0.026898 0.000000
# 6 0.000000 0.000000 0.000000 0.000000 0.000000 0.041285
#
#
# Mechanical properties :
#
#
# Convention : Reuss Voigt Hill
#
# Bulk Modulus (GPa) = 35.63854 35.63920 35.63887
# Shear Modulus (GPa) = 33.77634 35.08687 34.43160
#
# Velocity S-wave (km/s) = 3.82548 3.89899 3.86241
# Velocity P-wave (km/s) = 5.91215 5.97586 5.94409
#
# Compressibility (1/GPa) = 0.02805951
#
# Stress axis : x y z
#
# Youngs Moduli (GPa) = 79.73615 79.73615 93.05820
#
# Poissons Ratio (x) = 0.19367 0.06773
# Poissons Ratio (y) = 0.19367 0.06774
# Poissons Ratio (z) = 0.05804 0.05804
#
# Static dielectric constant tensor:
#      x y z
#    x 1.916610 0.000000 0.000000 
#    y 0.000000 1.916610 0.000000 
#    z 0.000000 0.000000 2.043220 
# 
# From -- ./inp_files/446.got.cif
#   From: 2010.05.17/outbox.cif.g08.bks.cpg/sg96_1_cif.got.tgz:446.got - 2010.06.03 19:52:08.
