data_PCOD9550728
_publ_section_title
;
Structure prediction by ZEFSAII (Michael W. Deem and Ramdas Pophale) SiO2 
 PCOD9550728
Probable space group: P 43 21 2
;
_chemical_formula_sum "Si O2"
_cell_formula_units_Z 32
_cell_length_a 11.119810
_cell_length_b 11.119810
_cell_length_c 10.930267
_cell_angle_alpha 90.000000
_cell_angle_beta 90.000000
_cell_angle_gamma 90.000000
_cell_volume 1351.529421
_symmetry_space_group_name_H-M "P 43 21 2"
_symmetry_group_IT_number 96
_symmetry_cell_setting 'tetragonal'
loop_
_space_group_symop_operation_xyz
x,y,z
1/2-y,1/2+x,3/4+z
-x,-y,1/2+z
1/2+y,1/2-x,1/4+z
1/2+x,1/2-y,1/4-z
1/2-x,1/2+y,3/4-z
y,x,-z
-y,-x,1/2-z
loop_
_atom_site_type_symbol
_atom_site_label
_atom_site_fract_x
_atom_site_fract_y
_atom_site_fract_z
Si Si1 0.461514 0.380321 0.363663
Si Si2 0.659953 0.177494 0.657088
Si Si3 0.123107 0.200442 0.215563
Si Si4 0.450297 0.242788 0.813632
O O1 0.423686 0.423686 0.500000
O O2 0.601839 0.413673 0.367675
O O3 0.435482 0.236870 0.362903
O O4 0.363760 0.433269 0.268352
O O5 0.745449 0.254552 0.750000
O O6 0.643687 0.267577 0.544537
O O7 0.537997 0.159155 0.731104
O O8 0.016562 0.225991 0.310958
O O9 0.176418 0.324839 0.166705
#
# Coordination Sequence:
#
# PCOD9550728 Si02
#       4
#     8   8   8   8
#     4  10  18  32  59  92 118 162 218 267 321 388
#     4   8  16  30  54  89 115 149 213 265 301 368
#     4  10  20  35  63  92 124 169 219 271 324 393
#     4  10  20  36  62  94 126 164 223 272 321 390
#
# _framework density 23.676881999999999
#
# number of rings (size 3 to 8) (size 9 to 14) (size 15 to 20)
#    0.000    2.500    2.500    1.500    0.000    0.000 
#    0.000    0.000    5.500   12.000    0.000    0.000 
#    0.000    0.000    0.000    0.000    0.000    0.000 
#
# Total GULP energy -178861.389632 kJ/mol
# GULP energy per Si atom -5589.418426 kJ/mol
# Density = 2.362299 g / cm^3
# Si number density = 23.676882 Si / 1000 Ang^3
#
#
#
# Elastic Constant Matrix: (Units=GPa)
#
#
# Indices 1 2 3 4 5 6 
#
# 1 112.0628 59.2875 36.0341 0.0000 0.0000 0.0000
# 2 59.2875 112.0635 36.0341 0.0000 0.0000 0.0000
# 3 36.0341 36.0341 106.8059 0.0000 0.0000 0.0000
# 4 0.0000 0.0000 0.0000 18.5375 0.0000 0.0000
# 5 0.0000 0.0000 0.0000 0.0000 18.5373 0.0000
# 6 0.0000 0.0000 0.0000 0.0000 0.0000 19.4490
#
#
#
# Elastic Compliance Matrix: (Units=1/GPa)
#
#
# Indices 1 2 3 4 5 6 
#
# 1 0.012875 -0.006074 -0.002295 0.000000 0.000000 0.000000
# 2 -0.006074 0.012875 -0.002295 0.000000 0.000000 0.000000
# 3 -0.002295 -0.002295 0.010911 0.000000 0.000000 0.000000
# 4 0.000000 0.000000 0.000000 0.053945 0.000000 0.000000
# 5 0.000000 0.000000 0.000000 0.000000 0.053945 0.000000
# 6 0.000000 0.000000 0.000000 0.000000 0.000000 0.051417
#
#
# Mechanical properties :
#
#
# Convention : Reuss Voigt Hill
#
# Bulk Modulus (GPa) = 65.21034 65.96040 65.58537
# Shear Modulus (GPa) = 22.48165 24.60986 23.54576
#
# Velocity S-wave (km/s) = 3.08477 3.22748 3.15693
# Velocity P-wave (km/s) = 6.34739 6.46590 6.40692
#
# Compressibility (1/GPa) = 0.01533499
#
# Stress axis : x y z
#
# Youngs Moduli (GPa) = 77.67210 77.67271 91.65039
#
# Poissons Ratio (x) = 0.47175 0.21030
# Poissons Ratio (y) = 0.47174 0.21029
# Poissons Ratio (z) = 0.17822 0.17822
#
# Static dielectric constant tensor:
#      x y z
#    x 1.929770 0.000000 0.000000 
#    y 0.000000 1.929770 0.000000 
#    z 0.000000 0.000000 1.911400 
# 
# From -- ./inp_files/2998.got.cif
#   From: 2010.05.17/outbox.cif.g08.bks.cpg/sg96_2_cif.got.tgz:2998.got - 2010.06.03 19:52:08.
