data_PCOD9550419
_publ_section_title
;
Structure prediction by ZEFSAII (Michael W. Deem and Ramdas Pophale) SiO2 
 PCOD9550419
Probable space group: P 43 2 2
;
_chemical_formula_sum "Si O2"
_cell_formula_units_Z 48
_cell_length_a 25.838177
_cell_length_b 25.838177
_cell_length_c 5.515251
_cell_angle_alpha 90.000000
_cell_angle_beta 90.000000
_cell_angle_gamma 90.000000
_cell_volume 3682.044390
_symmetry_space_group_name_H-M "P 43 2 2"
_symmetry_group_IT_number 95
_symmetry_cell_setting 'tetragonal'
loop_
_space_group_symop_operation_xyz
x,y,z
-y,x,3/4+z
-x,-y,1/2+z
y,-x,1/4+z
x,-y,1/2-z
-x,y,-z
y,x,1/4-z
-y,-x,3/4-z
loop_
_atom_site_type_symbol
_atom_site_label
_atom_site_fract_x
_atom_site_fract_y
_atom_site_fract_z
Si Si1 0.061114 0.225508 0.854449
Si Si2 0.033616 0.500000 0.250000
Si Si3 0.937450 0.385542 0.739877
Si Si4 0.176374 0.807568 0.622000
Si Si5 0.054921 0.344156 0.761836
Si Si6 0.077918 0.000000 0.750000
Si Si7 0.934350 0.168801 0.648890
O O1 0.123346 0.223450 0.871032
O O2 0.044434 0.283480 0.795985
O O3 0.050985 0.190809 0.616464
O O4 0.047996 0.203861 0.123045
O O5 0.065994 0.552756 0.228031
O O6 0.000000 0.503716 0.500000
O O7 0.918656 0.357573 0.494618
O O8 0.999207 0.372497 0.750095
O O9 0.917004 0.363870 0.995167
O O10 0.205024 0.794977 0.375000
O O11 0.165340 0.870920 0.608657
O O12 0.203150 0.796851 0.875000
O O13 0.114616 0.035827 0.918527
O O14 0.041238 0.041238 0.625000
#
# Coordination Sequence:
#
# PCOD9550419 Si02
#       7
#     8   4   8   8   8   4   8
#     4  10  19  33  52  65  79  97 109 135 179 212
#     4  12  16  30  44  54  70 118 146 140 162 174
#     4  10  19  28  39  56  82 102 127 151 156 193
#     4   8  15  29  47  59  70  87 112 131 149 202
#     4  10  18  28  39  62  82  91 110 147 178 186
#     4  12  28  42  54  68  80  92 112 148 184 210
#     4  10  22  39  52  64  76  95 119 136 164 231
#
# _framework density 13.036235
#
# number of rings (size 3 to 8) (size 9 to 14) (size 15 to 20)
#    0.000    2.000    3.333    2.500    0.000    8.000 
#    0.000    0.000    0.000    0.000    0.000    0.000 
#    0.000    0.000    0.000    0.000    0.000    0.000 
#
# Total GULP energy -267409.306330 kJ/mol
# GULP energy per Si atom -5571.027215 kJ/mol
# Density = 1.300656 g / cm^3
# Si number density = 13.036235 Si / 1000 Ang^3
#
#
#
# Elastic Constant Matrix: (Units=GPa)
#
#
# Indices 1 2 3 4 5 6 
#
# 1 43.4233 11.1451 13.4595 0.0000 0.0000 0.0000
# 2 11.1451 43.4236 13.4593 0.0000 0.0000 0.0000
# 3 13.4595 13.4593 134.3433 0.0000 0.0000 0.0000
# 4 0.0000 0.0000 0.0000 5.7093 0.0000 0.0000
# 5 0.0000 0.0000 0.0000 0.0000 5.7090 0.0000
# 6 0.0000 0.0000 0.0000 0.0000 0.0000 -3.0483
#
#
#
# Elastic Compliance Matrix: (Units=1/GPa)
#
#
# Indices 1 2 3 4 5 6 
#
# 1 0.025130 -0.005851 -0.001931 0.000000 0.000000 0.000000
# 2 -0.005851 0.025129 -0.001931 0.000000 0.000000 0.000000
# 3 -0.001931 -0.001931 0.007831 0.000000 0.000000 0.000000
# 4 0.000000 0.000000 0.000000 0.175154 0.000000 0.000000
# 5 0.000000 0.000000 0.000000 0.000000 0.175161 0.000000
# 6 0.000000 0.000000 0.000000 0.000000 0.000000 -0.328054
#
#
# Mechanical properties :
#
#
# Convention : Reuss Voigt Hill
#
# Bulk Modulus (GPa) = 25.86550 33.03537 29.45043
# Shear Modulus (GPa) = 44.37944 13.88243 29.13094
#
# Velocity S-wave (km/s) = 5.84098 3.26684 4.73230
# Velocity P-wave (km/s) = 8.08540 6.29491 7.24567
#
# Compressibility (1/GPa) = 0.03866154
#
# Stress axis : x y z
#
# Youngs Moduli (GPa) = 39.79383 39.79415 127.70378
#
# Poissons Ratio (x) = 0.23284 0.24666
# Poissons Ratio (y) = 0.23284 0.24665
# Poissons Ratio (z) = 0.07686 0.07686
#
# Static dielectric constant tensor:
#      x y z
#    x 1.443590 0.000000 0.000000 
#    y 0.000000 1.443590 0.000000 
#    z 0.000000 0.000000 1.550420 
# 
# From -- ./inp_files/1465.got.cif
#   From: 2010.05.17/outbox.cif.g08.bks.cpg/sg95_1_cif.got.tgz:1465.got - 2010.06.03 19:46:49.
