data_PCOD9550790
_publ_section_title
;
Structure prediction by ZEFSAII (Michael W. Deem and Ramdas Pophale) SiO2 
 PCOD9550790
Probable space group: P 43 21 2
;
_chemical_formula_sum "Si O2"
_cell_formula_units_Z 48
_cell_length_a 13.151247
_cell_length_b 13.151247
_cell_length_c 13.845318
_cell_angle_alpha 90.000000
_cell_angle_beta 90.000000
_cell_angle_gamma 90.000000
_cell_volume 2394.621096
_symmetry_space_group_name_H-M "P 43 21 2"
_symmetry_group_IT_number 96
_symmetry_cell_setting 'tetragonal'
loop_
_space_group_symop_operation_xyz
x,y,z
1/2-y,1/2+x,3/4+z
-x,-y,1/2+z
1/2+y,1/2-x,1/4+z
1/2+x,1/2-y,1/4-z
1/2-x,1/2+y,3/4-z
y,x,-z
-y,-x,1/2-z
loop_
_atom_site_type_symbol
_atom_site_label
_atom_site_fract_x
_atom_site_fract_y
_atom_site_fract_z
Si Si1 0.352561 0.175753 0.193217
Si Si2 0.970780 0.099263 0.579210
Si Si3 0.504022 0.254943 0.336896
Si Si4 0.248164 0.897929 0.570856
Si Si5 0.063876 0.286630 0.123485
Si Si6 0.964166 0.871571 0.781723
O O1 0.406236 0.188984 0.298648
O O2 0.290172 0.074700 0.170177
O O3 0.298451 0.283564 0.170790
O O4 0.448015 0.176507 0.120073
O O5 0.027322 0.027322 0.500000
O O6 0.867645 0.039234 0.606955
O O7 0.937874 0.204835 0.530671
O O8 0.054183 0.111598 0.661952
O O9 0.571698 0.250439 0.237758
O O10 0.364481 0.876946 0.592691
O O11 0.205754 0.979826 0.646156
O O12 0.079455 0.190905 0.193115
O O13 0.054032 0.945969 0.750000
#
# Coordination Sequence:
#
# PCOD9550790 Si02
#       6
#     8   8   8   8   8   8
#     4   9  19  31  52  81 110 144 182 234 299 343
#     4   9  19  34  53  80 113 143 184 231 288 340
#     4   9  19  32  50  84 111 141 178 243 294 336
#     4  10  20  34  54  78 117 143 184 240 291 339
#     4  10  20  30  54  81 110 141 186 232 294 338
#     4  11  19  33  52  87 111 146 190 230 285 349
#
# _framework density 20.044923000000001
#
# number of rings (size 3 to 8) (size 9 to 14) (size 15 to 20)
#    1.000    1.333    1.667    2.000    4.667    0.000 
#    0.000    0.000    7.333    3.000    0.000    0.000 
#    0.000    0.000    0.000    0.000    0.000    0.000 
#
# Total GULP energy -267362.682835 kJ/mol
# GULP energy per Si atom -5570.055892 kJ/mol
# Density = 1.999930 g / cm^3
# Si number density = 20.044923 Si / 1000 Ang^3
#
#
#
# Elastic Constant Matrix: (Units=GPa)
#
#
# Indices 1 2 3 4 5 6 
#
# 1 149.1076 -97.4850 12.8433 0.0000 0.0000 0.0000
# 2 -97.4850 149.0737 12.7972 0.0000 0.0000 0.0000
# 3 12.8433 12.7972 33.7948 0.0000 0.0000 0.0000
# 4 0.0000 0.0000 0.0000 22.6821 0.0000 0.0000
# 5 0.0000 0.0000 0.0000 0.0000 22.7246 0.0000
# 6 0.0000 0.0000 0.0000 0.0000 0.0000 27.6497
#
#
#
# Elastic Compliance Matrix: (Units=1/GPa)
#
#
# Indices 1 2 3 4 5 6 
#
# 1 0.013967 0.009911 -0.009061 0.000000 0.000000 0.000000
# 2 0.009911 0.013967 -0.009056 0.000000 0.000000 0.000000
# 3 -0.009061 -0.009056 0.036463 0.000000 0.000000 0.000000
# 4 0.000000 0.000000 0.000000 0.044088 0.000000 0.000000
# 5 0.000000 0.000000 0.000000 0.000000 0.044005 0.000000
# 6 0.000000 0.000000 0.000000 0.000000 0.000000 0.036167
#
#
# Mechanical properties :
#
#
# Convention : Reuss Voigt Hill
#
# Bulk Modulus (GPa) = 20.83931 20.92080 20.88006
# Shear Modulus (GPa) = 22.61800 41.53264 32.07532
#
# Velocity S-wave (km/s) = 3.36276 4.55684 4.00455
# Velocity P-wave (km/s) = 5.04940 6.17624 5.64103
#
# Compressibility (1/GPa) = 0.04798624
#
# Stress axis : x y z
#
# Youngs Moduli (GPa) = 71.59714 71.59766 27.42504
#
# Poissons Ratio (x) = -0.70964 0.24850
# Poissons Ratio (y) = -0.70963 0.24835
# Poissons Ratio (z) = 0.64876 0.64836
#
# Static dielectric constant tensor:
#      x y z
#    x 1.987870 0.000000 0.000000 
#    y 0.000000 1.984750 0.000000 
#    z 0.000000 0.000000 1.853280 
# 
# From -- ./inp_files/2708.got.cif
#   From: 2010.05.17/outbox.cif.g08.bks.cpg/sg96_2_cif.got.tgz:2708.got - 2010.06.03 19:52:08.
