data_PCOD9550907
_publ_section_title
;
Structure prediction by ZEFSAII (Michael W. Deem and Ramdas Pophale) SiO2 
 PCOD9550907
Probable space group: P 43 21 2
;
_chemical_formula_sum "Si O2"
_cell_formula_units_Z 48
_cell_length_a 11.507218
_cell_length_b 11.507218
_cell_length_c 16.647597
_cell_angle_alpha 90.000000
_cell_angle_beta 90.000000
_cell_angle_gamma 90.000000
_cell_volume 2204.409305
_symmetry_space_group_name_H-M "P 43 21 2"
_symmetry_group_IT_number 96
_symmetry_cell_setting 'tetragonal'
loop_
_space_group_symop_operation_xyz
x,y,z
1/2-y,1/2+x,3/4+z
-x,-y,1/2+z
1/2+y,1/2-x,1/4+z
1/2+x,1/2-y,1/4-z
1/2-x,1/2+y,3/4-z
y,x,-z
-y,-x,1/2-z
loop_
_atom_site_type_symbol
_atom_site_label
_atom_site_fract_x
_atom_site_fract_y
_atom_site_fract_z
Si Si1 0.077949 0.520241 0.947791
Si Si2 0.155075 0.955541 0.827077
Si Si3 0.773064 0.142165 0.032745
Si Si4 0.403848 0.685330 0.993383
Si Si5 0.818511 0.940014 0.924531
Si Si6 0.445245 0.108786 0.426242
O O1 0.209393 0.482847 0.935591
O O2 0.080437 0.659311 0.926627
O O3 0.003449 0.416273 0.908442
O O4 0.016782 0.527931 0.033834
O O5 0.117328 0.882673 0.750000
O O6 0.136729 0.881762 0.907278
O O7 0.090821 0.079558 0.819674
O O8 0.738994 0.274811 0.014639
O O9 0.799715 0.073555 0.950538
O O10 0.422386 0.637184 0.083957
O O11 0.495657 0.785910 0.973281
O O12 0.692096 0.879454 0.923058
O O13 0.887518 0.887518 0.000000
#
# Coordination Sequence:
#
# PCOD9550907 Si02
#       6
#     8   8   8   8   8   8
#     4  10  21  39  70  95 124 176 220 275 325 398
#     4  11  22  41  67  96 138 174 219 279 348 400
#     4  10  23  43  68  98 134 175 229 277 338 410
#     4  11  24  42  68 101 134 177 227 281 343 403
#     4  11  25  42  68  97 137 180 223 275 343 403
#     4  11  21  41  65  98 131 168 231 272 325 403
#
# _framework density 21.774542
#
# number of rings (size 3 to 8) (size 9 to 14) (size 15 to 20)
#    0.000    1.333    3.333    2.000    2.333    3.333 
#    3.000    0.000    0.000    0.000    0.000    0.000 
#    0.000    0.000    0.000    0.000    0.000    0.000 
#
# Total GULP energy -267844.953404 kJ/mol
# GULP energy per Si atom -5580.103196 kJ/mol
# Density = 2.172498 g / cm^3
# Si number density = 21.774542 Si / 1000 Ang^3
#
#
#
# Elastic Constant Matrix: (Units=GPa)
#
#
# Indices 1 2 3 4 5 6 
#
# 1 -22.6311 107.3356 21.0783 0.0000 0.0000 0.0000
# 2 107.3356 -22.6231 21.0735 0.0000 0.0000 0.0000
# 3 21.0783 21.0735 65.7069 0.0000 0.0000 0.0000
# 4 0.0000 0.0000 0.0000 24.0802 0.0000 0.0000
# 5 0.0000 0.0000 0.0000 0.0000 24.0798 0.0000
# 6 0.0000 0.0000 0.0000 0.0000 0.0000 32.2318
#
#
#
# Elastic Compliance Matrix: (Units=1/GPa)
#
#
# Indices 1 2 3 4 5 6 
#
# 1 0.003176 0.010871 -0.004505 0.000000 0.000000 0.000000
# 2 0.010871 0.003177 -0.004506 0.000000 0.000000 0.000000
# 3 -0.004505 -0.004506 0.018110 0.000000 0.000000 0.000000
# 4 0.000000 0.000000 0.000000 0.041528 0.000000 0.000000
# 5 0.000000 0.000000 0.000000 0.000000 0.041529 0.000000
# 6 0.000000 0.000000 0.000000 0.000000 0.000000 0.031025
#
#
# Mechanical properties :
#
#
# Convention : Reuss Voigt Hill
#
# Bulk Modulus (GPa) = 35.48467 35.49193 35.48830
# Shear Modulus (GPa) = 34.66949 7.47605 21.07277
#
# Velocity S-wave (km/s) = 3.99457 1.85495 3.11428
# Velocity P-wave (km/s) = 6.13247 4.57416 5.40972
#
# Compressibility (1/GPa) = 0.02818118
#
# Stress axis : x y z
#
# Youngs Moduli (GPa) = 314.88218 314.76343 55.21933
#
# Poissons Ratio (x) = -3.42176 0.24878
# Poissons Ratio (y) = -3.42305 0.24883
# Poissons Ratio (z) = 1.41863 1.41839
#
# Static dielectric constant tensor:
#      x y z
#    x 1.816170 0.000000 0.000000 
#    y 0.000000 1.816160 0.000000 
#    z 0.000000 0.000000 1.830880 
# 
# From -- ./inp_files/3114.got.cif
#   From: 2010.05.17/outbox.cif.g08.bks.cpg/sg96_2_cif.got.tgz:3114.got - 2010.06.03 19:52:08.
