data_PCOD9550102
_publ_section_title
;
Structure prediction by ZEFSAII (Michael W. Deem and Ramdas Pophale) SiO2 
 PCOD9550102
Probable space group: P 42 21 2
;
_chemical_formula_sum "Si O2"
_cell_formula_units_Z 36
_cell_length_a 9.266565
_cell_length_b 9.266565
_cell_length_c 20.224193
_cell_angle_alpha 90.000000
_cell_angle_beta 90.000000
_cell_angle_gamma 90.000000
_cell_volume 1736.635818
_symmetry_space_group_name_H-M "P 42 21 2"
_symmetry_group_IT_number 94
_symmetry_cell_setting 'tetragonal'
loop_
_space_group_symop_operation_xyz
x,y,z
1/2-y,1/2+x,1/2+z
-x,-y,z
1/2+y,1/2-x,1/2+z
1/2+x,1/2-y,1/2-z
1/2-x,1/2+y,1/2-z
y,x,-z
-y,-x,-z
loop_
_atom_site_type_symbol
_atom_site_label
_atom_site_fract_x
_atom_site_fract_y
_atom_site_fract_z
Si Si1 0.254468 0.254468 0.000000
Si Si2 0.735263 0.864121 0.795926
Si Si3 0.802792 0.272076 0.164794
Si Si4 0.463252 0.329838 0.879590
Si Si5 0.833844 0.976682 0.092057
O O1 0.361083 0.294846 0.941106
O O2 0.094243 0.257519 0.967242
O O3 0.779706 0.816276 0.722873
O O4 0.610995 0.749993 0.816734
O O5 0.861563 0.836373 0.848390
O O6 0.704168 0.035471 0.805406
O O7 0.761761 0.392488 0.112153
O O8 0.786451 0.122959 0.126305
O O9 0.500000 0.500000 0.872823
O O10 0.000000 0.000000 0.071792
#
# Coordination Sequence:
#
# PCOD9550102 Si02
#       5
#     4   8   8   8   8
#     4  10  22  44  62  82 124 168 216 268 316 370
#     4  10  21  38  64  97 129 160 201 258 324 394
#     4  11  21  39  67  97 125 160 205 257 324 389
#     4  11  23  41  61  88 127 169 211 262 316 373
#     4   9  20  39  63  88 118 161 206 256 313 377
#
# _framework density 20.729737
#
# number of rings (size 3 to 8) (size 9 to 14) (size 15 to 20)
#    0.000    1.778    0.000    4.000    0.000    1.778 
#    0.000   31.111    0.000    2.667    0.000    0.000 
#    0.000    0.000    0.000    0.000    0.000    0.000 
#
# Total GULP energy -200756.271850 kJ/mol
# GULP energy per Si atom -5576.563107 kJ/mol
# Density = 2.068256 g / cm^3
# Si number density = 20.729737 Si / 1000 Ang^3
#
#
#
# Elastic Constant Matrix: (Units=GPa)
#
#
# Indices 1 2 3 4 5 6 
#
# 1 99.3453 74.9376 26.4009 0.0000 0.0000 0.0000
# 2 74.9376 99.3453 26.4009 0.0000 0.0000 0.0000
# 3 26.4009 26.4009 64.3182 0.0000 0.0000 0.0000
# 4 0.0000 0.0000 0.0000 -27.7408 0.0000 0.0000
# 5 0.0000 0.0000 0.0000 0.0000 -27.7408 0.0000
# 6 0.0000 0.0000 0.0000 0.0000 0.0000 29.6209
#
#
#
# Elastic Compliance Matrix: (Units=1/GPa)
#
#
# Indices 1 2 3 4 5 6 
#
# 1 0.023762 -0.017209 -0.002690 0.000000 0.000000 0.000000
# 2 -0.017209 0.023762 -0.002690 0.000000 0.000000 0.000000
# 3 -0.002690 -0.002690 0.017756 0.000000 0.000000 0.000000
# 4 0.000000 0.000000 0.000000 -0.036048 0.000000 0.000000
# 5 0.000000 0.000000 0.000000 0.000000 -0.036048 0.000000
# 6 0.000000 0.000000 0.000000 0.000000 0.000000 0.033760
#
#
# Mechanical properties :
#
#
# Convention : Reuss Voigt Hill
#
# Bulk Modulus (GPa) = 49.74539 57.60972 53.67755
# Shear Modulus (GPa) = 63.43511 3.84581 33.64046
#
# Velocity S-wave (km/s) = 5.53782 1.36354 4.03278
# Velocity P-wave (km/s) = 8.05848 5.50728 6.90179
#
# Compressibility (1/GPa) = 0.02010237
#
# Stress axis : x y z
#
# Youngs Moduli (GPa) = 42.08461 42.08461 56.31964
#
# Poissons Ratio (x) = 0.72423 0.15148
# Poissons Ratio (y) = 0.72423 0.15148
# Poissons Ratio (z) = 0.11319 0.11319
#
# Static dielectric constant tensor:
#      x y z
#    x 1.831920 0.000000 0.000000 
#    y 0.000000 1.831920 0.000000 
#    z 0.000000 0.000000 1.771800 
# 
# From -- ./inp_files/4550.got.cif
#   From: 2010.05.17/outbox.cif.g08.bks.cpg/sg94_3_cif.got.tgz:4550.got - 2010.06.03 19:43:16.
