data_PCOD9550513
_publ_section_title
;
Structure prediction by ZEFSAII (Michael W. Deem and Ramdas Pophale) SiO2 
 PCOD9550513
Probable space group: P 43 2 2
;
_chemical_formula_sum "Si O2"
_cell_formula_units_Z 32
_cell_length_a 7.366553
_cell_length_b 7.366553
_cell_length_c 24.215618
_cell_angle_alpha 90.000000
_cell_angle_beta 90.000000
_cell_angle_gamma 90.000000
_cell_volume 1314.087223
_symmetry_space_group_name_H-M "P 43 2 2"
_symmetry_group_IT_number 95
_symmetry_cell_setting 'tetragonal'
loop_
_space_group_symop_operation_xyz
x,y,z
-y,x,3/4+z
-x,-y,1/2+z
y,-x,1/4+z
x,-y,1/2-z
-x,y,-z
y,x,1/4-z
-y,-x,3/4-z
loop_
_atom_site_type_symbol
_atom_site_label
_atom_site_fract_x
_atom_site_fract_y
_atom_site_fract_z
Si Si1 0.868589 0.397649 0.949790
Si Si2 0.666965 0.500000 0.750000
Si Si3 0.989977 0.470524 0.671631
Si Si4 0.859355 0.960496 0.951993
Si Si5 0.145138 0.854863 0.875000
O O1 0.931302 0.467151 0.890109
O O2 0.874895 0.178120 0.945200
O O3 0.662031 0.437240 0.969249
O O4 0.000000 0.454473 0.000000
O O5 0.806987 0.414546 0.704587
O O6 0.070649 0.646077 0.702623
O O7 0.136980 0.312005 0.666198
O O8 0.946353 0.852842 0.901624
O O9 0.000000 0.913710 0.000000
#
# Coordination Sequence:
#
# PCOD9550513 Si02
#       5
#     8   4   8   8   4
#     4  10  20  39  66  97 140 179 235 285 349 418
#     4  10  20  38  68 102 128 188 238 284 338 424
#     4  11  22  38  66 107 139 180 242 287 358 426
#     4  10  20  39  67  96 133 185 233 286 346 416
#     4  12  22  38  66  94 136 184 220 290 346 416
#
# _framework density 24.351506000000001
#
# number of rings (size 3 to 8) (size 9 to 14) (size 15 to 20)
#    0.000    1.500    2.500    6.750    0.000    1.000 
#    0.000    2.500    0.000    1.500    0.000    0.000 
#    0.000    0.000    0.000    0.000    0.000    0.000 
#
# Total GULP energy -178808.035254 kJ/mol
# GULP energy per Si atom -5587.751102 kJ/mol
# Density = 2.429608 g / cm^3
# Si number density = 24.351506 Si / 1000 Ang^3
#
#
#
# Elastic Constant Matrix: (Units=GPa)
#
#
# Indices 1 2 3 4 5 6 
#
# 1 102.8510 27.5417 17.9278 0.0000 0.0000 0.0000
# 2 27.5417 102.8513 17.9281 0.0000 0.0000 0.0000
# 3 17.9278 17.9281 112.9465 0.0000 0.0000 0.0000
# 4 0.0000 0.0000 0.0000 29.5673 0.0000 0.0000
# 5 0.0000 0.0000 0.0000 0.0000 29.5670 0.0000
# 6 0.0000 0.0000 0.0000 0.0000 0.0000 -0.7418
#
#
#
# Elastic Compliance Matrix: (Units=1/GPa)
#
#
# Indices 1 2 3 4 5 6 
#
# 1 0.010649 -0.002630 -0.001273 0.000000 0.000000 0.000000
# 2 -0.002630 0.010649 -0.001273 0.000000 0.000000 0.000000
# 3 -0.001273 -0.001273 0.009258 0.000000 0.000000 0.000000
# 4 0.000000 0.000000 0.000000 0.033821 0.000000 0.000000
# 5 0.000000 0.000000 0.000000 0.000000 0.033822 0.000000
# 6 0.000000 0.000000 0.000000 0.000000 0.000000 -1.348146
#
#
# Mechanical properties :
#
#
# Convention : Reuss Voigt Hill
#
# Bulk Modulus (GPa) = 49.49358 49.49376 49.49367
# Shear Modulus (GPa) = -4.05560 28.69525 12.31982
#
# Velocity S-wave (km/s) = -1.29192 3.43647 2.25170
# Velocity P-wave (km/s) = 4.25950 6.00955 5.20855
#
# Compressibility (1/GPa) = 0.02020464
#
# Stress axis : x y z
#
# Youngs Moduli (GPa) = 93.90677 93.90696 108.01659
#
# Poissons Ratio (x) = 0.24695 0.13749
# Poissons Ratio (y) = 0.24695 0.13749
# Poissons Ratio (z) = 0.11953 0.11953
#
# Static dielectric constant tensor:
#      x y z
#    x 1.957400 0.000000 0.000000 
#    y 0.000000 1.957400 0.000000 
#    z 0.000000 0.000000 2.046030 
# 
# From -- ./inp_files/6773.got.cif
#   From: 2010.05.17/outbox.cif.g08.bks.cpg/sg95_4_cif.got.tgz:6773.got - 2010.06.03 19:46:49.
