data_PCOD9550334
_publ_section_title
;
Structure prediction by ZEFSAII (Michael W. Deem and Ramdas Pophale) SiO2 
 PCOD9550334
Probable space group: P 42 21 2
;
_chemical_formula_sum "Si O2"
_cell_formula_units_Z 40
_cell_length_a 9.322817
_cell_length_b 9.322817
_cell_length_c 21.072302
_cell_angle_alpha 90.000000
_cell_angle_beta 90.000000
_cell_angle_gamma 90.000000
_cell_volume 1831.497375
_symmetry_space_group_name_H-M "P 42 21 2"
_symmetry_group_IT_number 94
_symmetry_cell_setting 'tetragonal'
loop_
_space_group_symop_operation_xyz
x,y,z
1/2-y,1/2+x,1/2+z
-x,-y,z
1/2+y,1/2-x,1/2+z
1/2+x,1/2-y,1/2-z
1/2-x,1/2+y,1/2-z
y,x,-z
-y,-x,-z
loop_
_atom_site_type_symbol
_atom_site_label
_atom_site_fract_x
_atom_site_fract_y
_atom_site_fract_z
Si Si1 0.994821 0.762496 0.009002
Si Si2 0.079328 0.152306 0.644806
Si Si3 0.401906 0.878032 0.363246
Si Si4 0.637084 0.083749 0.119599
Si Si5 0.917260 0.850398 0.790766
O O1 0.988464 0.688428 0.077258
O O2 0.844116 0.844116 0.000000
O O3 0.027510 0.657228 0.951720
O O4 0.116718 0.883283 0.000000
O O5 0.243297 0.137979 0.621003
O O6 0.090983 0.201604 0.718441
O O7 0.968840 0.264371 0.613319
O O8 0.000000 0.000000 0.641774
O O9 0.361437 0.743279 0.319282
O O10 0.500000 0.000000 0.331399
O O11 0.500000 0.000000 0.146176
O O12 0.762500 0.018199 0.162159
O O13 0.000000 0.000000 0.787186
#
# Coordination Sequence:
#
# PCOD9550334 Si02
#       5
#     8   8   8   8   8
#     4  11  23  43  72  99 133 183 241 292 350 437
#     4  11  26  44  67 104 145 182 233 296 370 431
#     4  12  24  42  70 102 140 183 239 302 360 425
#     4  12  25  43  70  99 138 186 238 296 362 435
#     4  11  23  43  69 100 139 189 238 290 355 444
#
# _framework density 21.840053000000001
#
# number of rings (size 3 to 8) (size 9 to 14) (size 15 to 20)
#    0.000    0.600    2.000    6.600    0.000    6.400 
#    0.000    0.000    0.000    0.000    0.000    0.000 
#    0.000    0.000    0.000    0.000    0.000    0.000 
#
# Total GULP energy -223566.046134 kJ/mol
# GULP energy per Si atom -5589.151153 kJ/mol
# Density = 2.179034 g / cm^3
# Si number density = 21.840053 Si / 1000 Ang^3
#
#
#
# Elastic Constant Matrix: (Units=GPa)
#
#
# Indices 1 2 3 4 5 6 
#
# 1 81.4444 98.9940 17.2920 0.0000 0.0000 0.0000
# 2 98.9940 81.4454 17.2922 0.0000 0.0000 0.0000
# 3 17.2920 17.2922 78.2327 0.0000 0.0000 0.0000
# 4 0.0000 0.0000 0.0000 30.5281 0.0000 0.0000
# 5 0.0000 0.0000 0.0000 0.0000 30.5277 0.0000
# 6 0.0000 0.0000 0.0000 0.0000 0.0000 41.0705
#
#
#
# Elastic Compliance Matrix: (Units=1/GPa)
#
#
# Indices 1 2 3 4 5 6 
#
# 1 -0.025598 0.031385 -0.001279 0.000000 0.000000 0.000000
# 2 0.031385 -0.025598 -0.001279 0.000000 0.000000 0.000000
# 3 -0.001279 -0.001279 0.013348 0.000000 0.000000 0.000000
# 4 0.000000 0.000000 0.000000 0.032757 0.000000 0.000000
# 5 0.000000 0.000000 0.000000 0.000000 0.032757 0.000000
# 6 0.000000 0.000000 0.000000 0.000000 0.000000 0.024348
#
#
# Mechanical properties :
#
#
# Convention : Reuss Voigt Hill
#
# Bulk Modulus (GPa) = 50.49075 56.47542 53.48308
# Shear Modulus (GPa) = 5194.13489 27.59490 2610.86489
#
# Velocity S-wave (km/s) = 48.82032 3.55843 34.61276
# Velocity P-wave (km/s) = 56.57798 6.54202 40.27323
#
# Compressibility (1/GPa) = 0.01980561
#
# Stress axis : x y z
#
# Youngs Moduli (GPa) = -39.06551 -39.06598 74.91842
#
# Poissons Ratio (x) = 1.22609 0.09584
# Poissons Ratio (y) = 1.22607 0.09583
# Poissons Ratio (z) = -0.04997 -0.04997
#
# Static dielectric constant tensor:
#      x y z
#    x 1.768850 0.000000 0.000000 
#    y 0.000000 1.768850 0.000000 
#    z 0.000000 0.000000 1.794390 
# 
# From -- ./inp_files/4938.got.cif
#   From: 2010.05.17/outbox.cif.g08.bks.cpg/sg94_3_cif.got.tgz:4938.got - 2010.06.03 19:43:16.
