data_PCOD9550857
_publ_section_title
;
Structure prediction by ZEFSAII (Michael W. Deem and Ramdas Pophale) SiO2 
 PCOD9550857
Probable space group: P 43 21 2
;
_chemical_formula_sum "Si O2"
_cell_formula_units_Z 48
_cell_length_a 8.808343
_cell_length_b 8.808343
_cell_length_c 29.277037
_cell_angle_alpha 90.000000
_cell_angle_beta 90.000000
_cell_angle_gamma 90.000000
_cell_volume 2271.514730
_symmetry_space_group_name_H-M "P 43 21 2"
_symmetry_group_IT_number 96
_symmetry_cell_setting 'tetragonal'
loop_
_space_group_symop_operation_xyz
x,y,z
1/2-y,1/2+x,3/4+z
-x,-y,1/2+z
1/2+y,1/2-x,1/4+z
1/2+x,1/2-y,1/4-z
1/2-x,1/2+y,3/4-z
y,x,-z
-y,-x,1/2-z
loop_
_atom_site_type_symbol
_atom_site_label
_atom_site_fract_x
_atom_site_fract_y
_atom_site_fract_z
Si Si1 0.172021 0.898089 0.816763
Si Si2 0.012094 0.377660 0.312076
Si Si3 0.430934 0.411022 0.394649
Si Si4 0.836300 0.670155 0.344196
Si Si5 0.719264 0.362002 0.652812
Si Si6 0.344519 0.878503 0.532123
O O1 0.205437 0.876418 0.870663
O O2 0.124447 0.736282 0.796885
O O3 0.017750 0.998041 0.814784
O O4 0.317678 0.991172 0.799867
O O5 0.086477 0.295846 0.355232
O O6 0.130631 0.399555 0.271335
O O7 0.939936 0.531593 0.329964
O O8 0.565668 0.297680 0.379239
O O9 0.300357 0.297267 0.411375
O O10 0.370191 0.538584 0.358957
O O11 0.757943 0.736899 0.299015
O O12 0.778149 0.475250 0.692140
#
# Coordination Sequence:
#
# PCOD9550857 Si02
#       6
#     8   8   8   8   8   8
#     4  10  20  41  68  94 127 177 223 269 332 394
#     4  11  22  38  67  97 133 171 223 276 336 395
#     4  10  22  38  68  88 126 177 218 262 338 390
#     4  11  20  43  67  92 128 178 219 275 327 398
#     4  11  22  41  60  96 130 173 218 277 337 391
#     4  11  23  39  65  96 133 170 225 272 330 402
#
# _framework density 21.131273
#
# number of rings (size 3 to 8) (size 9 to 14) (size 15 to 20)
#    0.000    1.333    5.000    2.500    0.000    2.667 
#    0.000    6.667    0.000    0.000    0.000    0.000 
#    0.000    0.000    0.000    0.000    0.000    0.000 
#
# Total GULP energy -267583.856507 kJ/mol
# GULP energy per Si atom -5574.663677 kJ/mol
# Density = 2.108318 g / cm^3
# Si number density = 21.131273 Si / 1000 Ang^3
#
#
#
# Elastic Constant Matrix: (Units=GPa)
#
#
# Indices 1 2 3 4 5 6 
#
# 1 103.0808 40.3051 -1.3701 0.0000 0.0000 0.0000
# 2 40.3051 103.0808 -1.3701 0.0000 0.0000 0.0000
# 3 -1.3701 -1.3701 43.0800 0.0000 0.0000 0.0000
# 4 0.0000 0.0000 0.0000 19.3153 0.0000 0.0000
# 5 0.0000 0.0000 0.0000 0.0000 19.3153 0.0000
# 6 0.0000 0.0000 0.0000 0.0000 0.0000 34.1756
#
#
#
# Elastic Compliance Matrix: (Units=1/GPa)
#
#
# Indices 1 2 3 4 5 6 
#
# 1 0.011454 -0.004476 0.000222 0.000000 0.000000 0.000000
# 2 -0.004476 0.011454 0.000222 0.000000 0.000000 0.000000
# 3 0.000222 0.000222 0.023227 0.000000 0.000000 0.000000
# 4 0.000000 0.000000 0.000000 0.051772 0.000000 0.000000
# 5 0.000000 0.000000 0.000000 0.000000 0.051772 0.000000
# 6 0.000000 0.000000 0.000000 0.000000 0.000000 0.029261
#
#
# Mechanical properties :
#
#
# Convention : Reuss Voigt Hill
#
# Bulk Modulus (GPa) = 26.26644 36.04125 31.15385
# Shear Modulus (GPa) = 25.03827 28.67303 26.85565
#
# Velocity S-wave (km/s) = 3.44596 3.68761 3.56883
# Velocity P-wave (km/s) = 5.31883 5.93500 5.63534
#
# Compressibility (1/GPa) = 0.03807139
#
# Stress axis : x y z
#
# Youngs Moduli (GPa) = 87.30511 87.30511 43.05378
#
# Poissons Ratio (x) = 0.39075 -0.00956
# Poissons Ratio (y) = 0.39075 -0.00956
# Poissons Ratio (z) = -0.01938 -0.01938
#
# Static dielectric constant tensor:
#      x y z
#    x 1.826500 0.000000 0.000000 
#    y 0.000000 1.826500 0.000000 
#    z 0.000000 0.000000 1.761780 
# 
# From -- ./inp_files/4444.got.cif
#   From: 2010.05.17/outbox.cif.g08.bks.cpg/sg96_3_cif.got.tgz:4444.got - 2010.06.03 19:52:08.
