data_PCOD9550810
_publ_section_title
;
Structure prediction by ZEFSAII (Michael W. Deem and Ramdas Pophale) SiO2 
 PCOD9550810
Probable space group: P 43 21 2
;
_chemical_formula_sum "Si O2"
_cell_formula_units_Z 56
_cell_length_a 12.578319
_cell_length_b 12.578319
_cell_length_c 17.272251
_cell_angle_alpha 90.000000
_cell_angle_beta 90.000000
_cell_angle_gamma 90.000000
_cell_volume 2732.713800
_symmetry_space_group_name_H-M "P 43 21 2"
_symmetry_group_IT_number 96
_symmetry_cell_setting 'tetragonal'
loop_
_space_group_symop_operation_xyz
x,y,z
1/2-y,1/2+x,3/4+z
-x,-y,1/2+z
1/2+y,1/2-x,1/4+z
1/2+x,1/2-y,1/4-z
1/2-x,1/2+y,3/4-z
y,x,-z
-y,-x,1/2-z
loop_
_atom_site_type_symbol
_atom_site_label
_atom_site_fract_x
_atom_site_fract_y
_atom_site_fract_z
Si Si1 0.060573 0.483248 0.056022
Si Si2 0.906740 0.906740 0.500000
Si Si3 0.572202 0.897083 0.831498
Si Si4 0.280240 0.584521 0.017692
Si Si5 0.778805 0.337090 0.360894
Si Si6 0.301581 0.521834 0.454541
Si Si7 0.654506 0.654506 0.500000
Si Si8 0.847121 0.071724 0.626796
O O1 0.960455 0.543767 0.090700
O O2 0.098471 0.388555 0.112190
O O3 0.023930 0.423217 0.977781
O O4 0.162824 0.559423 0.048958
O O5 0.897651 0.803083 0.554793
O O6 0.004530 0.902142 0.441289
O O7 0.679241 0.947619 0.798165
O O8 0.590229 0.773058 0.848164
O O9 0.267484 0.665163 0.946310
O O10 0.321564 0.469221 0.989105
O O11 0.373556 0.631485 0.070587
O O12 0.803895 0.223488 0.322642
O O13 0.329666 0.421372 0.400540
O O14 0.336787 0.492904 0.542207
#
# Coordination Sequence:
#
# PCOD9550810 Si02
#       8
#     8   4   8   8   8   8   4   8
#     4  11  23  40  66 100 131 172 223 280 332 400
#     4  11  20  38  66 100 123 154 224 272 331 406
#     4  12  24  44  67  98 134 182 230 275 330 410
#     4  11  22  41  63  93 136 169 216 271 348 393
#     4  10  20  35  63  96 127 156 207 274 339 387
#     4  11  26  44  66  95 139 185 221 280 342 412
#     4   9  22  36  58  96 123 158 212 272 325 408
#     4  11  24  44  68  98 134 183 228 277 346 413
#
# _framework density 20.492449000000001
#
# number of rings (size 3 to 8) (size 9 to 14) (size 15 to 20)
#    0.000    1.143    5.714    0.857    2.000    1.143 
#    0.000    2.857    0.000    0.000    0.000    0.000 
#    0.000    0.000    0.000    0.000    0.000    0.000 
#
# Total GULP energy -312671.808952 kJ/mol
# GULP energy per Si atom -5583.425160 kJ/mol
# Density = 2.044581 g / cm^3
# Si number density = 20.492449 Si / 1000 Ang^3
#
#
#
# Elastic Constant Matrix: (Units=GPa)
#
#
# Indices 1 2 3 4 5 6 
#
# 1 57.7925 39.7967 8.0212 0.0000 0.0000 0.0000
# 2 39.7967 57.7925 8.0212 0.0000 0.0000 0.0000
# 3 8.0212 8.0212 41.1044 0.0000 0.0000 0.0000
# 4 0.0000 0.0000 0.0000 23.1572 0.0000 0.0000
# 5 0.0000 0.0000 0.0000 0.0000 23.1572 0.0000
# 6 0.0000 0.0000 0.0000 0.0000 0.0000 23.2385
#
#
#
# Elastic Compliance Matrix: (Units=1/GPa)
#
#
# Indices 1 2 3 4 5 6 
#
# 1 0.033078 -0.022491 -0.002066 0.000000 0.000000 0.000000
# 2 -0.022491 0.033078 -0.002066 0.000000 0.000000 0.000000
# 3 -0.002066 -0.002066 0.025135 0.000000 0.000000 0.000000
# 4 0.000000 0.000000 0.000000 0.043183 0.000000 0.000000
# 5 0.000000 0.000000 0.000000 0.000000 0.043183 0.000000
# 6 0.000000 0.000000 0.000000 0.000000 0.000000 0.043032
#
#
# Mechanical properties :
#
#
# Convention : Reuss Voigt Hill
#
# Bulk Modulus (GPa) = 26.28516 29.81861 28.05189
# Shear Modulus (GPa) = 17.44499 20.63392 19.03945
#
# Velocity S-wave (km/s) = 2.92085 3.17662 3.05141
# Velocity P-wave (km/s) = 4.92237 5.29501 5.11209
#
# Compressibility (1/GPa) = 0.03804427
#
# Stress axis : x y z
#
# Youngs Moduli (GPa) = 30.23191 30.23191 39.78585
#
# Poissons Ratio (x) = 0.67995 0.08219
# Poissons Ratio (y) = 0.67995 0.08219
# Poissons Ratio (z) = 0.06246 0.06246
#
# Static dielectric constant tensor:
#      x y z
#    x 1.730850 0.000000 0.000000 
#    y 0.000000 1.730850 0.000000 
#    z 0.000000 0.000000 1.730250 
# 
# From -- ./inp_files/3588.got.cif
#   From: 2010.05.17/outbox.cif.g08.bks.cpg/sg96_2_cif.got.tgz:3588.got - 2010.06.03 19:52:08.
