data_PCOD9550690
_publ_section_title
;
Structure prediction by ZEFSAII (Michael W. Deem and Ramdas Pophale) SiO2 
 PCOD9550690
Probable space group: P 43 2 2
;
_chemical_formula_sum "Si O2"
_cell_formula_units_Z 36
_cell_length_a 13.450319
_cell_length_b 13.450319
_cell_length_c 10.357217
_cell_angle_alpha 90.000000
_cell_angle_beta 90.000000
_cell_angle_gamma 90.000000
_cell_volume 1873.735326
_symmetry_space_group_name_H-M "P 43 2 2"
_symmetry_group_IT_number 95
_symmetry_cell_setting 'tetragonal'
loop_
_space_group_symop_operation_xyz
x,y,z
-y,x,3/4+z
-x,-y,1/2+z
y,-x,1/4+z
x,-y,1/2-z
-x,y,-z
y,x,1/4-z
-y,-x,3/4-z
loop_
_atom_site_type_symbol
_atom_site_label
_atom_site_fract_x
_atom_site_fract_y
_atom_site_fract_z
Si Si1 0.108953 0.742891 0.691540
Si Si2 0.541387 0.151113 0.127320
Si Si3 0.247900 0.409048 0.649363
Si Si4 0.000000 0.397033 0.000000
Si Si5 0.239343 0.932334 0.622477
O O1 0.171155 0.673922 0.792427
O O2 0.171178 0.836622 0.643055
O O3 0.077476 0.671314 0.575422
O O4 0.008284 0.783019 0.757373
O O5 0.550152 0.210036 0.261658
O O6 0.650256 0.108691 0.101448
O O7 0.467869 0.058952 0.152591
O O8 0.500000 0.205817 0.000000
O O9 0.254846 0.500000 0.750000
O O10 0.350248 0.350248 0.625000
O O11 0.236629 0.000000 0.750000
#
# Coordination Sequence:
#
# PCOD9550690 Si02
#       5
#     8   8   8   4   8
#     4  12  25  43  68  99 144 186 238 287 349 416
#     4  12  23  41  72 103 132 171 238 300 340 399
#     4  12  24  47  76 105 135 183 231 288 357 427
#     4  12  24  40  66 102 130 184 234 298 338 402
#     4  12  23  42  67  98 136 185 237 281 345 416
#
# _framework density 19.212959000000001
#
# number of rings (size 3 to 8) (size 9 to 14) (size 15 to 20)
#    0.000    0.000   10.000    0.667    0.000    0.889 
#    6.000    4.444    0.000    0.000    0.000    0.000 
#    0.000    0.000    0.000    0.000    0.000    0.000 
#
# Total GULP energy -201264.346366 kJ/mol
# GULP energy per Si atom -5590.676288 kJ/mol
# Density = 1.916923 g / cm^3
# Si number density = 19.212959 Si / 1000 Ang^3
#
#
#
# Elastic Constant Matrix: (Units=GPa)
#
#
# Indices 1 2 3 4 5 6 
#
# 1 121.2278 87.4598 65.7782 0.0000 0.0000 0.0000
# 2 87.4598 121.2278 65.7782 0.0000 0.0000 0.0000
# 3 65.7782 65.7782 109.1015 0.0000 0.0000 0.0000
# 4 0.0000 0.0000 0.0000 22.8466 0.0000 0.0000
# 5 0.0000 0.0000 0.0000 0.0000 22.8466 0.0000
# 6 0.0000 0.0000 0.0000 0.0000 0.0000 30.0618
#
#
#
# Elastic Compliance Matrix: (Units=1/GPa)
#
#
# Indices 1 2 3 4 5 6 
#
# 1 0.018672 -0.010942 -0.004660 0.000000 0.000000 0.000000
# 2 -0.010942 0.018672 -0.004660 0.000000 0.000000 0.000000
# 3 -0.004660 -0.004660 0.014785 0.000000 0.000000 0.000000
# 4 0.000000 0.000000 0.000000 0.043770 0.000000 0.000000
# 5 0.000000 0.000000 0.000000 0.000000 0.043770 0.000000
# 6 0.000000 0.000000 0.000000 0.000000 0.000000 0.033265
#
#
# Mechanical properties :
#
#
# Convention : Reuss Voigt Hill
#
# Bulk Modulus (GPa) = 86.18133 87.73216 86.95674
# Shear Modulus (GPa) = 23.00677 23.98704 23.49690
#
# Velocity S-wave (km/s) = 3.46419 3.53722 3.50090
# Velocity P-wave (km/s) = 7.80731 7.90220 7.85489
#
# Compressibility (1/GPa) = 0.01160344
#
# Stress axis : x y z
#
# Youngs Moduli (GPa) = 53.55679 53.55679 67.63501
#
# Poissons Ratio (x) = 0.58602 0.31520
# Poissons Ratio (y) = 0.58602 0.31520
# Poissons Ratio (z) = 0.24959 0.24959
#
# Static dielectric constant tensor:
#      x y z
#    x 1.658890 0.000000 0.000000 
#    y 0.000000 1.658890 0.000000 
#    z 0.000000 0.000000 1.821290 
# 
# From -- ./inp_files/2202.got.cif
#   From: 2010.05.17/outbox.cif.g08.bks.cpg/sg95_2_cif.got.tgz:2202.got - 2010.06.03 19:46:49.
