data_PCOD9550143
_publ_section_title
;
Structure prediction by ZEFSAII (Michael W. Deem and Ramdas Pophale) SiO2 
 PCOD9550143
Probable space group: P 42 21 2
;
_chemical_formula_sum "Si O2"
_cell_formula_units_Z 28
_cell_length_a 8.023417
_cell_length_b 8.023417
_cell_length_c 17.713170
_cell_angle_alpha 90.000000
_cell_angle_beta 90.000000
_cell_angle_gamma 90.000000
_cell_volume 1140.289222
_symmetry_space_group_name_H-M "P 42 21 2"
_symmetry_group_IT_number 94
_symmetry_cell_setting 'tetragonal'
loop_
_space_group_symop_operation_xyz
x,y,z
1/2-y,1/2+x,1/2+z
-x,-y,z
1/2+y,1/2-x,1/2+z
1/2+x,1/2-y,1/2-z
1/2-x,1/2+y,1/2-z
y,x,-z
-y,-x,-z
loop_
_atom_site_type_symbol
_atom_site_label
_atom_site_fract_x
_atom_site_fract_y
_atom_site_fract_z
Si Si1 0.500000 0.500000 0.344117
Si Si2 0.114699 0.307088 0.885209
Si Si3 0.632379 0.851620 0.292942
Si Si4 0.886672 0.771549 0.419310
O O1 0.387135 0.612912 0.399504
O O2 0.574868 0.655947 0.296688
O O3 0.117444 0.320704 0.793930
O O4 0.268318 0.413997 0.913387
O O5 0.927250 0.353778 0.910180
O O6 0.785911 0.856860 0.351449
O O7 0.500000 0.000000 0.311541
O O8 0.830262 0.830262 0.500000
#
# Coordination Sequence:
#
# PCOD9550143 Si02
#       4
#     4   8   8   8
#     4  10  24  40  71 104 143 186 250 326 358 458
#     4  10  21  43  65 106 140 192 257 300 377 458
#     4  11  22  42  71 107 140 198 252 307 379 460
#     4  10  22  40  71 104 146 193 241 321 380 452
#
# _framework density 24.555171999999999
#
# number of rings (size 3 to 8) (size 9 to 14) (size 15 to 20)
#    0.000    1.714    2.857    1.714    8.000    0.000 
#    0.000   11.429    0.000    1.714    0.000    0.000 
#    0.000    0.000    0.000    0.000    0.000    0.000 
#
# Total GULP energy -156059.389182 kJ/mol
# GULP energy per Si atom -5573.549614 kJ/mol
# Density = 2.449928 g / cm^3
# Si number density = 24.555172 Si / 1000 Ang^3
#
#
#
# Elastic Constant Matrix: (Units=GPa)
#
#
# Indices 1 2 3 4 5 6 
#
# 1 117.5761 48.6023 62.0723 0.0000 0.0000 0.0000
# 2 48.6023 117.5761 62.0723 0.0000 0.0000 0.0000
# 3 62.0723 62.0723 155.2281 0.0000 0.0000 0.0000
# 4 0.0000 0.0000 0.0000 14.4183 0.0000 0.0000
# 5 0.0000 0.0000 0.0000 0.0000 14.4183 0.0000
# 6 0.0000 0.0000 0.0000 0.0000 0.0000 45.5310
#
#
#
# Elastic Compliance Matrix: (Units=1/GPa)
#
#
# Indices 1 2 3 4 5 6 
#
# 1 0.011540 -0.002959 -0.003431 0.000000 0.000000 0.000000
# 2 -0.002959 0.011540 -0.003431 0.000000 0.000000 0.000000
# 3 -0.003431 -0.003431 0.009186 0.000000 0.000000 0.000000
# 4 0.000000 0.000000 0.000000 0.069356 0.000000 0.000000
# 5 0.000000 0.000000 0.000000 0.000000 0.069356 0.000000
# 6 0.000000 0.000000 0.000000 0.000000 0.000000 0.021963
#
#
# Mechanical properties :
#
#
# Convention : Reuss Voigt Hill
#
# Bulk Modulus (GPa) = 79.22039 81.76377 80.49208
# Shear Modulus (GPa) = 23.06357 29.38240 26.22299
#
# Velocity S-wave (km/s) = 3.06805 3.46292 3.27145
# Velocity P-wave (km/s) = 6.69946 7.02562 6.86448
#
# Compressibility (1/GPa) = 0.01262301
#
# Stress axis : x y z
#
# Youngs Moduli (GPa) = 86.65765 86.65765 108.85653
#
# Poissons Ratio (x) = 0.25638 0.37353
# Poissons Ratio (y) = 0.25638 0.37353
# Poissons Ratio (z) = 0.29736 0.29736
#
# Static dielectric constant tensor:
#      x y z
#    x 2.192160 0.000000 0.000000 
#    y 0.000000 2.192160 0.000000 
#    z 0.000000 0.000000 1.898960 
# 
# From -- ./inp_files/3817.got.cif
#   From: 2010.05.17/outbox.cif.g08.bks.cpg/sg94_2_cif.got.tgz:3817.got - 2010.06.03 19:43:16.
