data_PCOD9550503
_publ_section_title
;
Structure prediction by ZEFSAII (Michael W. Deem and Ramdas Pophale) SiO2 
 PCOD9550503
Probable space group: P 43 2 2
;
_chemical_formula_sum "Si O2"
_cell_formula_units_Z 56
_cell_length_a 11.059225
_cell_length_b 11.059225
_cell_length_c 21.172402
_cell_angle_alpha 90.000000
_cell_angle_beta 90.000000
_cell_angle_gamma 90.000000
_cell_volume 2589.521488
_symmetry_space_group_name_H-M "P 43 2 2"
_symmetry_group_IT_number 95
_symmetry_cell_setting 'tetragonal'
loop_
_space_group_symop_operation_xyz
x,y,z
-y,x,3/4+z
-x,-y,1/2+z
y,-x,1/4+z
x,-y,1/2-z
-x,y,-z
y,x,1/4-z
-y,-x,3/4-z
loop_
_atom_site_type_symbol
_atom_site_label
_atom_site_fract_x
_atom_site_fract_y
_atom_site_fract_z
Si Si1 0.483583 0.500000 0.750000
Si Si2 0.601658 0.601658 0.625000
Si Si3 0.868199 0.731784 0.472842
Si Si4 0.847278 0.484872 0.935319
Si Si5 0.662755 0.251639 0.275942
Si Si6 0.873275 0.623866 0.161819
Si Si7 0.937377 0.621465 0.354219
Si Si8 0.358883 0.101644 0.989709
O O1 0.560588 0.531700 0.687867
O O2 0.409226 0.620868 0.768882
O O3 0.565879 0.739954 0.640696
O O4 0.847322 0.600104 0.502919
O O5 0.876892 0.719812 0.397795
O O6 0.745788 0.801305 0.488066
O O7 0.000000 0.775064 0.500000
O O8 0.971694 0.451960 0.901099
O O9 0.821732 0.617483 0.964111
O O10 0.639208 0.175415 0.340456
O O11 0.798920 0.293653 0.289463
O O12 0.851366 0.481144 0.173981
O O13 0.013549 0.646347 0.178957
O O14 0.018945 0.671815 0.299499
O O15 0.500000 0.139603 0.000000
#
# Coordination Sequence:
#
# PCOD9550503 Si02
#       8
#     4   4   8   8   8   8   8   8
#     4  10  22  38  60 100 130 172 214 274 342 414
#     4  10  20  38  56  96 136 160 212 280 346 396
#     4  10  21  42  72  96 131 177 234 285 351 413
#     4  10  20  39  64  94 127 170 223 279 343 402
#     4  10  21  39  65  87 130 173 220 268 331 413
#     4  10  21  41  60  91 132 176 217 262 332 419
#     4  10  21  41  68  93 128 179 226 278 348 415
#     4  10  23  43  63 100 137 177 229 287 345 408
#
# _framework density 21.625615
#
# number of rings (size 3 to 8) (size 9 to 14) (size 15 to 20)
#    0.000    2.000    1.429    1.714    3.000    1.714 
#   24.429    2.857    0.000    0.000    0.000    0.000 
#    0.000    0.000    0.000    0.000    0.000    0.000 
#
# Total GULP energy -312302.397044 kJ/mol
# GULP energy per Si atom -5576.828519 kJ/mol
# Density = 2.157639 g / cm^3
# Si number density = 21.625615 Si / 1000 Ang^3
#
#
#
# Elastic Constant Matrix: (Units=GPa)
#
#
# Indices 1 2 3 4 5 6 
#
# 1 61.2782 32.2898 19.3712 0.0000 0.0000 0.0000
# 2 32.2898 61.2782 19.3712 0.0000 0.0000 0.0000
# 3 19.3712 19.3712 93.9355 0.0000 0.0000 0.0000
# 4 0.0000 0.0000 0.0000 32.6979 0.0000 0.0000
# 5 0.0000 0.0000 0.0000 0.0000 32.6979 0.0000
# 6 0.0000 0.0000 0.0000 0.0000 0.0000 29.3883
#
#
#
# Elastic Compliance Matrix: (Units=1/GPa)
#
#
# Indices 1 2 3 4 5 6 
#
# 1 0.023091 -0.011406 -0.002410 0.000000 0.000000 0.000000
# 2 -0.011406 0.023091 -0.002410 0.000000 0.000000 0.000000
# 3 -0.002410 -0.002410 0.011639 0.000000 0.000000 0.000000
# 4 0.000000 0.000000 0.000000 0.030583 0.000000 0.000000
# 5 0.000000 0.000000 0.000000 0.000000 0.030583 0.000000
# 6 0.000000 0.000000 0.000000 0.000000 0.000000 0.034027
#
#
# Mechanical properties :
#
#
# Convention : Reuss Voigt Hill
#
# Bulk Modulus (GPa) = 39.41508 39.83959 39.62734
# Shear Modulus (GPa) = 25.78366 28.65415 27.21890
#
# Velocity S-wave (km/s) = 3.45668 3.64402 3.55158
# Velocity P-wave (km/s) = 5.84783 6.01395 5.93147
#
# Compressibility (1/GPa) = 0.02537100
#
# Stress axis : x y z
#
# Youngs Moduli (GPa) = 43.30725 43.30725 85.91473
#
# Poissons Ratio (x) = 0.49395 0.20703
# Poissons Ratio (y) = 0.49395 0.20703
# Poissons Ratio (z) = 0.10436 0.10436
#
# Static dielectric constant tensor:
#      x y z
#    x 1.819690 0.000000 0.000000 
#    y 0.000000 1.819690 0.000000 
#    z 0.000000 0.000000 1.858670 
# 
# From -- ./inp_files/6486.got.cif
#   From: 2010.05.17/outbox.cif.g08.bks.cpg/sg95_4_cif.got.tgz:6486.got - 2010.06.03 19:46:49.
