data_PCOD9550287
_publ_section_title
;
Structure prediction by ZEFSAII (Michael W. Deem and Ramdas Pophale) SiO2 
 PCOD9550287
Probable space group: P 42 21 2
;
_chemical_formula_sum "Si O2"
_cell_formula_units_Z 36
_cell_length_a 8.856398
_cell_length_b 8.856398
_cell_length_c 20.657876
_cell_angle_alpha 90.000000
_cell_angle_beta 90.000000
_cell_angle_gamma 90.000000
_cell_volume 1620.316732
_symmetry_space_group_name_H-M "P 42 21 2"
_symmetry_group_IT_number 94
_symmetry_cell_setting 'tetragonal'
loop_
_space_group_symop_operation_xyz
x,y,z
1/2-y,1/2+x,1/2+z
-x,-y,z
1/2+y,1/2-x,1/2+z
1/2+x,1/2-y,1/2-z
1/2-x,1/2+y,1/2-z
y,x,-z
-y,-x,-z
loop_
_atom_site_type_symbol
_atom_site_label
_atom_site_fract_x
_atom_site_fract_y
_atom_site_fract_z
Si Si1 0.173707 0.217160 0.660594
Si Si2 0.788199 0.670908 0.202798
Si Si3 0.010525 0.822503 0.117833
Si Si4 0.216100 0.216100 0.000000
Si Si5 0.561082 0.828867 0.110866
O O1 0.286667 0.223617 0.722519
O O2 0.252449 0.325899 0.608231
O O3 0.001248 0.248551 0.682912
O O4 0.198182 0.055430 0.629148
O O5 0.952580 0.715581 0.176306
O O6 0.690486 0.794753 0.163500
O O7 0.913254 0.799343 0.053645
O O8 0.000000 0.000000 0.134792
O O9 0.369138 0.197235 0.040195
O O10 0.500000 0.000000 0.116866
#
# Coordination Sequence:
#
# PCOD9550287 Si02
#       5
#     8   8   8   4   8
#     4  12  23  42  70 100 136 176 222 284 349 412
#     4  11  24  42  66 102 138 173 222 279 349 420
#     4  11  23  43  67  94 129 178 229 279 341 412
#     4  10  25  46  65  92 132 174 226 276 336 408
#     4  11  24  44  67  96 133 179 229 285 345 412
#
# _framework density 22.217879
#
# number of rings (size 3 to 8) (size 9 to 14) (size 15 to 20)
#    0.000    0.889    0.000    8.333    0.000    3.556 
#    0.000   15.556    0.000    0.000    0.000    0.000 
#    0.000    0.000    0.000    0.000    0.000    0.000 
#
# Total GULP energy -201066.041366 kJ/mol
# GULP energy per Si atom -5585.167816 kJ/mol
# Density = 2.216731 g / cm^3
# Si number density = 22.217879 Si / 1000 Ang^3
#
#
#
# Elastic Constant Matrix: (Units=GPa)
#
#
# Indices 1 2 3 4 5 6 
#
# 1 97.4985 18.0963 36.9469 0.0000 0.0000 0.0000
# 2 18.0963 97.4985 36.9469 0.0000 0.0000 0.0000
# 3 36.9469 36.9469 97.7824 0.0000 0.0000 0.0000
# 4 0.0000 0.0000 0.0000 13.8401 0.0000 0.0000
# 5 0.0000 0.0000 0.0000 0.0000 13.8401 0.0000
# 6 0.0000 0.0000 0.0000 0.0000 0.0000 37.2766
#
#
#
# Elastic Compliance Matrix: (Units=1/GPa)
#
#
# Indices 1 2 3 4 5 6 
#
# 1 0.012000 -0.000594 -0.004310 0.000000 0.000000 0.000000
# 2 -0.000594 0.012000 -0.004310 0.000000 0.000000 0.000000
# 3 -0.004310 -0.004310 0.013484 0.000000 0.000000 0.000000
# 4 0.000000 0.000000 0.000000 0.072254 0.000000 0.000000
# 5 0.000000 0.000000 0.000000 0.000000 0.072254 0.000000
# 6 0.000000 0.000000 0.000000 0.000000 0.000000 0.026827
#
#
# Mechanical properties :
#
#
# Convention : Reuss Voigt Hill
#
# Bulk Modulus (GPa) = 52.47527 52.97328 52.72427
# Shear Modulus (GPa) = 21.40435 26.37728 23.89081
#
# Velocity S-wave (km/s) = 3.10721 3.44933 3.28273
# Velocity P-wave (km/s) = 6.04506 6.30541 6.17661
#
# Compressibility (1/GPa) = 0.01905660
#
# Stress axis : x y z
#
# Youngs Moduli (GPa) = 83.33337 83.33337 74.16411
#
# Poissons Ratio (x) = 0.04951 0.31962
# Poissons Ratio (y) = 0.04951 0.31962
# Poissons Ratio (z) = 0.35914 0.35914
#
# Static dielectric constant tensor:
#      x y z
#    x 1.881110 0.000000 0.000000 
#    y 0.000000 1.881110 0.000000 
#    z 0.000000 0.000000 1.774680 
# 
# From -- ./inp_files/4532.got.cif
#   From: 2010.05.17/outbox.cif.g08.bks.cpg/sg94_3_cif.got.tgz:4532.got - 2010.06.03 19:43:16.
