data_PCOD9550453
_publ_section_title
;
Structure prediction by ZEFSAII (Michael W. Deem and Ramdas Pophale) SiO2 
 PCOD9550453
Probable space group: P 43 2 2
;
_chemical_formula_sum "Si O2"
_cell_formula_units_Z 64
_cell_length_a 25.918660
_cell_length_b 25.918660
_cell_length_c 5.053422
_cell_angle_alpha 90.000000
_cell_angle_beta 90.000000
_cell_angle_gamma 90.000000
_cell_volume 3394.772348
_symmetry_space_group_name_H-M "P 43 2 2"
_symmetry_group_IT_number 95
_symmetry_cell_setting 'tetragonal'
loop_
_space_group_symop_operation_xyz
x,y,z
-y,x,3/4+z
-x,-y,1/2+z
y,-x,1/4+z
x,-y,1/2-z
-x,y,-z
y,x,1/4-z
-y,-x,3/4-z
loop_
_atom_site_type_symbol
_atom_site_label
_atom_site_fract_x
_atom_site_fract_y
_atom_site_fract_z
Si Si1 0.179065 0.737744 0.842286
Si Si2 0.379616 0.033936 0.991682
Si Si3 0.656194 0.264354 0.390893
Si Si4 0.598346 0.199334 0.023601
Si Si5 0.444726 0.396112 0.378117
Si Si6 0.112932 0.462903 0.495318
Si Si7 0.451023 0.724242 0.181155
Si Si8 0.869389 0.313174 0.870383
O O1 0.206255 0.793746 0.875000
O O2 0.226744 0.700582 0.753961
O O3 0.138296 0.726184 0.611143
O O4 0.154293 0.714917 0.110963
O O5 0.427533 0.065170 0.855160
O O6 0.359368 0.000000 0.750000
O O7 0.334901 0.073456 0.077761
O O8 0.395062 0.000000 0.250000
O O9 0.679666 0.320335 0.375000
O O10 0.640858 0.240965 0.110605
O O11 0.602770 0.264634 0.538397
O O12 0.576038 0.161903 0.253758
O O13 0.553040 0.234720 0.914275
O O14 0.631881 0.161065 0.840624
O O15 0.500000 0.410032 0.500000
O O16 0.405604 0.405604 0.625000
O O17 0.449448 0.337166 0.271160
O O18 0.429304 0.429304 0.125000
O O19 0.105454 0.500000 0.750000
O O20 0.124490 0.500000 0.250000
O O21 0.500000 0.734365 0.000000
#
# Coordination Sequence:
#
# PCOD9550453 Si02
#       8
#     8   8   8   8   8   8   8   8
#     4  10  19  34  57  87 121 154 194 239 299 358
#     4  11  23  41  64  87 117 160 207 254 309 353
#     4  10  22  36  56  81 110 145 182 216 269 347
#     4  10  24  38  59  82 112 147 184 221 284 349
#     4  11  26  48  71  93 113 134 170 216 271 336
#     4  11  26  42  63  86 116 150 191 246 295 355
#     4  11  25  39  59  84 118 143 175 213 273 345
#     4  10  20  38  58  86 120 151 198 249 289 351
#
# _framework density 18.852515
#
# number of rings (size 3 to 8) (size 9 to 14) (size 15 to 20)
#    0.000    1.500    1.250    2.625    7.000    3.500 
#    0.000    0.000    0.000    0.000    0.000    0.000 
#    0.000    0.000    0.000    0.000    0.000    0.000 
#
# Total GULP energy -357076.037718 kJ/mol
# GULP energy per Si atom -5579.313089 kJ/mol
# Density = 1.880961 g / cm^3
# Si number density = 18.852515 Si / 1000 Ang^3
#
#
#
# Elastic Constant Matrix: (Units=GPa)
#
#
# Indices 1 2 3 4 5 6 
#
# 1 77.0416 55.0654 43.9292 0.0000 0.0000 0.0000
# 2 55.0654 77.0381 43.9292 0.0000 0.0000 0.0000
# 3 43.9292 43.9292 116.2342 0.0000 0.0000 0.0000
# 4 0.0000 0.0000 0.0000 33.3042 0.0000 0.0000
# 5 0.0000 0.0000 0.0000 0.0000 33.3156 0.0000
# 6 0.0000 0.0000 0.0000 0.0000 0.0000 13.6588
#
#
#
# Elastic Compliance Matrix: (Units=1/GPa)
#
#
# Indices 1 2 3 4 5 6 
#
# 1 0.027809 -0.017698 -0.003821 0.000000 0.000000 0.000000
# 2 -0.017698 0.027810 -0.003822 0.000000 0.000000 0.000000
# 3 -0.003821 -0.003822 0.011492 0.000000 0.000000 0.000000
# 4 0.000000 0.000000 0.000000 0.030026 0.000000 0.000000
# 5 0.000000 0.000000 0.000000 0.000000 0.030016 0.000000
# 6 0.000000 0.000000 0.000000 0.000000 0.000000 0.073213
#
#
# Mechanical properties :
#
#
# Convention : Reuss Voigt Hill
#
# Bulk Modulus (GPa) = 60.86937 61.79572 61.33254
# Shear Modulus (GPa) = 19.49138 24.54838 22.01988
#
# Velocity S-wave (km/s) = 3.21890 3.61241 3.42132
# Velocity P-wave (km/s) = 6.79502 7.08866 6.94339
#
# Compressibility (1/GPa) = 0.01642862
#
# Stress axis : x y z
#
# Youngs Moduli (GPa) = 35.96021 35.95820 87.01846
#
# Poissons Ratio (x) = 0.63639 0.33251
# Poissons Ratio (y) = 0.63643 0.33256
# Poissons Ratio (z) = 0.13741 0.13742
#
# Static dielectric constant tensor:
#      x y z
#    x 1.702210 0.000000 0.000000 
#    y 0.000000 1.702200 0.000000 
#    z 0.000000 0.000000 1.801080 
# 
# From -- ./inp_files/1534.got.cif
#   From: 2010.05.17/outbox.cif.g08.bks.cpg/sg95_1_cif.got.tgz:1534.got - 2010.06.03 19:46:49.
