data_PCOD9550317
_publ_section_title
;
Structure prediction by ZEFSAII (Michael W. Deem and Ramdas Pophale) SiO2 
 PCOD9550317
Probable space group: P 42 21 2
;
_chemical_formula_sum "Si O2"
_cell_formula_units_Z 40
_cell_length_a 14.021454
_cell_length_b 14.021454
_cell_length_c 9.727505
_cell_angle_alpha 90.000000
_cell_angle_beta 90.000000
_cell_angle_gamma 90.000000
_cell_volume 1912.438886
_symmetry_space_group_name_H-M "P 42 21 2"
_symmetry_group_IT_number 94
_symmetry_cell_setting 'tetragonal'
loop_
_space_group_symop_operation_xyz
x,y,z
1/2-y,1/2+x,1/2+z
-x,-y,z
1/2+y,1/2-x,1/2+z
1/2+x,1/2-y,1/2-z
1/2-x,1/2+y,1/2-z
y,x,-z
-y,-x,-z
loop_
_atom_site_type_symbol
_atom_site_label
_atom_site_fract_x
_atom_site_fract_y
_atom_site_fract_z
Si Si1 0.960712 0.099669 0.845292
Si Si2 0.247299 0.629662 0.303115
Si Si3 0.231721 0.338283 0.285829
Si Si4 0.110241 0.399501 0.040537
Si Si5 0.608789 0.111666 0.957800
O O1 0.871810 0.157944 0.780418
O O2 0.048388 0.174786 0.835313
O O3 0.927735 0.072266 0.000000
O O4 0.000000 0.000000 0.783324
O O5 0.289526 0.730807 0.258849
O O6 0.182053 0.642082 0.436818
O O7 0.177086 0.607615 0.176121
O O8 0.191108 0.358109 0.437291
O O9 0.172306 0.399481 0.177383
O O10 0.119616 0.504138 0.973775
O O11 0.999781 0.381004 0.076164
#
# Coordination Sequence:
#
# PCOD9550317 Si02
#       5
#     8   8   8   8   8
#     4  11  26  46  70 101 148 201 248 293 367 453
#     4  12  25  43  70 105 140 194 244 294 368 449
#     4  12  25  43  72 106 144 190 246 302 363 447
#     4  11  23  41  72 105 139 174 240 311 372 427
#     4  11  22  44  71 103 140 177 236 317 370 416
#
# _framework density 20.915702
#
# number of rings (size 3 to 8) (size 9 to 14) (size 15 to 20)
#    0.000    0.600    4.000    3.600    5.600    4.800 
#    0.000    0.000    0.000    0.000    0.000    0.000 
#    0.000    0.000    0.000    0.000    0.000    0.000 
#
# Total GULP energy -223455.238976 kJ/mol
# GULP energy per Si atom -5586.380974 kJ/mol
# Density = 2.086810 g / cm^3
# Si number density = 20.915702 Si / 1000 Ang^3
#
#
#
# Elastic Constant Matrix: (Units=GPa)
#
#
# Indices 1 2 3 4 5 6 
#
# 1 100.1899 6.3803 32.3488 0.0000 0.0000 0.0000
# 2 6.3803 100.1906 32.3488 0.0000 0.0000 0.0000
# 3 32.3488 32.3488 83.6804 0.0000 0.0000 0.0000
# 4 0.0000 0.0000 0.0000 25.1498 0.0000 0.0000
# 5 0.0000 0.0000 0.0000 0.0000 25.1497 0.0000
# 6 0.0000 0.0000 0.0000 0.0000 0.0000 29.9170
#
#
#
# Elastic Compliance Matrix: (Units=1/GPa)
#
#
# Indices 1 2 3 4 5 6 
#
# 1 0.011460 0.000801 -0.004740 0.000000 0.000000 0.000000
# 2 0.000801 0.011460 -0.004740 0.000000 0.000000 0.000000
# 3 -0.004740 -0.004740 0.015615 0.000000 0.000000 0.000000
# 4 0.000000 0.000000 0.000000 0.039762 0.000000 0.000000
# 5 0.000000 0.000000 0.000000 0.000000 0.039762 0.000000
# 6 0.000000 0.000000 0.000000 0.000000 0.000000 0.033426
#
#
# Mechanical properties :
#
#
# Convention : Reuss Voigt Hill
#
# Bulk Modulus (GPa) = 47.21986 47.35741 47.28864
# Shear Modulus (GPa) = 28.42489 30.24216 29.33352
#
# Velocity S-wave (km/s) = 3.69049 3.80663 3.74901
# Velocity P-wave (km/s) = 6.38631 6.48165 6.43416
#
# Compressibility (1/GPa) = 0.02117753
#
# Stress axis : x y z
#
# Youngs Moduli (GPa) = 87.25685 87.25756 64.04195
#
# Poissons Ratio (x) = -0.06985 0.30354
# Poissons Ratio (y) = -0.06985 0.30354
# Poissons Ratio (z) = 0.41358 0.41358
#
# Static dielectric constant tensor:
#      x y z
#    x 1.792170 0.000000 0.000000 
#    y 0.000000 1.792170 0.000000 
#    z 0.000000 0.000000 1.706750 
# 
# From -- ./inp_files/1413.got.cif
#   From: 2010.05.17/outbox.cif.g08.bks.cpg/sg94_1_cif.got.tgz:1413.got - 2010.06.03 19:43:16.
