data_PCOD9550977
_publ_section_title
;
Structure prediction by ZEFSAII (Michael W. Deem and Ramdas Pophale) SiO2 
 PCOD9550977
Probable space group: P 43 21 2
;
_chemical_formula_sum "Si O2"
_cell_formula_units_Z 48
_cell_length_a 12.509638
_cell_length_b 12.509638
_cell_length_c 16.163690
_cell_angle_alpha 90.000000
_cell_angle_beta 90.000000
_cell_angle_gamma 90.000000
_cell_volume 2529.472705
_symmetry_space_group_name_H-M "P 43 21 2"
_symmetry_group_IT_number 96
_symmetry_cell_setting 'tetragonal'
loop_
_space_group_symop_operation_xyz
x,y,z
1/2-y,1/2+x,3/4+z
-x,-y,1/2+z
1/2+y,1/2-x,1/4+z
1/2+x,1/2-y,1/4-z
1/2-x,1/2+y,3/4-z
y,x,-z
-y,-x,1/2-z
loop_
_atom_site_type_symbol
_atom_site_label
_atom_site_fract_x
_atom_site_fract_y
_atom_site_fract_z
Si Si1 0.004994 0.500208 0.825825
Si Si2 0.172186 0.827814 0.250000
Si Si3 0.827060 0.172941 0.250000
Si Si4 0.916116 0.667856 0.946163
Si Si5 0.546369 0.621775 0.331095
Si Si6 0.119588 0.957855 0.084066
Si Si7 0.920046 0.672910 0.456677
O O1 0.959049 0.607940 0.865410
O O2 0.909481 0.465094 0.765947
O O3 0.028634 0.403073 0.887140
O O4 0.120431 0.526361 0.787255
O O5 0.162702 0.709597 0.211873
O O6 0.150762 0.904729 0.171511
O O7 0.850072 0.101020 0.168757
O O8 0.840491 0.294247 0.218599
O O9 0.958632 0.788484 0.941327
O O10 0.499133 0.502178 0.340158
O O11 0.620962 0.616827 0.248535
O O12 0.205882 0.049273 0.063600
#
# Coordination Sequence:
#
# PCOD9550977 Si02
#       7
#     8   4   4   8   8   8   8
#     4  10  22  42  68  96 134 172 232 276 340 404
#     4  12  23  42  69 100 134 178 232 274 351 406
#     4  12  23  42  69 100 134 178 232 274 351 406
#     4  11  22  42  66  97 133 177 221 286 333 404
#     4  11  24  44  64  97 139 178 224 281 341 410
#     4  11  24  44  64  97 139 178 224 281 341 410
#     4  11  22  42  66  97 133 177 221 286 333 404
#
# _framework density 18.976289000000001
#
# number of rings (size 3 to 8) (size 9 to 14) (size 15 to 20)
#    0.000    1.000    3.333    4.500    0.000    0.000 
#    0.000    0.000    0.000    0.000    0.000    0.000 
#    0.000    0.000    0.000    0.000    0.000    0.000 
#
# Total GULP energy -267606.383763 kJ/mol
# GULP energy per Si atom -5575.132995 kJ/mol
# Density = 1.893310 g / cm^3
# Si number density = 18.976289 Si / 1000 Ang^3
#
#
#
# Elastic Constant Matrix: (Units=GPa)
#
#
# Indices 1 2 3 4 5 6 
#
# 1 74.7431 84.2918 36.3925 0.0000 0.0000 0.0000
# 2 84.2918 74.7431 36.3924 0.0000 0.0000 0.0000
# 3 36.3925 36.3924 101.9840 0.0000 0.0000 0.0000
# 4 0.0000 0.0000 0.0000 -81.1986 0.0000 0.0000
# 5 0.0000 0.0000 0.0000 0.0000 -81.2115 0.0000
# 6 0.0000 0.0000 0.0000 0.0000 0.0000 35.7429
#
#
#
# Elastic Compliance Matrix: (Units=1/GPa)
#
#
# Indices 1 2 3 4 5 6 
#
# 1 -0.048606 0.056121 -0.002682 0.000000 0.000000 0.000000
# 2 0.056121 -0.048605 -0.002682 0.000000 0.000000 0.000000
# 3 -0.002682 -0.002682 0.011719 0.000000 0.000000 0.000000
# 4 0.000000 0.000000 0.000000 -0.012315 0.000000 0.000000
# 5 0.000000 0.000000 0.000000 0.000000 -0.012314 0.000000
# 6 0.000000 0.000000 0.000000 0.000000 0.000000 0.027978
#
#
# Mechanical properties :
#
#
# Convention : Reuss Voigt Hill
#
# Bulk Modulus (GPa) = 62.41090 62.84708 62.62899
# Shear Modulus (GPa) = -28.04003 -19.04054 -23.54029
#
# Velocity S-wave (km/s) = -3.84817 -3.17106 -3.52591
# Velocity P-wave (km/s) = 3.63534 4.44782 4.06195
#
# Compressibility (1/GPa) = 0.01602284
#
# Stress axis : x y z
#
# Youngs Moduli (GPa) = -20.57379 -20.57381 85.32838
#
# Poissons Ratio (x) = 1.15462 0.22883
# Poissons Ratio (y) = 1.15462 0.22884
# Poissons Ratio (z) = -0.05517 -0.05518
#
# Static dielectric constant tensor:
#      x y z
#    x 1.671090 0.000000 0.000000 
#    y 0.000000 1.671090 0.000000 
#    z 0.000000 0.000000 1.704350 
# 
# From -- ./inp_files/3156.got.cif
#   From: 2010.05.17/outbox.cif.g08.bks.cpg/sg96_2_cif.got.tgz:3156.got - 2010.06.03 19:52:08.
