data_PCOD9550379
_publ_section_title
;
Structure prediction by ZEFSAII (Michael W. Deem and Ramdas Pophale) SiO2 
 PCOD9550379
Probable space group: P 42 21 2
;
_chemical_formula_sum "Si O2"
_cell_formula_units_Z 26
_cell_length_a 17.235193
_cell_length_b 17.235193
_cell_length_c 4.758134
_cell_angle_alpha 90.000000
_cell_angle_beta 90.000000
_cell_angle_gamma 90.000000
_cell_volume 1413.412639
_symmetry_space_group_name_H-M "P 42 21 2"
_symmetry_group_IT_number 94
_symmetry_cell_setting 'tetragonal'
loop_
_space_group_symop_operation_xyz
x,y,z
1/2-y,1/2+x,1/2+z
-x,-y,z
1/2+y,1/2-x,1/2+z
1/2+x,1/2-y,1/2-z
1/2-x,1/2+y,1/2-z
y,x,-z
-y,-x,-z
loop_
_atom_site_type_symbol
_atom_site_label
_atom_site_fract_x
_atom_site_fract_y
_atom_site_fract_z
Si Si1 0.667574 0.492271 0.708229
Si Si2 0.500000 0.500000 0.000000
Si Si3 0.819235 0.819235 0.000000
Si Si4 0.705206 0.593335 0.178267
Si Si5 0.743533 0.743533 0.500000
O O1 0.579930 0.496379 0.825686
O O2 0.687475 0.403978 0.636584
O O3 0.670075 0.540959 0.423020
O O4 0.726351 0.531202 0.935427
O O5 0.803692 0.758358 0.750765
O O6 0.752266 0.659150 0.350743
O O7 0.646099 0.646099 0.000000
#
# Coordination Sequence:
#
# PCOD9550379 Si02
#       5
#     8   2   4   8   4
#     4  12  24  35  54  89 116 165 198 241 274 364
#     4  12  22  36  50  80 134 162 192 212 298 324
#     4  12  26  36  54  90 132 148 194 266 312 308
#     4  12  21  38  59  74 108 166 222 218 270 360
#     4  12  21  44  56  76 114 180 197 252 294 336
#
# _framework density 18.395195000000001
#
# number of rings (size 3 to 8) (size 9 to 14) (size 15 to 20)
#    0.000    0.000    6.154    4.615    4.308    1.231 
#    0.000    0.000    0.000    0.000    0.000    0.000 
#    0.000   34.462    1.231    0.000    0.000    0.000 
#
# Total GULP energy -144988.368289 kJ/mol
# GULP energy per Si atom -5576.475703 kJ/mol
# Density = 1.835333 g / cm^3
# Si number density = 18.395195 Si / 1000 Ang^3
#
#
#
# Elastic Constant Matrix: (Units=GPa)
#
#
# Indices 1 2 3 4 5 6 
#
# 1 108.5239 11.3691 48.0584 0.0000 0.0000 0.0000
# 2 11.3691 108.5239 48.0584 0.0000 0.0000 0.0000
# 3 48.0584 48.0584 158.9000 0.0000 0.0000 0.0000
# 4 0.0000 0.0000 0.0000 45.0271 0.0000 0.0000
# 5 0.0000 0.0000 0.0000 0.0000 45.0271 0.0000
# 6 0.0000 0.0000 0.0000 0.0000 0.0000 23.9583
#
#
#
# Elastic Compliance Matrix: (Units=1/GPa)
#
#
# Indices 1 2 3 4 5 6 
#
# 1 0.010652 0.000359 -0.003330 0.000000 0.000000 0.000000
# 2 0.000359 0.010652 -0.003330 0.000000 0.000000 0.000000
# 3 -0.003330 -0.003330 0.008308 0.000000 0.000000 0.000000
# 4 0.000000 0.000000 0.000000 0.022209 0.000000 0.000000
# 5 0.000000 0.000000 0.000000 0.000000 0.022209 0.000000
# 6 0.000000 0.000000 0.000000 0.000000 0.000000 0.041739
#
#
# Mechanical properties :
#
#
# Convention : Reuss Voigt Hill
#
# Bulk Modulus (GPa) = 58.79496 65.65774 62.22635
# Shear Modulus (GPa) = 37.30237 40.69996 39.00117
#
# Velocity S-wave (km/s) = 4.50803 4.70886 4.60954
# Velocity P-wave (km/s) = 7.68947 8.08300 7.88869
#
# Compressibility (1/GPa) = 0.01700826
#
# Stress axis : x y z
#
# Youngs Moduli (GPa) = 93.88222 93.88222 120.37213
#
# Poissons Ratio (x) = -0.03368 0.40084
# Poissons Ratio (y) = -0.03368 0.40084
# Poissons Ratio (z) = 0.31263 0.31263
#
# Static dielectric constant tensor:
#      x y z
#    x 1.673730 0.000000 0.000000 
#    y 0.000000 1.673730 0.000000 
#    z 0.000000 0.000000 1.704310 
# 
# From -- ./inp_files/224.got.cif
#   From: 2010.05.17/outbox.cif.g08.bks.cpg/sg94_1_cif.got.tgz:224.got - 2010.06.03 19:43:16.
