data_PCOD9550455
_publ_section_title
;
Structure prediction by ZEFSAII (Michael W. Deem and Ramdas Pophale) SiO2 
 PCOD9550455
Probable space group: P 43 2 2
;
_chemical_formula_sum "Si O2"
_cell_formula_units_Z 48
_cell_length_a 20.522807
_cell_length_b 20.522807
_cell_length_c 6.035700
_cell_angle_alpha 90.000000
_cell_angle_beta 90.000000
_cell_angle_gamma 90.000000
_cell_volume 2542.149969
_symmetry_space_group_name_H-M "P 43 2 2"
_symmetry_group_IT_number 95
_symmetry_cell_setting 'tetragonal'
loop_
_space_group_symop_operation_xyz
x,y,z
-y,x,3/4+z
-x,-y,1/2+z
y,-x,1/4+z
x,-y,1/2-z
-x,y,-z
y,x,1/4-z
-y,-x,3/4-z
loop_
_atom_site_type_symbol
_atom_site_label
_atom_site_fract_x
_atom_site_fract_y
_atom_site_fract_z
Si Si1 0.319971 0.713250 0.120756
Si Si2 0.189360 0.000000 0.250000
Si Si3 0.862875 0.137126 0.875000
Si Si4 0.835277 0.625251 0.560648
Si Si5 0.699022 0.932728 0.986740
Si Si6 0.173282 0.263979 0.401210
Si Si7 0.103322 0.500000 0.250000
Si Si8 0.412736 0.000000 0.750000
O O1 0.319519 0.680482 0.375000
O O2 0.370640 0.772688 0.149573
O O3 0.250565 0.750088 0.098262
O O4 0.323292 0.676709 0.875000
O O5 0.147067 0.064858 0.219922
O O6 0.241002 0.019178 0.442248
O O7 0.854919 0.199524 0.714789
O O8 0.894123 0.670063 0.471496
O O9 0.820979 0.665018 0.784240
O O10 0.855513 0.552071 0.611264
O O11 0.722671 0.876040 0.150188
O O12 0.636871 0.972126 0.070470
O O13 0.056975 0.457693 0.407829
#
# Coordination Sequence:
#
# PCOD9550455 Si02
#       8
#     8   4   4   8   8   8   4   4
#     4  10  19  34  61  91 111 147 200 271 318 354
#     4  12  26  41  64  87 112 142 198 264 346 405
#     4  12  24  44  60  88 110 144 190 270 338 428
#     4  11  21  38  59  83 118 151 203 253 314 382
#     4  12  22  41  62  84 110 152 201 257 318 393
#     4  11  20  39  64  84 108 144 206 262 315 366
#     4  12  24  38  50  86 124 170 198 250 322 406
#     4  12  24  37  54  79 126 162 204 240 318 399
#
# _framework density 18.881656
#
# number of rings (size 3 to 8) (size 9 to 14) (size 15 to 20)
#    0.000    0.667    7.500    3.000    0.000    0.000 
#    0.000    1.667    0.000    0.000    0.000    0.000 
#    0.000    0.000    0.000    0.000    0.000    0.000 
#
# Total GULP energy -267224.329098 kJ/mol
# GULP energy per Si atom -5567.173523 kJ/mol
# Density = 1.883868 g / cm^3
# Si number density = 18.881656 Si / 1000 Ang^3
#
#
#
# Elastic Constant Matrix: (Units=GPa)
#
#
# Indices 1 2 3 4 5 6 
#
# 1 97.4302 63.4106 30.9225 0.0000 0.0000 0.0000
# 2 63.4106 97.4298 30.9218 0.0000 0.0000 0.0000
# 3 30.9225 30.9218 68.5271 0.0000 0.0000 0.0000
# 4 0.0000 0.0000 0.0000 29.8778 0.0000 0.0000
# 5 0.0000 0.0000 0.0000 0.0000 29.8780 0.0000
# 6 0.0000 0.0000 0.0000 0.0000 0.0000 31.0319
#
#
#
# Elastic Compliance Matrix: (Units=1/GPa)
#
#
# Indices 1 2 3 4 5 6 
#
# 1 0.018459 -0.010936 -0.003395 0.000000 0.000000 0.000000
# 2 -0.010936 0.018459 -0.003394 0.000000 0.000000 0.000000
# 3 -0.003395 -0.003394 0.017656 0.000000 0.000000 0.000000
# 4 0.000000 0.000000 0.000000 0.033470 0.000000 0.000000
# 5 0.000000 0.000000 0.000000 0.000000 0.033469 0.000000
# 6 0.000000 0.000000 0.000000 0.000000 0.000000 0.032225
#
#
# Mechanical properties :
#
#
# Convention : Reuss Voigt Hill
#
# Bulk Modulus (GPa) = 52.29195 57.09966 54.69581
# Shear Modulus (GPa) = 25.56726 27.36634 26.46680
#
# Velocity S-wave (km/s) = 3.68377 3.81118 3.74802
# Velocity P-wave (km/s) = 6.77114 7.04792 6.91092
#
# Compressibility (1/GPa) = 0.01912340
#
# Stress axis : x y z
#
# Youngs Moduli (GPa) = 54.17469 54.17483 56.63729
#
# Poissons Ratio (x) = 0.59247 0.19226
# Poissons Ratio (y) = 0.59247 0.19225
# Poissons Ratio (z) = 0.18390 0.18389
#
# Static dielectric constant tensor:
#      x y z
#    x 0.997270 0.000000 0.000000 
#    y 0.000000 0.997360 0.000000 
#    z 0.000000 0.000000 1.795860 
# 
# From -- ./inp_files/1340.got.cif
#   From: 2010.05.17/outbox.cif.g08.bks.cpg/sg95_1_cif.got.tgz:1340.got - 2010.06.03 19:46:49.
