data_PCOD9550251
_publ_section_title
;
Structure prediction by ZEFSAII (Michael W. Deem and Ramdas Pophale) SiO2 
 PCOD9550251
Probable space group: P 42 21 2
;
_chemical_formula_sum "Si O2"
_cell_formula_units_Z 40
_cell_length_a 8.189997
_cell_length_b 8.189997
_cell_length_c 24.739384
_cell_angle_alpha 90.000000
_cell_angle_beta 90.000000
_cell_angle_gamma 90.000000
_cell_volume 1659.420179
_symmetry_space_group_name_H-M "P 42 21 2"
_symmetry_group_IT_number 94
_symmetry_cell_setting 'tetragonal'
loop_
_space_group_symop_operation_xyz
x,y,z
1/2-y,1/2+x,1/2+z
-x,-y,z
1/2+y,1/2-x,1/2+z
1/2+x,1/2-y,1/2-z
1/2-x,1/2+y,1/2-z
y,x,-z
-y,-x,-z
loop_
_atom_site_type_symbol
_atom_site_label
_atom_site_fract_x
_atom_site_fract_y
_atom_site_fract_z
Si Si1 0.634603 0.209392 0.947333
Si Si2 0.321108 0.080167 0.144029
Si Si3 0.580185 0.319232 0.269037
Si Si4 0.741008 0.221783 0.835549
Si Si5 0.270303 0.156000 0.948689
O O1 0.638448 0.285204 0.886903
O O2 0.448853 0.213416 0.966587
O O3 0.695461 0.028085 0.931079
O O4 0.732208 0.267793 0.000000
O O5 0.249504 0.166218 0.197312
O O6 0.277820 0.197631 0.095070
O O7 0.500000 0.000000 0.142683
O O8 0.205638 0.921747 0.139798
O O9 0.500000 0.500000 0.262454
O O10 0.449663 0.212553 0.303669
O O11 0.639318 0.257198 0.210896
O O12 0.154317 0.154317 0.000000
#
# Coordination Sequence:
#
# PCOD9550251 Si02
#       5
#     8   8   8   8   8
#     4  11  26  48  74 103 142 195 242 313 379 451
#     4  11  24  43  71 103 146 192 244 301 371 445
#     4  10  23  44  68 110 147 191 253 307 376 448
#     4  11  23  44  72 102 147 193 246 303 374 450
#     4  11  26  46  71 103 143 183 251 306 372 455
#
# _framework density 24.104803
#
# number of rings (size 3 to 8) (size 9 to 14) (size 15 to 20)
#    0.000    1.200    2.000    2.400    5.600    7.200 
#    3.600    0.000    0.000    0.000    0.000    0.000 
#    0.000    0.000    0.000    0.000    0.000    0.000 
#
# Total GULP energy -223223.066066 kJ/mol
# GULP energy per Si atom -5580.576652 kJ/mol
# Density = 2.404994 g / cm^3
# Si number density = 24.104803 Si / 1000 Ang^3
#
#
#
# Elastic Constant Matrix: (Units=GPa)
#
#
# Indices 1 2 3 4 5 6 
#
# 1 78.4090 38.1550 43.1566 0.0000 0.0000 0.0000
# 2 38.1550 78.4110 43.1567 0.0000 0.0000 0.0000
# 3 43.1566 43.1567 140.1849 0.0000 0.0000 0.0000
# 4 0.0000 0.0000 0.0000 34.3118 0.0000 0.0000
# 5 0.0000 0.0000 0.0000 0.0000 34.3117 0.0000
# 6 0.0000 0.0000 0.0000 0.0000 0.0000 28.2260
#
#
#
# Elastic Compliance Matrix: (Units=1/GPa)
#
#
# Indices 1 2 3 4 5 6 
#
# 1 0.017977 -0.006865 -0.003421 0.000000 0.000000 0.000000
# 2 -0.006865 0.017977 -0.003421 0.000000 0.000000 0.000000
# 3 -0.003421 -0.003421 0.009240 0.000000 0.000000 0.000000
# 4 0.000000 0.000000 0.000000 0.029144 0.000000 0.000000
# 5 0.000000 0.000000 0.000000 0.000000 0.029145 0.000000
# 6 0.000000 0.000000 0.000000 0.000000 0.000000 0.035428
#
#
# Mechanical properties :
#
#
# Convention : Reuss Voigt Hill
#
# Bulk Modulus (GPa) = 56.24252 60.66017 58.45134
# Shear Modulus (GPa) = 29.02749 30.87235 29.94992
#
# Velocity S-wave (km/s) = 3.47395 3.58265 3.52872
# Velocity P-wave (km/s) = 6.28286 6.50643 6.39562
#
# Compressibility (1/GPa) = 0.01778014
#
# Stress axis : x y z
#
# Youngs Moduli (GPa) = 55.62646 55.62811 108.22849
#
# Poissons Ratio (x) = 0.38188 0.37024
# Poissons Ratio (y) = 0.38187 0.37023
# Poissons Ratio (z) = 0.19030 0.19029
#
# Static dielectric constant tensor:
#      x y z
#    x 1.966790 0.000000 0.000000 
#    y 0.000000 1.966790 0.000000 
#    z 0.000000 0.000000 2.053430 
# 
# From -- ./inp_files/4990.got.cif
#   From: 2010.05.17/outbox.cif.g08.bks.cpg/sg94_3_cif.got.tgz:4990.got - 2010.06.03 19:43:16.
