data_PCOD9550412
_publ_section_title
;
Structure prediction by ZEFSAII (Michael W. Deem and Ramdas Pophale) SiO2 
 PCOD9550412
Probable space group: P 43 2 2
;
_chemical_formula_sum "Si O2"
_cell_formula_units_Z 60
_cell_length_a 11.743982
_cell_length_b 11.743982
_cell_length_c 22.565793
_cell_angle_alpha 90.000000
_cell_angle_beta 90.000000
_cell_angle_gamma 90.000000
_cell_volume 3112.299291
_symmetry_space_group_name_H-M "P 43 2 2"
_symmetry_group_IT_number 95
_symmetry_cell_setting 'tetragonal'
loop_
_space_group_symop_operation_xyz
x,y,z
-y,x,3/4+z
-x,-y,1/2+z
y,-x,1/4+z
x,-y,1/2-z
-x,y,-z
y,x,1/4-z
-y,-x,3/4-z
loop_
_atom_site_type_symbol
_atom_site_label
_atom_site_fract_x
_atom_site_fract_y
_atom_site_fract_z
Si Si1 0.653717 0.916764 0.906242
Si Si2 0.030963 0.821318 0.905812
Si Si3 0.707935 0.870675 0.771826
Si Si4 0.875194 0.536868 0.970896
Si Si5 0.167680 0.500000 0.250000
Si Si6 0.582361 0.987182 0.400883
Si Si7 0.708509 0.819052 0.567179
Si Si8 0.781151 0.810218 0.263884
O O1 0.702727 0.871292 0.843249
O O2 0.516323 0.917995 0.903431
O O3 0.701727 0.845956 0.961281
O O4 0.690879 0.048504 0.915663
O O5 0.058738 0.941263 0.875000
O O6 0.026348 0.708245 0.865586
O O7 0.913409 0.817110 0.941658
O O8 0.137459 0.808283 0.950280
O O9 0.582971 0.835784 0.746694
O O10 0.799325 0.794954 0.737453
O O11 0.722947 0.000000 0.750000
O O12 0.797594 0.645060 0.983443
O O13 0.903805 0.537714 0.901611
O O14 0.000000 0.561369 0.000000
O O15 0.229027 0.587427 0.293503
O O16 0.084673 0.577965 0.210506
O O17 0.755445 0.755445 0.625000
#
# Coordination Sequence:
#
# PCOD9550412 Si02
#       8
#     8   8   8   8   4   8   8   8
#     4  11  22  35  56  87 118 149 192 243 290 352
#     4  10  21  36  55  79 111 153 185 235 285 341
#     4  11  19  36  60  84 109 155 195 233 302 352
#     4  10  16  37  61  77 103 150 207 238 267 349
#     4  10  24  36  60  90 116 158 202 248 294 350
#     4  10  19  37  57  80 110 148 198 240 275 338
#     4  11  23  40  57  88 126 155 194 247 299 353
#     4  10  21  36  54  84 112 146 198 229 285 341
#
# _framework density 19.278351000000001
#
# number of rings (size 3 to 8) (size 9 to 14) (size 15 to 20)
#    0.000    1.600    6.667    0.800    7.467    0.533 
#    2.400    0.000    0.000    0.000    6.933    0.000 
#    0.000    0.000    0.000    0.000    0.000    0.000 
#
# Total GULP energy -334683.707520 kJ/mol
# GULP energy per Si atom -5578.061792 kJ/mol
# Density = 1.923447 g / cm^3
# Si number density = 19.278351 Si / 1000 Ang^3
#
#
#
# Elastic Constant Matrix: (Units=GPa)
#
#
# Indices 1 2 3 4 5 6 
#
# 1 41.7893 15.5326 8.2645 0.0000 0.0000 0.0000
# 2 15.5326 41.7882 8.2639 0.0000 0.0000 0.0000
# 3 8.2645 8.2639 53.1937 0.0000 0.0000 0.0000
# 4 0.0000 0.0000 0.0000 29.3267 0.0000 0.0000
# 5 0.0000 0.0000 0.0000 0.0000 29.3274 0.0000
# 6 0.0000 0.0000 0.0000 0.0000 0.0000 3.3405
#
#
#
# Elastic Compliance Matrix: (Units=1/GPa)
#
#
# Indices 1 2 3 4 5 6 
#
# 1 0.028175 -0.009911 -0.002838 0.000000 0.000000 0.000000
# 2 -0.009911 0.028175 -0.002837 0.000000 0.000000 0.000000
# 3 -0.002838 -0.002837 0.019681 0.000000 0.000000 0.000000
# 4 0.000000 0.000000 0.000000 0.034099 0.000000 0.000000
# 5 0.000000 0.000000 0.000000 0.000000 0.034098 0.000000
# 6 0.000000 0.000000 0.000000 0.000000 0.000000 0.299354
#
#
# Mechanical properties :
#
#
# Convention : Reuss Voigt Hill
#
# Bulk Modulus (GPa) = 22.29236 22.32146 22.30691
# Shear Modulus (GPa) = 10.21020 19.37962 14.79491
#
# Velocity S-wave (km/s) = 2.30384 3.17401 2.77327
# Velocity P-wave (km/s) = 4.32035 5.00361 4.67448
#
# Compressibility (1/GPa) = 0.04485842
#
# Stress axis : x y z
#
# Youngs Moduli (GPa) = 35.49289 35.49207 50.81080
#
# Poissons Ratio (x) = 0.35177 0.14418
# Poissons Ratio (y) = 0.35178 0.14417
# Poissons Ratio (z) = 0.10071 0.10070
#
# Static dielectric constant tensor:
#      x y z
#    x 1.684590 0.000000 0.000000 
#    y 0.000000 1.684590 0.000000 
#    z 0.000000 0.000000 1.751230 
# 
# From -- ./inp_files/6525.got.cif
#   From: 2010.05.17/outbox.cif.g08.bks.cpg/sg95_4_cif.got.tgz:6525.got - 2010.06.03 19:46:49.
