data_PCOD9550019
_publ_section_title
;
Structure prediction by ZEFSAII (Michael W. Deem and Ramdas Pophale) SiO2 
 PCOD9550019
Probable space group: P 42 21 2
;
_chemical_formula_sum "Si O2"
_cell_formula_units_Z 52
_cell_length_a 20.696899
_cell_length_b 20.696899
_cell_length_c 5.149930
_cell_angle_alpha 90.000000
_cell_angle_beta 90.000000
_cell_angle_gamma 90.000000
_cell_volume 2206.032400
_symmetry_space_group_name_H-M "P 42 21 2"
_symmetry_group_IT_number 94
_symmetry_cell_setting 'tetragonal'
loop_
_space_group_symop_operation_xyz
x,y,z
1/2-y,1/2+x,1/2+z
-x,-y,z
1/2+y,1/2-x,1/2+z
1/2+x,1/2-y,1/2-z
1/2-x,1/2+y,1/2-z
y,x,-z
-y,-x,-z
loop_
_atom_site_type_symbol
_atom_site_label
_atom_site_fract_x
_atom_site_fract_y
_atom_site_fract_z
Si Si1 0.267213 0.890765 0.432700
Si Si2 0.388950 0.860038 0.080801
Si Si3 0.979223 0.334092 0.163419
Si Si4 0.642614 0.539917 0.020753
Si Si5 0.300367 0.518255 0.495460
Si Si6 0.862694 0.779492 0.356168
Si Si7 0.253803 0.253803 0.000000
O O1 0.321292 0.870573 0.228446
O O2 0.296512 0.949939 0.590890
O O3 0.193992 0.908088 0.360721
O O4 0.258091 0.825994 0.602045
O O5 0.451645 0.863631 0.264675
O O6 0.387678 0.784647 0.989203
O O7 0.385940 0.923209 0.899764
O O8 0.991624 0.273716 0.965856
O O9 0.657149 0.484700 0.234424
O O10 0.573073 0.573073 0.000000
O O11 0.664879 0.520685 0.731280
O O12 0.290878 0.588249 0.620935
O O13 0.845405 0.845405 0.500000
O O14 0.795044 0.760977 0.227944
#
# Coordination Sequence:
#
# PCOD9550019 Si02
#       7
#     8   8   8   8   8   8   4
#     4  10  20  36  59  89 125 165 221 291 341 408
#     4  10  21  39  57  87 125 176 237 285 353 410
#     4  10  21  38  58  85 125 178 225 287 342 413
#     4  11  21  40  66  98 131 179 220 276 344 416
#     4  10  23  39  65  95 138 171 223 278 345 416
#     4  10  22  38  62  97 129 178 221 287 355 421
#     4  10  20  36  62  96 123 164 223 290 352 402
#
# _framework density 23.571729000000001
#
# number of rings (size 3 to 8) (size 9 to 14) (size 15 to 20)
#    0.000    1.846    2.308    1.385    2.154    1.231 
#    8.308    2.308    0.000    0.462    0.000    0.000 
#    0.000    0.000    0.000    0.000    0.000    0.000 
#
# Total GULP energy -289956.228508 kJ/mol
# GULP energy per Si atom -5576.081317 kJ/mol
# Density = 2.351808 g / cm^3
# Si number density = 23.571729 Si / 1000 Ang^3
#
#
#
# Elastic Constant Matrix: (Units=GPa)
#
#
# Indices 1 2 3 4 5 6 
#
# 1 87.8125 36.9867 24.5224 0.0000 0.0000 0.0000
# 2 36.9867 87.8125 24.5224 0.0000 0.0000 0.0000
# 3 24.5224 24.5224 61.5684 0.0000 0.0000 0.0000
# 4 0.0000 0.0000 0.0000 34.2545 0.0000 0.0000
# 5 0.0000 0.0000 0.0000 0.0000 34.2545 0.0000
# 6 0.0000 0.0000 0.0000 0.0000 0.0000 24.1088
#
#
#
# Elastic Compliance Matrix: (Units=1/GPa)
#
#
# Indices 1 2 3 4 5 6 
#
# 1 0.014587 -0.005088 -0.003784 0.000000 0.000000 0.000000
# 2 -0.005088 0.014587 -0.003784 0.000000 0.000000 0.000000
# 3 -0.003784 -0.003784 0.019256 0.000000 0.000000 0.000000
# 4 0.000000 0.000000 0.000000 0.029193 0.000000 0.000000
# 5 0.000000 0.000000 0.000000 0.000000 0.029193 0.000000
# 6 0.000000 0.000000 0.000000 0.000000 0.000000 0.041479
#
#
# Mechanical properties :
#
#
# Convention : Reuss Voigt Hill
#
# Bulk Modulus (GPa) = 43.25091 45.47295 44.36193
# Shear Modulus (GPa) = 27.57655 28.60100 28.08878
#
# Velocity S-wave (km/s) = 3.42409 3.48711 3.45574
# Velocity P-wave (km/s) = 5.83275 5.96208 5.89777
#
# Compressibility (1/GPa) = 0.02312090
#
# Stress axis : x y z
#
# Youngs Moduli (GPa) = 68.55209 68.55209 51.93133
#
# Poissons Ratio (x) = 0.34877 0.19650
# Poissons Ratio (y) = 0.34877 0.19650
# Poissons Ratio (z) = 0.25938 0.25938
#
# Static dielectric constant tensor:
#      x y z
#    x 1.953890 0.000000 0.000000 
#    y 0.000000 1.953890 0.000000 
#    z 0.000000 0.000000 1.978930 
# 
# From -- ./inp_files/573.got.cif
#   From: 2010.05.17/outbox.cif.g08.bks.cpg/sg94_1_cif.got.tgz:573.got - 2010.06.03 19:43:16.
