data_PCOD9550494
_publ_section_title
;
Structure prediction by ZEFSAII (Michael W. Deem and Ramdas Pophale) SiO2 
 PCOD9550494
Probable space group: P 43 2 2
;
_chemical_formula_sum "Si O2"
_cell_formula_units_Z 48
_cell_length_a 15.131153
_cell_length_b 15.131153
_cell_length_c 10.914712
_cell_angle_alpha 90.000000
_cell_angle_beta 90.000000
_cell_angle_gamma 90.000000
_cell_volume 2498.942862
_symmetry_space_group_name_H-M "P 43 2 2"
_symmetry_group_IT_number 95
_symmetry_cell_setting 'tetragonal'
loop_
_space_group_symop_operation_xyz
x,y,z
-y,x,3/4+z
-x,-y,1/2+z
y,-x,1/4+z
x,-y,1/2-z
-x,y,-z
y,x,1/4-z
-y,-x,3/4-z
loop_
_atom_site_type_symbol
_atom_site_label
_atom_site_fract_x
_atom_site_fract_y
_atom_site_fract_z
Si Si1 0.755027 0.472465 0.109694
Si Si2 0.000000 0.763776 0.500000
Si Si3 0.796112 0.281917 0.636193
Si Si4 0.170639 0.170639 0.125000
Si Si5 0.605976 0.903731 0.212880
Si Si6 0.873616 0.315144 0.193951
Si Si7 0.393189 0.362253 0.988704
O O1 0.743015 0.500000 0.250000
O O2 0.819151 0.540652 0.041524
O O3 0.816112 0.386052 0.117867
O O4 0.658309 0.449648 0.058776
O O5 0.921809 0.819875 0.557703
O O6 0.956481 0.708466 0.390013
O O7 0.818772 0.244186 0.769811
O O8 0.878557 0.324140 0.567172
O O9 0.763019 0.199098 0.553334
O O10 0.718550 0.355101 0.657536
O O11 0.567913 0.000000 0.250000
O O12 0.648447 0.901907 0.076391
O O13 0.500000 0.366825 0.000000
O O14 0.354331 0.354331 0.125000
#
# Coordination Sequence:
#
# PCOD9550494 Si02
#       7
#     8   4   8   4   8   8   8
#     4   9  21  40  56  84 125 162 203 255 315 373
#     4  10  20  36  64  84 116 150 198 236 304 362
#     4  10  20  38  59  83 122 160 197 254 309 373
#     4  10  20  38  62  86 116 160 192 242 306 376
#     4  11  21  36  59  91 122 154 207 259 315 368
#     4   9  20  37  60  84 117 162 203 242 311 386
#     4  11  22  38  59  88 119 161 218 262 306 366
#
# _framework density 19.208121999999999
#
# number of rings (size 3 to 8) (size 9 to 14) (size 15 to 20)
#    0.000    2.000    0.833    2.500    1.167    0.667 
#    0.000    5.833   14.667    0.000    0.000    0.000 
#    0.000    0.000    0.000    0.000    0.000    0.000 
#
# Total GULP energy -267426.636222 kJ/mol
# GULP energy per Si atom -5571.388255 kJ/mol
# Density = 1.916440 g / cm^3
# Si number density = 19.208122 Si / 1000 Ang^3
#
#
#
# Elastic Constant Matrix: (Units=GPa)
#
#
# Indices 1 2 3 4 5 6 
#
# 1 94.7931 38.6634 35.0225 0.0000 0.0000 0.0000
# 2 38.6634 94.7931 35.0225 0.0000 0.0000 0.0000
# 3 35.0225 35.0225 72.7326 0.0000 0.0000 0.0000
# 4 0.0000 0.0000 0.0000 40.4800 0.0000 0.0000
# 5 0.0000 0.0000 0.0000 0.0000 40.4800 0.0000
# 6 0.0000 0.0000 0.0000 0.0000 0.0000 18.0148
#
#
#
# Elastic Compliance Matrix: (Units=1/GPa)
#
#
# Indices 1 2 3 4 5 6 
#
# 1 0.013922 -0.003894 -0.004828 0.000000 0.000000 0.000000
# 2 -0.003894 0.013922 -0.004828 0.000000 0.000000 0.000000
# 3 -0.004828 -0.004828 0.018399 0.000000 0.000000 0.000000
# 4 0.000000 0.000000 0.000000 0.024704 0.000000 0.000000
# 5 0.000000 0.000000 0.000000 0.000000 0.024704 0.000000
# 6 0.000000 0.000000 0.000000 0.000000 0.000000 0.055510
#
#
# Mechanical properties :
#
#
# Convention : Reuss Voigt Hill
#
# Bulk Modulus (GPa) = 52.24664 53.30398 52.77531
# Shear Modulus (GPa) = 27.07953 30.03565 28.55759
#
# Velocity S-wave (km/s) = 3.75880 3.95865 3.86002
# Velocity P-wave (km/s) = 6.78951 6.97893 6.88487
#
# Compressibility (1/GPa) = 0.01913999
#
# Stress axis : x y z
#
# Youngs Moduli (GPa) = 71.83096 71.83096 54.35091
#
# Poissons Ratio (x) = 0.27973 0.26243
# Poissons Ratio (y) = 0.27973 0.26243
# Poissons Ratio (z) = 0.34683 0.34683
#
# Static dielectric constant tensor:
#      x y z
#    x 1.627790 0.000000 0.000000 
#    y 0.000000 1.627790 0.000000 
#    z 0.000000 0.000000 1.663160 
# 
# From -- ./inp_files/3900.got.cif
#   From: 2010.05.17/outbox.cif.g08.bks.cpg/sg95_2_cif.got.tgz:3900.got - 2010.06.03 19:46:49.
