data_PCOD9550097
_publ_section_title
;
Structure prediction by ZEFSAII (Michael W. Deem and Ramdas Pophale) SiO2 
 PCOD9550097
Probable space group: P 42 21 2
;
_chemical_formula_sum "Si O2"
_cell_formula_units_Z 58
_cell_length_a 18.638533
_cell_length_b 18.638533
_cell_length_c 7.541379
_cell_angle_alpha 90.000000
_cell_angle_beta 90.000000
_cell_angle_gamma 90.000000
_cell_volume 2619.836697
_symmetry_space_group_name_H-M "P 42 21 2"
_symmetry_group_IT_number 94
_symmetry_cell_setting 'tetragonal'
loop_
_space_group_symop_operation_xyz
x,y,z
1/2-y,1/2+x,1/2+z
-x,-y,z
1/2+y,1/2-x,1/2+z
1/2+x,1/2-y,1/2-z
1/2-x,1/2+y,1/2-z
y,x,-z
-y,-x,-z
loop_
_atom_site_type_symbol
_atom_site_label
_atom_site_fract_x
_atom_site_fract_y
_atom_site_fract_z
Si Si1 0.500000 0.500000 0.500000
Si Si2 0.559154 0.593331 0.194894
Si Si3 0.282207 0.736056 0.291563
Si Si4 0.458122 0.176046 0.784691
Si Si5 0.586815 0.175455 0.312155
Si Si6 0.797065 0.124536 0.161323
Si Si7 0.681465 0.879093 0.231103
Si Si8 0.233473 0.438925 0.826972
O O1 0.508745 0.564536 0.355139
O O2 0.641027 0.577863 0.250383
O O3 0.557595 0.680471 0.190583
O O4 0.556577 0.556577 0.000000
O O5 0.281562 0.718439 0.500000
O O6 0.357283 0.767868 0.228096
O O7 0.231685 0.806136 0.268238
O O8 0.253588 0.662133 0.208007
O O9 0.406616 0.107369 0.765056
O O10 0.430232 0.231198 0.633554
O O11 0.542777 0.164219 0.808018
O O12 0.434414 0.215936 0.964432
O O13 0.600541 0.182883 0.522216
O O14 0.509659 0.198080 0.251665
O O15 0.836946 0.163055 0.000000
O O16 0.625084 0.814498 0.253989
#
# Coordination Sequence:
#
# PCOD9550097 Si02
#       8
#     2   8   8   8   8   8   8   8
#     4  12  30  48  68 114 136 184 242 284 364 428
#     4  12  24  48  74  99 141 185 239 293 344 438
#     4   9  18  39  61  91 126 168 224 290 348 411
#     4  10  23  41  63  99 134 177 237 289 363 428
#     4   9  22  39  59  93 134 175 228 287 358 426
#     4  11  21  37  69  98 125 178 235 281 345 434
#     4  10  21  37  66  93 129 178 235 294 352 423
#     4  11  23  43  68  95 134 188 225 290 367 428
#
# _framework density 22.138784000000001
#
# number of rings (size 3 to 8) (size 9 to 14) (size 15 to 20)
#    0.000    1.655    3.448    1.448    1.931    3.862 
#    6.207    2.759    0.000    0.000    0.000    0.000 
#    0.000    0.000    0.000    0.000    0.000    0.000 
#
# Total GULP energy -323178.743419 kJ/mol
# GULP energy per Si atom -5572.047300 kJ/mol
# Density = 2.208840 g / cm^3
# Si number density = 22.138784 Si / 1000 Ang^3
#
#
#
# Elastic Constant Matrix: (Units=GPa)
#
#
# Indices 1 2 3 4 5 6 
#
# 1 49.6588 81.9145 18.8036 0.0000 0.0000 0.0000
# 2 81.9145 49.6639 18.8032 0.0000 0.0000 0.0000
# 3 18.8036 18.8032 72.0664 0.0000 0.0000 0.0000
# 4 0.0000 0.0000 0.0000 28.1149 0.0000 0.0000
# 5 0.0000 0.0000 0.0000 0.0000 28.1145 0.0000
# 6 0.0000 0.0000 0.0000 0.0000 0.0000 24.6440
#
#
#
# Elastic Compliance Matrix: (Units=1/GPa)
#
#
# Indices 1 2 3 4 5 6 
#
# 1 -0.011397 0.019609 -0.002143 0.000000 0.000000 0.000000
# 2 0.019609 -0.011395 -0.002143 0.000000 0.000000 0.000000
# 3 -0.002143 -0.002143 0.014994 0.000000 0.000000 0.000000
# 4 0.000000 0.000000 0.000000 0.035568 0.000000 0.000000
# 5 0.000000 0.000000 0.000000 0.000000 0.035569 0.000000
# 6 0.000000 0.000000 0.000000 0.000000 0.000000 0.040578
#
#
# Mechanical properties :
#
#
# Convention : Reuss Voigt Hill
#
# Bulk Modulus (GPa) = 43.76698 45.60352 44.68525
# Shear Modulus (GPa) = 61.81437 19.63252 40.72344
#
# Velocity S-wave (km/s) = 5.28979 2.98114 4.29355
# Velocity P-wave (km/s) = 7.55788 5.70028 6.69383
#
# Compressibility (1/GPa) = 0.02284828
#
# Stress axis : x y z
#
# Youngs Moduli (GPa) = -87.74460 -87.75509 66.69201
#
# Poissons Ratio (x) = 1.72076 0.14289
# Poissons Ratio (y) = 1.72055 0.14293
# Poissons Ratio (z) = -0.18800 -0.18807
#
# Static dielectric constant tensor:
#      x y z
#    x 1.839780 0.000000 0.000000 
#    y 0.000000 1.839780 0.000000 
#    z 0.000000 0.000000 1.939130 
# 
# From -- ./inp_files/1732.got.cif
#   From: 2010.05.17/outbox.cif.g08.bks.cpg/sg94_1_cif.got.tgz:1732.got - 2010.06.03 19:43:16.
