data_PCOD9550152
_publ_section_title
;
Structure prediction by ZEFSAII (Michael W. Deem and Ramdas Pophale) SiO2 
 PCOD9550152
Probable space group: P 42 21 2
;
_chemical_formula_sum "Si O2"
_cell_formula_units_Z 54
_cell_length_a 13.587692
_cell_length_b 13.587692
_cell_length_c 12.151335
_cell_angle_alpha 90.000000
_cell_angle_beta 90.000000
_cell_angle_gamma 90.000000
_cell_volume 2243.444768
_symmetry_space_group_name_H-M "P 42 21 2"
_symmetry_group_IT_number 94
_symmetry_cell_setting 'tetragonal'
loop_
_space_group_symop_operation_xyz
x,y,z
1/2-y,1/2+x,1/2+z
-x,-y,z
1/2+y,1/2-x,1/2+z
1/2+x,1/2-y,1/2-z
1/2-x,1/2+y,1/2-z
y,x,-z
-y,-x,-z
loop_
_atom_site_type_symbol
_atom_site_label
_atom_site_fract_x
_atom_site_fract_y
_atom_site_fract_z
Si Si1 0.770553 0.614665 0.287926
Si Si2 0.265934 0.866456 0.709615
Si Si3 0.500000 0.500000 0.000000
Si Si4 0.921533 0.739226 0.658824
Si Si5 0.258024 0.741977 0.500000
Si Si6 0.567901 0.902589 0.499567
Si Si7 0.334096 0.553546 0.832236
Si Si8 0.431314 0.770278 0.360900
O O1 0.677346 0.688515 0.299669
O O2 0.732083 0.524466 0.213322
O O3 0.828099 0.582676 0.398400
O O4 0.856038 0.670163 0.218275
O O5 0.369898 0.826517 0.747776
O O6 0.233388 0.809630 0.601336
O O7 0.259936 0.980222 0.676002
O O8 0.408451 0.501312 0.915838
O O9 0.935036 0.673731 0.550103
O O10 0.851571 0.832910 0.636442
O O11 0.370803 0.757163 0.471922
O O12 0.520681 0.838053 0.399623
O O13 0.500000 0.000000 0.520003
O O14 0.336801 0.557482 0.697755
#
# Coordination Sequence:
#
# PCOD9550152 Si02
#       8
#     8   8   2   8   4   8   8   8
#     4  11  26  46  73 111 147 203 263 317 388 469
#     4  11  24  47  74 107 156 196 259 321 388 476
#     4  12  30  48  80 110 152 214 258 330 416 468
#     4  12  25  47  76 108 154 204 260 326 395 473
#     4  10  21  44  74 108 136 217 240 314 396 459
#     4  12  27  44  75 111 151 202 256 328 407 461
#     4  12  26  49  74 112 153 204 257 328 397 480
#     4  11  24  47  73 105 156 194 262 320 384 478
#
# _framework density 24.070125999999998
#
# number of rings (size 3 to 8) (size 9 to 14) (size 15 to 20)
#    0.000    0.593    5.926    2.222    4.148    2.963 
#    0.000    0.000    0.000    0.000    0.000    0.000 
#    0.000    0.000    0.000    0.000    0.000    0.000 
#
# Total GULP energy -300994.358773 kJ/mol
# GULP energy per Si atom -5573.969607 kJ/mol
# Density = 2.401534 g / cm^3
# Si number density = 24.070126 Si / 1000 Ang^3
#
#
#
# Elastic Constant Matrix: (Units=GPa)
#
#
# Indices 1 2 3 4 5 6 
#
# 1 86.2657 26.9368 23.8596 0.0000 0.0000 0.0000
# 2 26.9368 86.2647 23.8599 0.0000 0.0000 0.0000
# 3 23.8596 23.8599 89.7155 0.0000 0.0000 0.0000
# 4 0.0000 0.0000 0.0000 20.9651 0.0000 0.0000
# 5 0.0000 0.0000 0.0000 0.0000 20.9658 0.0000
# 6 0.0000 0.0000 0.0000 0.0000 0.0000 37.6277
#
#
#
# Elastic Compliance Matrix: (Units=1/GPa)
#
#
# Indices 1 2 3 4 5 6 
#
# 1 0.013402 -0.003453 -0.002646 0.000000 0.000000 0.000000
# 2 -0.003453 0.013402 -0.002646 0.000000 0.000000 0.000000
# 3 -0.002646 -0.002646 0.012554 0.000000 0.000000 0.000000
# 4 0.000000 0.000000 0.000000 0.047698 0.000000 0.000000
# 5 0.000000 0.000000 0.000000 0.000000 0.047697 0.000000
# 6 0.000000 0.000000 0.000000 0.000000 0.000000 0.026576
#
#
# Mechanical properties :
#
#
# Convention : Reuss Voigt Hill
#
# Bulk Modulus (GPa) = 45.72855 45.72871 45.72863
# Shear Modulus (GPa) = 26.86600 28.41769 27.64185
#
# Velocity S-wave (km/s) = 3.34452 3.43974 3.39246
# Velocity P-wave (km/s) = 5.82698 5.90044 5.86382
#
# Compressibility (1/GPa) = 0.02186817
#
# Stress axis : x y z
#
# Youngs Moduli (GPa) = 74.61490 74.61383 79.65760
#
# Poissons Ratio (x) = 0.25765 0.21077
# Poissons Ratio (y) = 0.25765 0.21078
# Poissons Ratio (z) = 0.19742 0.19743
#
# Static dielectric constant tensor:
#      x y z
#    x 2.020720 0.000000 0.000000 
#    y 0.000000 2.020720 0.000000 
#    z 0.000000 0.000000 2.029390 
# 
# From -- ./inp_files/2743.got.cif
#   From: 2010.05.17/outbox.cif.g08.bks.cpg/sg94_2_cif.got.tgz:2743.got - 2010.06.03 19:43:16.
