data_PCOD9550184
_publ_section_title
;
Structure prediction by ZEFSAII (Michael W. Deem and Ramdas Pophale) SiO2 
 PCOD9550184
Probable space group: P 42 21 2
;
_chemical_formula_sum "Si O2"
_cell_formula_units_Z 28
_cell_length_a 10.179156
_cell_length_b 10.179156
_cell_length_c 11.742300
_cell_angle_alpha 90.000000
_cell_angle_beta 90.000000
_cell_angle_gamma 90.000000
_cell_volume 1216.680961
_symmetry_space_group_name_H-M "P 42 21 2"
_symmetry_group_IT_number 94
_symmetry_cell_setting 'tetragonal'
loop_
_space_group_symop_operation_xyz
x,y,z
1/2-y,1/2+x,1/2+z
-x,-y,z
1/2+y,1/2-x,1/2+z
1/2+x,1/2-y,1/2-z
1/2-x,1/2+y,1/2-z
y,x,-z
-y,-x,-z
loop_
_atom_site_type_symbol
_atom_site_label
_atom_site_fract_x
_atom_site_fract_y
_atom_site_fract_z
Si Si1 0.251631 0.251631 0.000000
Si Si2 0.215135 0.140729 0.378108
Si Si3 0.040082 0.771897 0.073355
Si Si4 0.863178 0.173590 0.730389
O O1 0.293375 0.332147 0.890490
O O2 0.265523 0.098950 0.972786
O O3 0.139427 0.139427 0.500000
O O4 0.367106 0.145255 0.419420
O O5 0.219463 0.280323 0.307124
O O6 0.196648 0.015087 0.297963
O O7 0.041893 0.836175 0.198519
O O8 0.118035 0.881966 0.000000
#
# Coordination Sequence:
#
# PCOD9550184 Si02
#       4
#     4   8   8   8
#     4  12  23  38  71 104 138 198 230 304 369 436
#     4   9  21  42  71 102 140 188 244 303 358 444
#     4   9  21  41  66 100 139 182 244 289 368 433
#     4  10  22  41  68 106 141 189 240 302 362 436
#
# _framework density 23.013428000000001
#
# number of rings (size 3 to 8) (size 9 to 14) (size 15 to 20)
#    1.714    0.571    0.000    2.143    0.000    3.429 
#    0.000    3.571   12.571    0.000    0.000    0.000 
#    0.000    0.000    0.000    0.000    0.000    0.000 
#
# Total GULP energy -155967.674791 kJ/mol
# GULP energy per Si atom -5570.274100 kJ/mol
# Density = 2.296105 g / cm^3
# Si number density = 23.013428 Si / 1000 Ang^3
#
#
#
# Elastic Constant Matrix: (Units=GPa)
#
#
# Indices 1 2 3 4 5 6 
#
# 1 103.2090 25.7730 34.2469 0.0000 0.0000 0.0000
# 2 25.7730 103.2105 34.2503 0.0000 0.0000 0.0000
# 3 34.2469 34.2503 153.4885 0.0000 0.0000 0.0000
# 4 0.0000 0.0000 0.0000 21.9959 0.0000 0.0000
# 5 0.0000 0.0000 0.0000 0.0000 21.9956 0.0000
# 6 0.0000 0.0000 0.0000 0.0000 0.0000 18.9992
#
#
#
# Elastic Compliance Matrix: (Units=1/GPa)
#
#
# Indices 1 2 3 4 5 6 
#
# 1 0.010854 -0.002059 -0.001962 0.000000 0.000000 0.000000
# 2 -0.002059 0.010854 -0.001963 0.000000 0.000000 0.000000
# 3 -0.001962 -0.001963 0.007391 0.000000 0.000000 0.000000
# 4 0.000000 0.000000 0.000000 0.045463 0.000000 0.000000
# 5 0.000000 0.000000 0.000000 0.000000 0.045464 0.000000
# 6 0.000000 0.000000 0.000000 0.000000 0.000000 0.052634
#
#
# Mechanical properties :
#
#
# Convention : Reuss Voigt Hill
#
# Bulk Modulus (GPa) = 58.37276 60.93870 59.65573
# Shear Modulus (GPa) = 26.26886 30.30732 28.28809
#
# Velocity S-wave (km/s) = 3.38221 3.63290 3.50980
# Velocity P-wave (km/s) = 6.37748 6.64338 6.51178
#
# Compressibility (1/GPa) = 0.01713128
#
# Stress axis : x y z
#
# Youngs Moduli (GPa) = 92.12791 92.12794 135.30050
#
# Poissons Ratio (x) = 0.18972 0.26551
# Poissons Ratio (y) = 0.18972 0.26555
# Poissons Ratio (z) = 0.18079 0.18082
#
# Static dielectric constant tensor:
#      x y z
#    x 1.897250 0.000000 0.000000 
#    y 0.000000 1.897250 0.000000 
#    z 0.000000 0.000000 1.953190 
# 
# From -- ./inp_files/2150.got.cif
#   From: 2010.05.17/outbox.cif.g08.bks.cpg/sg94_2_cif.got.tgz:2150.got - 2010.06.03 19:43:16.
