data_PCOD9550044
_publ_section_title
;
Structure prediction by ZEFSAII (Michael W. Deem and Ramdas Pophale) SiO2 
 PCOD9550044
Probable space group: P 42 21 2
;
_chemical_formula_sum "Si O2"
_cell_formula_units_Z 58
_cell_length_a 18.421116
_cell_length_b 18.421116
_cell_length_c 9.022367
_cell_angle_alpha 90.000000
_cell_angle_beta 90.000000
_cell_angle_gamma 90.000000
_cell_volume 3061.627594
_symmetry_space_group_name_H-M "P 42 21 2"
_symmetry_group_IT_number 94
_symmetry_cell_setting 'tetragonal'
loop_
_space_group_symop_operation_xyz
x,y,z
1/2-y,1/2+x,1/2+z
-x,-y,z
1/2+y,1/2-x,1/2+z
1/2+x,1/2-y,1/2-z
1/2-x,1/2+y,1/2-z
y,x,-z
-y,-x,-z
loop_
_atom_site_type_symbol
_atom_site_label
_atom_site_fract_x
_atom_site_fract_y
_atom_site_fract_z
Si Si1 0.801482 0.526468 0.861966
Si Si2 0.993240 0.411479 0.623953
Si Si3 0.102356 0.328418 0.155633
Si Si4 0.140925 0.972454 0.523896
Si Si5 0.334106 0.121692 0.194445
Si Si6 0.193573 0.188135 0.823003
Si Si7 0.066118 0.080520 0.742778
Si Si8 0.500000 0.500000 0.500000
O O1 0.800320 0.471412 0.726971
O O2 0.726079 0.524078 0.948156
O O3 0.814188 0.607599 0.807949
O O4 0.871000 0.506524 0.964783
O O5 0.913896 0.391813 0.689143
O O6 0.000000 0.500000 0.615899
O O7 0.056531 0.372517 0.717132
O O8 0.164784 0.275342 0.218782
O O9 0.098726 0.322884 0.977265
O O10 0.107085 0.892916 0.500000
O O11 0.095905 0.008196 0.660526
O O12 0.123118 0.021646 0.381711
O O13 0.258506 0.155684 0.248345
O O14 0.137663 0.123407 0.791624
O O15 0.198787 0.198787 0.000000
O O16 0.014624 0.064733 0.883258
#
# Coordination Sequence:
#
# PCOD9550044 Si02
#       8
#     8   8   8   8   8   8   8   2
#     4  11  23  38  61  93 122 169 204 263 325 375
#     4  11  23  39  63  92 126 160 215 268 319 379
#     4  10  22  37  62  89 120 163 211 257 320 381
#     4  11  22  38  58  89 131 160 212 257 309 378
#     4  10  23  40  61  92 122 164 210 267 313 383
#     4  10  20  38  61  88 125 161 207 255 317 382
#     4  11  20  36  60  93 120 164 207 260 306 369
#     4  12  20  34  64  92 112 158 220 256 308 356
#
# _framework density 18.944172999999999
#
# number of rings (size 3 to 8) (size 9 to 14) (size 15 to 20)
#    0.000    1.379    4.828    1.241    3.862    2.759 
#    0.000    0.000    0.000    0.000    0.000    0.000 
#    0.000    0.000    0.000    0.000    0.000    0.000 
#
# Total GULP energy -323271.950252 kJ/mol
# GULP energy per Si atom -5573.654315 kJ/mol
# Density = 1.890106 g / cm^3
# Si number density = 18.944173 Si / 1000 Ang^3
#
#
#
# Elastic Constant Matrix: (Units=GPa)
#
#
# Indices 1 2 3 4 5 6 
#
# 1 88.1689 45.6931 18.5807 0.0000 0.0000 0.0000
# 2 45.6931 88.1719 18.5799 0.0000 0.0000 0.0000
# 3 18.5807 18.5799 30.4785 0.0000 0.0000 0.0000
# 4 0.0000 0.0000 0.0000 15.7692 0.0000 0.0000
# 5 0.0000 0.0000 0.0000 0.0000 15.7691 0.0000
# 6 0.0000 0.0000 0.0000 0.0000 0.0000 27.7225
#
#
#
# Elastic Compliance Matrix: (Units=1/GPa)
#
#
# Indices 1 2 3 4 5 6 
#
# 1 0.016267 -0.007275 -0.005482 0.000000 0.000000 0.000000
# 2 -0.007275 0.016267 -0.005481 0.000000 0.000000 0.000000
# 3 -0.005482 -0.005481 0.039494 0.000000 0.000000 0.000000
# 4 0.000000 0.000000 0.000000 0.063415 0.000000 0.000000
# 5 0.000000 0.000000 0.000000 0.000000 0.063415 0.000000
# 6 0.000000 0.000000 0.000000 0.000000 0.000000 0.036072
#
#
# Mechanical properties :
#
#
# Convention : Reuss Voigt Hill
#
# Bulk Modulus (GPa) = 28.12880 41.39185 34.76032
# Shear Modulus (GPa) = 17.65186 20.11654 18.88420
#
# Velocity S-wave (km/s) = 3.05582 3.26219 3.16069
# Velocity P-wave (km/s) = 5.22793 6.00716 5.63104
#
# Compressibility (1/GPa) = 0.03555075
#
# Stress axis : x y z
#
# Youngs Moduli (GPa) = 61.47256 61.47575 25.32058
#
# Poissons Ratio (x) = 0.44723 0.13881
# Poissons Ratio (y) = 0.44721 0.13879
# Poissons Ratio (z) = 0.33701 0.33696
#
# Static dielectric constant tensor:
#      x y z
#    x 1.676800 0.000000 0.000000 
#    y 0.000000 1.676790 0.000000 
#    z 0.000000 0.000000 1.659520 
# 
# From -- ./inp_files/1739.got.cif
#   From: 2010.05.17/outbox.cif.g08.bks.cpg/sg94_1_cif.got.tgz:1739.got - 2010.06.03 19:43:16.
