data_PCOD9550113
_publ_section_title
;
Structure prediction by ZEFSAII (Michael W. Deem and Ramdas Pophale) SiO2 
 PCOD9550113
Probable space group: P 42 21 2
;
_chemical_formula_sum "Si O2"
_cell_formula_units_Z 40
_cell_length_a 8.643491
_cell_length_b 8.643491
_cell_length_c 22.829823
_cell_angle_alpha 90.000000
_cell_angle_beta 90.000000
_cell_angle_gamma 90.000000
_cell_volume 1705.614630
_symmetry_space_group_name_H-M "P 42 21 2"
_symmetry_group_IT_number 94
_symmetry_cell_setting 'tetragonal'
loop_
_space_group_symop_operation_xyz
x,y,z
1/2-y,1/2+x,1/2+z
-x,-y,z
1/2+y,1/2-x,1/2+z
1/2+x,1/2-y,1/2-z
1/2-x,1/2+y,1/2-z
y,x,-z
-y,-x,-z
loop_
_atom_site_type_symbol
_atom_site_label
_atom_site_fract_x
_atom_site_fract_y
_atom_site_fract_z
Si Si1 0.661159 0.570562 0.177730
Si Si2 0.318223 0.956070 0.124436
Si Si3 0.601834 0.259700 0.371741
Si Si4 0.816273 0.451690 0.507123
Si Si5 0.779877 0.669814 0.712785
O O1 0.500000 0.500000 0.158266
O O2 0.765331 0.629024 0.124273
O O3 0.753293 0.445185 0.215176
O O4 0.642707 0.707620 0.224085
O O5 0.190909 0.083857 0.141673
O O6 0.500000 0.000000 0.131871
O O7 0.277286 0.814677 0.166717
O O8 0.291341 0.957922 0.053811
O O9 0.504840 0.261611 0.431245
O O10 0.494925 0.213990 0.318402
O O11 0.721476 0.278525 0.500000
O O12 0.000000 0.500000 0.517099
#
# Coordination Sequence:
#
# PCOD9550113 Si02
#       5
#     8   8   8   8   8
#     4  12  25  40  61  89 125 167 210 260 320 386
#     4  10  21  39  64  92 125 163 208 262 321 387
#     4  11  23  42  64  91 127 166 213 265 321 386
#     4   9  19  37  63  92 126 167 212 268 327 387
#     4  12  24  40  62  90 123 164 212 263 322 384
#
# _framework density 23.451955999999999
#
# number of rings (size 3 to 8) (size 9 to 14) (size 15 to 20)
#    0.000    1.200    0.000    7.200    0.000    2.400 
#    0.000    3.000    0.000   17.400    0.000    0.000 
#    0.000    0.000    0.000    0.000    0.000    0.000 
#
# Total GULP energy -222969.077005 kJ/mol
# GULP energy per Si atom -5574.226925 kJ/mol
# Density = 2.339858 g / cm^3
# Si number density = 23.451956 Si / 1000 Ang^3
#
#
#
# Elastic Constant Matrix: (Units=GPa)
#
#
# Indices 1 2 3 4 5 6 
#
# 1 80.9457 15.7845 2.2009 0.0000 0.0000 0.0000
# 2 15.7845 80.9458 2.2010 0.0000 0.0000 0.0000
# 3 2.2009 2.2010 83.3525 0.0000 0.0000 0.0000
# 4 0.0000 0.0000 0.0000 13.1271 0.0000 0.0000
# 5 0.0000 0.0000 0.0000 0.0000 13.1269 0.0000
# 6 0.0000 0.0000 0.0000 0.0000 0.0000 41.9014
#
#
#
# Elastic Compliance Matrix: (Units=1/GPa)
#
#
# Indices 1 2 3 4 5 6 
#
# 1 0.012849 -0.002498 -0.000273 0.000000 0.000000 0.000000
# 2 -0.002498 0.012848 -0.000273 0.000000 0.000000 0.000000
# 3 -0.000273 -0.000273 0.012012 0.000000 0.000000 0.000000
# 4 0.000000 0.000000 0.000000 0.076178 0.000000 0.000000
# 5 0.000000 0.000000 0.000000 0.000000 0.076179 0.000000
# 6 0.000000 0.000000 0.000000 0.000000 0.000000 0.023866
#
#
# Mechanical properties :
#
#
# Convention : Reuss Voigt Hill
#
# Bulk Modulus (GPa) = 31.62619 31.73521 31.68070
# Shear Modulus (GPa) = 21.68622 28.63492 25.16057
#
# Velocity S-wave (km/s) = 3.04420 3.49808 3.27900
# Velocity P-wave (km/s) = 5.08636 5.46597 5.27957
#
# Compressibility (1/GPa) = 0.03161936
#
# Stress axis : x y z
#
# Youngs Moduli (GPa) = 77.83000 77.83012 83.25238
#
# Poissons Ratio (x) = 0.19442 0.02275
# Poissons Ratio (y) = 0.19442 0.02275
# Poissons Ratio (z) = 0.02127 0.02127
#
# Static dielectric constant tensor:
#      x y z
#    x 1.947640 0.000000 0.000000 
#    y 0.000000 1.947640 0.000000 
#    z 0.000000 0.000000 1.841190 
# 
# From -- ./inp_files/4906.got.cif
#   From: 2010.05.17/outbox.cif.g08.bks.cpg/sg94_3_cif.got.tgz:4906.got - 2010.06.03 19:43:16.
