data_PCOD9550452
_publ_section_title
;
Structure prediction by ZEFSAII (Michael W. Deem and Ramdas Pophale) SiO2 
 PCOD9550452
Probable space group: P 43 2 2
;
_chemical_formula_sum "Si O2"
_cell_formula_units_Z 48
_cell_length_a 17.022339
_cell_length_b 17.022339
_cell_length_c 7.161330
_cell_angle_alpha 90.000000
_cell_angle_beta 90.000000
_cell_angle_gamma 90.000000
_cell_volume 2075.067160
_symmetry_space_group_name_H-M "P 43 2 2"
_symmetry_group_IT_number 95
_symmetry_cell_setting 'tetragonal'
loop_
_space_group_symop_operation_xyz
x,y,z
-y,x,3/4+z
-x,-y,1/2+z
y,-x,1/4+z
x,-y,1/2-z
-x,y,-z
y,x,1/4-z
-y,-x,3/4-z
loop_
_atom_site_type_symbol
_atom_site_label
_atom_site_fract_x
_atom_site_fract_y
_atom_site_fract_z
Si Si1 0.542290 0.292492 0.222330
Si Si2 0.382218 0.320269 0.375835
Si Si3 0.352713 0.907509 0.258623
Si Si4 0.693389 0.086914 0.196570
Si Si5 0.787754 0.231398 0.089847
Si Si6 0.118422 0.526260 0.056826
O O1 0.449819 0.303138 0.231178
O O2 0.588022 0.364257 0.133660
O O3 0.581647 0.291661 0.428237
O O4 0.554614 0.206211 0.144609
O O5 0.299452 0.278455 0.344557
O O6 0.330711 0.897341 0.478406
O O7 0.285029 0.866195 0.133965
O O8 0.440963 0.877373 0.208532
O O9 0.353194 0.000000 0.250000
O O10 0.755759 0.159201 0.216786
O O11 0.605251 0.086627 0.288610
O O12 0.725520 0.000000 0.250000
O O13 0.796920 0.203081 0.875000
O O14 0.075735 0.500000 0.250000
#
# Coordination Sequence:
#
# PCOD9550452 Si02
#       6
#     8   8   8   8   8   8
#     4  10  20  34  55  77 114 151 205 254 301 350
#     4  10  20  35  55  77 111 151 204 258 301 346
#     4  10  21  37  56  86 119 155 196 240 309 371
#     4  10  21  37  56  86 120 153 196 252 299 358
#     4  10  20  37  61  81 112 157 201 239 294 373
#     4  10  19  34  57  81 115 154 193 242 296 365
#
# _framework density 23.131779000000002
#
# number of rings (size 3 to 8) (size 9 to 14) (size 15 to 20)
#    0.000    2.000    3.333    0.500    0.000    1.333 
#    0.000    0.000   29.333    0.000    0.000   10.500 
#    0.000    0.000    0.000    0.000    0.000    0.000 
#
# Total GULP energy -267565.094535 kJ/mol
# GULP energy per Si atom -5574.272803 kJ/mol
# Density = 2.307913 g / cm^3
# Si number density = 23.131779 Si / 1000 Ang^3
#
#
#
# Elastic Constant Matrix: (Units=GPa)
#
#
# Indices 1 2 3 4 5 6 
#
# 1 152.9938 78.0438 9.5372 0.0000 0.0000 0.0000
# 2 78.0438 152.9940 9.5376 0.0000 0.0000 0.0000
# 3 9.5372 9.5376 68.3219 0.0000 0.0000 0.0000
# 4 0.0000 0.0000 0.0000 30.4117 0.0000 0.0000
# 5 0.0000 0.0000 0.0000 0.0000 30.4118 0.0000
# 6 0.0000 0.0000 0.0000 0.0000 0.0000 76.5668
#
#
#
# Elastic Compliance Matrix: (Units=1/GPa)
#
#
# Indices 1 2 3 4 5 6 
#
# 1 0.008860 -0.004482 -0.000611 0.000000 0.000000 0.000000
# 2 -0.004482 0.008860 -0.000611 0.000000 0.000000 0.000000
# 3 -0.000611 -0.000611 0.014807 0.000000 0.000000 0.000000
# 4 0.000000 0.000000 0.000000 0.032882 0.000000 0.000000
# 5 0.000000 0.000000 0.000000 0.000000 0.032882 0.000000
# 6 0.000000 0.000000 0.000000 0.000000 0.000000 0.013060
#
#
# Mechanical properties :
#
#
# Convention : Reuss Voigt Hill
#
# Bulk Modulus (GPa) = 47.34904 63.17190 55.26047
# Shear Modulus (GPa) = 38.52046 45.95746 42.23896
#
# Velocity S-wave (km/s) = 4.08519 4.46215 4.27782
# Velocity P-wave (km/s) = 6.53952 7.34279 6.95277
#
# Compressibility (1/GPa) = 0.02111975
#
# Stress axis : x y z
#
# Youngs Moduli (GPa) = 112.86058 112.86064 67.53450
#
# Poissons Ratio (x) = 0.50581 0.04128
# Poissons Ratio (y) = 0.50581 0.04128
# Poissons Ratio (z) = 0.06898 0.06899
#
# Static dielectric constant tensor:
#      x y z
#    x 1.877300 0.000000 0.000000 
#    y 0.000000 1.877300 0.000000 
#    z 0.000000 0.000000 2.054190 
# 
# From -- ./inp_files/2637.got.cif
#   From: 2010.05.17/outbox.cif.g08.bks.cpg/sg95_2_cif.got.tgz:2637.got - 2010.06.03 19:46:49.
