data_PCOD9550497
_publ_section_title
;
Structure prediction by ZEFSAII (Michael W. Deem and Ramdas Pophale) SiO2 
 PCOD9550497
Probable space group: P 43 2 2
;
_chemical_formula_sum "Si O2"
_cell_formula_units_Z 56
_cell_length_a 15.053757
_cell_length_b 15.053757
_cell_length_c 13.879874
_cell_angle_alpha 90.000000
_cell_angle_beta 90.000000
_cell_angle_gamma 90.000000
_cell_volume 3145.395972
_symmetry_space_group_name_H-M "P 43 2 2"
_symmetry_group_IT_number 95
_symmetry_cell_setting 'tetragonal'
loop_
_space_group_symop_operation_xyz
x,y,z
-y,x,3/4+z
-x,-y,1/2+z
y,-x,1/4+z
x,-y,1/2-z
-x,y,-z
y,x,1/4-z
-y,-x,3/4-z
loop_
_atom_site_type_symbol
_atom_site_label
_atom_site_fract_x
_atom_site_fract_y
_atom_site_fract_z
Si Si1 0.025192 0.848233 0.827166
Si Si2 0.066034 0.599989 0.275961
Si Si3 0.105437 0.842870 0.482893
Si Si4 0.201342 0.776048 0.760749
Si Si5 0.694378 0.939334 0.324018
Si Si6 0.893025 0.643425 0.512083
Si Si7 0.412524 0.854398 0.062685
O O1 0.062719 0.937282 0.875000
O O2 0.100752 0.816922 0.752548
O O3 0.927288 0.859912 0.789464
O O4 0.012929 0.770830 0.904333
O O5 0.089280 0.500000 0.250000
O O6 0.080200 0.653925 0.178392
O O7 0.117128 0.627525 0.373469
O O8 0.959568 0.604768 0.293882
O O9 0.135227 0.864774 0.375000
O O10 0.136505 0.744504 0.510568
O O11 0.000000 0.841910 0.500000
O O12 0.221398 0.778603 0.875000
O O13 0.268554 0.845489 0.712758
O O14 0.197226 0.675648 0.722573
O O15 0.635163 0.000000 0.250000
O O16 0.849229 0.581798 0.429695
O O17 0.000000 0.637582 0.500000
O O18 0.500000 0.830831 0.000000
#
# Coordination Sequence:
#
# PCOD9550497 Si02
#       7
#     8   8   8   8   8   8   8
#     4  11  22  33  45  70 108 147 196 230 276 320
#     4  10  21  36  56  76 102 142 193 241 294 355
#     4  11  23  30  45  66 102 153 198 238 281 331
#     4  11  22  35  52  81 116 146 192 244 283 334
#     4  12  21  34  55  77 112 150 186 239 289 342
#     4   9  20  36  48  70 100 131 184 247 291 337
#     4  10  20  37  59  78 105 145 193 244 293 347
#
# _framework density 17.803799000000001
#
# number of rings (size 3 to 8) (size 9 to 14) (size 15 to 20)
#    0.000    1.429    4.286    2.143    8.000    4.000 
#    0.000    0.000    0.000    0.000    0.000    0.000 
#    0.000    1.143    0.000    0.000    0.000    0.000 
#
# Total GULP energy -312199.989262 kJ/mol
# GULP energy per Si atom -5574.999808 kJ/mol
# Density = 1.776328 g / cm^3
# Si number density = 17.803799 Si / 1000 Ang^3
#
#
#
# Elastic Constant Matrix: (Units=GPa)
#
#
# Indices 1 2 3 4 5 6 
#
# 1 68.7847 20.2164 45.4016 0.0000 0.0000 0.0000
# 2 20.2164 68.7843 45.4013 0.0000 0.0000 0.0000
# 3 45.4016 45.4013 139.6184 0.0000 0.0000 0.0000
# 4 0.0000 0.0000 0.0000 12.4552 0.0000 0.0000
# 5 0.0000 0.0000 0.0000 0.0000 12.4505 0.0000
# 6 0.0000 0.0000 0.0000 0.0000 0.0000 7.7654
#
#
#
# Elastic Compliance Matrix: (Units=1/GPa)
#
#
# Indices 1 2 3 4 5 6 
#
# 1 0.018702 -0.001888 -0.005468 0.000000 0.000000 0.000000
# 2 -0.001888 0.018702 -0.005468 0.000000 0.000000 0.000000
# 3 -0.005468 -0.005468 0.010718 0.000000 0.000000 0.000000
# 4 0.000000 0.000000 0.000000 0.080288 0.000000 0.000000
# 5 0.000000 0.000000 0.000000 0.000000 0.080318 0.000000
# 6 0.000000 0.000000 0.000000 0.000000 0.000000 0.128776
#
#
# Mechanical properties :
#
#
# Convention : Reuss Voigt Hill
#
# Bulk Modulus (GPa) = 44.49175 55.46955 49.98065
# Shear Modulus (GPa) = 13.49011 17.61211 15.55111
#
# Velocity S-wave (km/s) = 2.75564 3.14862 2.95866
# Velocity P-wave (km/s) = 5.93035 6.66649 6.30916
#
# Compressibility (1/GPa) = 0.02247608
#
# Stress axis : x y z
#
# Youngs Moduli (GPa) = 53.47049 53.47028 93.29780
#
# Poissons Ratio (x) = 0.10094 0.51012
# Poissons Ratio (y) = 0.10094 0.51012
# Poissons Ratio (z) = 0.29236 0.29236
#
# Static dielectric constant tensor:
#      x y z
#    x 1.620640 0.000000 0.000000 
#    y 0.000000 1.620640 0.000000 
#    z 0.000000 0.000000 1.709600 
# 
# From -- ./inp_files/5006.got.cif
#   From: 2010.05.17/outbox.cif.g08.bks.cpg/sg95_3_cif.got.tgz:5006.got - 2010.06.03 19:46:49.
