data_PCOD9550313
_publ_section_title
;
Structure prediction by ZEFSAII (Michael W. Deem and Ramdas Pophale) SiO2 
 PCOD9550313
Probable space group: P 42 21 2
;
_chemical_formula_sum "Si O2"
_cell_formula_units_Z 48
_cell_length_a 16.101753
_cell_length_b 16.101753
_cell_length_c 7.692422
_cell_angle_alpha 90.000000
_cell_angle_beta 90.000000
_cell_angle_gamma 90.000000
_cell_volume 1994.386941
_symmetry_space_group_name_H-M "P 42 21 2"
_symmetry_group_IT_number 94
_symmetry_cell_setting 'tetragonal'
loop_
_space_group_symop_operation_xyz
x,y,z
1/2-y,1/2+x,1/2+z
-x,-y,z
1/2+y,1/2-x,1/2+z
1/2+x,1/2-y,1/2-z
1/2-x,1/2+y,1/2-z
y,x,-z
-y,-x,-z
loop_
_atom_site_type_symbol
_atom_site_label
_atom_site_fract_x
_atom_site_fract_y
_atom_site_fract_z
Si Si1 0.059994 0.195952 0.713055
Si Si2 0.179716 0.456664 0.404201
Si Si3 0.375651 0.856079 0.411654
Si Si4 0.703863 0.795015 0.364338
Si Si5 0.806462 0.934968 0.707243
Si Si6 0.795438 0.112291 0.628864
O O1 0.132206 0.262438 0.754879
O O2 0.105108 0.108293 0.743608
O O3 0.051785 0.205256 0.503432
O O4 0.984372 0.229523 0.826467
O O5 0.128571 0.423577 0.240767
O O6 0.138281 0.537536 0.487654
O O7 0.182075 0.380374 0.538847
O O8 0.385641 0.765795 0.311154
O O9 0.292635 0.877816 0.525605
O O10 0.775944 0.775944 0.500000
O O11 0.689903 0.711293 0.258653
O O12 0.803355 0.032067 0.749376
O O13 0.871579 0.128422 0.500000
#
# Coordination Sequence:
#
# PCOD9550313 Si02
#       6
#     8   8   8   8   8   8
#     4  11  22  42  71  98 132 184 233 284 351 421
#     4  12  25  43  71 103 141 184 238 292 357 429
#     4  12  25  44  70 103 141 184 242 290 359 428
#     4  12  23  44  69  98 137 180 234 288 344 427
#     4  11  23  44  69 101 135 182 242 292 352 425
#     4  12  25  43  72 103 139 185 241 297 359 429
#
# _framework density 24.067546
#
# number of rings (size 3 to 8) (size 9 to 14) (size 15 to 20)
#    0.000    0.333    8.333    2.000    0.000    0.000 
#    0.000   10.000    0.000    1.000    0.000    0.000 
#    0.000    0.000    0.000    0.000    0.000    0.000 
#
# Total GULP energy -267887.608273 kJ/mol
# GULP energy per Si atom -5580.991839 kJ/mol
# Density = 2.401277 g / cm^3
# Si number density = 24.067546 Si / 1000 Ang^3
#
#
#
# Elastic Constant Matrix: (Units=GPa)
#
#
# Indices 1 2 3 4 5 6 
#
# 1 84.4353 10.3002 3.6039 0.0000 0.0000 0.0000
# 2 10.3002 84.4351 3.6036 0.0000 0.0000 0.0000
# 3 3.6039 3.6036 34.2611 0.0000 0.0000 0.0000
# 4 0.0000 0.0000 0.0000 39.4172 0.0000 0.0000
# 5 0.0000 0.0000 0.0000 0.0000 39.4171 0.0000
# 6 0.0000 0.0000 0.0000 0.0000 0.0000 19.2122
#
#
#
# Elastic Compliance Matrix: (Units=1/GPa)
#
#
# Indices 1 2 3 4 5 6 
#
# 1 0.012065 -0.001424 -0.001119 0.000000 0.000000 0.000000
# 2 -0.001424 0.012065 -0.001119 0.000000 0.000000 0.000000
# 3 -0.001119 -0.001119 0.029423 0.000000 0.000000 0.000000
# 4 0.000000 0.000000 0.000000 0.025370 0.000000 0.000000
# 5 0.000000 0.000000 0.000000 0.000000 0.025370 0.000000
# 6 0.000000 0.000000 0.000000 0.000000 0.000000 0.052050
#
#
# Mechanical properties :
#
#
# Convention : Reuss Voigt Hill
#
# Bulk Modulus (GPa) = 21.63204 26.46080 24.04642
# Shear Modulus (GPa) = 27.92099 31.98423 29.95261
#
# Velocity S-wave (km/s) = 3.40973 3.64941 3.53161
# Velocity P-wave (km/s) = 4.95068 5.36431 5.16164
#
# Compressibility (1/GPa) = 0.04622772
#
# Stress axis : x y z
#
# Youngs Moduli (GPa) = 82.88525 82.88511 33.98696
#
# Poissons Ratio (x) = 0.11803 0.03804
# Poissons Ratio (y) = 0.11803 0.03804
# Poissons Ratio (z) = 0.09278 0.09276
#
# Static dielectric constant tensor:
#      x y z
#    x 1.945170 0.000000 0.000000 
#    y 0.000000 1.945170 0.000000 
#    z 0.000000 0.000000 2.117810 
# 
# From -- ./inp_files/1613.got.cif
#   From: 2010.05.17/outbox.cif.g08.bks.cpg/sg94_1_cif.got.tgz:1613.got - 2010.06.03 19:43:16.
