data_PCOD9550581
_publ_section_title
;
Structure prediction by ZEFSAII (Michael W. Deem and Ramdas Pophale) SiO2 
 PCOD9550581
Probable space group: P 43 2 2
;
_chemical_formula_sum "Si O2"
_cell_formula_units_Z 36
_cell_length_a 8.442449
_cell_length_b 8.442449
_cell_length_c 19.694584
_cell_angle_alpha 90.000000
_cell_angle_beta 90.000000
_cell_angle_gamma 90.000000
_cell_volume 1403.730394
_symmetry_space_group_name_H-M "P 43 2 2"
_symmetry_group_IT_number 95
_symmetry_cell_setting 'tetragonal'
loop_
_space_group_symop_operation_xyz
x,y,z
-y,x,3/4+z
-x,-y,1/2+z
y,-x,1/4+z
x,-y,1/2-z
-x,y,-z
y,x,1/4-z
-y,-x,3/4-z
loop_
_atom_site_type_symbol
_atom_site_label
_atom_site_fract_x
_atom_site_fract_y
_atom_site_fract_z
Si Si1 0.913796 0.164750 0.609637
Si Si2 0.376237 0.284720 0.440231
Si Si3 0.809891 0.289411 0.007221
Si Si4 0.632668 0.632668 0.625000
Si Si5 0.818294 0.586100 0.090776
O O1 0.790564 0.197370 0.548114
O O2 0.828885 0.221289 0.679813
O O3 0.052127 0.282719 0.589017
O O4 0.994735 0.994735 0.625000
O O5 0.500000 0.315996 0.500000
O O6 0.350168 0.446502 0.396214
O O7 0.455752 0.142313 0.396683
O O8 0.783930 0.475783 0.027083
O O9 0.700945 0.271989 0.940501
O O10 0.000000 0.277092 0.000000
O O11 0.666817 0.666817 0.125000
#
# Coordination Sequence:
#
# PCOD9550581 Si02
#       5
#     8   8   8   4   8
#     4  10  25  48  80 114 163 223 268 339 417 500
#     4  11  24  45  78 118 155 209 278 338 408 493
#     4  11  26  47  76 114 159 204 274 337 412 496
#     4  12  26  46  84 114 160 210 284 358 412 512
#     4  10  21  45  73 109 152 203 258 333 401 477
#
# _framework density 25.645952999999999
#
# number of rings (size 3 to 8) (size 9 to 14) (size 15 to 20)
#    0.000    1.333    1.111    2.667    4.667    1.778 
#    8.000    4.444    0.000    0.000    0.000    0.000 
#    0.000    0.000    0.000    0.000    0.000    0.000 
#
# Total GULP energy -200741.080679 kJ/mol
# GULP energy per Si atom -5576.141130 kJ/mol
# Density = 2.558758 g / cm^3
# Si number density = 25.645953 Si / 1000 Ang^3
#
#
#
# Elastic Constant Matrix: (Units=GPa)
#
#
# Indices 1 2 3 4 5 6 
#
# 1 107.1733 42.6952 64.2459 0.0000 0.0000 0.0000
# 2 42.6952 107.1733 64.2459 0.0000 0.0000 0.0000
# 3 64.2459 64.2459 154.9093 0.0000 0.0000 0.0000
# 4 0.0000 0.0000 0.0000 38.0659 0.0000 0.0000
# 5 0.0000 0.0000 0.0000 0.0000 38.0659 0.0000
# 6 0.0000 0.0000 0.0000 0.0000 0.0000 37.7309
#
#
#
# Elastic Compliance Matrix: (Units=1/GPa)
#
#
# Indices 1 2 3 4 5 6 
#
# 1 0.012932 -0.002577 -0.004294 0.000000 0.000000 0.000000
# 2 -0.002577 0.012932 -0.004294 0.000000 0.000000 0.000000
# 3 -0.004294 -0.004294 0.010017 0.000000 0.000000 0.000000
# 4 0.000000 0.000000 0.000000 0.026270 0.000000 0.000000
# 5 0.000000 0.000000 0.000000 0.000000 0.026270 0.000000
# 6 0.000000 0.000000 0.000000 0.000000 0.000000 0.026503
#
#
# Mechanical properties :
#
#
# Convention : Reuss Voigt Hill
#
# Bulk Modulus (GPa) = 73.80705 79.06996 76.43850
# Shear Modulus (GPa) = 35.26772 35.97714 35.62243
#
# Velocity S-wave (km/s) = 3.71236 3.74951 3.73098
# Velocity P-wave (km/s) = 6.87148 7.04581 6.95919
#
# Compressibility (1/GPa) = 0.01354884
#
# Stress axis : x y z
#
# Youngs Moduli (GPa) = 77.32943 77.32943 99.82724
#
# Poissons Ratio (x) = 0.19931 0.42868
# Poissons Ratio (y) = 0.19931 0.42868
# Poissons Ratio (z) = 0.33207 0.33207
#
# Static dielectric constant tensor:
#      x y z
#    x 2.052920 0.000000 0.000000 
#    y 0.000000 2.052920 0.000000 
#    z 0.000000 0.000000 2.213190 
# 
# From -- ./inp_files/6219.got.cif
#   From: 2010.05.17/outbox.cif.g08.bks.cpg/sg95_4_cif.got.tgz:6219.got - 2010.06.03 19:46:49.
