data_PCOD9550861
_publ_section_title
;
Structure prediction by ZEFSAII (Michael W. Deem and Ramdas Pophale) SiO2 
 PCOD9550861
Probable space group: P 43 21 2
;
_chemical_formula_sum "Si O2"
_cell_formula_units_Z 56
_cell_length_a 12.246872
_cell_length_b 12.246872
_cell_length_c 14.017950
_cell_angle_alpha 90.000000
_cell_angle_beta 90.000000
_cell_angle_gamma 90.000000
_cell_volume 2102.494479
_symmetry_space_group_name_H-M "P 43 21 2"
_symmetry_group_IT_number 96
_symmetry_cell_setting 'tetragonal'
loop_
_space_group_symop_operation_xyz
x,y,z
1/2-y,1/2+x,3/4+z
-x,-y,1/2+z
1/2+y,1/2-x,1/4+z
1/2+x,1/2-y,1/4-z
1/2-x,1/2+y,3/4-z
y,x,-z
-y,-x,1/2-z
loop_
_atom_site_type_symbol
_atom_site_label
_atom_site_fract_x
_atom_site_fract_y
_atom_site_fract_z
Si Si1 0.117849 0.709834 0.791410
Si Si2 0.130799 0.155046 0.105718
Si Si3 0.160219 0.398580 0.510335
Si Si4 0.827806 0.228385 0.944560
Si Si5 0.664797 0.413890 0.559312
Si Si6 0.998516 0.783102 0.075921
Si Si7 0.383714 0.110019 0.149692
O O1 0.190071 0.809930 0.750000
O O2 0.212166 0.642317 0.845481
O O3 0.071468 0.641058 0.702478
O O4 0.012698 0.759179 0.840199
O O5 0.061718 0.129772 0.199368
O O6 0.897460 0.300218 0.018011
O O7 0.108742 0.108742 0.000000
O O8 0.254812 0.371761 0.587712
O O9 0.209515 0.449915 0.413802
O O10 0.087809 0.493697 0.558471
O O11 0.086467 0.290424 0.516887
O O12 0.616236 0.435110 0.873327
O O13 0.826203 0.104810 0.976143
O O14 0.702927 0.271914 0.944841
O O15 0.612940 0.247315 0.380735
#
# Coordination Sequence:
#
# PCOD9550861 Si02
#       7
#     8   8   8   8   8   8   8
#     4   9  20  36  64  94 129 171 211 274 334 382
#     4   8  16  35  60  87 126 166 209 269 327 374
#     4  11  20  42  67  95 128 172 224 262 337 403
#     4  10  22  41  64  94 137 169 217 280 328 390
#     4  10  20  42  62  92 135 170 218 267 339 403
#     4  11  24  41  69  97 129 179 222 278 331 411
#     4   9  18  39  63  93 128 170 219 270 327 397
#
# _framework density 26.635031000000001
#
# number of rings (size 3 to 8) (size 9 to 14) (size 15 to 20)
#    0.000    2.571    4.286    0.429    0.000    4.571 
#   10.286    0.000    0.000    0.000    0.000    0.000 
#    0.000    0.000    0.000    0.000    0.000    0.000 
#
# Total GULP energy -313512.183310 kJ/mol
# GULP energy per Si atom -5598.431845 kJ/mol
# Density = 2.657441 g / cm^3
# Si number density = 26.635031 Si / 1000 Ang^3
#
#
#
# Elastic Constant Matrix: (Units=GPa)
#
#
# Indices 1 2 3 4 5 6 
#
# 1 107.9771 3.9947 16.2464 0.0000 0.0000 0.0000
# 2 3.9947 107.9773 16.2464 0.0000 0.0000 0.0000
# 3 16.2464 16.2464 119.7068 0.0000 0.0000 0.0000
# 4 0.0000 0.0000 0.0000 26.6806 0.0000 0.0000
# 5 0.0000 0.0000 0.0000 0.0000 26.6807 0.0000
# 6 0.0000 0.0000 0.0000 0.0000 0.0000 15.7035
#
#
#
# Elastic Compliance Matrix: (Units=1/GPa)
#
#
# Indices 1 2 3 4 5 6 
#
# 1 0.009457 -0.000160 -0.001262 0.000000 0.000000 0.000000
# 2 -0.000160 0.009457 -0.001262 0.000000 0.000000 0.000000
# 3 -0.001262 -0.001262 0.008696 0.000000 0.000000 0.000000
# 4 0.000000 0.000000 0.000000 0.037480 0.000000 0.000000
# 5 0.000000 0.000000 0.000000 0.000000 0.037480 0.000000
# 6 0.000000 0.000000 0.000000 0.000000 0.000000 0.063680
#
#
# Mechanical properties :
#
#
# Convention : Reuss Voigt Hill
#
# Bulk Modulus (GPa) = 44.95780 45.40403 45.18091
# Shear Modulus (GPa) = 27.92791 33.75788 30.84289
#
# Velocity S-wave (km/s) = 3.24163 3.56395 3.40661
# Velocity P-wave (km/s) = 5.56118 5.83262 5.69852
#
# Compressibility (1/GPa) = 0.02224308
#
# Stress axis : x y z
#
# Youngs Moduli (GPa) = 105.74189 105.74204 114.99226
#
# Poissons Ratio (x) = 0.01692 0.14509
# Poissons Ratio (y) = 0.01692 0.14509
# Poissons Ratio (z) = 0.13342 0.13342
#
# Static dielectric constant tensor:
#      x y z
#    x 2.089870 0.000000 0.000000 
#    y 0.000000 2.089870 0.000000 
#    z 0.000000 0.000000 2.164150 
# 
# From -- ./inp_files/3927.got.cif
#   From: 2010.05.17/outbox.cif.g08.bks.cpg/sg96_2_cif.got.tgz:3927.got - 2010.06.03 19:52:08.
