data_PCOD9550502
_publ_section_title
;
Structure prediction by ZEFSAII (Michael W. Deem and Ramdas Pophale) SiO2 
 PCOD9550502
Probable space group: P 43 2 2
;
_chemical_formula_sum "Si O2"
_cell_formula_units_Z 56
_cell_length_a 14.662037
_cell_length_b 14.662037
_cell_length_c 13.521347
_cell_angle_alpha 90.000000
_cell_angle_beta 90.000000
_cell_angle_gamma 90.000000
_cell_volume 2906.756020
_symmetry_space_group_name_H-M "P 43 2 2"
_symmetry_group_IT_number 95
_symmetry_cell_setting 'tetragonal'
loop_
_space_group_symop_operation_xyz
x,y,z
-y,x,3/4+z
-x,-y,1/2+z
y,-x,1/4+z
x,-y,1/2-z
-x,y,-z
y,x,1/4-z
-y,-x,3/4-z
loop_
_atom_site_type_symbol
_atom_site_label
_atom_site_fract_x
_atom_site_fract_y
_atom_site_fract_z
Si Si1 0.727609 0.524069 0.589045
Si Si2 0.231149 0.186443 0.891637
Si Si3 0.212595 0.887147 0.961950
Si Si4 0.105227 0.934146 0.481200
Si Si5 0.359695 0.670184 0.531055
Si Si6 0.024280 0.635768 0.189433
Si Si7 0.443255 0.942676 0.346505
O O1 0.707159 0.585803 0.685905
O O2 0.671302 0.568333 0.498366
O O3 0.691402 0.424952 0.624818
O O4 0.836271 0.534929 0.573209
O O5 0.195893 0.222194 0.787349
O O6 0.146016 0.136409 0.941533
O O7 0.269999 0.269400 0.954654
O O8 0.308358 0.107890 0.890627
O O9 0.149021 0.850980 0.875000
O O10 0.161836 0.973398 0.010889
O O11 0.307335 0.931601 0.928240
O O12 0.111443 0.888558 0.375000
O O13 0.000000 0.955234 0.500000
O O14 0.017399 0.538907 0.136613
O O15 0.048114 0.621866 0.306548
O O16 0.412851 0.000000 0.250000
#
# Coordination Sequence:
#
# PCOD9550502 Si02
#       7
#     8   8   8   8   8   8   8
#     4  10  20  38  61 100 124 157 204 261 322 399
#     4  11  22  38  61  85 125 166 210 263 316 373
#     4  11  26  38  59  84 120 174 224 261 315 376
#     4  11  22  38  52  80 121 167 218 270 307 354
#     4  10  20  37  64  94 124 156 204 260 322 389
#     4  10  23  42  59  92 126 162 219 266 306 395
#     4  11  22  40  67  94 129 166 208 262 334 383
#
# _framework density 19.265464000000001
#
# number of rings (size 3 to 8) (size 9 to 14) (size 15 to 20)
#    0.000    1.429    4.286    1.286    8.000    0.000 
#    0.000    0.000    0.000    0.000   40.857    0.000 
#    0.000    0.000    0.000    0.000    0.000    0.000 
#
# Total GULP energy -312410.264248 kJ/mol
# GULP energy per Si atom -5578.754719 kJ/mol
# Density = 1.922161 g / cm^3
# Si number density = 19.265464 Si / 1000 Ang^3
#
#
#
# Elastic Constant Matrix: (Units=GPa)
#
#
# Indices 1 2 3 4 5 6 
#
# 1 73.3891 32.4334 13.0411 0.0000 0.0000 0.0000
# 2 32.4334 73.3891 13.0417 0.0000 0.0000 0.0000
# 3 13.0411 13.0417 30.2175 0.0000 0.0000 0.0000
# 4 0.0000 0.0000 0.0000 18.5751 0.0000 0.0000
# 5 0.0000 0.0000 0.0000 0.0000 18.5751 0.0000
# 6 0.0000 0.0000 0.0000 0.0000 0.0000 16.9306
#
#
#
# Elastic Compliance Matrix: (Units=1/GPa)
#
#
# Indices 1 2 3 4 5 6 
#
# 1 0.017496 -0.006921 -0.004564 0.000000 0.000000 0.000000
# 2 -0.006921 0.017496 -0.004564 0.000000 0.000000 0.000000
# 3 -0.004564 -0.004564 0.037033 0.000000 0.000000 0.000000
# 4 0.000000 0.000000 0.000000 0.053836 0.000000 0.000000
# 5 0.000000 0.000000 0.000000 0.000000 0.053835 0.000000
# 6 0.000000 0.000000 0.000000 0.000000 0.000000 0.059065
#
#
# Mechanical properties :
#
#
# Convention : Reuss Voigt Hill
#
# Bulk Modulus (GPa) = 25.04592 32.66978 28.85785
# Shear Modulus (GPa) = 17.59534 18.71479 18.15507
#
# Velocity S-wave (km/s) = 3.02538 3.12014 3.07312
# Velocity P-wave (km/s) = 5.02320 5.47493 5.25392
#
# Compressibility (1/GPa) = 0.03992666
#
# Stress axis : x y z
#
# Youngs Moduli (GPa) = 57.15730 57.15692 27.00315
#
# Poissons Ratio (x) = 0.39558 0.12323
# Poissons Ratio (y) = 0.39558 0.12325
# Poissons Ratio (z) = 0.26084 0.26087
#
# Static dielectric constant tensor:
#      x y z
#    x 1.677550 0.000000 0.000000 
#    y 0.000000 1.677550 0.000000 
#    z 0.000000 0.000000 1.626650 
# 
# From -- ./inp_files/3990.got.cif
#   From: 2010.05.17/outbox.cif.g08.bks.cpg/sg95_2_cif.got.tgz:3990.got - 2010.06.03 19:46:49.
