data_PCOD9550633
_publ_section_title
;
Structure prediction by ZEFSAII (Michael W. Deem and Ramdas Pophale) SiO2 
 PCOD9550633
Probable space group: P 43 2 2
;
_chemical_formula_sum "Si O2"
_cell_formula_units_Z 24
_cell_length_a 13.378281
_cell_length_b 13.378281
_cell_length_c 4.830917
_cell_angle_alpha 90.000000
_cell_angle_beta 90.000000
_cell_angle_gamma 90.000000
_cell_volume 864.629807
_symmetry_space_group_name_H-M "P 43 2 2"
_symmetry_group_IT_number 95
_symmetry_cell_setting 'tetragonal'
loop_
_space_group_symop_operation_xyz
x,y,z
-y,x,3/4+z
-x,-y,1/2+z
y,-x,1/4+z
x,-y,1/2-z
-x,y,-z
y,x,1/4-z
-y,-x,3/4-z
loop_
_atom_site_type_symbol
_atom_site_label
_atom_site_fract_x
_atom_site_fract_y
_atom_site_fract_z
Si Si1 0.144433 0.579756 0.025158
Si Si2 0.151806 0.706430 0.488753
Si Si3 0.500000 0.344040 0.000000
Si Si4 0.891145 0.108856 0.375000
O O1 0.098486 0.500000 0.250000
O O2 0.105737 0.676425 0.196055
O O3 0.262862 0.553508 0.049555
O O4 0.137485 0.613874 0.705116
O O5 0.263034 0.736967 0.375000
O O6 0.118695 0.804037 0.647746
O O7 0.582317 0.417684 0.875000
O O8 0.000000 0.116829 0.500000
#
# Coordination Sequence:
#
# PCOD9550633 Si02
#       4
#     8   8   4   4
#     4  10  24  43  71 108 161 223 278 330 391 498
#     4  12  23  47  76 115 157 218 265 329 436 513
#     4  10  24  36  60 104 164 208 274 346 394 444
#     4  12  32  52  88 128 160 194 266 368 460 542
#
# _framework density 27.757542999999998
#
# number of rings (size 3 to 8) (size 9 to 14) (size 15 to 20)
#    1.000    0.000    3.333    2.000    2.333    5.333 
#    0.000    0.000    0.000    4.000    0.000    0.000 
#    0.000    0.000    0.000    0.000    0.000    0.000 
#
# Total GULP energy -133667.010150 kJ/mol
# GULP energy per Si atom -5569.458756 kJ/mol
# Density = 2.769437 g / cm^3
# Si number density = 27.757543 Si / 1000 Ang^3
#
#
#
# Elastic Constant Matrix: (Units=GPa)
#
#
# Indices 1 2 3 4 5 6 
#
# 1 111.4499 29.6102 42.2279 0.0000 0.0000 0.0000
# 2 29.6102 111.4517 42.2285 0.0000 0.0000 0.0000
# 3 42.2279 42.2285 239.0177 0.0000 0.0000 0.0000
# 4 0.0000 0.0000 0.0000 43.2057 0.0000 0.0000
# 5 0.0000 0.0000 0.0000 0.0000 43.2038 0.0000
# 6 0.0000 0.0000 0.0000 0.0000 0.0000 27.8992
#
#
#
# Elastic Compliance Matrix: (Units=1/GPa)
#
#
# Indices 1 2 3 4 5 6 
#
# 1 0.010073 -0.002146 -0.001401 0.000000 0.000000 0.000000
# 2 -0.002146 0.010073 -0.001401 0.000000 0.000000 0.000000
# 3 -0.001401 -0.001401 0.004679 0.000000 0.000000 0.000000
# 4 0.000000 0.000000 0.000000 0.023145 0.000000 0.000000
# 5 0.000000 0.000000 0.000000 0.000000 0.023146 0.000000
# 6 0.000000 0.000000 0.000000 0.000000 0.000000 0.035843
#
#
# Mechanical properties :
#
#
# Convention : Reuss Voigt Hill
#
# Bulk Modulus (GPa) = 66.97185 76.67249 71.82217
# Shear Modulus (GPa) = 41.04058 46.05193 43.54625
#
# Velocity S-wave (km/s) = 3.84935 4.07760 3.96511
# Velocity P-wave (km/s) = 6.62846 7.06054 6.84791
#
# Compressibility (1/GPa) = 0.01493165
#
# Stress axis : x y z
#
# Youngs Moduli (GPa) = 99.27169 99.27318 213.73479
#
# Poissons Ratio (x) = 0.21300 0.29936
# Poissons Ratio (y) = 0.21299 0.29936
# Poissons Ratio (z) = 0.13904 0.13904
#
# Static dielectric constant tensor:
#      x y z
#    x 2.252480 0.000000 0.000000 
#    y 0.000000 2.252480 0.000000 
#    z 0.000000 0.000000 2.286790 
# 
# From -- ./inp_files/417.got.cif
#   From: 2010.05.17/outbox.cif.g08.bks.cpg/sg95_1_cif.got.tgz:417.got - 2010.06.03 19:46:49.
