data_PCOD9550568
_publ_section_title
;
Structure prediction by ZEFSAII (Michael W. Deem and Ramdas Pophale) SiO2 
 PCOD9550568
Probable space group: P 43 2 2
;
_chemical_formula_sum "Si O2"
_cell_formula_units_Z 48
_cell_length_a 8.051789
_cell_length_b 8.051789
_cell_length_c 32.220818
_cell_angle_alpha 90.000000
_cell_angle_beta 90.000000
_cell_angle_gamma 90.000000
_cell_volume 2088.917715
_symmetry_space_group_name_H-M "P 43 2 2"
_symmetry_group_IT_number 95
_symmetry_cell_setting 'tetragonal'
loop_
_space_group_symop_operation_xyz
x,y,z
-y,x,3/4+z
-x,-y,1/2+z
y,-x,1/4+z
x,-y,1/2-z
-x,y,-z
y,x,1/4-z
-y,-x,3/4-z
loop_
_atom_site_type_symbol
_atom_site_label
_atom_site_fract_x
_atom_site_fract_y
_atom_site_fract_z
Si Si1 0.158658 0.613949 0.529499
Si Si2 0.074398 0.074398 0.125000
Si Si3 0.503111 0.387026 0.169713
Si Si4 0.458215 0.027350 0.140570
Si Si5 0.797342 0.367664 0.333996
Si Si6 0.500000 0.417137 0.000000
Si Si7 0.000998 0.885284 0.789658
O O1 0.317294 0.518634 0.512085
O O2 0.188964 0.814262 0.531952
O O3 0.000000 0.593615 0.500000
O O4 0.117525 0.550548 0.575172
O O5 0.271251 0.049522 0.125036
O O6 0.989399 0.009668 0.082805
O O7 0.447544 0.447544 0.125000
O O8 0.518903 0.190688 0.164442
O O9 0.675209 0.482509 0.179110
O O10 0.364101 0.443146 0.203355
O O11 0.566579 0.971982 0.102143
O O12 0.719173 0.280828 0.375000
O O13 0.852940 0.245513 0.297584
O O14 0.034836 0.000000 0.750000
#
# Coordination Sequence:
#
# PCOD9550568 Si02
#       7
#     8   4   8   8   8   4   8
#     4  10  21  41  69 108 138 189 242 303 371 439
#     4  10  22  44  74 104 132 192 234 300 374 434
#     4  11  25  44  69 107 141 190 244 301 371 443
#     4  11  23  43  74 101 143 187 245 301 365 446
#     4  11  25  45  66 100 141 189 237 299 369 438
#     4  12  24  46  72 104 154 184 248 312 372 454
#     4  10  23  44  69 100 144 183 242 300 368 451
#
# _framework density 22.978408999999999
#
# number of rings (size 3 to 8) (size 9 to 14) (size 15 to 20)
#    0.000    1.333    3.333    2.000    7.000    0.000 
#    6.000    0.000    0.000    0.000    0.000    0.000 
#    0.000    0.000    0.000    0.000    0.000    0.000 
#
# Total GULP energy -267750.323976 kJ/mol
# GULP energy per Si atom -5578.131749 kJ/mol
# Density = 2.292611 g / cm^3
# Si number density = 22.978409 Si / 1000 Ang^3
#
#
#
# Elastic Constant Matrix: (Units=GPa)
#
#
# Indices 1 2 3 4 5 6 
#
# 1 97.6294 45.0038 29.1219 0.0000 0.0000 0.0000
# 2 45.0038 97.6297 29.1217 0.0000 0.0000 0.0000
# 3 29.1219 29.1217 104.3665 0.0000 0.0000 0.0000
# 4 0.0000 0.0000 0.0000 21.6090 0.0000 0.0000
# 5 0.0000 0.0000 0.0000 0.0000 21.6103 0.0000
# 6 0.0000 0.0000 0.0000 0.0000 0.0000 6.0831
#
#
#
# Elastic Compliance Matrix: (Units=1/GPa)
#
#
# Indices 1 2 3 4 5 6 
#
# 1 0.013457 -0.005545 -0.002208 0.000000 0.000000 0.000000
# 2 -0.005545 0.013457 -0.002208 0.000000 0.000000 0.000000
# 3 -0.002208 -0.002208 0.010814 0.000000 0.000000 0.000000
# 4 0.000000 0.000000 0.000000 0.046277 0.000000 0.000000
# 5 0.000000 0.000000 0.000000 0.000000 0.046274 0.000000
# 6 0.000000 0.000000 0.000000 0.000000 0.000000 0.164389
#
#
# Mechanical properties :
#
#
# Convention : Reuss Voigt Hill
#
# Bulk Modulus (GPa) = 56.15646 56.23559 56.19603
# Shear Modulus (GPa) = 15.59938 22.95237 19.27587
#
# Velocity S-wave (km/s) = 2.60834 3.16391 2.89947
# Velocity P-wave (km/s) = 5.79337 6.15414 5.97648
#
# Compressibility (1/GPa) = 0.01780739
#
# Stress axis : x y z
#
# Youngs Moduli (GPa) = 74.30877 74.30908 92.47480
#
# Poissons Ratio (x) = 0.41203 0.20417
# Poissons Ratio (y) = 0.41203 0.20417
# Poissons Ratio (z) = 0.16407 0.16406
#
# Static dielectric constant tensor:
#      x y z
#    x 1.997710 0.000000 0.000000 
#    y 0.000000 1.997690 0.000000 
#    z 0.000000 0.000000 1.863160 
# 
# From -- ./inp_files/7992.got.cif
#   From: 2010.05.17/outbox.cif.g08.bks.cpg/sg95_4_cif.got.tgz:7992.got - 2010.06.03 19:46:49.
