data_PCOD9550868
_publ_section_title
;
Structure prediction by ZEFSAII (Michael W. Deem and Ramdas Pophale) SiO2 
 PCOD9550868
Probable space group: P 43 21 2
;
_chemical_formula_sum "Si O2"
_cell_formula_units_Z 24
_cell_length_a 12.732238
_cell_length_b 12.732238
_cell_length_c 5.421043
_cell_angle_alpha 90.000000
_cell_angle_beta 90.000000
_cell_angle_gamma 90.000000
_cell_volume 878.804655
_symmetry_space_group_name_H-M "P 43 21 2"
_symmetry_group_IT_number 96
_symmetry_cell_setting 'tetragonal'
loop_
_space_group_symop_operation_xyz
x,y,z
1/2-y,1/2+x,3/4+z
-x,-y,1/2+z
1/2+y,1/2-x,1/4+z
1/2+x,1/2-y,1/4-z
1/2-x,1/2+y,3/4-z
y,x,-z
-y,-x,1/2-z
loop_
_atom_site_type_symbol
_atom_site_label
_atom_site_fract_x
_atom_site_fract_y
_atom_site_fract_z
Si Si1 0.655972 0.972284 0.714848
Si Si2 0.373384 0.301156 0.744999
Si Si3 0.940418 0.940418 0.000000
Si Si4 0.151226 0.151226 0.000000
O O1 0.565076 0.897523 0.812153
O O2 0.734405 0.902847 0.549190
O O3 0.716444 0.035308 0.936923
O O4 0.300577 0.300577 0.500000
O O5 0.437698 0.410577 0.739878
O O6 0.308905 0.308905 0.000000
O O7 0.898612 0.882350 0.759996
#
# Coordination Sequence:
#
# PCOD9550868 Si02
#       4
#     8   8   4   4
#     4  11  28  56  87 132 185 246 302 381 463 554
#     4  11  23  46  80 121 163 223 287 359 440 531
#     4  10  20  43  80 120 165 216 282 360 443 520
#     4  10  24  51  84 124 169 230 294 360 445 544
#
# _framework density 27.309820999999999
#
# number of rings (size 3 to 8) (size 9 to 14) (size 15 to 20)
#    0.000    1.333    0.000    5.000    0.000    9.333 
#   27.000    0.000    3.667    0.000    0.000    0.000 
#    0.000    0.000    0.000    0.000    0.000    0.000 
#
# Total GULP energy -134295.949313 kJ/mol
# GULP energy per Si atom -5595.664555 kJ/mol
# Density = 2.724766 g / cm^3
# Si number density = 27.309821 Si / 1000 Ang^3
#
#
#
# Elastic Constant Matrix: (Units=GPa)
#
#
# Indices 1 2 3 4 5 6 
#
# 1 174.8526 78.4016 99.5699 0.0000 0.0000 0.0000
# 2 78.4016 174.8526 99.5699 0.0000 0.0000 0.0000
# 3 99.5699 99.5699 251.0340 0.0000 0.0000 0.0000
# 4 0.0000 0.0000 0.0000 47.5280 0.0000 0.0000
# 5 0.0000 0.0000 0.0000 0.0000 47.5280 0.0000
# 6 0.0000 0.0000 0.0000 0.0000 0.0000 50.3397
#
#
#
# Elastic Compliance Matrix: (Units=1/GPa)
#
#
# Indices 1 2 3 4 5 6 
#
# 1 0.008053 -0.002315 -0.002276 0.000000 0.000000 0.000000
# 2 -0.002315 0.008053 -0.002276 0.000000 0.000000 0.000000
# 3 -0.002276 -0.002276 0.005789 0.000000 0.000000 0.000000
# 4 0.000000 0.000000 0.000000 0.021040 0.000000 0.000000
# 5 0.000000 0.000000 0.000000 0.000000 0.021040 0.000000
# 6 0.000000 0.000000 0.000000 0.000000 0.000000 0.019865
#
#
# Mechanical properties :
#
#
# Convention : Reuss Voigt Hill
#
# Bulk Modulus (GPa) = 122.52624 128.42468 125.47546
# Shear Modulus (GPa) = 49.85287 50.62566 50.23927
#
# Velocity S-wave (km/s) = 4.27717 4.31019 4.29371
# Velocity P-wave (km/s) = 8.32796 8.47924 8.40394
#
# Compressibility (1/GPa) = 0.00816152
#
# Stress axis : x y z
#
# Youngs Moduli (GPa) = 124.17534 124.17534 172.73986
#
# Poissons Ratio (x) = 0.28744 0.39316
# Poissons Ratio (y) = 0.28744 0.39316
# Poissons Ratio (z) = 0.28263 0.28263
#
# Static dielectric constant tensor:
#      x y z
#    x 2.186250 0.000000 0.000000 
#    y 0.000000 2.186250 0.000000 
#    z 0.000000 0.000000 2.150080 
# 
# From -- ./inp_files/170.got.cif
#   From: 2010.05.17/outbox.cif.g08.bks.cpg/sg96_1_cif.got.tgz:170.got - 2010.06.03 19:52:08.
