data_PCOD9550541
_publ_section_title
;
Structure prediction by ZEFSAII (Michael W. Deem and Ramdas Pophale) SiO2 
 PCOD9550541
Probable space group: P 43 2 2
;
_chemical_formula_sum "Si O2"
_cell_formula_units_Z 64
_cell_length_a 13.960988
_cell_length_b 13.960988
_cell_length_c 18.782025
_cell_angle_alpha 90.000000
_cell_angle_beta 90.000000
_cell_angle_gamma 90.000000
_cell_volume 3660.789203
_symmetry_space_group_name_H-M "P 43 2 2"
_symmetry_group_IT_number 95
_symmetry_cell_setting 'tetragonal'
loop_
_space_group_symop_operation_xyz
x,y,z
-y,x,3/4+z
-x,-y,1/2+z
y,-x,1/4+z
x,-y,1/2-z
-x,y,-z
y,x,1/4-z
-y,-x,3/4-z
loop_
_atom_site_type_symbol
_atom_site_label
_atom_site_fract_x
_atom_site_fract_y
_atom_site_fract_z
Si Si1 0.211127 0.678638 0.963166
Si Si2 0.762623 0.862469 0.954290
Si Si3 0.659145 0.561190 0.181012
Si Si4 0.110911 0.504285 0.478333
Si Si5 0.955160 0.708721 0.149581
Si Si6 0.957914 0.489942 0.668120
Si Si7 0.569918 0.164866 0.624136
Si Si8 0.963858 0.902723 0.918552
O O1 0.326243 0.678368 0.950539
O O2 0.142521 0.683536 0.893687
O O3 0.188313 0.773459 0.006422
O O4 0.176233 0.588335 0.008366
O O5 0.674922 0.823066 0.908208
O O6 0.849400 0.911385 0.913514
O O7 0.723847 0.927967 0.018212
O O8 0.634004 0.500000 0.250000
O O9 0.573204 0.573204 0.125000
O O10 0.749827 0.503745 0.146979
O O11 0.105630 0.534254 0.395773
O O12 0.148719 0.573669 0.540889
O O13 0.000000 0.482503 0.500000
O O14 0.028457 0.620987 0.146786
O O15 0.999276 0.803460 0.115645
O O16 0.926350 0.500000 0.750000
O O17 0.065754 0.531649 0.660405
O O18 0.014113 0.985888 0.875000
O O19 0.000000 0.906883 0.000000
#
# Coordination Sequence:
#
# PCOD9550541 Si02
#       8
#     8   8   8   8   8   8   8   8
#     4  12  20  31  55  93 125 152 183 237 313 379
#     4  12  23  34  57  86 121 161 195 245 307 372
#     4  12  22  35  57  91 129 155 190 238 312 383
#     4  10  21  34  54  83 123 155 192 242 298 366
#     4  12  21  34  58  91 122 150 191 244 312 376
#     4  11  20  34  56  82 122 153 198 247 300 357
#     4  11  21  35  54  90 124 152 192 247 310 358
#     4  12  24  40  57  83 119 161 204 250 302 367
#
# _framework density 17.482569999999999
#
# number of rings (size 3 to 8) (size 9 to 14) (size 15 to 20)
#    0.000    0.500    8.750    3.000    0.000    0.000 
#    0.000    1.875    0.000    0.750    0.000    2.625 
#    0.000    0.000    0.000    0.000    0.000    0.000 
#
# Total GULP energy -357024.429826 kJ/mol
# GULP energy per Si atom -5578.506716 kJ/mol
# Density = 1.744278 g / cm^3
# Si number density = 17.482570 Si / 1000 Ang^3
#
#
#
# Elastic Constant Matrix: (Units=GPa)
#
#
# Indices 1 2 3 4 5 6 
#
# 1 67.7824 23.0035 37.7921 0.0000 0.0000 0.0000
# 2 23.0035 67.7823 37.7920 0.0000 0.0000 0.0000
# 3 37.7921 37.7920 142.8848 0.0000 0.0000 0.0000
# 4 0.0000 0.0000 0.0000 22.7601 0.0000 0.0000
# 5 0.0000 0.0000 0.0000 0.0000 22.7604 0.0000
# 6 0.0000 0.0000 0.0000 0.0000 0.0000 12.6045
#
#
#
# Elastic Compliance Matrix: (Units=1/GPa)
#
#
# Indices 1 2 3 4 5 6 
#
# 1 0.018229 -0.004103 -0.003736 0.000000 0.000000 0.000000
# 2 -0.004103 0.018229 -0.003736 0.000000 0.000000 0.000000
# 3 -0.003736 -0.003736 0.008975 0.000000 0.000000 0.000000
# 4 0.000000 0.000000 0.000000 0.043937 0.000000 0.000000
# 5 0.000000 0.000000 0.000000 0.000000 0.043936 0.000000
# 6 0.000000 0.000000 0.000000 0.000000 0.000000 0.079337
#
#
# Mechanical properties :
#
#
# Convention : Reuss Voigt Hill
#
# Bulk Modulus (GPa) = 44.88027 52.84719 48.86373
# Shear Modulus (GPa) = 20.55757 23.61581 22.08669
#
# Velocity S-wave (km/s) = 3.43284 3.67934 3.55823
# Velocity P-wave (km/s) = 6.43737 6.95300 6.70015
#
# Compressibility (1/GPa) = 0.02228150
#
# Stress axis : x y z
#
# Youngs Moduli (GPa) = 54.85857 54.85855 111.42094
#
# Poissons Ratio (x) = 0.22510 0.41628
# Poissons Ratio (y) = 0.22510 0.41628
# Poissons Ratio (z) = 0.20496 0.20496
#
# Static dielectric constant tensor:
#      x y z
#    x 1.607100 0.000000 0.000000 
#    y 0.000000 1.607100 0.000000 
#    z 0.000000 0.000000 1.653660 
# 
# From -- ./inp_files/5817.got.cif
#   From: 2010.05.17/outbox.cif.g08.bks.cpg/sg95_3_cif.got.tgz:5817.got - 2010.06.03 19:46:49.
