data_PCOD9550048
_publ_section_title
;
Structure prediction by ZEFSAII (Michael W. Deem and Ramdas Pophale) SiO2 
 PCOD9550048
Probable space group: P 42 21 2
;
_chemical_formula_sum "Si O2"
_cell_formula_units_Z 40
_cell_length_a 14.216284
_cell_length_b 14.216284
_cell_length_c 8.737420
_cell_angle_alpha 90.000000
_cell_angle_beta 90.000000
_cell_angle_gamma 90.000000
_cell_volume 1765.856442
_symmetry_space_group_name_H-M "P 42 21 2"
_symmetry_group_IT_number 94
_symmetry_cell_setting 'tetragonal'
loop_
_space_group_symop_operation_xyz
x,y,z
1/2-y,1/2+x,1/2+z
-x,-y,z
1/2+y,1/2-x,1/2+z
1/2+x,1/2-y,1/2-z
1/2-x,1/2+y,1/2-z
y,x,-z
-y,-x,-z
loop_
_atom_site_type_symbol
_atom_site_label
_atom_site_fract_x
_atom_site_fract_y
_atom_site_fract_z
Si Si1 0.000000 0.000000 0.500000
Si Si2 0.000000 0.500000 0.126206
Si Si3 0.166832 0.002907 0.245649
Si Si4 0.128387 0.449989 0.876191
Si Si5 0.322874 0.854749 0.128470
Si Si6 0.000000 0.000000 0.000000
Si Si7 0.289086 0.190031 0.281483
O O1 0.904970 0.004039 0.392974
O O2 0.064612 0.433597 0.023704
O O3 0.933213 0.439835 0.232195
O O4 0.229760 0.095231 0.267039
O O5 0.250130 0.929691 0.200208
O O6 0.092878 0.001990 0.105622
O O7 0.140601 0.562735 0.870087
O O8 0.205032 0.371360 0.845093
O O9 0.293296 0.765180 0.225216
O O10 0.300273 0.837797 0.948774
#
# Coordination Sequence:
#
# PCOD9550048 Si02
#       7
#     2   4   8   8   8   2   8
#     4  10  24  46  80 102 148 206 240 322 364 470
#     4  10  20  38  64  94 128 178 216 294 344 414
#     4  11  24  49  72 108 148 193 258 299 388 444
#     4  11  22  42  66  99 136 180 232 295 356 429
#     4  11  25  44  70 100 143 188 241 306 361 445
#     4  10  24  46  80 102 148 206 240 322 364 470
#     4  11  25  44  70 100 143 188 241 306 361 445
#
# _framework density 22.651899
#
# number of rings (size 3 to 8) (size 9 to 14) (size 15 to 20)
#    0.000    1.200    2.000    4.800    0.000    6.400 
#    0.000    0.000    0.000    0.000    0.000    0.000 
#    0.000    0.000    0.000    0.000    0.000    0.000 
#
# Total GULP energy -222833.402047 kJ/mol
# GULP energy per Si atom -5570.835051 kJ/mol
# Density = 2.260034 g / cm^3
# Si number density = 22.651899 Si / 1000 Ang^3
#
#
#
# Elastic Constant Matrix: (Units=GPa)
#
#
# Indices 1 2 3 4 5 6 
#
# 1 121.7636 43.5446 22.6592 0.0000 0.0000 0.0000
# 2 43.5446 121.7636 22.6592 0.0000 0.0000 0.0000
# 3 22.6592 22.6592 86.8086 0.0000 0.0000 0.0000
# 4 0.0000 0.0000 0.0000 29.9677 0.0000 0.0000
# 5 0.0000 0.0000 0.0000 0.0000 29.9677 0.0000
# 6 0.0000 0.0000 0.0000 0.0000 0.0000 40.3789
#
#
#
# Elastic Compliance Matrix: (Units=1/GPa)
#
#
# Indices 1 2 3 4 5 6 
#
# 1 0.009650 -0.003135 -0.001701 0.000000 0.000000 0.000000
# 2 -0.003135 0.009650 -0.001701 0.000000 0.000000 0.000000
# 3 -0.001701 -0.001701 0.012407 0.000000 0.000000 0.000000
# 4 0.000000 0.000000 0.000000 0.033369 0.000000 0.000000
# 5 0.000000 0.000000 0.000000 0.000000 0.033369 0.000000
# 6 0.000000 0.000000 0.000000 0.000000 0.000000 0.024765
#
#
# Mechanical properties :
#
#
# Convention : Reuss Voigt Hill
#
# Bulk Modulus (GPa) = 53.66050 56.45129 55.05590
# Shear Modulus (GPa) = 35.08886 36.16106 35.62496
#
# Velocity S-wave (km/s) = 3.94006 3.99981 3.97005
# Velocity P-wave (km/s) = 6.66629 6.80490 6.73595
#
# Compressibility (1/GPa) = 0.01863568
#
# Stress axis : x y z
#
# Youngs Moduli (GPa) = 103.62606 103.62606 80.59676
#
# Poissons Ratio (x) = 0.32482 0.13707
# Poissons Ratio (y) = 0.32482 0.13707
# Poissons Ratio (z) = 0.17624 0.17624
#
# Static dielectric constant tensor:
#      x y z
#    x 1.869350 0.000000 0.000000 
#    y 0.000000 1.869350 0.000000 
#    z 0.000000 0.000000 1.896200 
# 
# From -- ./inp_files/1514.got.cif
#   From: 2010.05.17/outbox.cif.g08.bks.cpg/sg94_1_cif.got.tgz:1514.got - 2010.06.03 19:43:16.
