data_PCOD9550703
_publ_section_title
;
Structure prediction by ZEFSAII (Michael W. Deem and Ramdas Pophale) SiO2 
 PCOD9550703
Probable space group: P 43 21 2
;
_chemical_formula_sum "Si O2"
_cell_formula_units_Z 48
_cell_length_a 16.723378
_cell_length_b 16.723378
_cell_length_c 7.128572
_cell_angle_alpha 90.000000
_cell_angle_beta 90.000000
_cell_angle_gamma 90.000000
_cell_volume 1993.657510
_symmetry_space_group_name_H-M "P 43 21 2"
_symmetry_group_IT_number 96
_symmetry_cell_setting 'tetragonal'
loop_
_space_group_symop_operation_xyz
x,y,z
1/2-y,1/2+x,3/4+z
-x,-y,1/2+z
1/2+y,1/2-x,1/4+z
1/2+x,1/2-y,1/4-z
1/2-x,1/2+y,3/4-z
y,x,-z
-y,-x,1/2-z
loop_
_atom_site_type_symbol
_atom_site_label
_atom_site_fract_x
_atom_site_fract_y
_atom_site_fract_z
Si Si1 0.744212 0.495558 0.586303
Si Si2 0.723685 0.314675 0.470409
Si Si3 0.849307 0.185783 0.470106
Si Si4 0.094999 0.444977 0.061681
Si Si5 0.680789 0.896029 0.749880
Si Si6 0.059400 0.727090 0.409911
O O1 0.721943 0.403962 0.550492
O O2 0.686326 0.554559 0.703173
O O3 0.831741 0.514904 0.671140
O O4 0.758777 0.527802 0.373223
O O5 0.695821 0.304180 0.250000
O O6 0.809011 0.271958 0.508308
O O7 0.659910 0.253910 0.558116
O O8 0.826949 0.173052 0.250000
O O9 0.801515 0.121245 0.596327
O O10 0.116890 0.361926 0.956065
O O11 0.072142 0.515016 0.920637
O O12 0.607380 0.856667 0.865065
O O13 0.719194 0.982499 0.719345
#
# Coordination Sequence:
#
# PCOD9550703 Si02
#       6
#     8   8   8   8   8   8
#     4  10  16  25  41  65 101 131 159 215 269 317
#     4  10  15  24  39  62  99 128 159 202 264 325
#     4   8  16  24  36  58  95 128 153 203 257 322
#     4  11  19  30  48  74 113 141 170 219 277 333
#     4  10  16  25  43  68 105 136 160 211 266 334
#     4   9  16  25  38  63 102 134 157 203 270 325
#
# _framework density 24.076350999999999
#
# number of rings (size 3 to 8) (size 9 to 14) (size 15 to 20)
#    0.000    2.333    5.000    4.000    0.000    0.000 
#    0.000    0.000    0.000    0.000    0.000    1.167 
#   95.000    0.000    0.000    0.000    0.000    0.000 
#
# Total GULP energy -267472.361709 kJ/mol
# GULP energy per Si atom -5572.340869 kJ/mol
# Density = 2.402155 g / cm^3
# Si number density = 24.076351 Si / 1000 Ang^3
#
#
#
# Elastic Constant Matrix: (Units=GPa)
#
#
# Indices 1 2 3 4 5 6 
#
# 1 152.4117 67.0551 23.2339 0.0000 0.0000 0.0000
# 2 67.0551 152.4114 23.2342 0.0000 0.0000 0.0000
# 3 23.2339 23.2342 63.2611 0.0000 0.0000 0.0000
# 4 0.0000 0.0000 0.0000 18.8856 0.0000 0.0000
# 5 0.0000 0.0000 0.0000 0.0000 18.8856 0.0000
# 6 0.0000 0.0000 0.0000 0.0000 0.0000 35.0932
#
#
#
# Elastic Compliance Matrix: (Units=1/GPa)
#
#
# Indices 1 2 3 4 5 6 
#
# 1 0.008328 -0.003387 -0.001815 0.000000 0.000000 0.000000
# 2 -0.003387 0.008328 -0.001815 0.000000 0.000000 0.000000
# 3 -0.001815 -0.001815 0.017140 0.000000 0.000000 0.000000
# 4 0.000000 0.000000 0.000000 0.052950 0.000000 0.000000
# 5 0.000000 0.000000 0.000000 0.000000 0.052951 0.000000
# 6 0.000000 0.000000 0.000000 0.000000 0.000000 0.028496
#
#
# Mechanical properties :
#
#
# Convention : Reuss Voigt Hill
#
# Bulk Modulus (GPa) = 50.59840 66.12562 58.36201
# Shear Modulus (GPa) = 26.48105 31.54359 29.01232
#
# Velocity S-wave (km/s) = 3.32004 3.62352 3.47510
# Velocity P-wave (km/s) = 5.97983 6.71053 6.35569
#
# Compressibility (1/GPa) = 0.01976347
#
# Stress axis : x y z
#
# Youngs Moduli (GPa) = 120.07511 120.07460 58.34171
#
# Poissons Ratio (x) = 0.40674 0.10586
# Poissons Ratio (y) = 0.40675 0.10587
# Poissons Ratio (z) = 0.21788 0.21789
#
# Static dielectric constant tensor:
#      x y z
#    x 1.952670 0.000000 0.000000 
#    y 0.000000 1.952670 0.000000 
#    z 0.000000 0.000000 2.084430 
# 
# From -- ./inp_files/2175.got.cif
#   From: 2010.05.17/outbox.cif.g08.bks.cpg/sg96_2_cif.got.tgz:2175.got - 2010.06.03 19:52:08.
