data_PCOD9550932
_publ_section_title
;
Structure prediction by ZEFSAII (Michael W. Deem and Ramdas Pophale) SiO2 
 PCOD9550932
Probable space group: P 43 21 2
;
_chemical_formula_sum "Si O2"
_cell_formula_units_Z 24
_cell_length_a 12.306564
_cell_length_b 12.306564
_cell_length_c 7.081317
_cell_angle_alpha 90.000000
_cell_angle_beta 90.000000
_cell_angle_gamma 90.000000
_cell_volume 1072.476205
_symmetry_space_group_name_H-M "P 43 21 2"
_symmetry_group_IT_number 96
_symmetry_cell_setting 'tetragonal'
loop_
_space_group_symop_operation_xyz
x,y,z
1/2-y,1/2+x,3/4+z
-x,-y,1/2+z
1/2+y,1/2-x,1/4+z
1/2+x,1/2-y,1/4-z
1/2-x,1/2+y,3/4-z
y,x,-z
-y,-x,1/2-z
loop_
_atom_site_type_symbol
_atom_site_label
_atom_site_fract_x
_atom_site_fract_y
_atom_site_fract_z
Si Si1 0.842059 0.027703 0.019590
Si Si2 0.850792 0.501763 0.005968
Si Si3 0.199715 0.024180 0.930302
O O1 0.907582 0.140627 0.035848
O O2 0.781140 0.985172 0.207394
O O3 0.759107 0.038307 0.848561
O O4 0.936087 0.936087 0.000000
O O5 0.909751 0.429214 0.849283
O O6 0.805038 0.447045 0.197793
O O7 0.111572 0.111572 0.000000
#
# Coordination Sequence:
#
# PCOD9550932 Si02
#       3
#     8   8   8
#     4  10  21  43  79 110 136 174 237 308 362 423
#     4  12  29  46  65  97 152 199 237 286 355 430
#     4  10  21  45  77 109 137 176 239 304 363 425
#
# _framework density 22.378118000000001
#
# number of rings (size 3 to 8) (size 9 to 14) (size 15 to 20)
#    0.000    1.333    3.333    1.000    4.667    2.667 
#    6.000    0.000    0.000    0.000    0.000    0.000 
#    0.000    0.000    0.000    0.000    0.000    0.000 
#
# Total GULP energy -133794.835227 kJ/mol
# GULP energy per Si atom -5574.784801 kJ/mol
# Density = 2.232718 g / cm^3
# Si number density = 22.378118 Si / 1000 Ang^3
#
#
#
# Elastic Constant Matrix: (Units=GPa)
#
#
# Indices 1 2 3 4 5 6 
#
# 1 -24.0481 98.8885 24.8667 0.0000 0.0000 0.0000
# 2 98.8885 -24.0481 24.8667 0.0000 0.0000 0.0000
# 3 24.8667 24.8667 147.7986 0.0000 0.0000 0.0000
# 4 0.0000 0.0000 0.0000 38.1205 0.0000 0.0000
# 5 0.0000 0.0000 0.0000 0.0000 38.1205 0.0000
# 6 0.0000 0.0000 0.0000 0.0000 0.0000 -4.6871
#
#
#
# Elastic Compliance Matrix: (Units=1/GPa)
#
#
# Indices 1 2 3 4 5 6 
#
# 1 0.003455 0.011589 -0.002531 0.000000 0.000000 0.000000
# 2 0.011589 0.003455 -0.002531 0.000000 0.000000 0.000000
# 3 -0.002531 -0.002531 0.007618 0.000000 0.000000 0.000000
# 4 0.000000 0.000000 0.000000 0.026233 0.000000 0.000000
# 5 0.000000 0.000000 0.000000 0.000000 0.026233 0.000000
# 6 0.000000 0.000000 0.000000 0.000000 0.000000 -0.213350
#
#
# Mechanical properties :
#
#
# Convention : Reuss Voigt Hill
#
# Bulk Modulus (GPa) = 36.25705 44.10515 40.18110
# Shear Modulus (GPa) = -33.28492 11.04950 -11.11771
#
# Velocity S-wave (km/s) = -3.86085 2.22449 -2.23135
# Velocity P-wave (km/s) = 1.90727 5.13319 3.36986
#
# Compressibility (1/GPa) = 0.02758084
#
# Stress axis : x y z
#
# Youngs Moduli (GPa) = 289.45868 289.45868 131.27403
#
# Poissons Ratio (x) = -3.35454 0.33226
# Poissons Ratio (y) = -3.35454 0.33226
# Poissons Ratio (z) = 0.73264 0.73264
#
# Static dielectric constant tensor:
#      x y z
#    x 1.836260 0.000000 0.000000 
#    y 0.000000 1.836260 0.000000 
#    z 0.000000 0.000000 1.876610 
# 
# From -- ./inp_files/978.got.cif
#   From: 2010.05.17/outbox.cif.g08.bks.cpg/sg96_1_cif.got.tgz:978.got - 2010.06.03 19:52:08.
