data_PCOD9550260
_publ_section_title
;
Structure prediction by ZEFSAII (Michael W. Deem and Ramdas Pophale) SiO2 
 PCOD9550260
Probable space group: P 42 21 2
;
_chemical_formula_sum "Si O2"
_cell_formula_units_Z 32
_cell_length_a 11.076150
_cell_length_b 11.076150
_cell_length_c 11.871947
_cell_angle_alpha 90.000000
_cell_angle_beta 90.000000
_cell_angle_gamma 90.000000
_cell_volume 1456.463503
_symmetry_space_group_name_H-M "P 42 21 2"
_symmetry_group_IT_number 94
_symmetry_cell_setting 'tetragonal'
loop_
_space_group_symop_operation_xyz
x,y,z
1/2-y,1/2+x,1/2+z
-x,-y,z
1/2+y,1/2-x,1/2+z
1/2+x,1/2-y,1/2-z
1/2-x,1/2+y,1/2-z
y,x,-z
-y,-x,-z
loop_
_atom_site_type_symbol
_atom_site_label
_atom_site_fract_x
_atom_site_fract_y
_atom_site_fract_z
Si Si1 0.374564 0.064717 0.388143
Si Si2 0.057153 0.199632 0.825168
Si Si3 0.184765 0.946881 0.820685
Si Si4 0.609536 0.780617 0.070716
O O1 0.270517 0.049657 0.293753
O O2 0.327914 0.004565 0.502039
O O3 0.500000 0.000000 0.351825
O O4 0.406719 0.204429 0.396860
O O5 0.930279 0.135707 0.847531
O O6 0.108354 0.298920 0.910051
O O7 0.087590 0.150502 0.173354
O O8 0.227548 0.922625 0.692469
O O9 0.678789 0.678789 0.000000
#
# Coordination Sequence:
#
# PCOD9550260 Si02
#       4
#     8   8   8   8
#     4  11  24  43  68 106 144 188 244 293 375 434
#     4  10  23  46  73 100 148 190 236 314 355 434
#     4  10  23  45  75 102 146 192 241 304 370 430
#     4  11  22  43  71 104 146 191 250 301 367 441
#
# _framework density 21.971025999999998
#
# number of rings (size 3 to 8) (size 9 to 14) (size 15 to 20)
#    0.000    1.500    2.500    1.500    3.500    5.000 
#    4.500    7.500    0.000    0.000    0.000    0.000 
#    0.000    0.000    0.000    0.000    0.000    0.000 
#
# Total GULP energy -179164.352429 kJ/mol
# GULP energy per Si atom -5598.886013 kJ/mol
# Density = 2.192102 g / cm^3
# Si number density = 21.971026 Si / 1000 Ang^3
#
#
#
# Elastic Constant Matrix: (Units=GPa)
#
#
# Indices 1 2 3 4 5 6 
#
# 1 126.0273 62.6579 49.4619 0.0000 0.0000 0.0000
# 2 62.6579 126.0273 49.4619 0.0000 0.0000 0.0000
# 3 49.4619 49.4619 92.7420 0.0000 0.0000 0.0000
# 4 0.0000 0.0000 0.0000 36.6682 0.0000 0.0000
# 5 0.0000 0.0000 0.0000 0.0000 36.6682 0.0000
# 6 0.0000 0.0000 0.0000 0.0000 0.0000 29.6882
#
#
#
# Elastic Compliance Matrix: (Units=1/GPa)
#
#
# Indices 1 2 3 4 5 6 
#
# 1 0.011569 -0.004212 -0.003924 0.000000 0.000000 0.000000
# 2 -0.004212 0.011569 -0.003924 0.000000 0.000000 0.000000
# 3 -0.003924 -0.003924 0.014968 0.000000 0.000000 0.000000
# 4 0.000000 0.000000 0.000000 0.027272 0.000000 0.000000
# 5 0.000000 0.000000 0.000000 0.000000 0.027272 0.000000
# 6 0.000000 0.000000 0.000000 0.000000 0.000000 0.033683
#
#
# Mechanical properties :
#
#
# Convention : Reuss Voigt Hill
#
# Bulk Modulus (GPa) = 71.49484 74.21778 72.85631
# Shear Modulus (GPa) = 32.23472 32.81925 32.52699
#
# Velocity S-wave (km/s) = 3.83449 3.86910 3.85183
# Velocity P-wave (km/s) = 7.22603 7.33574 7.28109
#
# Compressibility (1/GPa) = 0.01398702
#
# Stress axis : x y z
#
# Youngs Moduli (GPa) = 86.44016 86.44016 66.81016
#
# Poissons Ratio (x) = 0.36407 0.26214
# Poissons Ratio (y) = 0.36407 0.26214
# Poissons Ratio (z) = 0.33916 0.33916
#
# Static dielectric constant tensor:
#      x y z
#    x 1.778910 0.000000 0.000000 
#    y 0.000000 1.778910 0.000000 
#    z 0.000000 0.000000 1.793670 
# 
# From -- ./inp_files/2261.got.cif
#   From: 2010.05.17/outbox.cif.g08.bks.cpg/sg94_2_cif.got.tgz:2261.got - 2010.06.03 19:43:16.
