data_PCOD9550754
_publ_section_title
;
Structure prediction by ZEFSAII (Michael W. Deem and Ramdas Pophale) SiO2 
 PCOD9550754
Probable space group: P 43 21 2
;
_chemical_formula_sum "Si O2"
_cell_formula_units_Z 48
_cell_length_a 11.388640
_cell_length_b 11.388640
_cell_length_c 16.611153
_cell_angle_alpha 90.000000
_cell_angle_beta 90.000000
_cell_angle_gamma 90.000000
_cell_volume 2154.485166
_symmetry_space_group_name_H-M "P 43 21 2"
_symmetry_group_IT_number 96
_symmetry_cell_setting 'tetragonal'
loop_
_space_group_symop_operation_xyz
x,y,z
1/2-y,1/2+x,3/4+z
-x,-y,1/2+z
1/2+y,1/2-x,1/4+z
1/2+x,1/2-y,1/4-z
1/2-x,1/2+y,3/4-z
y,x,-z
-y,-x,1/2-z
loop_
_atom_site_type_symbol
_atom_site_label
_atom_site_fract_x
_atom_site_fract_y
_atom_site_fract_z
Si Si1 0.025478 0.250438 0.608955
Si Si2 0.195113 0.675339 0.497233
Si Si3 0.954719 0.636591 0.416442
Si Si4 0.682163 0.604092 0.661026
Si Si5 0.936484 0.617109 0.948285
Si Si6 0.770476 0.229525 0.250000
Si Si7 0.018481 0.018481 0.500000
O O1 0.110381 0.222586 0.683855
O O2 0.071328 0.346431 0.542650
O O3 0.009642 0.133672 0.557020
O O4 0.917789 0.315386 0.654412
O O5 0.161975 0.596021 0.576277
O O6 0.238611 0.799025 0.529707
O O7 0.078444 0.692114 0.443050
O O8 0.861868 0.695926 0.477176
O O9 0.979221 0.496992 0.433349
O O10 0.765772 0.491822 0.661329
O O11 0.686012 0.657192 0.574889
O O12 0.547999 0.584516 0.689089
#
# Coordination Sequence:
#
# PCOD9550754 Si02
#       7
#     8   8   8   8   8   4   4
#     4  10  20  36  60  86 111 145 194 241 288 347
#     4  10  20  35  58  87 117 150 192 245 296 348
#     4  10  19  34  57  86 115 146 195 241 285 344
#     4  10  22  38  56  82 116 150 190 243 300 350
#     4  10  19  36  61  84 111 150 196 241 284 349
#     4  10  20  35  56  81 112 156 196 234 290 357
#     4  10  24  39  52  79 116 148 186 242 296 345
#
# _framework density 22.279104
#
# number of rings (size 3 to 8) (size 9 to 14) (size 15 to 20)
#    0.000    2.000    0.000    6.000    0.000    7.333 
#    0.000    6.667    0.000    0.000    0.000    0.000 
#    0.000    0.000    0.000    0.000    0.000    0.000 
#
# Total GULP energy -267463.500646 kJ/mol
# GULP energy per Si atom -5572.156263 kJ/mol
# Density = 2.222840 g / cm^3
# Si number density = 22.279104 Si / 1000 Ang^3
#
#
#
# Elastic Constant Matrix: (Units=GPa)
#
#
# Indices 1 2 3 4 5 6 
#
# 1 -5.7559 30.7525 10.8728 0.0000 0.0000 0.0000
# 2 30.7525 -5.7552 10.8664 0.0000 0.0000 0.0000
# 3 10.8728 10.8664 120.6244 0.0000 0.0000 0.0000
# 4 0.0000 0.0000 0.0000 17.7471 0.0000 0.0000
# 5 0.0000 0.0000 0.0000 0.0000 17.7472 0.0000
# 6 0.0000 0.0000 0.0000 0.0000 0.0000 11.0835
#
#
#
# Elastic Compliance Matrix: (Units=1/GPa)
#
#
# Indices 1 2 3 4 5 6 
#
# 1 0.008007 0.035399 -0.003911 0.000000 0.000000 0.000000
# 2 0.035399 0.008009 -0.003912 0.000000 0.000000 0.000000
# 3 -0.003911 -0.003912 0.008995 0.000000 0.000000 0.000000
# 4 0.000000 0.000000 0.000000 0.056347 0.000000 0.000000
# 5 0.000000 0.000000 0.000000 0.000000 0.056347 0.000000
# 6 0.000000 0.000000 0.000000 0.000000 0.000000 0.090224
#
#
# Mechanical properties :
#
#
# Convention : Reuss Voigt Hill
#
# Bulk Modulus (GPa) = 12.47468 23.78853 18.13161
# Shear Modulus (GPa) = 25.06298 13.09035 19.07666
#
# Velocity S-wave (km/s) = 3.35767 2.42660 2.92936
# Velocity P-wave (km/s) = 4.54350 4.30719 4.42692
#
# Compressibility (1/GPa) = 0.08016237
#
# Stress axis : x y z
#
# Youngs Moduli (GPa) = 124.89837 124.86445 111.17150
#
# Poissons Ratio (x) = -4.42005 0.43474
# Poissons Ratio (y) = -4.42125 0.43493
# Poissons Ratio (z) = 0.48842 0.48850
#
# Static dielectric constant tensor:
#      x y z
#    x 1.898690 0.000000 0.000000 
#    y 0.000000 1.898690 0.000000 
#    z 0.000000 0.000000 1.749630 
# 
# From -- ./inp_files/3177.got.cif
#   From: 2010.05.17/outbox.cif.g08.bks.cpg/sg96_2_cif.got.tgz:3177.got - 2010.06.03 19:52:08.
