data_PCOD9550272
_publ_section_title
;
Structure prediction by ZEFSAII (Michael W. Deem and Ramdas Pophale) SiO2 
 PCOD9550272
Probable space group: P 42 21 2
;
_chemical_formula_sum "Si O2"
_cell_formula_units_Z 48
_cell_length_a 8.716802
_cell_length_b 8.716802
_cell_length_c 30.627363
_cell_angle_alpha 90.000000
_cell_angle_beta 90.000000
_cell_angle_gamma 90.000000
_cell_volume 2327.147808
_symmetry_space_group_name_H-M "P 42 21 2"
_symmetry_group_IT_number 94
_symmetry_cell_setting 'tetragonal'
loop_
_space_group_symop_operation_xyz
x,y,z
1/2-y,1/2+x,1/2+z
-x,-y,z
1/2+y,1/2-x,1/2+z
1/2+x,1/2-y,1/2-z
1/2-x,1/2+y,1/2-z
y,x,-z
-y,-x,-z
loop_
_atom_site_type_symbol
_atom_site_label
_atom_site_fract_x
_atom_site_fract_y
_atom_site_fract_z
Si Si1 0.251805 0.748196 0.000000
Si Si2 0.243264 0.995523 0.179938
Si Si3 0.992578 0.257108 0.325472
Si Si4 0.500000 0.500000 0.245414
Si Si5 0.765037 0.803090 0.948695
Si Si6 0.000000 0.500000 0.532115
Si Si7 0.471536 0.674517 0.076960
Si Si8 0.000000 0.000000 0.892051
O O1 0.090272 0.647505 0.009619
O O2 0.330958 0.723322 0.047022
O O3 0.371471 0.869508 0.189103
O O4 0.142084 0.029460 0.222349
O O5 0.338520 0.145569 0.166067
O O6 0.131340 0.940481 0.141059
O O7 0.046821 0.185150 0.371213
O O8 0.964768 0.139087 0.286890
O O9 0.769724 0.625153 0.934692
O O10 0.592772 0.868012 0.942450
O O11 0.801497 0.801497 0.000000
O O12 0.878531 0.913677 0.922520
O O13 0.500000 0.500000 0.063513
#
# Coordination Sequence:
#
# PCOD9550272 Si02
#       8
#     4   8   8   4   8   4   8   4
#     4  12  27  44  67 102 136 192 227 298 329 404
#     4  10  24  43  66  96 136 168 216 283 347 415
#     4  11  23  41  70  98 127 176 225 268 343 430
#     4  11  22  44  69  97 129 167 216 284 345 408
#     4  12  25  44  64  96 136 183 229 285 337 399
#     4  12  28  40  68  96 132 180 244 278 344 394
#     4  12  22  44  68  92 136 180 233 273 333 404
#     4  11  25  42  63  98 140 177 220 291 345 394
#
# _framework density 20.626104999999999
#
# number of rings (size 3 to 8) (size 9 to 14) (size 15 to 20)
#    0.000    0.667    5.833    1.500    4.667    1.333 
#    0.000    0.000    0.000    0.000    0.000    0.000 
#    0.000    0.000    0.000    0.000    0.000    0.000 
#
# Total GULP energy -267387.254941 kJ/mol
# GULP energy per Si atom -5570.567811 kJ/mol
# Density = 2.057916 g / cm^3
# Si number density = 20.626105 Si / 1000 Ang^3
#
#
#
# Elastic Constant Matrix: (Units=GPa)
#
#
# Indices 1 2 3 4 5 6 
#
# 1 81.9215 20.6278 17.4951 0.0000 0.0000 0.0000
# 2 20.6278 81.9214 17.4950 0.0000 0.0000 0.0000
# 3 17.4951 17.4950 111.1072 0.0000 0.0000 0.0000
# 4 0.0000 0.0000 0.0000 41.2657 0.0000 0.0000
# 5 0.0000 0.0000 0.0000 0.0000 41.2677 0.0000
# 6 0.0000 0.0000 0.0000 0.0000 0.0000 28.2895
#
#
#
# Elastic Compliance Matrix: (Units=1/GPa)
#
#
# Indices 1 2 3 4 5 6 
#
# 1 0.013310 -0.003005 -0.001623 0.000000 0.000000 0.000000
# 2 -0.003005 0.013310 -0.001623 0.000000 0.000000 0.000000
# 3 -0.001623 -0.001623 0.009511 0.000000 0.000000 0.000000
# 4 0.000000 0.000000 0.000000 0.024233 0.000000 0.000000
# 5 0.000000 0.000000 0.000000 0.000000 0.024232 0.000000
# 6 0.000000 0.000000 0.000000 0.000000 0.000000 0.035349
#
#
# Mechanical properties :
#
#
# Convention : Reuss Voigt Hill
#
# Bulk Modulus (GPa) = 42.31753 42.90955 42.61354
# Shear Modulus (GPa) = 35.63215 36.78673 36.20944
#
# Velocity S-wave (km/s) = 4.16086 4.22774 4.19443
# Velocity P-wave (km/s) = 6.60642 6.68434 6.64549
#
# Compressibility (1/GPa) = 0.02363087
#
# Stress axis : x y z
#
# Youngs Moduli (GPa) = 75.13157 75.13148 105.13788
#
# Poissons Ratio (x) = 0.22576 0.17060
# Poissons Ratio (y) = 0.22577 0.17060
# Poissons Ratio (z) = 0.12191 0.12191
#
# Static dielectric constant tensor:
#      x y z
#    x 1.746090 0.000000 0.000000 
#    y 0.000000 1.746080 0.000000 
#    z 0.000000 0.000000 1.696860 
# 
# From -- ./inp_files/5690.got.cif
#   From: 2010.05.17/outbox.cif.g08.bks.cpg/sg94_3_cif.got.tgz:5690.got - 2010.06.03 19:43:16.
