data_PCOD9550776
_publ_section_title
;
Structure prediction by ZEFSAII (Michael W. Deem and Ramdas Pophale) SiO2 
 PCOD9550776
Probable space group: P 43 21 2
;
_chemical_formula_sum "Si O2"
_cell_formula_units_Z 32
_cell_length_a 11.226552
_cell_length_b 11.226552
_cell_length_c 8.608951
_cell_angle_alpha 90.000000
_cell_angle_beta 90.000000
_cell_angle_gamma 90.000000
_cell_volume 1085.033184
_symmetry_space_group_name_H-M "P 43 21 2"
_symmetry_group_IT_number 96
_symmetry_cell_setting 'tetragonal'
loop_
_space_group_symop_operation_xyz
x,y,z
1/2-y,1/2+x,3/4+z
-x,-y,1/2+z
1/2+y,1/2-x,1/4+z
1/2+x,1/2-y,1/4-z
1/2-x,1/2+y,3/4-z
y,x,-z
-y,-x,1/2-z
loop_
_atom_site_type_symbol
_atom_site_label
_atom_site_fract_x
_atom_site_fract_y
_atom_site_fract_z
Si Si1 0.188252 0.915020 0.118401
Si Si2 0.097534 0.413302 0.113537
Si Si3 0.322620 0.513205 0.260567
Si Si4 0.291146 0.669886 0.524359
O O1 0.094212 0.912015 0.963164
O O2 0.189649 0.922050 0.323430
O O3 0.217050 0.056418 0.118369
O O4 0.295821 0.828806 0.066206
O O5 0.188574 0.504806 0.200582
O O6 0.970522 0.410892 0.195467
O O7 0.161405 0.288520 0.148723
O O8 0.378206 0.625738 0.376743
#
# Coordination Sequence:
#
# PCOD9550776 Si02
#       4
#     8   8   8   8
#     4   9  20  35  66 101 134 191 248 300 377 459
#     4  11  24  43  75 111 152 203 257 323 384 459
#     4  10  19  38  70 103 137 196 255 295 380 473
#     4  10  20  39  68 104 142 189 252 310 382 458
#
# _framework density 29.492187000000001
#
# number of rings (size 3 to 8) (size 9 to 14) (size 15 to 20)
#    0.000    2.000    2.500    0.750    7.000    0.000 
#    0.000    5.000    0.000    0.000    0.000    0.000 
#    0.000    0.000    0.000    0.000    0.000    0.000 
#
# Total GULP energy -178603.302669 kJ/mol
# GULP energy per Si atom -5581.353208 kJ/mol
# Density = 2.942506 g / cm^3
# Si number density = 29.492187 Si / 1000 Ang^3
#
#
#
# Elastic Constant Matrix: (Units=GPa)
#
#
# Indices 1 2 3 4 5 6 
#
# 1 228.7103 101.0901 68.6812 0.0000 0.0000 0.0000
# 2 101.0901 228.7103 68.6812 0.0000 0.0000 0.0000
# 3 68.6812 68.6812 124.7144 0.0000 0.0000 0.0000
# 4 0.0000 0.0000 0.0000 41.9185 0.0000 0.0000
# 5 0.0000 0.0000 0.0000 0.0000 41.9185 0.0000
# 6 0.0000 0.0000 0.0000 0.0000 0.0000 59.8358
#
#
#
# Elastic Compliance Matrix: (Units=1/GPa)
#
#
# Indices 1 2 3 4 5 6 
#
# 1 0.005885 -0.001951 -0.002167 0.000000 0.000000 0.000000
# 2 -0.001951 0.005885 -0.002167 0.000000 0.000000 0.000000
# 3 -0.002167 -0.002167 0.010405 0.000000 0.000000 0.000000
# 4 0.000000 0.000000 0.000000 0.023856 0.000000 0.000000
# 5 0.000000 0.000000 0.000000 0.000000 0.023856 0.000000
# 6 0.000000 0.000000 0.000000 0.000000 0.000000 0.016712
#
#
# Mechanical properties :
#
#
# Convention : Reuss Voigt Hill
#
# Bulk Modulus (GPa) = 104.09261 117.67113 110.88187
# Shear Modulus (GPa) = 48.84242 51.64672 50.24457
#
# Velocity S-wave (km/s) = 4.07395 4.18927 4.13202
# Velocity P-wave (km/s) = 7.58295 7.96152 7.77453
#
# Compressibility (1/GPa) = 0.00960683
#
# Stress axis : x y z
#
# Youngs Moduli (GPa) = 169.91808 169.91808 96.10858
#
# Poissons Ratio (x) = 0.33144 0.20825
# Poissons Ratio (y) = 0.33144 0.20825
# Poissons Ratio (z) = 0.36818 0.36818
#
# Static dielectric constant tensor:
#      x y z
#    x 2.226990 0.000000 0.000000 
#    y 0.000000 2.226990 0.000000 
#    z 0.000000 0.000000 2.644290 
# 
# From -- ./inp_files/1143.got.cif
#   From: 2010.05.17/outbox.cif.g08.bks.cpg/sg96_1_cif.got.tgz:1143.got - 2010.06.03 19:52:08.
