data_PCOD9550210
_publ_section_title
;
Structure prediction by ZEFSAII (Michael W. Deem and Ramdas Pophale) SiO2 
 PCOD9550210
Probable space group: P 42 21 2
;
_chemical_formula_sum "Si O2"
_cell_formula_units_Z 36
_cell_length_a 8.739395
_cell_length_b 8.739395
_cell_length_c 21.763514
_cell_angle_alpha 90.000000
_cell_angle_beta 90.000000
_cell_angle_gamma 90.000000
_cell_volume 1662.232452
_symmetry_space_group_name_H-M "P 42 21 2"
_symmetry_group_IT_number 94
_symmetry_cell_setting 'tetragonal'
loop_
_space_group_symop_operation_xyz
x,y,z
1/2-y,1/2+x,1/2+z
-x,-y,z
1/2+y,1/2-x,1/2+z
1/2+x,1/2-y,1/2-z
1/2-x,1/2+y,1/2-z
y,x,-z
-y,-x,-z
loop_
_atom_site_type_symbol
_atom_site_label
_atom_site_fract_x
_atom_site_fract_y
_atom_site_fract_z
Si Si1 0.000000 0.500000 0.460899
Si Si2 0.833473 0.821238 0.336281
Si Si3 0.019285 0.775862 0.546657
Si Si4 0.819928 0.014173 0.221281
Si Si5 0.289588 0.830963 0.630525
O O1 0.958606 0.639499 0.504933
O O2 0.125456 0.573812 0.416521
O O3 0.790699 0.964514 0.292124
O O4 0.747800 0.670944 0.308212
O O5 0.012887 0.777366 0.339929
O O6 0.812834 0.882177 0.406165
O O7 0.101673 0.898328 0.500000
O O8 0.161988 0.741835 0.591783
O O9 0.756401 0.870322 0.184283
O O10 0.000000 0.000000 0.213708
#
# Coordination Sequence:
#
# PCOD9550210 Si02
#       5
#     4   8   8   8   8
#     4  10  22  44  68 102 138 184 228 302 342 414
#     4  12  24  46  70 105 138 190 238 294 361 431
#     4  10  24  42  74 100 135 185 245 287 355 426
#     4  12  26  43  71 104 144 182 237 297 364 428
#     4  11  23  48  67  99 146 188 232 292 360 429
#
# _framework density 21.657619
#
# number of rings (size 3 to 8) (size 9 to 14) (size 15 to 20)
#    0.000    0.889    2.222    4.667    3.111    6.222 
#    4.000    0.000    0.000    0.000    0.000    0.000 
#    0.000    0.000    0.000    0.000    0.000    0.000 
#
# Total GULP energy -200728.805048 kJ/mol
# GULP energy per Si atom -5575.800140 kJ/mol
# Density = 2.160833 g / cm^3
# Si number density = 21.657619 Si / 1000 Ang^3
#
#
#
# Elastic Constant Matrix: (Units=GPa)
#
#
# Indices 1 2 3 4 5 6 
#
# 1 42.0239 30.7108 41.5510 0.0000 0.0000 0.0000
# 2 30.7108 42.0250 41.5518 0.0000 0.0000 0.0000
# 3 41.5510 41.5518 149.2566 0.0000 0.0000 0.0000
# 4 0.0000 0.0000 0.0000 103.6506 0.0000 0.0000
# 5 0.0000 0.0000 0.0000 0.0000 103.6603 0.0000
# 6 0.0000 0.0000 0.0000 0.0000 0.0000 32.9438
#
#
#
# Elastic Compliance Matrix: (Units=1/GPa)
#
#
# Indices 1 2 3 4 5 6 
#
# 1 0.054276 -0.034114 -0.005613 0.000000 0.000000 0.000000
# 2 -0.034114 0.054274 -0.005613 0.000000 0.000000 0.000000
# 3 -0.005613 -0.005613 0.009825 0.000000 0.000000 0.000000
# 4 0.000000 0.000000 0.000000 0.009648 0.000000 0.000000
# 5 0.000000 0.000000 0.000000 0.000000 0.009647 0.000000
# 6 0.000000 0.000000 0.000000 0.000000 0.000000 0.030355
#
#
# Mechanical properties :
#
#
# Convention : Reuss Voigt Hill
#
# Bulk Modulus (GPa) = 36.10553 51.21475 43.66014
# Shear Modulus (GPa) = 18.66124 56.01706 37.33915
#
# Velocity S-wave (km/s) = 2.93857 5.09126 4.15669
# Velocity P-wave (km/s) = 5.31233 7.63283 6.57575
#
# Compressibility (1/GPa) = 0.02769659
#
# Stress axis : x y z
#
# Youngs Moduli (GPa) = 18.42446 18.42488 101.78260
#
# Poissons Ratio (x) = 0.62854 0.57126
# Poissons Ratio (y) = 0.62853 0.57128
# Poissons Ratio (z) = 0.10341 0.10341
#
# Static dielectric constant tensor:
#      x y z
#    x 1.793960 0.000000 0.000000 
#    y 0.000000 1.793960 0.000000 
#    z 0.000000 0.000000 1.855410 
# 
# From -- ./inp_files/4508.got.cif
#   From: 2010.05.17/outbox.cif.g08.bks.cpg/sg94_3_cif.got.tgz:4508.got - 2010.06.03 19:43:16.
