data_PCOD9550731
_publ_section_title
;
Structure prediction by ZEFSAII (Michael W. Deem and Ramdas Pophale) SiO2 
 PCOD9550731
Probable space group: P 43 21 2
;
_chemical_formula_sum "Si O2"
_cell_formula_units_Z 64
_cell_length_a 10.124024
_cell_length_b 10.124024
_cell_length_c 26.166891
_cell_angle_alpha 90.000000
_cell_angle_beta 90.000000
_cell_angle_gamma 90.000000
_cell_volume 2681.998048
_symmetry_space_group_name_H-M "P 43 21 2"
_symmetry_group_IT_number 96
_symmetry_cell_setting 'tetragonal'
loop_
_space_group_symop_operation_xyz
x,y,z
1/2-y,1/2+x,3/4+z
-x,-y,1/2+z
1/2+y,1/2-x,1/4+z
1/2+x,1/2-y,1/4-z
1/2-x,1/2+y,3/4-z
y,x,-z
-y,-x,1/2-z
loop_
_atom_site_type_symbol
_atom_site_label
_atom_site_fract_x
_atom_site_fract_y
_atom_site_fract_z
Si Si1 0.485974 0.661243 0.084962
Si Si2 0.390878 0.099635 0.132852
Si Si3 0.439205 0.029038 0.020251
Si Si4 0.239861 0.101658 0.227767
Si Si5 0.398956 0.237098 0.761161
Si Si6 0.160881 0.452966 0.077236
Si Si7 0.601237 0.606760 0.358472
Si Si8 0.788749 0.249014 0.595310
O O1 0.467149 0.515717 0.111133
O O2 0.369494 0.766452 0.102083
O O3 0.624824 0.717064 0.105539
O O4 0.473892 0.663348 0.022922
O O5 0.377396 0.069329 0.073732
O O6 0.268525 0.061026 0.169297
O O7 0.517126 0.018919 0.151001
O O8 0.446377 0.249703 0.142853
O O9 0.600767 0.019687 0.017580
O O10 0.403230 0.141456 0.979461
O O11 0.388381 0.889233 0.000074
O O12 0.189760 0.250977 0.223494
O O13 0.442927 0.346732 0.802048
O O14 0.374576 0.297058 0.704403
O O15 0.255456 0.368618 0.111915
O O16 0.222381 0.597101 0.080252
#
# Coordination Sequence:
#
# PCOD9550731 Si02
#       8
#     8   8   8   8   8   8   8   8
#     4  10  20  36  59  87 124 161 203 254 309 375
#     4  10  19  34  57  88 114 157 202 249 302 370
#     4  10  18  33  64  86 114 160 205 248 301 374
#     4   9  20  35  58  92 123 153 207 259 308 366
#     4   9  18  35  58  89 120 161 200 259 306 365
#     4   9  18  34  54  86 109 149 204 243 300 364
#     4  10  20  34  56  84 121 158 199 248 311 365
#     4   9  19  35  60  87 117 165 202 252 311 365
#
# _framework density 23.862807
#
# number of rings (size 3 to 8) (size 9 to 14) (size 15 to 20)
#    0.000    2.500    1.250    1.500    1.750    1.000 
#    0.000    3.750    5.500    7.500    0.000    0.000 
#    0.000    0.000    0.000    0.000    0.000    0.000 
#
# Total GULP energy -356439.062809 kJ/mol
# GULP energy per Si atom -5569.360356 kJ/mol
# Density = 2.380849 g / cm^3
# Si number density = 23.862807 Si / 1000 Ang^3
#
#
#
# Elastic Constant Matrix: (Units=GPa)
#
#
# Indices 1 2 3 4 5 6 
#
# 1 52.0275 19.0225 18.2015 0.0000 0.0000 0.0000
# 2 19.0225 52.0275 18.2015 0.0000 0.0000 0.0000
# 3 18.2015 18.2015 127.1495 0.0000 0.0000 0.0000
# 4 0.0000 0.0000 0.0000 28.7466 0.0000 0.0000
# 5 0.0000 0.0000 0.0000 0.0000 28.7466 0.0000
# 6 0.0000 0.0000 0.0000 0.0000 0.0000 14.1431
#
#
#
# Elastic Compliance Matrix: (Units=1/GPa)
#
#
# Indices 1 2 3 4 5 6 
#
# 1 0.022744 -0.007555 -0.002174 0.000000 0.000000 0.000000
# 2 -0.007555 0.022744 -0.002174 0.000000 0.000000 0.000000
# 3 -0.002174 -0.002174 0.008487 0.000000 0.000000 0.000000
# 4 0.000000 0.000000 0.000000 0.034787 0.000000 0.000000
# 5 0.000000 0.000000 0.000000 0.000000 0.034787 0.000000
# 6 0.000000 0.000000 0.000000 0.000000 0.000000 0.070706
#
#
# Mechanical properties :
#
#
# Convention : Reuss Voigt Hill
#
# Bulk Modulus (GPa) = 33.14833 38.00616 35.57725
# Shear Modulus (GPa) = 21.91864 26.04587 23.98225
#
# Velocity S-wave (km/s) = 3.03401 3.30735 3.17362
# Velocity P-wave (km/s) = 5.11810 5.52686 5.32641
#
# Compressibility (1/GPa) = 0.03016743
#
# Stress axis : x y z
#
# Youngs Moduli (GPa) = 43.96853 43.96853 117.82379
#
# Poissons Ratio (x) = 0.33218 0.25618
# Poissons Ratio (y) = 0.33218 0.25618
# Poissons Ratio (z) = 0.09560 0.09560
#
# Static dielectric constant tensor:
#      x y z
#    x 1.954830 0.000000 0.000000 
#    y 0.000000 1.954830 0.000000 
#    z 0.000000 0.000000 2.004340 
# 
# From -- ./inp_files/4221.got.cif
#   From: 2010.05.17/outbox.cif.g08.bks.cpg/sg96_3_cif.got.tgz:4221.got - 2010.06.03 19:52:08.
