data_PCOD9550963
_publ_section_title
;
Structure prediction by ZEFSAII (Michael W. Deem and Ramdas Pophale) SiO2 
 PCOD9550963
Probable space group: P 43 21 2
;
_chemical_formula_sum "Si O2"
_cell_formula_units_Z 60
_cell_length_a 11.462927
_cell_length_b 11.462927
_cell_length_c 19.195355
_cell_angle_alpha 90.000000
_cell_angle_beta 90.000000
_cell_angle_gamma 90.000000
_cell_volume 2522.244605
_symmetry_space_group_name_H-M "P 43 21 2"
_symmetry_group_IT_number 96
_symmetry_cell_setting 'tetragonal'
loop_
_space_group_symop_operation_xyz
x,y,z
1/2-y,1/2+x,3/4+z
-x,-y,1/2+z
1/2+y,1/2-x,1/4+z
1/2+x,1/2-y,1/4-z
1/2-x,1/2+y,3/4-z
y,x,-z
-y,-x,1/2-z
loop_
_atom_site_type_symbol
_atom_site_label
_atom_site_fract_x
_atom_site_fract_y
_atom_site_fract_z
Si Si1 0.548397 0.021643 0.298633
Si Si2 0.476916 0.573857 0.673935
Si Si3 0.053845 0.157405 0.330901
Si Si4 0.340749 0.340749 0.000000
Si Si5 0.006762 0.733523 0.363373
Si Si6 0.991288 0.725708 0.206188
Si Si7 0.249353 0.230044 0.576452
Si Si8 0.111966 0.334498 0.084290
O O1 0.564657 0.141640 0.341058
O O2 0.411288 0.002342 0.308173
O O3 0.573801 0.061416 0.219235
O O4 0.621051 0.920768 0.338067
O O5 0.481677 0.518324 0.750000
O O6 0.587423 0.537595 0.628425
O O7 0.361809 0.516038 0.641335
O O8 0.456980 0.713406 0.678378
O O9 0.171928 0.082687 0.327544
O O10 0.115850 0.259957 0.374119
O O11 0.982993 0.172488 0.258481
O O12 0.246443 0.309657 0.061069
O O13 0.146085 0.702332 0.357818
O O14 0.956998 0.729739 0.286476
O O15 0.121034 0.766937 0.192695
O O16 0.196611 0.196611 0.500000
#
# Coordination Sequence:
#
# PCOD9550963 Si02
#       8
#     8   8   8   4   8   8   8   8
#     4  12  23  43  72 103 141 201 254 313 384 464
#     4  12  24  42  70 101 145 195 245 311 390 474
#     4  12  24  42  71 106 141 197 246 316 398 463
#     4  12  26  48  68 104 156 190 250 314 388 480
#     4  11  21  41  67  98 139 187 244 309 381 449
#     4  11  23  41  69 102 140 186 254 311 379 458
#     4  10  22  41  66 100 141 181 245 323 373 455
#     4  12  26  48  73 107 157 204 261 323 395 483
#
# _framework density 23.788333999999999
#
# number of rings (size 3 to 8) (size 9 to 14) (size 15 to 20)
#    0.000    0.533    6.000    2.800    0.933    0.000 
#    0.000    0.000    2.933    0.000    0.000    0.000 
#    0.000    0.000    0.000    0.000    0.000    0.000 
#
# Total GULP energy -334257.541327 kJ/mol
# GULP energy per Si atom -5570.959022 kJ/mol
# Density = 2.373419 g / cm^3
# Si number density = 23.788334 Si / 1000 Ang^3
#
#
#
# Elastic Constant Matrix: (Units=GPa)
#
#
# Indices 1 2 3 4 5 6 
#
# 1 41.3149 80.4860 17.9478 0.0000 0.0000 0.0000
# 2 80.4860 41.3146 17.9462 0.0000 0.0000 0.0000
# 3 17.9478 17.9462 68.0828 0.0000 0.0000 0.0000
# 4 0.0000 0.0000 0.0000 29.1633 0.0000 0.0000
# 5 0.0000 0.0000 0.0000 0.0000 29.1634 0.0000
# 6 0.0000 0.0000 0.0000 0.0000 0.0000 32.9617
#
#
#
# Elastic Compliance Matrix: (Units=1/GPa)
#
#
# Indices 1 2 3 4 5 6 
#
# 1 -0.008314 0.017215 -0.002346 0.000000 0.000000 0.000000
# 2 0.017215 -0.008314 -0.002347 0.000000 0.000000 0.000000
# 3 -0.002346 -0.002347 0.015925 0.000000 0.000000 0.000000
# 4 0.000000 0.000000 0.000000 0.034290 0.000000 0.000000
# 5 0.000000 0.000000 0.000000 0.000000 0.034290 0.000000
# 6 0.000000 0.000000 0.000000 0.000000 0.000000 0.030338
#
#
# Mechanical properties :
#
#
# Convention : Reuss Voigt Hill
#
# Bulk Modulus (GPa) = 41.08074 42.60803 41.84439
# Shear Modulus (GPa) = 61.51207 20.54651 41.02929
#
# Velocity S-wave (km/s) = 5.09060 2.94210 4.15753
# Velocity P-wave (km/s) = 7.20132 5.43061 6.37772
#
# Compressibility (1/GPa) = 0.02434231
#
# Stress axis : x y z
#
# Youngs Moduli (GPa) = -120.28308 -120.28509 62.79389
#
# Poissons Ratio (x) = 2.07074 0.14733
# Poissons Ratio (y) = 2.07071 0.14737
# Poissons Ratio (z) = -0.28221 -0.28229
#
# Static dielectric constant tensor:
#      x y z
#    x 1.887630 0.000000 0.000000 
#    y 0.000000 1.887630 0.000000 
#    z 0.000000 0.000000 2.305350 
# 
# From -- ./inp_files/3622.got.cif
#   From: 2010.05.17/outbox.cif.g08.bks.cpg/sg96_2_cif.got.tgz:3622.got - 2010.06.03 19:52:08.
