data_PCOD9550347
_publ_section_title
;
Structure prediction by ZEFSAII (Michael W. Deem and Ramdas Pophale) SiO2 
 PCOD9550347
Probable space group: P 42 21 2
;
_chemical_formula_sum "Si O2"
_cell_formula_units_Z 48
_cell_length_a 9.027536
_cell_length_b 9.027536
_cell_length_c 27.317087
_cell_angle_alpha 90.000000
_cell_angle_beta 90.000000
_cell_angle_gamma 90.000000
_cell_volume 2226.244419
_symmetry_space_group_name_H-M "P 42 21 2"
_symmetry_group_IT_number 94
_symmetry_cell_setting 'tetragonal'
loop_
_space_group_symop_operation_xyz
x,y,z
1/2-y,1/2+x,1/2+z
-x,-y,z
1/2+y,1/2-x,1/2+z
1/2+x,1/2-y,1/2-z
1/2-x,1/2+y,1/2-z
y,x,-z
-y,-x,-z
loop_
_atom_site_type_symbol
_atom_site_label
_atom_site_fract_x
_atom_site_fract_y
_atom_site_fract_z
Si Si1 0.988235 0.179841 0.785380
Si Si2 0.353639 0.792371 0.616794
Si Si3 0.783586 0.347205 0.190027
Si Si4 0.343122 0.570954 0.902692
Si Si5 0.864215 0.198910 0.945893
Si Si6 0.338841 0.018449 0.887215
O O1 0.819913 0.229715 0.791625
O O2 0.076666 0.250584 0.830870
O O3 0.048016 0.241935 0.734371
O O4 0.000000 0.000000 0.786969
O O5 0.481230 0.757236 0.576554
O O6 0.213105 0.685000 0.610935
O O7 0.283060 0.953518 0.612807
O O8 0.673863 0.374815 0.144507
O O9 0.946980 0.355258 0.166487
O O10 0.500000 0.500000 0.917953
O O11 0.259756 0.672504 0.942294
O O12 0.795592 0.072658 0.911126
O O13 0.867104 0.132897 0.000000
O O14 0.500000 0.000000 0.911706
#
# Coordination Sequence:
#
# PCOD9550347 Si02
#       6
#     8   8   8   8   8   8
#     4  12  25  43  64 102 141 188 246 298 349 419
#     4  12  23  45  73  99 141 184 235 298 356 429
#     4  11  26  42  65  97 140 192 239 292 347 427
#     4  11  25  46  69 102 145 184 231 298 370 431
#     4  11  25  47  72 102 135 179 239 298 367 446
#     4  11  24  44  66 101 139 180 230 294 357 424
#
# _framework density 21.560974000000002
#
# number of rings (size 3 to 8) (size 9 to 14) (size 15 to 20)
#    0.000    0.667    5.000    3.500    7.000    3.000 
#    0.000    1.667    0.000    0.000    0.000    0.000 
#    0.000    0.000    0.000    0.000    0.000    0.000 
#
# Total GULP energy -268420.397621 kJ/mol
# GULP energy per Si atom -5592.091617 kJ/mol
# Density = 2.151190 g / cm^3
# Si number density = 21.560974 Si / 1000 Ang^3
#
#
#
# Elastic Constant Matrix: (Units=GPa)
#
#
# Indices 1 2 3 4 5 6 
#
# 1 66.1480 9.5338 16.6994 0.0000 0.0000 0.0000
# 2 9.5338 66.1479 16.6994 0.0000 0.0000 0.0000
# 3 16.6994 16.6994 100.5501 0.0000 0.0000 0.0000
# 4 0.0000 0.0000 0.0000 5.9284 0.0000 0.0000
# 5 0.0000 0.0000 0.0000 0.0000 5.9293 0.0000
# 6 0.0000 0.0000 0.0000 0.0000 0.0000 36.7533
#
#
#
# Elastic Compliance Matrix: (Units=1/GPa)
#
#
# Indices 1 2 3 4 5 6 
#
# 1 0.015961 -0.001703 -0.002368 0.000000 0.000000 0.000000
# 2 -0.001703 0.015961 -0.002368 0.000000 0.000000 0.000000
# 3 -0.002368 -0.002368 0.010732 0.000000 0.000000 0.000000
# 4 0.000000 0.000000 0.000000 0.168679 0.000000 0.000000
# 5 0.000000 0.000000 0.000000 0.000000 0.168655 0.000000
# 6 0.000000 0.000000 0.000000 0.000000 0.000000 0.027208
#
#
# Mechanical properties :
#
#
# Convention : Reuss Voigt Hill
#
# Bulk Modulus (GPa) = 33.58377 35.41235 34.49806
# Shear Modulus (GPa) = 11.62793 22.38309 17.00551
#
# Velocity S-wave (km/s) = 2.32481 3.22550 2.81146
# Velocity P-wave (km/s) = 4.77664 5.50742 5.15500
#
# Compressibility (1/GPa) = 0.02977629
#
# Stress axis : x y z
#
# Youngs Moduli (GPa) = 62.65338 62.65334 93.18055
#
# Poissons Ratio (x) = 0.10667 0.22065
# Poissons Ratio (y) = 0.10667 0.22065
# Poissons Ratio (z) = 0.14836 0.14836
#
# Static dielectric constant tensor:
#      x y z
#    x 1.818850 0.000000 0.000000 
#    y 0.000000 1.818850 0.000000 
#    z 0.000000 0.000000 1.771080 
# 
# From -- ./inp_files/5576.got.cif
#   From: 2010.05.17/outbox.cif.g08.bks.cpg/sg94_3_cif.got.tgz:5576.got - 2010.06.03 19:43:16.
