data_PCOD9550023
_publ_section_title
;
Structure prediction by ZEFSAII (Michael W. Deem and Ramdas Pophale) SiO2 
 PCOD9550023
Probable space group: P 42 21 2
;
_chemical_formula_sum "Si O2"
_cell_formula_units_Z 40
_cell_length_a 14.982767
_cell_length_b 14.982767
_cell_length_c 8.871585
_cell_angle_alpha 90.000000
_cell_angle_beta 90.000000
_cell_angle_gamma 90.000000
_cell_volume 1991.522739
_symmetry_space_group_name_H-M "P 42 21 2"
_symmetry_group_IT_number 94
_symmetry_cell_setting 'tetragonal'
loop_
_space_group_symop_operation_xyz
x,y,z
1/2-y,1/2+x,1/2+z
-x,-y,z
1/2+y,1/2-x,1/2+z
1/2+x,1/2-y,1/2-z
1/2-x,1/2+y,1/2-z
y,x,-z
-y,-x,-z
loop_
_atom_site_type_symbol
_atom_site_label
_atom_site_fract_x
_atom_site_fract_y
_atom_site_fract_z
Si Si1 0.342460 0.479925 0.431842
Si Si2 0.391276 0.391276 0.000000
Si Si3 0.918222 0.433903 0.259494
Si Si4 0.443739 0.818342 0.419734
Si Si5 0.000000 0.000000 0.734946
Si Si6 0.423397 0.213345 0.831315
O O1 0.399640 0.399640 0.500000
O O2 0.283941 0.538421 0.543746
O O3 0.417096 0.531898 0.335431
O O4 0.269326 0.437564 0.320240
O O5 0.422601 0.456650 0.865823
O O6 0.408099 0.288875 0.956423
O O7 0.868924 0.421099 0.420274
O O8 0.847770 0.487803 0.155050
O O9 0.000000 0.500000 0.294783
O O10 0.967837 0.356570 0.164848
O O11 0.356790 0.842743 0.322900
#
# Coordination Sequence:
#
# PCOD9550023 Si02
#       6
#     8   4   8   8   4   8
#     4  10  21  39  61  83 117 160 200 239 293 362
#     4   9  18  36  62  84 119 146 198 254 281 348
#     4   9  17  32  57  88 120 156 189 236 303 364
#     4  10  20  36  62  88 120 152 198 247 301 352
#     4   9  19  38  62  80 109 167 198 228 298 353
#     4   9  19  35  58  90 117 149 198 241 299 350
#
# _framework density 20.085134
#
# number of rings (size 3 to 8) (size 9 to 14) (size 15 to 20)
#    0.000    2.600    0.000    2.100    0.000    3.200 
#    3.600    0.000   22.000    0.000    0.000    0.000 
#    0.000    0.000    0.000    0.000    0.000    0.000 
#
# Total GULP energy -222867.831371 kJ/mol
# GULP energy per Si atom -5571.695784 kJ/mol
# Density = 2.003942 g / cm^3
# Si number density = 20.085134 Si / 1000 Ang^3
#
#
#
# Elastic Constant Matrix: (Units=GPa)
#
#
# Indices 1 2 3 4 5 6 
#
# 1 128.1373 54.9564 37.7125 0.0000 0.0000 0.0000
# 2 54.9564 128.1373 37.7125 0.0000 0.0000 0.0000
# 3 37.7125 37.7125 56.5124 0.0000 0.0000 0.0000
# 4 0.0000 0.0000 0.0000 21.9917 0.0000 0.0000
# 5 0.0000 0.0000 0.0000 0.0000 21.9917 0.0000
# 6 0.0000 0.0000 0.0000 0.0000 0.0000 26.3900
#
#
#
# Elastic Compliance Matrix: (Units=1/GPa)
#
#
# Indices 1 2 3 4 5 6 
#
# 1 0.010599 -0.003066 -0.005027 0.000000 0.000000 0.000000
# 2 -0.003066 0.010599 -0.005027 0.000000 0.000000 0.000000
# 3 -0.005027 -0.005027 0.024404 0.000000 0.000000 0.000000
# 4 0.000000 0.000000 0.000000 0.045472 0.000000 0.000000
# 5 0.000000 0.000000 0.000000 0.000000 0.045472 0.000000
# 6 0.000000 0.000000 0.000000 0.000000 0.000000 0.037893
#
#
# Mechanical properties :
#
#
# Convention : Reuss Voigt Hill
#
# Bulk Modulus (GPa) = 51.64646 63.72776 57.68711
# Shear Modulus (GPa) = 24.13936 26.23505 25.18720
#
# Velocity S-wave (km/s) = 3.47053 3.61805 3.54506
# Velocity P-wave (km/s) = 6.46754 7.01793 6.74835
#
# Compressibility (1/GPa) = 0.01936241
#
# Stress axis : x y z
#
# Youngs Moduli (GPa) = 94.35233 94.35233 40.97686
#
# Poissons Ratio (x) = 0.28930 0.20597
# Poissons Ratio (y) = 0.28930 0.20597
# Poissons Ratio (z) = 0.47427 0.47427
#
# Static dielectric constant tensor:
#      x y z
#    x 1.711840 0.000000 0.000000 
#    y 0.000000 1.711840 0.000000 
#    z 0.000000 0.000000 1.823610 
# 
# From -- ./inp_files/1479.got.cif
#   From: 2010.05.17/outbox.cif.g08.bks.cpg/sg94_1_cif.got.tgz:1479.got - 2010.06.03 19:43:16.
