data_PCOD9550377
_publ_section_title
;
Structure prediction by ZEFSAII (Michael W. Deem and Ramdas Pophale) SiO2 
 PCOD9550377
Probable space group: P 42 21 2
;
_chemical_formula_sum "Si O2"
_cell_formula_units_Z 18
_cell_length_a 7.023536
_cell_length_b 7.023536
_cell_length_c 12.320684
_cell_angle_alpha 90.000000
_cell_angle_beta 90.000000
_cell_angle_gamma 90.000000
_cell_volume 607.780056
_symmetry_space_group_name_H-M "P 42 21 2"
_symmetry_group_IT_number 94
_symmetry_cell_setting 'tetragonal'
loop_
_space_group_symop_operation_xyz
x,y,z
1/2-y,1/2+x,1/2+z
-x,-y,z
1/2+y,1/2-x,1/2+z
1/2+x,1/2-y,1/2-z
1/2-x,1/2+y,1/2-z
y,x,-z
-y,-x,-z
loop_
_atom_site_type_symbol
_atom_site_label
_atom_site_fract_x
_atom_site_fract_y
_atom_site_fract_z
Si Si1 0.049247 0.727768 0.594131
Si Si2 0.500000 0.500000 0.500000
Si Si3 0.316555 0.868130 0.163345
O O1 0.174475 0.825526 0.500000
O O2 0.330627 0.472496 0.415214
O O3 0.150772 0.743377 0.711240
O O4 0.000000 0.500000 0.576680
O O5 0.845007 0.826414 0.616211
O O6 0.500000 0.000000 0.165253
#
# Coordination Sequence:
#
# PCOD9550377 Si02
#       3
#     8   2   8
#     4  11  30  63 108 148 206 264 338 416 510 603
#     4  12  32  60  92 138 212 256 338 400 508 584
#     4  11  31  61 100 147 198 267 339 412 498 605
#
# _framework density 29.615977000000001
#
# number of rings (size 3 to 8) (size 9 to 14) (size 15 to 20)
#    0.000    0.889    0.000    0.000   18.667   10.667 
#    0.000    0.000    0.000    0.000    0.000    0.000 
#    0.000    0.000    0.000    0.000    0.000    0.000 
#
# Total GULP energy -101292.031347 kJ/mol
# GULP energy per Si atom -5627.335075 kJ/mol
# Density = 2.954857 g / cm^3
# Si number density = 29.615977 Si / 1000 Ang^3
#
#
#
# Elastic Constant Matrix: (Units=GPa)
#
#
# Indices 1 2 3 4 5 6 
#
# 1 213.4642 135.2824 149.2387 0.0000 0.0000 0.0000
# 2 135.2824 213.4641 149.2390 0.0000 0.0000 0.0000
# 3 149.2387 149.2390 401.1225 0.0000 0.0000 0.0000
# 4 0.0000 0.0000 0.0000 69.9268 0.0000 0.0000
# 5 0.0000 0.0000 0.0000 0.0000 69.9268 0.0000
# 6 0.0000 0.0000 0.0000 0.0000 0.0000 43.8531
#
#
#
# Elastic Compliance Matrix: (Units=1/GPa)
#
#
# Indices 1 2 3 4 5 6 
#
# 1 0.008499 -0.004292 -0.001565 0.000000 0.000000 0.000000
# 2 -0.004292 0.008499 -0.001565 0.000000 0.000000 0.000000
# 3 -0.001565 -0.001565 0.003658 0.000000 0.000000 0.000000
# 4 0.000000 0.000000 0.000000 0.014301 0.000000 0.000000
# 5 0.000000 0.000000 0.000000 0.000000 0.014301 0.000000
# 6 0.000000 0.000000 0.000000 0.000000 0.000000 0.022803
#
#
# Mechanical properties :
#
#
# Convention : Reuss Voigt Hill
#
# Bulk Modulus (GPa) = 172.09277 188.39677 180.24477
# Shear Modulus (GPa) = 56.27985 63.02739 59.65362
#
# Velocity S-wave (km/s) = 4.36400 4.61820 4.49290
# Velocity P-wave (km/s) = 9.14477 9.60148 9.37590
#
# Compressibility (1/GPa) = 0.00581082
#
# Stress axis : x y z
#
# Youngs Moduli (GPa) = 117.66286 117.66258 273.39513
#
# Poissons Ratio (x) = 0.50499 0.42793
# Poissons Ratio (y) = 0.50499 0.42793
# Poissons Ratio (z) = 0.18417 0.18417
#
# Static dielectric constant tensor:
#      x y z
#    x 2.402160 0.000000 0.000000 
#    y 0.000000 2.402160 0.000000 
#    z 0.000000 0.000000 2.263540 
# 
# From -- ./inp_files/1886.got.cif
#   From: 2010.05.17/outbox.cif.g08.bks.cpg/sg94_1_cif.got.tgz:1886.got - 2010.06.03 19:43:16.
