data_PCOD9550721
_publ_section_title
;
Structure prediction by ZEFSAII (Michael W. Deem and Ramdas Pophale) SiO2 
 PCOD9550721
Probable space group: P 43 21 2
;
_chemical_formula_sum "Si O2"
_cell_formula_units_Z 60
_cell_length_a 14.431550
_cell_length_b 14.431550
_cell_length_c 13.402878
_cell_angle_alpha 90.000000
_cell_angle_beta 90.000000
_cell_angle_gamma 90.000000
_cell_volume 2791.412514
_symmetry_space_group_name_H-M "P 43 21 2"
_symmetry_group_IT_number 96
_symmetry_cell_setting 'tetragonal'
loop_
_space_group_symop_operation_xyz
x,y,z
1/2-y,1/2+x,3/4+z
-x,-y,1/2+z
1/2+y,1/2-x,1/4+z
1/2+x,1/2-y,1/4-z
1/2-x,1/2+y,3/4-z
y,x,-z
-y,-x,1/2-z
loop_
_atom_site_type_symbol
_atom_site_label
_atom_site_fract_x
_atom_site_fract_y
_atom_site_fract_z
Si Si1 0.110656 0.674434 0.506717
Si Si2 0.503115 0.648542 0.769737
Si Si3 0.815685 0.815685 0.000000
Si Si4 0.029361 0.822008 0.039172
Si Si5 0.687456 0.273191 0.967596
Si Si6 0.524564 0.382986 0.494781
Si Si7 0.093008 0.625053 0.074758
Si Si8 0.401830 0.963709 0.201341
O O1 0.031999 0.752607 0.527243
O O2 0.212273 0.720666 0.521251
O O3 0.111897 0.574094 0.560319
O O4 0.090675 0.640536 0.392506
O O5 0.406619 0.593382 0.750000
O O6 0.587275 0.577655 0.744635
O O7 0.505983 0.659978 0.889904
O O8 0.780231 0.773335 0.898393
O O9 0.805036 0.926243 0.998722
O O10 0.080529 0.726137 0.025591
O O11 0.021416 0.837689 0.158219
O O12 0.608019 0.194880 0.966504
O O13 0.635350 0.367871 0.992936
O O14 0.488656 0.488656 0.500000
O O15 0.077716 0.634280 0.193947
O O16 0.011866 0.556437 0.043720
#
# Coordination Sequence:
#
# PCOD9550721 Si02
#       8
#     8   8   4   8   8   8   8   8
#     4  11  21  39  58  84 116 156 193 239 285 353
#     4  11  21  37  57  83 113 156 203 238 279 336
#     4  10  18  30  54  88 116 140 170 230 300 360
#     4  10  18  33  56  83 120 141 179 238 300 344
#     4  11  20  33  59  87 117 146 189 233 294 357
#     4   9  20  35  54  83 117 152 181 240 291 339
#     4  11  20  36  55  88 113 151 187 238 292 351
#     4  10  22  37  59  82 121 152 189 237 304 342
#
# _framework density 21.494494
#
# number of rings (size 3 to 8) (size 9 to 14) (size 15 to 20)
#    0.000    1.600    2.000    6.400    0.000    0.000 
#    4.800    0.000    0.000    0.800    0.000    0.000 
#    0.000    0.000    0.000    0.000    0.000    0.000 
#
# Total GULP energy -334361.371501 kJ/mol
# GULP energy per Si atom -5572.689525 kJ/mol
# Density = 2.144557 g / cm^3
# Si number density = 21.494494 Si / 1000 Ang^3
#
#
#
# Elastic Constant Matrix: (Units=GPa)
#
#
# Indices 1 2 3 4 5 6 
#
# 1 58.8151 32.0007 -4.2721 0.0000 0.0000 0.0000
# 2 32.0007 58.8149 -4.2720 0.0000 0.0000 0.0000
# 3 -4.2721 -4.2720 12.8750 0.0000 0.0000 0.0000
# 4 0.0000 0.0000 0.0000 30.9565 0.0000 0.0000
# 5 0.0000 0.0000 0.0000 0.0000 30.9568 0.0000
# 6 0.0000 0.0000 0.0000 0.0000 0.0000 33.4574
#
#
#
# Elastic Compliance Matrix: (Units=1/GPa)
#
#
# Indices 1 2 3 4 5 6 
#
# 1 0.024330 -0.012964 0.003771 0.000000 0.000000 0.000000
# 2 -0.012964 0.024330 0.003771 0.000000 0.000000 0.000000
# 3 0.003771 0.003771 0.080173 0.000000 0.000000 0.000000
# 4 0.000000 0.000000 0.000000 0.032303 0.000000 0.000000
# 5 0.000000 0.000000 0.000000 0.000000 0.032303 0.000000
# 6 0.000000 0.000000 0.000000 0.000000 0.000000 0.029889
#
#
# Mechanical properties :
#
#
# Convention : Reuss Voigt Hill
#
# Bulk Modulus (GPa) = 8.47525 19.71314 14.09420
# Shear Modulus (GPa) = 18.28155 26.21070 22.24612
#
# Velocity S-wave (km/s) = 2.91954 3.49580 3.22058
# Velocity P-wave (km/s) = 3.91363 5.04830 4.51673
#
# Compressibility (1/GPa) = 0.11799059
#
# Stress axis : x y z
#
# Youngs Moduli (GPa) = 41.10183 41.10166 12.47306
#
# Poissons Ratio (x) = 0.53283 -0.04704
# Poissons Ratio (y) = 0.53283 -0.04704
# Poissons Ratio (z) = -0.15501 -0.15501
#
# Static dielectric constant tensor:
#      x y z
#    x 1.420210 0.000000 0.000000 
#    y 0.000000 1.420200 0.000000 
#    z 0.000000 0.000000 1.788760 
# 
# From -- ./inp_files/2815.got.cif
#   From: 2010.05.17/outbox.cif.g08.bks.cpg/sg96_2_cif.got.tgz:2815.got - 2010.06.03 19:52:08.
