data_PCOD9550612
_publ_section_title
;
Structure prediction by ZEFSAII (Michael W. Deem and Ramdas Pophale) SiO2 
 PCOD9550612
Probable space group: P 43 2 2
;
_chemical_formula_sum "Si O2"
_cell_formula_units_Z 36
_cell_length_a 12.242967
_cell_length_b 12.242967
_cell_length_c 11.177169
_cell_angle_alpha 90.000000
_cell_angle_beta 90.000000
_cell_angle_gamma 90.000000
_cell_volume 1675.348555
_symmetry_space_group_name_H-M "P 43 2 2"
_symmetry_group_IT_number 95
_symmetry_cell_setting 'tetragonal'
loop_
_space_group_symop_operation_xyz
x,y,z
-y,x,3/4+z
-x,-y,1/2+z
y,-x,1/4+z
x,-y,1/2-z
-x,y,-z
y,x,1/4-z
-y,-x,3/4-z
loop_
_atom_site_type_symbol
_atom_site_label
_atom_site_fract_x
_atom_site_fract_y
_atom_site_fract_z
Si Si1 0.081080 0.263147 0.343451
Si Si2 0.315796 0.294646 0.764562
Si Si3 0.228269 0.555580 0.540074
Si Si4 0.048042 0.048042 0.625000
Si Si5 0.766697 0.233304 0.875000
Si Si6 0.543952 0.000000 0.250000
O O1 0.191093 0.256003 0.424138
O O2 0.126984 0.244667 0.209779
O O3 0.988882 0.173559 0.369346
O O4 0.034739 0.378887 0.388324
O O5 0.290994 0.290994 0.625000
O O6 0.277495 0.401874 0.835143
O O7 0.447561 0.282943 0.766940
O O8 0.238383 0.659205 0.455094
O O9 0.101197 0.525691 0.545567
O O10 0.000000 0.003296 0.500000
#
# Coordination Sequence:
#
# PCOD9550612 Si02
#       6
#     8   8   8   4   4   4
#     4  10  23  44  68  95 139 178 230 286 349 411
#     4  10  22  44  68 105 140 180 229 297 340 428
#     4  10  23  45  72  99 142 182 236 285 363 412
#     4  12  25  42  66  99 134 186 224 286 355 416
#     4  10  23  50  68 101 138 182 230 298 341 438
#     4  10  22  46  66 102 132 198 232 288 350 434
#
# _framework density 21.488064999999999
#
# number of rings (size 3 to 8) (size 9 to 14) (size 15 to 20)
#    0.000    1.778    1.111    1.333    1.556    8.000 
#   38.000    0.000    0.000    0.000    0.000    0.000 
#    0.000    0.000    0.000    0.000    0.000    0.000 
#
# Total GULP energy -200998.212607 kJ/mol
# GULP energy per Si atom -5583.283684 kJ/mol
# Density = 2.143916 g / cm^3
# Si number density = 21.488065 Si / 1000 Ang^3
#
#
#
# Elastic Constant Matrix: (Units=GPa)
#
#
# Indices 1 2 3 4 5 6 
#
# 1 102.6834 74.7759 47.6575 0.0000 0.0000 0.0000
# 2 74.7759 102.6848 47.6586 0.0000 0.0000 0.0000
# 3 47.6575 47.6586 145.4701 0.0000 0.0000 0.0000
# 4 0.0000 0.0000 0.0000 27.8142 0.0000 0.0000
# 5 0.0000 0.0000 0.0000 0.0000 27.8144 0.0000
# 6 0.0000 0.0000 0.0000 0.0000 0.0000 39.4117
#
#
#
# Elastic Compliance Matrix: (Units=1/GPa)
#
#
# Indices 1 2 3 4 5 6 
#
# 1 0.021335 -0.014497 -0.002240 0.000000 0.000000 0.000000
# 2 -0.014497 0.021335 -0.002240 0.000000 0.000000 0.000000
# 3 -0.002240 -0.002240 0.008342 0.000000 0.000000 0.000000
# 4 0.000000 0.000000 0.000000 0.035953 0.000000 0.000000
# 5 0.000000 0.000000 0.000000 0.000000 0.035953 0.000000
# 6 0.000000 0.000000 0.000000 0.000000 0.000000 0.025373
#
#
# Mechanical properties :
#
#
# Convention : Reuss Voigt Hill
#
# Bulk Modulus (GPa) = 76.58384 76.78024 76.68204
# Shear Modulus (GPa) = 26.23318 31.05782 28.64550
#
# Velocity S-wave (km/s) = 3.49782 3.80590 3.65511
# Velocity P-wave (km/s) = 7.21322 7.42444 7.31959
#
# Compressibility (1/GPa) = 0.01305758
#
# Stress axis : x y z
#
# Youngs Moduli (GPa) = 46.87099 46.87132 119.87240
#
# Poissons Ratio (x) = 0.67948 0.26854
# Poissons Ratio (y) = 0.67947 0.26857
# Poissons Ratio (z) = 0.10500 0.10501
#
# Static dielectric constant tensor:
#      x y z
#    x 1.778010 0.000000 0.000000 
#    y 0.000000 1.778010 0.000000 
#    z 0.000000 0.000000 1.819780 
# 
# From -- ./inp_files/3621.got.cif
#   From: 2010.05.17/outbox.cif.g08.bks.cpg/sg95_2_cif.got.tgz:3621.got - 2010.06.03 19:46:49.
