data_PCOD9550196
_publ_section_title
;
Structure prediction by ZEFSAII (Michael W. Deem and Ramdas Pophale) SiO2 
 PCOD9550196
Probable space group: P 42 21 2
;
_chemical_formula_sum "Si O2"
_cell_formula_units_Z 54
_cell_length_a 14.768303
_cell_length_b 14.768303
_cell_length_c 11.879508
_cell_angle_alpha 90.000000
_cell_angle_beta 90.000000
_cell_angle_gamma 90.000000
_cell_volume 2590.953643
_symmetry_space_group_name_H-M "P 42 21 2"
_symmetry_group_IT_number 94
_symmetry_cell_setting 'tetragonal'
loop_
_space_group_symop_operation_xyz
x,y,z
1/2-y,1/2+x,1/2+z
-x,-y,z
1/2+y,1/2-x,1/2+z
1/2+x,1/2-y,1/2-z
1/2-x,1/2+y,1/2-z
y,x,-z
-y,-x,-z
loop_
_atom_site_type_symbol
_atom_site_label
_atom_site_fract_x
_atom_site_fract_y
_atom_site_fract_z
Si Si1 0.867735 0.995010 0.942171
Si Si2 0.821964 0.441897 0.880887
Si Si3 0.500000 0.500000 0.000000
Si Si4 0.624451 0.439144 0.808221
Si Si5 0.000000 0.500000 0.115187
Si Si6 0.375587 0.104189 0.232284
Si Si7 0.626521 0.258207 0.909798
Si Si8 0.512307 0.826747 0.540692
O O1 0.763662 0.017802 0.967908
O O2 0.891767 0.985142 0.810695
O O3 0.927507 0.072494 0.000000
O O4 0.901681 0.901681 0.000000
O O5 0.731937 0.419764 0.811696
O O6 0.855754 0.535260 0.827217
O O7 0.786079 0.448357 0.009085
O O8 0.897305 0.363407 0.895438
O O9 0.496036 0.585151 0.086077
O O10 0.585659 0.339591 0.835836
O O11 0.083773 0.521243 0.195625
O O12 0.987548 0.587958 0.038324
O O13 0.317860 0.161185 0.322848
O O14 0.314096 0.064667 0.134015
O O15 0.698389 0.301612 0.000000
#
# Coordination Sequence:
#
# PCOD9550196 Si02
#       8
#     8   8   2   8   4   8   8   8
#     4  11  26  48  70 104 145 186 247 311 369 449
#     4  11  21  41  62 108 136 175 238 293 349 438
#     4  12  20  44  78  92 128 204 246 290 378 436
#     4  11  24  44  72  97 140 188 242 301 362 436
#     4  12  20  38  60 106 140 184 228 296 346 442
#     4  12  21  38  70  99 141 187 227 293 366 430
#     4  10  22  42  68  97 140 185 233 296 357 433
#     4  12  23  40  71  99 143 186 240 285 380 435
#
# _framework density 20.841747000000002
#
# number of rings (size 3 to 8) (size 9 to 14) (size 15 to 20)
#    0.000    0.741    6.667    2.667    0.000    1.778 
#    0.000    0.000    4.889    0.000    0.000    0.000 
#    0.000    0.000    0.000    0.000    0.000    0.000 
#
# Total GULP energy -300887.904460 kJ/mol
# GULP energy per Si atom -5571.998231 kJ/mol
# Density = 2.079431 g / cm^3
# Si number density = 20.841747 Si / 1000 Ang^3
#
#
#
# Elastic Constant Matrix: (Units=GPa)
#
#
# Indices 1 2 3 4 5 6 
#
# 1 93.5364 35.9149 56.0190 0.0000 0.0000 0.0000
# 2 35.9149 93.5365 56.0188 0.0000 0.0000 0.0000
# 3 56.0190 56.0188 170.3242 0.0000 0.0000 0.0000
# 4 0.0000 0.0000 0.0000 36.4173 0.0000 0.0000
# 5 0.0000 0.0000 0.0000 0.0000 36.4177 0.0000
# 6 0.0000 0.0000 0.0000 0.0000 0.0000 16.6181
#
#
#
# Elastic Compliance Matrix: (Units=1/GPa)
#
#
# Indices 1 2 3 4 5 6 
#
# 1 0.014077 -0.003278 -0.003552 0.000000 0.000000 0.000000
# 2 -0.003278 0.014077 -0.003552 0.000000 0.000000 0.000000
# 3 -0.003552 -0.003552 0.008207 0.000000 0.000000 0.000000
# 4 0.000000 0.000000 0.000000 0.027459 0.000000 0.000000
# 5 0.000000 0.000000 0.000000 0.000000 0.027459 0.000000
# 6 0.000000 0.000000 0.000000 0.000000 0.000000 0.060175
#
#
# Mechanical properties :
#
#
# Convention : Reuss Voigt Hill
#
# Bulk Modulus (GPa) = 64.10942 72.58917 68.34930
# Shear Modulus (GPa) = 28.18220 31.85358 30.01789
#
# Velocity S-wave (km/s) = 3.68122 3.91366 3.79922
# Velocity P-wave (km/s) = 6.99252 7.43819 7.21879
#
# Compressibility (1/GPa) = 0.01559833
#
# Stress axis : x y z
#
# Youngs Moduli (GPa) = 71.03920 71.03940 121.84090
#
# Poissons Ratio (x) = 0.23286 0.43274
# Poissons Ratio (y) = 0.23286 0.43274
# Poissons Ratio (z) = 0.25231 0.25231
#
# Static dielectric constant tensor:
#      x y z
#    x 1.815480 0.000000 0.000000 
#    y 0.000000 1.815480 0.000000 
#    z 0.000000 0.000000 1.795570 
# 
# From -- ./inp_files/2768.got.cif
#   From: 2010.05.17/outbox.cif.g08.bks.cpg/sg94_2_cif.got.tgz:2768.got - 2010.06.03 19:43:16.
