data_PCOD9550749
_publ_section_title
;
Structure prediction by ZEFSAII (Michael W. Deem and Ramdas Pophale) SiO2 
 PCOD9550749
Probable space group: P 43 21 2
;
_chemical_formula_sum "Si O2"
_cell_formula_units_Z 60
_cell_length_a 14.704291
_cell_length_b 14.704291
_cell_length_c 10.550796
_cell_angle_alpha 90.000000
_cell_angle_beta 90.000000
_cell_angle_gamma 90.000000
_cell_volume 2281.252742
_symmetry_space_group_name_H-M "P 43 21 2"
_symmetry_group_IT_number 96
_symmetry_cell_setting 'tetragonal'
loop_
_space_group_symop_operation_xyz
x,y,z
1/2-y,1/2+x,3/4+z
-x,-y,1/2+z
1/2+y,1/2-x,1/4+z
1/2+x,1/2-y,1/4-z
1/2-x,1/2+y,3/4-z
y,x,-z
-y,-x,1/2-z
loop_
_atom_site_type_symbol
_atom_site_label
_atom_site_fract_x
_atom_site_fract_y
_atom_site_fract_z
Si Si1 0.949943 0.949943 0.500000
Si Si2 0.188892 0.429855 0.588722
Si Si3 0.235675 0.593089 0.415799
Si Si4 0.070609 0.080492 0.276083
Si Si5 0.346015 0.378565 0.758251
Si Si6 0.999152 0.742781 0.715425
Si Si7 0.212021 0.260224 0.145348
Si Si8 0.044857 0.443788 0.001310
O O1 0.901568 0.909133 0.624665
O O2 0.056916 0.932638 0.500641
O O3 0.193958 0.503182 0.478726
O O4 0.130962 0.338221 0.567565
O O5 0.288844 0.396672 0.629984
O O6 0.990551 0.523055 0.634505
O O7 0.340097 0.568720 0.391117
O O8 0.248904 0.676389 0.517218
O O9 0.022269 0.174687 0.310868
O O10 0.000440 0.999561 0.250000
O O11 0.290464 0.433660 0.866024
O O12 0.342438 0.274640 0.799818
O O13 0.895569 0.720023 0.667321
O O14 0.052156 0.653291 0.756318
O O15 0.236961 0.236961 0.000000
O O16 0.144754 0.487911 0.705948
#
# Coordination Sequence:
#
# PCOD9550749 Si02
#       8
#     4   8   8   8   8   8   8   8
#     4  10  20  36  60  84 124 156 218 270 328 392
#     4  11  18  34  61  90 120 159 220 266 329 389
#     4  10  20  34  63  91 123 162 219 276 330 409
#     4  10  22  41  65  90 121 172 224 283 339 401
#     4  10  19  33  56  89 118 163 213 271 329 399
#     4  10  22  37  59  96 135 163 214 286 354 408
#     4  10  21  32  58  92 126 167 209 275 348 405
#     4  12  24  40  64  96 142 183 220 279 352 416
#
# _framework density 26.30134
#
# number of rings (size 3 to 8) (size 9 to 14) (size 15 to 20)
#    0.000    1.600    4.000    1.600    8.400    2.133 
#    0.000    1.333    0.000    0.000    0.000    0.000 
#    0.000    0.000    0.000    0.000    0.000    0.000 
#
# Total GULP energy -335330.227772 kJ/mol
# GULP energy per Si atom -5588.837130 kJ/mol
# Density = 2.624148 g / cm^3
# Si number density = 26.301340 Si / 1000 Ang^3
#
#
#
# Elastic Constant Matrix: (Units=GPa)
#
#
# Indices 1 2 3 4 5 6 
#
# 1 122.2329 69.8010 7.7547 0.0000 0.0000 0.0000
# 2 69.8010 122.2342 7.7551 0.0000 0.0000 0.0000
# 3 7.7547 7.7551 34.7879 0.0000 0.0000 0.0000
# 4 0.0000 0.0000 0.0000 29.6668 0.0000 0.0000
# 5 0.0000 0.0000 0.0000 0.0000 29.6667 0.0000
# 6 0.0000 0.0000 0.0000 0.0000 0.0000 47.0472
#
#
#
# Elastic Compliance Matrix: (Units=1/GPa)
#
#
# Indices 1 2 3 4 5 6 
#
# 1 0.012188 -0.006885 -0.001182 0.000000 0.000000 0.000000
# 2 -0.006885 0.012187 -0.001182 0.000000 0.000000 0.000000
# 3 -0.001182 -0.001182 0.029273 0.000000 0.000000 0.000000
# 4 0.000000 0.000000 0.000000 0.033708 0.000000 0.000000
# 5 0.000000 0.000000 0.000000 0.000000 0.033708 0.000000
# 6 0.000000 0.000000 0.000000 0.000000 0.000000 0.021255
#
#
# Mechanical properties :
#
#
# Convention : Reuss Voigt Hill
#
# Bulk Modulus (GPa) = 28.44952 49.98628 39.21790
# Shear Modulus (GPa) = 28.97998 34.20574 31.59286
#
# Velocity S-wave (km/s) = 3.32301 3.61020 3.46958
# Velocity P-wave (km/s) = 5.05603 6.03528 5.56722
#
# Compressibility (1/GPa) = 0.03514997
#
# Stress axis : x y z
#
# Youngs Moduli (GPa) = 82.05094 82.05178 34.16152
#
# Poissons Ratio (x) = 0.56489 0.04038
# Poissons Ratio (y) = 0.56489 0.04039
# Poissons Ratio (z) = 0.09699 0.09700
#
# Static dielectric constant tensor:
#      x y z
#    x 2.119830 0.000000 0.000000 
#    y 0.000000 2.119830 0.000000 
#    z 0.000000 0.000000 2.217180 
# 
# From -- ./inp_files/2828.got.cif
#   From: 2010.05.17/outbox.cif.g08.bks.cpg/sg96_2_cif.got.tgz:2828.got - 2010.06.03 19:52:08.
