data_PCOD9550189
_publ_section_title
;
Structure prediction by ZEFSAII (Michael W. Deem and Ramdas Pophale) SiO2 
 PCOD9550189
Probable space group: P 42 21 2
;
_chemical_formula_sum "Si O2"
_cell_formula_units_Z 40
_cell_length_a 13.962496
_cell_length_b 13.962496
_cell_length_c 9.175283
_cell_angle_alpha 90.000000
_cell_angle_beta 90.000000
_cell_angle_gamma 90.000000
_cell_volume 1788.733299
_symmetry_space_group_name_H-M "P 42 21 2"
_symmetry_group_IT_number 94
_symmetry_cell_setting 'tetragonal'
loop_
_space_group_symop_operation_xyz
x,y,z
1/2-y,1/2+x,1/2+z
-x,-y,z
1/2+y,1/2-x,1/2+z
1/2+x,1/2-y,1/2-z
1/2-x,1/2+y,1/2-z
y,x,-z
-y,-x,-z
loop_
_atom_site_type_symbol
_atom_site_label
_atom_site_fract_x
_atom_site_fract_y
_atom_site_fract_z
Si Si1 0.874659 0.579734 0.818018
Si Si2 0.759403 0.478385 0.160356
Si Si3 0.611510 0.146397 0.356213
Si Si4 0.404173 0.623543 0.340471
Si Si5 0.547661 0.671495 0.109227
O O1 0.922852 0.644116 0.695883
O O2 0.881000 0.470909 0.760303
O O3 0.761846 0.604877 0.829060
O O4 0.913315 0.607199 0.979660
O O5 0.790557 0.589530 0.180653
O O6 0.680535 0.435124 0.265360
O O7 0.721797 0.468937 0.995980
O O8 0.619036 0.261819 0.356224
O O9 0.416845 0.583156 0.500000
O O10 0.496672 0.617482 0.238744
O O11 0.604949 0.604949 0.000000
#
# Coordination Sequence:
#
# PCOD9550189 Si02
#       5
#     8   8   8   8   8
#     4  10  22  41  71 100 145 185 240 305 374 435
#     4  11  23  38  73 102 139 193 236 298 368 439
#     4  10  23  41  67 103 144 185 241 302 377 429
#     4  11  23  46  72 102 144 190 248 305 356 442
#     4  10  25  47  72 102 142 198 241 300 373 439
#
# _framework density 22.362193000000001
#
# number of rings (size 3 to 8) (size 9 to 14) (size 15 to 20)
#    0.000    1.600    2.000    1.200    5.600    9.600 
#    0.000    2.000    0.000    0.000    0.000    0.000 
#    0.000    0.000    0.000    0.000    0.000    0.000 
#
# Total GULP energy -223519.000470 kJ/mol
# GULP energy per Si atom -5587.975012 kJ/mol
# Density = 2.231130 g / cm^3
# Si number density = 22.362193 Si / 1000 Ang^3
#
#
#
# Elastic Constant Matrix: (Units=GPa)
#
#
# Indices 1 2 3 4 5 6 
#
# 1 75.0788 42.4470 52.1148 0.0000 0.0000 0.0000
# 2 42.4470 75.0794 52.1149 0.0000 0.0000 0.0000
# 3 52.1148 52.1149 132.2017 0.0000 0.0000 0.0000
# 4 0.0000 0.0000 0.0000 42.0312 0.0000 0.0000
# 5 0.0000 0.0000 0.0000 0.0000 42.0311 0.0000
# 6 0.0000 0.0000 0.0000 0.0000 0.0000 46.8142
#
#
#
# Elastic Compliance Matrix: (Units=1/GPa)
#
#
# Indices 1 2 3 4 5 6 
#
# 1 0.021864 -0.008781 -0.005157 0.000000 0.000000 0.000000
# 2 -0.008781 0.021863 -0.005157 0.000000 0.000000 0.000000
# 3 -0.005157 -0.005157 0.011630 0.000000 0.000000 0.000000
# 4 0.000000 0.000000 0.000000 0.023792 0.000000 0.000000
# 5 0.000000 0.000000 0.000000 0.000000 0.023792 0.000000
# 6 0.000000 0.000000 0.000000 0.000000 0.000000 0.021361
#
#
# Mechanical properties :
#
#
# Convention : Reuss Voigt Hill
#
# Bulk Modulus (GPa) = 58.25350 63.96816 61.11083
# Shear Modulus (GPa) = 29.72381 35.22085 32.47233
#
# Velocity S-wave (km/s) = 3.64977 3.97295 3.81479
# Velocity P-wave (km/s) = 6.62327 7.05077 6.84036
#
# Compressibility (1/GPa) = 0.01716635
#
# Stress axis : x y z
#
# Youngs Moduli (GPa) = 45.73793 45.73835 85.98297
#
# Poissons Ratio (x) = 0.40163 0.44343
# Poissons Ratio (y) = 0.40163 0.44343
# Poissons Ratio (z) = 0.23588 0.23588
#
# Static dielectric constant tensor:
#      x y z
#    x 1.870610 0.000000 0.000000 
#    y 0.000000 1.870610 0.000000 
#    z 0.000000 0.000000 1.820970 
# 
# From -- ./inp_files/1457.got.cif
#   From: 2010.05.17/outbox.cif.g08.bks.cpg/sg94_1_cif.got.tgz:1457.got - 2010.06.03 19:43:16.
