data_PCOD9550756
_publ_section_title
;
Structure prediction by ZEFSAII (Michael W. Deem and Ramdas Pophale) SiO2 
 PCOD9550756
Probable space group: P 43 21 2
;
_chemical_formula_sum "Si O2"
_cell_formula_units_Z 40
_cell_length_a 13.035916
_cell_length_b 13.035916
_cell_length_c 8.603862
_cell_angle_alpha 90.000000
_cell_angle_beta 90.000000
_cell_angle_gamma 90.000000
_cell_volume 1462.098201
_symmetry_space_group_name_H-M "P 43 21 2"
_symmetry_group_IT_number 96
_symmetry_cell_setting 'tetragonal'
loop_
_space_group_symop_operation_xyz
x,y,z
1/2-y,1/2+x,3/4+z
-x,-y,1/2+z
1/2+y,1/2-x,1/4+z
1/2+x,1/2-y,1/4-z
1/2-x,1/2+y,3/4-z
y,x,-z
-y,-x,1/2-z
loop_
_atom_site_type_symbol
_atom_site_label
_atom_site_fract_x
_atom_site_fract_y
_atom_site_fract_z
Si Si1 0.381416 0.021216 0.199551
Si Si2 0.898879 0.274583 0.236807
Si Si3 0.947620 0.236430 0.561051
Si Si4 0.323687 0.617253 0.923888
Si Si5 0.059123 0.940878 0.250000
Si Si6 0.818943 0.818943 0.000000
O O1 0.446782 0.053389 0.346091
O O2 0.289204 0.955599 0.271489
O O3 0.362711 0.126580 0.108082
O O4 0.823417 0.176584 0.250000
O O5 0.907748 0.303132 0.419352
O O6 0.011456 0.241397 0.174899
O O7 0.903420 0.124436 0.600322
O O8 0.063223 0.211881 0.510208
O O9 0.336613 0.663388 0.750000
O O10 0.439413 0.580882 0.971881
O O11 0.287868 0.695373 0.065581
#
# Coordination Sequence:
#
# PCOD9550756 Si02
#       6
#     8   8   8   8   4   4
#     4  12  29  53  74 100 147 217 261 297 358 445
#     4  11  24  46  74 114 149 193 254 314 379 455
#     4  10  23  45  74 108 152 188 248 317 379 453
#     4  10  19  34  68 107 152 184 226 303 389 453
#     4  10  20  36  75 116 143 188 228 324 410 430
#     4   8  20  38  61 110 139 178 224 296 388 432
#
# _framework density 27.357944
#
# number of rings (size 3 to 8) (size 9 to 14) (size 15 to 20)
#    0.000    1.600    1.000    2.400   14.000    0.000 
#   14.400    0.000    0.000    0.000    0.000    0.000 
#    0.000    0.000    0.000    0.000    0.000    0.000 
#
# Total GULP energy -223660.928085 kJ/mol
# GULP energy per Si atom -5591.523202 kJ/mol
# Density = 2.729568 g / cm^3
# Si number density = 27.357944 Si / 1000 Ang^3
#
#
#
# Elastic Constant Matrix: (Units=GPa)
#
#
# Indices 1 2 3 4 5 6 
#
# 1 70.0951 21.8756 37.9154 0.0000 0.0000 0.0000
# 2 21.8756 70.0968 37.9149 0.0000 0.0000 0.0000
# 3 37.9154 37.9149 165.6533 0.0000 0.0000 0.0000
# 4 0.0000 0.0000 0.0000 38.2768 0.0000 0.0000
# 5 0.0000 0.0000 0.0000 0.0000 38.2761 0.0000
# 6 0.0000 0.0000 0.0000 0.0000 0.0000 34.7376
#
#
#
# Elastic Compliance Matrix: (Units=1/GPa)
#
#
# Indices 1 2 3 4 5 6 
#
# 1 0.017070 -0.003668 -0.003068 0.000000 0.000000 0.000000
# 2 -0.003668 0.017070 -0.003067 0.000000 0.000000 0.000000
# 3 -0.003068 -0.003067 0.007441 0.000000 0.000000 0.000000
# 4 0.000000 0.000000 0.000000 0.026126 0.000000 0.000000
# 5 0.000000 0.000000 0.000000 0.000000 0.026126 0.000000
# 6 0.000000 0.000000 0.000000 0.000000 0.000000 0.028787
#
#
# Mechanical properties :
#
#
# Convention : Reuss Voigt Hill
#
# Bulk Modulus (GPa) = 45.50615 55.69522 50.60069
# Shear Modulus (GPa) = 33.43343 36.13404 34.78374
#
# Velocity S-wave (km/s) = 3.49961 3.63821 3.56958
# Velocity P-wave (km/s) = 5.74451 6.16854 5.96030
#
# Compressibility (1/GPa) = 0.02197505
#
# Stress axis : x y z
#
# Youngs Moduli (GPa) = 58.58102 58.58291 134.39231
#
# Poissons Ratio (x) = 0.21488 0.41226
# Poissons Ratio (y) = 0.21488 0.41224
# Poissons Ratio (z) = 0.17970 0.17970
#
# Static dielectric constant tensor:
#      x y z
#    x 2.194550 0.000000 0.000000 
#    y 0.000000 2.194540 0.000000 
#    z 0.000000 0.000000 2.218980 
# 
# From -- ./inp_files/1379.got.cif
#   From: 2010.05.17/outbox.cif.g08.bks.cpg/sg96_1_cif.got.tgz:1379.got - 2010.06.03 19:52:08.
