data_PCOD9550938
_publ_section_title
;
Structure prediction by ZEFSAII (Michael W. Deem and Ramdas Pophale) SiO2 
 PCOD9550938
Probable space group: P 43 21 2
;
_chemical_formula_sum "Si O2"
_cell_formula_units_Z 48
_cell_length_a 7.676231
_cell_length_b 7.676231
_cell_length_c 30.065402
_cell_angle_alpha 90.000000
_cell_angle_beta 90.000000
_cell_angle_gamma 90.000000
_cell_volume 1771.589453
_symmetry_space_group_name_H-M "P 43 21 2"
_symmetry_group_IT_number 96
_symmetry_cell_setting 'tetragonal'
loop_
_space_group_symop_operation_xyz
x,y,z
1/2-y,1/2+x,3/4+z
-x,-y,1/2+z
1/2+y,1/2-x,1/4+z
1/2+x,1/2-y,1/4-z
1/2-x,1/2+y,3/4-z
y,x,-z
-y,-x,1/2-z
loop_
_atom_site_type_symbol
_atom_site_label
_atom_site_fract_x
_atom_site_fract_y
_atom_site_fract_z
Si Si1 0.943669 0.541977 0.671046
Si Si2 0.790645 0.658555 0.761920
Si Si3 0.029082 0.970919 0.250000
Si Si4 0.377660 0.622341 0.750000
Si Si5 0.450568 0.338443 0.409730
Si Si6 0.308358 0.708500 0.096684
Si Si7 0.750627 0.734282 0.594876
O O1 0.849602 0.547691 0.719184
O O2 0.831184 0.578165 0.625540
O O3 0.074017 0.376462 0.670982
O O4 0.054982 0.722575 0.671113
O O5 0.581638 0.664558 0.756776
O O6 0.804756 0.637313 0.815287
O O7 0.919067 0.831397 0.762837
O O8 0.172384 0.951254 0.212005
O O9 0.274485 0.657609 0.797055
O O10 0.273229 0.252539 0.393927
O O11 0.435298 0.543668 0.400401
O O12 0.608258 0.265916 0.381230
#
# Coordination Sequence:
#
# PCOD9550938 Si02
#       7
#     8   8   4   4   8   8   8
#     4  11  23  47  74 105 146 199 252 315 392 469
#     4  11  23  46  70 108 147 189 250 313 390 475
#     4  10  22  43  77  96 148 196 246 302 392 468
#     4  12  24  45  75 110 156 192 254 332 394 472
#     4  10  21  46  65  99 142 186 246 307 373 463
#     4  10  24  46  65 106 142 188 246 312 383 463
#     4  11  24  44  71 107 147 194 256 316 388 476
#
# _framework density 27.094315999999999
#
# number of rings (size 3 to 8) (size 9 to 14) (size 15 to 20)
#    0.000    1.333    5.000    1.000    2.333    3.333 
#    9.000    1.667    0.000    0.000    0.000    0.000 
#    0.000    0.000    0.000    0.000    0.000    0.000 
#
# Total GULP energy -267255.004652 kJ/mol
# GULP energy per Si atom -5567.812597 kJ/mol
# Density = 2.703265 g / cm^3
# Si number density = 27.094316 Si / 1000 Ang^3
#
#
#
# Elastic Constant Matrix: (Units=GPa)
#
#
# Indices 1 2 3 4 5 6 
#
# 1 70.3337 -24.2946 6.7929 0.0000 0.0000 0.0000
# 2 -24.2946 70.3341 6.7930 0.0000 0.0000 0.0000
# 3 6.7929 6.7930 109.8047 0.0000 0.0000 0.0000
# 4 0.0000 0.0000 0.0000 39.0762 0.0000 0.0000
# 5 0.0000 0.0000 0.0000 0.0000 39.0763 0.0000
# 6 0.0000 0.0000 0.0000 0.0000 0.0000 40.0136
#
#
#
# Elastic Compliance Matrix: (Units=1/GPa)
#
#
# Indices 1 2 3 4 5 6 
#
# 1 0.016346 0.005778 -0.001369 0.000000 0.000000 0.000000
# 2 0.005778 0.016346 -0.001369 0.000000 0.000000 0.000000
# 3 -0.001369 -0.001369 0.009276 0.000000 0.000000 0.000000
# 4 0.000000 0.000000 0.000000 0.025591 0.000000 0.000000
# 5 0.000000 0.000000 0.000000 0.000000 0.025591 0.000000
# 6 0.000000 0.000000 0.000000 0.000000 0.000000 0.024992
#
#
# Mechanical properties :
#
#
# Convention : Reuss Voigt Hill
#
# Bulk Modulus (GPa) = 20.81143 25.45057 23.13100
# Shear Modulus (GPa) = 39.03905 41.04529 40.04217
#
# Velocity S-wave (km/s) = 3.79998 3.89640 3.84849
# Velocity P-wave (km/s) = 5.19143 5.44576 5.32011
#
# Compressibility (1/GPa) = 0.04805052
#
# Stress axis : x y z
#
# Youngs Moduli (GPa) = 61.17671 61.17701 107.80010
#
# Poissons Ratio (x) = -0.35351 0.14755
# Poissons Ratio (y) = -0.35350 0.14755
# Poissons Ratio (z) = 0.08373 0.08373
#
# Static dielectric constant tensor:
#      x y z
#    x 2.303240 0.000000 0.000000 
#    y 0.000000 2.303240 0.000000 
#    z 0.000000 0.000000 2.326460 
# 
# From -- ./inp_files/4556.got.cif
#   From: 2010.05.17/outbox.cif.g08.bks.cpg/sg96_3_cif.got.tgz:4556.got - 2010.06.03 19:52:08.
