data_PCOD9550999
_publ_section_title
;
Structure prediction by ZEFSAII (Michael W. Deem and Ramdas Pophale) SiO2 
 PCOD9550999
Probable space group: P 43 21 2
;
_chemical_formula_sum "Si O2"
_cell_formula_units_Z 36
_cell_length_a 9.240929
_cell_length_b 9.240929
_cell_length_c 16.910538
_cell_angle_alpha 90.000000
_cell_angle_beta 90.000000
_cell_angle_gamma 90.000000
_cell_volume 1444.071483
_symmetry_space_group_name_H-M "P 43 21 2"
_symmetry_group_IT_number 96
_symmetry_cell_setting 'tetragonal'
loop_
_space_group_symop_operation_xyz
x,y,z
1/2-y,1/2+x,3/4+z
-x,-y,1/2+z
1/2+y,1/2-x,1/4+z
1/2+x,1/2-y,1/4-z
1/2-x,1/2+y,3/4-z
y,x,-z
-y,-x,1/2-z
loop_
_atom_site_type_symbol
_atom_site_label
_atom_site_fract_x
_atom_site_fract_y
_atom_site_fract_z
Si Si1 0.606191 0.300241 0.527460
Si Si2 0.901642 0.254771 0.587941
Si Si3 0.503241 0.496760 0.250000
Si Si4 0.738163 0.352384 0.146089
Si Si5 0.448241 0.177245 0.961955
O O1 0.730780 0.224186 0.580305
O O2 0.464429 0.296046 0.579281
O O3 0.230199 0.599626 0.558105
O O4 0.679426 0.458359 0.516952
O O5 0.920866 0.425386 0.573695
O O6 0.971839 0.164550 0.516282
O O7 0.587567 0.421955 0.177030
O O8 0.713116 0.179110 0.150660
O O9 0.363015 0.120625 0.038975
#
# Coordination Sequence:
#
# PCOD9550999 Si02
#       5
#     8   8   4   8   8
#     4  10  24  44  79 106 153 198 250 319 384 456
#     4  10  24  46  71 110 151 203 243 325 387 456
#     4  10  24  44  76 106 154 194 254 318 386 458
#     4  10  22  49  77 110 146 205 266 308 382 465
#     4   8  22  44  75 107 144 197 249 319 368 455
#
# _framework density 24.929513
#
# number of rings (size 3 to 8) (size 9 to 14) (size 15 to 20)
#    1.333    1.333    0.000    0.000    6.222    2.667 
#    8.000    8.889    0.000    0.000    0.000    0.000 
#    0.000    0.000    0.000    0.000    0.000    0.000 
#
# Total GULP energy -201219.895498 kJ/mol
# GULP energy per Si atom -5589.441542 kJ/mol
# Density = 2.487277 g / cm^3
# Si number density = 24.929513 Si / 1000 Ang^3
#
#
#
# Elastic Constant Matrix: (Units=GPa)
#
#
# Indices 1 2 3 4 5 6 
#
# 1 64.2878 27.3913 44.7677 0.0000 0.0000 0.0000
# 2 27.3913 64.2884 44.7687 0.0000 0.0000 0.0000
# 3 44.7677 44.7687 180.8014 0.0000 0.0000 0.0000
# 4 0.0000 0.0000 0.0000 27.6585 0.0000 0.0000
# 5 0.0000 0.0000 0.0000 0.0000 27.6586 0.0000
# 6 0.0000 0.0000 0.0000 0.0000 0.0000 34.4772
#
#
#
# Elastic Compliance Matrix: (Units=1/GPa)
#
#
# Indices 1 2 3 4 5 6 
#
# 1 0.020745 -0.006358 -0.003562 0.000000 0.000000 0.000000
# 2 -0.006358 0.020745 -0.003562 0.000000 0.000000 0.000000
# 3 -0.003562 -0.003562 0.007295 0.000000 0.000000 0.000000
# 4 0.000000 0.000000 0.000000 0.036155 0.000000 0.000000
# 5 0.000000 0.000000 0.000000 0.000000 0.036155 0.000000
# 6 0.000000 0.000000 0.000000 0.000000 0.000000 0.029005
#
#
# Mechanical properties :
#
#
# Convention : Reuss Voigt Hill
#
# Bulk Modulus (GPa) = 45.83133 60.35923 53.09528
# Shear Modulus (GPa) = 27.12420 30.78888 28.95654
#
# Velocity S-wave (km/s) = 3.30212 3.51812 3.41183
# Velocity P-wave (km/s) = 5.74133 6.38494 6.07167
#
# Compressibility (1/GPa) = 0.02181913
#
# Stress axis : x y z
#
# Youngs Moduli (GPa) = 48.20525 48.20542 137.07965
#
# Poissons Ratio (x) = 0.30649 0.48830
# Poissons Ratio (y) = 0.30649 0.48832
# Poissons Ratio (z) = 0.17172 0.17172
#
# Static dielectric constant tensor:
#      x y z
#    x 2.052360 0.000000 0.000000 
#    y 0.000000 2.052350 0.000000 
#    z 0.000000 0.000000 1.927750 
# 
# From -- ./inp_files/4269.got.cif
#   From: 2010.05.17/outbox.cif.g08.bks.cpg/sg96_3_cif.got.tgz:4269.got - 2010.06.03 19:52:08.
