data_PCOD9550244
_publ_section_title
;
Structure prediction by ZEFSAII (Michael W. Deem and Ramdas Pophale) SiO2 
 PCOD9550244
Probable space group: P 42 21 2
;
_chemical_formula_sum "Si O2"
_cell_formula_units_Z 26
_cell_length_a 10.556587
_cell_length_b 10.556587
_cell_length_c 11.257611
_cell_angle_alpha 90.000000
_cell_angle_beta 90.000000
_cell_angle_gamma 90.000000
_cell_volume 1254.565384
_symmetry_space_group_name_H-M "P 42 21 2"
_symmetry_group_IT_number 94
_symmetry_cell_setting 'tetragonal'
loop_
_space_group_symop_operation_xyz
x,y,z
1/2-y,1/2+x,1/2+z
-x,-y,z
1/2+y,1/2-x,1/2+z
1/2+x,1/2-y,1/2-z
1/2-x,1/2+y,1/2-z
y,x,-z
-y,-x,-z
loop_
_atom_site_type_symbol
_atom_site_label
_atom_site_fract_x
_atom_site_fract_y
_atom_site_fract_z
Si Si1 0.238972 0.090628 0.650607
Si Si2 0.500000 0.500000 0.000000
Si Si3 0.243741 0.585909 0.572652
Si Si4 0.310679 0.310679 0.500000
Si Si5 0.000000 0.500000 0.465353
O O1 0.127086 0.014375 0.581868
O O2 0.218607 0.084535 0.790632
O O3 0.242584 0.238100 0.609019
O O4 0.381628 0.047240 0.614538
O O5 0.296490 0.703511 0.500000
O O6 0.292470 0.459219 0.508409
O O7 0.095847 0.570520 0.553479
#
# Coordination Sequence:
#
# PCOD9550244 Si02
#       5
#     8   2   8   4   4
#     4  10  23  43  64  96 135 172 221 281 326 415
#     4  10  24  40  68  92 134 182 222 262 346 392
#     4  11  24  40  69  97 128 178 219 275 343 397
#     4   9  23  43  59  96 132 164 226 274 324 398
#     4  10  24  44  64 102 132 170 220 276 348 400
#
# _framework density 20.724311
#
# number of rings (size 3 to 8) (size 9 to 14) (size 15 to 20)
#    0.000    1.846    0.000    1.385   10.769    0.000 
#   11.077    0.000    0.000    0.000    0.000    0.000 
#    0.000    0.000    0.000    0.000    0.000    0.000 
#
# Total GULP energy -144886.313065 kJ/mol
# GULP energy per Si atom -5572.550503 kJ/mol
# Density = 2.067714 g / cm^3
# Si number density = 20.724311 Si / 1000 Ang^3
#
#
#
# Elastic Constant Matrix: (Units=GPa)
#
#
# Indices 1 2 3 4 5 6 
#
# 1 77.8324 37.3591 33.7249 0.0000 0.0000 0.0000
# 2 37.3591 77.8216 33.7242 0.0000 0.0000 0.0000
# 3 33.7249 33.7242 137.0919 0.0000 0.0000 0.0000
# 4 0.0000 0.0000 0.0000 14.8945 0.0000 0.0000
# 5 0.0000 0.0000 0.0000 0.0000 14.8946 0.0000
# 6 0.0000 0.0000 0.0000 0.0000 0.0000 31.1706
#
#
#
# Elastic Compliance Matrix: (Units=1/GPa)
#
#
# Indices 1 2 3 4 5 6 
#
# 1 0.017425 -0.007284 -0.002495 0.000000 0.000000 0.000000
# 2 -0.007284 0.017428 -0.002495 0.000000 0.000000 0.000000
# 3 -0.002495 -0.002495 0.008522 0.000000 0.000000 0.000000
# 4 0.000000 0.000000 0.000000 0.067139 0.000000 0.000000
# 5 0.000000 0.000000 0.000000 0.000000 0.067138 0.000000
# 6 0.000000 0.000000 0.000000 0.000000 0.000000 0.032081
#
#
# Mechanical properties :
#
#
# Convention : Reuss Voigt Hill
#
# Bulk Modulus (GPa) = 53.11549 55.81803 54.46676
# Shear Modulus (GPa) = 20.78497 24.72113 22.75305
#
# Velocity S-wave (km/s) = 3.17034 3.45752 3.31704
# Velocity P-wave (km/s) = 6.25193 6.55220 6.40382
#
# Compressibility (1/GPa) = 0.01882690
#
# Stress axis : x y z
#
# Youngs Moduli (GPa) = 57.38721 57.37865 117.34390
#
# Poissons Ratio (x) = 0.41795 0.29275
# Poissons Ratio (y) = 0.41802 0.29281
# Poissons Ratio (z) = 0.14317 0.14318
#
# Static dielectric constant tensor:
#      x y z
#    x 1.803380 0.000000 0.000000 
#    y 0.000000 1.803380 0.000000 
#    z 0.000000 0.000000 1.728430 
# 
# From -- ./inp_files/1069.got.cif
#   From: 2010.05.17/outbox.cif.g08.bks.cpg/sg94_1_cif.got.tgz:1069.got - 2010.06.03 19:43:16.
