data_PCOD9550725
_publ_section_title
;
Structure prediction by ZEFSAII (Michael W. Deem and Ramdas Pophale) SiO2 
 PCOD9550725
Probable space group: P 43 21 2
;
_chemical_formula_sum "Si O2"
_cell_formula_units_Z 64
_cell_length_a 25.816961
_cell_length_b 25.816961
_cell_length_c 5.353055
_cell_angle_alpha 90.000000
_cell_angle_beta 90.000000
_cell_angle_gamma 90.000000
_cell_volume 3567.893998
_symmetry_space_group_name_H-M "P 43 21 2"
_symmetry_group_IT_number 96
_symmetry_cell_setting 'tetragonal'
loop_
_space_group_symop_operation_xyz
x,y,z
1/2-y,1/2+x,3/4+z
-x,-y,1/2+z
1/2+y,1/2-x,1/4+z
1/2+x,1/2-y,1/4-z
1/2-x,1/2+y,3/4-z
y,x,-z
-y,-x,1/2-z
loop_
_atom_site_type_symbol
_atom_site_label
_atom_site_fract_x
_atom_site_fract_y
_atom_site_fract_z
Si Si1 0.780693 0.737202 0.752215
Si Si2 0.931483 0.404074 0.042545
Si Si3 0.176623 0.561601 0.377173
Si Si4 0.960089 0.394188 0.548094
Si Si5 0.800535 0.618414 0.801273
Si Si6 0.435223 0.218086 0.191765
Si Si7 0.448373 0.758554 0.621667
Si Si8 0.130834 0.174281 0.247748
O O1 0.747976 0.747976 0.500000
O O2 0.803001 0.679811 0.783984
O O3 0.826889 0.779050 0.749647
O O4 0.747775 0.747775 0.000000
O O5 0.952318 0.426105 0.298588
O O6 0.948651 0.343702 0.054200
O O7 0.870036 0.404590 0.994545
O O8 0.956410 0.427573 0.796301
O O9 0.145953 0.507262 0.329781
O O10 0.219172 0.564745 0.600114
O O11 0.202917 0.569169 0.105730
O O12 0.908706 0.357034 0.547040
O O13 0.773014 0.599944 0.548610
O O14 0.773487 0.595071 0.049144
O O15 0.489608 0.245225 0.142058
O O16 0.422663 0.704472 0.544707
O O17 0.141740 0.141740 0.500000
O O18 0.141478 0.141478 0.000000
#
# Coordination Sequence:
#
# PCOD9550725 Si02
#       8
#     8   8   8   8   8   8   8   8
#     4  10  21  35  50  74 105 141 178 210 267 332
#     4  10  20  31  50  70 103 116 161 225 264 319
#     4  12  21  33  54  80  97 132 169 226 275 327
#     4  10  19  36  45  75 102 119 174 218 265 324
#     4  10  18  32  51  67 105 129 163 228 255 294
#     4  10  19  33  49  79  98 125 177 223 260 323
#     4  12  21  36  56  75 105 133 180 224 274 314
#     4  10  23  38  49  74 105 137 178 216 262 331
#
# _framework density 17.937753000000001
#
# number of rings (size 3 to 8) (size 9 to 14) (size 15 to 20)
#    0.000    1.500    5.000    2.250    7.000    0.000 
#    0.000    0.000    0.000    1.500    0.000    0.000 
#    0.000    0.000    0.000    0.000    0.000   35.000 
#
# Total GULP energy -356677.852907 kJ/mol
# GULP energy per Si atom -5573.091452 kJ/mol
# Density = 1.789693 g / cm^3
# Si number density = 17.937753 Si / 1000 Ang^3
#
#
#
# Elastic Constant Matrix: (Units=GPa)
#
#
# Indices 1 2 3 4 5 6 
#
# 1 25.6507 -0.7748 6.6624 0.0000 0.0000 0.0000
# 2 -0.7748 25.6507 6.6624 0.0000 0.0000 0.0000
# 3 6.6624 6.6624 170.0940 0.0000 0.0000 0.0000
# 4 0.0000 0.0000 0.0000 18.4776 0.0000 0.0000
# 5 0.0000 0.0000 0.0000 0.0000 18.4776 0.0000
# 6 0.0000 0.0000 0.0000 0.0000 0.0000 21.3370
#
#
#
# Elastic Compliance Matrix: (Units=1/GPa)
#
#
# Indices 1 2 3 4 5 6 
#
# 1 0.039452 0.001609 -0.001608 0.000000 0.000000 0.000000
# 2 0.001609 0.039452 -0.001608 0.000000 0.000000 0.000000
# 3 -0.001608 -0.001608 0.006005 0.000000 0.000000 0.000000
# 4 0.000000 0.000000 0.000000 0.054120 0.000000 0.000000
# 5 0.000000 0.000000 0.000000 0.000000 0.054120 0.000000
# 6 0.000000 0.000000 0.000000 0.000000 0.000000 0.046867
#
#
# Mechanical properties :
#
#
# Convention : Reuss Voigt Hill
#
# Bulk Modulus (GPa) = 12.24078 27.38836 19.81457
# Shear Modulus (GPa) = 18.48700 25.58147 22.03423
#
# Velocity S-wave (km/s) = 3.21381 3.78050 3.50862
# Velocity P-wave (km/s) = 4.53985 5.86157 5.24253
#
# Compressibility (1/GPa) = 0.08169411
#
# Stress axis : x y z
#
# Youngs Moduli (GPa) = 25.34747 25.34747 166.52532
#
# Poissons Ratio (x) = -0.04080 0.26783
# Poissons Ratio (y) = -0.04080 0.26783
# Poissons Ratio (z) = 0.04077 0.04077
#
# Static dielectric constant tensor:
#      x y z
#    x 1.631020 0.000000 0.000000 
#    y 0.000000 1.631020 0.000000 
#    z 0.000000 0.000000 1.762030 
# 
# From -- ./inp_files/856.got.cif
#   From: 2010.05.17/outbox.cif.g08.bks.cpg/sg96_1_cif.got.tgz:856.got - 2010.06.03 19:52:08.
