data_PCOD9550708
_publ_section_title
;
Structure prediction by ZEFSAII (Michael W. Deem and Ramdas Pophale) SiO2 
 PCOD9550708
Probable space group: P 43 21 2
;
_chemical_formula_sum "Si O2"
_cell_formula_units_Z 36
_cell_length_a 14.529065
_cell_length_b 14.529065
_cell_length_c 6.859339
_cell_angle_alpha 90.000000
_cell_angle_beta 90.000000
_cell_angle_gamma 90.000000
_cell_volume 1447.963453
_symmetry_space_group_name_H-M "P 43 21 2"
_symmetry_group_IT_number 96
_symmetry_cell_setting 'tetragonal'
loop_
_space_group_symop_operation_xyz
x,y,z
1/2-y,1/2+x,3/4+z
-x,-y,1/2+z
1/2+y,1/2-x,1/4+z
1/2+x,1/2-y,1/4-z
1/2-x,1/2+y,3/4-z
y,x,-z
-y,-x,1/2-z
loop_
_atom_site_type_symbol
_atom_site_label
_atom_site_fract_x
_atom_site_fract_y
_atom_site_fract_z
Si Si1 0.771664 0.252064 0.516208
Si Si2 0.581701 0.418300 0.750000
Si Si3 0.884063 0.073580 0.518329
Si Si4 0.932559 0.762799 0.318899
Si Si5 0.116842 0.441331 0.341454
O O1 0.751458 0.248543 0.750000
O O2 0.822990 0.158794 0.466223
O O3 0.674099 0.239633 0.403729
O O4 0.850293 0.332211 0.505977
O O5 0.583162 0.519579 0.661751
O O6 0.666666 0.418788 0.891339
O O7 0.911049 0.088952 0.750000
O O8 0.823280 0.981294 0.513223
O O9 0.004628 0.683867 0.248080
O O10 0.092695 0.521717 0.188302
#
# Coordination Sequence:
#
# PCOD9550708 Si02
#       5
#     8   4   8   8   8
#     4  11  18  34  60  90 112 157 220 256 305 387
#     4  10  16  30  54  84 112 140 204 264 298 352
#     4   9  18  30  50  88 107 141 200 256 304 352
#     4  11  18  34  59  85 115 161 209 260 312 376
#     4  12  23  39  64  97 129 170 217 269 323 391
#
# _framework density 24.862507000000001
#
# number of rings (size 3 to 8) (size 9 to 14) (size 15 to 20)
#    0.000    1.333   10.000    0.000    0.000    0.000 
#    0.000    4.444    0.000    0.000    8.667    0.000 
#    0.000    0.000    0.000    0.000    0.000    0.000 
#
# Total GULP energy -200973.599907 kJ/mol
# GULP energy per Si atom -5582.599997 kJ/mol
# Density = 2.480592 g / cm^3
# Si number density = 24.862507 Si / 1000 Ang^3
#
#
#
# Elastic Constant Matrix: (Units=GPa)
#
#
# Indices 1 2 3 4 5 6 
#
# 1 163.5480 70.0962 6.9465 0.0000 0.0000 0.0000
# 2 70.0962 163.5465 6.9459 0.0000 0.0000 0.0000
# 3 6.9465 6.9459 50.8456 0.0000 0.0000 0.0000
# 4 0.0000 0.0000 0.0000 28.8013 0.0000 0.0000
# 5 0.0000 0.0000 0.0000 0.0000 28.8352 0.0000
# 6 0.0000 0.0000 0.0000 0.0000 0.0000 76.7730
#
#
#
# Elastic Compliance Matrix: (Units=1/GPa)
#
#
# Indices 1 2 3 4 5 6 
#
# 1 0.007508 -0.003193 -0.000590 0.000000 0.000000 0.000000
# 2 -0.003193 0.007508 -0.000589 0.000000 0.000000 0.000000
# 3 -0.000590 -0.000589 0.019828 0.000000 0.000000 0.000000
# 4 0.000000 0.000000 0.000000 0.034721 0.000000 0.000000
# 5 0.000000 0.000000 0.000000 0.000000 0.034680 0.000000
# 6 0.000000 0.000000 0.000000 0.000000 0.000000 0.013025
#
#
# Mechanical properties :
#
#
# Convention : Reuss Voigt Hill
#
# Bulk Modulus (GPa) = 38.31328 60.65747 49.48537
# Shear Modulus (GPa) = 37.11565 46.47868 41.79717
#
# Velocity S-wave (km/s) = 3.86792 4.32838 4.10461
# Velocity P-wave (km/s) = 5.94905 7.03064 6.51234
#
# Compressibility (1/GPa) = 0.02610061
#
# Stress axis : x y z
#
# Youngs Moduli (GPa) = 133.19300 133.19195 50.43260
#
# Poissons Ratio (x) = 0.42526 0.02973
# Poissons Ratio (y) = 0.42527 0.02973
# Poissons Ratio (z) = 0.07853 0.07851
#
# Static dielectric constant tensor:
#      x y z
#    x 0.717440 0.000000 0.000000 
#    y 0.000000 0.714610 0.000000 
#    z 0.000000 0.000000 2.514850 
# 
# From -- ./inp_files/1236.got.cif
#   From: 2010.05.17/outbox.cif.g08.bks.cpg/sg96_1_cif.got.tgz:1236.got - 2010.06.03 19:52:08.
