data_PCOD9550042
_publ_section_title
;
Structure prediction by ZEFSAII (Michael W. Deem and Ramdas Pophale) SiO2 
 PCOD9550042
Probable space group: P 42 21 2
;
_chemical_formula_sum "Si O2"
_cell_formula_units_Z 54
_cell_length_a 14.848867
_cell_length_b 14.848867
_cell_length_c 10.369152
_cell_angle_alpha 90.000000
_cell_angle_beta 90.000000
_cell_angle_gamma 90.000000
_cell_volume 2286.282412
_symmetry_space_group_name_H-M "P 42 21 2"
_symmetry_group_IT_number 94
_symmetry_cell_setting 'tetragonal'
loop_
_space_group_symop_operation_xyz
x,y,z
1/2-y,1/2+x,1/2+z
-x,-y,z
1/2+y,1/2-x,1/2+z
1/2+x,1/2-y,1/2-z
1/2-x,1/2+y,1/2-z
y,x,-z
-y,-x,-z
loop_
_atom_site_type_symbol
_atom_site_label
_atom_site_fract_x
_atom_site_fract_y
_atom_site_fract_z
Si Si1 0.172370 0.711974 0.688183
Si Si2 0.000000 0.500000 0.994595
Si Si3 0.734723 0.100922 0.700064
Si Si4 0.170934 0.620771 0.941864
Si Si5 0.207244 0.936404 0.973124
Si Si6 0.500000 0.500000 0.000000
Si Si7 0.008110 0.798217 0.565213
Si Si8 0.090457 0.325764 0.962932
O O1 0.223776 0.801702 0.722996
O O2 0.195270 0.638483 0.794826
O O3 0.200763 0.673186 0.551295
O O4 0.068764 0.745993 0.670120
O O5 0.088014 0.549856 0.936089
O O6 0.045011 0.407879 0.046935
O O7 0.768737 0.045690 0.823378
O O8 0.630252 0.125289 0.664965
O O9 0.778977 0.058522 0.571902
O O10 0.135310 0.716430 0.988119
O O11 0.246719 0.584680 0.037964
O O12 0.110858 0.889143 0.000000
O O13 0.241202 0.024614 0.050683
O O14 0.500101 0.594329 0.920478
#
# Coordination Sequence:
#
# PCOD9550042 Si02
#       8
#     8   4   8   8   8   2   8   8
#     4  11  21  41  69  95 135 177 218 285 337 407
#     4  10  20  38  58  98 132 162 218 264 350 394
#     4  11  21  44  66  91 135 179 223 272 336 410
#     4  11  23  39  64  99 136 175 224 281 351 406
#     4  11  24  42  60  96 138 176 217 278 338 406
#     4  12  24  40  76  96 142 180 234 298 348 406
#     4  11  23  43  64 103 132 175 235 282 343 412
#     4  10  22  38  64  95 126 175 218 275 338 402
#
# _framework density 23.619129999999998
#
# number of rings (size 3 to 8) (size 9 to 14) (size 15 to 20)
#    0.000    1.185    5.926    2.222    1.037    2.963 
#    0.000    1.481    0.000    1.778    0.000    1.037 
#    0.000    0.000    0.000    0.000    0.000    0.000 
#
# Total GULP energy -300838.617879 kJ/mol
# GULP energy per Si atom -5571.085516 kJ/mol
# Density = 2.356537 g / cm^3
# Si number density = 23.619130 Si / 1000 Ang^3
#
#
#
# Elastic Constant Matrix: (Units=GPa)
#
#
# Indices 1 2 3 4 5 6 
#
# 1 64.1767 0.7678 -5.1984 0.0000 0.0000 0.0000
# 2 0.7678 64.1755 -5.1983 0.0000 0.0000 0.0000
# 3 -5.1984 -5.1983 51.8925 0.0000 0.0000 0.0000
# 4 0.0000 0.0000 0.0000 16.4225 0.0000 0.0000
# 5 0.0000 0.0000 0.0000 0.0000 16.4227 0.0000
# 6 0.0000 0.0000 0.0000 0.0000 0.0000 49.7685
#
#
#
# Elastic Compliance Matrix: (Units=1/GPa)
#
#
# Indices 1 2 3 4 5 6 
#
# 1 0.015710 -0.000061 0.001568 0.000000 0.000000 0.000000
# 2 -0.000061 0.015710 0.001568 0.000000 0.000000 0.000000
# 3 0.001568 0.001568 0.019585 0.000000 0.000000 0.000000
# 4 0.000000 0.000000 0.000000 0.060892 0.000000 0.000000
# 5 0.000000 0.000000 0.000000 0.000000 0.060891 0.000000
# 6 0.000000 0.000000 0.000000 0.000000 0.000000 0.020093
#
#
# Mechanical properties :
#
#
# Convention : Reuss Voigt Hill
#
# Bulk Modulus (GPa) = 17.49692 17.88744 17.69218
# Shear Modulus (GPa) = 24.29742 29.18097 26.73920
#
# Velocity S-wave (km/s) = 3.21084 3.51875 3.36832
# Velocity P-wave (km/s) = 4.60109 4.90903 4.75755
#
# Compressibility (1/GPa) = 0.05715292
#
# Stress axis : x y z
#
# Youngs Moduli (GPa) = 63.65496 63.65382 51.06027
#
# Poissons Ratio (x) = 0.00388 -0.08004
# Poissons Ratio (y) = 0.00388 -0.08004
# Poissons Ratio (z) = -0.09979 -0.09979
#
# Static dielectric constant tensor:
#      x y z
#    x 1.956820 0.000000 0.000000 
#    y 0.000000 1.956820 0.000000 
#    z 0.000000 0.000000 2.017730 
# 
# From -- ./inp_files/2770.got.cif
#   From: 2010.05.17/outbox.cif.g08.bks.cpg/sg94_2_cif.got.tgz:2770.got - 2010.06.03 19:43:16.
