data_PCOD9550463
_publ_section_title
;
Structure prediction by ZEFSAII (Michael W. Deem and Ramdas Pophale) SiO2 
 PCOD9550463
Probable space group: P 43 2 2
;
_chemical_formula_sum "Si O2"
_cell_formula_units_Z 36
_cell_length_a 11.995806
_cell_length_b 11.995806
_cell_length_c 13.141994
_cell_angle_alpha 90.000000
_cell_angle_beta 90.000000
_cell_angle_gamma 90.000000
_cell_volume 1891.124547
_symmetry_space_group_name_H-M "P 43 2 2"
_symmetry_group_IT_number 95
_symmetry_cell_setting 'tetragonal'
loop_
_space_group_symop_operation_xyz
x,y,z
-y,x,3/4+z
-x,-y,1/2+z
y,-x,1/4+z
x,-y,1/2-z
-x,y,-z
y,x,1/4-z
-y,-x,3/4-z
loop_
_atom_site_type_symbol
_atom_site_label
_atom_site_fract_x
_atom_site_fract_y
_atom_site_fract_z
Si Si1 0.759279 0.234337 0.680118
Si Si2 0.695811 0.635753 0.237417
Si Si3 0.000000 0.273719 0.000000
Si Si4 0.401400 0.906997 0.443892
Si Si5 0.695220 0.453506 0.935854
O O1 0.717488 0.235752 0.563678
O O2 0.855600 0.314762 0.724409
O O3 0.644399 0.272151 0.736259
O O4 0.789873 0.112148 0.721018
O O5 0.719757 0.500000 0.250000
O O6 0.568967 0.657665 0.270533
O O7 0.689568 0.689568 0.125000
O O8 0.027873 0.345436 0.100959
O O9 0.500000 0.972505 0.500000
O O10 0.459628 0.800375 0.389431
O O11 0.591011 0.408990 0.875000
#
# Coordination Sequence:
#
# PCOD9550463 Si02
#       5
#     8   8   4   8   8
#     4  10  21  37  55  81 119 154 202 244 292 350
#     4  12  21  29  48  80 121 159 190 236 283 356
#     4  10  22  38  56  86 110 156 208 244 294 356
#     4  10  19  37  61  82 115 157 194 251 302 361
#     4   9  18  30  48  75 112 153 191 224 281 349
#
# _framework density 19.036294000000002
#
# number of rings (size 3 to 8) (size 9 to 14) (size 15 to 20)
#    0.000    1.778    4.444    2.667    0.000    0.889 
#    0.000    0.000    0.000    0.000    0.000   18.667 
#    0.000    0.000    0.000    0.000    0.000    0.000 
#
# Total GULP energy -200430.131721 kJ/mol
# GULP energy per Si atom -5567.503659 kJ/mol
# Density = 1.899297 g / cm^3
# Si number density = 19.036294 Si / 1000 Ang^3
#
#
#
# Elastic Constant Matrix: (Units=GPa)
#
#
# Indices 1 2 3 4 5 6 
#
# 1 43.7504 25.1251 17.8179 0.0000 0.0000 0.0000
# 2 25.1251 43.7474 17.8217 0.0000 0.0000 0.0000
# 3 17.8179 17.8217 112.8299 0.0000 0.0000 0.0000
# 4 0.0000 0.0000 0.0000 44.3461 0.0000 0.0000
# 5 0.0000 0.0000 0.0000 0.0000 44.3470 0.0000
# 6 0.0000 0.0000 0.0000 0.0000 0.0000 1.1052
#
#
#
# Elastic Compliance Matrix: (Units=1/GPa)
#
#
# Indices 1 2 3 4 5 6 
#
# 1 0.034751 -0.018942 -0.002496 0.000000 0.000000 0.000000
# 2 -0.018942 0.034755 -0.002498 0.000000 0.000000 0.000000
# 3 -0.002496 -0.002498 0.009652 0.000000 0.000000 0.000000
# 4 0.000000 0.000000 0.000000 0.022550 0.000000 0.000000
# 5 0.000000 0.000000 0.000000 0.000000 0.022549 0.000000
# 6 0.000000 0.000000 0.000000 0.000000 0.000000 0.904809
#
#
# Mechanical properties :
#
#
# Convention : Reuss Voigt Hill
#
# Bulk Modulus (GPa) = 31.96329 35.76189 33.86259
# Shear Modulus (GPa) = 4.59826 27.26385 15.93105
#
# Velocity S-wave (km/s) = 1.55588 3.78855 2.89602
# Velocity P-wave (km/s) = 4.47826 6.16153 5.38606
#
# Compressibility (1/GPa) = 0.03128589
#
# Stress axis : x y z
#
# Youngs Moduli (GPa) = 28.77591 28.77296 103.60881
#
# Poissons Ratio (x) = 0.54501 0.25861
# Poissons Ratio (y) = 0.54506 0.25885
# Poissons Ratio (z) = 0.07183 0.07189
#
# Static dielectric constant tensor:
#      x y z
#    x 1.635670 0.000000 0.000000 
#    y 0.000000 1.635660 0.000000 
#    z 0.000000 0.000000 1.977110 
# 
# From -- ./inp_files/4680.got.cif
#   From: 2010.05.17/outbox.cif.g08.bks.cpg/sg95_3_cif.got.tgz:4680.got - 2010.06.03 19:46:49.
