data_PCOD9550209
_publ_section_title
;
Structure prediction by ZEFSAII (Michael W. Deem and Ramdas Pophale) SiO2 
 PCOD9550209
Probable space group: P 42 21 2
;
_chemical_formula_sum "Si O2"
_cell_formula_units_Z 48
_cell_length_a 8.507660
_cell_length_b 8.507660
_cell_length_c 31.392669
_cell_angle_alpha 90.000000
_cell_angle_beta 90.000000
_cell_angle_gamma 90.000000
_cell_volume 2272.210131
_symmetry_space_group_name_H-M "P 42 21 2"
_symmetry_group_IT_number 94
_symmetry_cell_setting 'tetragonal'
loop_
_space_group_symop_operation_xyz
x,y,z
1/2-y,1/2+x,1/2+z
-x,-y,z
1/2+y,1/2-x,1/2+z
1/2+x,1/2-y,1/2-z
1/2-x,1/2+y,1/2-z
y,x,-z
-y,-x,-z
loop_
_atom_site_type_symbol
_atom_site_label
_atom_site_fract_x
_atom_site_fract_y
_atom_site_fract_z
Si Si1 0.719493 0.663088 0.641316
Si Si2 0.683613 0.516957 0.880986
Si Si3 0.348481 0.901697 0.699057
Si Si4 0.500000 0.000000 0.907229
Si Si5 0.232217 0.267822 0.048720
Si Si6 0.162810 0.039621 0.773513
Si Si7 0.000000 0.000000 0.077489
O O1 0.754811 0.845553 0.633472
O O2 0.867737 0.570564 0.622847
O O3 0.683586 0.583090 0.687073
O O4 0.579419 0.622697 0.609464
O O5 0.500000 0.500000 0.890364
O O6 0.720021 0.611938 0.838173
O O7 0.756502 0.617814 0.919998
O O8 0.360165 0.720248 0.713041
O O9 0.500000 0.000000 0.682449
O O10 0.296936 0.005584 0.739540
O O11 0.421400 0.137528 0.935133
O O12 0.102218 0.128287 0.052329
O O13 0.283210 0.283210 0.000000
O O14 0.000000 0.000000 0.750483
#
# Coordination Sequence:
#
# PCOD9550209 Si02
#       7
#     8   8   8   4   8   8   4
#     4  11  23  42  72 100 144 186 234 291 352 428
#     4  12  26  45  68 104 141 190 233 295 362 429
#     4  12  27  44  71 103 144 191 244 299 355 422
#     4  10  22  44  66 100 136 188 228 282 364 422
#     4  11  25  46  73 104 142 180 241 297 366 441
#     4  12  25  45  67 105 141 190 240 296 354 423
#     4  10  23  44  70 106 136 186 234 292 365 430
#
# _framework density 21.124808000000002
#
# number of rings (size 3 to 8) (size 9 to 14) (size 15 to 20)
#    0.000    0.667    2.500    5.750    3.500    1.667 
#    0.000    1.667    0.000    0.000    0.000    0.000 
#    0.000    0.000    0.000    0.000    0.000    0.000 
#
# Total GULP energy -267909.467441 kJ/mol
# GULP energy per Si atom -5581.447238 kJ/mol
# Density = 2.107673 g / cm^3
# Si number density = 21.124808 Si / 1000 Ang^3
#
#
#
# Elastic Constant Matrix: (Units=GPa)
#
#
# Indices 1 2 3 4 5 6 
#
# 1 80.5399 5.1595 16.7181 0.0000 0.0000 0.0000
# 2 5.1595 80.5399 16.7181 0.0000 0.0000 0.0000
# 3 16.7181 16.7181 102.2520 0.0000 0.0000 0.0000
# 4 0.0000 0.0000 0.0000 8.8607 0.0000 0.0000
# 5 0.0000 0.0000 0.0000 0.0000 8.8607 0.0000
# 6 0.0000 0.0000 0.0000 0.0000 0.0000 24.1385
#
#
#
# Elastic Compliance Matrix: (Units=1/GPa)
#
#
# Indices 1 2 3 4 5 6 
#
# 1 0.012865 -0.000401 -0.002038 0.000000 0.000000 0.000000
# 2 -0.000401 0.012865 -0.002038 0.000000 0.000000 0.000000
# 3 -0.002038 -0.002038 0.010446 0.000000 0.000000 0.000000
# 4 0.000000 0.000000 0.000000 0.112858 0.000000 0.000000
# 5 0.000000 0.000000 0.000000 0.000000 0.112858 0.000000
# 6 0.000000 0.000000 0.000000 0.000000 0.000000 0.041428
#
#
# Mechanical properties :
#
#
# Convention : Reuss Voigt Hill
#
# Bulk Modulus (GPa) = 36.73445 37.83589 37.28517
# Shear Modulus (GPa) = 15.55950 23.35440 19.45695
#
# Velocity S-wave (km/s) = 2.71689 3.32858 3.03817
# Velocity P-wave (km/s) = 5.22197 5.72032 5.47682
#
# Compressibility (1/GPa) = 0.02722240
#
# Stress axis : x y z
#
# Youngs Moduli (GPa) = 77.73090 77.73090 95.72931
#
# Poissons Ratio (x) = 0.03118 0.19508
# Poissons Ratio (y) = 0.03118 0.19508
# Poissons Ratio (z) = 0.15840 0.15840
#
# Static dielectric constant tensor:
#      x y z
#    x 1.792850 0.000000 0.000000 
#    y 0.000000 1.792850 0.000000 
#    z 0.000000 0.000000 1.710360 
# 
# From -- ./inp_files/5661.got.cif
#   From: 2010.05.17/outbox.cif.g08.bks.cpg/sg94_3_cif.got.tgz:5661.got - 2010.06.03 19:43:16.
