data_PCOD9550290
_publ_section_title
;
Structure prediction by ZEFSAII (Michael W. Deem and Ramdas Pophale) SiO2 
 PCOD9550290
Probable space group: P 42 21 2
;
_chemical_formula_sum "Si O2"
_cell_formula_units_Z 48
_cell_length_a 8.991031
_cell_length_b 8.991031
_cell_length_c 30.290424
_cell_angle_alpha 90.000000
_cell_angle_beta 90.000000
_cell_angle_gamma 90.000000
_cell_volume 2448.636634
_symmetry_space_group_name_H-M "P 42 21 2"
_symmetry_group_IT_number 94
_symmetry_cell_setting 'tetragonal'
loop_
_space_group_symop_operation_xyz
x,y,z
1/2-y,1/2+x,1/2+z
-x,-y,z
1/2+y,1/2-x,1/2+z
1/2+x,1/2-y,1/2-z
1/2-x,1/2+y,1/2-z
y,x,-z
-y,-x,-z
loop_
_atom_site_type_symbol
_atom_site_label
_atom_site_fract_x
_atom_site_fract_y
_atom_site_fract_z
Si Si1 0.113398 0.191070 0.837762
Si Si2 0.000000 0.500000 0.940755
Si Si3 0.320947 0.988090 0.709965
Si Si4 0.994476 0.239477 0.008865
Si Si5 0.834052 0.320001 0.875099
Si Si6 0.500000 0.500000 0.261646
Si Si7 0.670825 0.027293 0.890262
O O1 0.190020 0.337236 0.818570
O O2 0.020827 0.134340 0.795652
O O3 0.992488 0.233860 0.874588
O O4 0.224408 0.069376 0.857761
O O5 0.137063 0.547120 0.909258
O O6 0.028186 0.364676 0.973336
O O7 0.500000 0.000000 0.727039
O O8 0.311566 0.117161 0.673678
O O9 0.164839 0.992452 0.738005
O O10 0.010858 0.295802 0.058800
O O11 0.110309 0.110309 0.000000
O O12 0.831603 0.168398 0.000000
O O13 0.710466 0.200719 0.885867
O O14 0.500000 0.000000 0.879460
#
# Coordination Sequence:
#
# PCOD9550290 Si02
#       7
#     8   4   8   8   8   4   8
#     4  11  24  44  66  96 129 175 222 281 332 413
#     4  12  20  42  68  94 134 174 218 278 338 410
#     4  10  26  45  67  98 134 183 228 285 350 409
#     4  11  24  38  66  99 130 173 226 279 333 406
#     4  11  22  45  68  93 134 180 220 275 350 405
#     4  12  26  42  72  98 139 171 240 278 352 418
#     4  12  25  41  66 100 136 172 226 279 341 410
#
# _framework density 19.602746
#
# number of rings (size 3 to 8) (size 9 to 14) (size 15 to 20)
#    0.000    0.833    6.667    1.000    9.333    0.667 
#    0.000    0.000    0.000    3.500    0.000    0.000 
#    0.000    0.000    0.000    0.000    0.000    0.000 
#
# Total GULP energy -267431.339890 kJ/mol
# GULP energy per Si atom -5571.486248 kJ/mol
# Density = 1.955813 g / cm^3
# Si number density = 19.602746 Si / 1000 Ang^3
#
#
#
# Elastic Constant Matrix: (Units=GPa)
#
#
# Indices 1 2 3 4 5 6 
#
# 1 113.2532 53.7758 52.0297 0.0000 0.0000 0.0000
# 2 53.7758 113.2527 52.0297 0.0000 0.0000 0.0000
# 3 52.0297 52.0297 98.7779 0.0000 0.0000 0.0000
# 4 0.0000 0.0000 0.0000 -261.7084 0.0000 0.0000
# 5 0.0000 0.0000 0.0000 0.0000 -261.1406 0.0000
# 6 0.0000 0.0000 0.0000 0.0000 0.0000 24.3669
#
#
#
# Elastic Compliance Matrix: (Units=1/GPa)
#
#
# Indices 1 2 3 4 5 6 
#
# 1 0.012862 -0.003951 -0.004694 0.000000 0.000000 0.000000
# 2 -0.003951 0.012862 -0.004694 0.000000 0.000000 0.000000
# 3 -0.004694 -0.004694 0.015069 0.000000 0.000000 0.000000
# 4 0.000000 0.000000 0.000000 -0.003821 0.000000 0.000000
# 5 0.000000 0.000000 0.000000 0.000000 -0.003829 0.000000
# 6 0.000000 0.000000 0.000000 0.000000 0.000000 0.041039
#
#
# Mechanical properties :
#
#
# Convention : Reuss Voigt Hill
#
# Bulk Modulus (GPa) = 70.84341 71.21711 71.03026
# Shear Modulus (GPa) = 47.36441 -88.53317 -20.58438
#
# Velocity S-wave (km/s) = 4.92083 -6.72768 -3.24400
# Velocity P-wave (km/s) = 8.27672 4.89284 4.72039
#
# Compressibility (1/GPa) = 0.01411564
#
# Stress axis : x y z
#
# Youngs Moduli (GPa) = 77.74721 77.74674 66.36330
#
# Poissons Ratio (x) = 0.30717 0.31150
# Poissons Ratio (y) = 0.30717 0.31150
# Poissons Ratio (z) = 0.36493 0.36494
#
# Static dielectric constant tensor:
#      x y z
#    x 1.963660 0.000000 0.000000 
#    y 0.000000 1.963230 0.000000 
#    z 0.000000 0.000000 1.697070 
# 
# From -- ./inp_files/5630.got.cif
#   From: 2010.05.17/outbox.cif.g08.bks.cpg/sg94_3_cif.got.tgz:5630.got - 2010.06.03 19:43:16.
