data_PCOD9550803
_publ_section_title
;
Structure prediction by ZEFSAII (Michael W. Deem and Ramdas Pophale) SiO2 
 PCOD9550803
Probable space group: P 43 21 2
;
_chemical_formula_sum "Si O2"
_cell_formula_units_Z 48
_cell_length_a 19.047737
_cell_length_b 19.047737
_cell_length_c 6.400346
_cell_angle_alpha 90.000000
_cell_angle_beta 90.000000
_cell_angle_gamma 90.000000
_cell_volume 2322.149757
_symmetry_space_group_name_H-M "P 43 21 2"
_symmetry_group_IT_number 96
_symmetry_cell_setting 'tetragonal'
loop_
_space_group_symop_operation_xyz
x,y,z
1/2-y,1/2+x,3/4+z
-x,-y,1/2+z
1/2+y,1/2-x,1/4+z
1/2+x,1/2-y,1/4-z
1/2-x,1/2+y,3/4-z
y,x,-z
-y,-x,1/2-z
loop_
_atom_site_type_symbol
_atom_site_label
_atom_site_fract_x
_atom_site_fract_y
_atom_site_fract_z
Si Si1 0.488615 0.908476 0.738089
Si Si2 0.652050 0.759110 0.682187
Si Si3 0.642504 0.097560 0.761715
Si Si4 0.773953 0.055788 0.040944
Si Si5 0.923150 0.722624 0.715381
Si Si6 0.132631 0.867370 0.250000
Si Si7 0.205858 0.205858 0.000000
O O1 0.534496 0.928877 0.536089
O O2 0.457851 0.830665 0.702352
O O3 0.536168 0.909891 0.947252
O O4 0.617271 0.736881 0.463766
O O5 0.637947 0.696753 0.840627
O O6 0.733541 0.777480 0.667675
O O7 0.617733 0.826954 0.785055
O O8 0.706140 0.065384 0.894356
O O9 0.613987 0.166410 0.878392
O O10 0.765989 0.982723 0.162670
O O11 0.844588 0.067539 0.901179
O O12 0.868165 0.774768 0.603868
#
# Coordination Sequence:
#
# PCOD9550803 Si02
#       7
#     8   8   8   8   8   4   4
#     4  12  23  38  58  89 135 190 234 272 326 418
#     4  11  19  40  64  92 127 173 225 270 334 406
#     4  11  22  39  63  91 131 185 219 273 337 404
#     4  11  21  39  60  94 128 173 231 281 334 415
#     4  12  24  39  61  95 139 179 232 284 343 420
#     4  10  20  34  66  88 126 167 219 284 330 394
#     4  12  22  40  64  92 136 179 219 292 348 390
#
# _framework density 20.670501999999999
#
# number of rings (size 3 to 8) (size 9 to 14) (size 15 to 20)
#    0.000    0.667    5.000    5.000    0.000    0.000 
#    0.000    0.000    0.000    0.000    0.000    0.000 
#    5.000    1.333    0.000    0.000    0.000    0.000 
#
# Total GULP energy -267907.274023 kJ/mol
# GULP energy per Si atom -5581.401542 kJ/mol
# Density = 2.062345 g / cm^3
# Si number density = 20.670502 Si / 1000 Ang^3
#
#
#
# Elastic Constant Matrix: (Units=GPa)
#
#
# Indices 1 2 3 4 5 6 
#
# 1 140.0957 15.6796 38.9565 0.0000 0.0000 0.0000
# 2 15.6796 140.0873 38.9668 0.0000 0.0000 0.0000
# 3 38.9565 38.9668 87.5763 0.0000 0.0000 0.0000
# 4 0.0000 0.0000 0.0000 0.5777 0.0000 0.0000
# 5 0.0000 0.0000 0.0000 0.0000 0.5762 0.0000
# 6 0.0000 0.0000 0.0000 0.0000 0.0000 33.1000
#
#
#
# Elastic Compliance Matrix: (Units=1/GPa)
#
#
# Indices 1 2 3 4 5 6 
#
# 1 0.008147 0.000110 -0.003673 0.000000 0.000000 0.000000
# 2 0.000110 0.008148 -0.003674 0.000000 0.000000 0.000000
# 3 -0.003673 -0.003674 0.014687 0.000000 0.000000 0.000000
# 4 0.000000 0.000000 0.000000 1.731040 0.000000 0.000000
# 5 0.000000 0.000000 0.000000 0.000000 1.735464 0.000000
# 6 0.000000 0.000000 0.000000 0.000000 0.000000 0.030211
#
#
# Mechanical properties :
#
#
# Convention : Reuss Voigt Hill
#
# Bulk Modulus (GPa) = 60.57807 61.66278 61.12043
# Shear Modulus (GPa) = 1.40937 25.12788 13.26862
#
# Velocity S-wave (km/s) = 0.82662 3.49038 2.53635
# Velocity P-wave (km/s) = 5.50284 6.79263 6.18146
#
# Compressibility (1/GPa) = 0.01650762
#
# Stress axis : x y z
#
# Youngs Moduli (GPa) = 122.74446 122.72693 68.08604
#
# Poissons Ratio (x) = -0.01347 0.25007
# Poissons Ratio (y) = -0.01347 0.25017
# Poissons Ratio (z) = 0.45082 0.45094
#
# Static dielectric constant tensor:
#      x y z
#    x 1.777590 0.000000 0.000000 
#    y 0.000000 1.777580 0.000000 
#    z 0.000000 0.000000 2.105160 
# 
# From -- ./inp_files/666.got.cif
#   From: 2010.05.17/outbox.cif.g08.bks.cpg/sg96_1_cif.got.tgz:666.got - 2010.06.03 19:52:08.
