data_PCOD9550518
_publ_section_title
;
Structure prediction by ZEFSAII (Michael W. Deem and Ramdas Pophale) SiO2 
 PCOD9550518
Probable space group: P 43 2 2
;
_chemical_formula_sum "Si O2"
_cell_formula_units_Z 60
_cell_length_a 17.901763
_cell_length_b 17.901763
_cell_length_c 8.666417
_cell_angle_alpha 90.000000
_cell_angle_beta 90.000000
_cell_angle_gamma 90.000000
_cell_volume 2777.353682
_symmetry_space_group_name_H-M "P 43 2 2"
_symmetry_group_IT_number 95
_symmetry_cell_setting 'tetragonal'
loop_
_space_group_symop_operation_xyz
x,y,z
-y,x,3/4+z
-x,-y,1/2+z
y,-x,1/4+z
x,-y,1/2-z
-x,y,-z
y,x,1/4-z
-y,-x,3/4-z
loop_
_atom_site_type_symbol
_atom_site_label
_atom_site_fract_x
_atom_site_fract_y
_atom_site_fract_z
Si Si1 0.233735 0.386301 0.724129
Si Si2 0.191864 0.508186 0.497720
Si Si3 0.847189 0.234190 0.236171
Si Si4 0.400639 0.599362 0.875000
Si Si5 0.286548 0.987491 0.569697
Si Si6 0.080933 0.185120 0.073390
Si Si7 0.435886 0.040605 0.093845
Si Si8 0.533791 0.357741 0.843936
O O1 0.201267 0.424559 0.567710
O O2 0.211762 0.301124 0.747904
O O3 0.323944 0.395873 0.726235
O O4 0.196617 0.434785 0.858887
O O5 0.118462 0.528066 0.401593
O O6 0.269288 0.524639 0.412044
O O7 0.824472 0.175528 0.375000
O O8 0.928500 0.271201 0.261510
O O9 0.858064 0.207133 0.058142
O O10 0.479207 0.609038 0.787735
O O11 0.234359 0.929720 0.477090
O O12 0.367897 0.957837 0.523711
O O13 0.275582 0.000000 0.750000
O O14 0.102870 0.102870 0.125000
O O15 0.000000 0.187804 0.000000
O O16 0.410666 0.000000 0.250000
O O17 0.500000 0.997178 0.000000
O O18 0.619100 0.380901 0.875000
O O19 0.500000 0.390068 0.000000
#
# Coordination Sequence:
#
# PCOD9550518 Si02
#       8
#     8   8   8   4   8   8   8   8
#     4  10  20  39  65  90 131 177 224 283 354 415
#     4  10  23  41  62  89 133 173 226 290 348 416
#     4  11  22  40  70 102 136 182 232 287 357 426
#     4  10  22  42  62  96 126 168 226 294 346 432
#     4  11  24  43  67 100 139 178 237 288 348 430
#     4  10  22  44  68 101 142 182 231 293 352 426
#     4  12  26  42  64  95 133 182 231 285 352 423
#     4  11  24  41  63  89 123 167 225 287 356 414
#
# _framework density 21.603300000000001
#
# number of rings (size 3 to 8) (size 9 to 14) (size 15 to 20)
#    0.000    1.333    0.667    5.200    6.533    1.067 
#    0.000    7.333    0.000    0.000    0.000    0.000 
#    0.000    0.000    0.000    0.000    0.000    0.000 
#
# Total GULP energy -334440.458519 kJ/mol
# GULP energy per Si atom -5574.007642 kJ/mol
# Density = 2.155413 g / cm^3
# Si number density = 21.603300 Si / 1000 Ang^3
#
#
#
# Elastic Constant Matrix: (Units=GPa)
#
#
# Indices 1 2 3 4 5 6 
#
# 1 65.1198 51.6198 37.1233 0.0000 0.0000 0.0000
# 2 51.6198 65.1221 37.1239 0.0000 0.0000 0.0000
# 3 37.1233 37.1239 123.4767 0.0000 0.0000 0.0000
# 4 0.0000 0.0000 0.0000 24.9247 0.0000 0.0000
# 5 0.0000 0.0000 0.0000 0.0000 24.9236 0.0000
# 6 0.0000 0.0000 0.0000 0.0000 0.0000 27.8438
#
#
#
# Elastic Compliance Matrix: (Units=1/GPa)
#
#
# Indices 1 2 3 4 5 6 
#
# 1 0.042330 -0.031738 -0.003184 0.000000 0.000000 0.000000
# 2 -0.031738 0.042329 -0.003184 0.000000 0.000000 0.000000
# 3 -0.003184 -0.003184 0.010013 0.000000 0.000000 0.000000
# 4 0.000000 0.000000 0.000000 0.040121 0.000000 0.000000
# 5 0.000000 0.000000 0.000000 0.000000 0.040123 0.000000
# 6 0.000000 0.000000 0.000000 0.000000 0.000000 0.035915
#
#
# Mechanical properties :
#
#
# Convention : Reuss Voigt Hill
#
# Bulk Modulus (GPa) = 54.17497 56.16141 55.16819
# Shear Modulus (GPa) = 17.05336 24.06185 20.55760
#
# Velocity S-wave (km/s) = 2.81265 3.34099 3.08814
# Velocity P-wave (km/s) = 5.97324 6.39813 6.18933
#
# Compressibility (1/GPa) = 0.01845871
#
# Stress axis : x y z
#
# Youngs Moduli (GPa) = 23.62373 23.62458 99.86605
#
# Poissons Ratio (x) = 0.74981 0.31801
# Poissons Ratio (y) = 0.74978 0.31799
# Poissons Ratio (z) = 0.07523 0.07523
#
# Static dielectric constant tensor:
#      x y z
#    x 1.817420 0.000000 0.000000 
#    y 0.000000 1.817420 0.000000 
#    z 0.000000 0.000000 1.896380 
# 
# From -- ./inp_files/2819.got.cif
#   From: 2010.05.17/outbox.cif.g08.bks.cpg/sg95_2_cif.got.tgz:2819.got - 2010.06.03 19:46:49.
