data_PCOD9550093
_publ_section_title
;
Structure prediction by ZEFSAII (Michael W. Deem and Ramdas Pophale) SiO2 
 PCOD9550093
Probable space group: P 42 21 2
;
_chemical_formula_sum "Si O2"
_cell_formula_units_Z 48
_cell_length_a 9.164711
_cell_length_b 9.164711
_cell_length_c 29.927492
_cell_angle_alpha 90.000000
_cell_angle_beta 90.000000
_cell_angle_gamma 90.000000
_cell_volume 2513.667745
_symmetry_space_group_name_H-M "P 42 21 2"
_symmetry_group_IT_number 94
_symmetry_cell_setting 'tetragonal'
loop_
_space_group_symop_operation_xyz
x,y,z
1/2-y,1/2+x,1/2+z
-x,-y,z
1/2+y,1/2-x,1/2+z
1/2+x,1/2-y,1/2-z
1/2-x,1/2+y,1/2-z
y,x,-z
-y,-x,-z
loop_
_atom_site_type_symbol
_atom_site_label
_atom_site_fract_x
_atom_site_fract_y
_atom_site_fract_z
Si Si1 0.826802 0.671580 0.458423
Si Si2 0.814835 0.837572 0.872231
Si Si3 0.824143 0.672293 0.958654
Si Si4 0.153032 0.826686 0.870244
Si Si5 0.390142 0.868311 0.283244
Si Si6 0.605869 0.636825 0.273195
O O1 0.749490 0.749490 0.500000
O O2 0.794990 0.497773 0.460578
O O3 0.771377 0.719133 0.409186
O O4 0.999306 0.693403 0.460627
O O5 0.761375 0.738984 0.912806
O O6 0.716943 0.839802 0.827988
O O7 0.981725 0.788538 0.863741
O O8 0.828664 0.006692 0.886733
O O9 0.747021 0.747021 0.000000
O O10 0.206202 0.830508 0.819166
O O11 0.492677 0.756949 0.254823
O O12 0.242525 0.906869 0.256926
O O13 0.500000 0.000000 0.293735
O O14 0.500000 0.500000 0.284255
#
# Coordination Sequence:
#
# PCOD9550093 Si02
#       6
#     8   8   8   8   8   8
#     4  10  21  37  61  90 112 149 202 242 297 358
#     4   9  18  37  59  83 117 152 200 242 290 352
#     4  10  21  38  59  87 119 152 189 246 301 356
#     4   9  17  36  62  83 113 154 200 247 283 347
#     4  11  23  37  61  93 122 165 204 256 311 365
#     4  11  21  41  61  88 126 158 206 253 306 366
#
# _framework density 19.095602
#
# number of rings (size 3 to 8) (size 9 to 14) (size 15 to 20)
#    0.000    2.000    3.333    2.000    0.000    3.333 
#   12.000    0.000    0.000    0.000    0.000    0.000 
#    0.000    0.000    0.000    0.000    0.000    0.000 
#
# Total GULP energy -267466.032832 kJ/mol
# GULP energy per Si atom -5572.209017 kJ/mol
# Density = 1.905214 g / cm^3
# Si number density = 19.095602 Si / 1000 Ang^3
#
#
#
# Elastic Constant Matrix: (Units=GPa)
#
#
# Indices 1 2 3 4 5 6 
#
# 1 53.2512 40.0366 51.3016 0.0000 0.0000 0.0000
# 2 40.0366 53.2512 51.3016 0.0000 0.0000 0.0000
# 3 51.3016 51.3016 112.5305 0.0000 0.0000 0.0000
# 4 0.0000 0.0000 0.0000 18.3280 0.0000 0.0000
# 5 0.0000 0.0000 0.0000 0.0000 18.3280 0.0000
# 6 0.0000 0.0000 0.0000 0.0000 0.0000 22.4991
#
#
#
# Elastic Compliance Matrix: (Units=1/GPa)
#
#
# Indices 1 2 3 4 5 6 
#
# 1 0.048587 -0.027087 -0.009802 0.000000 0.000000 0.000000
# 2 -0.027087 0.048587 -0.009802 0.000000 0.000000 0.000000
# 3 -0.009802 -0.009802 0.017823 0.000000 0.000000 0.000000
# 4 0.000000 0.000000 0.000000 0.054561 0.000000 0.000000
# 5 0.000000 0.000000 0.000000 0.000000 0.054561 0.000000
# 6 0.000000 0.000000 0.000000 0.000000 0.000000 0.044446
#
#
# Mechanical properties :
#
#
# Convention : Reuss Voigt Hill
#
# Bulk Modulus (GPa) = 46.26043 56.03472 51.14757
# Shear Modulus (GPa) = 13.54457 16.92391 15.23424
#
# Velocity S-wave (km/s) = 2.66616 2.98026 2.82758
# Velocity P-wave (km/s) = 5.81001 6.42267 6.12400
#
# Compressibility (1/GPa) = 0.02161675
#
# Stress axis : x y z
#
# Youngs Moduli (GPa) = 20.58170 20.58170 56.10619
#
# Poissons Ratio (x) = 0.55750 0.54993
# Poissons Ratio (y) = 0.55750 0.54993
# Poissons Ratio (z) = 0.20173 0.20173
#
# Static dielectric constant tensor:
#      x y z
#    x 1.687190 0.000000 0.000000 
#    y 0.000000 1.687190 0.000000 
#    z 0.000000 0.000000 1.678330 
# 
# From -- ./inp_files/5578.got.cif
#   From: 2010.05.17/outbox.cif.g08.bks.cpg/sg94_3_cif.got.tgz:5578.got - 2010.06.03 19:43:16.
