data_PCOD9550614
_publ_section_title
;
Structure prediction by ZEFSAII (Michael W. Deem and Ramdas Pophale) SiO2 
 PCOD9550614
Probable space group: P 43 2 2
;
_chemical_formula_sum "Si O2"
_cell_formula_units_Z 28
_cell_length_a 7.972463
_cell_length_b 7.972463
_cell_length_c 20.837669
_cell_angle_alpha 90.000000
_cell_angle_beta 90.000000
_cell_angle_gamma 90.000000
_cell_volume 1324.445707
_symmetry_space_group_name_H-M "P 43 2 2"
_symmetry_group_IT_number 95
_symmetry_cell_setting 'tetragonal'
loop_
_space_group_symop_operation_xyz
x,y,z
-y,x,3/4+z
-x,-y,1/2+z
y,-x,1/4+z
x,-y,1/2-z
-x,y,-z
y,x,1/4-z
-y,-x,3/4-z
loop_
_atom_site_type_symbol
_atom_site_label
_atom_site_fract_x
_atom_site_fract_y
_atom_site_fract_z
Si Si1 0.517669 0.500000 0.750000
Si Si2 0.680683 0.978616 0.326687
Si Si3 0.158141 0.356077 0.044247
Si Si4 0.353500 0.353500 0.625000
Si Si5 0.948992 0.051009 0.875000
O O1 0.630027 0.336792 0.761652
O O2 0.405820 0.460564 0.687249
O O3 0.628859 0.159175 0.354940
O O4 0.720489 0.000000 0.250000
O O5 0.522982 0.854857 0.339142
O O6 0.854910 0.923586 0.359582
O O7 0.117378 0.173153 0.069737
O O8 0.000000 0.393338 0.000000
#
# Coordination Sequence:
#
# PCOD9550614 Si02
#       5
#     4   8   8   4   4
#     4  12  24  44  74 106 144 194 236 296 372 432
#     4  10  22  45  66 101 141 180 233 300 354 422
#     4  11  24  44  64  99 142 178 231 296 345 424
#     4  11  23  42  74 102 141 191 238 294 368 435
#     4  11  25  40  72 100 135 183 238 284 356 423
#
# _framework density 21.140920000000001
#
# number of rings (size 3 to 8) (size 9 to 14) (size 15 to 20)
#    0.000    1.143    5.714    1.714    4.000    2.286 
#    0.000    1.429    0.000    0.000    0.000    0.000 
#    0.000    0.000    0.000    0.000    0.000    0.000 
#
# Total GULP energy -156150.458374 kJ/mol
# GULP energy per Si atom -5576.802085 kJ/mol
# Density = 2.109280 g / cm^3
# Si number density = 21.140920 Si / 1000 Ang^3
#
#
#
# Elastic Constant Matrix: (Units=GPa)
#
#
# Indices 1 2 3 4 5 6 
#
# 1 104.1428 50.0919 25.8836 0.0000 0.0000 0.0000
# 2 50.0919 104.1402 25.8834 0.0000 0.0000 0.0000
# 3 25.8836 25.8834 88.3537 0.0000 0.0000 0.0000
# 4 0.0000 0.0000 0.0000 25.7343 0.0000 0.0000
# 5 0.0000 0.0000 0.0000 0.0000 25.7345 0.0000
# 6 0.0000 0.0000 0.0000 0.0000 0.0000 14.6051
#
#
#
# Elastic Compliance Matrix: (Units=1/GPa)
#
#
# Indices 1 2 3 4 5 6 
#
# 1 0.012846 -0.005655 -0.002107 0.000000 0.000000 0.000000
# 2 -0.005655 0.012846 -0.002107 0.000000 0.000000 0.000000
# 3 -0.002107 -0.002107 0.012552 0.000000 0.000000 0.000000
# 4 0.000000 0.000000 0.000000 0.038859 0.000000 0.000000
# 5 0.000000 0.000000 0.000000 0.000000 0.038858 0.000000
# 6 0.000000 0.000000 0.000000 0.000000 0.000000 0.068469
#
#
# Mechanical properties :
#
#
# Convention : Reuss Voigt Hill
#
# Bulk Modulus (GPa) = 54.03175 55.59497 54.81336
# Shear Modulus (GPa) = 23.77136 26.19996 24.98566
#
# Velocity S-wave (km/s) = 3.35688 3.52419 3.44155
# Velocity P-wave (km/s) = 6.37481 6.55090 6.46346
#
# Compressibility (1/GPa) = 0.01850764
#
# Stress axis : x y z
#
# Youngs Moduli (GPa) = 77.84553 77.84351 79.66618
#
# Poissons Ratio (x) = 0.44024 0.16782
# Poissons Ratio (y) = 0.44025 0.16782
# Poissons Ratio (z) = 0.16398 0.16398
#
# Static dielectric constant tensor:
#      x y z
#    x 1.733870 0.000000 0.000000 
#    y 0.000000 1.733900 0.000000 
#    z 0.000000 0.000000 1.666450 
# 
# From -- ./inp_files/5380.got.cif
#   From: 2010.05.17/outbox.cif.g08.bks.cpg/sg95_3_cif.got.tgz:5380.got - 2010.06.03 19:46:49.
