data_PCOD9550562
_publ_section_title
;
Structure prediction by ZEFSAII (Michael W. Deem and Ramdas Pophale) SiO2 
 PCOD9550562
Probable space group: P 43 2 2
;
_chemical_formula_sum "Si O2"
_cell_formula_units_Z 40
_cell_length_a 14.430423
_cell_length_b 14.430423
_cell_length_c 9.096022
_cell_angle_alpha 90.000000
_cell_angle_beta 90.000000
_cell_angle_gamma 90.000000
_cell_volume 1894.129315
_symmetry_space_group_name_H-M "P 43 2 2"
_symmetry_group_IT_number 95
_symmetry_cell_setting 'tetragonal'
loop_
_space_group_symop_operation_xyz
x,y,z
-y,x,3/4+z
-x,-y,1/2+z
y,-x,1/4+z
x,-y,1/2-z
-x,y,-z
y,x,1/4-z
-y,-x,3/4-z
loop_
_atom_site_type_symbol
_atom_site_label
_atom_site_fract_x
_atom_site_fract_y
_atom_site_fract_z
Si Si1 0.195722 0.845327 0.602560
Si Si2 0.657220 0.904692 0.180894
Si Si3 0.691999 0.655015 0.456232
Si Si4 0.470441 0.247675 0.828404
Si Si5 0.018599 0.741997 0.655656
O O1 0.241333 0.881987 0.752574
O O2 0.242831 0.744945 0.569802
O O3 0.087105 0.827574 0.619862
O O4 0.225970 0.922949 0.483242
O O5 0.591904 0.827880 0.247470
O O6 0.623995 0.000000 0.250000
O O7 0.673469 0.924446 0.011114
O O8 0.661173 0.661173 0.625000
O O9 0.737485 0.554773 0.465727
O O10 0.601141 0.667127 0.355368
O O11 0.500000 0.221944 0.000000
O O12 0.000000 0.695267 0.500000
#
# Coordination Sequence:
#
# PCOD9550562 Si02
#       5
#     8   8   8   8   8
#     4  10  21  39  62  88 123 165 212 263 316 374
#     4   9  20  39  61  90 125 164 210 263 317 373
#     4   9  17  34  61  90 120 159 205 258 317 375
#     4   9  18  35  64  92 123 164 208 262 323 385
#     4  11  21  37  62  92 126 168 212 260 319 383
#
# _framework density 21.117881000000001
#
# number of rings (size 3 to 8) (size 9 to 14) (size 15 to 20)
#    0.000    2.400    0.000    2.400    0.000    1.600 
#    0.000   21.000    0.000   38.400    0.000    0.000 
#    0.000    0.000    0.000    0.000    0.000    0.000 
#
# Total GULP energy -222884.022135 kJ/mol
# GULP energy per Si atom -5572.100553 kJ/mol
# Density = 2.106982 g / cm^3
# Si number density = 21.117881 Si / 1000 Ang^3
#
#
#
# Elastic Constant Matrix: (Units=GPa)
#
#
# Indices 1 2 3 4 5 6 
#
# 1 77.0947 67.7569 45.0277 0.0000 0.0000 0.0000
# 2 67.7569 77.0947 45.0277 0.0000 0.0000 0.0000
# 3 45.0277 45.0277 133.7019 0.0000 0.0000 0.0000
# 4 0.0000 0.0000 0.0000 19.7123 0.0000 0.0000
# 5 0.0000 0.0000 0.0000 0.0000 19.7123 0.0000
# 6 0.0000 0.0000 0.0000 0.0000 0.0000 9.5121
#
#
#
# Elastic Compliance Matrix: (Units=1/GPa)
#
#
# Indices 1 2 3 4 5 6 
#
# 1 0.057912 -0.049180 -0.002941 0.000000 0.000000 0.000000
# 2 -0.049180 0.057912 -0.002941 0.000000 0.000000 0.000000
# 3 -0.002941 -0.002941 0.009460 0.000000 0.000000 0.000000
# 4 0.000000 0.000000 0.000000 0.050730 0.000000 0.000000
# 5 0.000000 0.000000 0.000000 0.000000 0.050730 0.000000
# 6 0.000000 0.000000 0.000000 0.000000 0.000000 0.105129
#
#
# Mechanical properties :
#
#
# Convention : Reuss Voigt Hill
#
# Bulk Modulus (GPa) = 65.95863 67.05729 66.50796
# Shear Modulus (GPa) = 11.18446 18.45927 14.82186
#
# Velocity S-wave (km/s) = 2.30384 2.95974 2.65214
# Velocity P-wave (km/s) = 6.19502 6.59566 6.39848
#
# Compressibility (1/GPa) = 0.01516102
#
# Stress axis : x y z
#
# Youngs Moduli (GPa) = 17.26759 17.26759 105.70783
#
# Poissons Ratio (x) = 0.84922 0.31085
# Poissons Ratio (y) = 0.84922 0.31085
# Poissons Ratio (z) = 0.05078 0.05078
#
# Static dielectric constant tensor:
#      x y z
#    x 1.848250 0.000000 0.000000 
#    y 0.000000 1.848250 0.000000 
#    z 0.000000 0.000000 1.836290 
# 
# From -- ./inp_files/2361.got.cif
#   From: 2010.05.17/outbox.cif.g08.bks.cpg/sg95_2_cif.got.tgz:2361.got - 2010.06.03 19:46:49.
