data_PCOD9550114
_publ_section_title
;
Structure prediction by ZEFSAII (Michael W. Deem and Ramdas Pophale) SiO2 
 PCOD9550114
Probable space group: P 42 21 2
;
_chemical_formula_sum "Si O2"
_cell_formula_units_Z 40
_cell_length_a 14.436757
_cell_length_b 14.436757
_cell_length_c 8.941369
_cell_angle_alpha 90.000000
_cell_angle_beta 90.000000
_cell_angle_gamma 90.000000
_cell_volume 1863.559704
_symmetry_space_group_name_H-M "P 42 21 2"
_symmetry_group_IT_number 94
_symmetry_cell_setting 'tetragonal'
loop_
_space_group_symop_operation_xyz
x,y,z
1/2-y,1/2+x,1/2+z
-x,-y,z
1/2+y,1/2-x,1/2+z
1/2+x,1/2-y,1/2-z
1/2-x,1/2+y,1/2-z
y,x,-z
-y,-x,-z
loop_
_atom_site_type_symbol
_atom_site_label
_atom_site_fract_x
_atom_site_fract_y
_atom_site_fract_z
Si Si1 0.590344 0.564297 0.838296
Si Si2 0.474121 0.228786 0.311046
Si Si3 0.525955 0.342524 0.592692
Si Si4 0.412692 0.936945 0.391144
Si Si5 0.328257 0.103547 0.202469
O O1 0.500000 0.500000 0.849688
O O2 0.683741 0.512283 0.795317
O O3 0.556597 0.628621 0.702471
O O4 0.607852 0.607852 0.000000
O O5 0.487677 0.269221 0.475010
O O6 0.546036 0.145208 0.288070
O O7 0.372008 0.186557 0.296422
O O8 0.574248 0.425752 0.500000
O O9 0.603571 0.281808 0.677847
O O10 0.383458 0.884841 0.544489
O O11 0.500000 0.000000 0.437740
O O12 0.350723 0.007350 0.292421
#
# Coordination Sequence:
#
# PCOD9550114 Si02
#       5
#     8   8   8   8   8
#     4  11  24  42  67  93 125 174 226 278 326 393
#     4  10  21  39  68  96 126 178 219 265 337 407
#     4  11  23  44  68  93 135 182 223 278 340 404
#     4   9  18  37  63  95 131 171 212 267 338 405
#     4  10  22  38  66 101 138 171 222 281 345 405
#
# _framework density 21.464296000000001
#
# number of rings (size 3 to 8) (size 9 to 14) (size 15 to 20)
#    0.000    1.800    2.000    2.400    2.800    0.800 
#    3.600    0.000   13.200    0.000    0.000    0.000 
#    0.000    0.000    0.000    0.000    0.000    0.000 
#
# Total GULP energy -222906.791328 kJ/mol
# GULP energy per Si atom -5572.669783 kJ/mol
# Density = 2.141544 g / cm^3
# Si number density = 21.464296 Si / 1000 Ang^3
#
#
#
# Elastic Constant Matrix: (Units=GPa)
#
#
# Indices 1 2 3 4 5 6 
#
# 1 80.6899 21.1542 19.0124 0.0000 0.0000 0.0000
# 2 21.1542 80.6881 19.0125 0.0000 0.0000 0.0000
# 3 19.0124 19.0125 72.7574 0.0000 0.0000 0.0000
# 4 0.0000 0.0000 0.0000 35.0446 0.0000 0.0000
# 5 0.0000 0.0000 0.0000 0.0000 35.0465 0.0000
# 6 0.0000 0.0000 0.0000 0.0000 0.0000 17.0901
#
#
#
# Elastic Compliance Matrix: (Units=1/GPa)
#
#
# Indices 1 2 3 4 5 6 
#
# 1 0.013839 -0.002958 -0.002843 0.000000 0.000000 0.000000
# 2 -0.002958 0.013839 -0.002843 0.000000 0.000000 0.000000
# 3 -0.002843 -0.002843 0.015230 0.000000 0.000000 0.000000
# 4 0.000000 0.000000 0.000000 0.028535 0.000000 0.000000
# 5 0.000000 0.000000 0.000000 0.000000 0.028534 0.000000
# 6 0.000000 0.000000 0.000000 0.000000 0.000000 0.058513
#
#
# Mechanical properties :
#
#
# Convention : Reuss Voigt Hill
#
# Bulk Modulus (GPa) = 39.03431 39.16595 39.10013
# Shear Modulus (GPa) = 27.12696 29.09999 28.11348
#
# Velocity S-wave (km/s) = 3.55888 3.68603 3.62301
# Velocity P-wave (km/s) = 5.92559 6.03344 5.97976
#
# Compressibility (1/GPa) = 0.02561848
#
# Stress axis : x y z
#
# Youngs Moduli (GPa) = 72.26173 72.26000 65.65874
#
# Poissons Ratio (x) = 0.21376 0.18668
# Poissons Ratio (y) = 0.21376 0.18669
# Poissons Ratio (z) = 0.20545 0.20546
#
# Static dielectric constant tensor:
#      x y z
#    x 1.814170 0.000000 0.000000 
#    y 0.000000 1.814170 0.000000 
#    z 0.000000 0.000000 1.883360 
# 
# From -- ./inp_files/1450.got.cif
#   From: 2010.05.17/outbox.cif.g08.bks.cpg/sg94_1_cif.got.tgz:1450.got - 2010.06.03 19:43:16.
