data_PCOD9550011
_publ_section_title
;
Structure prediction by ZEFSAII (Michael W. Deem and Ramdas Pophale) SiO2 
 PCOD9550011
Probable space group: P 42 21 2
;
_chemical_formula_sum "Si O2"
_cell_formula_units_Z 48
_cell_length_a 11.722081
_cell_length_b 11.722081
_cell_length_c 19.507852
_cell_angle_alpha 90.000000
_cell_angle_beta 90.000000
_cell_angle_gamma 90.000000
_cell_volume 2680.518989
_symmetry_space_group_name_H-M "P 42 21 2"
_symmetry_group_IT_number 94
_symmetry_cell_setting 'tetragonal'
loop_
_space_group_symop_operation_xyz
x,y,z
1/2-y,1/2+x,1/2+z
-x,-y,z
1/2+y,1/2-x,1/2+z
1/2+x,1/2-y,1/2-z
1/2-x,1/2+y,1/2-z
y,x,-z
-y,-x,-z
loop_
_atom_site_type_symbol
_atom_site_label
_atom_site_fract_x
_atom_site_fract_y
_atom_site_fract_z
Si Si1 0.978094 0.184378 0.044822
Si Si2 0.493169 0.136318 0.574262
Si Si3 0.192454 0.776928 0.847619
Si Si4 0.127326 0.116422 0.708558
Si Si5 0.135250 0.859222 0.696745
Si Si6 0.298651 0.677556 0.362075
O O1 0.886935 0.202327 0.104990
O O2 0.101572 0.165848 0.080616
O O3 0.916886 0.083115 0.000000
O O4 0.987733 0.296655 0.997899
O O5 0.384552 0.181831 0.616064
O O6 0.597280 0.194601 0.615113
O O7 0.500000 0.000000 0.569047
O O8 0.309356 0.715880 0.831052
O O9 0.143553 0.816212 0.774864
O O10 0.139026 0.144638 0.789873
O O11 0.997940 0.125235 0.683887
O O12 0.179387 0.990482 0.694548
O O13 0.201390 0.764718 0.651723
#
# Coordination Sequence:
#
# PCOD9550011 Si02
#       6
#     8   8   8   8   8   8
#     4  10  23  39  62  85 117 161 206 256 299 370
#     4  11  23  38  57  82 117 157 198 247 295 355
#     4  10  20  37  55  85 113 152 193 241 309 352
#     4  10  20  36  59  85 119 156 192 248 306 374
#     4  10  20  35  58  84 118 153 190 248 299 377
#     4  11  21  37  58  89 117 154 205 250 310 364
#
# _framework density 17.906980000000001
#
# number of rings (size 3 to 8) (size 9 to 14) (size 15 to 20)
#    0.000    1.667    3.333    1.500    0.000    6.000 
#    0.000    0.000    0.000    0.000    0.000   10.500 
#    0.000    0.000    0.000    0.000    0.000    0.000 
#
# Total GULP energy -267477.352939 kJ/mol
# GULP energy per Si atom -5572.444853 kJ/mol
# Density = 1.786622 g / cm^3
# Si number density = 17.906980 Si / 1000 Ang^3
#
#
#
# Elastic Constant Matrix: (Units=GPa)
#
#
# Indices 1 2 3 4 5 6 
#
# 1 112.0448 41.9522 33.1831 0.0000 0.0000 0.0000
# 2 41.9522 112.0440 33.1824 0.0000 0.0000 0.0000
# 3 33.1831 33.1824 64.4749 0.0000 0.0000 0.0000
# 4 0.0000 0.0000 0.0000 15.2206 0.0000 0.0000
# 5 0.0000 0.0000 0.0000 0.0000 15.2206 0.0000
# 6 0.0000 0.0000 0.0000 0.0000 0.0000 32.8169
#
#
#
# Elastic Compliance Matrix: (Units=1/GPa)
#
#
# Indices 1 2 3 4 5 6 
#
# 1 0.011306 -0.002961 -0.004295 0.000000 0.000000 0.000000
# 2 -0.002961 0.011306 -0.004294 0.000000 0.000000 0.000000
# 3 -0.004295 -0.004294 0.019930 0.000000 0.000000 0.000000
# 4 0.000000 0.000000 0.000000 0.065700 0.000000 0.000000
# 5 0.000000 0.000000 0.000000 0.000000 0.065701 0.000000
# 6 0.000000 0.000000 0.000000 0.000000 0.000000 0.030472
#
#
# Mechanical properties :
#
#
# Convention : Reuss Voigt Hill
#
# Bulk Modulus (GPa) = 51.43766 56.13325 53.78545
# Shear Modulus (GPa) = 21.36789 24.66801 23.01795
#
# Velocity S-wave (km/s) = 3.45812 3.71558 3.58916
# Velocity P-wave (km/s) = 6.68821 7.05851 6.87585
#
# Compressibility (1/GPa) = 0.01944101
#
# Stress axis : x y z
#
# Youngs Moduli (GPa) = 88.45124 88.45124 50.17463
#
# Poissons Ratio (x) = 0.26193 0.21548
# Poissons Ratio (y) = 0.26193 0.21547
# Poissons Ratio (z) = 0.37986 0.37985
#
# Static dielectric constant tensor:
#      x y z
#    x 1.627910 0.000000 0.000000 
#    y 0.000000 1.627910 0.000000 
#    z 0.000000 0.000000 1.603390 
# 
# From -- ./inp_files/4112.got.cif
#   From: 2010.05.17/outbox.cif.g08.bks.cpg/sg94_3_cif.got.tgz:4112.got - 2010.06.03 19:43:16.
