data_PCOD9550515
_publ_section_title
;
Structure prediction by ZEFSAII (Michael W. Deem and Ramdas Pophale) SiO2 
 PCOD9550515
Probable space group: P 43 2 2
;
_chemical_formula_sum "Si O2"
_cell_formula_units_Z 36
_cell_length_a 8.453346
_cell_length_b 8.453346
_cell_length_c 20.720024
_cell_angle_alpha 90.000000
_cell_angle_beta 90.000000
_cell_angle_gamma 90.000000
_cell_volume 1480.633409
_symmetry_space_group_name_H-M "P 43 2 2"
_symmetry_group_IT_number 95
_symmetry_cell_setting 'tetragonal'
loop_
_space_group_symop_operation_xyz
x,y,z
-y,x,3/4+z
-x,-y,1/2+z
y,-x,1/4+z
x,-y,1/2-z
-x,y,-z
y,x,1/4-z
-y,-x,3/4-z
loop_
_atom_site_type_symbol
_atom_site_label
_atom_site_fract_x
_atom_site_fract_y
_atom_site_fract_z
Si Si1 0.978028 0.484216 0.119626
Si Si2 0.729759 0.400396 0.548455
Si Si3 0.843207 0.000000 0.250000
Si Si4 0.500000 0.099872 0.000000
Si Si5 0.623807 0.312211 0.683365
Si Si6 0.149912 0.149912 0.625000
O O1 0.873987 0.372837 0.075781
O O2 0.895974 0.661919 0.121401
O O3 0.147664 0.486854 0.086081
O O4 0.994102 0.430028 0.193246
O O5 0.611253 0.362259 0.607581
O O6 0.661533 0.484556 0.485213
O O7 0.850195 0.262932 0.524953
O O8 0.926949 0.073004 0.311752
O O9 0.619421 0.217184 0.036240
#
# Coordination Sequence:
#
# PCOD9550515 Si02
#       6
#     8   8   4   4   8   4
#     4  10  22  41  69  95 135 183 230 288 351 426
#     4  10  21  42  68  97 135 177 230 287 351 422
#     4  10  20  42  66 102 132 178 234 294 334 434
#     4  10  26  40  62 106 138 174 236 298 362 410
#     4  11  22  42  68  98 140 180 221 298 363 414
#     4  10  20  38  72  96 138 176 240 288 352 416
#
# _framework density 24.313918999999999
#
# number of rings (size 3 to 8) (size 9 to 14) (size 15 to 20)
#    0.000    1.778    4.444    0.000    3.111    5.333 
#    0.000    0.000   44.000    0.000    0.000    0.000 
#    0.000    0.000    0.000    0.000    0.000    0.000 
#
# Total GULP energy -200799.731817 kJ/mol
# GULP energy per Si atom -5577.770328 kJ/mol
# Density = 2.425858 g / cm^3
# Si number density = 24.313919 Si / 1000 Ang^3
#
#
#
# Elastic Constant Matrix: (Units=GPa)
#
#
# Indices 1 2 3 4 5 6 
#
# 1 61.6696 33.5301 38.2142 0.0000 0.0000 0.0000
# 2 33.5301 61.6696 38.2142 0.0000 0.0000 0.0000
# 3 38.2142 38.2142 216.5528 0.0000 0.0000 0.0000
# 4 0.0000 0.0000 0.0000 45.2920 0.0000 0.0000
# 5 0.0000 0.0000 0.0000 0.0000 45.2920 0.0000
# 6 0.0000 0.0000 0.0000 0.0000 0.0000 6.8282
#
#
#
# Elastic Compliance Matrix: (Units=1/GPa)
#
#
# Indices 1 2 3 4 5 6 
#
# 1 0.023888 -0.011650 -0.002160 0.000000 0.000000 0.000000
# 2 -0.011650 0.023888 -0.002160 0.000000 0.000000 0.000000
# 3 -0.002160 -0.002160 0.005380 0.000000 0.000000 0.000000
# 4 0.000000 0.000000 0.000000 0.022079 0.000000 0.000000
# 5 0.000000 0.000000 0.000000 0.000000 0.022079 0.000000
# 6 0.000000 0.000000 0.000000 0.000000 0.000000 0.146452
#
#
# Mechanical properties :
#
#
# Convention : Reuss Voigt Hill
#
# Bulk Modulus (GPa) = 47.13057 62.20098 54.66578
# Shear Modulus (GPa) = 17.68189 34.81133 26.24661
#
# Velocity S-wave (km/s) = 2.69965 3.78795 3.28912
# Velocity P-wave (km/s) = 5.39850 6.69099 6.07919
#
# Compressibility (1/GPa) = 0.02121765
#
# Stress axis : x y z
#
# Youngs Moduli (GPa) = 41.86274 41.86274 185.87357
#
# Poissons Ratio (x) = 0.48768 0.40141
# Poissons Ratio (y) = 0.48768 0.40141
# Poissons Ratio (z) = 0.09041 0.09041
#
# Static dielectric constant tensor:
#      x y z
#    x 1.977350 0.000000 0.000000 
#    y 0.000000 1.977350 0.000000 
#    z 0.000000 0.000000 1.988510 
# 
# From -- ./inp_files/6278.got.cif
#   From: 2010.05.17/outbox.cif.g08.bks.cpg/sg95_4_cif.got.tgz:6278.got - 2010.06.03 19:46:49.
