data_PCOD9550422
_publ_section_title
;
Structure prediction by ZEFSAII (Michael W. Deem and Ramdas Pophale) SiO2 
 PCOD9550422
Probable space group: P 43 2 2
;
_chemical_formula_sum "Si O2"
_cell_formula_units_Z 64
_cell_length_a 15.236581
_cell_length_b 15.236581
_cell_length_c 16.750242
_cell_angle_alpha 90.000000
_cell_angle_beta 90.000000
_cell_angle_gamma 90.000000
_cell_volume 3888.625641
_symmetry_space_group_name_H-M "P 43 2 2"
_symmetry_group_IT_number 95
_symmetry_cell_setting 'tetragonal'
loop_
_space_group_symop_operation_xyz
x,y,z
-y,x,3/4+z
-x,-y,1/2+z
y,-x,1/4+z
x,-y,1/2-z
-x,y,-z
y,x,1/4-z
-y,-x,3/4-z
loop_
_atom_site_type_symbol
_atom_site_label
_atom_site_fract_x
_atom_site_fract_y
_atom_site_fract_z
Si Si1 0.372301 0.518425 0.619719
Si Si2 0.944811 0.599504 0.714899
Si Si3 0.824847 0.458573 0.920829
Si Si4 0.603549 0.867643 0.017674
Si Si5 0.316330 0.311355 0.455318
Si Si6 0.617307 0.637594 0.708877
Si Si7 0.571490 0.803196 0.181143
Si Si8 0.782344 0.373809 0.689765
O O1 0.438664 0.438664 0.625000
O O2 0.370079 0.596938 0.684694
O O3 0.390393 0.561060 0.533813
O O4 0.272613 0.482606 0.615324
O O5 0.947573 0.500000 0.750000
O O6 0.901966 0.590435 0.627056
O O7 0.875778 0.648409 0.772420
O O8 0.042825 0.634271 0.725449
O O9 0.741209 0.398781 0.943676
O O10 0.791869 0.536317 0.861043
O O11 0.848745 0.508818 0.003213
O O12 0.610212 0.866947 0.114156
O O13 0.500000 0.860077 0.000000
O O14 0.652595 0.782465 0.985131
O O15 0.253433 0.357596 0.519406
O O16 0.262785 0.307683 0.372278
O O17 0.593567 0.593567 0.625000
O O18 0.715788 0.617460 0.736452
#
# Coordination Sequence:
#
# PCOD9550422 Si02
#       8
#     8   8   8   8   8   8   8   8
#     4  10  20  33  46  66 101 137 181 218 248 284
#     4   9  18  33  54  70  95 128 170 219 260 307
#     4   9  18  34  49  71  93 131 176 205 254 299
#     4  11  20  33  52  75  97 134 174 214 265 306
#     4  10  20  34  51  68 102 142 170 215 260 306
#     4  10  18  30  51  67  92 133 171 214 253 297
#     4  10  20  33  52  67  99 138 173 213 250 304
#     4   9  18  34  50  68 100 134 168 209 265 297
#
# _framework density 16.458257
#
# number of rings (size 3 to 8) (size 9 to 14) (size 15 to 20)
#    0.000    2.250    2.500    1.125    0.000    0.000 
#    0.000   30.000    0.000    0.000    0.000    0.000 
#    0.000    0.000   25.500    0.000    0.000    0.000 
#
# Total GULP energy -356975.879221 kJ/mol
# GULP energy per Si atom -5577.748113 kJ/mol
# Density = 1.642080 g / cm^3
# Si number density = 16.458257 Si / 1000 Ang^3
#
#
#
# Elastic Constant Matrix: (Units=GPa)
#
#
# Indices 1 2 3 4 5 6 
#
# 1 51.6691 10.9405 35.3243 0.0000 0.0000 0.0000
# 2 10.9405 51.6691 35.3243 0.0000 0.0000 0.0000
# 3 35.3243 35.3243 100.2758 0.0000 0.0000 0.0000
# 4 0.0000 0.0000 0.0000 16.6999 0.0000 0.0000
# 5 0.0000 0.0000 0.0000 0.0000 16.6999 0.0000
# 6 0.0000 0.0000 0.0000 0.0000 0.0000 8.9875
#
#
#
# Elastic Compliance Matrix: (Units=1/GPa)
#
#
# Indices 1 2 3 4 5 6 
#
# 1 0.025531 0.000978 -0.009339 0.000000 0.000000 0.000000
# 2 0.000978 0.025531 -0.009339 0.000000 0.000000 0.000000
# 3 -0.009339 -0.009339 0.016552 0.000000 0.000000 0.000000
# 4 0.000000 0.000000 0.000000 0.059881 0.000000 0.000000
# 5 0.000000 0.000000 0.000000 0.000000 0.059881 0.000000
# 6 0.000000 0.000000 0.000000 0.000000 0.000000 0.111265
#
#
# Mechanical properties :
#
#
# Convention : Reuss Voigt Hill
#
# Bulk Modulus (GPa) = 31.03960 40.75469 35.89714
# Shear Modulus (GPa) = 14.50210 16.61244 15.55727
#
# Velocity S-wave (km/s) = 2.97163 3.18050 3.07784
# Velocity P-wave (km/s) = 5.53847 6.18900 5.87275
#
# Compressibility (1/GPa) = 0.03221691
#
# Stress axis : x y z
#
# Youngs Moduli (GPa) = 39.16768 39.16768 60.41577
#
# Poissons Ratio (x) = -0.03832 0.56420
# Poissons Ratio (y) = -0.03832 0.56420
# Poissons Ratio (z) = 0.36577 0.36577
#
# Static dielectric constant tensor:
#      x y z
#    x 1.565390 0.000000 0.000000 
#    y 0.000000 1.565390 0.000000 
#    z 0.000000 0.000000 1.631060 
# 
# From -- ./inp_files/5799.got.cif
#   From: 2010.05.17/outbox.cif.g08.bks.cpg/sg95_3_cif.got.tgz:5799.got - 2010.06.03 19:46:49.
