data_PCOD9550974
_publ_section_title
;
Structure prediction by ZEFSAII (Michael W. Deem and Ramdas Pophale) SiO2 
 PCOD9550974
Probable space group: P 43 21 2
;
_chemical_formula_sum "Si O2"
_cell_formula_units_Z 40
_cell_length_a 13.972753
_cell_length_b 13.972753
_cell_length_c 7.181974
_cell_angle_alpha 90.000000
_cell_angle_beta 90.000000
_cell_angle_gamma 90.000000
_cell_volume 1402.192993
_symmetry_space_group_name_H-M "P 43 21 2"
_symmetry_group_IT_number 96
_symmetry_cell_setting 'tetragonal'
loop_
_space_group_symop_operation_xyz
x,y,z
1/2-y,1/2+x,3/4+z
-x,-y,1/2+z
1/2+y,1/2-x,1/4+z
1/2+x,1/2-y,1/4-z
1/2-x,1/2+y,3/4-z
y,x,-z
-y,-x,1/2-z
loop_
_atom_site_type_symbol
_atom_site_label
_atom_site_fract_x
_atom_site_fract_y
_atom_site_fract_z
Si Si1 0.579864 0.710114 0.191951
Si Si2 0.377239 0.961695 0.705902
Si Si3 0.931335 0.719632 0.357121
Si Si4 0.023177 0.976824 0.250000
Si Si5 0.763041 0.763041 0.000000
Si Si6 0.595635 0.311030 0.009111
O O1 0.553510 0.767936 0.379348
O O2 0.523064 0.760882 0.020128
O O3 0.553128 0.598276 0.164012
O O4 0.692156 0.720134 0.159212
O O5 0.440008 0.924963 0.527717
O O6 0.395631 0.888420 0.878145
O O7 0.849958 0.795269 0.299115
O O8 0.943433 0.748607 0.572822
O O9 0.911836 0.957282 0.270195
O O10 0.875376 0.759004 0.935123
#
# Coordination Sequence:
#
# PCOD9550974 Si02
#       6
#     8   8   8   4   4   8
#     4  10  23  42  66 103 138 184 233 293 357 426
#     4  12  26  43  65  99 133 191 236 295 359 427
#     4  10  23  42  66  97 140 177 231 296 351 422
#     4   9  22  42  72 100 140 175 230 288 354 429
#     4  11  22  40  72  98 138 185 232 290 354 437
#     4  10  22  42  68 104 136 187 230 293 363 427
#
# _framework density 28.526743
#
# number of rings (size 3 to 8) (size 9 to 14) (size 15 to 20)
#    0.000    1.600    2.000    1.200    8.400    3.200 
#    0.000    2.000    0.000    0.000    0.000    0.000 
#    0.000    0.000    0.000    0.000    0.000    0.000 
#
# Total GULP energy -223348.036323 kJ/mol
# GULP energy per Si atom -5583.700908 kJ/mol
# Density = 2.846181 g / cm^3
# Si number density = 28.526743 Si / 1000 Ang^3
#
#
#
# Elastic Constant Matrix: (Units=GPa)
#
#
# Indices 1 2 3 4 5 6 
#
# 1 40.3375 87.4418 1.7780 0.0000 0.0000 0.0000
# 2 87.4418 40.3391 1.7785 0.0000 0.0000 0.0000
# 3 1.7780 1.7785 119.4883 0.0000 0.0000 0.0000
# 4 0.0000 0.0000 0.0000 50.7158 0.0000 0.0000
# 5 0.0000 0.0000 0.0000 0.0000 50.7153 0.0000
# 6 0.0000 0.0000 0.0000 0.0000 0.0000 35.4940
#
#
#
# Elastic Compliance Matrix: (Units=1/GPa)
#
#
# Indices 1 2 3 4 5 6 
#
# 1 -0.006700 0.014530 -0.000117 0.000000 0.000000 0.000000
# 2 0.014530 -0.006700 -0.000116 0.000000 0.000000 0.000000
# 3 -0.000117 -0.000116 0.008372 0.000000 0.000000 0.000000
# 4 0.000000 0.000000 0.000000 0.019718 0.000000 0.000000
# 5 0.000000 0.000000 0.000000 0.000000 0.019718 0.000000
# 6 0.000000 0.000000 0.000000 0.000000 0.000000 0.028174
#
#
# Mechanical properties :
#
#
# Convention : Reuss Voigt Hill
#
# Bulk Modulus (GPa) = 42.43619 42.46240 42.44929
# Shear Modulus (GPa) = 119.49382 34.66280 77.07831
#
# Velocity S-wave (km/s) = 6.47914 3.48961 5.20368
# Velocity P-wave (km/s) = 8.41906 5.58157 7.14264
#
# Compressibility (1/GPa) = 0.02356479
#
# Stress axis : x y z
#
# Youngs Moduli (GPa) = -149.24329 -149.24917 119.43879
#
# Poissons Ratio (x) = 2.16852 0.01392
# Poissons Ratio (y) = 2.16843 0.01391
# Poissons Ratio (z) = -0.01740 -0.01738
#
# Static dielectric constant tensor:
#      x y z
#    x 2.689510 0.000000 0.000000 
#    y 0.000000 2.689510 0.000000 
#    z 0.000000 0.000000 3.663030 
# 
# From -- ./inp_files/1382.got.cif
#   From: 2010.05.17/outbox.cif.g08.bks.cpg/sg96_1_cif.got.tgz:1382.got - 2010.06.03 19:52:08.
