data_PCOD9550001
_publ_section_title
;
Structure prediction by ZEFSAII (Michael W. Deem and Ramdas Pophale) SiO2 
 PCOD9550001
Probable space group: P 42 21 2
;
_chemical_formula_sum "Si O2"
_cell_formula_units_Z 52
_cell_length_a 20.709377
_cell_length_b 20.709377
_cell_length_c 6.347371
_cell_angle_alpha 90.000000
_cell_angle_beta 90.000000
_cell_angle_gamma 90.000000
_cell_volume 2722.249657
_symmetry_space_group_name_H-M "P 42 21 2"
_symmetry_group_IT_number 94
_symmetry_cell_setting 'tetragonal'
loop_
_space_group_symop_operation_xyz
x,y,z
1/2-y,1/2+x,1/2+z
-x,-y,z
1/2+y,1/2-x,1/2+z
1/2+x,1/2-y,1/2-z
1/2-x,1/2+y,1/2-z
y,x,-z
-y,-x,-z
loop_
_atom_site_type_symbol
_atom_site_label
_atom_site_fract_x
_atom_site_fract_y
_atom_site_fract_z
Si Si1 0.661610 0.956698 0.007240
Si Si2 0.370423 0.755027 0.818664
Si Si3 0.075814 0.653965 0.709656
Si Si4 0.255405 0.967329 0.668627
Si Si5 0.438146 0.655226 0.113639
Si Si6 0.639062 0.360939 0.500000
Si Si7 0.654146 0.758035 0.469452
O O1 0.697175 0.918923 0.197356
O O2 0.633396 0.021299 0.119013
O O3 0.613050 0.907113 0.891575
O O4 0.712801 0.981683 0.833159
O O5 0.356952 0.698493 0.655395
O O6 0.397970 0.716210 0.018914
O O7 0.307395 0.793471 0.878473
O O8 0.043332 0.694939 0.521988
O O9 0.123728 0.704198 0.829457
O O10 0.185103 0.990995 0.588936
O O11 0.249702 0.902229 0.800591
O O12 0.424176 0.643689 0.358149
O O13 0.408147 0.591854 0.000000
O O14 0.690779 0.690779 0.500000
#
# Coordination Sequence:
#
# PCOD9550001 Si02
#       7
#     8   8   8   8   8   4   8
#     4  11  23  40  62  87 123 167 213 250 310 359
#     4  11  20  34  59  89 123 153 200 257 312 374
#     4  11  25  42  65  84 127 168 212 264 297 374
#     4  11  22  41  61  86 127 165 203 258 309 374
#     4  10  20  33  57  91 121 156 206 252 312 366
#     4  10  20  32  58  90 123 156 187 266 310 374
#     4  11  25  38  60  96 122 160 204 252 330 388
#
# _framework density 19.101848
#
# number of rings (size 3 to 8) (size 9 to 14) (size 15 to 20)
#    0.000    1.231    4.615    2.308    2.154    0.615 
#    0.000    2.308    0.000    0.000    0.000    8.077 
#    0.000    0.000    0.000    0.000    0.000    0.000 
#
# Total GULP energy -289982.325841 kJ/mol
# GULP energy per Si atom -5576.583189 kJ/mol
# Density = 1.905837 g / cm^3
# Si number density = 19.101848 Si / 1000 Ang^3
#
#
#
# Elastic Constant Matrix: (Units=GPa)
#
#
# Indices 1 2 3 4 5 6 
#
# 1 102.9123 -31.0717 25.7200 0.0000 0.0000 0.0000
# 2 -31.0717 102.9230 25.7225 0.0000 0.0000 0.0000
# 3 25.7200 25.7225 70.4382 0.0000 0.0000 0.0000
# 4 0.0000 0.0000 0.0000 12.9155 0.0000 0.0000
# 5 0.0000 0.0000 0.0000 0.0000 12.9179 0.0000
# 6 0.0000 0.0000 0.0000 0.0000 0.0000 28.1760
#
#
#
# Elastic Compliance Matrix: (Units=1/GPa)
#
#
# Indices 1 2 3 4 5 6 
#
# 1 0.013155 0.005691 -0.006882 0.000000 0.000000 0.000000
# 2 0.005691 0.013154 -0.006882 0.000000 0.000000 0.000000
# 3 -0.006882 -0.006882 0.019223 0.000000 0.000000 0.000000
# 4 0.000000 0.000000 0.000000 0.077426 0.000000 0.000000
# 5 0.000000 0.000000 0.000000 0.000000 0.077412 0.000000
# 6 0.000000 0.000000 0.000000 0.000000 0.000000 0.035491
#
#
# Mechanical properties :
#
#
# Convention : Reuss Voigt Hill
#
# Bulk Modulus (GPa) = 34.02790 35.22390 34.62590
# Shear Modulus (GPa) = 19.09839 27.86206 23.48023
#
# Velocity S-wave (km/s) = 3.16542 3.82331 3.50982
# Velocity P-wave (km/s) = 5.58681 6.16201 5.88145
#
# Compressibility (1/GPa) = 0.02938765
#
# Stress axis : x y z
#
# Youngs Moduli (GPa) = 76.01479 76.02195 52.02157
#
# Poissons Ratio (x) = -0.43267 0.35801
# Poissons Ratio (y) = -0.43263 0.35800
# Poissons Ratio (z) = 0.52313 0.52317
#
# Static dielectric constant tensor:
#      x y z
#    x 1.683580 0.000000 0.000000 
#    y 0.000000 1.683580 0.000000 
#    z 0.000000 0.000000 1.693880 
# 
# From -- ./inp_files/575.got.cif
#   From: 2010.05.17/outbox.cif.g08.bks.cpg/sg94_1_cif.got.tgz:575.got - 2010.06.03 19:43:16.
