data_PCOD9550399
_publ_section_title
;
Structure prediction by ZEFSAII (Michael W. Deem and Ramdas Pophale) SiO2 
 PCOD9550399
Probable space group: P 42 21 2
;
_chemical_formula_sum "Si O2"
_cell_formula_units_Z 56
_cell_length_a 15.000000
_cell_length_b 15.000000
_cell_length_c 12.000000
_cell_angle_alpha 90.000000
_cell_angle_beta 90.000000
_cell_angle_gamma 90.000000
_cell_volume 2700.000000
_symmetry_space_group_name_H-M "P 42 21 2"
_symmetry_group_IT_number 94
_symmetry_cell_setting 'tetragonal'
loop_
_space_group_symop_operation_xyz
x,y,z
1/2-y,1/2+x,1/2+z
-x,-y,z
1/2+y,1/2-x,1/2+z
1/2+x,1/2-y,1/2-z
1/2-x,1/2+y,1/2-z
y,x,-z
-y,-x,-z
loop_
_atom_site_type_symbol
_atom_site_label
_atom_site_fract_x
_atom_site_fract_y
_atom_site_fract_z
Si Si1 0.863931 0.714498 0.781924
Si Si2 0.339148 0.103675 0.963170
Si Si3 0.852830 0.380804 0.891332
Si Si4 0.500000 0.000000 0.503986
Si Si5 0.301954 0.581998 0.728558
Si Si6 0.700536 0.700536 0.500000
Si Si7 0.224607 0.446186 0.187562
Si Si8 0.121250 0.831435 0.234127
O O1 0.849159 0.821470 0.773851
O O2 0.768878 0.661896 0.764924
O O3 0.948503 0.701797 0.697714
O O4 0.893889 0.687221 0.907395
O O5 0.255184 0.084954 0.885741
O O6 0.392724 0.190342 0.920818
O O7 0.412670 0.028368 0.938200
O O8 0.764232 0.415351 0.833539
O O9 0.823025 0.305137 0.980286
O O10 0.904341 0.328659 0.792702
O O11 0.915457 0.462481 0.928071
O O12 0.344793 0.484702 0.739924
O O13 0.664742 0.649196 0.606024
O O14 0.325069 0.410622 0.204404
#
# Coordination Sequence:
#
# PCOD9550399 Si02
#       8
#     8   8   8   4   8   4   8   8
#     4  12  23  46  68  94 144 178 222 294 348 424
#     4  11  24  39  65 102 134 172 225 284 358 411
#     4  10  21  40  58  97 127 165 222 268 341 408
#     4  12  22  34  66 100 130 166 222 292 338 410
#     4  11  24  40  67  94 128 186 218 276 355 414
#     4  10  20  42  64  85 133 174 210 270 342 420
#     4  10  24  42  64  94 130 178 219 279 345 409
#     4  11  24  43  64  94 134 170 234 284 333 418
#
# _framework density 20.740741
#
# number of rings (size 3 to 8) (size 9 to 14) (size 15 to 20)
#    0.000    1.143    5.714    2.143    6.000    1.714 
#    0.000    0.000    0.000    0.000    0.000    3.000 
#    0.000    0.000    0.000    0.000    0.000    0.000 
#
# Total GULP energy -312264.471500 kJ/mol
# GULP energy per Si atom -5576.151277 kJ/mol
# Density = 2.069353 g / cm^3
# Si number density = 20.740741 Si / 1000 Ang^3
#
#
#
# Elastic Constant Matrix: (Units=GPa)
#
#
# Indices 1 2 3 4 5 6 
#
# 1 78.1465 3.5913 8.2373 0.0000 0.0000 0.0000
# 2 3.5913 78.1465 8.2373 0.0000 0.0000 0.0000
# 3 8.2373 8.2373 23.9183 0.0000 0.0000 0.0000
# 4 0.0000 0.0000 0.0000 9.6719 0.0000 0.0000
# 5 0.0000 0.0000 0.0000 0.0000 9.6719 0.0000
# 6 0.0000 0.0000 0.0000 0.0000 0.0000 43.4317
#
#
#
# Elastic Compliance Matrix: (Units=1/GPa)
#
#
# Indices 1 2 3 4 5 6 
#
# 1 0.013280 -0.000133 -0.004528 0.000000 0.000000 0.000000
# 2 -0.000133 0.013280 -0.004528 0.000000 0.000000 0.000000
# 3 -0.004528 -0.004528 0.044928 0.000000 0.000000 0.000000
# 4 0.000000 0.000000 0.000000 0.103392 0.000000 0.000000
# 5 0.000000 0.000000 0.000000 0.000000 0.103392 0.000000
# 6 0.000000 0.000000 0.000000 0.000000 0.000000 0.023025
#
#
# Mechanical properties :
#
#
# Convention : Reuss Voigt Hill
#
# Bulk Modulus (GPa) = 18.82868 24.48259 21.65563
# Shear Modulus (GPa) = 14.82026 23.23148 19.02587
#
# Velocity S-wave (km/s) = 2.67600 3.35040 3.03201
# Velocity P-wave (km/s) = 4.31808 5.17655 4.76668
#
# Compressibility (1/GPa) = 0.05311047
#
# Stress axis : x y z
#
# Youngs Moduli (GPa) = 75.30205 75.30205 22.25802
#
# Poissons Ratio (x) = 0.01002 0.10078
# Poissons Ratio (y) = 0.01002 0.10078
# Poissons Ratio (z) = 0.34095 0.34095
#
# Static dielectric constant tensor:
#      x y z
#    x 1.800110 0.000000 0.000000 
#    y 0.000000 1.800110 0.000000 
#    z 0.000000 0.000000 1.767170 
# 
# From -- ./inp_files/2759.got.cif
#   From: 2010.05.17/outbox.ucp.g08.bks.cvg/sg94_2_cif.got.tgz:2759.got - 2010.06.11 10:37:05.
