data_PCOD9550264
_publ_section_title
;
Structure prediction by ZEFSAII (Michael W. Deem and Ramdas Pophale) SiO2 
 PCOD9550264
Probable space group: P 42 21 2
;
_chemical_formula_sum "Si O2"
_cell_formula_units_Z 48
_cell_length_a 7.883962
_cell_length_b 7.883962
_cell_length_c 32.121759
_cell_angle_alpha 90.000000
_cell_angle_beta 90.000000
_cell_angle_gamma 90.000000
_cell_volume 1996.587575
_symmetry_space_group_name_H-M "P 42 21 2"
_symmetry_group_IT_number 94
_symmetry_cell_setting 'tetragonal'
loop_
_space_group_symop_operation_xyz
x,y,z
1/2-y,1/2+x,1/2+z
-x,-y,z
1/2+y,1/2-x,1/2+z
1/2+x,1/2-y,1/2-z
1/2-x,1/2+y,1/2-z
y,x,-z
-y,-x,-z
loop_
_atom_site_type_symbol
_atom_site_label
_atom_site_fract_x
_atom_site_fract_y
_atom_site_fract_z
Si Si1 0.280227 0.333030 0.077827
Si Si2 0.811970 0.075694 0.666561
Si Si3 0.813345 0.060658 0.901058
Si Si4 0.081125 0.312181 0.764268
Si Si5 0.218338 0.777881 0.817238
Si Si6 0.287687 0.640972 0.952115
O O1 0.311231 0.293746 0.126145
O O2 0.440497 0.251280 0.053327
O O3 0.312414 0.531777 0.069585
O O4 0.085333 0.279956 0.072002
O O5 0.749359 0.170856 0.707493
O O6 0.696411 0.907943 0.662612
O O7 0.000000 0.000000 0.666998
O O8 0.734199 0.102407 0.855677
O O9 0.834049 0.230765 0.928344
O O10 0.000000 0.000000 0.890622
O O11 0.138996 0.262862 0.718323
O O12 0.000000 0.500000 0.760865
O O13 0.952684 0.194900 0.790471
O O14 0.312318 0.687683 0.000000
#
# Coordination Sequence:
#
# PCOD9550264 Si02
#       6
#     8   8   8   8   8   8
#     4  11  22  46  78 104 139 194 245 302 380 453
#     4  11  20  38  67  94 133 180 236 294 362 430
#     4  12  27  45  73 111 150 194 247 313 390 456
#     4  10  24  38  63  98 141 195 244 297 367 432
#     4  11  23  44  63  99 148 194 249 308 370 435
#     4  11  25  51  75 108 147 188 250 312 382 474
#
# _framework density 24.041015999999999
#
# number of rings (size 3 to 8) (size 9 to 14) (size 15 to 20)
#    0.000    1.000    3.333    3.500    0.000    9.667 
#    9.000    0.000    0.000    0.000    0.000    0.000 
#    0.000    0.000    0.000    0.000    0.000    0.000 
#
# Total GULP energy -268351.154372 kJ/mol
# GULP energy per Si atom -5590.649049 kJ/mol
# Density = 2.398630 g / cm^3
# Si number density = 24.041016 Si / 1000 Ang^3
#
#
#
# Elastic Constant Matrix: (Units=GPa)
#
#
# Indices 1 2 3 4 5 6 
#
# 1 66.2634 2.6850 20.9450 0.0000 0.0000 0.0000
# 2 2.6850 66.2635 20.9450 0.0000 0.0000 0.0000
# 3 20.9450 20.9450 130.6942 0.0000 0.0000 0.0000
# 4 0.0000 0.0000 0.0000 19.1399 0.0000 0.0000
# 5 0.0000 0.0000 0.0000 0.0000 19.1406 0.0000
# 6 0.0000 0.0000 0.0000 0.0000 0.0000 29.9791
#
#
#
# Elastic Compliance Matrix: (Units=1/GPa)
#
#
# Indices 1 2 3 4 5 6 
#
# 1 0.015898 0.000170 -0.002575 0.000000 0.000000 0.000000
# 2 0.000170 0.015898 -0.002575 0.000000 0.000000 0.000000
# 3 -0.002575 -0.002575 0.008477 0.000000 0.000000 0.000000
# 4 0.000000 0.000000 0.000000 0.052247 0.000000 0.000000
# 5 0.000000 0.000000 0.000000 0.000000 0.052245 0.000000
# 6 0.000000 0.000000 0.000000 0.000000 0.000000 0.033357
#
#
# Mechanical properties :
#
#
# Convention : Reuss Voigt Hill
#
# Bulk Modulus (GPa) = 32.98948 39.15237 36.07093
# Shear Modulus (GPa) = 25.22872 28.22833 26.72853
#
# Velocity S-wave (km/s) = 3.24296 3.43034 3.33797
# Velocity P-wave (km/s) = 5.27014 5.65780 5.46740
#
# Compressibility (1/GPa) = 0.03031269
#
# Stress axis : x y z
#
# Youngs Moduli (GPa) = 62.89961 62.89972 117.96888
#
# Poissons Ratio (x) = -0.01068 0.30378
# Poissons Ratio (y) = -0.01068 0.30378
# Poissons Ratio (z) = 0.16197 0.16197
#
# Static dielectric constant tensor:
#      x y z
#    x 2.033440 0.000000 0.000000 
#    y 0.000000 2.033450 0.000000 
#    z 0.000000 0.000000 1.868340 
# 
# From -- ./inp_files/5573.got.cif
#   From: 2010.05.17/outbox.cif.g08.bks.cpg/sg94_3_cif.got.tgz:5573.got - 2010.06.03 19:43:16.
