data_PCOD9550653
_publ_section_title
;
Structure prediction by ZEFSAII (Michael W. Deem and Ramdas Pophale) SiO2 
 PCOD9550653
Probable space group: P 43 2 2
;
_chemical_formula_sum "Si O2"
_cell_formula_units_Z 48
_cell_length_a 8.493649
_cell_length_b 8.493649
_cell_length_c 31.398609
_cell_angle_alpha 90.000000
_cell_angle_beta 90.000000
_cell_angle_gamma 90.000000
_cell_volume 2265.160753
_symmetry_space_group_name_H-M "P 43 2 2"
_symmetry_group_IT_number 95
_symmetry_cell_setting 'tetragonal'
loop_
_space_group_symop_operation_xyz
x,y,z
-y,x,3/4+z
-x,-y,1/2+z
y,-x,1/4+z
x,-y,1/2-z
-x,y,-z
y,x,1/4-z
-y,-x,3/4-z
loop_
_atom_site_type_symbol
_atom_site_label
_atom_site_fract_x
_atom_site_fract_y
_atom_site_fract_z
Si Si1 0.089014 0.587452 0.955028
Si Si2 0.811018 0.161791 0.172650
Si Si3 0.287692 0.462088 0.369954
Si Si4 0.841039 0.899807 0.525225
Si Si5 0.030768 0.301599 0.102650
Si Si6 0.346390 0.634509 0.527978
O O1 0.266203 0.537887 0.966696
O O2 0.014425 0.744670 0.933453
O O3 0.051124 0.440077 0.924311
O O4 0.000000 0.574205 0.000000
O O5 0.651896 0.254419 0.160012
O O6 0.927533 0.220902 0.210200
O O7 0.914558 0.194725 0.130472
O O8 0.453494 0.546507 0.375000
O O9 0.154155 0.596679 0.369928
O O10 0.293241 0.380299 0.324360
O O11 0.885588 0.808350 0.568361
O O12 0.749319 0.770901 0.497286
O O13 0.000000 0.934449 0.500000
O O14 0.500000 0.612500 0.500000
#
# Coordination Sequence:
#
# PCOD9550653 Si02
#       6
#     8   8   8   8   8   8
#     4  11  22  43  66  97 141 185 224 293 358 410
#     4  11  24  38  71 100 136 175 237 294 350 412
#     4  11  24  42  69 102 139 188 235 286 356 433
#     4  12  22  43  72 100 130 184 244 296 348 412
#     4  11  20  43  72  97 130 182 245 286 337 427
#     4  12  23  41  73 104 139 184 247 289 350 438
#
# _framework density 21.190549000000001
#
# number of rings (size 3 to 8) (size 9 to 14) (size 15 to 20)
#    0.000    0.667    5.000    4.000    2.333    0.000 
#    0.000    1.667   18.333    0.000    0.000    0.000 
#    0.000    0.000    0.000    0.000    0.000    0.000 
#
# Total GULP energy -267479.411142 kJ/mol
# GULP energy per Si atom -5572.487732 kJ/mol
# Density = 2.114232 g / cm^3
# Si number density = 21.190549 Si / 1000 Ang^3
#
#
#
# Elastic Constant Matrix: (Units=GPa)
#
#
# Indices 1 2 3 4 5 6 
#
# 1 88.9916 48.4030 49.5022 0.0000 0.0000 0.0000
# 2 48.4030 88.9931 49.5026 0.0000 0.0000 0.0000
# 3 49.5022 49.5026 106.9823 0.0000 0.0000 0.0000
# 4 0.0000 0.0000 0.0000 -118.9240 0.0000 0.0000
# 5 0.0000 0.0000 0.0000 0.0000 -118.7685 0.0000
# 6 0.0000 0.0000 0.0000 0.0000 0.0000 18.3043
#
#
#
# Elastic Compliance Matrix: (Units=1/GPa)
#
#
# Indices 1 2 3 4 5 6 
#
# 1 0.017778 -0.006859 -0.005052 0.000000 0.000000 0.000000
# 2 -0.006859 0.017778 -0.005052 0.000000 0.000000 0.000000
# 3 -0.005052 -0.005052 0.014023 0.000000 0.000000 0.000000
# 4 0.000000 0.000000 0.000000 -0.008409 0.000000 0.000000
# 5 0.000000 0.000000 0.000000 0.000000 -0.008420 0.000000
# 6 0.000000 0.000000 0.000000 0.000000 0.000000 0.054632
#
#
# Mechanical properties :
#
#
# Convention : Reuss Voigt Hill
#
# Bulk Modulus (GPa) = 63.89222 64.42029 64.15625
# Shear Modulus (GPa) = 39.51724 -34.70704 2.40510
#
# Velocity S-wave (km/s) = 4.32308 -4.05143 1.06651
# Velocity P-wave (km/s) = 7.42532 2.92934 5.64431
#
# Compressibility (1/GPa) = 0.01565136
#
# Stress axis : x y z
#
# Youngs Moduli (GPa) = 56.24890 56.24997 71.31177
#
# Poissons Ratio (x) = 0.38582 0.36029
# Poissons Ratio (y) = 0.38581 0.36029
# Poissons Ratio (z) = 0.28419 0.28419
#
# Static dielectric constant tensor:
#      x y z
#    x 1.998420 0.000000 0.000000 
#    y 0.000000 1.998230 0.000000 
#    z 0.000000 0.000000 2.043830 
# 
# From -- ./inp_files/7901.got.cif
#   From: 2010.05.17/outbox.cif.g08.bks.cpg/sg95_4_cif.got.tgz:7901.got - 2010.06.03 19:46:49.
