data_PCOD9550489
_publ_section_title
;
Structure prediction by ZEFSAII (Michael W. Deem and Ramdas Pophale) SiO2 
 PCOD9550489
Probable space group: P 43 2 2
;
_chemical_formula_sum "Si O2"
_cell_formula_units_Z 52
_cell_length_a 20.925591
_cell_length_b 20.925591
_cell_length_c 6.241721
_cell_angle_alpha 90.000000
_cell_angle_beta 90.000000
_cell_angle_gamma 90.000000
_cell_volume 2733.127030
_symmetry_space_group_name_H-M "P 43 2 2"
_symmetry_group_IT_number 95
_symmetry_cell_setting 'tetragonal'
loop_
_space_group_symop_operation_xyz
x,y,z
-y,x,3/4+z
-x,-y,1/2+z
y,-x,1/4+z
x,-y,1/2-z
-x,y,-z
y,x,1/4-z
-y,-x,3/4-z
loop_
_atom_site_type_symbol
_atom_site_label
_atom_site_fract_x
_atom_site_fract_y
_atom_site_fract_z
Si Si1 0.569585 0.177050 0.570588
Si Si2 0.568629 0.942120 0.604127
Si Si3 0.774636 0.869354 0.998532
Si Si4 0.058610 0.157864 0.107052
Si Si5 0.314042 0.218360 0.195409
Si Si6 0.000000 0.097238 0.500000
Si Si7 0.660026 0.123434 0.198362
O O1 0.500000 0.199907 0.500000
O O2 0.561359 0.119384 0.741665
O O3 0.618073 0.224458 0.688490
O O4 0.608752 0.151594 0.365889
O O5 0.500000 0.955531 0.500000
O O6 0.622321 0.931104 0.426861
O O7 0.589062 0.000000 0.750000
O O8 0.790531 0.926749 0.829192
O O9 0.735684 0.816864 0.856993
O O10 0.832712 0.832712 0.125000
O O11 0.723839 0.893714 0.173732
O O12 0.128091 0.128091 0.125000
O O13 0.037254 0.147575 0.349445
O O14 0.000000 0.118469 0.000000
O O15 0.284433 0.284433 0.125000
O O16 0.321575 0.174235 0.985568
O O17 0.949452 0.050549 0.375000
#
# Coordination Sequence:
#
# PCOD9550489 Si02
#       7
#     8   8   8   8   8   4   8
#     4  10  20  36  58  90 123 163 211 260 311 362
#     4  11  22  36  62  89 120 165 211 257 319 377
#     4  11  24  43  69  86 122 158 200 250 312 389
#     4  12  27  44  68  91 110 145 184 246 324 394
#     4  10  20  38  63  89 120 168 213 248 306 369
#     4  12  24  46  68  92 112 130 182 248 318 418
#     4  10  22  40  63  89 123 158 212 255 299 373
#
# _framework density 19.025827
#
# number of rings (size 3 to 8) (size 9 to 14) (size 15 to 20)
#    0.000    1.231    4.615    1.385    2.154    0.000 
#    0.000    8.462    3.385    0.000    0.000    0.000 
#    0.000    0.000    0.000    0.000   40.923    0.000 
#
# Total GULP energy -289799.220820 kJ/mol
# GULP energy per Si atom -5573.061939 kJ/mol
# Density = 1.898252 g / cm^3
# Si number density = 19.025827 Si / 1000 Ang^3
#
#
#
# Elastic Constant Matrix: (Units=GPa)
#
#
# Indices 1 2 3 4 5 6 
#
# 1 77.1852 47.5774 59.1134 0.0000 0.0000 0.0000
# 2 47.5774 77.1852 59.1135 0.0000 0.0000 0.0000
# 3 59.1134 59.1135 136.5244 0.0000 0.0000 0.0000
# 4 0.0000 0.0000 0.0000 23.9317 0.0000 0.0000
# 5 0.0000 0.0000 0.0000 0.0000 23.9319 0.0000
# 6 0.0000 0.0000 0.0000 0.0000 0.0000 13.0577
#
#
#
# Elastic Compliance Matrix: (Units=1/GPa)
#
#
# Indices 1 2 3 4 5 6 
#
# 1 0.023684 -0.010091 -0.005885 0.000000 0.000000 0.000000
# 2 -0.010091 0.023684 -0.005885 0.000000 0.000000 0.000000
# 3 -0.005885 -0.005885 0.012421 0.000000 0.000000 0.000000
# 4 0.000000 0.000000 0.000000 0.041786 0.000000 0.000000
# 5 0.000000 0.000000 0.000000 0.000000 0.041785 0.000000
# 6 0.000000 0.000000 0.000000 0.000000 0.000000 0.076583
#
#
# Mechanical properties :
#
#
# Convention : Reuss Voigt Hill
#
# Bulk Modulus (GPa) = 62.24892 69.16703 65.70798
# Shear Modulus (GPa) = 18.58591 20.52360 19.55475
#
# Velocity S-wave (km/s) = 3.12890 3.28796 3.20941
# Velocity P-wave (km/s) = 6.77071 7.13074 6.95305
#
# Compressibility (1/GPa) = 0.01606454
#
# Stress axis : x y z
#
# Youngs Moduli (GPa) = 42.22347 42.22341 80.50756
#
# Poissons Ratio (x) = 0.42609 0.47381
# Poissons Ratio (y) = 0.42609 0.47381
# Poissons Ratio (z) = 0.24850 0.24850
#
# Static dielectric constant tensor:
#      x y z
#    x 1.690640 0.000000 0.000000 
#    y 0.000000 1.690640 0.000000 
#    z 0.000000 0.000000 1.918190 
# 
# From -- ./inp_files/1369.got.cif
#   From: 2010.05.17/outbox.cif.g08.bks.cpg/sg95_1_cif.got.tgz:1369.got - 2010.06.03 19:46:49.
