data_PCOD9550444
_publ_section_title
;
Structure prediction by ZEFSAII (Michael W. Deem and Ramdas Pophale) SiO2 
 PCOD9550444
Probable space group: P 43 2 2
;
_chemical_formula_sum "Si O2"
_cell_formula_units_Z 40
_cell_length_a 15.937382
_cell_length_b 15.937382
_cell_length_c 8.500753
_cell_angle_alpha 90.000000
_cell_angle_beta 90.000000
_cell_angle_gamma 90.000000
_cell_volume 2159.192495
_symmetry_space_group_name_H-M "P 43 2 2"
_symmetry_group_IT_number 95
_symmetry_cell_setting 'tetragonal'
loop_
_space_group_symop_operation_xyz
x,y,z
-y,x,3/4+z
-x,-y,1/2+z
y,-x,1/4+z
x,-y,1/2-z
-x,y,-z
y,x,1/4-z
-y,-x,3/4-z
loop_
_atom_site_type_symbol
_atom_site_label
_atom_site_fract_x
_atom_site_fract_y
_atom_site_fract_z
Si Si1 0.396102 0.260898 0.832043
Si Si2 0.500000 0.115836 0.000000
Si Si3 0.765814 0.765814 0.125000
Si Si4 0.000000 0.895907 0.500000
Si Si5 0.575167 0.424834 0.375000
Si Si6 0.716438 0.283563 0.875000
Si Si7 0.120634 0.744263 0.587868
Si Si8 0.600584 0.000000 0.750000
O O1 0.318124 0.230754 0.727785
O O2 0.431561 0.337958 0.727185
O O3 0.450985 0.181152 0.884701
O O4 0.356278 0.292553 0.996358
O O5 0.449972 0.055223 0.121616
O O6 0.841195 0.763240 0.244088
O O7 0.926705 0.829410 0.458023
O O8 0.042311 0.957690 0.375000
O O9 0.572141 0.500000 0.250000
O O10 0.718023 0.195060 0.782194
O O11 0.060121 0.664544 0.593323
#
# Coordination Sequence:
#
# PCOD9550444 Si02
#       8
#     8   4   4   4   4   4   8   4
#     4  10  24  42  66  98 127 181 220 272 342 407
#     4  12  26  42  68  96 138 178 218 286 342 398
#     4   9  22  40  67  89 122 174 223 266 318 416
#     4  11  24  38  58  91 126 162 210 273 336 386
#     4  11  28  45  70 106 141 174 227 290 342 418
#     4  10  18  43  67  87 125 180 228 264 332 408
#     4  10  21  42  62  90 126 172 218 268 323 402
#     4  11  26  42  62  97 134 174 222 277 328 394
#
# _framework density 18.525442999999999
#
# number of rings (size 3 to 8) (size 9 to 14) (size 15 to 20)
#    0.000    1.600    3.000    0.000    8.400    1.600 
#    0.000    2.000    0.000    0.000    0.000    0.000 
#    0.000    0.000    0.000    0.000    0.000    0.000 
#
# Total GULP energy -222876.634420 kJ/mol
# GULP energy per Si atom -5571.915861 kJ/mol
# Density = 1.848328 g / cm^3
# Si number density = 18.525443 Si / 1000 Ang^3
#
#
#
# Elastic Constant Matrix: (Units=GPa)
#
#
# Indices 1 2 3 4 5 6 
#
# 1 108.2252 81.7447 77.8323 0.0000 0.0000 0.0000
# 2 81.7447 108.2201 77.8321 0.0000 0.0000 0.0000
# 3 77.8323 77.8321 149.7273 0.0000 0.0000 0.0000
# 4 0.0000 0.0000 0.0000 10.3181 0.0000 0.0000
# 5 0.0000 0.0000 0.0000 0.0000 10.3152 0.0000
# 6 0.0000 0.0000 0.0000 0.0000 0.0000 16.2523
#
#
#
# Elastic Compliance Matrix: (Units=1/GPa)
#
#
# Indices 1 2 3 4 5 6 
#
# 1 0.023468 -0.014299 -0.004766 0.000000 0.000000 0.000000
# 2 -0.014299 0.023470 -0.004767 0.000000 0.000000 0.000000
# 3 -0.004766 -0.004767 0.011635 0.000000 0.000000 0.000000
# 4 0.000000 0.000000 0.000000 0.096917 0.000000 0.000000
# 5 0.000000 0.000000 0.000000 0.000000 0.096945 0.000000
# 6 0.000000 0.000000 0.000000 0.000000 0.000000 0.061530
#
#
# Mechanical properties :
#
#
# Convention : Reuss Voigt Hill
#
# Bulk Modulus (GPa) = 91.68009 93.44341 92.56175
# Shear Modulus (GPa) = 13.68870 15.96133 14.82502
#
# Velocity S-wave (km/s) = 2.72125 2.93847 2.83194
# Velocity P-wave (km/s) = 7.71166 7.87800 7.79528
#
# Compressibility (1/GPa) = 0.01090749
#
# Stress axis : x y z
#
# Youngs Moduli (GPa) = 42.61139 42.60831 85.94951
#
# Poissons Ratio (x) = 0.60924 0.40968
# Poissons Ratio (y) = 0.60928 0.40975
# Poissons Ratio (z) = 0.20311 0.20313
#
# Static dielectric constant tensor:
#      x y z
#    x 1.645470 0.000000 0.000000 
#    y 0.000000 1.645470 0.000000 
#    z 0.000000 0.000000 1.611040 
# 
# From -- ./inp_files/2510.got.cif
#   From: 2010.05.17/outbox.cif.g08.bks.cpg/sg95_2_cif.got.tgz:2510.got - 2010.06.03 19:46:49.
