data_PCOD9550372
_publ_section_title
;
Structure prediction by ZEFSAII (Michael W. Deem and Ramdas Pophale) SiO2 
 PCOD9550372
Probable space group: P 42 21 2
;
_chemical_formula_sum "Si O2"
_cell_formula_units_Z 32
_cell_length_a 8.521173
_cell_length_b 8.521173
_cell_length_c 19.052268
_cell_angle_alpha 90.000000
_cell_angle_beta 90.000000
_cell_angle_gamma 90.000000
_cell_volume 1383.392596
_symmetry_space_group_name_H-M "P 42 21 2"
_symmetry_group_IT_number 94
_symmetry_cell_setting 'tetragonal'
loop_
_space_group_symop_operation_xyz
x,y,z
1/2-y,1/2+x,1/2+z
-x,-y,z
1/2+y,1/2-x,1/2+z
1/2+x,1/2-y,1/2-z
1/2-x,1/2+y,1/2-z
y,x,-z
-y,-x,-z
loop_
_atom_site_type_symbol
_atom_site_label
_atom_site_fract_x
_atom_site_fract_y
_atom_site_fract_z
Si Si1 0.114178 0.865610 0.701110
Si Si2 0.675433 0.798806 0.573991
Si Si3 0.373407 0.122944 0.306829
Si Si4 0.822216 0.312941 0.427708
O O1 0.244606 0.933031 0.753387
O O2 0.202543 0.780786 0.637594
O O3 0.993899 0.742987 0.735558
O O4 0.000000 0.000000 0.673036
O O5 0.730574 0.730574 0.500000
O O6 0.783958 0.720265 0.633312
O O7 0.490697 0.766111 0.583702
O O8 0.690253 0.987627 0.571860
O O9 0.500000 0.000000 0.335337
O O10 0.754187 0.245814 0.500000
#
# Coordination Sequence:
#
# PCOD9550372 Si02
#       4
#     8   8   8   8
#     4  12  25  47  74 105 144 198 247 302 374 451
#     4  11  26  47  72 106 144 189 249 306 375 452
#     4  12  27  45  75 110 152 193 249 311 378 448
#     4  11  26  47  75 102 143 193 249 305 372 447
#
# _framework density 23.131540999999999
#
# number of rings (size 3 to 8) (size 9 to 14) (size 15 to 20)
#    0.000    0.500    2.500    4.500   10.500    0.500 
#    0.000    0.000    0.000    0.000    0.000    0.000 
#    0.000    0.000    0.000    0.000    0.000    0.000 
#
# Total GULP energy -179057.594165 kJ/mol
# GULP energy per Si atom -5595.549818 kJ/mol
# Density = 2.307889 g / cm^3
# Si number density = 23.131541 Si / 1000 Ang^3
#
#
#
# Elastic Constant Matrix: (Units=GPa)
#
#
# Indices 1 2 3 4 5 6 
#
# 1 111.9698 83.2810 52.2468 0.0000 0.0000 0.0000
# 2 83.2810 111.9737 52.2466 0.0000 0.0000 0.0000
# 3 52.2468 52.2466 121.8262 0.0000 0.0000 0.0000
# 4 0.0000 0.0000 0.0000 35.1463 0.0000 0.0000
# 5 0.0000 0.0000 0.0000 0.0000 35.1463 0.0000
# 6 0.0000 0.0000 0.0000 0.0000 0.0000 48.8985
#
#
#
# Elastic Compliance Matrix: (Units=1/GPa)
#
#
# Indices 1 2 3 4 5 6 
#
# 1 0.020751 -0.014104 -0.002851 0.000000 0.000000 0.000000
# 2 -0.014104 0.020750 -0.002851 0.000000 0.000000 0.000000
# 3 -0.002851 -0.002851 0.010654 0.000000 0.000000 0.000000
# 4 0.000000 0.000000 0.000000 0.028452 0.000000 0.000000
# 5 0.000000 0.000000 0.000000 0.000000 0.028452 0.000000
# 6 0.000000 0.000000 0.000000 0.000000 0.000000 0.020451
#
#
# Mechanical properties :
#
#
# Convention : Reuss Voigt Hill
#
# Bulk Modulus (GPa) = 79.71292 80.14649 79.92971
# Shear Modulus (GPa) = 28.85128 34.37124 31.61126
#
# Velocity S-wave (km/s) = 3.53550 3.85892 3.70075
# Velocity P-wave (km/s) = 7.15555 7.38772 7.27256
#
# Compressibility (1/GPa) = 0.01254502
#
# Stress axis : x y z
#
# Youngs Moduli (GPa) = 48.18982 48.19198 93.86531
#
# Poissons Ratio (x) = 0.67968 0.26761
# Poissons Ratio (y) = 0.67965 0.26756
# Poissons Ratio (z) = 0.13739 0.13737
#
# Static dielectric constant tensor:
#      x y z
#    x 1.920530 0.000000 0.000000 
#    y 0.000000 1.920530 0.000000 
#    z 0.000000 0.000000 1.800430 
# 
# From -- ./inp_files/4398.got.cif
#   From: 2010.05.17/outbox.cif.g08.bks.cpg/sg94_3_cif.got.tgz:4398.got - 2010.06.03 19:43:16.
