data_PCOD9550064
_publ_section_title
;
Structure prediction by ZEFSAII (Michael W. Deem and Ramdas Pophale) SiO2 
 PCOD9550064
Probable space group: P 42 21 2
;
_chemical_formula_sum "Si O2"
_cell_formula_units_Z 36
_cell_length_a 8.370619
_cell_length_b 8.370619
_cell_length_c 22.125565
_cell_angle_alpha 90.000000
_cell_angle_beta 90.000000
_cell_angle_gamma 90.000000
_cell_volume 1550.277770
_symmetry_space_group_name_H-M "P 42 21 2"
_symmetry_group_IT_number 94
_symmetry_cell_setting 'tetragonal'
loop_
_space_group_symop_operation_xyz
x,y,z
1/2-y,1/2+x,1/2+z
-x,-y,z
1/2+y,1/2-x,1/2+z
1/2+x,1/2-y,1/2-z
1/2-x,1/2+y,1/2-z
y,x,-z
-y,-x,-z
loop_
_atom_site_type_symbol
_atom_site_label
_atom_site_fract_x
_atom_site_fract_y
_atom_site_fract_z
Si Si1 0.304926 0.779841 0.131712
Si Si2 0.195342 0.510282 0.270569
Si Si3 0.982152 0.762998 0.543978
Si Si4 0.841199 0.164694 0.337888
Si Si5 0.500000 0.000000 0.046981
O O1 0.231334 0.866207 0.189056
O O2 0.207935 0.662262 0.088403
O O3 0.469091 0.696559 0.155207
O O4 0.366658 0.924837 0.089547
O O5 0.227729 0.674195 0.306853
O O6 0.271960 0.474652 0.205602
O O7 0.000000 0.500000 0.266566
O O8 0.891520 0.891520 0.500000
O O9 0.115724 0.804895 0.593190
O O10 0.053547 0.637652 0.498027
#
# Coordination Sequence:
#
# PCOD9550064 Si02
#       5
#     8   8   8   8   4
#     4  10  20  43  62  93 132 173 219 271 331 397
#     4  10  22  40  65  92 138 171 215 275 335 397
#     4  10  23  37  67  95 128 171 225 271 330 400
#     4  11  21  38  64  97 126 172 217 272 331 398
#     4  10  20  40  62  94 128 174 212 276 324 392
#
# _framework density 23.221644999999999
#
# number of rings (size 3 to 8) (size 9 to 14) (size 15 to 20)
#    0.000    1.778    3.333    2.000    1.556    8.000 
#    0.000    0.000    0.000    0.000    5.778    0.000 
#    0.000    0.000    0.000    0.000    0.000    0.000 
#
# Total GULP energy -200692.446020 kJ/mol
# GULP energy per Si atom -5574.790167 kJ/mol
# Density = 2.316879 g / cm^3
# Si number density = 23.221645 Si / 1000 Ang^3
#
#
#
# Elastic Constant Matrix: (Units=GPa)
#
#
# Indices 1 2 3 4 5 6 
#
# 1 53.0165 38.2416 46.1492 0.0000 0.0000 0.0000
# 2 38.2416 53.0165 46.1492 0.0000 0.0000 0.0000
# 3 46.1492 46.1492 180.1016 0.0000 0.0000 0.0000
# 4 0.0000 0.0000 0.0000 35.3172 0.0000 0.0000
# 5 0.0000 0.0000 0.0000 0.0000 35.3172 0.0000
# 6 0.0000 0.0000 0.0000 0.0000 0.0000 18.3557
#
#
#
# Elastic Compliance Matrix: (Units=1/GPa)
#
#
# Indices 1 2 3 4 5 6 
#
# 1 0.041237 -0.026445 -0.003790 0.000000 0.000000 0.000000
# 2 -0.026445 0.041237 -0.003790 0.000000 0.000000 0.000000
# 3 -0.003790 -0.003790 0.007495 0.000000 0.000000 0.000000
# 4 0.000000 0.000000 0.000000 0.028315 0.000000 0.000000
# 5 0.000000 0.000000 0.000000 0.000000 0.028315 0.000000
# 6 0.000000 0.000000 0.000000 0.000000 0.000000 0.054479
#
#
# Mechanical properties :
#
#
# Convention : Reuss Voigt Hill
#
# Bulk Modulus (GPa) = 45.62702 60.80162 53.21432
# Shear Modulus (GPa) = 18.08752 28.17101 23.12926
#
# Velocity S-wave (km/s) = 2.79392 3.48679 3.15941
# Velocity P-wave (km/s) = 5.48627 6.51539 6.02285
#
# Compressibility (1/GPa) = 0.02191684
#
# Stress axis : x y z
#
# Youngs Moduli (GPa) = 24.25023 24.25023 133.42637
#
# Poissons Ratio (x) = 0.64131 0.50570
# Poissons Ratio (y) = 0.64131 0.50570
# Poissons Ratio (z) = 0.09191 0.09191
#
# Static dielectric constant tensor:
#      x y z
#    x 1.945200 0.000000 0.000000 
#    y 0.000000 1.945200 0.000000 
#    z 0.000000 0.000000 1.876120 
# 
# From -- ./inp_files/4560.got.cif
#   From: 2010.05.17/outbox.cif.g08.bks.cpg/sg94_3_cif.got.tgz:4560.got - 2010.06.03 19:43:16.
