data_PCOD9550643
_publ_section_title
;
Structure prediction by ZEFSAII (Michael W. Deem and Ramdas Pophale) SiO2 
 PCOD9550643
Probable space group: P 43 2 2
;
_chemical_formula_sum "Si O2"
_cell_formula_units_Z 36
_cell_length_a 10.717551
_cell_length_b 10.717551
_cell_length_c 14.632607
_cell_angle_alpha 90.000000
_cell_angle_beta 90.000000
_cell_angle_gamma 90.000000
_cell_volume 1680.787564
_symmetry_space_group_name_H-M "P 43 2 2"
_symmetry_group_IT_number 95
_symmetry_cell_setting 'tetragonal'
loop_
_space_group_symop_operation_xyz
x,y,z
-y,x,3/4+z
-x,-y,1/2+z
y,-x,1/4+z
x,-y,1/2-z
-x,y,-z
y,x,1/4-z
-y,-x,3/4-z
loop_
_atom_site_type_symbol
_atom_site_label
_atom_site_fract_x
_atom_site_fract_y
_atom_site_fract_z
Si Si1 0.000000 0.853568 0.500000
Si Si2 0.219016 0.219016 0.125000
Si Si3 0.640922 0.725361 0.313412
Si Si4 0.246274 0.246274 0.625000
Si Si5 0.616515 0.352728 0.746946
Si Si6 0.800033 0.966978 0.354181
O O1 0.088081 0.778595 0.429177
O O2 0.096647 0.923523 0.570873
O O3 0.253519 0.317915 0.203880
O O4 0.693699 0.697517 0.214357
O O5 0.681370 0.629316 0.391324
O O6 0.492566 0.719168 0.299544
O O7 0.699458 0.857980 0.341279
O O8 0.096893 0.261122 0.633770
O O9 0.591825 0.500000 0.750000
O O10 0.846688 0.000000 0.250000
#
# Coordination Sequence:
#
# PCOD9550643 Si02
#       6
#     4   4   8   4   8   8
#     4  12  26  42  76 106 148 186 240 296 364 456
#     4  12  27  43  74 112 138 190 246 303 367 440
#     4  11  25  45  74 104 135 191 250 292 357 436
#     4  10  25  43  72 104 148 190 234 301 367 436
#     4  12  25  49  77  96 144 195 246 300 358 441
#     4  10  24  45  70 104 148 189 235 295 368 443
#
# _framework density 21.418531999999999
#
# number of rings (size 3 to 8) (size 9 to 14) (size 15 to 20)
#    0.000    0.889    4.444    0.667   15.556    0.000 
#    6.000    0.000    9.778    0.000    0.000    0.000 
#    0.000    0.000    0.000    0.000    0.000    0.000 
#
# Total GULP energy -200746.018831 kJ/mol
# GULP energy per Si atom -5576.278301 kJ/mol
# Density = 2.136978 g / cm^3
# Si number density = 21.418532 Si / 1000 Ang^3
#
#
#
# Elastic Constant Matrix: (Units=GPa)
#
#
# Indices 1 2 3 4 5 6 
#
# 1 78.2696 55.9765 49.1169 0.0000 0.0000 0.0000
# 2 55.9765 78.2696 49.1169 0.0000 0.0000 0.0000
# 3 49.1169 49.1169 172.0626 0.0000 0.0000 0.0000
# 4 0.0000 0.0000 0.0000 43.2922 0.0000 0.0000
# 5 0.0000 0.0000 0.0000 0.0000 43.2922 0.0000
# 6 0.0000 0.0000 0.0000 0.0000 0.0000 16.8506
#
#
#
# Elastic Compliance Matrix: (Units=1/GPa)
#
#
# Indices 1 2 3 4 5 6 
#
# 1 0.027136 -0.017721 -0.002688 0.000000 0.000000 0.000000
# 2 -0.017721 0.027136 -0.002688 0.000000 0.000000 0.000000
# 3 -0.002688 -0.002688 0.007346 0.000000 0.000000 0.000000
# 4 0.000000 0.000000 0.000000 0.023099 0.000000 0.000000
# 5 0.000000 0.000000 0.000000 0.000000 0.023099 0.000000
# 6 0.000000 0.000000 0.000000 0.000000 0.000000 0.059345
#
#
# Mechanical properties :
#
#
# Convention : Reuss Voigt Hill
#
# Bulk Modulus (GPa) = 64.82283 70.78026 67.80154
# Shear Modulus (GPa) = 22.88367 32.31310 27.59838
#
# Velocity S-wave (km/s) = 3.27219 3.88835 3.59350
# Velocity P-wave (km/s) = 6.67884 7.29911 6.99585
#
# Compressibility (1/GPa) = 0.01542666
#
# Stress axis : x y z
#
# Youngs Moduli (GPa) = 36.85089 36.85089 136.12160
#
# Poissons Ratio (x) = 0.65302 0.36587
# Poissons Ratio (y) = 0.65302 0.36587
# Poissons Ratio (z) = 0.09905 0.09905
#
# Static dielectric constant tensor:
#      x y z
#    x 1.787560 0.000000 0.000000 
#    y 0.000000 1.787560 0.000000 
#    z 0.000000 0.000000 1.836300 
# 
# From -- ./inp_files/4713.got.cif
#   From: 2010.05.17/outbox.cif.g08.bks.cpg/sg95_3_cif.got.tgz:4713.got - 2010.06.03 19:46:49.
