data_PCOD9550288
_publ_section_title
;
Structure prediction by ZEFSAII (Michael W. Deem and Ramdas Pophale) SiO2 
 PCOD9550288
Probable space group: P 42 21 2
;
_chemical_formula_sum "Si O2"
_cell_formula_units_Z 32
_cell_length_a 11.607729
_cell_length_b 11.607729
_cell_length_c 10.098150
_cell_angle_alpha 90.000000
_cell_angle_beta 90.000000
_cell_angle_gamma 90.000000
_cell_volume 1360.618395
_symmetry_space_group_name_H-M "P 42 21 2"
_symmetry_group_IT_number 94
_symmetry_cell_setting 'tetragonal'
loop_
_space_group_symop_operation_xyz
x,y,z
1/2-y,1/2+x,1/2+z
-x,-y,z
1/2+y,1/2-x,1/2+z
1/2+x,1/2-y,1/2-z
1/2-x,1/2+y,1/2-z
y,x,-z
-y,-x,-z
loop_
_atom_site_type_symbol
_atom_site_label
_atom_site_fract_x
_atom_site_fract_y
_atom_site_fract_z
Si Si1 0.800565 0.199436 0.500000
Si Si2 0.778157 0.420145 0.648599
Si Si3 0.659566 0.814469 0.595777
Si Si4 0.099706 0.906204 0.768275
Si Si5 0.000000 0.500000 0.056638
O O1 0.804164 0.335669 0.526747
O O2 0.843051 0.129833 0.628163
O O3 0.756455 0.352505 0.783555
O O4 0.688732 0.522700 0.639517
O O5 0.904763 0.465115 0.663151
O O6 0.745715 0.745715 0.500000
O O7 0.575217 0.716184 0.660234
O O8 0.592119 0.923244 0.530086
O O9 0.000000 0.000000 0.747637
#
# Coordination Sequence:
#
# PCOD9550288 Si02
#       5
#     4   8   8   8   4
#     4  10  25  46  69 116 146 204 244 324 396 466
#     4  11  25  43  75 105 153 199 258 310 397 467
#     4  11  25  46  73 114 150 201 258 320 400 468
#     4  11  25  47  76 112 154 201 260 332 400 478
#     4  12  24  46  72 108 154 200 254 320 380 486
#
# _framework density 23.518718
#
# number of rings (size 3 to 8) (size 9 to 14) (size 15 to 20)
#    0.000    1.000    2.500    2.625    3.500    6.500 
#    0.000    0.000    0.000    0.000    0.000    0.000 
#    0.000    0.000    0.000    0.000    0.000    0.000 
#
# Total GULP energy -178146.121210 kJ/mol
# GULP energy per Si atom -5567.066288 kJ/mol
# Density = 2.346519 g / cm^3
# Si number density = 23.518718 Si / 1000 Ang^3
#
#
#
# Elastic Constant Matrix: (Units=GPa)
#
#
# Indices 1 2 3 4 5 6 
#
# 1 97.7590 17.1378 20.3873 0.0000 0.0000 0.0000
# 2 17.1378 97.7597 20.3877 0.0000 0.0000 0.0000
# 3 20.3873 20.3877 109.4143 0.0000 0.0000 0.0000
# 4 0.0000 0.0000 0.0000 23.9232 0.0000 0.0000
# 5 0.0000 0.0000 0.0000 0.0000 23.9230 0.0000
# 6 0.0000 0.0000 0.0000 0.0000 0.0000 43.3524
#
#
#
# Elastic Compliance Matrix: (Units=1/GPa)
#
#
# Indices 1 2 3 4 5 6 
#
# 1 0.010862 -0.001542 -0.001737 0.000000 0.000000 0.000000
# 2 -0.001542 0.010862 -0.001737 0.000000 0.000000 0.000000
# 3 -0.001737 -0.001737 0.009787 0.000000 0.000000 0.000000
# 4 0.000000 0.000000 0.000000 0.041800 0.000000 0.000000
# 5 0.000000 0.000000 0.000000 0.000000 0.041801 0.000000
# 6 0.000000 0.000000 0.000000 0.000000 0.000000 0.023067
#
#
# Mechanical properties :
#
#
# Convention : Reuss Voigt Hill
#
# Bulk Modulus (GPa) = 46.55516 46.75092 46.65304
# Shear Modulus (GPa) = 32.18161 34.70773 33.44467
#
# Velocity S-wave (km/s) = 3.70312 3.84572 3.77509
# Velocity P-wave (km/s) = 6.17431 6.29609 6.23549
#
# Compressibility (1/GPa) = 0.02147990
#
# Stress axis : x y z
#
# Youngs Moduli (GPa) = 92.06661 92.06711 102.17911
#
# Poissons Ratio (x) = 0.14196 0.17744
# Poissons Ratio (y) = 0.14196 0.17744
# Poissons Ratio (z) = 0.15988 0.15988
#
# Static dielectric constant tensor:
#      x y z
#    x 1.798560 0.000000 0.000000 
#    y 0.000000 1.798560 0.000000 
#    z 0.000000 0.000000 1.993720 
# 
# From -- ./inp_files/2333.got.cif
#   From: 2010.05.17/outbox.cif.g08.bks.cpg/sg94_2_cif.got.tgz:2333.got - 2010.06.03 19:43:16.
