data_PCOD9550638
_publ_section_title
;
Structure prediction by ZEFSAII (Michael W. Deem and Ramdas Pophale) SiO2 
 PCOD9550638
Probable space group: P 43 2 2
;
_chemical_formula_sum "Si O2"
_cell_formula_units_Z 32
_cell_length_a 7.412702
_cell_length_b 7.412702
_cell_length_c 24.838514
_cell_angle_alpha 90.000000
_cell_angle_beta 90.000000
_cell_angle_gamma 90.000000
_cell_volume 1364.830416
_symmetry_space_group_name_H-M "P 43 2 2"
_symmetry_group_IT_number 95
_symmetry_cell_setting 'tetragonal'
loop_
_space_group_symop_operation_xyz
x,y,z
-y,x,3/4+z
-x,-y,1/2+z
y,-x,1/4+z
x,-y,1/2-z
-x,y,-z
y,x,1/4-z
-y,-x,3/4-z
loop_
_atom_site_type_symbol
_atom_site_label
_atom_site_fract_x
_atom_site_fract_y
_atom_site_fract_z
Si Si1 0.500000 0.595679 0.500000
Si Si2 0.740317 0.359535 0.316169
Si Si3 0.143757 0.392105 0.047235
Si Si4 0.085635 0.914366 0.375000
Si Si5 0.807794 0.233559 0.202120
O O1 0.405197 0.462397 0.543691
O O2 0.665264 0.694433 0.527984
O O3 0.726000 0.274001 0.375000
O O4 0.822926 0.243075 0.267195
O O5 0.831179 0.557294 0.316167
O O6 0.072306 0.276698 0.095704
O O7 0.183397 0.599980 0.060473
O O8 0.000000 0.387160 0.000000
O O9 0.935471 0.902659 0.329128
#
# Coordination Sequence:
#
# PCOD9550638 Si02
#       5
#     4   8   8   4   8
#     4   8  20  36  66 104 128 174 250 274 352 432
#     4   8  16  37  73 100 138 184 245 289 355 431
#     4  10  24  44  70  98 141 185 231 295 359 422
#     4  12  26  42  70 108 146 174 244 296 352 442
#     4   9  23  41  65 112 138 186 243 290 364 431
#
# _framework density 23.446135999999999
#
# number of rings (size 3 to 8) (size 9 to 14) (size 15 to 20)
#    0.000    3.500    0.000    0.000   14.000    3.000 
#    0.000   12.500    2.750    0.000    0.000    0.000 
#    0.000    0.000    0.000    0.000    0.000    0.000 
#
# Total GULP energy -178784.649062 kJ/mol
# GULP energy per Si atom -5587.020283 kJ/mol
# Density = 2.339277 g / cm^3
# Si number density = 23.446136 Si / 1000 Ang^3
#
#
#
# Elastic Constant Matrix: (Units=GPa)
#
#
# Indices 1 2 3 4 5 6 
#
# 1 -26.4167 148.4531 68.2150 0.0000 0.0000 0.0000
# 2 148.4531 -26.4201 68.2182 0.0000 0.0000 0.0000
# 3 68.2150 68.2182 176.6077 0.0000 0.0000 0.0000
# 4 0.0000 0.0000 0.0000 -21.9482 0.0000 0.0000
# 5 0.0000 0.0000 0.0000 0.0000 -21.9567 0.0000
# 6 0.0000 0.0000 0.0000 0.0000 0.0000 5.0322
#
#
#
# Elastic Compliance Matrix: (Units=1/GPa)
#
#
# Indices 1 2 3 4 5 6 
#
# 1 0.004352 0.010071 -0.005571 0.000000 0.000000 0.000000
# 2 0.010071 0.004352 -0.005571 0.000000 0.000000 0.000000
# 3 -0.005571 -0.005571 0.009966 0.000000 0.000000 0.000000
# 4 0.000000 0.000000 0.000000 -0.045562 0.000000 0.000000
# 5 0.000000 0.000000 0.000000 0.000000 -0.045544 0.000000
# 6 0.000000 0.000000 0.000000 0.000000 0.000000 0.198720
#
#
# Mechanical properties :
#
#
# Convention : Reuss Voigt Hill
#
# Bulk Modulus (GPa) = 60.50514 77.06037 68.78276
# Shear Modulus (GPa) = 37.33152 -18.51555 9.40798
#
# Velocity S-wave (km/s) = 3.99460 -2.81322 2.00532
# Velocity P-wave (km/s) = 6.86570 4.73139 5.89592
#
# Compressibility (1/GPa) = 0.01652752
#
# Stress axis : x y z
#
# Youngs Moduli (GPa) = 229.76518 229.79096 100.34248
#
# Poissons Ratio (x) = -2.31411 0.55901
# Poissons Ratio (y) = -2.31385 0.55898
# Poissons Ratio (z) = 1.28002 1.28010
#
# Static dielectric constant tensor:
#      x y z
#    x 1.923270 0.000000 0.000000 
#    y 0.000000 1.923280 0.000000 
#    z 0.000000 0.000000 1.896810 
# 
# From -- ./inp_files/6746.got.cif
#   From: 2010.05.17/outbox.cif.g08.bks.cpg/sg95_4_cif.got.tgz:6746.got - 2010.06.03 19:46:49.
