data_PCOD9550230
_publ_section_title
;
Structure prediction by ZEFSAII (Michael W. Deem and Ramdas Pophale) SiO2 
 PCOD9550230
Probable space group: P 42 21 2
;
_chemical_formula_sum "Si O2"
_cell_formula_units_Z 28
_cell_length_a 9.354508
_cell_length_b 9.354508
_cell_length_c 13.422017
_cell_angle_alpha 90.000000
_cell_angle_beta 90.000000
_cell_angle_gamma 90.000000
_cell_volume 1174.518025
_symmetry_space_group_name_H-M "P 42 21 2"
_symmetry_group_IT_number 94
_symmetry_cell_setting 'tetragonal'
loop_
_space_group_symop_operation_xyz
x,y,z
1/2-y,1/2+x,1/2+z
-x,-y,z
1/2+y,1/2-x,1/2+z
1/2+x,1/2-y,1/2-z
1/2-x,1/2+y,1/2-z
y,x,-z
-y,-x,-z
loop_
_atom_site_type_symbol
_atom_site_label
_atom_site_fract_x
_atom_site_fract_y
_atom_site_fract_z
Si Si1 0.214945 0.612028 0.429514
Si Si2 0.000000 0.500000 0.068038
Si Si3 0.328056 0.493691 0.835358
Si Si4 0.700893 0.854712 0.292700
O O1 0.342142 0.657859 0.500000
O O2 0.132219 0.497220 0.493852
O O3 0.247543 0.581057 0.314928
O O4 0.102745 0.746137 0.416622
O O5 0.134612 0.519784 0.140718
O O6 0.500000 0.500000 0.841539
O O7 0.285057 0.659340 0.839105
O O8 0.260570 0.421686 0.735328
#
# Coordination Sequence:
#
# PCOD9550230 Si02
#       4
#     8   4   8   8
#     4  10  23  40  66  97 133 179 224 282 340 420
#     4  12  22  40  66  96 138 172 234 278 350 414
#     4  10  23  41  66  95 134 177 230 281 353 417
#     4  10  24  40  66  98 135 176 227 293 342 412
#
# _framework density 23.839566000000001
#
# number of rings (size 3 to 8) (size 9 to 14) (size 15 to 20)
#    1.714    0.000    0.000    4.286    4.000    4.000 
#    0.000    0.000    0.000    6.000    0.000    0.000 
#    0.000    0.000    0.000    0.000    0.000    0.000 
#
# Total GULP energy -156117.078194 kJ/mol
# GULP energy per Si atom -5575.609936 kJ/mol
# Density = 2.378531 g / cm^3
# Si number density = 23.839566 Si / 1000 Ang^3
#
#
#
# Elastic Constant Matrix: (Units=GPa)
#
#
# Indices 1 2 3 4 5 6 
#
# 1 41.2733 5.8623 -2.4184 0.0000 0.0000 0.0000
# 2 5.8623 41.2725 -2.4188 0.0000 0.0000 0.0000
# 3 -2.4184 -2.4188 111.7236 0.0000 0.0000 0.0000
# 4 0.0000 0.0000 0.0000 25.9019 0.0000 0.0000
# 5 0.0000 0.0000 0.0000 0.0000 25.9012 0.0000
# 6 0.0000 0.0000 0.0000 0.0000 0.0000 42.4638
#
#
#
# Elastic Compliance Matrix: (Units=1/GPa)
#
#
# Indices 1 2 3 4 5 6 
#
# 1 0.024751 -0.003489 0.000460 0.000000 0.000000 0.000000
# 2 -0.003489 0.024752 0.000460 0.000000 0.000000 0.000000
# 3 0.000460 0.000460 0.008971 0.000000 0.000000 0.000000
# 4 0.000000 0.000000 0.000000 0.038607 0.000000 0.000000
# 5 0.000000 0.000000 0.000000 0.000000 0.038608 0.000000
# 6 0.000000 0.000000 0.000000 0.000000 0.000000 0.023549
#
#
# Mechanical properties :
#
#
# Convention : Reuss Voigt Hill
#
# Bulk Modulus (GPa) = 18.74857 21.81329 20.28093
# Shear Modulus (GPa) = 27.44935 31.73633 29.59284
#
# Velocity S-wave (km/s) = 3.39694 3.65258 3.52708
# Velocity P-wave (km/s) = 4.82360 5.19215 5.01126
#
# Compressibility (1/GPa) = 0.05333741
#
# Stress axis : x y z
#
# Youngs Moduli (GPa) = 40.40203 40.40124 111.47536
#
# Poissons Ratio (x) = 0.14095 -0.05130
# Poissons Ratio (y) = 0.14095 -0.05132
# Poissons Ratio (z) = -0.01859 -0.01860
#
# Static dielectric constant tensor:
#      x y z
#    x 1.860740 0.000000 0.000000 
#    y 0.000000 1.860740 0.000000 
#    z 0.000000 0.000000 1.869960 
# 
# From -- ./inp_files/3858.got.cif
#   From: 2010.05.17/outbox.cif.g08.bks.cpg/sg94_2_cif.got.tgz:3858.got - 2010.06.03 19:43:16.
