data_PCOD9550177
_publ_section_title
;
Structure prediction by ZEFSAII (Michael W. Deem and Ramdas Pophale) SiO2 
 PCOD9550177
Probable space group: P 42 21 2
;
_chemical_formula_sum "Si O2"
_cell_formula_units_Z 36
_cell_length_a 8.796810
_cell_length_b 8.796810
_cell_length_c 20.404755
_cell_angle_alpha 90.000000
_cell_angle_beta 90.000000
_cell_angle_gamma 90.000000
_cell_volume 1578.998830
_symmetry_space_group_name_H-M "P 42 21 2"
_symmetry_group_IT_number 94
_symmetry_cell_setting 'tetragonal'
loop_
_space_group_symop_operation_xyz
x,y,z
1/2-y,1/2+x,1/2+z
-x,-y,z
1/2+y,1/2-x,1/2+z
1/2+x,1/2-y,1/2-z
1/2-x,1/2+y,1/2-z
y,x,-z
-y,-x,-z
loop_
_atom_site_type_symbol
_atom_site_label
_atom_site_fract_x
_atom_site_fract_y
_atom_site_fract_z
Si Si1 0.171176 0.051268 0.901749
Si Si2 0.898767 0.869041 0.396489
Si Si3 0.370226 0.122314 0.304629
Si Si4 0.202934 0.797067 0.000000
Si Si5 0.858769 0.621395 0.842297
O O1 0.166992 0.233494 0.890561
O O2 0.241071 0.958410 0.840515
O O3 0.000000 0.000000 0.904865
O O4 0.232462 0.963832 0.967555
O O5 0.758711 0.931744 0.354578
O O6 0.826780 0.744385 0.444798
O O7 0.011069 0.784063 0.347723
O O8 0.000000 0.000000 0.428283
O O9 0.310677 0.142453 0.231196
O O10 0.500000 0.000000 0.298153
O O11 0.000000 0.500000 0.851918
#
# Coordination Sequence:
#
# PCOD9550177 Si02
#       5
#     8   8   8   4   8
#     4  11  23  42  64  89 127 175 219 273 335 402
#     4  11  23  42  67  96 131 174 226 287 343 405
#     4  10  22  40  65  99 136 170 213 271 345 421
#     4  10  24  46  62  86 130 176 228 278 338 412
#     4  11  23  40  65 100 134 170 220 278 343 413
#
# _framework density 22.799257999999998
#
# number of rings (size 3 to 8) (size 9 to 14) (size 15 to 20)
#    0.000    1.333    0.000    6.000    0.000    7.111 
#    0.000   28.889    0.000    0.000    0.000    0.000 
#    0.000    0.000    0.000    0.000    0.000    0.000 
#
# Total GULP energy -200671.142143 kJ/mol
# GULP energy per Si atom -5574.198393 kJ/mol
# Density = 2.274737 g / cm^3
# Si number density = 22.799258 Si / 1000 Ang^3
#
#
#
# Elastic Constant Matrix: (Units=GPa)
#
#
# Indices 1 2 3 4 5 6 
#
# 1 80.4936 20.6354 33.8899 0.0000 0.0000 0.0000
# 2 20.6354 80.4942 33.8900 0.0000 0.0000 0.0000
# 3 33.8899 33.8900 116.4617 0.0000 0.0000 0.0000
# 4 0.0000 0.0000 0.0000 25.0103 0.0000 0.0000
# 5 0.0000 0.0000 0.0000 0.0000 25.0102 0.0000
# 6 0.0000 0.0000 0.0000 0.0000 0.0000 34.2462
#
#
#
# Elastic Compliance Matrix: (Units=1/GPa)
#
#
# Indices 1 2 3 4 5 6 
#
# 1 0.014495 -0.002211 -0.003575 0.000000 0.000000 0.000000
# 2 -0.002211 0.014495 -0.003575 0.000000 0.000000 0.000000
# 3 -0.003575 -0.003575 0.010667 0.000000 0.000000 0.000000
# 4 0.000000 0.000000 0.000000 0.039984 0.000000 0.000000
# 5 0.000000 0.000000 0.000000 0.000000 0.039984 0.000000
# 6 0.000000 0.000000 0.000000 0.000000 0.000000 0.029200
#
#
# Mechanical properties :
#
#
# Convention : Reuss Voigt Hill
#
# Bulk Modulus (GPa) = 47.76307 50.47555 49.11931
# Shear Modulus (GPa) = 28.64934 29.45562 29.05248
#
# Velocity S-wave (km/s) = 3.54869 3.59828 3.57357
# Velocity P-wave (km/s) = 6.14701 6.28098 6.21436
#
# Compressibility (1/GPa) = 0.02093668
#
# Stress axis : x y z
#
# Youngs Moduli (GPa) = 68.98850 68.98909 93.74766
#
# Poissons Ratio (x) = 0.15253 0.33512
# Poissons Ratio (y) = 0.15253 0.33511
# Poissons Ratio (z) = 0.24661 0.24661
#
# Static dielectric constant tensor:
#      x y z
#    x 1.863000 0.000000 0.000000 
#    y 0.000000 1.863000 0.000000 
#    z 0.000000 0.000000 1.962290 
# 
# From -- ./inp_files/4506.got.cif
#   From: 2010.05.17/outbox.cif.g08.bks.cpg/sg94_3_cif.got.tgz:4506.got - 2010.06.03 19:43:16.
