data_PCOD9550385
_publ_section_title
;
Structure prediction by ZEFSAII (Michael W. Deem and Ramdas Pophale) SiO2 
 PCOD9550385
Probable space group: P 42 21 2
;
_chemical_formula_sum "Si O2"
_cell_formula_units_Z 34
_cell_length_a 8.307503
_cell_length_b 8.307503
_cell_length_c 18.921242
_cell_angle_alpha 90.000000
_cell_angle_beta 90.000000
_cell_angle_gamma 90.000000
_cell_volume 1305.842063
_symmetry_space_group_name_H-M "P 42 21 2"
_symmetry_group_IT_number 94
_symmetry_cell_setting 'tetragonal'
loop_
_space_group_symop_operation_xyz
x,y,z
1/2-y,1/2+x,1/2+z
-x,-y,z
1/2+y,1/2-x,1/2+z
1/2+x,1/2-y,1/2-z
1/2-x,1/2+y,1/2-z
y,x,-z
-y,-x,-z
loop_
_atom_site_type_symbol
_atom_site_label
_atom_site_fract_x
_atom_site_fract_y
_atom_site_fract_z
Si Si1 0.236850 0.063667 0.106827
Si Si2 0.201268 0.678662 0.106928
Si Si3 0.500000 0.500000 0.838576
Si Si4 0.098178 0.664267 0.266940
Si Si5 0.000000 0.500000 0.989366
Si Si6 0.000000 0.000000 0.000000
O O1 0.243979 0.868222 0.102219
O O2 0.243014 0.131703 0.185232
O O3 0.082795 0.110928 0.061751
O O4 0.393940 0.112270 0.062379
O O5 0.352440 0.559915 0.114493
O O6 0.118459 0.663513 0.183542
O O7 0.103148 0.613828 0.040386
O O8 0.660519 0.540643 0.792818
O O9 0.000000 0.500000 0.285035
#
# Coordination Sequence:
#
# PCOD9550385 Si02
#       6
#     8   8   4   8   4   2
#     4  12  26  52  74 113 162 205 267 336 403 491
#     4  12  26  49  77 113 157 212 269 330 412 491
#     4  12  28  45  79 116 148 214 262 332 420 469
#     4  12  26  50  76 112 161 203 269 345 399 502
#     4  12  24  48  76 106 164 204 256 328 396 486
#     4  12  28  46  80 112 146 220 258 316 416 482
#
# _framework density 26.036839000000001
#
# number of rings (size 3 to 8) (size 9 to 14) (size 15 to 20)
#    0.000    0.000    7.059    1.412    3.294    3.765 
#    0.000    4.706    0.000    0.000    0.000    0.000 
#    0.000    0.000    0.000    0.000    0.000    0.000 
#
# Total GULP energy -189875.278418 kJ/mol
# GULP energy per Si atom -5584.567012 kJ/mol
# Density = 2.597758 g / cm^3
# Si number density = 26.036839 Si / 1000 Ang^3
#
#
#
# Elastic Constant Matrix: (Units=GPa)
#
#
# Indices 1 2 3 4 5 6 
#
# 1 131.3215 37.2772 27.7605 0.0000 0.0000 0.0000
# 2 37.2772 131.3215 27.7605 0.0000 0.0000 0.0000
# 3 27.7605 27.7605 156.7861 0.0000 0.0000 0.0000
# 4 0.0000 0.0000 0.0000 26.3812 0.0000 0.0000
# 5 0.0000 0.0000 0.0000 0.0000 26.3812 0.0000
# 6 0.0000 0.0000 0.0000 0.0000 0.0000 35.8106
#
#
#
# Elastic Compliance Matrix: (Units=1/GPa)
#
#
# Indices 1 2 3 4 5 6 
#
# 1 0.008466 -0.002167 -0.001115 0.000000 0.000000 0.000000
# 2 -0.002167 0.008466 -0.001115 0.000000 0.000000 0.000000
# 3 -0.001115 -0.001115 0.006773 0.000000 0.000000 0.000000
# 4 0.000000 0.000000 0.000000 0.037906 0.000000 0.000000
# 5 0.000000 0.000000 0.000000 0.000000 0.037906 0.000000
# 6 0.000000 0.000000 0.000000 0.000000 0.000000 0.027925
#
#
# Mechanical properties :
#
#
# Convention : Reuss Voigt Hill
#
# Bulk Modulus (GPa) = 67.07277 67.22506 67.14892
# Shear Modulus (GPa) = 35.40915 39.48999 37.44957
#
# Velocity S-wave (km/s) = 3.69177 3.89870 3.79665
# Velocity P-wave (km/s) = 6.63241 6.79277 6.71307
#
# Compressibility (1/GPa) = 0.01490918
#
# Stress axis : x y z
#
# Youngs Moduli (GPa) = 118.12106 118.12106 147.64432
#
# Poissons Ratio (x) = 0.25602 0.16465
# Poissons Ratio (y) = 0.25602 0.16465
# Poissons Ratio (z) = 0.13173 0.13173
#
# Static dielectric constant tensor:
#      x y z
#    x 2.126190 0.000000 0.000000 
#    y 0.000000 2.126190 0.000000 
#    z 0.000000 0.000000 1.983760 
# 
# From -- ./inp_files/4570.got.cif
#   From: 2010.05.17/outbox.cif.g08.bks.cpg/sg94_3_cif.got.tgz:4570.got - 2010.06.03 19:43:16.
