data_PCOD9550843
_publ_section_title
;
Structure prediction by ZEFSAII (Michael W. Deem and Ramdas Pophale) SiO2 
 PCOD9550843
Probable space group: P 43 21 2
;
_chemical_formula_sum "Si O2"
_cell_formula_units_Z 40
_cell_length_a 7.758591
_cell_length_b 7.758591
_cell_length_c 24.930573
_cell_angle_alpha 90.000000
_cell_angle_beta 90.000000
_cell_angle_gamma 90.000000
_cell_volume 1500.714148
_symmetry_space_group_name_H-M "P 43 21 2"
_symmetry_group_IT_number 96
_symmetry_cell_setting 'tetragonal'
loop_
_space_group_symop_operation_xyz
x,y,z
1/2-y,1/2+x,3/4+z
-x,-y,1/2+z
1/2+y,1/2-x,1/4+z
1/2+x,1/2-y,1/4-z
1/2-x,1/2+y,3/4-z
y,x,-z
-y,-x,1/2-z
loop_
_atom_site_type_symbol
_atom_site_label
_atom_site_fract_x
_atom_site_fract_y
_atom_site_fract_z
Si Si1 0.741206 0.490463 0.856188
Si Si2 0.243953 0.243953 0.000000
Si Si3 0.232263 0.753911 0.951192
Si Si4 0.328896 0.890778 0.053429
Si Si5 0.126505 0.905041 0.842406
Si Si6 0.854386 0.854386 0.000000
O O1 0.719954 0.679189 0.831628
O O2 0.887125 0.474200 0.901333
O O3 0.559421 0.461911 0.886860
O O4 0.754099 0.359111 0.805545
O O5 0.387063 0.259523 0.953632
O O6 0.073142 0.253295 0.964428
O O7 0.233808 0.848692 0.894322
O O8 0.272178 0.557673 0.937424
O O9 0.046654 0.809546 0.976455
O O10 0.370924 0.807845 0.996185
#
# Coordination Sequence:
#
# PCOD9550843 Si02
#       6
#     8   4   8   8   8   4
#     4  10  22  43  67  96 136 181 234 292 360 441
#     4  12  25  44  69 102 140 184 241 308 379 448
#     4  10  20  39  68  99 142 186 234 303 366 438
#     4  11  23  43  67  96 140 184 228 290 364 444
#     4  11  22  41  70 105 139 182 244 304 367 442
#     4   8  19  40  65  96 138 188 233 286 369 450
#
# _framework density 26.653974999999999
#
# number of rings (size 3 to 8) (size 9 to 14) (size 15 to 20)
#    0.000    1.600    0.000    7.200    0.000    3.200 
#    0.000   21.000    0.000    0.000    0.000    0.000 
#    0.000    0.000    0.000    0.000    0.000    0.000 
#
# Total GULP energy -223721.429493 kJ/mol
# GULP energy per Si atom -5593.035737 kJ/mol
# Density = 2.659331 g / cm^3
# Si number density = 26.653975 Si / 1000 Ang^3
#
#
#
# Elastic Constant Matrix: (Units=GPa)
#
#
# Indices 1 2 3 4 5 6 
#
# 1 85.8887 33.4440 47.5721 0.0000 0.0000 0.0000
# 2 33.4440 85.8887 47.5721 0.0000 0.0000 0.0000
# 3 47.5721 47.5721 223.0069 0.0000 0.0000 0.0000
# 4 0.0000 0.0000 0.0000 55.1500 0.0000 0.0000
# 5 0.0000 0.0000 0.0000 0.0000 55.1500 0.0000
# 6 0.0000 0.0000 0.0000 0.0000 0.0000 32.1741
#
#
#
# Elastic Compliance Matrix: (Units=1/GPa)
#
#
# Indices 1 2 3 4 5 6 
#
# 1 0.014583 -0.004485 -0.002154 0.000000 0.000000 0.000000
# 2 -0.004485 0.014583 -0.002154 0.000000 0.000000 0.000000
# 3 -0.002154 -0.002154 0.005403 0.000000 0.000000 0.000000
# 4 0.000000 0.000000 0.000000 0.018132 0.000000 0.000000
# 5 0.000000 0.000000 0.000000 0.000000 0.018132 0.000000
# 6 0.000000 0.000000 0.000000 0.000000 0.000000 0.031081
#
#
# Mechanical properties :
#
#
# Convention : Reuss Voigt Hill
#
# Bulk Modulus (GPa) = 58.88632 72.44004 65.66318
# Shear Modulus (GPa) = 39.94865 46.24123 43.09494
#
# Velocity S-wave (km/s) = 3.87562 4.16970 4.02534
# Velocity P-wave (km/s) = 6.49369 7.10062 6.80393
#
# Compressibility (1/GPa) = 0.01698187
#
# Stress axis : x y z
#
# Youngs Moduli (GPa) = 68.57532 68.57532 185.07758
#
# Poissons Ratio (x) = 0.30757 0.39865
# Poissons Ratio (y) = 0.30757 0.39865
# Poissons Ratio (z) = 0.14771 0.14771
#
# Static dielectric constant tensor:
#      x y z
#    x 2.155460 0.000000 0.000000 
#    y 0.000000 2.155460 0.000000 
#    z 0.000000 0.000000 2.084040 
# 
# From -- ./inp_files/3865.got.cif
#   From: 2010.05.17/outbox.cif.g08.bks.cpg/sg96_2_cif.got.tgz:3865.got - 2010.06.03 19:52:08.
