data_PCOD9550465
_publ_section_title
;
Structure prediction by ZEFSAII (Michael W. Deem and Ramdas Pophale) SiO2 
 PCOD9550465
Probable space group: P 43 2 2
;
_chemical_formula_sum "Si O2"
_cell_formula_units_Z 40
_cell_length_a 9.913281
_cell_length_b 9.913281
_cell_length_c 16.584872
_cell_angle_alpha 90.000000
_cell_angle_beta 90.000000
_cell_angle_gamma 90.000000
_cell_volume 1629.847451
_symmetry_space_group_name_H-M "P 43 2 2"
_symmetry_group_IT_number 95
_symmetry_cell_setting 'tetragonal'
loop_
_space_group_symop_operation_xyz
x,y,z
-y,x,3/4+z
-x,-y,1/2+z
y,-x,1/4+z
x,-y,1/2-z
-x,y,-z
y,x,1/4-z
-y,-x,3/4-z
loop_
_atom_site_type_symbol
_atom_site_label
_atom_site_fract_x
_atom_site_fract_y
_atom_site_fract_z
Si Si1 0.567758 0.127855 0.329765
Si Si2 0.123831 0.577721 0.168625
Si Si3 0.273589 0.795620 0.995104
Si Si4 0.412416 0.362705 0.364698
Si Si5 0.033817 0.878308 0.198798
O O1 0.637764 0.171790 0.415717
O O2 0.691624 0.153706 0.271744
O O3 0.458687 0.240601 0.306818
O O4 0.524747 0.976599 0.348839
O O5 0.080127 0.500000 0.250000
O O6 0.281688 0.552667 0.158295
O O7 0.113340 0.743368 0.170551
O O8 0.195377 0.932774 0.012906
O O9 0.368748 0.722512 0.057465
O O10 0.537875 0.462126 0.375000
O O11 0.945101 0.945101 0.125000
O O12 0.100409 0.000000 0.250000
#
# Coordination Sequence:
#
# PCOD9550465 Si02
#       5
#     8   8   8   8   8
#     4  10  20  39  65  91 123 166 214 277 313 382
#     4  11  25  43  60  97 137 172 210 272 343 397
#     4  10  19  37  66  98 120 155 234 264 320 378
#     4  12  25  38  68  93 134 179 214 272 333 404
#     4  11  21  42  73  99 126 171 229 285 336 400
#
# _framework density 24.542172000000001
#
# number of rings (size 3 to 8) (size 9 to 14) (size 15 to 20)
#    0.000    1.200    6.000    4.200    2.800    0.000 
#    0.000    3.000    0.000    0.000    0.000    0.000 
#    0.000    0.000    0.000    0.000    0.000    0.000 
#
# Total GULP energy -223197.718617 kJ/mol
# GULP energy per Si atom -5579.942965 kJ/mol
# Density = 2.448631 g / cm^3
# Si number density = 24.542172 Si / 1000 Ang^3
#
#
#
# Elastic Constant Matrix: (Units=GPa)
#
#
# Indices 1 2 3 4 5 6 
#
# 1 119.3155 11.1260 6.9515 0.0000 0.0000 0.0000
# 2 11.1260 119.3172 6.9515 0.0000 0.0000 0.0000
# 3 6.9515 6.9515 30.6093 0.0000 0.0000 0.0000
# 4 0.0000 0.0000 0.0000 32.4413 0.0000 0.0000
# 5 0.0000 0.0000 0.0000 0.0000 32.4418 0.0000
# 6 0.0000 0.0000 0.0000 0.0000 0.0000 23.0575
#
#
#
# Elastic Compliance Matrix: (Units=1/GPa)
#
#
# Indices 1 2 3 4 5 6 
#
# 1 0.008550 -0.000693 -0.001784 0.000000 0.000000 0.000000
# 2 -0.000693 0.008550 -0.001784 0.000000 0.000000 0.000000
# 3 -0.001784 -0.001784 0.033480 0.000000 0.000000 0.000000
# 4 0.000000 0.000000 0.000000 0.030825 0.000000 0.000000
# 5 0.000000 0.000000 0.000000 0.000000 0.030824 0.000000
# 6 0.000000 0.000000 0.000000 0.000000 0.000000 0.043370
#
#
# Mechanical properties :
#
#
# Convention : Reuss Voigt Hill
#
# Bulk Modulus (GPa) = 23.77775 35.47780 29.62778
# Shear Modulus (GPa) = 28.06764 33.86897 30.96831
#
# Velocity S-wave (km/s) = 3.38546 3.71891 3.55609
# Velocity P-wave (km/s) = 4.99913 5.73826 5.38140
#
# Compressibility (1/GPa) = 0.04205612
#
# Stress axis : x y z
#
# Youngs Moduli (GPa) = 116.96261 116.96428 29.86833
#
# Poissons Ratio (x) = 0.08109 0.05329
# Poissons Ratio (y) = 0.08109 0.05329
# Poissons Ratio (z) = 0.20869 0.20869
#
# Static dielectric constant tensor:
#      x y z
#    x 2.008920 0.000000 0.000000 
#    y 0.000000 2.008920 0.000000 
#    z 0.000000 0.000000 2.128210 
# 
# From -- ./inp_files/6873.got.cif
#   From: 2010.05.17/outbox.cif.g08.bks.cpg/sg95_4_cif.got.tgz:6873.got - 2010.06.03 19:46:49.
