data_PCOD9550145
_publ_section_title
;
Structure prediction by ZEFSAII (Michael W. Deem and Ramdas Pophale) SiO2 
 PCOD9550145
Probable space group: P 42 21 2
;
_chemical_formula_sum "Si O2"
_cell_formula_units_Z 32
_cell_length_a 9.673037
_cell_length_b 9.673037
_cell_length_c 14.153310
_cell_angle_alpha 90.000000
_cell_angle_beta 90.000000
_cell_angle_gamma 90.000000
_cell_volume 1324.291883
_symmetry_space_group_name_H-M "P 42 21 2"
_symmetry_group_IT_number 94
_symmetry_cell_setting 'tetragonal'
loop_
_space_group_symop_operation_xyz
x,y,z
1/2-y,1/2+x,1/2+z
-x,-y,z
1/2+y,1/2-x,1/2+z
1/2+x,1/2-y,1/2-z
1/2-x,1/2+y,1/2-z
y,x,-z
-y,-x,-z
loop_
_atom_site_type_symbol
_atom_site_label
_atom_site_fract_x
_atom_site_fract_y
_atom_site_fract_z
Si Si1 0.654610 0.437712 0.591430
Si Si2 0.525583 0.153950 0.148625
Si Si3 0.323401 0.117965 0.449944
Si Si4 0.232115 0.698099 0.237911
O O1 0.500000 0.500000 0.596281
O O2 0.658194 0.341807 0.500000
O O3 0.771471 0.553771 0.572004
O O4 0.667396 0.340953 0.681076
O O5 0.683486 0.188868 0.176495
O O6 0.410025 0.237317 0.208491
O O7 0.500000 0.000000 0.181866
O O8 0.509773 0.150852 0.034330
O O9 0.197563 0.197563 0.500000
O O10 0.286993 0.077855 0.342228
#
# Coordination Sequence:
#
# PCOD9550145 Si02
#       4
#     8   8   8   8
#     4  11  21  40  71  99 132 191 256 302 366 456
#     4  11  25  44  73 106 146 198 248 310 377 449
#     4  10  21  43  66 102 143 184 248 310 366 451
#     4  11  24  44  71 108 145 191 247 311 379 441
#
# _framework density 24.163855999999999
#
# number of rings (size 3 to 8) (size 9 to 14) (size 15 to 20)
#    0.000    1.250    5.000    1.500    3.500    1.000 
#    4.500    0.000    0.000    5.250    0.000    0.000 
#    0.000    0.000    0.000    0.000    0.000    0.000 
#
# Total GULP energy -178260.185701 kJ/mol
# GULP energy per Si atom -5570.630803 kJ/mol
# Density = 2.410886 g / cm^3
# Si number density = 24.163856 Si / 1000 Ang^3
#
#
#
# Elastic Constant Matrix: (Units=GPa)
#
#
# Indices 1 2 3 4 5 6 
#
# 1 62.4950 13.8438 17.7417 0.0000 0.0000 0.0000
# 2 13.8438 62.4948 17.7414 0.0000 0.0000 0.0000
# 3 17.7417 17.7414 193.8054 0.0000 0.0000 0.0000
# 4 0.0000 0.0000 0.0000 20.6005 0.0000 0.0000
# 5 0.0000 0.0000 0.0000 0.0000 20.6007 0.0000
# 6 0.0000 0.0000 0.0000 0.0000 0.0000 12.8872
#
#
#
# Elastic Compliance Matrix: (Units=1/GPa)
#
#
# Indices 1 2 3 4 5 6 
#
# 1 0.017118 -0.003436 -0.001252 0.000000 0.000000 0.000000
# 2 -0.003436 0.017118 -0.001252 0.000000 0.000000 0.000000
# 3 -0.001252 -0.001252 0.005389 0.000000 0.000000 0.000000
# 4 0.000000 0.000000 0.000000 0.048543 0.000000 0.000000
# 5 0.000000 0.000000 0.000000 0.000000 0.048542 0.000000
# 6 0.000000 0.000000 0.000000 0.000000 0.000000 0.077596
#
#
# Mechanical properties :
#
#
# Convention : Reuss Voigt Hill
#
# Bulk Modulus (GPa) = 36.04563 46.38322 41.21442
# Shear Modulus (GPa) = 21.23716 28.78223 25.00969
#
# Velocity S-wave (km/s) = 2.96781 3.45502 3.22064
# Velocity P-wave (km/s) = 5.16657 5.92901 5.56087
#
# Compressibility (1/GPa) = 0.02774262
#
# Stress axis : x y z
#
# Youngs Moduli (GPa) = 58.41781 58.41760 185.55891
#
# Poissons Ratio (x) = 0.20075 0.23241
# Poissons Ratio (y) = 0.20075 0.23240
# Poissons Ratio (z) = 0.07317 0.07316
#
# Static dielectric constant tensor:
#      x y z
#    x 2.037410 0.000000 0.000000 
#    y 0.000000 2.037410 0.000000 
#    z 0.000000 0.000000 2.029060 
# 
# From -- ./inp_files/2300.got.cif
#   From: 2010.05.17/outbox.cif.g08.bks.cpg/sg94_2_cif.got.tgz:2300.got - 2010.06.03 19:43:16.
