data_PCOD9550535
_publ_section_title
;
Structure prediction by ZEFSAII (Michael W. Deem and Ramdas Pophale) SiO2 
 PCOD9550535
Probable space group: P 43 2 2
;
_chemical_formula_sum "Si O2"
_cell_formula_units_Z 40
_cell_length_a 9.084468
_cell_length_b 9.084468
_cell_length_c 20.813215
_cell_angle_alpha 90.000000
_cell_angle_beta 90.000000
_cell_angle_gamma 90.000000
_cell_volume 1717.663826
_symmetry_space_group_name_H-M "P 43 2 2"
_symmetry_group_IT_number 95
_symmetry_cell_setting 'tetragonal'
loop_
_space_group_symop_operation_xyz
x,y,z
-y,x,3/4+z
-x,-y,1/2+z
y,-x,1/4+z
x,-y,1/2-z
-x,y,-z
y,x,1/4-z
-y,-x,3/4-z
loop_
_atom_site_type_symbol
_atom_site_label
_atom_site_fract_x
_atom_site_fract_y
_atom_site_fract_z
Si Si1 0.331820 0.300360 0.485775
Si Si2 0.550932 0.204979 0.697899
Si Si3 0.393800 0.006588 0.427311
Si Si4 0.088993 0.911008 0.375000
Si Si5 0.709828 0.527253 0.855017
Si Si6 0.000000 0.212338 0.000000
O O1 0.500000 0.345322 0.500000
O O2 0.221978 0.379791 0.534617
O O3 0.347595 0.123730 0.482216
O O4 0.277589 0.372898 0.419212
O O5 0.561733 0.110457 0.632827
O O6 0.609407 0.369598 0.688836
O O7 0.666363 0.132254 0.748106
O O8 0.242226 0.929679 0.409943
O O9 0.502999 0.868280 0.427575
O O10 0.110002 0.017699 0.313213
O O11 0.618820 0.381181 0.875000
#
# Coordination Sequence:
#
# PCOD9550535 Si02
#       6
#     8   8   8   4   8   4
#     4  11  22  39  64 101 133 176 233 301 357 435
#     4  10  22  40  66  96 135 184 233 303 372 438
#     4  10  23  39  66 100 138 179 243 298 376 440
#     4  10  20  42  62  96 138 190 240 304 360 456
#     4  11  21  40  68  99 131 180 233 299 360 432
#     4  10  22  40  68  96 140 194 250 304 390 452
#
# _framework density 23.287441999999999
#
# number of rings (size 3 to 8) (size 9 to 14) (size 15 to 20)
#    0.000    1.600    3.000    2.400    0.000    1.600 
#    0.000    7.000    0.000    0.000    0.000    0.000 
#    0.000    0.000    0.000    0.000    0.000    0.000 
#
# Total GULP energy -222823.329210 kJ/mol
# GULP energy per Si atom -5570.583230 kJ/mol
# Density = 2.323444 g / cm^3
# Si number density = 23.287442 Si / 1000 Ang^3
#
#
#
# Elastic Constant Matrix: (Units=GPa)
#
#
# Indices 1 2 3 4 5 6 
#
# 1 111.6732 52.9778 29.1334 0.0000 0.0000 0.0000
# 2 52.9778 111.6733 29.1326 0.0000 0.0000 0.0000
# 3 29.1334 29.1326 36.3736 0.0000 0.0000 0.0000
# 4 0.0000 0.0000 0.0000 27.5069 0.0000 0.0000
# 5 0.0000 0.0000 0.0000 0.0000 27.5073 0.0000
# 6 0.0000 0.0000 0.0000 0.0000 0.0000 31.4162
#
#
#
# Elastic Compliance Matrix: (Units=1/GPa)
#
#
# Indices 1 2 3 4 5 6 
#
# 1 0.012757 -0.004281 -0.006789 0.000000 0.000000 0.000000
# 2 -0.004281 0.012756 -0.006788 0.000000 0.000000 0.000000
# 3 -0.006789 -0.006788 0.038367 0.000000 0.000000 0.000000
# 4 0.000000 0.000000 0.000000 0.036355 0.000000 0.000000
# 5 0.000000 0.000000 0.000000 0.000000 0.036354 0.000000
# 6 0.000000 0.000000 0.000000 0.000000 0.000000 0.031831
#
#
# Mechanical properties :
#
#
# Convention : Reuss Voigt Hill
#
# Bulk Modulus (GPa) = 35.50612 53.57865 44.54238
# Shear Modulus (GPa) = 23.41673 27.18450 25.30061
#
# Velocity S-wave (km/s) = 3.17448 3.42035 3.29971
# Velocity P-wave (km/s) = 5.35877 6.21738 5.80398
#
# Compressibility (1/GPa) = 0.02816416
#
# Stress axis : x y z
#
# Youngs Moduli (GPa) = 78.39130 78.39247 26.06416
#
# Poissons Ratio (x) = 0.33557 0.17694
# Poissons Ratio (y) = 0.33557 0.17693
# Poissons Ratio (z) = 0.53218 0.53215
#
# Static dielectric constant tensor:
#      x y z
#    x 1.916020 0.000000 0.000000 
#    y 0.000000 1.916020 0.000000 
#    z 0.000000 0.000000 2.038840 
# 
# From -- ./inp_files/6921.got.cif
#   From: 2010.05.17/outbox.cif.g08.bks.cpg/sg95_4_cif.got.tgz:6921.got - 2010.06.03 19:46:49.
