data_PCOD9550493
_publ_section_title
;
Structure prediction by ZEFSAII (Michael W. Deem and Ramdas Pophale) SiO2 
 PCOD9550493
Probable space group: P 43 2 2
;
_chemical_formula_sum "Si O2"
_cell_formula_units_Z 48
_cell_length_a 8.633611
_cell_length_b 8.633611
_cell_length_c 31.112887
_cell_angle_alpha 90.000000
_cell_angle_beta 90.000000
_cell_angle_gamma 90.000000
_cell_volume 2319.130917
_symmetry_space_group_name_H-M "P 43 2 2"
_symmetry_group_IT_number 95
_symmetry_cell_setting 'tetragonal'
loop_
_space_group_symop_operation_xyz
x,y,z
-y,x,3/4+z
-x,-y,1/2+z
y,-x,1/4+z
x,-y,1/2-z
-x,y,-z
y,x,1/4-z
-y,-x,3/4-z
loop_
_atom_site_type_symbol
_atom_site_label
_atom_site_fract_x
_atom_site_fract_y
_atom_site_fract_z
Si Si1 0.480182 0.494031 0.170694
Si Si2 0.871539 0.471084 0.584443
Si Si3 0.131468 0.459320 0.318755
Si Si4 0.500000 0.300797 0.500000
Si Si5 0.888425 0.248948 0.755196
Si Si6 0.848255 0.197014 0.527525
Si Si7 0.370910 0.000000 0.250000
O O1 0.545541 0.545541 0.125000
O O2 0.462588 0.305317 0.168151
O O3 0.314128 0.571171 0.176364
O O4 0.591627 0.531740 0.209278
O O5 0.930084 0.488719 0.633217
O O6 0.855655 0.290524 0.571758
O O7 0.972046 0.542002 0.545515
O O8 0.127348 0.608892 0.288133
O O9 0.060024 0.320823 0.290758
O O10 0.669530 0.224125 0.510253
O O11 0.013320 0.140577 0.778108
O O12 0.734307 0.152850 0.747189
O O13 0.000000 0.248022 0.500000
#
# Coordination Sequence:
#
# PCOD9550493 Si02
#       7
#     8   8   8   4   8   8   4
#     4   9  18  34  60  92 120 157 211 267 311 374
#     4  10  22  39  63  93 127 168 212 266 327 386
#     4  10  21  39  63  93 127 166 214 265 322 387
#     4  10  20  36  62  86 118 168 206 254 324 378
#     4  11  23  39  64  92 129 167 211 261 325 393
#     4  11  23  42  62  89 133 168 205 270 326 387
#     4  12  22  38  68  98 120 168 218 262 322 394
#
# _framework density 20.697406999999998
#
# number of rings (size 3 to 8) (size 9 to 14) (size 15 to 20)
#    0.000    1.667    3.333    2.000    2.333    1.333 
#    0.000    7.500    0.000    0.000    0.000    0.000 
#    0.000    0.000    0.000    0.000    0.000    0.000 
#
# Total GULP energy -267251.283971 kJ/mol
# GULP energy per Si atom -5567.735083 kJ/mol
# Density = 2.065030 g / cm^3
# Si number density = 20.697407 Si / 1000 Ang^3
#
#
#
# Elastic Constant Matrix: (Units=GPa)
#
#
# Indices 1 2 3 4 5 6 
#
# 1 44.7668 1.7431 28.9386 0.0000 0.0000 0.0000
# 2 1.7431 44.7668 28.9386 0.0000 0.0000 0.0000
# 3 28.9386 28.9386 160.5046 0.0000 0.0000 0.0000
# 4 0.0000 0.0000 0.0000 22.8587 0.0000 0.0000
# 5 0.0000 0.0000 0.0000 0.0000 22.8587 0.0000
# 6 0.0000 0.0000 0.0000 0.0000 0.0000 -30.8173
#
#
#
# Elastic Compliance Matrix: (Units=1/GPa)
#
#
# Indices 1 2 3 4 5 6 
#
# 1 0.025482 0.002239 -0.004998 0.000000 0.000000 0.000000
# 2 0.002239 0.025482 -0.004998 0.000000 0.000000 0.000000
# 3 -0.004998 -0.004998 0.008033 0.000000 0.000000 0.000000
# 4 0.000000 0.000000 0.000000 0.043747 0.000000 0.000000
# 5 0.000000 0.000000 0.000000 0.000000 0.043747 0.000000
# 6 0.000000 0.000000 0.000000 0.000000 0.000000 -0.032449
#
#
# Mechanical properties :
#
#
# Convention : Reuss Voigt Hill
#
# Bulk Modulus (GPa) = 22.99835 41.03096 32.01465
# Shear Modulus (GPa) = 34.71056 15.67457 25.19257
#
# Velocity S-wave (km/s) = 4.09962 2.75493 3.49260
# Velocity P-wave (km/s) = 5.79181 5.47602 5.63612
#
# Compressibility (1/GPa) = 0.04348139
#
# Stress axis : x y z
#
# Youngs Moduli (GPa) = 39.24405 39.24405 124.49334
#
# Poissons Ratio (x) = -0.08785 0.62220
# Poissons Ratio (y) = -0.08785 0.62220
# Poissons Ratio (z) = 0.19614 0.19614
#
# Static dielectric constant tensor:
#      x y z
#    x 1.796880 0.000000 0.000000 
#    y 0.000000 1.796880 0.000000 
#    z 0.000000 0.000000 1.701000 
# 
# From -- ./inp_files/8027.got.cif
#   From: 2010.05.17/outbox.cif.g08.bks.cpg/sg95_5_cif.got.tgz:8027.got - 2010.06.03 19:46:49.
