data_PCOD9550605
_publ_section_title
;
Structure prediction by ZEFSAII (Michael W. Deem and Ramdas Pophale) SiO2 
 PCOD9550605
Probable space group: P 43 2 2
;
_chemical_formula_sum "Si O2"
_cell_formula_units_Z 48
_cell_length_a 19.738291
_cell_length_b 19.738291
_cell_length_c 5.503752
_cell_angle_alpha 90.000000
_cell_angle_beta 90.000000
_cell_angle_gamma 90.000000
_cell_volume 2144.262503
_symmetry_space_group_name_H-M "P 43 2 2"
_symmetry_group_IT_number 95
_symmetry_cell_setting 'tetragonal'
loop_
_space_group_symop_operation_xyz
x,y,z
-y,x,3/4+z
-x,-y,1/2+z
y,-x,1/4+z
x,-y,1/2-z
-x,y,-z
y,x,1/4-z
-y,-x,3/4-z
loop_
_atom_site_type_symbol
_atom_site_label
_atom_site_fract_x
_atom_site_fract_y
_atom_site_fract_z
Si Si1 0.790367 0.790367 0.625000
Si Si2 0.834472 0.000000 0.250000
Si Si3 0.172580 0.659557 0.094034
Si Si4 0.378134 0.316365 0.865848
Si Si5 0.071935 0.071935 0.125000
Si Si6 0.418952 0.958231 0.499154
Si Si7 0.601750 0.500000 0.750000
Si Si8 0.121312 0.230149 0.734355
O O1 0.724819 0.789342 0.459282
O O2 0.864601 0.782644 0.514273
O O3 0.877502 0.943245 0.397644
O O4 0.787370 0.954386 0.080887
O O5 0.235777 0.609555 0.095584
O O6 0.109430 0.626468 0.232144
O O7 0.143541 0.695046 0.849602
O O8 0.335520 0.335520 0.625000
O O9 0.451251 0.351709 0.840201
O O10 0.343541 0.343541 0.125000
O O11 0.078882 0.000000 0.250000
O O12 0.500000 0.942396 0.500000
O O13 0.406232 0.000000 0.750000
O O14 0.404872 0.000000 0.250000
O O15 0.552386 0.552386 0.625000
O O16 0.175500 0.175500 0.625000
#
# Coordination Sequence:
#
# PCOD9550605 Si02
#       8
#     4   4   8   8   4   8   4   8
#     4  10  22  45  66  94 138 178 232 301 348 428
#     4  12  26  40  64  92 124 168 234 278 366 436
#     4  11  24  41  74  97 140 184 243 295 371 419
#     4  11  24  42  69 106 146 194 247 291 349 424
#     4  12  22  41  58  84 118 164 208 281 344 426
#     4  10  25  47  73 107 146 186 239 308 377 453
#     4  10  22  42  72 106 158 200 238 284 348 412
#     4  10  24  43  63  93 128 178 227 293 357 428
#
# _framework density 22.385318999999999
#
# number of rings (size 3 to 8) (size 9 to 14) (size 15 to 20)
#    0.000    1.333    1.667    3.000    4.667    8.000 
#    0.000    0.000    0.000    0.000    0.000    0.000 
#    0.000    0.000    0.000    0.000    0.000    0.000 
#
# Total GULP energy -267355.306093 kJ/mol
# GULP energy per Si atom -5569.902210 kJ/mol
# Density = 2.233437 g / cm^3
# Si number density = 22.385319 Si / 1000 Ang^3
#
#
#
# Elastic Constant Matrix: (Units=GPa)
#
#
# Indices 1 2 3 4 5 6 
#
# 1 106.5504 71.9398 39.0172 0.0000 0.0000 0.0000
# 2 71.9398 106.5504 39.0172 0.0000 0.0000 0.0000
# 3 39.0172 39.0172 98.1620 0.0000 0.0000 0.0000
# 4 0.0000 0.0000 0.0000 70.3097 0.0000 0.0000
# 5 0.0000 0.0000 0.0000 0.0000 70.3099 0.0000
# 6 0.0000 0.0000 0.0000 0.0000 0.0000 22.2804
#
#
#
# Elastic Compliance Matrix: (Units=1/GPa)
#
#
# Indices 1 2 3 4 5 6 
#
# 1 0.017837 -0.011056 -0.002695 0.000000 0.000000 0.000000
# 2 -0.011056 0.017837 -0.002695 0.000000 0.000000 0.000000
# 3 -0.002695 -0.002695 0.012330 0.000000 0.000000 0.000000
# 4 0.000000 0.000000 0.000000 0.014223 0.000000 0.000000
# 5 0.000000 0.000000 0.000000 0.000000 0.014223 0.000000
# 6 0.000000 0.000000 0.000000 0.000000 0.000000 0.044883
#
#
# Mechanical properties :
#
#
# Convention : Reuss Voigt Hill
#
# Bulk Modulus (GPa) = 66.17863 67.91237 67.04550
# Shear Modulus (GPa) = 31.39489 43.33256 37.36373
#
# Velocity S-wave (km/s) = 3.74903 4.40450 4.08992
# Velocity P-wave (km/s) = 6.95470 7.50133 7.23318
#
# Compressibility (1/GPa) = 0.01511062
#
# Stress axis : x y z
#
# Youngs Moduli (GPa) = 56.06357 56.06357 81.10397
#
# Poissons Ratio (x) = 0.61984 0.21860
# Poissons Ratio (y) = 0.61984 0.21860
# Poissons Ratio (z) = 0.15111 0.15111
#
# Static dielectric constant tensor:
#      x y z
#    x -1.446650 0.000000 0.000000 
#    y 0.000000 -1.446660 0.000000 
#    z 0.000000 0.000000 4.267060 
# 
# From -- ./inp_files/1343.got.cif
#   From: 2010.05.17/outbox.cif.g08.bks.cpg/sg95_1_cif.got.tgz:1343.got - 2010.06.03 19:46:49.
