data_PCOD9550804
_publ_section_title
;
Structure prediction by ZEFSAII (Michael W. Deem and Ramdas Pophale) SiO2 
 PCOD9550804
Probable space group: P 43 21 2
;
_chemical_formula_sum "Si O2"
_cell_formula_units_Z 56
_cell_length_a 20.053760
_cell_length_b 20.053760
_cell_length_c 8.000912
_cell_angle_alpha 90.000000
_cell_angle_beta 90.000000
_cell_angle_gamma 90.000000
_cell_volume 3217.593085
_symmetry_space_group_name_H-M "P 43 21 2"
_symmetry_group_IT_number 96
_symmetry_cell_setting 'tetragonal'
loop_
_space_group_symop_operation_xyz
x,y,z
1/2-y,1/2+x,3/4+z
-x,-y,1/2+z
1/2+y,1/2-x,1/4+z
1/2+x,1/2-y,1/4-z
1/2-x,1/2+y,3/4-z
y,x,-z
-y,-x,1/2-z
loop_
_atom_site_type_symbol
_atom_site_label
_atom_site_fract_x
_atom_site_fract_y
_atom_site_fract_z
Si Si1 0.989341 0.989341 0.000000
Si Si2 0.123178 0.224608 0.828451
Si Si3 0.653383 0.493421 0.566554
Si Si4 0.367227 0.294169 0.853316
Si Si5 0.776799 0.330300 0.395186
Si Si6 0.263237 0.627117 0.216392
Si Si7 0.864456 0.000126 0.585918
Si Si8 0.142611 0.857390 0.250000
O O1 0.056619 0.996949 0.105805
O O2 0.919719 0.995719 0.098653
O O3 0.200748 0.199711 0.834746
O O4 0.108187 0.259003 0.652100
O O5 0.068948 0.165671 0.845525
O O6 0.118318 0.269917 0.993165
O O7 0.698447 0.553497 0.637991
O O8 0.687285 0.425948 0.630939
O O9 0.649681 0.500509 0.364754
O O10 0.330781 0.225444 0.895514
O O11 0.344380 0.314890 0.667052
O O12 0.343939 0.343939 0.000000
O O13 0.791759 0.360071 0.576667
O O14 0.306728 0.693273 0.250000
O O15 0.843023 0.066607 0.686132
#
# Coordination Sequence:
#
# PCOD9550804 Si02
#       8
#     4   8   8   8   8   8   8   4
#     4  12  24  32  51  74 108 155 194 228 264 322
#     4  10  20  35  54  71  97 137 187 235 264 314
#     4  12  23  39  52  76 115 148 190 238 274 328
#     4  12  23  39  53  78 108 147 187 235 290 333
#     4  10  21  36  57  75 100 137 190 238 277 326
#     4  10  21  35  56  79  98 140 189 230 271 319
#     4  12  25  35  52  76 109 154 195 229 276 315
#     4  12  26  38  53  76 114 155 188 228 290 342
#
# _framework density 17.404312999999998
#
# number of rings (size 3 to 8) (size 9 to 14) (size 15 to 20)
#    0.000    0.857    6.429    2.143    7.000    0.000 
#    0.000    0.000    0.000    0.000    0.000    0.000 
#    0.000    0.000    9.714    0.000    0.000    0.429 
#
# Total GULP energy -312142.425706 kJ/mol
# GULP energy per Si atom -5573.971888 kJ/mol
# Density = 1.736470 g / cm^3
# Si number density = 17.404313 Si / 1000 Ang^3
#
#
#
# Elastic Constant Matrix: (Units=GPa)
#
#
# Indices 1 2 3 4 5 6 
#
# 1 25.2993 13.4131 9.8224 0.0000 0.0000 0.0000
# 2 13.4131 25.2997 9.8226 0.0000 0.0000 0.0000
# 3 9.8224 9.8226 136.5648 0.0000 0.0000 0.0000
# 4 0.0000 0.0000 0.0000 13.0492 0.0000 0.0000
# 5 0.0000 0.0000 0.0000 0.0000 13.0504 0.0000
# 6 0.0000 0.0000 0.0000 0.0000 0.0000 23.4153
#
#
#
# Elastic Compliance Matrix: (Units=1/GPa)
#
#
# Indices 1 2 3 4 5 6 
#
# 1 0.055470 -0.028660 -0.001928 0.000000 0.000000 0.000000
# 2 -0.028660 0.055469 -0.001928 0.000000 0.000000 0.000000
# 3 -0.001928 -0.001928 0.007600 0.000000 0.000000 0.000000
# 4 0.000000 0.000000 0.000000 0.076633 0.000000 0.000000
# 5 0.000000 0.000000 0.000000 0.000000 0.076626 0.000000
# 6 0.000000 0.000000 0.000000 0.000000 0.000000 0.042707
#
#
# Mechanical properties :
#
#
# Convention : Reuss Voigt Hill
#
# Bulk Modulus (GPa) = 18.68933 28.14224 23.41579
# Shear Modulus (GPa) = 12.58261 20.17670 16.37965
#
# Velocity S-wave (km/s) = 2.69171 3.40853 3.07111
# Velocity P-wave (km/s) = 4.51907 5.62988 5.10478
#
# Compressibility (1/GPa) = 0.05350646
#
# Stress axis : x y z
#
# Youngs Moduli (GPa) = 18.02769 18.02799 131.58029
#
# Poissons Ratio (x) = 0.51668 0.25372
# Poissons Ratio (y) = 0.51667 0.25373
# Poissons Ratio (z) = 0.03476 0.03476
#
# Static dielectric constant tensor:
#      x y z
#    x 1.597650 0.000000 0.000000 
#    y 0.000000 1.597650 0.000000 
#    z 0.000000 0.000000 1.704390 
# 
# From -- ./inp_files/1694.got.cif
#   From: 2010.05.17/outbox.cif.g08.bks.cpg/sg96_1_cif.got.tgz:1694.got - 2010.06.03 19:52:08.
