data_PCOD9550621
_publ_section_title
;
Structure prediction by ZEFSAII (Michael W. Deem and Ramdas Pophale) SiO2 
 PCOD9550621
Probable space group: P 43 2 2
;
_chemical_formula_sum "Si O2"
_cell_formula_units_Z 36
_cell_length_a 9.952363
_cell_length_b 9.952363
_cell_length_c 18.168989
_cell_angle_alpha 90.000000
_cell_angle_beta 90.000000
_cell_angle_gamma 90.000000
_cell_volume 1799.629808
_symmetry_space_group_name_H-M "P 43 2 2"
_symmetry_group_IT_number 95
_symmetry_cell_setting 'tetragonal'
loop_
_space_group_symop_operation_xyz
x,y,z
-y,x,3/4+z
-x,-y,1/2+z
y,-x,1/4+z
x,-y,1/2-z
-x,y,-z
y,x,1/4-z
-y,-x,3/4-z
loop_
_atom_site_type_symbol
_atom_site_label
_atom_site_fract_x
_atom_site_fract_y
_atom_site_fract_z
Si Si1 0.878331 0.853611 0.442616
Si Si2 0.652401 0.356811 0.729938
Si Si3 0.599156 0.400845 0.375000
Si Si4 0.500000 0.196491 0.500000
Si Si5 0.986394 0.259464 0.198077
Si Si6 0.720517 0.279484 0.875000
O O1 0.758311 0.745311 0.446786
O O2 0.927644 0.846301 0.359955
O O3 0.000000 0.818690 0.500000
O O4 0.812892 0.987696 0.474480
O O5 0.720029 0.500000 0.750000
O O6 0.532350 0.389024 0.675717
O O7 0.613241 0.701499 0.689766
O O8 0.578533 0.284257 0.437380
O O9 0.390067 0.103423 0.459174
O O10 0.133414 0.290982 0.162835
#
# Coordination Sequence:
#
# PCOD9550621 Si02
#       6
#     8   8   4   4   8   4
#     4  11  21  44  71 104 135 183 237 301 349 432
#     4  11  22  38  69 104 135 176 235 287 364 417
#     4  12  25  44  67  92 150 188 217 302 369 428
#     4  12  28  48  64 106 146 188 232 304 366 440
#     4  11  23  44  72  99 144 179 244 291 360 428
#     4  10  23  40  73 106 124 188 239 302 345 440
#
# _framework density 20.004116
#
# number of rings (size 3 to 8) (size 9 to 14) (size 15 to 20)
#    0.000    0.889    7.778    0.667    6.222    0.000 
#    4.000    0.000    0.000    0.000    0.000    0.000 
#    0.000    0.000    0.000    0.000    0.000    0.000 
#
# Total GULP energy -200599.350433 kJ/mol
# GULP energy per Si atom -5572.204179 kJ/mol
# Density = 1.995859 g / cm^3
# Si number density = 20.004116 Si / 1000 Ang^3
#
#
#
# Elastic Constant Matrix: (Units=GPa)
#
#
# Indices 1 2 3 4 5 6 
#
# 1 88.0329 45.1178 30.1045 0.0000 0.0000 0.0000
# 2 45.1178 88.0329 30.1042 0.0000 0.0000 0.0000
# 3 30.1045 30.1042 118.9181 0.0000 0.0000 0.0000
# 4 0.0000 0.0000 0.0000 41.2667 0.0000 0.0000
# 5 0.0000 0.0000 0.0000 0.0000 41.2666 0.0000
# 6 0.0000 0.0000 0.0000 0.0000 0.0000 35.9212
#
#
#
# Elastic Compliance Matrix: (Units=1/GPa)
#
#
# Indices 1 2 3 4 5 6 
#
# 1 0.015891 -0.007410 -0.002147 0.000000 0.000000 0.000000
# 2 -0.007410 0.015891 -0.002147 0.000000 0.000000 0.000000
# 3 -0.002147 -0.002147 0.009496 0.000000 0.000000 0.000000
# 4 0.000000 0.000000 0.000000 0.024233 0.000000 0.000000
# 5 0.000000 0.000000 0.000000 0.000000 0.024233 0.000000
# 6 0.000000 0.000000 0.000000 0.000000 0.000000 0.027839
#
#
# Mechanical properties :
#
#
# Convention : Reuss Voigt Hill
#
# Bulk Modulus (GPa) = 55.95847 56.18188 56.07017
# Shear Modulus (GPa) = 34.02547 36.33471 35.18009
#
# Velocity S-wave (km/s) = 4.12870 4.26650 4.19817
# Velocity P-wave (km/s) = 7.12477 7.23995 7.18259
#
# Compressibility (1/GPa) = 0.01787040
#
# Stress axis : x y z
#
# Youngs Moduli (GPa) = 62.92674 62.92688 105.30531
#
# Poissons Ratio (x) = 0.46631 0.22610
# Poissons Ratio (y) = 0.46631 0.22609
# Poissons Ratio (z) = 0.13511 0.13510
#
# Static dielectric constant tensor:
#      x y z
#    x 1.736550 0.000000 0.000000 
#    y 0.000000 1.736550 0.000000 
#    z 0.000000 0.000000 1.773340 
# 
# From -- ./inp_files/6290.got.cif
#   From: 2010.05.17/outbox.cif.g08.bks.cpg/sg95_4_cif.got.tgz:6290.got - 2010.06.03 19:46:49.
