data_PCOD9550405
_publ_section_title
;
Structure prediction by ZEFSAII (Michael W. Deem and Ramdas Pophale) SiO2 
 PCOD9550405
Probable space group: P 42 21 2
;
_chemical_formula_sum "Si O2"
_cell_formula_units_Z 40
_cell_length_a 18.000000
_cell_length_b 18.000000
_cell_length_c 6.000000
_cell_angle_alpha 90.000000
_cell_angle_beta 90.000000
_cell_angle_gamma 90.000000
_cell_volume 1944.000000
_symmetry_space_group_name_H-M "P 42 21 2"
_symmetry_group_IT_number 94
_symmetry_cell_setting 'tetragonal'
loop_
_space_group_symop_operation_xyz
x,y,z
1/2-y,1/2+x,1/2+z
-x,-y,z
1/2+y,1/2-x,1/2+z
1/2+x,1/2-y,1/2-z
1/2-x,1/2+y,1/2-z
y,x,-z
-y,-x,-z
loop_
_atom_site_type_symbol
_atom_site_label
_atom_site_fract_x
_atom_site_fract_y
_atom_site_fract_z
Si Si1 0.382719 0.677297 0.749487
Si Si2 0.803563 0.542612 0.763621
Si Si3 0.162078 0.953071 0.066967
Si Si4 0.384099 0.830646 0.001248
Si Si5 0.740438 0.156824 0.357707
O O1 0.344071 0.655929 0.500000
O O2 0.468864 0.656449 0.697590
O O3 0.381591 0.765923 0.811179
O O4 0.357510 0.642491 0.000000
O O5 0.724220 0.535594 0.631016
O O6 0.860687 0.588751 0.602820
O O7 0.827893 0.462771 0.865739
O O8 0.793736 0.597218 0.973107
O O9 0.197975 0.888545 0.219353
O O10 0.082628 0.917373 0.000000
O O11 0.319938 0.813483 0.182833
O O12 0.779487 0.220514 0.500000
#
# Coordination Sequence:
#
# PCOD9550405 Si02
#       5
#     8   8   8   8   8
#     4  12  29  49  77 116 158 202 252 323 394 458
#     4  11  25  47  74 108 149 200 253 320 387 452
#     4  11  24  48  74 108 151 200 253 315 380 466
#     4  11  28  46  75 105 155 197 256 323 383 458
#     4  11  24  44  79 111 143 200 266 313 376 461
#
# _framework density 20.576132000000001
#
# number of rings (size 3 to 8) (size 9 to 14) (size 15 to 20)
#    0.000    0.800    4.000    1.200    8.400    0.400 
#    0.000    6.000    0.000    0.000    0.000    0.000 
#    0.000    0.000    0.000    0.000    0.000    0.000 
#
# Total GULP energy -223447.326273 kJ/mol
# GULP energy per Si atom -5586.183157 kJ/mol
# Density = 2.052930 g / cm^3
# Si number density = 20.576132 Si / 1000 Ang^3
#
#
#
# Elastic Constant Matrix: (Units=GPa)
#
#
# Indices 1 2 3 4 5 6 
#
# 1 119.1148 55.7944 50.6419 0.0000 0.0000 0.0000
# 2 55.7944 119.1110 50.6399 0.0000 0.0000 0.0000
# 3 50.6419 50.6399 132.0552 0.0000 0.0000 0.0000
# 4 0.0000 0.0000 0.0000 54.6673 0.0000 0.0000
# 5 0.0000 0.0000 0.0000 0.0000 54.6678 0.0000
# 6 0.0000 0.0000 0.0000 0.0000 0.0000 27.6307
#
#
#
# Elastic Compliance Matrix: (Units=1/GPa)
#
#
# Indices 1 2 3 4 5 6 
#
# 1 0.011571 -0.004222 -0.002818 0.000000 0.000000 0.000000
# 2 -0.004222 0.011571 -0.002818 0.000000 0.000000 0.000000
# 3 -0.002818 -0.002818 0.009734 0.000000 0.000000 0.000000
# 4 0.000000 0.000000 0.000000 0.018292 0.000000 0.000000
# 5 0.000000 0.000000 0.000000 0.000000 0.018292 0.000000
# 6 0.000000 0.000000 0.000000 0.000000 0.000000 0.036192
#
#
# Mechanical properties :
#
#
# Convention : Reuss Voigt Hill
#
# Bulk Modulus (GPa) = 75.99116 76.04818 76.01967
# Shear Modulus (GPa) = 38.53366 41.60681 40.07024
#
# Velocity S-wave (km/s) = 4.33221 4.50165 4.41774
# Velocity P-wave (km/s) = 7.87629 8.00371 7.94025
#
# Compressibility (1/GPa) = 0.01315943
#
# Stress axis : x y z
#
# Youngs Moduli (GPa) = 86.42221 86.42023 102.73103
#
# Poissons Ratio (x) = 0.36486 0.28954
# Poissons Ratio (y) = 0.36487 0.28952
# Poissons Ratio (z) = 0.24357 0.24355
#
# Static dielectric constant tensor:
#      x y z
#    x 1.745870 0.000000 0.000000 
#    y 0.000000 1.745870 0.000000 
#    z 0.000000 0.000000 1.776930 
# 
# From -- ./inp_files/334.got.cif
#   From: 2010.05.17/outbox.ucp.g08.bks.cvg/sg94_1_cif.got.tgz:334.got - 2010.06.11 10:37:05.
