data_PCOD9550772
_publ_section_title
;
Structure prediction by ZEFSAII (Michael W. Deem and Ramdas Pophale) SiO2 
 PCOD9550772
Probable space group: P 43 21 2
;
_chemical_formula_sum "Si O2"
_cell_formula_units_Z 56
_cell_length_a 11.323709
_cell_length_b 11.323709
_cell_length_c 18.042431
_cell_angle_alpha 90.000000
_cell_angle_beta 90.000000
_cell_angle_gamma 90.000000
_cell_volume 2313.515713
_symmetry_space_group_name_H-M "P 43 21 2"
_symmetry_group_IT_number 96
_symmetry_cell_setting 'tetragonal'
loop_
_space_group_symop_operation_xyz
x,y,z
1/2-y,1/2+x,3/4+z
-x,-y,1/2+z
1/2+y,1/2-x,1/4+z
1/2+x,1/2-y,1/4-z
1/2-x,1/2+y,3/4-z
y,x,-z
-y,-x,1/2-z
loop_
_atom_site_type_symbol
_atom_site_label
_atom_site_fract_x
_atom_site_fract_y
_atom_site_fract_z
Si Si1 0.056346 0.854373 0.459471
Si Si2 0.967313 0.452536 0.746183
Si Si3 0.337783 0.593651 0.042048
Si Si4 0.290240 0.864135 0.552490
Si Si5 0.807307 0.433500 0.319471
Si Si6 0.593176 0.514061 0.397123
Si Si7 0.673734 0.858382 0.867856
O O1 0.159754 0.884444 0.519593
O O2 0.127172 0.771121 0.402908
O O3 0.956700 0.769829 0.496224
O O4 0.987242 0.956647 0.417096
O O5 0.875153 0.523337 0.695769
O O6 0.882826 0.388438 0.804270
O O7 0.062536 0.527946 0.794334
O O8 0.050342 0.374528 0.694080
O O9 0.215907 0.642985 0.009870
O O10 0.364248 0.466157 0.076705
O O11 0.369679 0.686753 0.105835
O O12 0.412445 0.579952 0.965646
O O13 0.314017 0.803461 0.632413
O O14 0.731989 0.519088 0.375697
#
# Coordination Sequence:
#
# PCOD9550772 Si02
#       7
#     8   8   8   8   8   8   8
#     4  10  21  37  60  84 121 156 209 258 304 386
#     4  11  20  37  59  85 122 153 204 253 310 373
#     4   9  20  36  60  82 119 154 199 253 306 376
#     4  10  21  39  57  88 123 159 204 260 318 366
#     4  10  22  38  56  89 120 163 204 253 314 379
#     4  10  19  38  58  85 114 159 205 243 311 372
#     4  10  20  35  58  85 111 156 195 250 307 362
#
# _framework density 24.205587000000001
#
# number of rings (size 3 to 8) (size 9 to 14) (size 15 to 20)
#    0.000    2.000    1.429    2.143    0.000    2.286 
#    2.571    0.000    0.000    0.000    0.000    0.000 
#    0.000    0.000    0.000    0.000    0.000    0.000 
#
# Total GULP energy -312088.812676 kJ/mol
# GULP energy per Si atom -5573.014512 kJ/mol
# Density = 2.415049 g / cm^3
# Si number density = 24.205587 Si / 1000 Ang^3
#
#
#
# Elastic Constant Matrix: (Units=GPa)
#
#
# Indices 1 2 3 4 5 6 
#
# 1 79.7034 38.8228 1.1884 0.0000 0.0000 0.0000
# 2 38.8228 79.7034 1.1884 0.0000 0.0000 0.0000
# 3 1.1884 1.1884 33.4525 0.0000 0.0000 0.0000
# 4 0.0000 0.0000 0.0000 25.0643 0.0000 0.0000
# 5 0.0000 0.0000 0.0000 0.0000 25.0643 0.0000
# 6 0.0000 0.0000 0.0000 0.0000 0.0000 33.9060
#
#
#
# Elastic Compliance Matrix: (Units=1/GPa)
#
#
# Indices 1 2 3 4 5 6 
#
# 1 0.016452 -0.008009 -0.000300 0.000000 0.000000 0.000000
# 2 -0.008009 0.016452 -0.000300 0.000000 0.000000 0.000000
# 3 -0.000300 -0.000300 0.029914 0.000000 0.000000 0.000000
# 4 0.000000 0.000000 0.000000 0.039897 0.000000 0.000000
# 5 0.000000 0.000000 0.000000 0.000000 0.039897 0.000000
# 6 0.000000 0.000000 0.000000 0.000000 0.000000 0.029493
#
#
# Mechanical properties :
#
#
# Convention : Reuss Voigt Hill
#
# Bulk Modulus (GPa) = 21.92952 30.58427 26.25689
# Shear Modulus (GPa) = 24.44683 26.91756 25.68220
#
# Velocity S-wave (km/s) = 3.18144 3.33834 3.26084
# Velocity P-wave (km/s) = 4.75130 5.24614 5.00484
#
# Compressibility (1/GPa) = 0.04560064
#
# Stress axis : x y z
#
# Youngs Moduli (GPa) = 60.78196 60.78196 33.42869
#
# Poissons Ratio (x) = 0.48682 0.01003
# Poissons Ratio (y) = 0.48682 0.01003
# Poissons Ratio (z) = 0.01823 0.01823
#
# Static dielectric constant tensor:
#      x y z
#    x 1.946470 0.000000 0.000000 
#    y 0.000000 1.946470 0.000000 
#    z 0.000000 0.000000 2.054910 
# 
# From -- ./inp_files/3557.got.cif
#   From: 2010.05.17/outbox.cif.g08.bks.cpg/sg96_2_cif.got.tgz:3557.got - 2010.06.03 19:52:08.
