data_PCOD9550958
_publ_section_title
;
Structure prediction by ZEFSAII (Michael W. Deem and Ramdas Pophale) SiO2 
 PCOD9550958
Probable space group: P 43 21 2
;
_chemical_formula_sum "Si O2"
_cell_formula_units_Z 56
_cell_length_a 14.535821
_cell_length_b 14.535821
_cell_length_c 13.088506
_cell_angle_alpha 90.000000
_cell_angle_beta 90.000000
_cell_angle_gamma 90.000000
_cell_volume 2765.471639
_symmetry_space_group_name_H-M "P 43 21 2"
_symmetry_group_IT_number 96
_symmetry_cell_setting 'tetragonal'
loop_
_space_group_symop_operation_xyz
x,y,z
1/2-y,1/2+x,3/4+z
-x,-y,1/2+z
1/2+y,1/2-x,1/4+z
1/2+x,1/2-y,1/4-z
1/2-x,1/2+y,3/4-z
y,x,-z
-y,-x,1/2-z
loop_
_atom_site_type_symbol
_atom_site_label
_atom_site_fract_x
_atom_site_fract_y
_atom_site_fract_z
Si Si1 0.085503 0.287274 0.852719
Si Si2 0.668393 0.644687 0.617743
Si Si3 0.029133 0.705099 0.562177
Si Si4 0.839625 0.717175 0.923812
Si Si5 0.705858 0.563158 0.948989
Si Si6 0.757151 0.341739 0.435776
Si Si7 0.482894 0.668920 0.263081
O O1 0.126882 0.390165 0.827571
O O2 0.170606 0.214194 0.864633
O O3 0.022956 0.237896 0.766785
O O4 0.022342 0.298463 0.953369
O O5 0.669240 0.669240 0.500000
O O6 0.593277 0.705284 0.676121
O O7 0.769866 0.661008 0.662429
O O8 0.643069 0.540203 0.637888
O O9 0.943144 0.718141 0.642129
O O10 0.800166 0.616377 0.925362
O O11 0.841628 0.755774 0.808439
O O12 0.939612 0.730859 0.970794
O O13 0.771293 0.771293 0.000000
O O14 0.664606 0.538923 0.839755
O O15 0.631076 0.631076 0.000000
O O16 0.400190 0.599811 0.250000
#
# Coordination Sequence:
#
# PCOD9550958 Si02
#       7
#     8   8   8   8   8   8   8
#     4  11  25  43  71  98 145 177 240 292 350 420
#     4  11  23  42  69  94 135 180 228 284 348 416
#     4  11  25  44  67 102 137 185 231 287 354 418
#     4  10  22  40  69  92 133 177 228 269 347 411
#     4  11  24  43  68  97 134 184 223 282 352 409
#     4  11  22  46  69  95 136 189 230 287 352 423
#     4  11  23  40  63 100 131 168 226 281 336 410
#
# _framework density 20.249711999999999
#
# number of rings (size 3 to 8) (size 9 to 14) (size 15 to 20)
#    0.000    1.143    1.429    5.571    8.000    2.857 
#    5.143    0.000    0.000    0.000    0.000    0.000 
#    0.000    0.000    0.000    0.000    0.000    0.000 
#
# Total GULP energy -312009.806037 kJ/mol
# GULP energy per Si atom -5571.603679 kJ/mol
# Density = 2.020362 g / cm^3
# Si number density = 20.249712 Si / 1000 Ang^3
#
#
#
# Elastic Constant Matrix: (Units=GPa)
#
#
# Indices 1 2 3 4 5 6 
#
# 1 -23.3243 137.2985 7.6229 0.0000 0.0000 0.0000
# 2 137.2985 -23.3203 7.6215 0.0000 0.0000 0.0000
# 3 7.6229 7.6215 78.6421 0.0000 0.0000 0.0000
# 4 0.0000 0.0000 0.0000 -167.5969 0.0000 0.0000
# 5 0.0000 0.0000 0.0000 0.0000 -167.6071 0.0000
# 6 0.0000 0.0000 0.0000 0.0000 0.0000 27.3428
#
#
#
# Elastic Compliance Matrix: (Units=1/GPa)
#
#
# Indices 1 2 3 4 5 6 
#
# 1 0.001331 0.007557 -0.000861 0.000000 0.000000 0.000000
# 2 0.007557 0.001332 -0.000862 0.000000 0.000000 0.000000
# 3 -0.000861 -0.000862 0.012883 0.000000 0.000000 0.000000
# 4 0.000000 0.000000 0.000000 -0.005967 0.000000 0.000000
# 5 0.000000 0.000000 0.000000 0.000000 -0.005966 0.000000
# 6 0.000000 0.000000 0.000000 0.000000 0.000000 0.036573
#
#
# Mechanical properties :
#
#
# Convention : Reuss Voigt Hill
#
# Bulk Modulus (GPa) = 36.74494 37.45373 37.09933
# Shear Modulus (GPa) = 133.01943 -69.60860 31.70542
#
# Velocity S-wave (km/s) = 8.11370 -5.86939 3.96121
# Velocity P-wave (km/s) = 10.29376 5.23420 6.26756
#
# Compressibility (1/GPa) = 0.02721463
#
# Stress axis : x y z
#
# Youngs Moduli (GPa) = 751.05748 750.92451 77.62265
#
# Poissons Ratio (x) = -5.67505 0.06687
# Poissons Ratio (y) = -5.67606 0.06688
# Poissons Ratio (z) = 0.64702 0.64701
#
# Static dielectric constant tensor:
#      x y z
#    x 1.753080 0.000000 0.000000 
#    y 0.000000 1.753070 0.000000 
#    z 0.000000 0.000000 1.733290 
# 
# From -- ./inp_files/2295.got.cif
#   From: 2010.05.17/outbox.cif.g08.bks.cpg/sg96_2_cif.got.tgz:2295.got - 2010.06.03 19:52:08.
