data_PCOD9550314
_publ_section_title
;
Structure prediction by ZEFSAII (Michael W. Deem and Ramdas Pophale) SiO2 
 PCOD9550314
Probable space group: P 42 21 2
;
_chemical_formula_sum "Si O2"
_cell_formula_units_Z 40
_cell_length_a 11.462147
_cell_length_b 11.462147
_cell_length_c 14.312997
_cell_angle_alpha 90.000000
_cell_angle_beta 90.000000
_cell_angle_gamma 90.000000
_cell_volume 1880.453194
_symmetry_space_group_name_H-M "P 42 21 2"
_symmetry_group_IT_number 94
_symmetry_cell_setting 'tetragonal'
loop_
_space_group_symop_operation_xyz
x,y,z
1/2-y,1/2+x,1/2+z
-x,-y,z
1/2+y,1/2-x,1/2+z
1/2+x,1/2-y,1/2-z
1/2-x,1/2+y,1/2-z
y,x,-z
-y,-x,-z
loop_
_atom_site_type_symbol
_atom_site_label
_atom_site_fract_x
_atom_site_fract_y
_atom_site_fract_z
Si Si1 0.994135 0.839095 0.056957
Si Si2 0.484162 0.292463 0.827773
Si Si3 0.894879 0.409140 0.028362
Si Si4 0.343359 0.506683 0.771494
Si Si5 0.401246 0.097430 0.683373
O O1 0.041674 0.707986 0.062801
O O2 0.996297 0.879427 0.163499
O O3 0.874282 0.874282 0.000000
O O4 0.089536 0.910465 0.000000
O O5 0.528724 0.207806 0.911590
O O6 0.378234 0.388860 0.828180
O O7 0.590753 0.380755 0.811715
O O8 0.449095 0.207036 0.742040
O O9 0.000000 0.500000 0.025260
O O10 0.860137 0.377000 0.922217
O O11 0.208237 0.535720 0.770085
O O12 0.500000 0.000000 0.679771
#
# Coordination Sequence:
#
# PCOD9550314 Si02
#       5
#     8   8   8   8   8
#     4  11  22  42  72 102 133 177 240 290 349 417
#     4  11  24  44  68 101 139 181 239 286 359 430
#     4  11  25  45  67 100 141 186 229 290 358 427
#     4  11  25  42  69 104 136 185 230 299 355 422
#     4  11  25  44  69 100 139 185 235 289 359 427
#
# _framework density 21.271467000000001
#
# number of rings (size 3 to 8) (size 9 to 14) (size 15 to 20)
#    0.000    1.000    0.000    7.800    8.400    0.800 
#    7.200    2.000    0.000    0.000    0.000    0.000 
#    0.000    0.000    0.000    0.000    0.000    0.000 
#
# Total GULP energy -222921.131423 kJ/mol
# GULP energy per Si atom -5573.028286 kJ/mol
# Density = 2.122305 g / cm^3
# Si number density = 21.271467 Si / 1000 Ang^3
#
#
#
# Elastic Constant Matrix: (Units=GPa)
#
#
# Indices 1 2 3 4 5 6 
#
# 1 91.7722 66.0573 47.2500 0.0000 0.0000 0.0000
# 2 66.0573 91.7721 47.2498 0.0000 0.0000 0.0000
# 3 47.2500 47.2498 119.2181 0.0000 0.0000 0.0000
# 4 0.0000 0.0000 0.0000 -21.0056 0.0000 0.0000
# 5 0.0000 0.0000 0.0000 0.0000 -20.6558 0.0000
# 6 0.0000 0.0000 0.0000 0.0000 0.0000 9.7080
#
#
#
# Elastic Compliance Matrix: (Units=1/GPa)
#
#
# Indices 1 2 3 4 5 6 
#
# 1 0.023598 -0.015290 -0.003292 0.000000 0.000000 0.000000
# 2 -0.015290 0.023598 -0.003292 0.000000 0.000000 0.000000
# 3 -0.003292 -0.003292 0.010998 0.000000 0.000000 0.000000
# 4 0.000000 0.000000 0.000000 -0.047606 0.000000 0.000000
# 5 0.000000 0.000000 0.000000 0.000000 -0.048413 0.000000
# 6 0.000000 0.000000 0.000000 0.000000 0.000000 0.103007
#
#
# Mechanical properties :
#
#
# Convention : Reuss Voigt Hill
#
# Bulk Modulus (GPa) = 69.23961 69.31962 69.27961
# Shear Modulus (GPa) = 43.95752 3.08969 23.52361
#
# Velocity S-wave (km/s) = 4.55081 1.20651 3.32908
# Velocity P-wave (km/s) = 7.76108 5.88215 6.88600
#
# Compressibility (1/GPa) = 0.01444260
#
# Stress axis : x y z
#
# Youngs Moduli (GPa) = 42.37709 42.37713 90.92741
#
# Poissons Ratio (x) = 0.64796 0.29938
# Poissons Ratio (y) = 0.64796 0.29937
# Poissons Ratio (z) = 0.13953 0.13952
#
# Static dielectric constant tensor:
#      x y z
#    x 6.731340 0.000000 0.000000 
#    y 0.000000 6.682930 0.000000 
#    z 0.000000 0.000000 1.662260 
# 
# From -- ./inp_files/3429.got.cif
#   From: 2010.05.17/outbox.cif.g08.bks.cpg/sg94_2_cif.got.tgz:3429.got - 2010.06.03 19:43:16.
