data_PCOD9550368
_publ_section_title
;
Structure prediction by ZEFSAII (Michael W. Deem and Ramdas Pophale) SiO2 
 PCOD9550368
Probable space group: P 42 21 2
;
_chemical_formula_sum "Si O2"
_cell_formula_units_Z 48
_cell_length_a 8.298442
_cell_length_b 8.298442
_cell_length_c 29.654488
_cell_angle_alpha 90.000000
_cell_angle_beta 90.000000
_cell_angle_gamma 90.000000
_cell_volume 2042.130802
_symmetry_space_group_name_H-M "P 42 21 2"
_symmetry_group_IT_number 94
_symmetry_cell_setting 'tetragonal'
loop_
_space_group_symop_operation_xyz
x,y,z
1/2-y,1/2+x,1/2+z
-x,-y,z
1/2+y,1/2-x,1/2+z
1/2+x,1/2-y,1/2-z
1/2-x,1/2+y,1/2-z
y,x,-z
-y,-x,-z
loop_
_atom_site_type_symbol
_atom_site_label
_atom_site_fract_x
_atom_site_fract_y
_atom_site_fract_z
Si Si1 0.234434 0.895453 0.284054
Si Si2 0.300712 0.674755 0.048183
Si Si3 0.378943 0.382628 0.381193
Si Si4 0.215032 0.408929 0.704740
Si Si5 0.628032 0.149016 0.643697
Si Si6 0.690688 0.686282 0.950366
O O1 0.143069 0.856359 0.238245
O O2 0.420015 0.844198 0.276933
O O3 0.152627 0.779641 0.322231
O O4 0.263020 0.083378 0.295339
O O5 0.243535 0.792589 0.086794
O O6 0.493557 0.671110 0.044239
O O7 0.245275 0.490507 0.057115
O O8 0.252451 0.747550 0.000000
O O9 0.500000 0.500000 0.407198
O O10 0.447962 0.250887 0.347471
O O11 0.293945 0.506146 0.347022
O O12 0.697701 0.191268 0.593718
O O13 0.500000 0.000000 0.644313
O O14 0.746999 0.746999 0.000000
#
# Coordination Sequence:
#
# PCOD9550368 Si02
#       6
#     8   8   8   8   8   8
#     4  11  26  45  71  97 130 176 221 282 341 409
#     4   9  19  39  67  93 126 175 225 276 334 395
#     4  12  24  43  63  93 139 172 213 280 333 402
#     4  11  26  46  68  97 133 173 226 276 344 407
#     4  12  24  42  66  96 134 173 225 271 336 407
#     4   9  19  40  66  94 127 170 228 277 323 401
#
# _framework density 23.504860999999998
#
# number of rings (size 3 to 8) (size 9 to 14) (size 15 to 20)
#    0.000    1.333    3.333    3.000    4.667    0.333 
#    3.000    0.000    0.000    0.000    0.000    0.000 
#    0.000    0.000    0.000    0.000    0.000    0.000 
#
# Total GULP energy -267535.023192 kJ/mol
# GULP energy per Si atom -5573.646316 kJ/mol
# Density = 2.345136 g / cm^3
# Si number density = 23.504861 Si / 1000 Ang^3
#
#
#
# Elastic Constant Matrix: (Units=GPa)
#
#
# Indices 1 2 3 4 5 6 
#
# 1 62.5736 31.5396 33.1099 0.0000 0.0000 0.0000
# 2 31.5396 62.5736 33.1099 0.0000 0.0000 0.0000
# 3 33.1099 33.1099 133.8585 0.0000 0.0000 0.0000
# 4 0.0000 0.0000 0.0000 -32.6385 0.0000 0.0000
# 5 0.0000 0.0000 0.0000 0.0000 -32.6339 0.0000
# 6 0.0000 0.0000 0.0000 0.0000 0.0000 40.5500
#
#
#
# Elastic Compliance Matrix: (Units=1/GPa)
#
#
# Indices 1 2 3 4 5 6 
#
# 1 0.022544 -0.009679 -0.003182 0.000000 0.000000 0.000000
# 2 -0.009679 0.022544 -0.003182 0.000000 0.000000 0.000000
# 3 -0.003182 -0.003182 0.009045 0.000000 0.000000 0.000000
# 4 0.000000 0.000000 0.000000 -0.030639 0.000000 0.000000
# 5 0.000000 0.000000 0.000000 0.000000 -0.030643 0.000000
# 6 0.000000 0.000000 0.000000 0.000000 0.000000 0.024661
#
#
# Mechanical properties :
#
#
# Convention : Reuss Voigt Hill
#
# Bulk Modulus (GPa) = 45.36072 50.50274 47.93173
# Shear Modulus (GPa) = 87.80271 5.80529 46.80400
#
# Velocity S-wave (km/s) = 6.11851 1.57327 4.46718
# Velocity P-wave (km/s) = 8.32198 4.98327 6.85887
#
# Compressibility (1/GPa) = 0.02204551
#
# Stress axis : x y z
#
# Youngs Moduli (GPa) = 44.35861 44.35859 110.56172
#
# Poissons Ratio (x) = 0.42935 0.35181
# Poissons Ratio (y) = 0.42935 0.35181
# Poissons Ratio (z) = 0.14115 0.14115
#
# Static dielectric constant tensor:
#      x y z
#    x 2.008530 0.000000 0.000000 
#    y 0.000000 2.008530 0.000000 
#    z 0.000000 0.000000 1.892760 
# 
# From -- ./inp_files/5542.got.cif
#   From: 2010.05.17/outbox.cif.g08.bks.cpg/sg94_3_cif.got.tgz:5542.got - 2010.06.03 19:43:16.
