data_PCOD9550155
_publ_section_title
;
Structure prediction by ZEFSAII (Michael W. Deem and Ramdas Pophale) SiO2 
 PCOD9550155
Probable space group: P 42 21 2
;
_chemical_formula_sum "Si O2"
_cell_formula_units_Z 44
_cell_length_a 8.672406
_cell_length_b 8.672406
_cell_length_c 25.978287
_cell_angle_alpha 90.000000
_cell_angle_beta 90.000000
_cell_angle_gamma 90.000000
_cell_volume 1953.843223
_symmetry_space_group_name_H-M "P 42 21 2"
_symmetry_group_IT_number 94
_symmetry_cell_setting 'tetragonal'
loop_
_space_group_symop_operation_xyz
x,y,z
1/2-y,1/2+x,1/2+z
-x,-y,z
1/2+y,1/2-x,1/2+z
1/2+x,1/2-y,1/2-z
1/2-x,1/2+y,1/2-z
y,x,-z
-y,-x,-z
loop_
_atom_site_type_symbol
_atom_site_label
_atom_site_fract_x
_atom_site_fract_y
_atom_site_fract_z
Si Si1 0.714567 0.928666 0.871549
Si Si2 0.500000 0.000000 0.172504
Si Si3 0.195307 0.804694 0.000000
Si Si4 0.500000 0.000000 0.462067
Si Si5 0.761630 0.784348 0.657285
Si Si6 0.000000 0.000000 0.318322
Si Si7 0.213816 0.752848 0.276637
Si Si8 0.000000 0.000000 0.079578
O O1 0.691857 0.839951 0.818409
O O2 0.889054 0.893512 0.887213
O O3 0.606595 0.903604 0.921255
O O4 0.718338 0.111317 0.860770
O O5 0.606671 0.119804 0.141404
O O6 0.377382 0.099092 0.205986
O O7 0.121079 0.625540 0.009114
O O8 0.103568 0.883904 0.953220
O O9 0.756457 0.775495 0.719448
O O10 0.913027 0.880935 0.645380
O O11 0.913068 0.115699 0.281171
#
# Coordination Sequence:
#
# PCOD9550155 Si02
#       8
#     8   4   4   4   8   4   8   4
#     4  11  21  38  65  96 124 168 226 264 308 390
#     4  10  22  35  51  76 116 170 218 258 315 361
#     4   9  20  44  70  97 130 159 200 270 360 407
#     4  10  22  41  71 102 126 160 210 278 345 415
#     4  11  22  37  56  84 127 176 219 264 309 362
#     4  10  22  35  48  73 114 161 206 262 318 351
#     4  11  22  37  55  83 126 173 219 267 312 361
#     4   9  20  39  66  93 122 162 212 267 318 408
#
# _framework density 22.519721000000001
#
# number of rings (size 3 to 8) (size 9 to 14) (size 15 to 20)
#    0.000    1.636    0.000    5.455    0.000    2.909 
#    0.000   13.636    0.000   18.545    0.000    0.000 
#    0.000    0.000    0.000    0.000    0.000    0.000 
#
# Total GULP energy -245079.090777 kJ/mol
# GULP energy per Si atom -5569.979336 kJ/mol
# Density = 2.246846 g / cm^3
# Si number density = 22.519721 Si / 1000 Ang^3
#
#
#
# Elastic Constant Matrix: (Units=GPa)
#
#
# Indices 1 2 3 4 5 6 
#
# 1 130.1663 42.5779 25.5725 0.0000 0.0000 0.0000
# 2 42.5779 130.1661 25.5724 0.0000 0.0000 0.0000
# 3 25.5725 25.5724 77.0549 0.0000 0.0000 0.0000
# 4 0.0000 0.0000 0.0000 15.8360 0.0000 0.0000
# 5 0.0000 0.0000 0.0000 0.0000 15.8361 0.0000
# 6 0.0000 0.0000 0.0000 0.0000 0.0000 42.9607
#
#
#
# Elastic Compliance Matrix: (Units=1/GPa)
#
#
# Indices 1 2 3 4 5 6 
#
# 1 0.008918 -0.002499 -0.002131 0.000000 0.000000 0.000000
# 2 -0.002499 0.008918 -0.002131 0.000000 0.000000 0.000000
# 3 -0.002131 -0.002131 0.014392 0.000000 0.000000 0.000000
# 4 0.000000 0.000000 0.000000 0.063147 0.000000 0.000000
# 5 0.000000 0.000000 0.000000 0.000000 0.063147 0.000000
# 6 0.000000 0.000000 0.000000 0.000000 0.000000 0.023277
#
#
# Mechanical properties :
#
#
# Convention : Reuss Voigt Hill
#
# Bulk Modulus (GPa) = 53.44967 58.31477 55.88222
# Shear Modulus (GPa) = 24.80704 31.17086 27.98895
#
# Velocity S-wave (km/s) = 3.32259 3.72446 3.52925
# Velocity P-wave (km/s) = 6.20529 6.66684 6.44020
#
# Compressibility (1/GPa) = 0.01870919
#
# Stress axis : x y z
#
# Youngs Moduli (GPa) = 112.12813 112.12794 69.48354
#
# Poissons Ratio (x) = 0.28017 0.14804
# Poissons Ratio (y) = 0.28017 0.14804
# Poissons Ratio (z) = 0.23889 0.23889
#
# Static dielectric constant tensor:
#      x y z
#    x 1.971820 0.000000 0.000000 
#    y 0.000000 1.971820 0.000000 
#    z 0.000000 0.000000 1.908960 
# 
# From -- ./inp_files/5540.got.cif
#   From: 2010.05.17/outbox.cif.g08.bks.cpg/sg94_3_cif.got.tgz:5540.got - 2010.06.03 19:43:16.
