data_PCOD9550277
_publ_section_title
;
Structure prediction by ZEFSAII (Michael W. Deem and Ramdas Pophale) SiO2 
 PCOD9550277
Probable space group: P 42 21 2
;
_chemical_formula_sum "Si O2"
_cell_formula_units_Z 20
_cell_length_a 8.168127
_cell_length_b 8.168127
_cell_length_c 13.155976
_cell_angle_alpha 90.000000
_cell_angle_beta 90.000000
_cell_angle_gamma 90.000000
_cell_volume 877.744336
_symmetry_space_group_name_H-M "P 42 21 2"
_symmetry_group_IT_number 94
_symmetry_cell_setting 'tetragonal'
loop_
_space_group_symop_operation_xyz
x,y,z
1/2-y,1/2+x,1/2+z
-x,-y,z
1/2+y,1/2-x,1/2+z
1/2+x,1/2-y,1/2-z
1/2-x,1/2+y,1/2-z
y,x,-z
-y,-x,-z
loop_
_atom_site_type_symbol
_atom_site_label
_atom_site_fract_x
_atom_site_fract_y
_atom_site_fract_z
Si Si1 0.320489 0.051079 0.129702
Si Si2 0.000000 0.500000 0.065375
Si Si3 0.069264 0.824254 0.679227
O O1 0.305935 0.242727 0.149383
O O2 0.500000 0.000000 0.170178
O O3 0.193203 0.956031 0.199626
O O4 0.343296 0.014787 0.010633
O O5 0.168110 0.516886 0.127083
O O6 0.000000 0.000000 0.645517
#
# Coordination Sequence:
#
# PCOD9550277 Si02
#       3
#     8   4   8
#     4  10  24  46  70 106 150 189 251 312 361 453
#     4  10  24  46  74 110 146 192 260 306 358 470
#     4  12  24  47  76 105 151 203 243 310 389 434
#
# _framework density 22.785677
#
# number of rings (size 3 to 8) (size 9 to 14) (size 15 to 20)
#    1.200    0.000    2.000    3.600    0.000    3.200 
#    0.000    0.000    0.000    0.000    0.000    0.000 
#    0.000    0.000    0.000    0.000    0.000    0.000 
#
# Total GULP energy -111645.679086 kJ/mol
# GULP energy per Si atom -5582.283954 kJ/mol
# Density = 2.273382 g / cm^3
# Si number density = 22.785677 Si / 1000 Ang^3
#
#
#
# Elastic Constant Matrix: (Units=GPa)
#
#
# Indices 1 2 3 4 5 6 
#
# 1 109.5863 10.9217 30.4568 0.0000 0.0000 0.0000
# 2 10.9217 109.5863 30.4568 0.0000 0.0000 0.0000
# 3 30.4568 30.4568 101.2276 0.0000 0.0000 0.0000
# 4 0.0000 0.0000 0.0000 -26.7313 0.0000 0.0000
# 5 0.0000 0.0000 0.0000 0.0000 -26.7313 0.0000
# 6 0.0000 0.0000 0.0000 0.0000 0.0000 32.0109
#
#
#
# Elastic Compliance Matrix: (Units=1/GPa)
#
#
# Indices 1 2 3 4 5 6 
#
# 1 0.009961 -0.000174 -0.002945 0.000000 0.000000 0.000000
# 2 -0.000174 0.009961 -0.002945 0.000000 0.000000 0.000000
# 3 -0.002945 -0.002945 0.011651 0.000000 0.000000 0.000000
# 4 0.000000 0.000000 0.000000 -0.037409 0.000000 0.000000
# 5 0.000000 0.000000 0.000000 0.000000 -0.037409 0.000000
# 6 0.000000 0.000000 0.000000 0.000000 0.000000 0.031239
#
#
# Mechanical properties :
#
#
# Convention : Reuss Voigt Hill
#
# Bulk Modulus (GPa) = 51.42541 51.56341 51.49441
# Shear Modulus (GPa) = 757.35359 12.28067 384.81713
#
# Velocity S-wave (km/s) = 18.25111 2.32408 13.00970
# Velocity P-wave (km/s) = 21.60453 5.46632 15.75811
#
# Compressibility (1/GPa) = 0.01944564
#
# Stress axis : x y z
#
# Youngs Moduli (GPa) = 100.39191 100.39191 85.83254
#
# Poissons Ratio (x) = 0.01751 0.25274
# Poissons Ratio (y) = 0.01751 0.25274
# Poissons Ratio (z) = 0.29561 0.29561
#
# Static dielectric constant tensor:
#      x y z
#    x 1.838540 0.000000 0.000000 
#    y 0.000000 1.838540 0.000000 
#    z 0.000000 0.000000 1.902630 
# 
# From -- ./inp_files/1962.got.cif
#   From: 2010.05.17/outbox.cif.g08.bks.cpg/sg94_1_cif.got.tgz:1962.got - 2010.06.03 19:43:16.
