data_PCOD9550238
_publ_section_title
;
Structure prediction by ZEFSAII (Michael W. Deem and Ramdas Pophale) SiO2 
 PCOD9550238
Probable space group: P 42 21 2
;
_chemical_formula_sum "Si O2"
_cell_formula_units_Z 28
_cell_length_a 11.042600
_cell_length_b 11.042600
_cell_length_c 11.568191
_cell_angle_alpha 90.000000
_cell_angle_beta 90.000000
_cell_angle_gamma 90.000000
_cell_volume 1410.613813
_symmetry_space_group_name_H-M "P 42 21 2"
_symmetry_group_IT_number 94
_symmetry_cell_setting 'tetragonal'
loop_
_space_group_symop_operation_xyz
x,y,z
1/2-y,1/2+x,1/2+z
-x,-y,z
1/2+y,1/2-x,1/2+z
1/2+x,1/2-y,1/2-z
1/2-x,1/2+y,1/2-z
y,x,-z
-y,-x,-z
loop_
_atom_site_type_symbol
_atom_site_label
_atom_site_fract_x
_atom_site_fract_y
_atom_site_fract_z
Si Si1 0.675025 0.675025 0.500000
Si Si2 0.764748 0.036860 0.535737
Si Si3 0.909728 0.741704 0.924719
Si Si4 0.648608 0.304480 0.836601
O O1 0.716547 0.537454 0.478092
O O2 0.726017 0.738930 0.383628
O O3 0.865633 0.134368 0.500000
O O4 0.639091 0.103054 0.567680
O O5 0.756616 0.955370 0.421875
O O6 0.816380 0.943826 0.632610
O O7 0.892342 0.783943 0.793027
O O8 0.813655 0.813655 0.000000
#
# Coordination Sequence:
#
# PCOD9550238 Si02
#       4
#     4   8   8   8
#     4  10  25  44  61 104 130 174 226 270 353 388
#     4   9  21  42  65  95 124 180 222 260 340 400
#     4  11  25  39  68  99 131 171 223 279 329 397
#     4  10  23  42  67  92 135 177 217 278 331 405
#
# _framework density 19.849515
#
# number of rings (size 3 to 8) (size 9 to 14) (size 15 to 20)
#    0.000    2.286    0.000    2.143   12.000    6.857 
#    0.000    5.714    0.000    0.000    0.000    0.000 
#    0.000    0.000    0.000    0.000    0.000    0.000 
#
# Total GULP energy -155967.192312 kJ/mol
# GULP energy per Si atom -5570.256868 kJ/mol
# Density = 1.980434 g / cm^3
# Si number density = 19.849515 Si / 1000 Ang^3
#
#
#
# Elastic Constant Matrix: (Units=GPa)
#
#
# Indices 1 2 3 4 5 6 
#
# 1 102.2497 82.5002 31.6656 0.0000 0.0000 0.0000
# 2 82.5002 102.2563 31.6806 0.0000 0.0000 0.0000
# 3 31.6656 31.6806 62.6591 0.0000 0.0000 0.0000
# 4 0.0000 0.0000 0.0000 12.8077 0.0000 0.0000
# 5 0.0000 0.0000 0.0000 0.0000 12.8087 0.0000
# 6 0.0000 0.0000 0.0000 0.0000 0.0000 26.0334
#
#
#
# Elastic Compliance Matrix: (Units=1/GPa)
#
#
# Indices 1 2 3 4 5 6 
#
# 1 0.028585 -0.022039 -0.003303 0.000000 0.000000 0.000000
# 2 -0.022039 0.028588 -0.003316 0.000000 0.000000 0.000000
# 3 -0.003303 -0.003316 0.019305 0.000000 0.000000 0.000000
# 4 0.000000 0.000000 0.000000 0.078078 0.000000 0.000000
# 5 0.000000 0.000000 0.000000 0.000000 0.078072 0.000000
# 6 0.000000 0.000000 0.000000 0.000000 0.000000 0.038412
#
#
# Mechanical properties :
#
#
# Convention : Reuss Voigt Hill
#
# Bulk Modulus (GPa) = 52.18751 62.09531 57.14141
# Shear Modulus (GPa) = 14.93675 18.41787 16.67731
#
# Velocity S-wave (km/s) = 2.74615 3.04941 2.90174
# Velocity P-wave (km/s) = 6.03355 6.61434 6.33061
#
# Compressibility (1/GPa) = 0.01916167
#
# Stress axis : x y z
#
# Youngs Moduli (GPa) = 34.98318 34.97974 51.79937
#
# Poissons Ratio (x) = 0.77093 0.17108
# Poissons Ratio (y) = 0.77100 0.17179
# Poissons Ratio (z) = 0.11554 0.11601
#
# Static dielectric constant tensor:
#      x y z
#    x 2.114900 0.000000 0.000000 
#    y 0.000000 2.114570 0.000000 
#    z 0.000000 0.000000 1.645660 
# 
# From -- ./inp_files/2143.got.cif
#   From: 2010.05.17/outbox.cif.g08.bks.cpg/sg94_2_cif.got.tgz:2143.got - 2010.06.03 19:43:16.
