data_PCOD9550470
_publ_section_title
;
Structure prediction by ZEFSAII (Michael W. Deem and Ramdas Pophale) SiO2 
 PCOD9550470
Probable space group: P 43 2 2
;
_chemical_formula_sum "Si O2"
_cell_formula_units_Z 36
_cell_length_a 7.706725
_cell_length_b 7.706725
_cell_length_c 27.816279
_cell_angle_alpha 90.000000
_cell_angle_beta 90.000000
_cell_angle_gamma 90.000000
_cell_volume 1652.109233
_symmetry_space_group_name_H-M "P 43 2 2"
_symmetry_group_IT_number 95
_symmetry_cell_setting 'tetragonal'
loop_
_space_group_symop_operation_xyz
x,y,z
-y,x,3/4+z
-x,-y,1/2+z
y,-x,1/4+z
x,-y,1/2-z
-x,y,-z
y,x,1/4-z
-y,-x,3/4-z
loop_
_atom_site_type_symbol
_atom_site_label
_atom_site_fract_x
_atom_site_fract_y
_atom_site_fract_z
Si Si1 0.784711 0.784711 0.125000
Si Si2 0.487666 0.222344 0.111123
Si Si3 0.982965 0.347051 0.555263
Si Si4 0.805788 0.874548 0.440284
Si Si5 0.819447 0.045604 0.947852
O O1 0.828755 0.653766 0.081879
O O2 0.960218 0.769124 0.156242
O O3 0.400666 0.400666 0.125000
O O4 0.537027 0.136693 0.161685
O O5 0.658153 0.251553 0.078663
O O6 0.347301 0.102319 0.082633
O O7 0.892432 0.152707 0.556454
O O8 0.000000 0.397792 0.500000
O O9 0.782220 0.921242 0.496017
O O10 0.010440 0.840656 0.433757
#
# Coordination Sequence:
#
# PCOD9550470 Si02
#       5
#     4   8   8   8   8
#     4   8  14  30  64  98 122 176 226 290 344 404
#     4  11  25  37  62 108 151 180 229 300 370 436
#     4  10  19  40  66 100 146 180 249 303 351 440
#     4   9  18  37  67  97 139 177 244 289 346 433
#     4  10  19  40  74 101 126 196 243 292 362 427
#
# _framework density 21.790327000000001
#
# number of rings (size 3 to 8) (size 9 to 14) (size 15 to 20)
#    0.000    2.222    4.444    0.667    9.333    0.000 
#    4.000    2.222   14.667    5.333    0.000    0.000 
#    0.000    0.000    0.000    0.000    0.000    0.000 
#
# Total GULP energy -200584.649106 kJ/mol
# GULP energy per Si atom -5571.795808 kJ/mol
# Density = 2.174073 g / cm^3
# Si number density = 21.790327 Si / 1000 Ang^3
#
#
#
# Elastic Constant Matrix: (Units=GPa)
#
#
# Indices 1 2 3 4 5 6 
#
# 1 47.5759 85.5161 58.6806 0.0000 0.0000 0.0000
# 2 85.5161 47.5759 58.6806 0.0000 0.0000 0.0000
# 3 58.6806 58.6806 181.1150 0.0000 0.0000 0.0000
# 4 0.0000 0.0000 0.0000 19.2142 0.0000 0.0000
# 5 0.0000 0.0000 0.0000 0.0000 19.2142 0.0000
# 6 0.0000 0.0000 0.0000 0.0000 0.0000 33.9526
#
#
#
# Elastic Compliance Matrix: (Units=1/GPa)
#
#
# Indices 1 2 3 4 5 6 
#
# 1 -0.007919 0.018438 -0.003408 0.000000 0.000000 0.000000
# 2 0.018438 -0.007919 -0.003408 0.000000 0.000000 0.000000
# 3 -0.003408 -0.003408 0.007730 0.000000 0.000000 0.000000
# 4 0.000000 0.000000 0.000000 0.052045 0.000000 0.000000
# 5 0.000000 0.000000 0.000000 0.000000 0.052045 0.000000
# 6 0.000000 0.000000 0.000000 0.000000 0.000000 0.029453
#
#
# Mechanical properties :
#
#
# Convention : Reuss Voigt Hill
#
# Bulk Modulus (GPa) = 66.07121 75.78016 70.92569
# Shear Modulus (GPa) = 46.62648 19.36883 32.99765
#
# Velocity S-wave (km/s) = 4.63079 2.98463 3.89566
# Velocity P-wave (km/s) = 7.67981 6.83592 7.27012
#
# Compressibility (1/GPa) = 0.01513519
#
# Stress axis : x y z
#
# Youngs Moduli (GPa) = -126.27504 -126.27504 129.37013
#
# Poissons Ratio (x) = 2.32827 0.44090
# Poissons Ratio (y) = 2.32827 0.44090
# Poissons Ratio (z) = -0.43035 -0.43035
#
# Static dielectric constant tensor:
#      x y z
#    x 1.913430 0.000000 0.000000 
#    y 0.000000 1.913430 0.000000 
#    z 0.000000 0.000000 1.801580 
# 
# From -- ./inp_files/7297.got.cif
#   From: 2010.05.17/outbox.cif.g08.bks.cpg/sg95_4_cif.got.tgz:7297.got - 2010.06.03 19:46:49.
