data_PCOD9550906
_publ_section_title
;
Structure prediction by ZEFSAII (Michael W. Deem and Ramdas Pophale) SiO2 
 PCOD9550906
Probable space group: P 43 21 2
;
_chemical_formula_sum "Si O2"
_cell_formula_units_Z 40
_cell_length_a 8.222263
_cell_length_b 8.222263
_cell_length_c 22.833168
_cell_angle_alpha 90.000000
_cell_angle_beta 90.000000
_cell_angle_gamma 90.000000
_cell_volume 1543.650224
_symmetry_space_group_name_H-M "P 43 21 2"
_symmetry_group_IT_number 96
_symmetry_cell_setting 'tetragonal'
loop_
_space_group_symop_operation_xyz
x,y,z
1/2-y,1/2+x,3/4+z
-x,-y,1/2+z
1/2+y,1/2-x,1/4+z
1/2+x,1/2-y,1/4-z
1/2-x,1/2+y,3/4-z
y,x,-z
-y,-x,1/2-z
loop_
_atom_site_type_symbol
_atom_site_label
_atom_site_fract_x
_atom_site_fract_y
_atom_site_fract_z
Si Si1 0.631760 0.260154 0.371355
Si Si2 0.930301 0.582137 0.063870
Si Si3 0.744599 0.613262 0.711945
Si Si4 0.920799 0.079202 0.750000
Si Si5 0.632738 0.367263 0.250000
Si Si6 0.905244 0.936411 0.868510
O O1 0.577805 0.084262 0.396012
O O2 0.743487 0.319728 0.424117
O O3 0.695962 0.265657 0.305832
O O4 0.489133 0.393012 0.364284
O O5 0.755824 0.578837 0.031109
O O6 0.941335 0.720265 0.112789
O O7 0.051524 0.636870 0.012811
O O8 0.563546 0.654094 0.738496
O O9 0.699162 0.482914 0.660732
O O10 0.061652 0.075123 0.701152
#
# Coordination Sequence:
#
# PCOD9550906 Si02
#       6
#     8   8   8   4   4   8
#     4  10  24  39  72 111 144 201 255 308 402 461
#     4  11  20  45  75 102 141 204 255 305 390 472
#     4  11  20  45  74 100 154 199 244 327 392 450
#     4  10  21  39  70 104 130 184 267 297 372 462
#     4  10  21  49  68 100 160 196 249 335 384 456
#     4  10  21  43  67 102 146 184 254 324 358 459
#
# _framework density 25.912606
#
# number of rings (size 3 to 8) (size 9 to 14) (size 15 to 20)
#    0.000    1.600    6.000    0.000    0.000    4.000 
#   14.400    0.000    0.000    0.000    0.000    0.000 
#    0.000    0.000    0.000    0.000    0.000    0.000 
#
# Total GULP energy -223327.360446 kJ/mol
# GULP energy per Si atom -5583.184011 kJ/mol
# Density = 2.585363 g / cm^3
# Si number density = 25.912606 Si / 1000 Ang^3
#
#
#
# Elastic Constant Matrix: (Units=GPa)
#
#
# Indices 1 2 3 4 5 6 
#
# 1 54.8532 38.0554 48.9683 0.0000 0.0000 0.0000
# 2 38.0554 54.8535 48.9684 0.0000 0.0000 0.0000
# 3 48.9683 48.9684 247.4938 0.0000 0.0000 0.0000
# 4 0.0000 0.0000 0.0000 36.5104 0.0000 0.0000
# 5 0.0000 0.0000 0.0000 0.0000 36.5101 0.0000
# 6 0.0000 0.0000 0.0000 0.0000 0.0000 23.0440
#
#
#
# Elastic Compliance Matrix: (Units=1/GPa)
#
#
# Indices 1 2 3 4 5 6 
#
# 1 0.036566 -0.022966 -0.002691 0.000000 0.000000 0.000000
# 2 -0.022966 0.036565 -0.002691 0.000000 0.000000 0.000000
# 3 -0.002691 -0.002691 0.005105 0.000000 0.000000 0.000000
# 4 0.000000 0.000000 0.000000 0.027389 0.000000 0.000000
# 5 0.000000 0.000000 0.000000 0.000000 0.027390 0.000000
# 6 0.000000 0.000000 0.000000 0.000000 0.000000 0.043395
#
#
# Mechanical properties :
#
#
# Convention : Reuss Voigt Hill
#
# Bulk Modulus (GPa) = 46.42213 69.90942 58.16578
# Shear Modulus (GPa) = 20.80857 33.96012 27.38434
#
# Velocity S-wave (km/s) = 2.83685 3.62410 3.25437
# Velocity P-wave (km/s) = 5.35575 6.67455 6.05118
#
# Compressibility (1/GPa) = 0.02154145
#
# Stress axis : x y z
#
# Youngs Moduli (GPa) = 27.34815 27.34835 195.87545
#
# Poissons Ratio (x) = 0.62808 0.52706
# Poissons Ratio (y) = 0.62807 0.52705
# Poissons Ratio (z) = 0.07359 0.07359
#
# Static dielectric constant tensor:
#      x y z
#    x 2.082890 0.000000 0.000000 
#    y 0.000000 2.082890 0.000000 
#    z 0.000000 0.000000 2.158270 
# 
# From -- ./inp_files/3870.got.cif
#   From: 2010.05.17/outbox.cif.g08.bks.cpg/sg96_2_cif.got.tgz:3870.got - 2010.06.03 19:52:08.
