data_PCOD9550266
_publ_section_title
;
Structure prediction by ZEFSAII (Michael W. Deem and Ramdas Pophale) SiO2 
 PCOD9550266
Probable space group: P 42 21 2
;
_chemical_formula_sum "Si O2"
_cell_formula_units_Z 36
_cell_length_a 8.840858
_cell_length_b 8.840858
_cell_length_c 23.401363
_cell_angle_alpha 90.000000
_cell_angle_beta 90.000000
_cell_angle_gamma 90.000000
_cell_volume 1829.068555
_symmetry_space_group_name_H-M "P 42 21 2"
_symmetry_group_IT_number 94
_symmetry_cell_setting 'tetragonal'
loop_
_space_group_symop_operation_xyz
x,y,z
1/2-y,1/2+x,1/2+z
-x,-y,z
1/2+y,1/2-x,1/2+z
1/2+x,1/2-y,1/2-z
1/2-x,1/2+y,1/2-z
y,x,-z
-y,-x,-z
loop_
_atom_site_type_symbol
_atom_site_label
_atom_site_fract_x
_atom_site_fract_y
_atom_site_fract_z
Si Si1 0.749600 0.505013 0.501866
Si Si2 0.000000 0.500000 0.906230
Si Si3 0.327559 0.989411 0.869056
Si Si4 0.317092 0.824015 0.177111
Si Si5 0.643816 0.390827 0.285387
O O1 0.668421 0.668421 0.500000
O O2 0.617979 0.382022 0.500000
O O3 0.827700 0.489371 0.563150
O O4 0.858657 0.478197 0.448485
O O5 0.142271 0.547017 0.866587
O O6 0.246885 0.829234 0.854686
O O7 0.500000 0.000000 0.847428
O O8 0.221834 0.112675 0.838034
O O9 0.345431 0.711322 0.229302
O O10 0.276734 0.990889 0.201765
O O11 0.500000 0.500000 0.279173
#
# Coordination Sequence:
#
# PCOD9550266 Si02
#       5
#     8   4   8   8   8
#     4  11  23  43  66  93 129 174 223 267 326 405
#     4  12  24  40  68 100 132 166 222 282 334 392
#     4  11  22  41  67  93 127 172 221 272 330 407
#     4  11  24  41  65  97 133 170 222 282 345 399
#     4  10  24  41  64  95 127 175 222 270 336 405
#
# _framework density 19.682148000000002
#
# number of rings (size 3 to 8) (size 9 to 14) (size 15 to 20)
#    0.000    1.111    3.333    2.667   14.000    0.000 
#    4.000    0.000    0.000    1.333    0.000    0.000 
#    0.000    0.000    0.000    0.000    0.000    0.000 
#
# Total GULP energy -201046.491939 kJ/mol
# GULP energy per Si atom -5584.624776 kJ/mol
# Density = 1.963735 g / cm^3
# Si number density = 19.682148 Si / 1000 Ang^3
#
#
#
# Elastic Constant Matrix: (Units=GPa)
#
#
# Indices 1 2 3 4 5 6 
#
# 1 103.0792 34.9574 48.4187 0.0000 0.0000 0.0000
# 2 34.9574 103.0776 48.4187 0.0000 0.0000 0.0000
# 3 48.4187 48.4187 131.0981 0.0000 0.0000 0.0000
# 4 0.0000 0.0000 0.0000 27.4358 0.0000 0.0000
# 5 0.0000 0.0000 0.0000 0.0000 27.4329 0.0000
# 6 0.0000 0.0000 0.0000 0.0000 0.0000 13.2475
#
#
#
# Elastic Compliance Matrix: (Units=1/GPa)
#
#
# Indices 1 2 3 4 5 6 
#
# 1 0.012229 -0.002451 -0.003611 0.000000 0.000000 0.000000
# 2 -0.002451 0.012229 -0.003611 0.000000 0.000000 0.000000
# 3 -0.003611 -0.003611 0.010295 0.000000 0.000000 0.000000
# 4 0.000000 0.000000 0.000000 0.036449 0.000000 0.000000
# 5 0.000000 0.000000 0.000000 0.000000 0.036453 0.000000
# 6 0.000000 0.000000 0.000000 0.000000 0.000000 0.075486
#
#
# Mechanical properties :
#
#
# Convention : Reuss Voigt Hill
#
# Bulk Modulus (GPa) = 64.90933 66.76049 65.83491
# Shear Modulus (GPa) = 24.08214 27.32059 25.70136
#
# Velocity S-wave (km/s) = 3.50173 3.72975 3.61753
# Velocity P-wave (km/s) = 7.02850 7.24852 7.13936
#
# Compressibility (1/GPa) = 0.01540611
#
# Stress axis : x y z
#
# Youngs Moduli (GPa) = 81.77443 81.77300 97.13056
#
# Poissons Ratio (x) = 0.20042 0.35077
# Poissons Ratio (y) = 0.20042 0.35077
# Poissons Ratio (z) = 0.29531 0.29531
#
# Static dielectric constant tensor:
#      x y z
#    x 1.699130 0.000000 0.000000 
#    y 0.000000 1.699130 0.000000 
#    z 0.000000 0.000000 1.696540 
# 
# From -- ./inp_files/4553.got.cif
#   From: 2010.05.17/outbox.cif.g08.bks.cpg/sg94_3_cif.got.tgz:4553.got - 2010.06.03 19:43:16.
