data_PCOD9550604
_publ_section_title
;
Structure prediction by ZEFSAII (Michael W. Deem and Ramdas Pophale) SiO2 
 PCOD9550604
Probable space group: P 43 2 2
;
_chemical_formula_sum "Si O2"
_cell_formula_units_Z 56
_cell_length_a 14.901662
_cell_length_b 14.901662
_cell_length_c 12.121476
_cell_angle_alpha 90.000000
_cell_angle_beta 90.000000
_cell_angle_gamma 90.000000
_cell_volume 2691.689268
_symmetry_space_group_name_H-M "P 43 2 2"
_symmetry_group_IT_number 95
_symmetry_cell_setting 'tetragonal'
loop_
_space_group_symop_operation_xyz
x,y,z
-y,x,3/4+z
-x,-y,1/2+z
y,-x,1/4+z
x,-y,1/2-z
-x,y,-z
y,x,1/4-z
-y,-x,3/4-z
loop_
_atom_site_type_symbol
_atom_site_label
_atom_site_fract_x
_atom_site_fract_y
_atom_site_fract_z
Si Si1 0.190676 0.419547 0.948933
Si Si2 0.234034 0.765967 0.875000
Si Si3 0.662260 0.701461 0.340544
Si Si4 0.255413 0.901393 0.266220
Si Si5 0.500000 0.097608 0.500000
Si Si6 0.733647 0.140738 0.023899
Si Si7 0.326382 0.963791 0.873239
Si Si8 0.470031 0.316653 0.124802
O O1 0.279958 0.370298 0.907190
O O2 0.161062 0.488367 0.856993
O O3 0.109374 0.349966 0.955661
O O4 0.221287 0.447504 0.070064
O O5 0.281849 0.725487 0.767527
O O6 0.267926 0.870874 0.873700
O O7 0.663129 0.791435 0.417667
O O8 0.564375 0.661825 0.314448
O O9 0.273372 0.874384 0.392826
O O10 0.190763 0.828279 0.212692
O O11 0.219019 0.000000 0.250000
O O12 0.588495 0.044400 0.457942
O O13 0.732399 0.045139 0.080641
O O14 0.354210 0.000000 0.750000
O O15 0.389873 0.389873 0.125000
O O16 0.500000 0.308489 0.000000
#
# Coordination Sequence:
#
# PCOD9550604 Si02
#       8
#     8   4   8   8   4   8   8   8
#     4  11  24  43  68  96 135 185 234 287 367 419
#     4  12  24  48  74  96 150 200 232 294 374 442
#     4  11  23  46  69  93 140 190 228 292 368 431
#     4  10  22  42  70  97 136 184 228 279 355 426
#     4  12  26  46  66 104 146 178 244 302 356 448
#     4  10  23  42  67 102 135 179 230 284 353 423
#     4  12  26  45  71 109 142 188 245 298 365 436
#     4  12  25  46  66 102 139 180 248 307 357 439
#
# _framework density 20.804777999999999
#
# number of rings (size 3 to 8) (size 9 to 14) (size 15 to 20)
#    0.000    0.857    4.286    2.571    4.000    1.714 
#    3.857    2.143    0.000    0.000    0.000    0.000 
#    0.000    0.000    0.000    0.000    0.000    0.000 
#
# Total GULP energy -312231.111140 kJ/mol
# GULP energy per Si atom -5575.555556 kJ/mol
# Density = 2.075743 g / cm^3
# Si number density = 20.804778 Si / 1000 Ang^3
#
#
#
# Elastic Constant Matrix: (Units=GPa)
#
#
# Indices 1 2 3 4 5 6 
#
# 1 72.1003 25.2437 32.1531 0.0000 0.0000 0.0000
# 2 25.2437 72.1008 32.1530 0.0000 0.0000 0.0000
# 3 32.1531 32.1530 107.7204 0.0000 0.0000 0.0000
# 4 0.0000 0.0000 0.0000 22.5954 0.0000 0.0000
# 5 0.0000 0.0000 0.0000 0.0000 22.5949 0.0000
# 6 0.0000 0.0000 0.0000 0.0000 0.0000 9.0612
#
#
#
# Elastic Compliance Matrix: (Units=1/GPa)
#
#
# Indices 1 2 3 4 5 6 
#
# 1 0.017069 -0.004273 -0.003819 0.000000 0.000000 0.000000
# 2 -0.004273 0.017069 -0.003819 0.000000 0.000000 0.000000
# 3 -0.003819 -0.003819 0.011563 0.000000 0.000000 0.000000
# 4 0.000000 0.000000 0.000000 0.044257 0.000000 0.000000
# 5 0.000000 0.000000 0.000000 0.000000 0.044258 0.000000
# 6 0.000000 0.000000 0.000000 0.000000 0.000000 0.110361
#
#
# Mechanical properties :
#
#
# Convention : Reuss Voigt Hill
#
# Bulk Modulus (GPa) = 45.70882 47.89123 46.80003
# Shear Modulus (GPa) = 18.13619 21.67509 19.90564
#
# Velocity S-wave (km/s) = 2.95571 3.23124 3.09655
# Velocity P-wave (km/s) = 5.80227 6.08199 5.94378
#
# Compressibility (1/GPa) = 0.02187762
#
# Stress axis : x y z
#
# Youngs Moduli (GPa) = 58.58627 58.58678 86.47989
#
# Poissons Ratio (x) = 0.25033 0.33031
# Poissons Ratio (y) = 0.25033 0.33030
# Poissons Ratio (z) = 0.22377 0.22377
#
# Static dielectric constant tensor:
#      x y z
#    x 1.797950 0.000000 0.000000 
#    y 0.000000 1.797950 0.000000 
#    z 0.000000 0.000000 1.749860 
# 
# From -- ./inp_files/4041.got.cif
#   From: 2010.05.17/outbox.cif.g08.bks.cpg/sg95_3_cif.got.tgz:4041.got - 2010.06.03 19:46:49.
