data_PCOD9550516
_publ_section_title
;
Structure prediction by ZEFSAII (Michael W. Deem and Ramdas Pophale) SiO2 
 PCOD9550516
Probable space group: P 43 2 2
;
_chemical_formula_sum "Si O2"
_cell_formula_units_Z 56
_cell_length_a 11.548744
_cell_length_b 11.548744
_cell_length_c 20.792816
_cell_angle_alpha 90.000000
_cell_angle_beta 90.000000
_cell_angle_gamma 90.000000
_cell_volume 2773.210395
_symmetry_space_group_name_H-M "P 43 2 2"
_symmetry_group_IT_number 95
_symmetry_cell_setting 'tetragonal'
loop_
_space_group_symop_operation_xyz
x,y,z
-y,x,3/4+z
-x,-y,1/2+z
y,-x,1/4+z
x,-y,1/2-z
-x,y,-z
y,x,1/4-z
-y,-x,3/4-z
loop_
_atom_site_type_symbol
_atom_site_label
_atom_site_fract_x
_atom_site_fract_y
_atom_site_fract_z
Si Si1 0.709173 0.265303 0.547753
Si Si2 0.867797 0.316132 0.655999
Si Si3 0.510897 0.574295 0.310202
Si Si4 0.173900 0.523775 0.617033
Si Si5 0.530792 0.937328 0.684834
Si Si6 0.654735 0.727825 0.751004
Si Si7 0.130189 0.729426 0.832259
O O1 0.809940 0.239296 0.599188
O O2 0.682133 0.401506 0.557856
O O3 0.586669 0.213205 0.569062
O O4 0.736294 0.213008 0.479338
O O5 0.890450 0.438532 0.617927
O O6 0.775271 0.302740 0.714102
O O7 0.993935 0.279290 0.680537
O O8 0.549996 0.500000 0.250000
O O9 0.498982 0.501019 0.375000
O O10 0.383975 0.622781 0.293969
O O11 0.259843 0.563085 0.560312
O O12 0.163010 0.387829 0.628382
O O13 0.050932 0.580850 0.599093
O O14 0.625079 0.844445 0.709999
O O15 0.475840 0.000000 0.750000
O O16 0.160581 0.839420 0.875000
#
# Coordination Sequence:
#
# PCOD9550516 Si02
#       7
#     8   8   8   8   8   8   8
#     4  11  22  40  62  89 127 165 205 270 321 383
#     4  10  22  39  63  94 126 162 218 266 317 387
#     4  12  24  37  59  96 136 173 204 259 339 402
#     4   9  19  36  61  92 116 157 217 261 307 383
#     4   9  18  35  64  90 116 171 213 257 313 381
#     4  10  20  39  60  87 129 168 204 260 316 389
#     4  11  23  37  63  94 121 164 212 271 324 375
#
# _framework density 20.193201999999999
#
# number of rings (size 3 to 8) (size 9 to 14) (size 15 to 20)
#    0.000    1.714    1.429    3.857    4.000    1.143 
#    2.571    2.857   15.714    0.000    0.000    0.000 
#    0.000    0.000    0.000    0.000    0.000    0.000 
#
# Total GULP energy -311756.468494 kJ/mol
# GULP energy per Si atom -5567.079795 kJ/mol
# Density = 2.014724 g / cm^3
# Si number density = 20.193202 Si / 1000 Ang^3
#
#
#
# Elastic Constant Matrix: (Units=GPa)
#
#
# Indices 1 2 3 4 5 6 
#
# 1 30.2080 65.6216 27.9887 0.0000 0.0000 0.0000
# 2 65.6216 30.2057 27.9882 0.0000 0.0000 0.0000
# 3 27.9887 27.9882 88.0734 0.0000 0.0000 0.0000
# 4 0.0000 0.0000 0.0000 28.1880 0.0000 0.0000
# 5 0.0000 0.0000 0.0000 0.0000 28.1884 0.0000
# 6 0.0000 0.0000 0.0000 0.0000 0.0000 9.6984
#
#
#
# Elastic Compliance Matrix: (Units=1/GPa)
#
#
# Indices 1 2 3 4 5 6 
#
# 1 -0.007711 0.020525 -0.004072 0.000000 0.000000 0.000000
# 2 0.020525 -0.007712 -0.004072 0.000000 0.000000 0.000000
# 3 -0.004072 -0.004072 0.013942 0.000000 0.000000 0.000000
# 4 0.000000 0.000000 0.000000 0.035476 0.000000 0.000000
# 5 0.000000 0.000000 0.000000 0.000000 0.035476 0.000000
# 6 0.000000 0.000000 0.000000 0.000000 0.000000 0.103110
#
#
# Mechanical properties :
#
#
# Convention : Reuss Voigt Hill
#
# Bulk Modulus (GPa) = 42.95193 43.52045 43.23619
# Shear Modulus (GPa) = 32.13789 15.00752 23.57270
#
# Velocity S-wave (km/s) = 3.99371 2.72912 3.42037
# Velocity P-wave (km/s) = 6.52557 5.61512 6.08739
#
# Compressibility (1/GPa) = 0.02328184
#
# Stress axis : x y z
#
# Youngs Moduli (GPa) = -129.68405 -129.67190 71.72432
#
# Poissons Ratio (x) = 2.66157 0.29207
# Poissons Ratio (y) = 2.66182 0.29207
# Poissons Ratio (z) = -0.52809 -0.52803
#
# Static dielectric constant tensor:
#      x y z
#    x 1.768240 0.000000 0.000000 
#    y 0.000000 1.768240 0.000000 
#    z 0.000000 0.000000 1.789030 
# 
# From -- ./inp_files/6453.got.cif
#   From: 2010.05.17/outbox.cif.g08.bks.cpg/sg95_4_cif.got.tgz:6453.got - 2010.06.03 19:46:49.
