data_PCOD9550257
_publ_section_title
;
Structure prediction by ZEFSAII (Michael W. Deem and Ramdas Pophale) SiO2 
 PCOD9550257
Probable space group: P 42 21 2
;
_chemical_formula_sum "Si O2"
_cell_formula_units_Z 48
_cell_length_a 9.021212
_cell_length_b 9.021212
_cell_length_c 28.749832
_cell_angle_alpha 90.000000
_cell_angle_beta 90.000000
_cell_angle_gamma 90.000000
_cell_volume 2339.726474
_symmetry_space_group_name_H-M "P 42 21 2"
_symmetry_group_IT_number 94
_symmetry_cell_setting 'tetragonal'
loop_
_space_group_symop_operation_xyz
x,y,z
1/2-y,1/2+x,1/2+z
-x,-y,z
1/2+y,1/2-x,1/2+z
1/2+x,1/2-y,1/2-z
1/2-x,1/2+y,1/2-z
y,x,-z
-y,-x,-z
loop_
_atom_site_type_symbol
_atom_site_label
_atom_site_fract_x
_atom_site_fract_y
_atom_site_fract_z
Si Si1 0.145460 0.898631 0.384628
Si Si2 0.127777 0.877959 0.947555
Si Si3 0.284369 0.821577 0.193898
Si Si4 0.149987 0.921851 0.719512
Si Si5 0.119145 0.612555 0.119735
Si Si6 0.832603 0.450725 0.380753
O O1 0.157596 0.895741 0.328358
O O2 0.164440 0.723359 0.393930
O O3 0.273928 0.997270 0.406227
O O4 0.000000 0.000000 0.394294
O O5 0.266173 0.936008 0.917197
O O6 0.050346 0.746299 0.919374
O O7 0.166942 0.833059 0.000000
O O8 0.000000 0.000000 0.949359
O O9 0.452667 0.770175 0.205194
O O10 0.191857 0.805027 0.240955
O O11 0.213097 0.706199 0.157111
O O12 0.271545 0.984175 0.169061
O O13 0.000000 0.000000 0.736873
O O14 0.000000 0.500000 0.141502
O O15 0.000000 0.500000 0.378919
#
# Coordination Sequence:
#
# PCOD9550257 Si02
#       6
#     8   8   8   8   8   8
#     4  11  21  42  61  88 127 168 217 266 317 375
#     4  10  23  45  69 100 131 160 210 265 327 410
#     4  11  25  40  59  92 127 178 224 270 324 385
#     4  11  24  39  58  89 128 171 223 276 315 367
#     4  11  23  40  65  94 127 168 213 267 330 385
#     4  11  22  41  68  92 126 179 215 263 334 395
#
# _framework density 20.515218000000001
#
# number of rings (size 3 to 8) (size 9 to 14) (size 15 to 20)
#    0.000    1.167    5.000    2.000    4.667    3.333 
#    0.000    0.000    0.000    3.500    0.000    0.000 
#    0.000    0.000    0.000    0.000    0.000    0.000 
#
# Total GULP energy -267467.692423 kJ/mol
# GULP energy per Si atom -5572.243592 kJ/mol
# Density = 2.046852 g / cm^3
# Si number density = 20.515218 Si / 1000 Ang^3
#
#
#
# Elastic Constant Matrix: (Units=GPa)
#
#
# Indices 1 2 3 4 5 6 
#
# 1 88.0436 28.4572 14.8360 0.0000 0.0000 0.0000
# 2 28.4572 88.0437 14.8361 0.0000 0.0000 0.0000
# 3 14.8360 14.8361 62.2236 0.0000 0.0000 0.0000
# 4 0.0000 0.0000 0.0000 14.9843 0.0000 0.0000
# 5 0.0000 0.0000 0.0000 0.0000 14.9844 0.0000
# 6 0.0000 0.0000 0.0000 0.0000 0.0000 40.2196
#
#
#
# Elastic Compliance Matrix: (Units=1/GPa)
#
#
# Indices 1 2 3 4 5 6 
#
# 1 0.012960 -0.003822 -0.002179 0.000000 0.000000 0.000000
# 2 -0.003822 0.012960 -0.002179 0.000000 0.000000 0.000000
# 3 -0.002179 -0.002179 0.017110 0.000000 0.000000 0.000000
# 4 0.000000 0.000000 0.000000 0.066737 0.000000 0.000000
# 5 0.000000 0.000000 0.000000 0.000000 0.066736 0.000000
# 6 0.000000 0.000000 0.000000 0.000000 0.000000 0.024863
#
#
# Mechanical properties :
#
#
# Convention : Reuss Voigt Hill
#
# Bulk Modulus (GPa) = 37.49309 39.39663 38.44486
# Shear Modulus (GPa) = 22.06364 26.04976 24.05670
#
# Velocity S-wave (km/s) = 3.28300 3.56726 3.42808
# Velocity P-wave (km/s) = 5.71719 6.01768 5.86936
#
# Compressibility (1/GPa) = 0.02667158
#
# Stress axis : x y z
#
# Youngs Moduli (GPa) = 77.15765 77.15777 58.44497
#
# Poissons Ratio (x) = 0.29489 0.12735
# Poissons Ratio (y) = 0.29489 0.12735
# Poissons Ratio (z) = 0.16812 0.16812
#
# Static dielectric constant tensor:
#      x y z
#    x 1.810140 0.000000 0.000000 
#    y 0.000000 1.810140 0.000000 
#    z 0.000000 0.000000 1.712180 
# 
# From -- ./inp_files/5612.got.cif
#   From: 2010.05.17/outbox.cif.g08.bks.cpg/sg94_3_cif.got.tgz:5612.got - 2010.06.03 19:43:16.
