data_PCOD9550784
_publ_section_title
;
Structure prediction by ZEFSAII (Michael W. Deem and Ramdas Pophale) SiO2 
 PCOD9550784
Probable space group: P 43 21 2
;
_chemical_formula_sum "Si O2"
_cell_formula_units_Z 40
_cell_length_a 16.518100
_cell_length_b 16.518100
_cell_length_c 7.502329
_cell_angle_alpha 90.000000
_cell_angle_beta 90.000000
_cell_angle_gamma 90.000000
_cell_volume 2046.992669
_symmetry_space_group_name_H-M "P 43 21 2"
_symmetry_group_IT_number 96
_symmetry_cell_setting 'tetragonal'
loop_
_space_group_symop_operation_xyz
x,y,z
1/2-y,1/2+x,3/4+z
-x,-y,1/2+z
1/2+y,1/2-x,1/4+z
1/2+x,1/2-y,1/4-z
1/2-x,1/2+y,3/4-z
y,x,-z
-y,-x,1/2-z
loop_
_atom_site_type_symbol
_atom_site_label
_atom_site_fract_x
_atom_site_fract_y
_atom_site_fract_z
Si Si1 0.067526 0.696900 0.570903
Si Si2 0.334989 0.312427 0.713674
Si Si3 0.824964 0.789446 0.791910
Si Si4 0.572922 0.208962 0.467283
Si Si5 0.245101 0.000157 0.594941
O O1 0.120605 0.778767 0.555203
O O2 0.128100 0.625458 0.523994
O O3 0.036343 0.689099 0.771430
O O4 0.994293 0.703435 0.433359
O O5 0.329042 0.329042 0.500000
O O6 0.292872 0.224424 0.752905
O O7 0.425982 0.312667 0.787164
O O8 0.782542 0.863287 0.688298
O O9 0.922021 0.788552 0.795858
O O10 0.803190 0.803190 0.000000
O O11 0.532484 0.221468 0.658960
#
# Coordination Sequence:
#
# PCOD9550784 Si02
#       5
#     8   8   8   8   8
#     4  11  24  40  65  98 122 175 215 258 328 392
#     4  10  19  40  66  89 126 169 210 263 321 385
#     4   8  19  38  65  89 119 167 209 253 324 381
#     4  10  23  43  62  92 133 167 214 262 324 384
#     4  11  22  38  70  92 123 161 221 267 310 392
#
# _framework density 19.540859999999999
#
# number of rings (size 3 to 8) (size 9 to 14) (size 15 to 20)
#    0.000    2.000    2.000    1.800    2.800    0.800 
#    3.600    0.000   26.400    0.000    0.000    0.000 
#    0.000    0.000    0.000    0.000    0.000    0.000 
#
# Total GULP energy -223180.360650 kJ/mol
# GULP energy per Si atom -5579.509016 kJ/mol
# Density = 1.949638 g / cm^3
# Si number density = 19.540860 Si / 1000 Ang^3
#
#
#
# Elastic Constant Matrix: (Units=GPa)
#
#
# Indices 1 2 3 4 5 6 
#
# 1 119.2173 51.7482 33.8495 0.0000 0.0000 0.0000
# 2 51.7482 119.2173 33.8495 0.0000 0.0000 0.0000
# 3 33.8495 33.8495 87.2051 0.0000 0.0000 0.0000
# 4 0.0000 0.0000 0.0000 -56.2990 0.0000 0.0000
# 5 0.0000 0.0000 0.0000 0.0000 -56.2990 0.0000
# 6 0.0000 0.0000 0.0000 0.0000 0.0000 21.0843
#
#
#
# Elastic Compliance Matrix: (Units=1/GPa)
#
#
# Indices 1 2 3 4 5 6 
#
# 1 0.010867 -0.003955 -0.002683 0.000000 0.000000 0.000000
# 2 -0.003955 0.010867 -0.002683 0.000000 0.000000 0.000000
# 3 -0.002683 -0.002683 0.013550 0.000000 0.000000 0.000000
# 4 0.000000 0.000000 0.000000 -0.017762 0.000000 0.000000
# 5 0.000000 0.000000 0.000000 0.000000 -0.017762 0.000000
# 6 0.000000 0.000000 0.000000 0.000000 0.000000 0.047429
#
#
# Mechanical properties :
#
#
# Convention : Reuss Voigt Hill
#
# Bulk Modulus (GPa) = 60.08962 62.72599 61.40781
# Shear Modulus (GPa) = 70.05214 -4.55659 32.74777
#
# Velocity S-wave (km/s) = 5.99390 -1.52869 4.09817
# Velocity P-wave (km/s) = 8.87243 5.39015 7.34077
#
# Compressibility (1/GPa) = 0.01664181
#
# Stress axis : x y z
#
# Youngs Moduli (GPa) = 92.02567 92.02567 73.80135
#
# Poissons Ratio (x) = 0.36397 0.19799
# Poissons Ratio (y) = 0.36397 0.19799
# Poissons Ratio (z) = 0.24688 0.24688
#
# Static dielectric constant tensor:
#      x y z
#    x 1.693490 0.000000 0.000000 
#    y 0.000000 1.693490 0.000000 
#    z 0.000000 0.000000 1.701790 
# 
# From -- ./inp_files/1307.got.cif
#   From: 2010.05.17/outbox.cif.g08.bks.cpg/sg96_1_cif.got.tgz:1307.got - 2010.06.03 19:52:08.
