data_PCOD9550687
_publ_section_title
;
Structure prediction by ZEFSAII (Michael W. Deem and Ramdas Pophale) SiO2 
 PCOD9550687
Probable space group: P 43 2 2
;
_chemical_formula_sum "Si O2"
_cell_formula_units_Z 32
_cell_length_a 9.954948
_cell_length_b 9.954948
_cell_length_c 17.269779
_cell_angle_alpha 90.000000
_cell_angle_beta 90.000000
_cell_angle_gamma 90.000000
_cell_volume 1711.452191
_symmetry_space_group_name_H-M "P 43 2 2"
_symmetry_group_IT_number 95
_symmetry_cell_setting 'tetragonal'
loop_
_space_group_symop_operation_xyz
x,y,z
-y,x,3/4+z
-x,-y,1/2+z
y,-x,1/4+z
x,-y,1/2-z
-x,y,-z
y,x,1/4-z
-y,-x,3/4-z
loop_
_atom_site_type_symbol
_atom_site_label
_atom_site_fract_x
_atom_site_fract_y
_atom_site_fract_z
Si Si1 0.857263 0.899688 0.534443
Si Si2 0.629543 0.243419 0.698822
Si Si3 0.508917 0.268085 0.859056
Si Si4 0.977626 0.591324 0.320319
O O1 0.872669 0.872669 0.625000
O O2 0.808847 0.764284 0.492039
O O3 0.738710 0.006582 0.533093
O O4 0.000000 0.941572 0.500000
O O5 0.515694 0.259313 0.765327
O O6 0.670464 0.377776 0.651356
O O7 0.590264 0.127809 0.639180
O O8 0.630879 0.369122 0.875000
O O9 0.542726 0.123201 0.897077
O O10 0.933785 0.500000 0.250000
#
# Coordination Sequence:
#
# PCOD9550687 Si02
#       4
#     8   8   8   8
#     4  12  21  38  67  96 123 167 223 269 309 390
#     4  12  24  40  67  98 130 170 223 273 330 387
#     4  12  22  41  68  94 126 172 227 264 317 403
#     4  12  23  42  67  98 131 172 221 278 329 385
#
# _framework density 18.697571
#
# number of rings (size 3 to 8) (size 9 to 14) (size 15 to 20)
#    0.000    0.000   10.000    1.500    0.000    2.000 
#    0.000    5.000    0.000    0.000    0.000    0.000 
#    0.000    0.000    0.000    0.000    0.000    0.000 
#
# Total GULP energy -178740.582462 kJ/mol
# GULP energy per Si atom -5585.643202 kJ/mol
# Density = 1.865501 g / cm^3
# Si number density = 18.697571 Si / 1000 Ang^3
#
#
#
# Elastic Constant Matrix: (Units=GPa)
#
#
# Indices 1 2 3 4 5 6 
#
# 1 166.9557 -73.8319 56.8552 0.0000 0.0000 0.0000
# 2 -73.8319 166.9582 56.8505 0.0000 0.0000 0.0000
# 3 56.8552 56.8505 164.6779 0.0000 0.0000 0.0000
# 4 0.0000 0.0000 0.0000 37.7115 0.0000 0.0000
# 5 0.0000 0.0000 0.0000 0.0000 37.7115 0.0000
# 6 0.0000 0.0000 0.0000 0.0000 0.0000 15.6784
#
#
#
# Elastic Compliance Matrix: (Units=1/GPa)
#
#
# Indices 1 2 3 4 5 6 
#
# 1 0.011358 0.007205 -0.006409 0.000000 0.000000 0.000000
# 2 0.007205 0.011358 -0.006409 0.000000 0.000000 0.000000
# 3 -0.006409 -0.006409 0.010498 0.000000 0.000000 0.000000
# 4 0.000000 0.000000 0.000000 0.026517 0.000000 0.000000
# 5 0.000000 0.000000 0.000000 0.000000 0.026517 0.000000
# 6 0.000000 0.000000 0.000000 0.000000 0.000000 0.063782
#
#
# Mechanical properties :
#
#
# Convention : Reuss Voigt Hill
#
# Bulk Modulus (GPa) = 45.47687 64.25996 54.86841
# Shear Modulus (GPa) = 29.65869 48.80147 39.23008
#
# Velocity S-wave (km/s) = 3.98707 5.11440 4.58551
# Velocity P-wave (km/s) = 6.75062 8.32579 7.57924
#
# Compressibility (1/GPa) = 0.02198920
#
# Stress axis : x y z
#
# Youngs Moduli (GPa) = 88.04066 88.04406 95.26052
#
# Poissons Ratio (x) = -0.63437 0.61051
# Poissons Ratio (y) = -0.63435 0.61049
# Poissons Ratio (z) = 0.56424 0.56424
#
# Static dielectric constant tensor:
#      x y z
#    x 1.861880 0.000000 0.000000 
#    y 0.000000 1.861920 0.000000 
#    z 0.000000 0.000000 1.674690 
# 
# From -- ./inp_files/6050.got.cif
#   From: 2010.05.17/outbox.cif.g08.bks.cpg/sg95_4_cif.got.tgz:6050.got - 2010.06.03 19:46:49.
