data_PCOD9550178
_publ_section_title
;
Structure prediction by ZEFSAII (Michael W. Deem and Ramdas Pophale) SiO2 
 PCOD9550178
Probable space group: P 42 21 2
;
_chemical_formula_sum "Si O2"
_cell_formula_units_Z 34
_cell_length_a 7.926983
_cell_length_b 7.926983
_cell_length_c 25.224082
_cell_angle_alpha 90.000000
_cell_angle_beta 90.000000
_cell_angle_gamma 90.000000
_cell_volume 1585.007141
_symmetry_space_group_name_H-M "P 42 21 2"
_symmetry_group_IT_number 94
_symmetry_cell_setting 'tetragonal'
loop_
_space_group_symop_operation_xyz
x,y,z
1/2-y,1/2+x,1/2+z
-x,-y,z
1/2+y,1/2-x,1/2+z
1/2+x,1/2-y,1/2-z
1/2-x,1/2+y,1/2-z
y,x,-z
-y,-x,-z
loop_
_atom_site_type_symbol
_atom_site_label
_atom_site_fract_x
_atom_site_fract_y
_atom_site_fract_z
Si Si1 0.438934 0.182924 0.573534
Si Si2 0.381067 0.684557 0.673063
Si Si3 0.609117 0.835819 0.374153
Si Si4 0.500000 0.500000 0.500000
Si Si5 0.475200 0.312813 0.787742
O O1 0.536204 0.198660 0.629254
O O2 0.246318 0.245534 0.588325
O O3 0.499316 0.330623 0.534625
O O4 0.500000 0.000000 0.552517
O O5 0.316102 0.517125 0.642039
O O6 0.497525 0.679945 0.724961
O O7 0.209727 0.755765 0.697392
O O8 0.691213 0.899757 0.319429
O O9 0.500000 0.000000 0.394343
O O10 0.500000 0.500000 0.808963
#
# Coordination Sequence:
#
# PCOD9550178 Si02
#       5
#     8   8   8   2   8
#     4  12  25  47  77  99 131 185 235 298 365 428
#     4  11  21  38  62  96 142 186 228 282 353 422
#     4  10  22  40  66  99 146 188 230 293 355 434
#     4  12  28  52  76 104 140 188 244 318 376 424
#     4  11  21  33  59 101 144 185 230 277 344 436
#
# _framework density 21.451004999999999
#
# number of rings (size 3 to 8) (size 9 to 14) (size 15 to 20)
#    0.000    0.941    2.353    5.647    0.000    3.765 
#    0.000    0.000    0.000    0.000    0.000    0.000 
#    0.000    0.000    0.000    0.000    0.000    0.000 
#
# Total GULP energy -189738.386141 kJ/mol
# GULP energy per Si atom -5580.540769 kJ/mol
# Density = 2.140218 g / cm^3
# Si number density = 21.451005 Si / 1000 Ang^3
#
#
#
# Elastic Constant Matrix: (Units=GPa)
#
#
# Indices 1 2 3 4 5 6 
#
# 1 129.8518 38.7439 37.5807 0.0000 0.0000 0.0000
# 2 38.7439 129.8518 37.5807 0.0000 0.0000 0.0000
# 3 37.5807 37.5807 73.2456 0.0000 0.0000 0.0000
# 4 0.0000 0.0000 0.0000 21.8215 0.0000 0.0000
# 5 0.0000 0.0000 0.0000 0.0000 21.8215 0.0000
# 6 0.0000 0.0000 0.0000 0.0000 0.0000 32.9389
#
#
#
# Elastic Compliance Matrix: (Units=1/GPa)
#
#
# Indices 1 2 3 4 5 6 
#
# 1 0.009333 -0.001643 -0.003946 0.000000 0.000000 0.000000
# 2 -0.001643 0.009333 -0.003946 0.000000 0.000000 0.000000
# 3 -0.003946 -0.003946 0.017702 0.000000 0.000000 0.000000
# 4 0.000000 0.000000 0.000000 0.045826 0.000000 0.000000
# 5 0.000000 0.000000 0.000000 0.000000 0.045826 0.000000
# 6 0.000000 0.000000 0.000000 0.000000 0.000000 0.030359
#
#
# Mechanical properties :
#
#
# Convention : Reuss Voigt Hill
#
# Bulk Modulus (GPa) = 57.80551 62.30664 60.05607
# Shear Modulus (GPa) = 27.29030 29.91930 28.60480
#
# Velocity S-wave (km/s) = 3.57068 3.73872 3.65567
# Velocity P-wave (km/s) = 6.63369 6.90988 6.77319
#
# Compressibility (1/GPa) = 0.01729939
#
# Stress axis : x y z
#
# Youngs Moduli (GPa) = 107.14436 107.14436 56.49178
#
# Poissons Ratio (x) = 0.17602 0.22290
# Poissons Ratio (y) = 0.17602 0.22290
# Poissons Ratio (z) = 0.42277 0.42277
#
# Static dielectric constant tensor:
#      x y z
#    x 1.786700 0.000000 0.000000 
#    y 0.000000 1.786700 0.000000 
#    z 0.000000 0.000000 1.733240 
# 
# From -- ./inp_files/4520.got.cif
#   From: 2010.05.17/outbox.cif.g08.bks.cpg/sg94_3_cif.got.tgz:4520.got - 2010.06.03 19:43:16.
