data_PCOD9550441
_publ_section_title
;
Structure prediction by ZEFSAII (Michael W. Deem and Ramdas Pophale) SiO2 
 PCOD9550441
Probable space group: P 43 2 2
;
_chemical_formula_sum "Si O2"
_cell_formula_units_Z 40
_cell_length_a 11.582487
_cell_length_b 11.582487
_cell_length_c 16.988197
_cell_angle_alpha 90.000000
_cell_angle_beta 90.000000
_cell_angle_gamma 90.000000
_cell_volume 2279.034667
_symmetry_space_group_name_H-M "P 43 2 2"
_symmetry_group_IT_number 95
_symmetry_cell_setting 'tetragonal'
loop_
_space_group_symop_operation_xyz
x,y,z
-y,x,3/4+z
-x,-y,1/2+z
y,-x,1/4+z
x,-y,1/2-z
-x,y,-z
y,x,1/4-z
-y,-x,3/4-z
loop_
_atom_site_type_symbol
_atom_site_label
_atom_site_fract_x
_atom_site_fract_y
_atom_site_fract_z
Si Si1 0.698212 0.301789 0.375000
Si Si2 0.403508 0.000000 0.250000
Si Si3 0.378657 0.690125 0.457193
Si Si4 0.366137 0.131692 0.484374
Si Si5 0.545118 0.228902 0.673882
Si Si6 0.920440 0.743396 0.648258
O O1 0.800266 0.312528 0.309245
O O2 0.707196 0.424274 0.417860
O O3 0.475288 0.100582 0.291667
O O4 0.321574 0.050637 0.182639
O O5 0.500000 0.700703 0.500000
O O6 0.380020 0.619981 0.375000
O O7 0.293474 0.626587 0.516121
O O8 0.324555 0.813865 0.436960
O O9 0.500000 0.088656 0.500000
O O10 0.391361 0.216178 0.410257
O O11 0.280497 0.030930 0.454015
O O12 0.869988 0.869988 0.625000
#
# Coordination Sequence:
#
# PCOD9550441 Si02
#       6
#     4   4   8   8   8   8
#     4  10  22  38  58  88 126 158 198 234 308 360
#     4  10  18  38  62  88 108 156 208 242 298 338
#     4  11  23  35  55  91 123 152 192 248 305 362
#     4   9  20  37  60  84 119 162 196 245 293 366
#     4  10  21  36  61  86 118 159 198 241 298 360
#     4  10  19  37  61  85 113 152 205 251 290 349
#
# _framework density 17.551290999999999
#
# number of rings (size 3 to 8) (size 9 to 14) (size 15 to 20)
#    0.000    2.000    4.000    0.600    4.200    0.800 
#    0.000    0.000    2.200    0.000    0.000    0.000 
#    0.000    0.000    0.000    0.000    0.000    0.000 
#
# Total GULP energy -222769.240612 kJ/mol
# GULP energy per Si atom -5569.231015 kJ/mol
# Density = 1.751134 g / cm^3
# Si number density = 17.551291 Si / 1000 Ang^3
#
#
#
# Elastic Constant Matrix: (Units=GPa)
#
#
# Indices 1 2 3 4 5 6 
#
# 1 79.0027 56.9208 39.4582 0.0000 0.0000 0.0000
# 2 56.9208 79.0024 39.4590 0.0000 0.0000 0.0000
# 3 39.4582 39.4590 105.1871 0.0000 0.0000 0.0000
# 4 0.0000 0.0000 0.0000 4.6646 0.0000 0.0000
# 5 0.0000 0.0000 0.0000 0.0000 4.6641 0.0000
# 6 0.0000 0.0000 0.0000 0.0000 0.0000 27.5059
#
#
#
# Elastic Compliance Matrix: (Units=1/GPa)
#
#
# Indices 1 2 3 4 5 6 
#
# 1 0.027346 -0.017940 -0.003528 0.000000 0.000000 0.000000
# 2 -0.017940 0.027346 -0.003529 0.000000 0.000000 0.000000
# 3 -0.003528 -0.003529 0.012154 0.000000 0.000000 0.000000
# 4 0.000000 0.000000 0.000000 0.214380 0.000000 0.000000
# 5 0.000000 0.000000 0.000000 0.000000 0.214404 0.000000
# 6 0.000000 0.000000 0.000000 0.000000 0.000000 0.036356
#
#
# Mechanical properties :
#
#
# Convention : Reuss Voigt Hill
#
# Bulk Modulus (GPa) = 59.34007 59.42978 59.38493
# Shear Modulus (GPa) = 8.50924 15.85720 12.18322
#
# Velocity S-wave (km/s) = 2.20425 3.00905 2.63753
# Velocity P-wave (km/s) = 6.35305 6.78282 6.57145
#
# Compressibility (1/GPa) = 0.01685202
#
# Stress axis : x y z
#
# Youngs Moduli (GPa) = 36.56876 36.56824 82.27735
#
# Poissons Ratio (x) = 0.65605 0.29028
# Poissons Ratio (y) = 0.65605 0.29032
# Poissons Ratio (z) = 0.12902 0.12903
#
# Static dielectric constant tensor:
#      x y z
#    x 1.618770 0.000000 0.000000 
#    y 0.000000 1.618760 0.000000 
#    z 0.000000 0.000000 1.604950 
# 
# From -- ./inp_files/4866.got.cif
#   From: 2010.05.17/outbox.cif.g08.bks.cpg/sg95_3_cif.got.tgz:4866.got - 2010.06.03 19:46:49.
