data_PCOD9550574
_publ_section_title
;
Structure prediction by ZEFSAII (Michael W. Deem and Ramdas Pophale) SiO2 
 PCOD9550574
Probable space group: P 43 2 2
;
_chemical_formula_sum "Si O2"
_cell_formula_units_Z 36
_cell_length_a 11.819402
_cell_length_b 11.819402
_cell_length_c 11.606486
_cell_angle_alpha 90.000000
_cell_angle_beta 90.000000
_cell_angle_gamma 90.000000
_cell_volume 1621.405941
_symmetry_space_group_name_H-M "P 43 2 2"
_symmetry_group_IT_number 95
_symmetry_cell_setting 'tetragonal'
loop_
_space_group_symop_operation_xyz
x,y,z
-y,x,3/4+z
-x,-y,1/2+z
y,-x,1/4+z
x,-y,1/2-z
-x,y,-z
y,x,1/4-z
-y,-x,3/4-z
loop_
_atom_site_type_symbol
_atom_site_label
_atom_site_fract_x
_atom_site_fract_y
_atom_site_fract_z
Si Si1 0.596715 0.500000 0.250000
Si Si2 0.128247 0.599461 0.039277
Si Si3 0.705198 0.776028 0.965129
Si Si4 0.352955 0.800021 0.297115
Si Si5 0.628575 0.015897 0.983282
O O1 0.527435 0.527435 0.125000
O O2 0.685090 0.395693 0.234824
O O3 0.187134 0.708673 0.988878
O O4 0.204494 0.488294 0.026458
O O5 0.114464 0.628650 0.173190
O O6 0.000000 0.578007 0.000000
O O7 0.702909 0.797523 0.827216
O O8 0.698007 0.904351 0.008251
O O9 0.298403 0.701598 0.375000
O O10 0.342773 0.919613 0.365522
O O11 0.500000 0.971708 0.000000
#
# Coordination Sequence:
#
# PCOD9550574 Si02
#       5
#     4   8   8   8   8
#     4  12  30  48  70 112 152 198 238 308 386 456
#     4  11  25  41  68  98 140 191 232 291 361 443
#     4  12  24  43  73 100 140 184 241 298 359 442
#     4  11  22  42  69 106 135 181 240 297 364 434
#     4  10  21  42  69  98 135 183 235 290 358 437
#
# _framework density 22.202953000000001
#
# number of rings (size 3 to 8) (size 9 to 14) (size 15 to 20)
#    0.000    0.889    3.333    4.667    3.111    3.556 
#    0.000    0.000    4.889    0.000    0.000    0.000 
#    0.000    0.000    0.000    0.000    0.000    0.000 
#
# Total GULP energy -200653.715715 kJ/mol
# GULP energy per Si atom -5573.714325 kJ/mol
# Density = 2.215242 g / cm^3
# Si number density = 22.202953 Si / 1000 Ang^3
#
#
#
# Elastic Constant Matrix: (Units=GPa)
#
#
# Indices 1 2 3 4 5 6 
#
# 1 49.5466 59.3564 1.2829 0.0000 0.0000 0.0000
# 2 59.3564 49.5476 1.2829 0.0000 0.0000 0.0000
# 3 1.2829 1.2829 113.6574 0.0000 0.0000 0.0000
# 4 0.0000 0.0000 0.0000 21.1265 0.0000 0.0000
# 5 0.0000 0.0000 0.0000 0.0000 21.1263 0.0000
# 6 0.0000 0.0000 0.0000 0.0000 0.0000 29.5746
#
#
#
# Elastic Compliance Matrix: (Units=1/GPa)
#
#
# Indices 1 2 3 4 5 6 
#
# 1 -0.046380 0.055564 -0.000104 0.000000 0.000000 0.000000
# 2 0.055564 -0.046379 -0.000104 0.000000 0.000000 0.000000
# 3 -0.000104 -0.000104 0.008801 0.000000 0.000000 0.000000
# 4 0.000000 0.000000 0.000000 0.047334 0.000000 0.000000
# 5 0.000000 0.000000 0.000000 0.000000 0.047334 0.000000
# 6 0.000000 0.000000 0.000000 0.000000 0.000000 0.033813
#
#
# Mechanical properties :
#
#
# Convention : Reuss Voigt Hill
#
# Bulk Modulus (GPa) = 37.37511 37.39957 37.38734
# Shear Modulus (GPa) = -87.30300 24.42078 -31.44111
#
# Velocity S-wave (km/s) = -6.27740 3.32006 -3.76716
# Velocity P-wave (km/s) = 5.97253 5.61943 1.43058
#
# Compressibility (1/GPa) = 0.02675578
#
# Stress axis : x y z
#
# Youngs Moduli (GPa) = -21.56116 -21.56158 113.62715
#
# Poissons Ratio (x) = 1.19805 0.01178
# Poissons Ratio (y) = 1.19803 0.01178
# Poissons Ratio (z) = -0.00224 -0.00224
#
# Static dielectric constant tensor:
#      x y z
#    x 1.926580 0.000000 0.000000 
#    y 0.000000 1.926580 0.000000 
#    z 0.000000 0.000000 1.423470 
# 
# From -- ./inp_files/3528.got.cif
#   From: 2010.05.17/outbox.cif.g08.bks.cpg/sg95_2_cif.got.tgz:3528.got - 2010.06.03 19:46:49.
