data_PCOD9550427
_publ_section_title
;
Structure prediction by ZEFSAII (Michael W. Deem and Ramdas Pophale) SiO2 
 PCOD9550427
Probable space group: P 43 2 2
;
_chemical_formula_sum "Si O2"
_cell_formula_units_Z 44
_cell_length_a 10.780590
_cell_length_b 10.780590
_cell_length_c 17.741640
_cell_angle_alpha 90.000000
_cell_angle_beta 90.000000
_cell_angle_gamma 90.000000
_cell_volume 2061.953285
_symmetry_space_group_name_H-M "P 43 2 2"
_symmetry_group_IT_number 95
_symmetry_cell_setting 'tetragonal'
loop_
_space_group_symop_operation_xyz
x,y,z
-y,x,3/4+z
-x,-y,1/2+z
y,-x,1/4+z
x,-y,1/2-z
-x,y,-z
y,x,1/4-z
-y,-x,3/4-z
loop_
_atom_site_type_symbol
_atom_site_label
_atom_site_fract_x
_atom_site_fract_y
_atom_site_fract_z
Si Si1 0.456678 0.138882 0.395594
Si Si2 0.076041 0.076041 0.125000
Si Si3 0.818657 0.062080 0.039469
Si Si4 0.148041 0.450828 0.495211
Si Si5 0.710484 0.203512 0.475148
Si Si6 0.455099 0.141734 0.921637
O O1 0.443337 0.163946 0.307453
O O2 0.583493 0.200900 0.426837
O O3 0.339873 0.184167 0.440864
O O4 0.478407 0.993848 0.415265
O O5 0.093718 0.158628 0.200652
O O6 0.937420 0.092405 0.090793
O O7 0.691651 0.120128 0.069789
O O8 0.795119 0.913784 0.044583
O O9 0.215394 0.329382 0.525600
O O10 0.194469 0.480041 0.411455
O O11 0.000000 0.424618 0.500000
O O12 0.500000 0.201093 0.000000
#
# Coordination Sequence:
#
# PCOD9550427 Si02
#       6
#     8   4   8   8   8   8
#     4   9  18  34  52  79 109 133 178 228 282 319
#     4  10  22  32  48  78 114 150 176 220 282 332
#     4  10  20  33  48  72 113 149 182 217 267 333
#     4  10  21  30  55  86 105 139 186 225 281 331
#     4  10  18  32  54  80 110 139 175 236 277 314
#     4  10  18  36  50  71 105 146 180 226 259 316
#
# _framework density 21.338991
#
# number of rings (size 3 to 8) (size 9 to 14) (size 15 to 20)
#    0.000    2.182    3.636    1.636   10.182    0.000 
#    0.000    5.455    0.000    0.000   14.182    0.000 
#    0.000    0.000    0.000    0.000    0.000    0.000 
#
# Total GULP energy -245558.103639 kJ/mol
# GULP energy per Si atom -5580.865992 kJ/mol
# Density = 2.129042 g / cm^3
# Si number density = 21.338991 Si / 1000 Ang^3
#
#
#
# Elastic Constant Matrix: (Units=GPa)
#
#
# Indices 1 2 3 4 5 6 
#
# 1 19.3480 0.8173 7.6001 0.0000 0.0000 0.0000
# 2 0.8173 19.3480 7.6001 0.0000 0.0000 0.0000
# 3 7.6001 7.6001 139.2840 0.0000 0.0000 0.0000
# 4 0.0000 0.0000 0.0000 18.3336 0.0000 0.0000
# 5 0.0000 0.0000 0.0000 0.0000 18.3336 0.0000
# 6 0.0000 0.0000 0.0000 0.0000 0.0000 -1.5396
#
#
#
# Elastic Compliance Matrix: (Units=1/GPa)
#
#
# Indices 1 2 3 4 5 6 
#
# 1 0.052841 -0.001124 -0.002822 0.000000 0.000000 0.000000
# 2 -0.001124 0.052841 -0.002822 0.000000 0.000000 0.000000
# 3 -0.002822 -0.002822 0.007488 0.000000 0.000000 0.000000
# 4 0.000000 0.000000 0.000000 0.054545 0.000000 0.000000
# 5 0.000000 0.000000 0.000000 0.000000 0.054545 0.000000
# 6 0.000000 0.000000 0.000000 0.000000 0.000000 -0.649517
#
#
# Mechanical properties :
#
#
# Convention : Reuss Voigt Hill
#
# Bulk Modulus (GPa) = 10.03673 23.33501 16.68587
# Shear Modulus (GPa) = -13.14018 17.82303 2.34142
#
# Velocity S-wave (km/s) = -2.48419 2.89317 1.04863
# Velocity P-wave (km/s) = 1.87472 4.70316 3.05001
#
# Compressibility (1/GPa) = 0.09963403
#
# Stress axis : x y z
#
# Youngs Moduli (GPa) = 18.92474 18.92474 133.55513
#
# Poissons Ratio (x) = 0.02127 0.37689
# Poissons Ratio (y) = 0.02127 0.37689
# Poissons Ratio (z) = 0.05341 0.05341
#
# Static dielectric constant tensor:
#      x y z
#    x 1.741440 0.000000 0.000000 
#    y 0.000000 1.741440 0.000000 
#    z 0.000000 0.000000 1.886590 
# 
# From -- ./inp_files/5534.got.cif
#   From: 2010.05.17/outbox.cif.g08.bks.cpg/sg95_3_cif.got.tgz:5534.got - 2010.06.03 19:46:49.
