data_PCOD9550092
_publ_section_title
;
Structure prediction by ZEFSAII (Michael W. Deem and Ramdas Pophale) SiO2 
 PCOD9550092
Probable space group: P 42 21 2
;
_chemical_formula_sum "Si O2"
_cell_formula_units_Z 56
_cell_length_a 14.976320
_cell_length_b 14.976320
_cell_length_c 13.835214
_cell_angle_alpha 90.000000
_cell_angle_beta 90.000000
_cell_angle_gamma 90.000000
_cell_volume 3103.102372
_symmetry_space_group_name_H-M "P 42 21 2"
_symmetry_group_IT_number 94
_symmetry_cell_setting 'tetragonal'
loop_
_space_group_symop_operation_xyz
x,y,z
1/2-y,1/2+x,1/2+z
-x,-y,z
1/2+y,1/2-x,1/2+z
1/2+x,1/2-y,1/2-z
1/2-x,1/2+y,1/2-z
y,x,-z
-y,-x,-z
loop_
_atom_site_type_symbol
_atom_site_label
_atom_site_fract_x
_atom_site_fract_y
_atom_site_fract_z
Si Si1 0.900076 0.203021 0.573944
Si Si2 0.885470 0.346063 0.873233
Si Si3 0.372013 0.930447 0.915248
Si Si4 0.853049 0.180816 0.110561
Si Si5 0.301634 0.572841 0.937226
Si Si6 0.931372 0.387403 0.663378
Si Si7 0.037064 0.903344 0.278490
O O1 0.821661 0.178340 0.500000
O O2 0.888036 0.296986 0.624836
O O3 0.909289 0.123400 0.651230
O O4 0.989313 0.205176 0.509487
O O5 0.854708 0.243739 0.856110
O O6 0.794121 0.396858 0.899513
O O7 0.934503 0.382054 0.778921
O O8 0.943106 0.360634 0.969796
O O9 0.288673 0.865857 0.889542
O O10 0.469454 0.894046 0.883534
O O11 0.372700 0.027122 0.865668
O O12 0.929236 0.145409 0.182150
O O13 0.855099 0.144902 0.000000
O O14 0.356049 0.538456 0.843976
O O15 0.350553 0.649448 0.000000
O O16 0.000000 0.000000 0.253428
#
# Coordination Sequence:
#
# PCOD9550092 Si02
#       7
#     8   8   8   8   8   8   8
#     4  10  21  37  60  92 125 149 189 253 309 353
#     4  11  22  39  62  88 120 159 200 252 296 361
#     4  10  23  40  61  85 118 160 205 243 292 365
#     4  10  22  41  61  86 122 162 202 247 295 358
#     4  11  20  35  63  91 118 153 200 246 304 357
#     4  11  22  41  61  87 122 156 202 250 304 358
#     4  11  21  36  62  93 121 153 198 250 302 357
#
# _framework density 18.046455999999999
#
# number of rings (size 3 to 8) (size 9 to 14) (size 15 to 20)
#    0.000    1.429    4.286    2.143    0.000    2.571 
#    5.143    0.000    9.429    0.000    0.000    0.000 
#    0.000    0.000    0.000    0.000    0.000    0.000 
#
# Total GULP energy -312313.636806 kJ/mol
# GULP energy per Si atom -5577.029229 kJ/mol
# Density = 1.800538 g / cm^3
# Si number density = 18.046456 Si / 1000 Ang^3
#
#
#
# Elastic Constant Matrix: (Units=GPa)
#
#
# Indices 1 2 3 4 5 6 
#
# 1 48.5268 3.5726 25.7570 0.0000 0.0000 0.0000
# 2 3.5726 48.5210 25.7548 0.0000 0.0000 0.0000
# 3 25.7570 25.7548 102.8360 0.0000 0.0000 0.0000
# 4 0.0000 0.0000 0.0000 26.9532 0.0000 0.0000
# 5 0.0000 0.0000 0.0000 0.0000 26.9539 0.0000
# 6 0.0000 0.0000 0.0000 0.0000 0.0000 20.0661
#
#
#
# Elastic Compliance Matrix: (Units=1/GPa)
#
#
# Indices 1 2 3 4 5 6 
#
# 1 0.023879 0.001634 -0.006390 0.000000 0.000000 0.000000
# 2 0.001634 0.023881 -0.006390 0.000000 0.000000 0.000000
# 3 -0.006390 -0.006390 0.012925 0.000000 0.000000 0.000000
# 4 0.000000 0.000000 0.000000 0.037101 0.000000 0.000000
# 5 0.000000 0.000000 0.000000 0.000000 0.037100 0.000000
# 6 0.000000 0.000000 0.000000 0.000000 0.000000 0.049835
#
#
# Mechanical properties :
#
#
# Convention : Reuss Voigt Hill
#
# Bulk Modulus (GPa) = 26.04710 34.45026 30.24868
# Shear Modulus (GPa) = 22.74671 24.44793 23.59732
#
# Velocity S-wave (km/s) = 3.55414 3.68465 3.61998
# Velocity P-wave (km/s) = 5.59529 6.10192 5.85408
#
# Compressibility (1/GPa) = 0.03839198
#
# Stress axis : x y z
#
# Youngs Moduli (GPa) = 41.87860 41.87394 77.36923
#
# Poissons Ratio (x) = -0.06840 0.49438
# Poissons Ratio (y) = -0.06841 0.49440
# Poissons Ratio (z) = 0.26760 0.26758
#
# Static dielectric constant tensor:
#      x y z
#    x 1.615190 0.000000 0.000000 
#    y 0.000000 1.615190 0.000000 
#    z 0.000000 0.000000 1.634310 
# 
# From -- ./inp_files/2727.got.cif
#   From: 2010.05.17/outbox.cif.g08.bks.cpg/sg94_2_cif.got.tgz:2727.got - 2010.06.03 19:43:16.
