data_PCOD9550039
_publ_section_title
;
Structure prediction by ZEFSAII (Michael W. Deem and Ramdas Pophale) SiO2 
 PCOD9550039
Probable space group: P 42 21 2
;
_chemical_formula_sum "Si O2"
_cell_formula_units_Z 54
_cell_length_a 11.179606
_cell_length_b 11.179606
_cell_length_c 22.501266
_cell_angle_alpha 90.000000
_cell_angle_beta 90.000000
_cell_angle_gamma 90.000000
_cell_volume 2812.289011
_symmetry_space_group_name_H-M "P 42 21 2"
_symmetry_group_IT_number 94
_symmetry_cell_setting 'tetragonal'
loop_
_space_group_symop_operation_xyz
x,y,z
1/2-y,1/2+x,1/2+z
-x,-y,z
1/2+y,1/2-x,1/2+z
1/2+x,1/2-y,1/2-z
1/2-x,1/2+y,1/2-z
y,x,-z
-y,-x,-z
loop_
_atom_site_type_symbol
_atom_site_label
_atom_site_fract_x
_atom_site_fract_y
_atom_site_fract_z
Si Si1 0.175467 0.363449 0.161529
Si Si2 0.339783 0.856872 0.655956
Si Si3 0.432264 0.745169 0.927129
Si Si4 0.995353 0.355408 0.065856
Si Si5 0.500000 0.000000 0.748600
Si Si6 0.012844 0.744447 0.940158
Si Si7 0.438668 0.764062 0.064386
Si Si8 0.000000 0.000000 0.000000
O O1 0.272607 0.266002 0.179941
O O2 0.238682 0.464926 0.121045
O O3 0.079543 0.304169 0.116424
O O4 0.095946 0.428562 0.211206
O O5 0.432557 0.779435 0.617039
O O6 0.408516 0.927230 0.707374
O O7 0.292408 0.954830 0.608780
O O8 0.360827 0.623433 0.920290
O O9 0.336457 0.854939 0.922684
O O10 0.477390 0.756059 0.995224
O O11 0.000000 0.500000 0.068876
O O12 0.036466 0.313356 0.001591
O O13 0.133674 0.664939 0.932032
O O14 0.014123 0.883660 0.957670
#
# Coordination Sequence:
#
# PCOD9550039 Si02
#       8
#     8   8   8   8   4   8   8   2
#     4  11  23  42  66  91 117 169 222 266 323 384
#     4  12  25  42  68  90 123 169 218 269 325 389
#     4   9  18  35  65  99 133 167 201 254 317 398
#     4   9  16  34  65  93 127 167 201 247 317 396
#     4  12  26  50  60  90 124 172 228 278 324 370
#     4  11  20  38  59  99 138 163 201 253 330 390
#     4  10  20  37  64  98 136 169 199 257 334 387
#     4  12  24  32  60 104 140 168 204 256 320 414
#
# _framework density 19.201440999999999
#
# number of rings (size 3 to 8) (size 9 to 14) (size 15 to 20)
#    0.000    1.481    3.704    5.333    0.000    3.556 
#    0.000    1.481    0.000    0.000    0.000    0.000 
#    0.000    0.000    0.000    0.000    0.000    0.000 
#
# Total GULP energy -301256.869325 kJ/mol
# GULP energy per Si atom -5578.830913 kJ/mol
# Density = 1.915774 g / cm^3
# Si number density = 19.201441 Si / 1000 Ang^3
#
#
#
# Elastic Constant Matrix: (Units=GPa)
#
#
# Indices 1 2 3 4 5 6 
#
# 1 89.6908 48.8153 55.2970 0.0000 0.0000 0.0000
# 2 48.8153 89.6908 55.2970 0.0000 0.0000 0.0000
# 3 55.2970 55.2970 108.0039 0.0000 0.0000 0.0000
# 4 0.0000 0.0000 0.0000 0.3243 0.0000 0.0000
# 5 0.0000 0.0000 0.0000 0.0000 0.3243 0.0000
# 6 0.0000 0.0000 0.0000 0.0000 0.0000 42.2782
#
#
#
# Elastic Compliance Matrix: (Units=1/GPa)
#
#
# Indices 1 2 3 4 5 6 
#
# 1 0.018339 -0.006126 -0.006253 0.000000 0.000000 0.000000
# 2 -0.006126 0.018339 -0.006253 0.000000 0.000000 0.000000
# 3 -0.006253 -0.006253 0.015662 0.000000 0.000000 0.000000
# 4 0.000000 0.000000 0.000000 3.083347 0.000000 0.000000
# 5 0.000000 0.000000 0.000000 0.000000 3.083347 0.000000
# 6 0.000000 0.000000 0.000000 0.000000 0.000000 0.023653
#
#
# Mechanical properties :
#
#
# Convention : Reuss Voigt Hill
#
# Bulk Modulus (GPa) = 66.33131 67.35600 66.84365
# Shear Modulus (GPa) = 0.79555 17.11713 8.95634
#
# Velocity S-wave (km/s) = 0.64437 2.98896 2.16207
# Velocity P-wave (km/s) = 5.93073 6.86051 6.41249
#
# Compressibility (1/GPa) = 0.01507584
#
# Stress axis : x y z
#
# Youngs Moduli (GPa) = 54.52994 54.52994 63.85059
#
# Poissons Ratio (x) = 0.33405 0.39924
# Poissons Ratio (y) = 0.33405 0.39924
# Poissons Ratio (z) = 0.34096 0.34096
#
# Static dielectric constant tensor:
#      x y z
#    x 1.727600 0.000000 0.000000 
#    y 0.000000 1.727600 0.000000 
#    z 0.000000 0.000000 1.639180 
# 
# From -- ./inp_files/4774.got.cif
#   From: 2010.05.17/outbox.cif.g08.bks.cpg/sg94_3_cif.got.tgz:4774.got - 2010.06.03 19:43:16.
