data_PCOD9550697
_publ_section_title
;
Structure prediction by ZEFSAII (Michael W. Deem and Ramdas Pophale) SiO2 
 PCOD9550697
Probable space group: P 43 2 2
;
_chemical_formula_sum "Si O2"
_cell_formula_units_Z 20
_cell_length_a 8.056358
_cell_length_b 8.056358
_cell_length_c 10.959224
_cell_angle_alpha 90.000000
_cell_angle_beta 90.000000
_cell_angle_gamma 90.000000
_cell_volume 711.307384
_symmetry_space_group_name_H-M "P 43 2 2"
_symmetry_group_IT_number 95
_symmetry_cell_setting 'tetragonal'
loop_
_space_group_symop_operation_xyz
x,y,z
-y,x,3/4+z
-x,-y,1/2+z
y,-x,1/4+z
x,-y,1/2-z
-x,y,-z
y,x,1/4-z
-y,-x,3/4-z
loop_
_atom_site_type_symbol
_atom_site_label
_atom_site_fract_x
_atom_site_fract_y
_atom_site_fract_z
Si Si1 0.500000 0.995276 0.500000
Si Si2 0.411664 0.232206 0.722409
Si Si3 0.775497 0.195291 0.717216
O O1 0.673960 0.903879 0.522679
O O2 0.446243 0.082310 0.626819
O O3 0.374873 0.374873 0.625000
O O4 0.596395 0.250602 0.767439
O O5 0.263555 0.224645 0.822577
O O6 0.813271 0.000000 0.750000
#
# Coordination Sequence:
#
# PCOD9550697 Si02
#       3
#     4   8   8
#     4  12  28  56  94 144 200 268 344 424 526 620
#     4  12  27  57  85 137 198 253 340 420 513 625
#     4  12  29  55  94 140 194 268 338 424 523 620
#
# _framework density 28.117239999999999
#
# number of rings (size 3 to 8) (size 9 to 14) (size 15 to 20)
#    0.000    0.000    4.000    3.600    5.600    4.800 
#    7.200    4.000    0.000    0.000    0.000    0.000 
#    0.000    0.000    0.000    0.000    0.000    0.000 
#
# Total GULP energy -111421.964453 kJ/mol
# GULP energy per Si atom -5571.098223 kJ/mol
# Density = 2.805324 g / cm^3
# Si number density = 28.117240 Si / 1000 Ang^3
#
#
#
# Elastic Constant Matrix: (Units=GPa)
#
#
# Indices 1 2 3 4 5 6 
#
# 1 202.7001 118.3588 77.4110 0.0000 0.0000 0.0000
# 2 118.3588 202.7001 77.4110 0.0000 0.0000 0.0000
# 3 77.4110 77.4110 272.8648 0.0000 0.0000 0.0000
# 4 0.0000 0.0000 0.0000 54.5994 0.0000 0.0000
# 5 0.0000 0.0000 0.0000 0.0000 54.5994 0.0000
# 6 0.0000 0.0000 0.0000 0.0000 0.0000 57.5437
#
#
#
# Elastic Compliance Matrix: (Units=1/GPa)
#
#
# Indices 1 2 3 4 5 6 
#
# 1 0.007732 -0.004124 -0.001024 0.000000 0.000000 0.000000
# 2 -0.004124 0.007732 -0.001024 0.000000 0.000000 0.000000
# 3 -0.001024 -0.001024 0.004246 0.000000 0.000000 0.000000
# 4 0.000000 0.000000 0.000000 0.018315 0.000000 0.000000
# 5 0.000000 0.000000 0.000000 0.000000 0.018315 0.000000
# 6 0.000000 0.000000 0.000000 0.000000 0.000000 0.017378
#
#
# Mechanical properties :
#
#
# Convention : Reuss Voigt Hill
#
# Bulk Modulus (GPa) = 135.72912 136.06960 135.89936
# Shear Modulus (GPa) = 56.48576 60.35414 58.41995
#
# Velocity S-wave (km/s) = 4.48698 4.63808 4.56315
# Velocity P-wave (km/s) = 8.67302 8.78528 8.72933
#
# Compressibility (1/GPa) = 0.00736762
#
# Stress axis : x y z
#
# Youngs Moduli (GPa) = 129.32500 129.32500 235.53545
#
# Poissons Ratio (x) = 0.53335 0.24111
# Poissons Ratio (y) = 0.53335 0.24111
# Poissons Ratio (z) = 0.13239 0.13239
#
# Static dielectric constant tensor:
#      x y z
#    x 2.398730 0.000000 0.000000 
#    y 0.000000 2.398730 0.000000 
#    z 0.000000 0.000000 2.471110 
# 
# From -- ./inp_files/1733.got.cif
#   From: 2010.05.17/outbox.cif.g08.bks.cpg/sg95_1_cif.got.tgz:1733.got - 2010.06.03 19:46:49.
