data_PCOD9550797
_publ_section_title
;
Structure prediction by ZEFSAII (Michael W. Deem and Ramdas Pophale) SiO2 
 PCOD9550797
Probable space group: P 43 21 2
;
_chemical_formula_sum "Si O2"
_cell_formula_units_Z 40
_cell_length_a 14.733409
_cell_length_b 14.733409
_cell_length_c 7.363888
_cell_angle_alpha 90.000000
_cell_angle_beta 90.000000
_cell_angle_gamma 90.000000
_cell_volume 1598.503769
_symmetry_space_group_name_H-M "P 43 21 2"
_symmetry_group_IT_number 96
_symmetry_cell_setting 'tetragonal'
loop_
_space_group_symop_operation_xyz
x,y,z
1/2-y,1/2+x,3/4+z
-x,-y,1/2+z
1/2+y,1/2-x,1/4+z
1/2+x,1/2-y,1/4-z
1/2-x,1/2+y,3/4-z
y,x,-z
-y,-x,1/2-z
loop_
_atom_site_type_symbol
_atom_site_label
_atom_site_fract_x
_atom_site_fract_y
_atom_site_fract_z
Si Si1 0.234042 0.480923 0.753580
Si Si2 0.370383 0.333022 0.713118
Si Si3 0.068397 0.403554 0.554605
Si Si4 0.164842 0.248571 0.186715
Si Si5 0.566280 0.296230 0.634334
O O1 0.311035 0.409729 0.814395
O O2 0.140640 0.429936 0.711219
O O3 0.220027 0.564642 0.884646
O O4 0.266222 0.522308 0.560688
O O5 0.347381 0.347381 0.500000
O O6 0.328044 0.234950 0.758881
O O7 0.479126 0.342836 0.729566
O O8 0.082988 0.469202 0.386728
O O9 0.085794 0.298933 0.518484
O O10 0.158968 0.160719 0.321131
O O11 0.207721 0.207721 0.000000
#
# Coordination Sequence:
#
# PCOD9550797 Si02
#       5
#     8   8   8   8   8
#     4   9  19  36  60  90 125 164 208 257 319 377
#     4  10  20  38  63  93 127 167 209 263 318 380
#     4  10  20  34  54  92 126 158 202 262 316 382
#     4  10  20  38  63  93 127 167 209 263 318 380
#     4   9  19  36  60  90 125 164 208 257 319 377
#
# _framework density 25.023399999999999
#
# number of rings (size 3 to 8) (size 9 to 14) (size 15 to 20)
#    0.000    2.400    2.000    0.000    2.800    0.000 
#    0.000    2.000    0.000   21.600    0.000    0.000 
#    0.000    0.000    0.000    0.000    0.000    0.000 
#
# Total GULP energy -224003.976891 kJ/mol
# GULP energy per Si atom -5600.099422 kJ/mol
# Density = 2.496645 g / cm^3
# Si number density = 25.023400 Si / 1000 Ang^3
#
#
#
# Elastic Constant Matrix: (Units=GPa)
#
#
# Indices 1 2 3 4 5 6 
#
# 1 156.8318 76.8654 23.3119 0.0000 0.0000 0.0000
# 2 76.8654 156.8318 23.3119 0.0000 0.0000 0.0000
# 3 23.3119 23.3119 57.2448 0.0000 0.0000 0.0000
# 4 0.0000 0.0000 0.0000 32.0486 0.0000 0.0000
# 5 0.0000 0.0000 0.0000 0.0000 32.0486 0.0000
# 6 0.0000 0.0000 0.0000 0.0000 0.0000 35.8458
#
#
#
# Elastic Compliance Matrix: (Units=1/GPa)
#
#
# Indices 1 2 3 4 5 6 
#
# 1 0.008581 -0.003924 -0.001897 0.000000 0.000000 0.000000
# 2 -0.003924 0.008581 -0.001897 0.000000 0.000000 0.000000
# 3 -0.001897 -0.001897 0.019014 0.000000 0.000000 0.000000
# 4 0.000000 0.000000 0.000000 0.031203 0.000000 0.000000
# 5 0.000000 0.000000 0.000000 0.000000 0.031203 0.000000
# 6 0.000000 0.000000 0.000000 0.000000 0.000000 0.027897
#
#
# Mechanical properties :
#
#
# Convention : Reuss Voigt Hill
#
# Bulk Modulus (GPa) = 48.21177 68.65412 58.43294
# Shear Modulus (GPa) = 33.59603 36.48322 35.03963
#
# Velocity S-wave (km/s) = 3.66810 3.82247 3.74608
# Velocity P-wave (km/s) = 6.10315 6.85400 6.48944
#
# Compressibility (1/GPa) = 0.02074182
#
# Stress axis : x y z
#
# Youngs Moduli (GPa) = 116.53182 116.53182 52.59398
#
# Poissons Ratio (x) = 0.45726 0.09975
# Poissons Ratio (y) = 0.45726 0.09975
# Poissons Ratio (z) = 0.22102 0.22102
#
# Static dielectric constant tensor:
#      x y z
#    x 1.967890 0.000000 0.000000 
#    y 0.000000 1.967890 0.000000 
#    z 0.000000 0.000000 2.116090 
# 
# From -- ./inp_files/1333.got.cif
#   From: 2010.05.17/outbox.cif.g08.bks.cpg/sg96_1_cif.got.tgz:1333.got - 2010.06.03 19:52:08.
