data_PCOD9550300
_publ_section_title
;
Structure prediction by ZEFSAII (Michael W. Deem and Ramdas Pophale) SiO2 
 PCOD9550300
Probable space group: P 42 21 2
;
_chemical_formula_sum "Si O2"
_cell_formula_units_Z 24
_cell_length_a 9.243477
_cell_length_b 9.243477
_cell_length_c 12.938948
_cell_angle_alpha 90.000000
_cell_angle_beta 90.000000
_cell_angle_gamma 90.000000
_cell_volume 1105.527875
_symmetry_space_group_name_H-M "P 42 21 2"
_symmetry_group_IT_number 94
_symmetry_cell_setting 'tetragonal'
loop_
_space_group_symop_operation_xyz
x,y,z
1/2-y,1/2+x,1/2+z
-x,-y,z
1/2+y,1/2-x,1/2+z
1/2+x,1/2-y,1/2-z
1/2-x,1/2+y,1/2-z
y,x,-z
-y,-x,-z
loop_
_atom_site_type_symbol
_atom_site_label
_atom_site_fract_x
_atom_site_fract_y
_atom_site_fract_z
Si Si1 0.568565 0.341024 0.739356
Si Si2 0.990594 0.232936 0.979142
Si Si3 0.394147 0.117941 0.829084
O O1 0.500000 0.500000 0.727585
O O2 0.513364 0.245032 0.641923
O O3 0.491481 0.262274 0.835227
O O4 0.741988 0.352208 0.729961
O O5 0.102516 0.102516 0.000000
O O6 0.046418 0.348453 0.061339
O O7 0.831205 0.168796 0.000000
O O8 0.500000 0.000000 0.779734
#
# Coordination Sequence:
#
# PCOD9550300 Si02
#       3
#     8   8   8
#     4  11  21  40  67  96 141 185 235 305 364 439
#     4   9  17  38  65  89 129 185 230 285 363 432
#     4  11  23  38  67  99 132 185 244 289 365 440
#
# _framework density 21.709085999999999
#
# number of rings (size 3 to 8) (size 9 to 14) (size 15 to 20)
#    0.000    1.667    6.667    2.000    0.000    1.333 
#    0.000    3.333    0.000    0.000    0.000    0.000 
#    0.000    0.000    0.000    0.000    0.000    0.000 
#
# Total GULP energy -133637.041038 kJ/mol
# GULP energy per Si atom -5568.210043 kJ/mol
# Density = 2.165967 g / cm^3
# Si number density = 21.709086 Si / 1000 Ang^3
#
#
#
# Elastic Constant Matrix: (Units=GPa)
#
#
# Indices 1 2 3 4 5 6 
#
# 1 145.8384 69.0624 43.6514 0.0000 0.0000 0.0000
# 2 69.0624 145.8380 43.6514 0.0000 0.0000 0.0000
# 3 43.6514 43.6514 64.0870 0.0000 0.0000 0.0000
# 4 0.0000 0.0000 0.0000 15.5290 0.0000 0.0000
# 5 0.0000 0.0000 0.0000 0.0000 15.5287 0.0000
# 6 0.0000 0.0000 0.0000 0.0000 0.0000 46.8235
#
#
#
# Elastic Compliance Matrix: (Units=1/GPa)
#
#
# Indices 1 2 3 4 5 6 
#
# 1 0.009729 -0.003296 -0.004382 0.000000 0.000000 0.000000
# 2 -0.003296 0.009729 -0.004382 0.000000 0.000000 0.000000
# 3 -0.004382 -0.004382 0.021573 0.000000 0.000000 0.000000
# 4 0.000000 0.000000 0.000000 0.064396 0.000000 0.000000
# 5 0.000000 0.000000 0.000000 0.000000 0.064397 0.000000
# 6 0.000000 0.000000 0.000000 0.000000 0.000000 0.021357
#
#
# Mechanical properties :
#
#
# Convention : Reuss Voigt Hill
#
# Bulk Modulus (GPa) = 59.12928 74.27709 66.70319
# Shear Modulus (GPa) = 22.63078 28.86945 25.75012
#
# Velocity S-wave (km/s) = 3.23221 3.65064 3.44778
# Velocity P-wave (km/s) = 6.42074 7.21517 6.82951
#
# Compressibility (1/GPa) = 0.01691209
#
# Stress axis : x y z
#
# Youngs Moduli (GPa) = 102.78338 102.78292 46.35376
#
# Poissons Ratio (x) = 0.33874 0.20312
# Poissons Ratio (y) = 0.33874 0.20312
# Poissons Ratio (z) = 0.45040 0.45040
#
# Static dielectric constant tensor:
#      x y z
#    x 1.842950 0.000000 0.000000 
#    y 0.000000 1.842950 0.000000 
#    z 0.000000 0.000000 1.983020 
# 
# From -- ./inp_files/3042.got.cif
#   From: 2010.05.17/outbox.cif.g08.bks.cpg/sg94_2_cif.got.tgz:3042.got - 2010.06.03 19:43:16.
