data_PCOD9550107
_publ_section_title
;
Structure prediction by ZEFSAII (Michael W. Deem and Ramdas Pophale) SiO2 
 PCOD9550107
Probable space group: P 42 21 2
;
_chemical_formula_sum "Si O2"
_cell_formula_units_Z 54
_cell_length_a 13.945633
_cell_length_b 13.945633
_cell_length_c 13.388228
_cell_angle_alpha 90.000000
_cell_angle_beta 90.000000
_cell_angle_gamma 90.000000
_cell_volume 2603.751682
_symmetry_space_group_name_H-M "P 42 21 2"
_symmetry_group_IT_number 94
_symmetry_cell_setting 'tetragonal'
loop_
_space_group_symop_operation_xyz
x,y,z
1/2-y,1/2+x,1/2+z
-x,-y,z
1/2+y,1/2-x,1/2+z
1/2+x,1/2-y,1/2-z
1/2-x,1/2+y,1/2-z
y,x,-z
-y,-x,-z
loop_
_atom_site_type_symbol
_atom_site_label
_atom_site_fract_x
_atom_site_fract_y
_atom_site_fract_z
Si Si1 0.322008 0.478799 0.853613
Si Si2 0.754830 0.544303 0.650938
Si Si3 0.683093 0.683093 0.500000
Si Si4 0.000000 0.000000 0.500000
Si Si5 0.614286 0.856079 0.843758
Si Si6 0.191526 0.325552 0.947265
Si Si7 0.319947 0.745971 0.173625
Si Si8 0.192882 0.593350 0.244677
O O1 0.328581 0.471774 0.733279
O O2 0.410240 0.499236 0.925191
O O3 0.276938 0.379685 0.890596
O O4 0.250484 0.569786 0.861148
O O5 0.706909 0.580790 0.549154
O O6 0.828369 0.456254 0.644326
O O7 0.826509 0.623947 0.696027
O O8 0.707543 0.757468 0.587367
O O9 0.690472 0.802550 0.772280
O O10 0.511116 0.842065 0.790848
O O11 0.605341 0.826769 0.958621
O O12 0.109199 0.310888 0.864488
O O13 0.228199 0.228199 0.000000
O O14 0.293425 0.635282 0.201191
#
# Coordination Sequence:
#
# PCOD9550107 Si02
#       8
#     8   8   4   2   8   8   8   8
#     4  10  23  38  59  94 130 160 222 284 325 402
#     4   9  22  43  59  93 133 166 219 279 327 416
#     4  10  21  38  68  84 128 177 216 260 350 408
#     4  12  22  36  68  90 116 174 220 266 346 386
#     4  11  23  39  66  95 130 175 223 281 338 417
#     4  11  22  41  63  92 130 176 223 284 347 409
#     4  10  22  40  60  93 129 170 223 274 337 418
#     4  10  22  41  63  93 133 172 220 280 354 403
#
# _framework density 20.739305000000002
#
# number of rings (size 3 to 8) (size 9 to 14) (size 15 to 20)
#    0.000    1.778    2.222    0.889    8.296    0.000 
#    0.000    1.481    0.000    0.000    0.000    0.000 
#    0.000    0.000    0.000    0.000    0.000    0.000 
#
# Total GULP energy -300626.109332 kJ/mol
# GULP energy per Si atom -5567.150173 kJ/mol
# Density = 2.069210 g / cm^3
# Si number density = 20.739305 Si / 1000 Ang^3
#
#
#
# Elastic Constant Matrix: (Units=GPa)
#
#
# Indices 1 2 3 4 5 6 
#
# 1 70.3558 38.2959 55.8548 0.0000 0.0000 0.0000
# 2 38.2959 70.3558 55.8548 0.0000 0.0000 0.0000
# 3 55.8548 55.8548 150.9832 0.0000 0.0000 0.0000
# 4 0.0000 0.0000 0.0000 32.0149 0.0000 0.0000
# 5 0.0000 0.0000 0.0000 0.0000 32.0149 0.0000
# 6 0.0000 0.0000 0.0000 0.0000 0.0000 23.7616
#
#
#
# Elastic Compliance Matrix: (Units=1/GPa)
#
#
# Indices 1 2 3 4 5 6 
#
# 1 0.023022 -0.008169 -0.005495 0.000000 0.000000 0.000000
# 2 -0.008169 0.023022 -0.005495 0.000000 0.000000 0.000000
# 3 -0.005495 -0.005495 0.010689 0.000000 0.000000 0.000000
# 4 0.000000 0.000000 0.000000 0.031236 0.000000 0.000000
# 5 0.000000 0.000000 0.000000 0.000000 0.031236 0.000000
# 6 0.000000 0.000000 0.000000 0.000000 0.000000 0.042085
#
#
# Mechanical properties :
#
#
# Convention : Reuss Voigt Hill
#
# Bulk Modulus (GPa) = 54.30089 65.74508 60.02299
# Shear Modulus (GPa) = 24.30187 27.00421 25.65304
#
# Velocity S-wave (km/s) = 3.42684 3.61235 3.52081
# Velocity P-wave (km/s) = 6.47279 7.01201 6.74779
#
# Compressibility (1/GPa) = 0.01841590
#
# Stress axis : x y z
#
# Youngs Moduli (GPa) = 43.43598 43.43598 93.55648
#
# Poissons Ratio (x) = 0.35484 0.51407
# Poissons Ratio (y) = 0.35484 0.51407
# Poissons Ratio (z) = 0.23867 0.23867
#
# Static dielectric constant tensor:
#      x y z
#    x 1.817660 0.000000 0.000000 
#    y 0.000000 1.817660 0.000000 
#    z 0.000000 0.000000 1.823800 
# 
# From -- ./inp_files/2748.got.cif
#   From: 2010.05.17/outbox.cif.g08.bks.cpg/sg94_2_cif.got.tgz:2748.got - 2010.06.03 19:43:16.
