data_PCOD9550665
_publ_section_title
;
Structure prediction by ZEFSAII (Michael W. Deem and Ramdas Pophale) SiO2 
 PCOD9550665
Probable space group: P 43 2 2
;
_chemical_formula_sum "Si O2"
_cell_formula_units_Z 48
_cell_length_a 14.143668
_cell_length_b 14.143668
_cell_length_c 12.865844
_cell_angle_alpha 90.000000
_cell_angle_beta 90.000000
_cell_angle_gamma 90.000000
_cell_volume 2573.726464
_symmetry_space_group_name_H-M "P 43 2 2"
_symmetry_group_IT_number 95
_symmetry_cell_setting 'tetragonal'
loop_
_space_group_symop_operation_xyz
x,y,z
-y,x,3/4+z
-x,-y,1/2+z
y,-x,1/4+z
x,-y,1/2-z
-x,y,-z
y,x,1/4-z
-y,-x,3/4-z
loop_
_atom_site_type_symbol
_atom_site_label
_atom_site_fract_x
_atom_site_fract_y
_atom_site_fract_z
Si Si1 0.006058 0.340932 0.803142
Si Si2 0.313035 0.817723 0.313701
Si Si3 0.925094 0.664547 0.925606
Si Si4 0.511471 0.134414 0.685473
Si Si5 0.287935 0.408417 0.705539
Si Si6 0.752074 0.192628 0.590165
O O1 0.058440 0.425280 0.869411
O O2 0.087975 0.261076 0.791668
O O3 0.913393 0.312493 0.868827
O O4 0.967565 0.360712 0.687386
O O5 0.271995 0.728006 0.375000
O O6 0.415915 0.809735 0.260700
O O7 0.248607 0.828197 0.212447
O O8 0.837234 0.735325 0.924853
O O9 0.902115 0.567982 0.986044
O O10 0.000000 0.714812 0.000000
O O11 0.454906 0.199703 0.605181
O O12 0.341424 0.500000 0.750000
O O13 0.348486 0.348486 0.625000
O O14 0.248890 0.339152 0.794810
#
# Coordination Sequence:
#
# PCOD9550665 Si02
#       6
#     8   8   8   8   8   8
#     4  11  24  41  69  93 138 170 226 277 333 399
#     4  11  22  42  64  96 131 173 219 275 334 396
#     4  12  25  39  64 101 132 164 224 282 336 394
#     4  11  24  39  67 100 125 169 220 271 338 388
#     4  12  23  42  70  94 134 180 218 267 335 407
#     4  11  23  41  66  94 127 178 217 274 337 398
#
# _framework density 18.650001
#
# number of rings (size 3 to 8) (size 9 to 14) (size 15 to 20)
#    0.000    0.667    6.667    4.000    0.000    4.667 
#    0.000    0.833    3.667    0.000    0.000    0.000 
#    0.000    0.000    0.000    0.000    0.000    0.000 
#
# Total GULP energy -267552.208457 kJ/mol
# GULP energy per Si atom -5574.004343 kJ/mol
# Density = 1.860755 g / cm^3
# Si number density = 18.650001 Si / 1000 Ang^3
#
#
#
# Elastic Constant Matrix: (Units=GPa)
#
#
# Indices 1 2 3 4 5 6 
#
# 1 100.9469 62.8671 68.6107 0.0000 0.0000 0.0000
# 2 62.8671 100.9485 68.6108 0.0000 0.0000 0.0000
# 3 68.6107 68.6108 135.9378 0.0000 0.0000 0.0000
# 4 0.0000 0.0000 0.0000 35.7855 0.0000 0.0000
# 5 0.0000 0.0000 0.0000 0.0000 35.7849 0.0000
# 6 0.0000 0.0000 0.0000 0.0000 0.0000 30.6230
#
#
#
# Elastic Compliance Matrix: (Units=1/GPa)
#
#
# Indices 1 2 3 4 5 6 
#
# 1 0.018418 -0.007842 -0.005338 0.000000 0.000000 0.000000
# 2 -0.007842 0.018418 -0.005338 0.000000 0.000000 0.000000
# 3 -0.005338 -0.005338 0.012745 0.000000 0.000000 0.000000
# 4 0.000000 0.000000 0.000000 0.027944 0.000000 0.000000
# 5 0.000000 0.000000 0.000000 0.000000 0.027945 0.000000
# 6 0.000000 0.000000 0.000000 0.000000 0.000000 0.032655
#
#
# Mechanical properties :
#
#
# Convention : Reuss Voigt Hill
#
# Bulk Modulus (GPa) = 79.71450 82.00116 80.85783
# Shear Modulus (GPa) = 27.87974 29.62165 28.75069
#
# Velocity S-wave (km/s) = 3.87058 3.98966 3.93057
# Velocity P-wave (km/s) = 7.92530 8.08004 8.00304
#
# Compressibility (1/GPa) = 0.01254477
#
# Stress axis : x y z
#
# Youngs Moduli (GPa) = 54.29436 54.29561 78.46516
#
# Poissons Ratio (x) = 0.42580 0.41884
# Poissons Ratio (y) = 0.42579 0.41882
# Poissons Ratio (z) = 0.28982 0.28981
#
# Static dielectric constant tensor:
#      x y z
#    x 1.681620 0.000000 0.000000 
#    y 0.000000 1.681620 0.000000 
#    z 0.000000 0.000000 1.685070 
# 
# From -- ./inp_files/3896.got.cif
#   From: 2010.05.17/outbox.cif.g08.bks.cpg/sg95_2_cif.got.tgz:3896.got - 2010.06.03 19:46:49.
