data_PCOD9550345
_publ_section_title
;
Structure prediction by ZEFSAII (Michael W. Deem and Ramdas Pophale) SiO2 
 PCOD9550345
Probable space group: P 42 21 2
;
_chemical_formula_sum "Si O2"
_cell_formula_units_Z 24
_cell_length_a 8.499047
_cell_length_b 8.499047
_cell_length_c 13.351758
_cell_angle_alpha 90.000000
_cell_angle_beta 90.000000
_cell_angle_gamma 90.000000
_cell_volume 964.448216
_symmetry_space_group_name_H-M "P 42 21 2"
_symmetry_group_IT_number 94
_symmetry_cell_setting 'tetragonal'
loop_
_space_group_symop_operation_xyz
x,y,z
1/2-y,1/2+x,1/2+z
-x,-y,z
1/2+y,1/2-x,1/2+z
1/2+x,1/2-y,1/2-z
1/2-x,1/2+y,1/2-z
y,x,-z
-y,-x,-z
loop_
_atom_site_type_symbol
_atom_site_label
_atom_site_fract_x
_atom_site_fract_y
_atom_site_fract_z
Si Si1 0.556601 0.236217 0.173884
Si Si2 0.730121 0.974833 0.250400
Si Si3 0.174300 0.416872 0.023005
O O1 0.411417 0.143928 0.222834
O O2 0.612392 0.376421 0.243271
O O3 0.704330 0.116109 0.173698
O O4 0.507604 0.274647 0.061807
O O5 0.708315 0.045015 0.361769
O O6 0.000000 0.500000 0.006718
O O7 0.235028 0.235028 0.000000
#
# Coordination Sequence:
#
# PCOD9550345 Si02
#       3
#     8   8   8
#     4  11  24  42  68 101 138 181 234 295 361 437
#     4  11  24  42  68 101 138 181 234 295 361 437
#     4  12  25  45  69 100 142 190 241 301 374 445
#
# _framework density 24.884694
#
# number of rings (size 3 to 8) (size 9 to 14) (size 15 to 20)
#    0.000    0.667    6.667    3.000    0.000    6.667 
#    0.000    0.000    0.000    6.000    0.000    0.000 
#    0.000    0.000    0.000    0.000    0.000    0.000 
#
# Total GULP energy -133802.838180 kJ/mol
# GULP energy per Si atom -5575.118258 kJ/mol
# Density = 2.482805 g / cm^3
# Si number density = 24.884694 Si / 1000 Ang^3
#
#
#
# Elastic Constant Matrix: (Units=GPa)
#
#
# Indices 1 2 3 4 5 6 
#
# 1 63.1018 70.5064 -0.5369 0.0000 0.0000 0.0000
# 2 70.5064 63.1018 -0.5369 0.0000 0.0000 0.0000
# 3 -0.5369 -0.5369 125.8316 0.0000 0.0000 0.0000
# 4 0.0000 0.0000 0.0000 32.2571 0.0000 0.0000
# 5 0.0000 0.0000 0.0000 0.0000 32.2571 0.0000
# 6 0.0000 0.0000 0.0000 0.0000 0.0000 86.8900
#
#
#
# Elastic Compliance Matrix: (Units=1/GPa)
#
#
# Indices 1 2 3 4 5 6 
#
# 1 -0.063783 0.071268 0.000032 0.000000 0.000000 0.000000
# 2 0.071268 -0.063783 0.000032 0.000000 0.000000 0.000000
# 3 0.000032 0.000032 0.007947 0.000000 0.000000 0.000000
# 4 0.000000 0.000000 0.000000 0.031001 0.000000 0.000000
# 5 0.000000 0.000000 0.000000 0.000000 0.031001 0.000000
# 6 0.000000 0.000000 0.000000 0.000000 0.000000 0.011509
#
#
# Mechanical properties :
#
#
# Convention : Reuss Voigt Hill
#
# Bulk Modulus (GPa) = 43.39372 43.43336 43.41354
# Shear Modulus (GPa) = -27.61057 42.45435 7.42189
#
# Velocity S-wave (km/s) = -3.33459 4.13491 1.72887
# Velocity P-wave (km/s) = 1.62782 6.34731 4.63347
#
# Compressibility (1/GPa) = 0.02304481
#
# Stress axis : x y z
#
# Youngs Moduli (GPa) = -15.67814 -15.67814 125.82732
#
# Poissons Ratio (x) = 1.11735 -0.00402
# Poissons Ratio (y) = 1.11735 -0.00402
# Poissons Ratio (z) = 0.00050 0.00050
#
# Static dielectric constant tensor:
#      x y z
#    x 2.120230 0.000000 0.000000 
#    y 0.000000 2.120230 0.000000 
#    z 0.000000 0.000000 1.868690 
# 
# From -- ./inp_files/3039.got.cif
#   From: 2010.05.17/outbox.cif.g08.bks.cpg/sg94_2_cif.got.tgz:3039.got - 2010.06.03 19:43:16.
