data_PCOD9550161
_publ_section_title
;
Structure prediction by ZEFSAII (Michael W. Deem and Ramdas Pophale) SiO2 
 PCOD9550161
Probable space group: P 42 21 2
;
_chemical_formula_sum "Si O2"
_cell_formula_units_Z 32
_cell_length_a 8.571162
_cell_length_b 8.571162
_cell_length_c 23.082487
_cell_angle_alpha 90.000000
_cell_angle_beta 90.000000
_cell_angle_gamma 90.000000
_cell_volume 1695.750707
_symmetry_space_group_name_H-M "P 42 21 2"
_symmetry_group_IT_number 94
_symmetry_cell_setting 'tetragonal'
loop_
_space_group_symop_operation_xyz
x,y,z
1/2-y,1/2+x,1/2+z
-x,-y,z
1/2+y,1/2-x,1/2+z
1/2+x,1/2-y,1/2-z
1/2-x,1/2+y,1/2-z
y,x,-z
-y,-x,-z
loop_
_atom_site_type_symbol
_atom_site_label
_atom_site_fract_x
_atom_site_fract_y
_atom_site_fract_z
Si Si1 0.057074 0.259959 0.701337
Si Si2 0.500000 0.000000 0.399847
Si Si3 0.755752 0.557228 0.797065
Si Si4 0.000000 0.500000 0.897226
Si Si5 0.493579 0.244107 0.500665
O O1 0.049345 0.355885 0.641255
O O2 0.122004 0.382629 0.748711
O O3 0.884909 0.183457 0.706049
O O4 0.172607 0.111446 0.708235
O O5 0.528025 0.141283 0.444083
O O6 0.853591 0.539038 0.856087
O O7 0.990297 0.355678 0.940968
O O8 0.327132 0.327132 0.500000
O O9 0.624416 0.375584 0.500000
#
# Coordination Sequence:
#
# PCOD9550161 Si02
#       5
#     8   4   8   4   8
#     4  11  23  39  61  89 122 160 202 251 305 363
#     4  11  21  38  60  84 117 153 198 248 300 361
#     4  11  23  39  61  89 122 160 202 251 305 363
#     4  11  21  38  60  84 117 153 198 248 300 361
#     4  10  22  38  58  84 114 152 196 246 302 358
#
# _framework density 18.870699999999999
#
# number of rings (size 3 to 8) (size 9 to 14) (size 15 to 20)
#    0.000    1.250    0.000    6.750    0.000    0.000 
#    0.000    5.000    0.000   12.000    0.000    0.000 
#    0.000    0.000    0.000    0.000    0.000    0.000 
#
# Total GULP energy -178344.709147 kJ/mol
# GULP energy per Si atom -5573.272161 kJ/mol
# Density = 1.882775 g / cm^3
# Si number density = 18.870700 Si / 1000 Ang^3
#
#
#
# Elastic Constant Matrix: (Units=GPa)
#
#
# Indices 1 2 3 4 5 6 
#
# 1 109.2843 74.1076 76.1168 0.0000 0.0000 0.0000
# 2 74.1076 109.2873 76.1178 0.0000 0.0000 0.0000
# 3 76.1168 76.1178 156.1490 0.0000 0.0000 0.0000
# 4 0.0000 0.0000 0.0000 -29.8453 0.0000 0.0000
# 5 0.0000 0.0000 0.0000 0.0000 -29.9229 0.0000
# 6 0.0000 0.0000 0.0000 0.0000 0.0000 36.6393
#
#
#
# Elastic Compliance Matrix: (Units=1/GPa)
#
#
# Indices 1 2 3 4 5 6 
#
# 1 0.018793 -0.009634 -0.004465 0.000000 0.000000 0.000000
# 2 -0.009634 0.018793 -0.004465 0.000000 0.000000 0.000000
# 3 -0.004465 -0.004465 0.010757 0.000000 0.000000 0.000000
# 4 0.000000 0.000000 0.000000 -0.033506 0.000000 0.000000
# 5 0.000000 0.000000 0.000000 0.000000 -0.033419 0.000000
# 6 0.000000 0.000000 0.000000 0.000000 0.000000 0.027293
#
#
# Mechanical properties :
#
#
# Convention : Reuss Voigt Hill
#
# Bulk Modulus (GPa) = 89.15813 91.93390 90.54601
# Shear Modulus (GPa) = 100.85694 5.26611 53.06152
#
# Velocity S-wave (km/s) = 7.31863 1.67233 5.30844
# Velocity P-wave (km/s) = 10.89798 7.24931 9.25522
#
# Compressibility (1/GPa) = 0.01121603
#
# Stress axis : x y z
#
# Youngs Moduli (GPa) = 53.21122 53.21268 92.96413
#
# Poissons Ratio (x) = 0.51265 0.41505
# Poissons Ratio (y) = 0.51263 0.41505
# Poissons Ratio (z) = 0.23757 0.23757
#
# Static dielectric constant tensor:
#      x y z
#    x 1.685410 0.000000 0.000000 
#    y 0.000000 1.685450 0.000000 
#    z 0.000000 0.000000 1.626590 
# 
# From -- ./inp_files/4439.got.cif
#   From: 2010.05.17/outbox.cif.g08.bks.cpg/sg94_3_cif.got.tgz:4439.got - 2010.06.03 19:43:16.
