data_PCOD9550592
_publ_section_title
;
Structure prediction by ZEFSAII (Michael W. Deem and Ramdas Pophale) SiO2 
 PCOD9550592
Probable space group: P 43 2 2
;
_chemical_formula_sum "Si O2"
_cell_formula_units_Z 40
_cell_length_a 8.653169
_cell_length_b 8.653169
_cell_length_c 21.538680
_cell_angle_alpha 90.000000
_cell_angle_beta 90.000000
_cell_angle_gamma 90.000000
_cell_volume 1612.758931
_symmetry_space_group_name_H-M "P 43 2 2"
_symmetry_group_IT_number 95
_symmetry_cell_setting 'tetragonal'
loop_
_space_group_symop_operation_xyz
x,y,z
-y,x,3/4+z
-x,-y,1/2+z
y,-x,1/4+z
x,-y,1/2-z
-x,y,-z
y,x,1/4-z
-y,-x,3/4-z
loop_
_atom_site_type_symbol
_atom_site_label
_atom_site_fract_x
_atom_site_fract_y
_atom_site_fract_z
Si Si1 0.186952 0.220707 0.269114
Si Si2 0.681770 0.500000 0.250000
Si Si3 0.073797 0.648054 0.420209
Si Si4 0.334634 0.334634 0.625000
Si Si5 0.665690 0.963367 0.368985
Si Si6 0.766264 0.905839 0.946500
O O1 0.282326 0.222038 0.204986
O O2 0.146671 0.350528 0.319724
O O3 0.012266 0.174731 0.251801
O O4 0.277653 0.081871 0.301575
O O5 0.604790 0.417761 0.311351
O O6 0.785935 0.361525 0.220877
O O7 0.082954 0.467013 0.428462
O O8 0.026715 0.681439 0.349313
O O9 0.147278 0.352948 0.627175
O O10 0.824976 0.907108 0.338776
#
# Coordination Sequence:
#
# PCOD9550592 Si02
#       6
#     8   4   8   4   8   8
#     4  10  22  40  67 107 150 191 253 322 397 468
#     4  12  26  48  78 114 164 206 276 330 398 494
#     4  10  22  41  67 111 153 190 249 332 400 462
#     4  12  26  48  80 114 154 212 268 336 404 496
#     4  11  25  44  75 109 153 206 263 325 403 483
#     4  11  22  44  76 108 148 201 264 327 394 475
#
# _framework density 24.802216999999999
#
# number of rings (size 3 to 8) (size 9 to 14) (size 15 to 20)
#    0.000    1.200    4.000    0.600    8.400    4.000 
#    0.000    0.000    8.800    2.400    0.000    0.000 
#    0.000    0.000    0.000    0.000    0.000    0.000 
#
# Total GULP energy -222733.557940 kJ/mol
# GULP energy per Si atom -5568.338948 kJ/mol
# Density = 2.474577 g / cm^3
# Si number density = 24.802217 Si / 1000 Ang^3
#
#
#
# Elastic Constant Matrix: (Units=GPa)
#
#
# Indices 1 2 3 4 5 6 
#
# 1 63.1248 26.3273 30.5183 0.0000 0.0000 0.0000
# 2 26.3273 63.1248 30.5183 0.0000 0.0000 0.0000
# 3 30.5183 30.5183 108.2873 0.0000 0.0000 0.0000
# 4 0.0000 0.0000 0.0000 36.9454 0.0000 0.0000
# 5 0.0000 0.0000 0.0000 0.0000 36.9454 0.0000
# 6 0.0000 0.0000 0.0000 0.0000 0.0000 41.0031
#
#
#
# Elastic Compliance Matrix: (Units=1/GPa)
#
#
# Indices 1 2 3 4 5 6 
#
# 1 0.020508 -0.006668 -0.003901 0.000000 0.000000 0.000000
# 2 -0.006668 0.020508 -0.003901 0.000000 0.000000 0.000000
# 3 -0.003901 -0.003901 0.011433 0.000000 0.000000 0.000000
# 4 0.000000 0.000000 0.000000 0.027067 0.000000 0.000000
# 5 0.000000 0.000000 0.000000 0.000000 0.027067 0.000000
# 6 0.000000 0.000000 0.000000 0.000000 0.000000 0.024388
#
#
# Mechanical properties :
#
#
# Convention : Reuss Voigt Hill
#
# Bulk Modulus (GPa) = 42.53137 45.47386 44.00262
# Shear Modulus (GPa) = 29.80672 32.79032 31.29852
#
# Velocity S-wave (km/s) = 3.47043 3.63998 3.55621
# Velocity P-wave (km/s) = 5.76575 6.00336 5.88575
#
# Compressibility (1/GPa) = 0.02351205
#
# Stress axis : x y z
#
# Youngs Moduli (GPa) = 48.76080 48.76080 87.46350
#
# Poissons Ratio (x) = 0.32511 0.34117
# Poissons Ratio (y) = 0.32511 0.34117
# Poissons Ratio (z) = 0.19020 0.19020
#
# Static dielectric constant tensor:
#      x y z
#    x 1.622540 0.000000 0.000000 
#    y 0.000000 1.622540 0.000000 
#    z 0.000000 0.000000 2.353900 
# 
# From -- ./inp_files/6906.got.cif
#   From: 2010.05.17/outbox.cif.g08.bks.cpg/sg95_4_cif.got.tgz:6906.got - 2010.06.03 19:46:49.
