data_PCOD9550689
_publ_section_title
;
Structure prediction by ZEFSAII (Michael W. Deem and Ramdas Pophale) SiO2 
 PCOD9550689
Probable space group: P 43 2 2
;
_chemical_formula_sum "Si O2"
_cell_formula_units_Z 16
_cell_length_a 11.392265
_cell_length_b 11.392265
_cell_length_c 5.010549
_cell_angle_alpha 90.000000
_cell_angle_beta 90.000000
_cell_angle_gamma 90.000000
_cell_volume 650.287597
_symmetry_space_group_name_H-M "P 43 2 2"
_symmetry_group_IT_number 95
_symmetry_cell_setting 'tetragonal'
loop_
_space_group_symop_operation_xyz
x,y,z
-y,x,3/4+z
-x,-y,1/2+z
y,-x,1/4+z
x,-y,1/2-z
-x,y,-z
y,x,1/4-z
-y,-x,3/4-z
loop_
_atom_site_type_symbol
_atom_site_label
_atom_site_fract_x
_atom_site_fract_y
_atom_site_fract_z
Si Si1 0.376639 0.262209 0.886272
Si Si2 0.335637 0.000000 0.750000
Si Si3 0.000000 0.819598 0.500000
O O1 0.329678 0.329678 0.625000
O O2 0.395033 0.123340 0.826514
O O3 0.500000 0.308117 0.000000
O O4 0.284070 0.284070 0.125000
O O5 0.259045 0.038738 0.496315
O O6 0.097802 0.902199 0.375000
#
# Coordination Sequence:
#
# PCOD9550689 Si02
#       3
#     8   4   4
#     4  12  28  50  78 110 148 196 248 306 368 436
#     4  12  25  45  70 106 146 188 245 307 372 434
#     4  12  23  37  62 100 148 198 243 293 362 442
#
# _framework density 24.604502
#
# number of rings (size 3 to 8) (size 9 to 14) (size 15 to 20)
#    0.000    0.000    0.000   12.000    0.000    8.000 
#    0.000    0.000    0.000    0.000    0.000    0.000 
#    0.000    0.000    0.000    0.000    0.000    0.000 
#
# Total GULP energy -89636.276695 kJ/mol
# GULP energy per Si atom -5602.267293 kJ/mol
# Density = 2.454850 g / cm^3
# Si number density = 24.604502 Si / 1000 Ang^3
#
#
#
# Elastic Constant Matrix: (Units=GPa)
#
#
# Indices 1 2 3 4 5 6 
#
# 1 129.3207 60.3925 71.8924 0.0000 0.0000 0.0000
# 2 60.3925 129.3208 71.8926 0.0000 0.0000 0.0000
# 3 71.8924 71.8926 228.8575 0.0000 0.0000 0.0000
# 4 0.0000 0.0000 0.0000 62.5254 0.0000 0.0000
# 5 0.0000 0.0000 0.0000 0.0000 62.5214 0.0000
# 6 0.0000 0.0000 0.0000 0.0000 0.0000 53.7232
#
#
#
# Elastic Compliance Matrix: (Units=1/GPa)
#
#
# Indices 1 2 3 4 5 6 
#
# 1 0.010713 -0.003795 -0.002173 0.000000 0.000000 0.000000
# 2 -0.003795 0.010713 -0.002173 0.000000 0.000000 0.000000
# 3 -0.002173 -0.002173 0.005735 0.000000 0.000000 0.000000
# 4 0.000000 0.000000 0.000000 0.015994 0.000000 0.000000
# 5 0.000000 0.000000 0.000000 0.000000 0.015995 0.000000
# 6 0.000000 0.000000 0.000000 0.000000 0.000000 0.018614
#
#
# Mechanical properties :
#
#
# Convention : Reuss Voigt Hill
#
# Bulk Modulus (GPa) = 91.92575 99.53934 95.73255
# Shear Modulus (GPa) = 51.19185 54.64210 52.91697
#
# Velocity S-wave (km/s) = 4.56630 4.71767 4.64260
# Velocity P-wave (km/s) = 8.07737 8.37966 8.22990
#
# Compressibility (1/GPa) = 0.01087834
#
# Stress axis : x y z
#
# Youngs Moduli (GPa) = 93.34413 93.34413 174.36973
#
# Poissons Ratio (x) = 0.35422 0.37895
# Poissons Ratio (y) = 0.35422 0.37895
# Poissons Ratio (z) = 0.20286 0.20286
#
# Static dielectric constant tensor:
#      x y z
#    x 1.977610 0.000000 0.000000 
#    y 0.000000 1.977600 0.000000 
#    z 0.000000 0.000000 1.817310 
# 
# From -- ./inp_files/106.got.cif
#   From: 2010.05.17/outbox.cif.g08.bks.cpg/sg95_1_cif.got.tgz:106.got - 2010.06.03 19:46:49.
