data_PCOD9550388
_publ_section_title
;
Structure prediction by ZEFSAII (Michael W. Deem and Ramdas Pophale) SiO2 
 PCOD9550388
Probable space group: P 42 21 2
;
_chemical_formula_sum "Si O2"
_cell_formula_units_Z 40
_cell_length_a 8.079743
_cell_length_b 8.079743
_cell_length_c 25.746000
_cell_angle_alpha 90.000000
_cell_angle_beta 90.000000
_cell_angle_gamma 90.000000
_cell_volume 1680.756730
_symmetry_space_group_name_H-M "P 42 21 2"
_symmetry_group_IT_number 94
_symmetry_cell_setting 'tetragonal'
loop_
_space_group_symop_operation_xyz
x,y,z
1/2-y,1/2+x,1/2+z
-x,-y,z
1/2+y,1/2-x,1/2+z
1/2+x,1/2-y,1/2-z
1/2-x,1/2+y,1/2-z
y,x,-z
-y,-x,-z
loop_
_atom_site_type_symbol
_atom_site_label
_atom_site_fract_x
_atom_site_fract_y
_atom_site_fract_z
Si Si1 0.737509 0.747598 0.938629
Si Si2 0.727378 0.272623 0.000000
Si Si3 0.500000 0.500000 0.115467
Si Si4 0.176826 0.933363 0.098522
Si Si5 0.500000 0.000000 0.454975
Si Si6 0.000000 0.500000 0.749274
Si Si7 0.275043 0.725465 0.190537
O O1 0.615480 0.601371 0.923685
O O2 0.901976 0.713807 0.905938
O O3 0.645509 0.917692 0.921746
O O4 0.774974 0.774974 0.000000
O O5 0.810545 0.236597 0.945193
O O6 0.559755 0.161622 0.987571
O O7 0.384052 0.609212 0.152532
O O8 0.173372 0.850283 0.153880
O O9 0.000000 0.000000 0.081328
O O10 0.895618 0.645936 0.719902
O O11 0.850677 0.398457 0.778469
#
# Coordination Sequence:
#
# PCOD9550388 Si02
#       7
#     8   4   4   8   4   4   8
#     4  12  26  44  69 109 166 216 264 314 383 470
#     4  12  25  46  67 112 158 211 252 312 381 478
#     4  12  29  46  74 124 154 200 272 319 406 478
#     4  12  25  45  78 111 152 208 261 310 388 476
#     4  12  26  40  68  96 154 222 262 306 376 434
#     4  12  30  58  84 118 156 206 270 358 426 474
#     4  12  30  52  89 113 160 202 271 340 417 490
#
# _framework density 23.798805999999999
#
# number of rings (size 3 to 8) (size 9 to 14) (size 15 to 20)
#    0.000    0.000    4.000    4.200   11.200    1.600 
#    0.000    0.000    0.000    0.000    0.000    0.000 
#    0.000    0.000    0.000    0.000    0.000    0.000 
#
# Total GULP energy -223094.334879 kJ/mol
# GULP energy per Si atom -5577.358372 kJ/mol
# Density = 2.374464 g / cm^3
# Si number density = 23.798806 Si / 1000 Ang^3
#
#
#
# Elastic Constant Matrix: (Units=GPa)
#
#
# Indices 1 2 3 4 5 6 
#
# 1 116.2904 31.2203 34.6628 0.0000 0.0000 0.0000
# 2 31.2203 116.2902 34.6626 0.0000 0.0000 0.0000
# 3 34.6628 34.6626 82.8878 0.0000 0.0000 0.0000
# 4 0.0000 0.0000 0.0000 7.6259 0.0000 0.0000
# 5 0.0000 0.0000 0.0000 0.0000 7.6268 0.0000
# 6 0.0000 0.0000 0.0000 0.0000 0.0000 56.6249
#
#
#
# Elastic Compliance Matrix: (Units=1/GPa)
#
#
# Indices 1 2 3 4 5 6 
#
# 1 0.010096 -0.001659 -0.003528 0.000000 0.000000 0.000000
# 2 -0.001659 0.010096 -0.003528 0.000000 0.000000 0.000000
# 3 -0.003528 -0.003528 0.015016 0.000000 0.000000 0.000000
# 4 0.000000 0.000000 0.000000 0.131132 0.000000 0.000000
# 5 0.000000 0.000000 0.000000 0.000000 0.131116 0.000000
# 6 0.000000 0.000000 0.000000 0.000000 0.000000 0.017660
#
#
# Mechanical properties :
#
#
# Convention : Reuss Voigt Hill
#
# Bulk Modulus (GPa) = 56.25336 57.39555 56.82446
# Shear Modulus (GPa) = 14.77221 28.70369 21.73795
#
# Velocity S-wave (km/s) = 2.49411 3.47666 3.02554
# Velocity P-wave (km/s) = 5.65531 6.34709 6.01116
#
# Compressibility (1/GPa) = 0.01777672
#
# Stress axis : x y z
#
# Youngs Moduli (GPa) = 99.04693 99.04682 66.59737
#
# Poissons Ratio (x) = 0.16430 0.23499
# Poissons Ratio (y) = 0.16430 0.23498
# Poissons Ratio (z) = 0.34948 0.34948
#
# Static dielectric constant tensor:
#      x y z
#    x 2.103510 0.000000 0.000000 
#    y 0.000000 2.103510 0.000000 
#    z 0.000000 0.000000 1.838670 
# 
# From -- ./inp_files/5351.got.cif
#   From: 2010.05.17/outbox.cif.g08.bks.cpg/sg94_3_cif.got.tgz:5351.got - 2010.06.03 19:43:16.
