data_PCOD9550325
_publ_section_title
;
Structure prediction by ZEFSAII (Michael W. Deem and Ramdas Pophale) SiO2 
 PCOD9550325
Probable space group: P 42 21 2
;
_chemical_formula_sum "Si O2"
_cell_formula_units_Z 32
_cell_length_a 7.936060
_cell_length_b 7.936060
_cell_length_c 22.341018
_cell_angle_alpha 90.000000
_cell_angle_beta 90.000000
_cell_angle_gamma 90.000000
_cell_volume 1407.060734
_symmetry_space_group_name_H-M "P 42 21 2"
_symmetry_group_IT_number 94
_symmetry_cell_setting 'tetragonal'
loop_
_space_group_symop_operation_xyz
x,y,z
1/2-y,1/2+x,1/2+z
-x,-y,z
1/2+y,1/2-x,1/2+z
1/2+x,1/2-y,1/2-z
1/2-x,1/2+y,1/2-z
y,x,-z
-y,-x,-z
loop_
_atom_site_type_symbol
_atom_site_label
_atom_site_fract_x
_atom_site_fract_y
_atom_site_fract_z
Si Si1 0.094196 0.235365 0.683041
Si Si2 0.910106 0.763896 0.200153
Si Si3 0.720932 0.405502 0.938064
Si Si4 0.327716 0.059907 0.110247
O O1 0.214642 0.399517 0.685698
O O2 0.158735 0.110632 0.734263
O O3 0.111918 0.153512 0.618215
O O4 0.908223 0.302309 0.696347
O O5 0.821480 0.887875 0.152815
O O6 0.785010 0.596852 0.927881
O O7 0.898035 0.301848 0.931591
O O8 0.634003 0.365998 0.000000
O O9 0.500000 0.000000 0.146256
#
# Coordination Sequence:
#
# PCOD9550325 Si02
#       4
#     8   8   8   8
#     4  11  24  37  62  90 126 160 204 256 305 370
#     4  11  23  40  61  95 122 159 207 255 316 358
#     4   9  20  41  62  88 123 159 203 250 304 369
#     4   8  21  39  63  81 124 152 203 250 307 355
#
# _framework density 22.742442
#
# number of rings (size 3 to 8) (size 9 to 14) (size 15 to 20)
#    1.500    0.500    0.000    3.000    3.500   11.000 
#    0.000    7.500    0.000    0.000    0.000    0.000 
#    0.000    0.000    0.000    0.000    0.000    0.000 
#
# Total GULP energy -178899.169825 kJ/mol
# GULP energy per Si atom -5590.599057 kJ/mol
# Density = 2.269068 g / cm^3
# Si number density = 22.742442 Si / 1000 Ang^3
#
#
#
# Elastic Constant Matrix: (Units=GPa)
#
#
# Indices 1 2 3 4 5 6 
#
# 1 103.1412 37.9440 47.7176 0.0000 0.0000 0.0000
# 2 37.9440 103.1409 47.7173 0.0000 0.0000 0.0000
# 3 47.7176 47.7173 174.3927 0.0000 0.0000 0.0000
# 4 0.0000 0.0000 0.0000 -8.1034 0.0000 0.0000
# 5 0.0000 0.0000 0.0000 0.0000 -8.1036 0.0000
# 6 0.0000 0.0000 0.0000 0.0000 0.0000 42.4068
#
#
#
# Elastic Compliance Matrix: (Units=1/GPa)
#
#
# Indices 1 2 3 4 5 6 
#
# 1 0.012018 -0.003320 -0.002380 0.000000 0.000000 0.000000
# 2 -0.003320 0.012018 -0.002380 0.000000 0.000000 0.000000
# 3 -0.002380 -0.002380 0.007037 0.000000 0.000000 0.000000
# 4 0.000000 0.000000 0.000000 -0.123405 0.000000 0.000000
# 5 0.000000 0.000000 0.000000 0.000000 -0.123401 0.000000
# 6 0.000000 0.000000 0.000000 0.000000 0.000000 0.023581
#
#
# Mechanical properties :
#
#
# Convention : Reuss Voigt Hill
#
# Bulk Modulus (GPa) = 67.05770 71.93696 69.49733
# Shear Modulus (GPa) = -29.23607 21.72635 -3.75486
#
# Velocity S-wave (km/s) = -3.58932 3.09418 -1.28632
# Velocity P-wave (km/s) = 3.51740 6.66822 5.33091
#
# Compressibility (1/GPa) = 0.01491253
#
# Stress axis : x y z
#
# Youngs Moduli (GPa) = 83.20896 83.20885 142.11498
#
# Poissons Ratio (x) = 0.27627 0.33822
# Poissons Ratio (y) = 0.27627 0.33822
# Poissons Ratio (z) = 0.19803 0.19803
#
# Static dielectric constant tensor:
#      x y z
#    x 1.896350 0.000000 0.000000 
#    y 0.000000 1.896360 0.000000 
#    z 0.000000 0.000000 1.772710 
# 
# From -- ./inp_files/4399.got.cif
#   From: 2010.05.17/outbox.cif.g08.bks.cpg/sg94_3_cif.got.tgz:4399.got - 2010.06.03 19:43:16.
