data_PCOD9550972
_publ_section_title
;
Structure prediction by ZEFSAII (Michael W. Deem and Ramdas Pophale) SiO2 
 PCOD9550972
Probable space group: P 43 21 2
;
_chemical_formula_sum "Si O2"
_cell_formula_units_Z 40
_cell_length_a 19.299599
_cell_length_b 19.299599
_cell_length_c 5.021442
_cell_angle_alpha 90.000000
_cell_angle_beta 90.000000
_cell_angle_gamma 90.000000
_cell_volume 1870.359206
_symmetry_space_group_name_H-M "P 43 21 2"
_symmetry_group_IT_number 96
_symmetry_cell_setting 'tetragonal'
loop_
_space_group_symop_operation_xyz
x,y,z
1/2-y,1/2+x,3/4+z
-x,-y,1/2+z
1/2+y,1/2-x,1/4+z
1/2+x,1/2-y,1/4-z
1/2-x,1/2+y,3/4-z
y,x,-z
-y,-x,1/2-z
loop_
_atom_site_type_symbol
_atom_site_label
_atom_site_fract_x
_atom_site_fract_y
_atom_site_fract_z
Si Si1 0.739809 0.375875 0.219548
Si Si2 0.601940 0.671888 0.249225
Si Si3 0.403239 0.952036 0.075921
Si Si4 0.165488 0.391855 0.150016
Si Si5 0.059436 0.174448 0.470893
O O1 0.694296 0.305705 0.250000
O O2 0.818716 0.360636 0.286695
O O3 0.705477 0.429102 0.428183
O O4 0.728660 0.406800 0.927526
O O5 0.629439 0.629439 0.500000
O O6 0.612757 0.753402 0.293032
O O7 0.519984 0.661418 0.214435
O O8 0.644865 0.644865 0.000000
O O9 0.374104 0.910155 0.327769
O O10 0.421219 0.027161 0.193920
O O11 0.349585 0.948693 0.830413
O O12 0.105121 0.105121 0.500000
#
# Coordination Sequence:
#
# PCOD9550972 Si02
#       5
#     8   8   8   8   8
#     4  10  22  42  67  98 134 172 228 284 342 415
#     4  12  27  46  68 104 145 181 234 297 361 426
#     4  12  27  47  66 102 141 184 237 287 345 421
#     4  12  26  42  75  98 140 187 233 289 358 417
#     4  10  23  43  71 102 135 183 235 285 343 424
#
# _framework density 21.386265999999999
#
# number of rings (size 3 to 8) (size 9 to 14) (size 15 to 20)
#    0.000    0.800    0.000    6.600    8.400    3.200 
#    0.000    0.000    0.000    0.000    0.000    0.000 
#    0.000    0.000    0.000    0.000    0.000    0.000 
#
# Total GULP energy -224111.314507 kJ/mol
# GULP energy per Si atom -5602.782863 kJ/mol
# Density = 2.133759 g / cm^3
# Si number density = 21.386266 Si / 1000 Ang^3
#
#
#
# Elastic Constant Matrix: (Units=GPa)
#
#
# Indices 1 2 3 4 5 6 
#
# 1 116.6723 63.2819 28.4030 0.0000 0.0000 0.0000
# 2 63.2819 116.6695 28.4002 0.0000 0.0000 0.0000
# 3 28.4030 28.4002 110.6835 0.0000 0.0000 0.0000
# 4 0.0000 0.0000 0.0000 31.0952 0.0000 0.0000
# 5 0.0000 0.0000 0.0000 0.0000 31.0937 0.0000
# 6 0.0000 0.0000 0.0000 0.0000 0.0000 12.4437
#
#
#
# Elastic Compliance Matrix: (Units=1/GPa)
#
#
# Indices 1 2 3 4 5 6 
#
# 1 0.012389 -0.006342 -0.001552 0.000000 0.000000 0.000000
# 2 -0.006342 0.012389 -0.001551 0.000000 0.000000 0.000000
# 3 -0.001552 -0.001551 0.009831 0.000000 0.000000 0.000000
# 4 0.000000 0.000000 0.000000 0.032159 0.000000 0.000000
# 5 0.000000 0.000000 0.000000 0.000000 0.032161 0.000000
# 6 0.000000 0.000000 0.000000 0.000000 0.000000 0.080362
#
#
# Mechanical properties :
#
#
# Convention : Reuss Voigt Hill
#
# Bulk Modulus (GPa) = 63.62062 64.91061 64.26561
# Shear Modulus (GPa) = 24.57970 29.85587 27.21778
#
# Velocity S-wave (km/s) = 3.39384 3.74040 3.57133
# Velocity P-wave (km/s) = 6.72090 7.00511 6.86448
#
# Compressibility (1/GPa) = 0.01571817
#
# Stress axis : x y z
#
# Youngs Moduli (GPa) = 80.71978 80.71876 101.71838
#
# Poissons Ratio (x) = 0.51190 0.15785
# Poissons Ratio (y) = 0.51191 0.15781
# Poissons Ratio (z) = 0.12526 0.12523
#
# Static dielectric constant tensor:
#      x y z
#    x 1.753850 0.000000 0.000000 
#    y 0.000000 1.753840 0.000000 
#    z 0.000000 0.000000 1.736820 
# 
# From -- ./inp_files/402.got.cif
#   From: 2010.05.17/outbox.cif.g08.bks.cpg/sg96_1_cif.got.tgz:402.got - 2010.06.03 19:52:08.
