data_PCOD9550793
_publ_section_title
;
Structure prediction by ZEFSAII (Michael W. Deem and Ramdas Pophale) SiO2 
 PCOD9550793
Probable space group: P 43 21 2
;
_chemical_formula_sum "Si O2"
_cell_formula_units_Z 48
_cell_length_a 23.136798
_cell_length_b 23.136798
_cell_length_c 5.304583
_cell_angle_alpha 90.000000
_cell_angle_beta 90.000000
_cell_angle_gamma 90.000000
_cell_volume 2839.603867
_symmetry_space_group_name_H-M "P 43 21 2"
_symmetry_group_IT_number 96
_symmetry_cell_setting 'tetragonal'
loop_
_space_group_symop_operation_xyz
x,y,z
1/2-y,1/2+x,3/4+z
-x,-y,1/2+z
1/2+y,1/2-x,1/4+z
1/2+x,1/2-y,1/4-z
1/2-x,1/2+y,3/4-z
y,x,-z
-y,-x,1/2-z
loop_
_atom_site_type_symbol
_atom_site_label
_atom_site_fract_x
_atom_site_fract_y
_atom_site_fract_z
Si Si1 0.004719 0.669922 0.802938
Si Si2 0.282591 0.048941 0.176248
Si Si3 0.944316 0.565832 0.977344
Si Si4 0.377908 0.145732 0.164717
Si Si5 0.213113 0.738832 0.497031
Si Si6 0.360815 0.687485 0.001610
O O1 0.991691 0.711776 0.567375
O O2 0.968636 0.609900 0.766030
O O3 0.072634 0.655328 0.793440
O O4 0.981609 0.695349 0.067166
O O5 0.325466 0.102206 0.103851
O O6 0.221245 0.078731 0.231129
O O7 0.934189 0.500065 0.907144
O O8 0.887669 0.590352 0.108850
O O9 0.347501 0.205391 0.241013
O O10 0.222834 0.777167 0.250000
O O11 0.262383 0.688608 0.486994
O O12 0.225509 0.774492 0.750000
O O13 0.350727 0.649274 0.250000
O O14 0.348322 0.651679 0.750000
#
# Coordination Sequence:
#
# PCOD9550793 Si02
#       6
#     8   8   8   8   8   8
#     4  11  21  33  46  65  91 124 159 199 242 280
#     4  10  21  32  46  67  90 116 158 198 231 278
#     4  11  21  33  48  68  96 131 174 213 247 281
#     4  10  20  33  49  66  90 124 159 200 246 284
#     4   9  19  32  48  67  85 108 149 200 244 287
#     4   9  16  29  47  65  85 111 143 188 237 276
#
# _framework density 16.903766999999998
#
# number of rings (size 3 to 8) (size 9 to 14) (size 15 to 20)
#    0.000    2.000    0.000    5.000    0.000   12.000 
#    0.000    0.000    0.000    0.000    0.000    0.000 
#    0.000    0.000    0.000    0.000    0.000   46.667 
#
# Total GULP energy -267743.747775 kJ/mol
# GULP energy per Si atom -5577.994745 kJ/mol
# Density = 1.686529 g / cm^3
# Si number density = 16.903767 Si / 1000 Ang^3
#
#
#
# Elastic Constant Matrix: (Units=GPa)
#
#
# Indices 1 2 3 4 5 6 
#
# 1 69.3750 23.6513 28.8092 0.0000 0.0000 0.0000
# 2 23.6513 69.3773 28.8057 0.0000 0.0000 0.0000
# 3 28.8092 28.8057 89.1111 0.0000 0.0000 0.0000
# 4 0.0000 0.0000 0.0000 18.6064 0.0000 0.0000
# 5 0.0000 0.0000 0.0000 0.0000 18.6065 0.0000
# 6 0.0000 0.0000 0.0000 0.0000 0.0000 36.0920
#
#
#
# Elastic Compliance Matrix: (Units=1/GPa)
#
#
# Indices 1 2 3 4 5 6 
#
# 1 0.017656 -0.004215 -0.004346 0.000000 0.000000 0.000000
# 2 -0.004215 0.017655 -0.004344 0.000000 0.000000 0.000000
# 3 -0.004346 -0.004344 0.014031 0.000000 0.000000 0.000000
# 4 0.000000 0.000000 0.000000 0.053745 0.000000 0.000000
# 5 0.000000 0.000000 0.000000 0.000000 0.053745 0.000000
# 6 0.000000 0.000000 0.000000 0.000000 0.000000 0.027707
#
#
# Mechanical properties :
#
#
# Convention : Reuss Voigt Hill
#
# Bulk Modulus (GPa) = 42.49487 43.37733 42.93610
# Shear Modulus (GPa) = 22.91563 24.43412 23.67487
#
# Velocity S-wave (km/s) = 3.68591 3.80608 3.74648
# Velocity P-wave (km/s) = 6.58092 6.71059 6.64607
#
# Compressibility (1/GPa) = 0.02353225
#
# Stress axis : x y z
#
# Youngs Moduli (GPa) = 56.63824 56.64258 71.26971
#
# Poissons Ratio (x) = 0.23873 0.30971
# Poissons Ratio (y) = 0.23871 0.30962
# Poissons Ratio (z) = 0.24613 0.24607
#
# Static dielectric constant tensor:
#      x y z
#    x 1.580860 0.000000 0.000000 
#    y 0.000000 1.580860 0.000000 
#    z 0.000000 0.000000 1.647730 
# 
# From -- ./inp_files/630.got.cif
#   From: 2010.05.17/outbox.cif.g08.bks.cpg/sg96_1_cif.got.tgz:630.got - 2010.06.03 19:52:08.
