data_PCOD9550351
_publ_section_title
;
Structure prediction by ZEFSAII (Michael W. Deem and Ramdas Pophale) SiO2 
 PCOD9550351
Probable space group: P 42 21 2
;
_chemical_formula_sum "Si O2"
_cell_formula_units_Z 32
_cell_length_a 7.547393
_cell_length_b 7.547393
_cell_length_c 22.409525
_cell_angle_alpha 90.000000
_cell_angle_beta 90.000000
_cell_angle_gamma 90.000000
_cell_volume 1276.516934
_symmetry_space_group_name_H-M "P 42 21 2"
_symmetry_group_IT_number 94
_symmetry_cell_setting 'tetragonal'
loop_
_space_group_symop_operation_xyz
x,y,z
1/2-y,1/2+x,1/2+z
-x,-y,z
1/2+y,1/2-x,1/2+z
1/2+x,1/2-y,1/2-z
1/2-x,1/2+y,1/2-z
y,x,-z
-y,-x,-z
loop_
_atom_site_type_symbol
_atom_site_label
_atom_site_fract_x
_atom_site_fract_y
_atom_site_fract_z
Si Si1 0.799843 0.925784 0.693642
Si Si2 0.239603 0.308035 0.902996
Si Si3 0.982805 0.289125 0.171528
Si Si4 0.808461 0.472655 0.019245
O O1 0.755669 0.727742 0.671229
O O2 0.300539 0.934948 0.651944
O O3 0.760932 0.939703 0.763673
O O4 0.000000 0.000000 0.688549
O O5 0.161377 0.394611 0.962675
O O6 0.202659 0.109631 0.878964
O O7 0.442440 0.309622 0.928168
O O8 0.000000 0.500000 0.170106
O O9 0.000000 0.500000 0.046927
O O10 0.708536 0.291465 0.000000
#
# Coordination Sequence:
#
# PCOD9550351 Si02
#       4
#     8   8   8   8
#     4  12  23  43  68 108 143 195 240 311 385 467
#     4  11  24  45  73 102 145 201 251 311 393 471
#     4  12  24  41  69 104 147 189 248 301 381 469
#     4  11  26  48  77 107 143 200 263 324 392 470
#
# _framework density 25.068213
#
# number of rings (size 3 to 8) (size 9 to 14) (size 15 to 20)
#    0.000    0.500    5.000    3.750    3.500    1.000 
#    4.500    2.500    0.000    0.000    0.000    0.000 
#    0.000    0.000    0.000    0.000    0.000    0.000 
#
# Total GULP energy -178433.316824 kJ/mol
# GULP energy per Si atom -5576.041151 kJ/mol
# Density = 2.501116 g / cm^3
# Si number density = 25.068213 Si / 1000 Ang^3
#
#
#
# Elastic Constant Matrix: (Units=GPa)
#
#
# Indices 1 2 3 4 5 6 
#
# 1 147.5554 30.2567 30.2170 0.0000 0.0000 0.0000
# 2 30.2567 147.5557 30.2171 0.0000 0.0000 0.0000
# 3 30.2170 30.2171 158.9096 0.0000 0.0000 0.0000
# 4 0.0000 0.0000 0.0000 30.3051 0.0000 0.0000
# 5 0.0000 0.0000 0.0000 0.0000 30.3046 0.0000
# 6 0.0000 0.0000 0.0000 0.0000 0.0000 14.3813
#
#
#
# Elastic Compliance Matrix: (Units=1/GPa)
#
#
# Indices 1 2 3 4 5 6 
#
# 1 0.007269 -0.001256 -0.001143 0.000000 0.000000 0.000000
# 2 -0.001256 0.007269 -0.001143 0.000000 0.000000 0.000000
# 3 -0.001143 -0.001143 0.006728 0.000000 0.000000 0.000000
# 4 0.000000 0.000000 0.000000 0.032998 0.000000 0.000000
# 5 0.000000 0.000000 0.000000 0.000000 0.032998 0.000000
# 6 0.000000 0.000000 0.000000 0.000000 0.000000 0.069535
#
#
# Mechanical properties :
#
#
# Convention : Reuss Voigt Hill
#
# Bulk Modulus (GPa) = 70.52435 70.60026 70.56230
# Shear Modulus (GPa) = 29.65445 39.22018 34.43732
#
# Velocity S-wave (km/s) = 3.44314 3.95972 3.71043
# Velocity P-wave (km/s) = 6.63332 7.00929 6.82390
#
# Compressibility (1/GPa) = 0.01417950
#
# Stress axis : x y z
#
# Youngs Moduli (GPa) = 137.57303 137.57331 148.63957
#
# Poissons Ratio (x) = 0.17284 0.16994
# Poissons Ratio (y) = 0.17284 0.16994
# Poissons Ratio (z) = 0.15729 0.15729
#
# Static dielectric constant tensor:
#      x y z
#    x 1.929510 0.000000 0.000000 
#    y 0.000000 1.929510 0.000000 
#    z 0.000000 0.000000 1.983810 
# 
# From -- ./inp_files/4391.got.cif
#   From: 2010.05.17/outbox.cif.g08.bks.cpg/sg94_3_cif.got.tgz:4391.got - 2010.06.03 19:43:16.
