data_PCOD9551178
_publ_section_title
;
Structure prediction by ZEFSAII (Michael W. Deem and Ramdas Pophale) SiO2 
 PCOD9551178
Probable space group: P 43 21 2
;
_chemical_formula_sum "Si O2"
_cell_formula_units_Z 28
_cell_length_a 11.075155
_cell_length_b 11.075155
_cell_length_c 9.049199
_cell_angle_alpha 90.000000
_cell_angle_beta 90.000000
_cell_angle_gamma 90.000000
_cell_volume 1109.966227
_symmetry_space_group_name_H-M "P 43 21 2"
_symmetry_group_IT_number 96
_symmetry_cell_setting 'tetragonal'
loop_
_space_group_symop_operation_xyz
x,y,z
1/2-y,1/2+x,3/4+z
-x,-y,1/2+z
1/2+y,1/2-x,1/4+z
1/2+x,1/2-y,1/4-z
1/2-x,1/2+y,3/4-z
y,x,-z
-y,-x,1/2-z
loop_
_atom_site_type_symbol
_atom_site_label
_atom_site_fract_x
_atom_site_fract_y
_atom_site_fract_z
Si Si1 0.590522 0.409479 0.750000
Si Si2 0.686950 0.955713 0.219814
Si Si3 0.761716 0.068621 0.811275
Si Si4 0.714487 0.909481 0.522099
O O1 0.574933 0.295084 0.858075
O O2 0.478830 0.381792 0.643775
O O3 0.759845 0.977450 0.375782
O O4 0.609346 0.077147 0.222212
O O5 0.592986 0.848268 0.173413
O O6 0.802569 0.197431 0.750000
O O7 0.727199 0.976516 0.678121
O O8 0.782567 0.782567 0.500000
#
# Coordination Sequence:
#
# PCOD9551178 Si02
#       4
#     4   8   8   8
#     4  12  26  50  76 118 162 216 268 352 424 498
#     4  12  28  48  80 115 167 217 274 344 426 503
#     4  12  30  52  82 122 172 216 282 358 429 510
#     4  12  30  50  81 121 158 219 285 346 422 517
#
# _framework density 25.225992000000002
#
# number of rings (size 3 to 8) (size 9 to 14) (size 15 to 20)
#    0.000    0.000    7.143    0.000   14.000    1.143 
#    0.000    0.000    0.000    0.000    0.000    0.000 
#    0.000    0.000    0.000    0.000    0.000    0.000 
#
# Total GULP energy -155952.982188 kJ/mol
# GULP energy per Si atom -5569.749364 kJ/mol
# Density = 2.516858 g / cm^3
# Si number density = 25.225992 Si / 1000 Ang^3
#
#
#
# Elastic Constant Matrix: (Units=GPa)
#
#
# Indices 1 2 3 4 5 6 
#
# 1 64.3024 33.9817 23.4313 0.0000 0.0000 0.0000
# 2 33.9817 64.3022 23.4320 0.0000 0.0000 0.0000
# 3 23.4313 23.4320 155.7422 0.0000 0.0000 0.0000
# 4 0.0000 0.0000 0.0000 112.1218 0.0000 0.0000
# 5 0.0000 0.0000 0.0000 0.0000 112.1102 0.0000
# 6 0.0000 0.0000 0.0000 0.0000 0.0000 26.5638
#
#
#
# Elastic Compliance Matrix: (Units=1/GPa)
#
#
# Indices 1 2 3 4 5 6 
#
# 1 0.021971 -0.011010 -0.001649 0.000000 0.000000 0.000000
# 2 -0.011010 0.021971 -0.001649 0.000000 0.000000 0.000000
# 3 -0.001649 -0.001649 0.006917 0.000000 0.000000 0.000000
# 4 0.000000 0.000000 0.000000 0.008919 0.000000 0.000000
# 5 0.000000 0.000000 0.000000 0.000000 0.008920 0.000000
# 6 0.000000 0.000000 0.000000 0.000000 0.000000 0.037645
#
#
# Mechanical properties :
#
#
# Convention : Reuss Voigt Hill
#
# Bulk Modulus (GPa) = 44.95886 49.55965 47.25926
# Shear Modulus (GPa) = 35.11896 63.72593 49.42245
#
# Velocity S-wave (km/s) = 3.73523 5.03159 4.43107
# Velocity P-wave (km/s) = 6.03852 7.31059 6.70479
#
# Compressibility (1/GPa) = 0.02224256
#
# Stress axis : x y z
#
# Youngs Moduli (GPa) = 45.51495 45.51462 144.56963
#
# Poissons Ratio (x) = 0.50111 0.23840
# Poissons Ratio (y) = 0.50112 0.23842
# Poissons Ratio (z) = 0.07505 0.07506
#
# Static dielectric constant tensor:
#      x y z
#    x 1.049980 0.000000 0.000000 
#    y 0.000000 1.050080 0.000000 
#    z 0.000000 0.000000 2.602890 
# 
# From -- ./inp_files/1019.got.cif
#   From: 2010.05.17/outbox.cif.g08.bks.cpg/sg96_1_cif.got.tgz:1019.got - 2010.06.03 19:52:08.
