data_PCOD9551916
_publ_section_title
;
Structure prediction by ZEFSAII (Michael W. Deem and Ramdas Pophale) SiO2 
 PCOD9551916
Probable space group: I 41 2 2
;
_chemical_formula_sum "Si O2"
_cell_formula_units_Z 108
_cell_length_a 15.756392
_cell_length_b 15.756392
_cell_length_c 22.961287
_cell_angle_alpha 90.000000
_cell_angle_beta 90.000000
_cell_angle_gamma 90.000000
_cell_volume 5700.458404
_symmetry_space_group_name_H-M "I 41 2 2"
_symmetry_group_IT_number 98
_symmetry_cell_setting 'tetragonal'
loop_
_space_group_symop_operation_xyz
x,y,z
-y,1/2+x,1/4+z
-x,-y,z
y,1/2-x,1/4+z
x,1/2-y,1/4-z
-x,1/2+y,1/4-z
y,x,-z
-y,-x,-z
1/2+x,1/2+y,1/2+z
1/2-y,x,3/4+z
1/2-x,1/2-y,1/2+z
1/2+y,-x,3/4+z
1/2+x,-y,3/4-z
1/2-x,y,3/4-z
1/2+y,1/2+x,1/2-z
1/2-y,1/2-x,1/2-z
loop_
_atom_site_type_symbol
_atom_site_label
_atom_site_fract_x
_atom_site_fract_y
_atom_site_fract_z
Si Si1 0.476397 0.164946 0.592336
Si Si2 0.183863 0.750000 0.625000
Si Si3 0.032856 0.366128 0.343052
Si Si4 0.305746 0.250833 0.434376
Si Si5 0.386212 0.071354 0.037504
Si Si6 0.500000 0.500000 0.500000
Si Si7 0.383597 0.584589 0.798155
Si Si8 0.372975 0.670448 0.331732
O O1 0.446347 0.250000 0.625000
O O2 0.438867 0.079920 0.620050
O O3 0.443415 0.156632 0.526218
O O4 0.577701 0.162790 0.599465
O O5 0.121581 0.685220 0.592047
O O6 0.250792 0.809924 0.590134
O O7 0.110602 0.308689 0.322308
O O8 0.996672 0.414934 0.287784
O O9 0.959915 0.321283 0.380853
O O10 0.266539 0.266539 0.500000
O O11 0.250000 0.260767 0.375000
O O12 0.348655 0.158722 0.433781
O O13 0.485149 0.095470 0.039605
O O14 0.376784 0.976522 0.063363
O O15 0.346101 0.610141 0.735742
#
# Coordination Sequence:
#
# PCOD9551916 Si02
#       8
#    16   8  16  16  16   4  16  16
#     4  11  20  37  64  94 132 173 215 261 317 403
#     4  12  24  42  62 100 126 162 220 288 328 380
#     4  12  22  40  58  95 136 180 213 254 325 398
#     4  12  26  42  65  99 135 174 227 284 331 397
#     4  10  22  43  67  95 121 175 223 265 342 402
#     4  12  24  32  60  92 136 188 216 248 310 396
#     4  10  23  43  70  89 126 171 218 275 339 406
#     4  11  22  40  62  95 131 172 217 262 333 393
#
# _framework density 18.945846
#
# number of rings (size 3 to 8) (size 9 to 14) (size 15 to 20)
#    0.000    0.889    4.444    3.556    1.037    0.000 
#    2.667    0.000    0.000    0.000    0.000    3.111 
#    0.000    0.000    0.000    0.000    0.000    0.000 
#
# Total GULP energy -300879.554381 kJ/mol
# GULP energy per Si atom -5571.843600 kJ/mol
# Density = 1.890272 g / cm^3
# Si number density = 18.945846 Si / 1000 Ang^3
#
#
#
# Elastic Constant Matrix: (Units=GPa)
#
#
# Indices 1 2 3 4 5 6 
#
# 1 103.4363 57.3641 45.3851 0.0000 0.0000 0.0000
# 2 57.3641 103.4363 45.3851 0.0000 0.0000 0.0000
# 3 45.3851 45.3851 68.6010 0.0000 0.0000 0.0000
# 4 0.0000 0.0000 0.0000 16.2543 0.0000 0.0000
# 5 0.0000 0.0000 0.0000 0.0000 16.2543 0.0000
# 6 0.0000 0.0000 0.0000 0.0000 0.0000 38.5648
#
#
#
# Elastic Compliance Matrix: (Units=1/GPa)
#
#
# Indices 1 2 3 4 5 6 
#
# 1 0.015815 -0.005890 -0.006567 0.000000 0.000000 0.000000
# 2 -0.005890 0.015815 -0.006567 0.000000 0.000000 0.000000
# 3 -0.006567 -0.006567 0.023266 0.000000 0.000000 0.000000
# 4 0.000000 0.000000 0.000000 0.061522 0.000000 0.000000
# 5 0.000000 0.000000 0.000000 0.000000 0.061522 0.000000
# 6 0.000000 0.000000 0.000000 0.000000 0.000000 0.025930
#
#
# Mechanical properties :
#
#
# Convention : Reuss Voigt Hill
#
# Bulk Modulus (GPa) = 59.34513 63.52690 61.43601
# Shear Modulus (GPa) = 20.19925 22.70398 21.45161
#
# Velocity S-wave (km/s) = 3.26875 3.46549 3.36856
# Velocity P-wave (km/s) = 6.75558 7.04389 6.90124
#
# Compressibility (1/GPa) = 0.01685058
#
# Stress axis : x y z
#
# Youngs Moduli (GPa) = 63.22953 63.22953 42.98161
#
# Poissons Ratio (x) = 0.37240 0.28224
# Poissons Ratio (y) = 0.37240 0.28224
# Poissons Ratio (z) = 0.41521 0.41521
#
# Static dielectric constant tensor:
#      x y z
#    x 1.705140 0.000000 0.000000 
#    y 0.000000 1.705140 0.000000 
#    z 0.000000 0.000000 1.712640 
# 
# From -- ./inp_files/10147.got.cif
#   From: 2010.05.17/outbox.cif.g08.bks.cpg/sg98_6_cif.got.tgz:10147.got - 2010.06.03 20:00:51.
