data_PCOD9551065
_publ_section_title
;
Structure prediction by ZEFSAII (Michael W. Deem and Ramdas Pophale) SiO2 
 PCOD9551065
Probable space group: P 43 21 2
;
_chemical_formula_sum "Si O2"
_cell_formula_units_Z 48
_cell_length_a 8.312897
_cell_length_b 8.312897
_cell_length_c 29.242823
_cell_angle_alpha 90.000000
_cell_angle_beta 90.000000
_cell_angle_gamma 90.000000
_cell_volume 2020.803542
_symmetry_space_group_name_H-M "P 43 21 2"
_symmetry_group_IT_number 96
_symmetry_cell_setting 'tetragonal'
loop_
_space_group_symop_operation_xyz
x,y,z
1/2-y,1/2+x,3/4+z
-x,-y,1/2+z
1/2+y,1/2-x,1/4+z
1/2+x,1/2-y,1/4-z
1/2-x,1/2+y,3/4-z
y,x,-z
-y,-x,1/2-z
loop_
_atom_site_type_symbol
_atom_site_label
_atom_site_fract_x
_atom_site_fract_y
_atom_site_fract_z
Si Si1 0.572433 0.698309 0.402906
Si Si2 0.085239 0.692323 0.397691
Si Si3 0.680553 0.680553 0.500000
Si Si4 0.309234 0.690767 0.250000
Si Si5 0.064552 0.682521 0.595140
Si Si6 0.934890 0.563355 0.247226
Si Si7 0.440845 0.658058 0.152242
O O1 0.604121 0.623190 0.452308
O O2 0.634213 0.595463 0.359302
O O3 0.387722 0.684686 0.388389
O O4 0.635842 0.878602 0.401795
O O5 0.120790 0.637097 0.449130
O O6 0.114403 0.878845 0.391027
O O7 0.150700 0.581673 0.356220
O O8 0.896714 0.659681 0.387499
O O9 0.870462 0.620720 0.498072
O O10 0.389625 0.626083 0.203803
O O11 0.120692 0.629923 0.247331
O O12 0.126319 0.644535 0.544351
#
# Coordination Sequence:
#
# PCOD9551065 Si02
#       7
#     8   8   4   4   8   8   8
#     4  11  24  45  72 107 148 200 258 316 387 463
#     4  12  25  50  71 105 147 195 253 322 389 471
#     4  10  24  45  79 112 150 202 258 322 386 474
#     4  12  26  49  77 114 154 204 256 322 402 478
#     4  11  23  46  73 103 150 192 254 318 383 463
#     4  11  25  46  80 110 154 198 257 321 400 471
#     4  12  28  45  75 106 149 198 255 321 397 464
#
# _framework density 23.752928000000001
#
# number of rings (size 3 to 8) (size 9 to 14) (size 15 to 20)
#    0.000    0.667    3.333    4.000    7.000    0.000 
#    6.000    0.000    0.000    0.000    0.000    0.000 
#    0.000    0.000    0.000    0.000    0.000    0.000 
#
# Total GULP energy -267389.364649 kJ/mol
# GULP energy per Si atom -5570.611764 kJ/mol
# Density = 2.369886 g / cm^3
# Si number density = 23.752928 Si / 1000 Ang^3
#
#
#
# Elastic Constant Matrix: (Units=GPa)
#
#
# Indices 1 2 3 4 5 6 
#
# 1 43.5066 36.6928 35.2277 0.0000 0.0000 0.0000
# 2 36.6928 43.5069 35.2276 0.0000 0.0000 0.0000
# 3 35.2277 35.2276 191.8779 0.0000 0.0000 0.0000
# 4 0.0000 0.0000 0.0000 42.3869 0.0000 0.0000
# 5 0.0000 0.0000 0.0000 0.0000 42.3869 0.0000
# 6 0.0000 0.0000 0.0000 0.0000 0.0000 55.8298
#
#
#
# Elastic Compliance Matrix: (Units=1/GPa)
#
#
# Indices 1 2 3 4 5 6 
#
# 1 0.080813 -0.065945 -0.002730 0.000000 0.000000 0.000000
# 2 -0.065945 0.080812 -0.002729 0.000000 0.000000 0.000000
# 3 -0.002730 -0.002729 0.006214 0.000000 0.000000 0.000000
# 4 0.000000 0.000000 0.000000 0.023592 0.000000 0.000000
# 5 0.000000 0.000000 0.000000 0.000000 0.023592 0.000000
# 6 0.000000 0.000000 0.000000 0.000000 0.000000 0.017912
#
#
# Mechanical properties :
#
#
# Convention : Reuss Voigt Hill
#
# Bulk Modulus (GPa) = 39.95281 54.79861 47.37571
# Shear Modulus (GPa) = 13.01791 39.57028 26.29410
#
# Velocity S-wave (km/s) = 2.34360 4.08599 3.33075
# Velocity P-wave (km/s) = 4.91731 6.73652 5.89749
#
# Compressibility (1/GPa) = 0.02502953
#
# Stress axis : x y z
#
# Youngs Moduli (GPa) = 12.37430 12.37444 160.93040
#
# Poissons Ratio (x) = 0.81604 0.43927
# Poissons Ratio (y) = 0.81603 0.43923
# Poissons Ratio (z) = 0.03378 0.03377
#
# Static dielectric constant tensor:
#      x y z
#    x 1.920660 0.000000 0.000000 
#    y 0.000000 1.920660 0.000000 
#    z 0.000000 0.000000 1.816050 
# 
# From -- ./inp_files/4513.got.cif
#   From: 2010.05.17/outbox.cif.g08.bks.cpg/sg96_3_cif.got.tgz:4513.got - 2010.06.03 19:52:08.
