data_PCOD9551405
_publ_section_title
;
Structure prediction by ZEFSAII (Michael W. Deem and Ramdas Pophale) SiO2 
 PCOD9551405
Probable space group: I 4 2 2 
;
_chemical_formula_sum "Si O2"
_cell_formula_units_Z 56
_cell_length_a 17.285949
_cell_length_b 17.285949
_cell_length_c 9.419363
_cell_angle_alpha 90.000000
_cell_angle_beta 90.000000
_cell_angle_gamma 90.000000
_cell_volume 2814.543651
_symmetry_space_group_name_H-M "I 4 2 2 "
_symmetry_group_IT_number 97
_symmetry_cell_setting 'tetragonal'
loop_
_space_group_symop_operation_xyz
x,y,z
-y,x,z
-x,-y,z
y,-x,z
x,-y,-z
-x,y,-z
y,x,-z
-y,-x,-z
1/2+x,1/2+y,1/2+z
1/2-y,1/2+x,1/2+z
1/2-x,1/2-y,1/2+z
1/2+y,1/2-x,1/2+z
1/2+x,1/2-y,1/2-z
1/2-x,1/2+y,1/2-z
1/2+y,1/2+x,1/2-z
1/2-y,1/2-x,1/2-z
loop_
_atom_site_type_symbol
_atom_site_label
_atom_site_fract_x
_atom_site_fract_y
_atom_site_fract_z
Si Si1 0.234444 0.999907 0.234140
Si Si2 0.872115 0.258638 0.000465
Si Si3 0.000000 0.873543 0.500000
Si Si4 0.382102 0.937173 0.606025
O O1 0.168319 0.994568 0.349063
O O2 0.225034 0.069682 0.120894
O O3 0.304625 0.024533 0.334765
O O4 0.250075 0.921184 0.145533
O O5 0.866524 0.350980 0.039846
O O6 0.792726 0.207275 0.000000
O O7 0.075376 0.924625 0.500000
O O8 0.429552 0.929552 0.750000
O O9 0.415637 0.000000 0.500000
#
# Coordination Sequence:
#
# PCOD9551405 Si02
#       4
#    16  16   8  16
#     4  10  21  42  62  94 136 161 218 279 318 385
#     4  10  22  42  69  94 126 179 223 261 326 399
#     4  11  22  36  60  94 131 170 208 266 345 396
#     4  10  22  44  64  94 131 168 216 270 329 384
#
# _framework density 19.896653000000001
#
# number of rings (size 3 to 8) (size 9 to 14) (size 15 to 20)
#    0.000    1.857    1.429    1.714    0.000    2.286 
#   15.429   21.429    0.000    6.857    0.000    0.000 
#    0.000    0.000    0.000    0.000    0.000    0.000 
#
# Total GULP energy -155989.445444 kJ/mol
# GULP energy per Si atom -5571.051623 kJ/mol
# Density = 1.985137 g / cm^3
# Si number density = 19.896653 Si / 1000 Ang^3
#
#
#
# Elastic Constant Matrix: (Units=GPa)
#
#
# Indices 1 2 3 4 5 6 
#
# 1 37.4046 174.8012 87.5917 0.0000 0.0000 0.0000
# 2 174.8012 37.4020 87.5882 0.0000 0.0000 0.0000
# 3 87.5917 87.5882 163.5032 0.0000 0.0000 0.0000
# 4 0.0000 0.0000 0.0000 9.6846 0.0000 0.0000
# 5 0.0000 0.0000 0.0000 0.0000 9.7183 0.0000
# 6 0.0000 0.0000 0.0000 0.0000 0.0000 -6.0118
#
#
#
# Elastic Compliance Matrix: (Units=1/GPa)
#
#
# Indices 1 2 3 4 5 6 
#
# 1 0.000585 0.007863 -0.004526 0.000000 0.000000 0.000000
# 2 0.007863 0.000585 -0.004526 0.000000 0.000000 0.000000
# 3 -0.004526 -0.004526 0.010965 0.000000 0.000000 0.000000
# 4 0.000000 0.000000 0.000000 0.103256 0.000000 0.000000
# 5 0.000000 0.000000 0.000000 0.000000 0.102899 0.000000
# 6 0.000000 0.000000 0.000000 0.000000 0.000000 -0.166340
#
#
# Mechanical properties :
#
#
# Convention : Reuss Voigt Hill
#
# Bulk Modulus (GPa) = 102.47289 104.25245 103.36267
# Shear Modulus (GPa) = 86.83296 -4.76653 41.03322
#
# Velocity S-wave (km/s) = 6.61338 -1.54947 4.54620
# Velocity P-wave (km/s) = 10.48475 7.02208 8.92299
#
# Compressibility (1/GPa) = 0.00975868
#
# Stress axis : x y z
#
# Youngs Moduli (GPa) = 1708.45334 1708.23267 91.19555
#
# Poissons Ratio (x) = -13.43268 0.41275
# Poissons Ratio (y) = -13.43441 0.41277
# Poissons Ratio (z) = 7.73250 7.73184
#
# Static dielectric constant tensor:
#      x y z
#    x 1.735020 0.000000 0.000000 
#    y 0.000000 1.735000 0.000000 
#    z 0.000000 0.000000 1.608000 
# 
# From -- ./inp_files/1866.got.cif
#   From: 2010.05.17/outbox.cif.g08.bks.cpg/sg97_1_cif.got.tgz:1866.got - 2010.06.03 19:55:32.
