data_PCOD9551833
_publ_section_title
;
Structure prediction by ZEFSAII (Michael W. Deem and Ramdas Pophale) SiO2 
 PCOD9551833
Probable space group: I 41 2 2
;
_chemical_formula_sum "Si O2"
_cell_formula_units_Z 116
_cell_length_a 18.016750
_cell_length_b 18.016750
_cell_length_c 16.771406
_cell_angle_alpha 90.000000
_cell_angle_beta 90.000000
_cell_angle_gamma 90.000000
_cell_volume 5444.053407
_symmetry_space_group_name_H-M "I 41 2 2"
_symmetry_group_IT_number 98
_symmetry_cell_setting 'tetragonal'
loop_
_space_group_symop_operation_xyz
x,y,z
-y,1/2+x,1/4+z
-x,-y,z
y,1/2-x,1/4+z
x,1/2-y,1/4-z
-x,1/2+y,1/4-z
y,x,-z
-y,-x,-z
1/2+x,1/2+y,1/2+z
1/2-y,x,3/4+z
1/2-x,1/2-y,1/2+z
1/2+y,-x,3/4+z
1/2+x,-y,3/4-z
1/2-x,y,3/4-z
1/2+y,1/2+x,1/2-z
1/2-y,1/2-x,1/2-z
loop_
_atom_site_type_symbol
_atom_site_label
_atom_site_fract_x
_atom_site_fract_y
_atom_site_fract_z
Si Si1 0.928018 0.050601 0.741322
Si Si2 0.352778 0.013669 0.150016
Si Si3 0.465585 0.803595 0.929546
Si Si4 0.500000 0.000000 0.250000
Si Si5 0.823755 0.675494 0.574669
Si Si6 0.674554 0.150564 0.827921
Si Si7 0.163243 0.005207 0.894423
Si Si8 0.129343 0.331758 0.384302
O O1 0.954802 0.135065 0.751589
O O2 0.890487 0.020566 0.822233
O O3 0.864026 0.038012 0.677018
O O4 0.000000 0.000000 0.723952
O O5 0.349445 0.098912 0.118351
O O6 0.281196 0.986093 0.198720
O O7 0.426251 0.002253 0.199050
O O8 0.391379 0.813248 0.877882
O O9 0.540346 0.825154 0.882307
O O10 0.847305 0.750000 0.625000
O O11 0.735149 0.668401 0.587637
O O12 0.847209 0.673154 0.480177
O O13 0.750000 0.144258 0.875000
O O14 0.694960 0.194960 0.750000
O O15 0.655481 0.066012 0.799158
O O16 0.250000 0.008135 0.875000
O O17 0.145723 0.090466 0.907610
#
# Coordination Sequence:
#
# PCOD9551833 Si02
#       8
#    16  16  16   4  16  16  16  16
#     4  11  19  43  70  93 130 187 223 279 340 417
#     4  11  25  44  71  97 139 179 232 290 348 408
#     4  10  24  40  71  97 129 178 236 268 354 417
#     4  12  28  48  64 108 136 184 238 296 344 412
#     4  11  24  40  67  98 141 182 226 282 339 408
#     4  10  24  43  67  97 136 174 224 293 356 411
#     4  10  21  36  63  91 131 173 226 272 338 400
#     4  11  22  41  63  98 135 181 232 274 333 417
#
# _framework density 21.307652999999998
#
# number of rings (size 3 to 8) (size 9 to 14) (size 15 to 20)
#    0.000    1.379    3.448    0.828    9.655    0.000 
#    1.241    3.448    0.000    0.828    0.000    0.000 
#    0.000    0.000    0.000    0.000    0.000    0.000 
#
# Total GULP energy -323344.917332 kJ/mol
# GULP energy per Si atom -5574.912368 kJ/mol
# Density = 2.125916 g / cm^3
# Si number density = 21.307653 Si / 1000 Ang^3
#
#
#
# Elastic Constant Matrix: (Units=GPa)
#
#
# Indices 1 2 3 4 5 6 
#
# 1 115.2924 62.1966 22.9441 0.0000 0.0000 0.0000
# 2 62.1966 115.2924 22.9441 0.0000 0.0000 0.0000
# 3 22.9441 22.9441 53.6064 0.0000 0.0000 0.0000
# 4 0.0000 0.0000 0.0000 17.7925 0.0000 0.0000
# 5 0.0000 0.0000 0.0000 0.0000 17.7925 0.0000
# 6 0.0000 0.0000 0.0000 0.0000 0.0000 16.9604
#
#
#
# Elastic Compliance Matrix: (Units=1/GPa)
#
#
# Indices 1 2 3 4 5 6 
#
# 1 0.012585 -0.006249 -0.002712 0.000000 0.000000 0.000000
# 2 -0.006249 0.012585 -0.002712 0.000000 0.000000 0.000000
# 3 -0.002712 -0.002712 0.020976 0.000000 0.000000 0.000000
# 4 0.000000 0.000000 0.000000 0.056203 0.000000 0.000000
# 5 0.000000 0.000000 0.000000 0.000000 0.056203 0.000000
# 6 0.000000 0.000000 0.000000 0.000000 0.000000 0.058961
#
#
# Mechanical properties :
#
#
# Convention : Reuss Voigt Hill
#
# Bulk Modulus (GPa) = 43.85985 55.59563 49.72774
# Shear Modulus (GPa) = 20.12419 22.24951 21.18685
#
# Velocity S-wave (km/s) = 3.07654 3.23492 3.15672
# Velocity P-wave (km/s) = 5.76618 6.33257 6.05600
#
# Compressibility (1/GPa) = 0.02279990
#
# Stress axis : x y z
#
# Youngs Moduli (GPa) = 79.46254 79.46254 47.67442
#
# Poissons Ratio (x) = 0.49659 0.12927
# Poissons Ratio (y) = 0.49659 0.12927
# Poissons Ratio (z) = 0.21546 0.21546
#
# Static dielectric constant tensor:
#      x y z
#    x 1.819400 0.000000 0.000000 
#    y 0.000000 1.819400 0.000000 
#    z 0.000000 0.000000 1.765670 
# 
# From -- ./inp_files/7829.got.cif
#   From: 2010.05.17/outbox.cif.g08.bks.cpg/sg98_4_cif.got.tgz:7829.got - 2010.06.03 20:00:51.
