data_PCOD9551258
_publ_section_title
;
Structure prediction by ZEFSAII (Michael W. Deem and Ramdas Pophale) SiO2 
 PCOD9551258
Probable space group: I 4 2 2 
;
_chemical_formula_sum "Si O2"
_cell_formula_units_Z 96
_cell_length_a 19.588862
_cell_length_b 19.588862
_cell_length_c 13.429408
_cell_angle_alpha 90.000000
_cell_angle_beta 90.000000
_cell_angle_gamma 90.000000
_cell_volume 5153.179635
_symmetry_space_group_name_H-M "I 4 2 2 "
_symmetry_group_IT_number 97
_symmetry_cell_setting 'tetragonal'
loop_
_space_group_symop_operation_xyz
x,y,z
-y,x,z
-x,-y,z
y,-x,z
x,-y,-z
-x,y,-z
y,x,-z
-y,-x,-z
1/2+x,1/2+y,1/2+z
1/2-y,1/2+x,1/2+z
1/2-x,1/2-y,1/2+z
1/2+y,1/2-x,1/2+z
1/2+x,1/2-y,1/2-z
1/2-x,1/2+y,1/2-z
1/2+y,1/2+x,1/2-z
1/2-y,1/2-x,1/2-z
loop_
_atom_site_type_symbol
_atom_site_label
_atom_site_fract_x
_atom_site_fract_y
_atom_site_fract_z
Si Si1 0.552314 0.885161 0.850905
Si Si2 0.267262 0.079285 0.167946
Si Si3 0.444123 0.253464 0.747220
Si Si4 0.113232 0.688514 0.955175
Si Si5 0.699398 0.302520 0.784341
Si Si6 0.920649 0.420649 0.250000
Si Si7 0.769608 0.769608 0.500000
O O1 0.587984 0.912017 0.750000
O O2 0.547625 0.803673 0.833344
O O3 0.606207 0.895521 0.940633
O O4 0.478389 0.921343 0.837221
O O5 0.235971 0.148978 0.209461
O O6 0.344987 0.072105 0.206373
O O7 0.222976 0.018947 0.216037
O O8 0.277409 0.077537 0.050137
O O9 0.416876 0.218668 0.645825
O O10 0.383719 0.303769 0.775785
O O11 0.192016 0.711399 0.969714
O O12 0.773958 0.273958 0.750000
O O13 0.688269 0.283611 0.899346
#
# Coordination Sequence:
#
# PCOD9551258 Si02
#       7
#    16  16  16  16  16   8   8
#     4   9  18  31  50  72 106 160 197 228 288 357
#     4  11  22  34  53  84 116 149 197 260 298 355
#     4  10  20  35  53  77 115 153 190 239 300 361
#     4  11  18  32  53  82 111 151 206 241 297 364
#     4  12  20  38  58  83 113 149 197 246 310 364
#     4  10  19  34  46  74 120 156 196 245 296 350
#     4  12  20  32  62  90 106 152 202 254 300 368
#
# _framework density 18.629275
#
# number of rings (size 3 to 8) (size 9 to 14) (size 15 to 20)
#    0.000    1.333    5.833    1.250    0.000    0.667 
#    0.000    0.833    0.000    6.500    0.000    0.000 
#    0.000    5.333    0.000    0.000    0.000    0.000 
#
# Total GULP energy -267353.174085 kJ/mol
# GULP energy per Si atom -5569.857793 kJ/mol
# Density = 1.858687 g / cm^3
# Si number density = 18.629275 Si / 1000 Ang^3
#
#
#
# Elastic Constant Matrix: (Units=GPa)
#
#
# Indices 1 2 3 4 5 6 
#
# 1 59.6709 16.2211 1.0259 0.0000 0.0000 0.0000
# 2 16.2211 59.6710 1.0259 0.0000 0.0000 0.0000
# 3 1.0259 1.0259 65.7872 0.0000 0.0000 0.0000
# 4 0.0000 0.0000 0.0000 21.7076 0.0000 0.0000
# 5 0.0000 0.0000 0.0000 0.0000 21.7078 0.0000
# 6 0.0000 0.0000 0.0000 0.0000 0.0000 16.7026
#
#
#
# Elastic Compliance Matrix: (Units=1/GPa)
#
#
# Indices 1 2 3 4 5 6 
#
# 1 0.018099 -0.004916 -0.000206 0.000000 0.000000 0.000000
# 2 -0.004916 0.018099 -0.000206 0.000000 0.000000 0.000000
# 3 -0.000206 -0.000206 0.015207 0.000000 0.000000 0.000000
# 4 0.000000 0.000000 0.000000 0.046067 0.000000 0.000000
# 5 0.000000 0.000000 0.000000 0.000000 0.046066 0.000000
# 6 0.000000 0.000000 0.000000 0.000000 0.000000 0.059871
#
#
# Mechanical properties :
#
#
# Convention : Reuss Voigt Hill
#
# Bulk Modulus (GPa) = 24.54048 24.63055 24.58551
# Shear Modulus (GPa) = 21.96390 23.14736 22.55563
#
# Velocity S-wave (km/s) = 3.43738 3.52877 3.48338
# Velocity P-wave (km/s) = 5.38106 5.46380 5.42259
#
# Compressibility (1/GPa) = 0.04074901
#
# Stress axis : x y z
#
# Youngs Moduli (GPa) = 55.25286 55.25297 65.75949
#
# Poissons Ratio (x) = 0.27165 0.01352
# Poissons Ratio (y) = 0.27165 0.01352
# Poissons Ratio (z) = 0.01136 0.01136
#
# Static dielectric constant tensor:
#      x y z
#    x 1.685760 0.000000 0.000000 
#    y 0.000000 1.685760 0.000000 
#    z 0.000000 0.000000 1.668680 
# 
# From -- ./inp_files/3909.got.cif
#   From: 2010.05.17/outbox.cif.g08.bks.cpg/sg97_2_cif.got.tgz:3909.got - 2010.06.03 19:55:32.
