data_PCOD9551043
_publ_section_title
;
Structure prediction by ZEFSAII (Michael W. Deem and Ramdas Pophale) SiO2 
 PCOD9551043
Probable space group: P 43 21 2
;
_chemical_formula_sum "Si O2"
_cell_formula_units_Z 40
_cell_length_a 14.812236
_cell_length_b 14.812236
_cell_length_c 8.401255
_cell_angle_alpha 90.000000
_cell_angle_beta 90.000000
_cell_angle_gamma 90.000000
_cell_volume 1843.254967
_symmetry_space_group_name_H-M "P 43 21 2"
_symmetry_group_IT_number 96
_symmetry_cell_setting 'tetragonal'
loop_
_space_group_symop_operation_xyz
x,y,z
1/2-y,1/2+x,3/4+z
-x,-y,1/2+z
1/2+y,1/2-x,1/4+z
1/2+x,1/2-y,1/4-z
1/2-x,1/2+y,3/4-z
y,x,-z
-y,-x,1/2-z
loop_
_atom_site_type_symbol
_atom_site_label
_atom_site_fract_x
_atom_site_fract_y
_atom_site_fract_z
Si Si1 0.454255 0.105338 0.915320
Si Si2 0.088417 0.842079 0.416153
Si Si3 0.190737 0.002357 0.573052
Si Si4 0.652139 0.398308 0.005012
Si Si5 0.181217 0.707552 0.632565
O O1 0.476822 0.205680 0.851280
O O2 0.431136 0.035782 0.774874
O O3 0.367750 0.126107 0.026222
O O4 0.142673 0.857328 0.250000
O O5 0.124951 0.920130 0.531126
O O6 0.114968 0.748616 0.499595
O O7 0.983818 0.853246 0.371871
O O8 0.150996 0.057993 0.720848
O O9 0.185281 0.062848 0.414366
O O10 0.725741 0.327670 0.061382
O O11 0.212286 0.787715 0.750000
#
# Coordination Sequence:
#
# PCOD9551043 Si02
#       5
#     8   8   8   8   8
#     4  12  28  47  73 105 146 194 243 304 369 444
#     4  10  23  46  71 105 143 188 236 306 368 437
#     4  10  23  47  70 107 142 185 240 306 361 438
#     4  10  24  44  74 102 139 187 243 296 372 438
#     4  12  24  46  70 104 142 190 238 300 363 442
#
# _framework density 21.700741000000001
#
# number of rings (size 3 to 8) (size 9 to 14) (size 15 to 20)
#    0.000    1.200    2.000    2.400    5.600    1.600 
#   32.400    0.000    0.000    0.000    0.000    0.000 
#    0.000    0.000    0.000    0.000    0.000    0.000 
#
# Total GULP energy -223826.776908 kJ/mol
# GULP energy per Si atom -5595.669423 kJ/mol
# Density = 2.165135 g / cm^3
# Si number density = 21.700741 Si / 1000 Ang^3
#
#
#
# Elastic Constant Matrix: (Units=GPa)
#
#
# Indices 1 2 3 4 5 6 
#
# 1 80.1578 61.8867 47.2521 0.0000 0.0000 0.0000
# 2 61.8867 80.1644 47.2545 0.0000 0.0000 0.0000
# 3 47.2521 47.2545 70.3903 0.0000 0.0000 0.0000
# 4 0.0000 0.0000 0.0000 43.9367 0.0000 0.0000
# 5 0.0000 0.0000 0.0000 0.0000 43.9371 0.0000
# 6 0.0000 0.0000 0.0000 0.0000 0.0000 46.1108
#
#
#
# Elastic Compliance Matrix: (Units=1/GPa)
#
#
# Indices 1 2 3 4 5 6 
#
# 1 0.033723 -0.021000 -0.008540 0.000000 0.000000 0.000000
# 2 -0.021000 0.033720 -0.008540 0.000000 0.000000 0.000000
# 3 -0.008540 -0.008540 0.025673 0.000000 0.000000 0.000000
# 4 0.000000 0.000000 0.000000 0.022760 0.000000 0.000000
# 5 0.000000 0.000000 0.000000 0.000000 0.022760 0.000000
# 6 0.000000 0.000000 0.000000 0.000000 0.000000 0.021687
#
#
# Mechanical properties :
#
#
# Convention : Reuss Voigt Hill
#
# Bulk Modulus (GPa) = 58.97805 60.38877 59.68341
# Shear Modulus (GPa) = 20.64966 31.75153 26.20059
#
# Velocity S-wave (km/s) = 3.08809 3.82927 3.47848
# Velocity P-wave (km/s) = 6.32076 6.88763 6.61027
#
# Compressibility (1/GPa) = 0.01695546
#
# Stress axis : x y z
#
# Youngs Moduli (GPa) = 29.65359 29.65560 38.95193
#
# Poissons Ratio (x) = 0.62276 0.33265
# Poissons Ratio (y) = 0.62272 0.33267
# Poissons Ratio (z) = 0.25324 0.25327
#
# Static dielectric constant tensor:
#      x y z
#    x 1.767230 0.000000 0.000000 
#    y 0.000000 1.767230 0.000000 
#    z 0.000000 0.000000 1.857910 
# 
# From -- ./inp_files/1286.got.cif
#   From: 2010.05.17/outbox.cif.g08.bks.cpg/sg96_1_cif.got.tgz:1286.got - 2010.06.03 19:52:08.
