data_PCOD9551335
_publ_section_title
;
Structure prediction by ZEFSAII (Michael W. Deem and Ramdas Pophale) SiO2 
 PCOD9551335
Probable space group: I 4 2 2 
;
_chemical_formula_sum "Si O2"
_cell_formula_units_Z 72
_cell_length_a 18.649268
_cell_length_b 18.649268
_cell_length_c 9.404988
_cell_angle_alpha 90.000000
_cell_angle_beta 90.000000
_cell_angle_gamma 90.000000
_cell_volume 3271.009654
_symmetry_space_group_name_H-M "I 4 2 2 "
_symmetry_group_IT_number 97
_symmetry_cell_setting 'tetragonal'
loop_
_space_group_symop_operation_xyz
x,y,z
-y,x,z
-x,-y,z
y,-x,z
x,-y,-z
-x,y,-z
y,x,-z
-y,-x,-z
1/2+x,1/2+y,1/2+z
1/2-y,1/2+x,1/2+z
1/2-x,1/2-y,1/2+z
1/2+y,1/2-x,1/2+z
1/2+x,1/2-y,1/2-z
1/2-x,1/2+y,1/2-z
1/2+y,1/2+x,1/2-z
1/2-y,1/2-x,1/2-z
loop_
_atom_site_type_symbol
_atom_site_label
_atom_site_fract_x
_atom_site_fract_y
_atom_site_fract_z
Si Si1 0.666227 0.218586 0.024042
Si Si2 0.084799 0.075969 0.828327
Si Si3 0.427043 0.110064 0.094474
Si Si4 0.239528 0.106817 0.814371
Si Si5 0.190205 0.500000 0.500000
O O1 0.729792 0.164486 0.073559
O O2 0.617265 0.222663 0.164351
O O3 0.706378 0.293623 0.000000
O O4 0.613174 0.187583 0.902867
O O5 0.155452 0.119003 0.791704
O O6 0.005991 0.097330 0.778425
O O7 0.079038 0.079038 0.000000
O O8 0.427533 0.072468 0.250000
O O9 0.365899 0.063993 0.017695
O O10 0.500000 0.109582 0.000000
O O11 0.258146 0.028245 0.875761
#
# Coordination Sequence:
#
# PCOD9551335 Si02
#       5
#    16  16  16  16   8
#     4  10  23  40  58  89 125 173 218 279 336 415
#     4   9  17  31  54  88 123 159 211 274 335 398
#     4  11  24  42  66  97 134 176 228 281 343 411
#     4  10  20  37  60  88 126 164 223 268 338 411
#     4  10  21  38  64  91 126 170 210 272 332 397
#
# _framework density 22.011551000000001
#
# number of rings (size 3 to 8) (size 9 to 14) (size 15 to 20)
#    0.000    2.000    0.000    4.333    3.111    5.333 
#    4.000    0.000    0.000    0.000    0.000    1.556 
#    0.000    0.000    0.000    0.000    0.000    0.000 
#
# Total GULP energy -200408.275018 kJ/mol
# GULP energy per Si atom -5566.896528 kJ/mol
# Density = 2.196145 g / cm^3
# Si number density = 22.011551 Si / 1000 Ang^3
#
#
#
# Elastic Constant Matrix: (Units=GPa)
#
#
# Indices 1 2 3 4 5 6 
#
# 1 63.2386 45.1553 35.5003 0.0000 0.0000 0.0000
# 2 45.1553 63.2403 35.5006 0.0000 0.0000 0.0000
# 3 35.5003 35.5006 49.0428 0.0000 0.0000 0.0000
# 4 0.0000 0.0000 0.0000 22.6576 0.0000 0.0000
# 5 0.0000 0.0000 0.0000 0.0000 22.6580 0.0000
# 6 0.0000 0.0000 0.0000 0.0000 0.0000 32.0817
#
#
#
# Elastic Compliance Matrix: (Units=1/GPa)
#
#
# Indices 1 2 3 4 5 6 
#
# 1 0.036421 -0.018876 -0.012700 0.000000 0.000000 0.000000
# 2 -0.018876 0.036420 -0.012699 0.000000 0.000000 0.000000
# 3 -0.012700 -0.012699 0.038776 0.000000 0.000000 0.000000
# 4 0.000000 0.000000 0.000000 0.044135 0.000000 0.000000
# 5 0.000000 0.000000 0.000000 0.000000 0.044135 0.000000
# 6 0.000000 0.000000 0.000000 0.000000 0.000000 0.031170
#
#
# Mechanical properties :
#
#
# Convention : Reuss Voigt Hill
#
# Bulk Modulus (GPa) = 43.35422 45.31489 44.33455
# Shear Modulus (GPa) = 15.27667 19.43717 17.35692
#
# Velocity S-wave (km/s) = 2.63730 2.97483 2.81114
# Velocity P-wave (km/s) = 5.38634 5.69483 5.54273
#
# Compressibility (1/GPa) = 0.02306580
#
# Stress axis : x y z
#
# Youngs Moduli (GPa) = 27.45667 27.45754 25.78926
#
# Poissons Ratio (x) = 0.51830 0.32752
# Poissons Ratio (y) = 0.51828 0.32750
# Poissons Ratio (z) = 0.34869 0.34869
#
# Static dielectric constant tensor:
#      x y z
#    x 1.881020 0.000000 0.000000 
#    y 0.000000 1.881020 0.000000 
#    z 0.000000 0.000000 1.846550 
# 
# From -- ./inp_files/2198.got.cif
#   From: 2010.05.17/outbox.cif.g08.bks.cpg/sg97_2_cif.got.tgz:2198.got - 2010.06.03 19:55:32.
