data_PCOD9551543
_publ_section_title
;
Structure prediction by ZEFSAII (Michael W. Deem and Ramdas Pophale) SiO2 
 PCOD9551543
Probable space group: I 4 2 2 
;
_chemical_formula_sum "Si O2"
_cell_formula_units_Z 88
_cell_length_a 14.346227
_cell_length_b 14.346227
_cell_length_c 23.510640
_cell_angle_alpha 90.000000
_cell_angle_beta 90.000000
_cell_angle_gamma 90.000000
_cell_volume 4838.824248
_symmetry_space_group_name_H-M "I 4 2 2 "
_symmetry_group_IT_number 97
_symmetry_cell_setting 'tetragonal'
loop_
_space_group_symop_operation_xyz
x,y,z
-y,x,z
-x,-y,z
y,-x,z
x,-y,-z
-x,y,-z
y,x,-z
-y,-x,-z
1/2+x,1/2+y,1/2+z
1/2-y,1/2+x,1/2+z
1/2-x,1/2-y,1/2+z
1/2+y,1/2-x,1/2+z
1/2+x,1/2-y,1/2-z
1/2-x,1/2+y,1/2-z
1/2+y,1/2+x,1/2-z
1/2-y,1/2-x,1/2-z
loop_
_atom_site_type_symbol
_atom_site_label
_atom_site_fract_x
_atom_site_fract_y
_atom_site_fract_z
Si Si1 0.378942 0.406134 0.911360
Si Si2 0.278555 0.721446 0.000000
Si Si3 0.397462 0.105259 0.976316
Si Si4 0.076660 0.416836 0.343476
Si Si5 0.133584 0.073490 0.276402
Si Si6 0.475600 0.179251 0.252559
O O1 0.484356 0.374357 0.925714
O O2 0.313445 0.338591 0.946028
O O3 0.360348 0.406961 0.843828
O O4 0.172583 0.687585 0.993275
O O5 0.401763 0.107646 0.907948
O O6 0.500000 0.136646 0.000000
O O7 0.385201 0.000000 0.000000
O O8 0.162539 0.458048 0.306647
O O9 0.000000 0.500000 0.346914
O O10 0.035416 0.331598 0.305797
O O11 0.231493 0.090956 0.247059
O O12 0.036379 0.120914 0.261684
O O13 0.410624 0.089377 0.250000
#
# Coordination Sequence:
#
# PCOD9551543 Si02
#       6
#    16   8  16  16  16  16
#     4   9  18  32  49  77 120 154 182 223 280 356
#     4  12  24  31  54  91 112 158 202 236 284 362
#     4  11  23  39  60  84 120 159 188 243 299 354
#     4   9  18  37  57  80 109 145 187 232 293 332
#     4   9  19  34  51  75 114 154 181 226 289 341
#     4   9  19  34  58  80 106 142 191 242 273 332
#
# _framework density 18.186235
#
# number of rings (size 3 to 8) (size 9 to 14) (size 15 to 20)
#    0.000    2.364    1.818    3.818    7.636    0.727 
#    3.273    1.818    0.000    0.273    0.000    0.000 
#    0.000    0.000    0.000    0.000    0.000    0.000 
#
# Total GULP energy -245030.704908 kJ/mol
# GULP energy per Si atom -5568.879657 kJ/mol
# Density = 1.814484 g / cm^3
# Si number density = 18.186235 Si / 1000 Ang^3
#
#
#
# Elastic Constant Matrix: (Units=GPa)
#
#
# Indices 1 2 3 4 5 6 
#
# 1 59.3529 16.6380 17.7500 0.0000 0.0000 0.0000
# 2 16.6380 59.3550 17.7505 0.0000 0.0000 0.0000
# 3 17.7500 17.7505 80.4368 0.0000 0.0000 0.0000
# 4 0.0000 0.0000 0.0000 4.6204 0.0000 0.0000
# 5 0.0000 0.0000 0.0000 0.0000 4.6240 0.0000
# 6 0.0000 0.0000 0.0000 0.0000 0.0000 20.3075
#
#
#
# Elastic Compliance Matrix: (Units=1/GPa)
#
#
# Indices 1 2 3 4 5 6 
#
# 1 0.019041 -0.004369 -0.003238 0.000000 0.000000 0.000000
# 2 -0.004369 0.019041 -0.003238 0.000000 0.000000 0.000000
# 3 -0.003238 -0.003238 0.013861 0.000000 0.000000 0.000000
# 4 0.000000 0.000000 0.000000 0.216430 0.000000 0.000000
# 5 0.000000 0.000000 0.000000 0.000000 0.216264 0.000000
# 6 0.000000 0.000000 0.000000 0.000000 0.000000 0.049243
#
#
# Mechanical properties :
#
#
# Convention : Reuss Voigt Hill
#
# Bulk Modulus (GPa) = 33.05351 33.71352 33.38351
# Shear Modulus (GPa) = 8.83933 15.71081 12.27507
#
# Velocity S-wave (km/s) = 2.20704 2.94238 2.60083
# Velocity P-wave (km/s) = 4.97083 5.48832 5.23597
#
# Compressibility (1/GPa) = 0.03025397
#
# Stress axis : x y z
#
# Youngs Moduli (GPa) = 52.51705 52.51884 72.14463
#
# Poissons Ratio (x) = 0.22947 0.23358
# Poissons Ratio (y) = 0.22946 0.23358
# Poissons Ratio (z) = 0.17003 0.17004
#
# Static dielectric constant tensor:
#      x y z
#    x 1.662360 0.000000 0.000000 
#    y 0.000000 1.662360 0.000000 
#    z 0.000000 0.000000 1.630600 
# 
# From -- ./inp_files/7189.got.cif
#   From: 2010.05.17/outbox.cif.g08.bks.cpg/sg97_4_cif.got.tgz:7189.got - 2010.06.03 19:55:32.
