data_PCOD9551355
_publ_section_title
;
Structure prediction by ZEFSAII (Michael W. Deem and Ramdas Pophale) SiO2 
 PCOD9551355
Probable space group: I 4 2 2 
;
_chemical_formula_sum "Si O2"
_cell_formula_units_Z 112
_cell_length_a 14.012842
_cell_length_b 14.012842
_cell_length_c 24.536362
_cell_angle_alpha 90.000000
_cell_angle_beta 90.000000
_cell_angle_gamma 90.000000
_cell_volume 4817.953685
_symmetry_space_group_name_H-M "I 4 2 2 "
_symmetry_group_IT_number 97
_symmetry_cell_setting 'tetragonal'
loop_
_space_group_symop_operation_xyz
x,y,z
-y,x,z
-x,-y,z
y,-x,z
x,-y,-z
-x,y,-z
y,x,-z
-y,-x,-z
1/2+x,1/2+y,1/2+z
1/2-y,1/2+x,1/2+z
1/2-x,1/2-y,1/2+z
1/2+y,1/2-x,1/2+z
1/2+x,1/2-y,1/2-z
1/2-x,1/2+y,1/2-z
1/2+y,1/2+x,1/2-z
1/2-y,1/2-x,1/2-z
loop_
_atom_site_type_symbol
_atom_site_label
_atom_site_fract_x
_atom_site_fract_y
_atom_site_fract_z
Si Si1 0.731944 0.889333 0.789271
Si Si2 0.805053 0.396582 0.528915
Si Si3 0.095579 0.443763 0.130300
Si Si4 0.861630 0.918900 0.356790
Si Si5 0.232825 0.099863 0.471410
Si Si6 0.930921 0.708562 0.717103
Si Si7 0.910757 0.134753 0.888592
O O1 0.694532 0.805469 0.750000
O O2 0.640194 0.917255 0.826097
O O3 0.816110 0.873793 0.832678
O O4 0.747814 0.983476 0.753912
O O5 0.811297 0.500000 0.500000
O O6 0.886615 0.377357 0.575424
O O7 0.828908 0.319233 0.483111
O O8 0.704904 0.385882 0.561042
O O9 0.159779 0.519265 0.163978
O O10 0.000000 0.500000 0.116842
O O11 0.798691 0.898897 0.409493
O O12 0.802160 0.880190 0.305985
O O13 0.966682 0.875136 0.356607
O O14 0.138483 0.138483 0.500000
O O15 0.255580 0.000000 0.500000
O O16 0.865430 0.634571 0.750000
O O17 0.026738 0.127872 0.890340
#
# Coordination Sequence:
#
# PCOD9551355 Si02
#       7
#    16  16  16  16  16  16  16
#     4   9  20  40  69 103 140 187 241 299 363 435
#     4  11  28  43  70 110 151 194 253 316 377 450
#     4  10  20  39  66  97 143 192 238 300 368 440
#     4  11  26  48  73 105 147 192 244 300 363 449
#     4  12  26  47  76 111 149 199 246 307 382 461
#     4  11  22  41  71 102 140 186 240 299 365 429
#     4  10  24  49  76 103 146 200 251 307 377 454
#
# _framework density 23.246383999999999
#
# number of rings (size 3 to 8) (size 9 to 14) (size 15 to 20)
#    0.000    1.429    2.857    0.857    6.000    1.286 
#    0.000    5.000    0.000    0.000    0.000    0.000 
#    0.000    0.000    0.000    0.000    0.000    0.000 
#
# Total GULP energy -313137.369624 kJ/mol
# GULP energy per Si atom -5591.738743 kJ/mol
# Density = 2.319347 g / cm^3
# Si number density = 23.246384 Si / 1000 Ang^3
#
#
#
# Elastic Constant Matrix: (Units=GPa)
#
#
# Indices 1 2 3 4 5 6 
#
# 1 72.1028 69.7743 54.5014 0.0000 0.0000 0.0000
# 2 69.7743 72.1056 54.5025 0.0000 0.0000 0.0000
# 3 54.5014 54.5025 124.7300 0.0000 0.0000 0.0000
# 4 0.0000 0.0000 0.0000 6.4768 0.0000 0.0000
# 5 0.0000 0.0000 0.0000 0.0000 6.4772 0.0000
# 6 0.0000 0.0000 0.0000 0.0000 0.0000 -232.4379
#
#
#
# Elastic Compliance Matrix: (Units=1/GPa)
#
#
# Indices 1 2 3 4 5 6 
#
# 1 0.219911 -0.209297 -0.004636 0.000000 0.000000 0.000000
# 2 -0.209297 0.219903 -0.004636 0.000000 0.000000 0.000000
# 3 -0.004636 -0.004636 0.012069 0.000000 0.000000 0.000000
# 4 0.000000 0.000000 0.000000 0.154398 0.000000 0.000000
# 5 0.000000 0.000000 0.000000 0.000000 0.154389 0.000000
# 6 0.000000 0.000000 0.000000 0.000000 0.000000 -0.004302
#
#
# Mechanical properties :
#
#
# Convention : Reuss Voigt Hill
#
# Bulk Modulus (GPa) = 67.82169 69.61054 68.71612
# Shear Modulus (GPa) = 4.17216 -37.88612 -16.85698
#
# Velocity S-wave (km/s) = 1.34114 -4.04141 -2.69577
# Velocity P-wave (km/s) = 5.62465 2.86920 4.46481
#
# Compressibility (1/GPa) = 0.01474455
#
# Stress axis : x y z
#
# Youngs Moduli (GPa) = 4.54728 4.54746 82.85665
#
# Poissons Ratio (x) = 0.95177 0.38414
# Poissons Ratio (y) = 0.95173 0.38415
# Poissons Ratio (z) = 0.02108 0.02108
#
# Static dielectric constant tensor:
#      x y z
#    x 1.889380 0.000000 0.000000 
#    y 0.000000 1.889380 0.000000 
#    z 0.000000 0.000000 1.893120 
# 
# From -- ./inp_files/7277.got.cif
#   From: 2010.05.17/outbox.cif.g08.bks.cpg/sg97_4_cif.got.tgz:7277.got - 2010.06.03 19:55:32.
