data_PCOD9551832
_publ_section_title
;
Structure prediction by ZEFSAII (Michael W. Deem and Ramdas Pophale) SiO2 
 PCOD9551832
Probable space group: I 41 2 2
;
_chemical_formula_sum "Si O2"
_cell_formula_units_Z 96
_cell_length_a 16.797135
_cell_length_b 16.797135
_cell_length_c 18.138518
_cell_angle_alpha 90.000000
_cell_angle_beta 90.000000
_cell_angle_gamma 90.000000
_cell_volume 5117.669383
_symmetry_space_group_name_H-M "I 41 2 2"
_symmetry_group_IT_number 98
_symmetry_cell_setting 'tetragonal'
loop_
_space_group_symop_operation_xyz
x,y,z
-y,1/2+x,1/4+z
-x,-y,z
y,1/2-x,1/4+z
x,1/2-y,1/4-z
-x,1/2+y,1/4-z
y,x,-z
-y,-x,-z
1/2+x,1/2+y,1/2+z
1/2-y,x,3/4+z
1/2-x,1/2-y,1/2+z
1/2+y,-x,3/4+z
1/2+x,-y,3/4-z
1/2-x,y,3/4-z
1/2+y,1/2+x,1/2-z
1/2-y,1/2-x,1/2-z
loop_
_atom_site_type_symbol
_atom_site_label
_atom_site_fract_x
_atom_site_fract_y
_atom_site_fract_z
Si Si1 0.840485 0.028490 0.003103
Si Si2 0.196348 0.438472 0.760152
Si Si3 0.426574 0.441884 0.380621
Si Si4 0.806091 0.006997 0.647254
Si Si5 0.404293 0.370571 0.225703
Si Si6 0.913602 0.033611 0.381957
O O1 0.884942 0.968922 0.060009
O O2 0.755061 0.036336 0.040769
O O3 0.889416 0.110585 0.000000
O O4 0.856434 0.988971 0.923238
O O5 0.128525 0.371476 0.750000
O O6 0.222772 0.480682 0.683802
O O7 0.276961 0.397741 0.788759
O O8 0.154810 0.504045 0.812746
O O9 0.500000 0.500000 0.358513
O O10 0.395962 0.394634 0.310386
O O11 0.845748 0.926435 0.679301
O O12 0.874015 0.072166 0.631201
O O13 0.491101 0.395187 0.195390
O O14 0.000000 0.000000 0.408364
#
# Coordination Sequence:
#
# PCOD9551832 Si02
#       6
#    16  16  16  16  16  16
#     4   9  19  37  61  87 119 160 203 251 309 372
#     4  12  22  38  59  88 128 162 200 260 321 370
#     4   9  17  35  59  83 113 155 200 245 298 366
#     4  11  22  37  61  92 117 162 210 251 307 383
#     4  11  22  36  58  91 120 153 205 257 308 370
#     4  10  21  36  61  87 120 158 218 255 298 378
#
# _framework density 18.75854
#
# number of rings (size 3 to 8) (size 9 to 14) (size 15 to 20)
#    0.000    1.667    5.000    3.500    0.000    0.667 
#    3.000    1.667    0.000    4.000    0.000    0.000 
#    0.000    0.000    0.000    0.000    0.000    0.000 
#
# Total GULP energy -267553.138404 kJ/mol
# GULP energy per Si atom -5574.023717 kJ/mol
# Density = 1.871584 g / cm^3
# Si number density = 18.758540 Si / 1000 Ang^3
#
#
#
# Elastic Constant Matrix: (Units=GPa)
#
#
# Indices 1 2 3 4 5 6 
#
# 1 72.1428 40.5204 40.7449 0.0000 0.0000 0.0000
# 2 40.5204 72.1476 40.7421 0.0000 0.0000 0.0000
# 3 40.7449 40.7421 101.5312 0.0000 0.0000 0.0000
# 4 0.0000 0.0000 0.0000 18.9479 0.0000 0.0000
# 5 0.0000 0.0000 0.0000 0.0000 18.9487 0.0000
# 6 0.0000 0.0000 0.0000 0.0000 0.0000 15.0046
#
#
#
# Elastic Compliance Matrix: (Units=1/GPa)
#
#
# Indices 1 2 3 4 5 6 
#
# 1 0.022064 -0.009558 -0.005019 0.000000 0.000000 0.000000
# 2 -0.009558 0.022062 -0.005017 0.000000 0.000000 0.000000
# 3 -0.005019 -0.005017 0.013877 0.000000 0.000000 0.000000
# 4 0.000000 0.000000 0.000000 0.052776 0.000000 0.000000
# 5 0.000000 0.000000 0.000000 0.000000 0.052774 0.000000
# 6 0.000000 0.000000 0.000000 0.000000 0.000000 0.066646
#
#
# Mechanical properties :
#
#
# Convention : Reuss Voigt Hill
#
# Bulk Modulus (GPa) = 53.15089 54.42629 53.78859
# Shear Modulus (GPa) = 18.13833 18.83452 18.48642
#
# Velocity S-wave (km/s) = 3.11293 3.17211 3.14266
# Velocity P-wave (km/s) = 6.42777 6.51871 6.47340
#
# Compressibility (1/GPa) = 0.01881436
#
# Stress axis : x y z
#
# Youngs Moduli (GPa) = 45.32174 45.32748 72.06288
#
# Poissons Ratio (x) = 0.43323 0.36170
# Poissons Ratio (y) = 0.43317 0.36156
# Poissons Ratio (z) = 0.22748 0.22742
#
# Static dielectric constant tensor:
#      x y z
#    x 1.662560 0.000000 0.000000 
#    y 0.000000 1.662560 0.000000 
#    z 0.000000 0.000000 1.700550 
# 
# From -- ./inp_files/7683.got.cif
#   From: 2010.05.17/outbox.cif.g08.bks.cpg/sg98_4_cif.got.tgz:7683.got - 2010.06.03 20:00:51.
