data_PCOD9551731
_publ_section_title
;
Structure prediction by ZEFSAII (Michael W. Deem and Ramdas Pophale) SiO2 
 PCOD9551731
Probable space group: I 41 2 2
;
_chemical_formula_sum "Si O2"
_cell_formula_units_Z 96
_cell_length_a 15.248905
_cell_length_b 15.248905
_cell_length_c 20.788144
_cell_angle_alpha 90.000000
_cell_angle_beta 90.000000
_cell_angle_gamma 90.000000
_cell_volume 4833.848492
_symmetry_space_group_name_H-M "I 41 2 2"
_symmetry_group_IT_number 98
_symmetry_cell_setting 'tetragonal'
loop_
_space_group_symop_operation_xyz
x,y,z
-y,1/2+x,1/4+z
-x,-y,z
y,1/2-x,1/4+z
x,1/2-y,1/4-z
-x,1/2+y,1/4-z
y,x,-z
-y,-x,-z
1/2+x,1/2+y,1/2+z
1/2-y,x,3/4+z
1/2-x,1/2-y,1/2+z
1/2+y,-x,3/4+z
1/2+x,-y,3/4-z
1/2-x,y,3/4-z
1/2+y,1/2+x,1/2-z
1/2-y,1/2-x,1/2-z
loop_
_atom_site_type_symbol
_atom_site_label
_atom_site_fract_x
_atom_site_fract_y
_atom_site_fract_z
Si Si1 0.555795 0.089437 0.859800
Si Si2 0.091162 0.020386 0.639576
Si Si3 0.229239 0.077838 0.140211
Si Si4 0.180952 0.250000 0.625000
Si Si5 0.623546 0.128927 0.004040
Si Si6 0.444770 0.303238 0.219867
Si Si7 0.829857 0.170144 0.000000
O O1 0.484744 0.166979 0.850277
O O2 0.593936 0.097288 0.932603
O O3 0.632911 0.113284 0.810083
O O4 0.500000 0.000000 0.851460
O O5 0.178217 0.029161 0.598036
O O6 0.074757 0.110546 0.678008
O O7 0.109537 0.948192 0.694353
O O8 0.000000 0.000000 0.604855
O O9 0.256053 0.169274 0.109364
O O10 0.184808 0.091969 0.208830
O O11 0.114091 0.268897 0.683858
O O12 0.550162 0.202289 0.023697
O O13 0.725050 0.155932 0.006119
#
# Coordination Sequence:
#
# PCOD9551731 Si02
#       7
#    16  16  16   8  16  16   8
#     4  11  23  42  61  86 122 164 204 256 310 371
#     4   9  17  35  61  83 110 157 203 236 299 371
#     4  10  19  37  59  85 120 154 201 252 301 364
#     4  10  20  36  58  92 118 154 202 254 302 364
#     4  10  20  39  60  84 117 161 198 238 310 370
#     4   9  19  35  59  84 116 156 196 246 301 366
#     4  12  23  40  60  96 121 154 206 258 298 374
#
# _framework density 19.859953999999998
#
# number of rings (size 3 to 8) (size 9 to 14) (size 15 to 20)
#    0.000    2.000    1.667    3.750    0.000    0.000 
#    9.000    3.333    0.000    8.000    0.000    0.000 
#    0.000    0.000    0.000    0.000    0.000    0.000 
#
# Total GULP energy -267262.208181 kJ/mol
# GULP energy per Si atom -5567.962670 kJ/mol
# Density = 1.981475 g / cm^3
# Si number density = 19.859954 Si / 1000 Ang^3
#
#
#
# Elastic Constant Matrix: (Units=GPa)
#
#
# Indices 1 2 3 4 5 6 
#
# 1 92.1448 38.2989 -13.1341 0.0000 0.0000 0.0000
# 2 38.2989 92.1452 -13.1342 0.0000 0.0000 0.0000
# 3 -13.1341 -13.1342 13.5223 0.0000 0.0000 0.0000
# 4 0.0000 0.0000 0.0000 18.7096 0.0000 0.0000
# 5 0.0000 0.0000 0.0000 0.0000 18.7097 0.0000
# 6 0.0000 0.0000 0.0000 0.0000 0.0000 8.3536
#
#
#
# Elastic Compliance Matrix: (Units=1/GPa)
#
#
# Indices 1 2 3 4 5 6 
#
# 1 0.014051 -0.004521 0.009257 0.000000 0.000000 0.000000
# 2 -0.004521 0.014051 0.009257 0.000000 0.000000 0.000000
# 3 0.009257 0.009257 0.091934 0.000000 0.000000 0.000000
# 4 0.000000 0.000000 0.000000 0.053448 0.000000 0.000000
# 5 0.000000 0.000000 0.000000 0.000000 0.053448 0.000000
# 6 0.000000 0.000000 0.000000 0.000000 0.000000 0.119709
#
#
# Mechanical properties :
#
#
# Convention : Reuss Voigt Hill
#
# Bulk Modulus (GPa) = 6.75579 24.65258 15.70418
# Shear Modulus (GPa) = 13.58710 21.54003 17.56357
#
# Velocity S-wave (km/s) = 2.61846 3.29689 2.97706
# Velocity P-wave (km/s) = 3.54272 5.18969 4.44318
#
# Compressibility (1/GPa) = 0.14802128
#
# Stress axis : x y z
#
# Youngs Moduli (GPa) = 71.17008 71.17027 10.87736
#
# Poissons Ratio (x) = 0.32173 -0.10069
# Poissons Ratio (y) = 0.32173 -0.10069
# Poissons Ratio (z) = -0.65880 -0.65880
#
# Static dielectric constant tensor:
#      x y z
#    x 1.740440 0.000000 0.000000 
#    y 0.000000 1.740440 0.000000 
#    z 0.000000 0.000000 1.711080 
# 
# From -- ./inp_files/10064.got.cif
#   From: 2010.05.17/outbox.cif.g08.bks.cpg/sg98_6_cif.got.tgz:10064.got - 2010.06.03 20:00:51.
