data_PCOD9551261
_publ_section_title
;
Structure prediction by ZEFSAII (Michael W. Deem and Ramdas Pophale) SiO2 
 PCOD9551261
Probable space group: I 4 2 2 
;
_chemical_formula_sum "Si O2"
_cell_formula_units_Z 56
_cell_length_a 18.445660
_cell_length_b 18.445660
_cell_length_c 7.401661
_cell_angle_alpha 90.000000
_cell_angle_beta 90.000000
_cell_angle_gamma 90.000000
_cell_volume 2518.358702
_symmetry_space_group_name_H-M "I 4 2 2 "
_symmetry_group_IT_number 97
_symmetry_cell_setting 'tetragonal'
loop_
_space_group_symop_operation_xyz
x,y,z
-y,x,z
-x,-y,z
y,-x,z
x,-y,-z
-x,y,-z
y,x,-z
-y,-x,-z
1/2+x,1/2+y,1/2+z
1/2-y,1/2+x,1/2+z
1/2-x,1/2-y,1/2+z
1/2+y,1/2-x,1/2+z
1/2+x,1/2-y,1/2-z
1/2-x,1/2+y,1/2-z
1/2+y,1/2+x,1/2-z
1/2-y,1/2-x,1/2-z
loop_
_atom_site_type_symbol
_atom_site_label
_atom_site_fract_x
_atom_site_fract_y
_atom_site_fract_z
Si Si1 0.804880 0.500000 0.000000
Si Si2 0.230828 0.935123 0.860244
Si Si3 0.910037 0.920648 0.287453
Si Si4 0.084777 0.615769 0.044314
O O1 0.757979 0.529975 0.832132
O O2 0.859014 0.564921 0.061315
O O3 0.158881 0.889766 0.815838
O O4 0.299728 0.894178 0.945379
O O5 0.216957 0.000000 0.000000
O O6 0.904665 0.904665 0.500000
O O7 0.993125 0.902978 0.247328
O O8 0.089307 0.589307 0.250000
O O9 0.000000 0.610040 0.000000
#
# Coordination Sequence:
#
# PCOD9551261 Si02
#       4
#     8  16  16  16
#     4  10  19  34  54  81 118 164 202 254 292 349
#     4  10  21  34  53  88 118 156 192 250 310 368
#     4   9  18  35  60  88 114 141 193 250 311 374
#     4   9  19  32  51  82 116 156 203 252 300 354
#
# _framework density 22.236705000000001
#
# number of rings (size 3 to 8) (size 9 to 14) (size 15 to 20)
#    0.000    2.571    0.000    3.000    0.000   14.857 
#    0.000    1.429    0.000    0.000  193.143    0.000 
#    0.000    0.000    0.000    0.000    0.000    0.000 
#
# Total GULP energy -156180.689374 kJ/mol
# GULP energy per Si atom -5577.881763 kJ/mol
# Density = 2.218609 g / cm^3
# Si number density = 22.236705 Si / 1000 Ang^3
#
#
#
# Elastic Constant Matrix: (Units=GPa)
#
#
# Indices 1 2 3 4 5 6 
#
# 1 109.7130 15.3153 27.3492 0.0000 0.0000 0.0000
# 2 15.3153 109.7130 27.3492 0.0000 0.0000 0.0000
# 3 27.3492 27.3492 56.4766 0.0000 0.0000 0.0000
# 4 0.0000 0.0000 0.0000 34.7027 0.0000 0.0000
# 5 0.0000 0.0000 0.0000 0.0000 34.7027 0.0000
# 6 0.0000 0.0000 0.0000 0.0000 0.0000 -7.4505
#
#
#
# Elastic Compliance Matrix: (Units=1/GPa)
#
#
# Indices 1 2 3 4 5 6 
#
# 1 0.010371 -0.000223 -0.004914 0.000000 0.000000 0.000000
# 2 -0.000223 0.010371 -0.004914 0.000000 0.000000 0.000000
# 3 -0.004914 -0.004914 0.022466 0.000000 0.000000 0.000000
# 4 0.000000 0.000000 0.000000 0.028816 0.000000 0.000000
# 5 0.000000 0.000000 0.000000 0.000000 0.028816 0.000000
# 6 0.000000 0.000000 0.000000 0.000000 0.000000 -0.134219
#
#
# Mechanical properties :
#
#
# Convention : Reuss Voigt Hill
#
# Bulk Modulus (GPa) = 43.28052 46.21441 44.74747
# Shear Modulus (GPa) = -896.91739 26.11692 -435.40024
#
# Velocity S-wave (km/s) = -20.10536 3.43081 -14.00813
# Velocity P-wave (km/s) = 22.79170 6.04334 15.53930
#
# Compressibility (1/GPa) = 0.02310508
#
# Stress axis : x y z
#
# Youngs Moduli (GPa) = 96.42449 96.42449 44.51168
#
# Poissons Ratio (x) = 0.02147 0.21874
# Poissons Ratio (y) = 0.02147 0.21874
# Poissons Ratio (z) = 0.47386 0.47386
#
# Static dielectric constant tensor:
#      x y z
#    x 1.860170 0.000000 0.000000 
#    y 0.000000 1.860170 0.000000 
#    z 0.000000 0.000000 1.872440 
# 
# From -- ./inp_files/1843.got.cif
#   From: 2010.05.17/outbox.cif.g08.bks.cpg/sg97_1_cif.got.tgz:1843.got - 2010.06.03 19:55:32.
