data_PCOD9551035
_publ_section_title
;
Structure prediction by ZEFSAII (Michael W. Deem and Ramdas Pophale) SiO2 
 PCOD9551035
Probable space group: P 43 21 2
;
_chemical_formula_sum "Si O2"
_cell_formula_units_Z 32
_cell_length_a 7.712118
_cell_length_b 7.712118
_cell_length_c 21.151283
_cell_angle_alpha 90.000000
_cell_angle_beta 90.000000
_cell_angle_gamma 90.000000
_cell_volume 1258.009868
_symmetry_space_group_name_H-M "P 43 21 2"
_symmetry_group_IT_number 96
_symmetry_cell_setting 'tetragonal'
loop_
_space_group_symop_operation_xyz
x,y,z
1/2-y,1/2+x,3/4+z
-x,-y,1/2+z
1/2+y,1/2-x,1/4+z
1/2+x,1/2-y,1/4-z
1/2-x,1/2+y,3/4-z
y,x,-z
-y,-x,1/2-z
loop_
_atom_site_type_symbol
_atom_site_label
_atom_site_fract_x
_atom_site_fract_y
_atom_site_fract_z
Si Si1 0.537992 0.357976 0.131569
Si Si2 0.264138 0.270606 0.226559
Si Si3 0.086915 0.649245 0.396184
Si Si4 0.396167 0.755031 0.331384
O O1 0.597530 0.286921 0.063880
O O2 0.774417 0.692216 0.086320
O O3 0.435027 0.239102 0.182153
O O4 0.399611 0.514104 0.128426
O O5 0.720028 0.428111 0.158975
O O6 0.293682 0.181325 0.292256
O O7 0.254838 0.480835 0.230613
O O8 0.066120 0.444763 0.390677
#
# Coordination Sequence:
#
# PCOD9551035 Si02
#       4
#     8   8   8   8
#     4  10  23  45  64 107 145 179 247 299 352 454
#     4  10  24  43  69  98 143 194 230 304 373 434
#     4  12  22  47  71 104 143 191 238 308 376 433
#     4  10  24  42  69 104 141 179 247 301 353 454
#
# _framework density 25.437002
#
# number of rings (size 3 to 8) (size 9 to 14) (size 15 to 20)
#    1.500    0.000    2.500    2.250    0.000    5.000 
#    4.500    2.500    0.000    0.000    0.000    0.000 
#    0.000    0.000    0.000    0.000    0.000    0.000 
#
# Total GULP energy -178377.694015 kJ/mol
# GULP energy per Si atom -5574.302938 kJ/mol
# Density = 2.537911 g / cm^3
# Si number density = 25.437002 Si / 1000 Ang^3
#
#
#
# Elastic Constant Matrix: (Units=GPa)
#
#
# Indices 1 2 3 4 5 6 
#
# 1 98.9132 -0.0791 8.6076 0.0000 0.0000 0.0000
# 2 -0.0791 98.9132 8.6076 0.0000 0.0000 0.0000
# 3 8.6076 8.6076 76.5289 0.0000 0.0000 0.0000
# 4 0.0000 0.0000 0.0000 25.4680 0.0000 0.0000
# 5 0.0000 0.0000 0.0000 0.0000 25.4680 0.0000
# 6 0.0000 0.0000 0.0000 0.0000 0.0000 52.5653
#
#
#
# Elastic Compliance Matrix: (Units=1/GPa)
#
#
# Indices 1 2 3 4 5 6 
#
# 1 0.010211 0.000109 -0.001161 0.000000 0.000000 0.000000
# 2 0.000109 0.010211 -0.001161 0.000000 0.000000 0.000000
# 3 -0.001161 -0.001161 0.013328 0.000000 0.000000 0.000000
# 4 0.000000 0.000000 0.000000 0.039265 0.000000 0.000000
# 5 0.000000 0.000000 0.000000 0.000000 0.039265 0.000000
# 6 0.000000 0.000000 0.000000 0.000000 0.000000 0.019024
#
#
# Mechanical properties :
#
#
# Convention : Reuss Voigt Hill
#
# Bulk Modulus (GPa) = 34.10021 34.29194 34.19608
# Shear Modulus (GPa) = 34.36339 37.84821 36.10580
#
# Velocity S-wave (km/s) = 3.67948 3.86154 3.77161
# Velocity P-wave (km/s) = 5.61126 5.77861 5.69555
#
# Compressibility (1/GPa) = 0.02932533
#
# Stress axis : x y z
#
# Youngs Moduli (GPa) = 97.93382 97.93382 75.02959
#
# Poissons Ratio (x) = -0.01069 0.08709
# Poissons Ratio (y) = -0.01069 0.08709
# Poissons Ratio (z) = 0.11368 0.11368
#
# Static dielectric constant tensor:
#      x y z
#    x 2.068330 0.000000 0.000000 
#    y 0.000000 2.068330 0.000000 
#    z 0.000000 0.000000 2.018120 
# 
# From -- ./inp_files/3721.got.cif
#   From: 2010.05.17/outbox.cif.g08.bks.cpg/sg96_2_cif.got.tgz:3721.got - 2010.06.03 19:52:08.
