data_PCOD9551184
_publ_section_title
;
Structure prediction by ZEFSAII (Michael W. Deem and Ramdas Pophale) SiO2 
 PCOD9551184
Probable space group: P 43 21 2
;
_chemical_formula_sum "Si O2"
_cell_formula_units_Z 36
_cell_length_a 7.192926
_cell_length_b 7.192926
_cell_length_c 27.064986
_cell_angle_alpha 90.000000
_cell_angle_beta 90.000000
_cell_angle_gamma 90.000000
_cell_volume 1400.293238
_symmetry_space_group_name_H-M "P 43 21 2"
_symmetry_group_IT_number 96
_symmetry_cell_setting 'tetragonal'
loop_
_space_group_symop_operation_xyz
x,y,z
1/2-y,1/2+x,3/4+z
-x,-y,1/2+z
1/2+y,1/2-x,1/4+z
1/2+x,1/2-y,1/4-z
1/2-x,1/2+y,3/4-z
y,x,-z
-y,-x,1/2-z
loop_
_atom_site_type_symbol
_atom_site_label
_atom_site_fract_x
_atom_site_fract_y
_atom_site_fract_z
Si Si1 0.486187 0.056099 0.089916
Si Si2 0.032039 0.843281 0.845926
Si Si3 0.620815 0.379186 0.750000
Si Si4 0.921347 0.230735 0.823308
Si Si5 0.701996 0.230858 0.515909
O O1 0.698945 0.057567 0.109301
O O2 0.406079 0.261738 0.080811
O O3 0.415167 0.925135 0.045709
O O4 0.382627 0.982962 0.138360
O O5 0.921687 0.038027 0.854105
O O6 0.908197 0.761744 0.801328
O O7 0.656443 0.599007 0.748947
O O8 0.705231 0.264762 0.703915
O O9 0.786903 0.927985 0.720371
#
# Coordination Sequence:
#
# PCOD9551184 Si02
#       5
#     8   8   4   8   8
#     4  12  30  50  83 117 168 225 278 348 426 509
#     4  12  27  52  78 117 162 213 276 340 416 502
#     4  12  28  52  78 118 162 212 270 346 422 496
#     4  12  28  50  78 119 161 219 279 350 418 514
#     4  12  31  48  82 119 164 217 283 346 425 509
#
# _framework density 25.708904
#
# number of rings (size 3 to 8) (size 9 to 14) (size 15 to 20)
#    0.000    0.000    6.667    0.000    9.333    5.333 
#    0.000    0.000    0.000    0.000    0.000    0.000 
#    0.000    0.000    0.000    0.000    0.000    0.000 
#
# Total GULP energy -201916.838904 kJ/mol
# GULP energy per Si atom -5608.801081 kJ/mol
# Density = 2.565039 g / cm^3
# Si number density = 25.708904 Si / 1000 Ang^3
#
#
#
# Elastic Constant Matrix: (Units=GPa)
#
#
# Indices 1 2 3 4 5 6 
#
# 1 191.2848 74.6719 74.7832 0.0000 0.0000 0.0000
# 2 74.6719 191.2852 74.7833 0.0000 0.0000 0.0000
# 3 74.7832 74.7833 107.0955 0.0000 0.0000 0.0000
# 4 0.0000 0.0000 0.0000 47.1462 0.0000 0.0000
# 5 0.0000 0.0000 0.0000 0.0000 47.1463 0.0000
# 6 0.0000 0.0000 0.0000 0.0000 0.0000 36.6264
#
#
#
# Elastic Compliance Matrix: (Units=1/GPa)
#
#
# Indices 1 2 3 4 5 6 
#
# 1 0.007383 -0.001192 -0.004323 0.000000 0.000000 0.000000
# 2 -0.001192 0.007383 -0.004323 0.000000 0.000000 0.000000
# 3 -0.004323 -0.004323 0.015375 0.000000 0.000000 0.000000
# 4 0.000000 0.000000 0.000000 0.021211 0.000000 0.000000
# 5 0.000000 0.000000 0.000000 0.000000 0.021211 0.000000
# 6 0.000000 0.000000 0.000000 0.000000 0.000000 0.027303
#
#
# Mechanical properties :
#
#
# Convention : Reuss Voigt Hill
#
# Bulk Modulus (GPa) = 95.55965 104.23804 99.89884
# Shear Modulus (GPa) = 40.64007 43.87893 42.25950
#
# Velocity S-wave (km/s) = 3.98021 4.13578 4.05874
# Velocity P-wave (km/s) = 7.64025 7.96491 7.80426
#
# Compressibility (1/GPa) = 0.01046467
#
# Stress axis : x y z
#
# Youngs Moduli (GPa) = 135.43999 135.44017 65.03956
#
# Poissons Ratio (x) = 0.16145 0.28119
# Poissons Ratio (y) = 0.16145 0.28119
# Poissons Ratio (z) = 0.58555 0.58555
#
# Static dielectric constant tensor:
#      x y z
#    x 2.062200 0.000000 0.000000 
#    y 0.000000 2.062200 0.000000 
#    z 0.000000 0.000000 1.995640 
# 
# From -- ./inp_files/4289.got.cif
#   From: 2010.05.17/outbox.cif.g08.bks.cpg/sg96_3_cif.got.tgz:4289.got - 2010.06.03 19:52:08.
