data_PCOD9551315
_publ_section_title
;
Structure prediction by ZEFSAII (Michael W. Deem and Ramdas Pophale) SiO2 
 PCOD9551315
Probable space group: I 4 2 2 
;
_chemical_formula_sum "Si O2"
_cell_formula_units_Z 92
_cell_length_a 24.495190
_cell_length_b 24.495190
_cell_length_c 8.110864
_cell_angle_alpha 90.000000
_cell_angle_beta 90.000000
_cell_angle_gamma 90.000000
_cell_volume 4866.634654
_symmetry_space_group_name_H-M "I 4 2 2 "
_symmetry_group_IT_number 97
_symmetry_cell_setting 'tetragonal'
loop_
_space_group_symop_operation_xyz
x,y,z
-y,x,z
-x,-y,z
y,-x,z
x,-y,-z
-x,y,-z
y,x,-z
-y,-x,-z
1/2+x,1/2+y,1/2+z
1/2-y,1/2+x,1/2+z
1/2-x,1/2-y,1/2+z
1/2+y,1/2-x,1/2+z
1/2+x,1/2-y,1/2-z
1/2-x,1/2+y,1/2-z
1/2+y,1/2+x,1/2-z
1/2-y,1/2-x,1/2-z
loop_
_atom_site_type_symbol
_atom_site_label
_atom_site_fract_x
_atom_site_fract_y
_atom_site_fract_z
Si Si1 0.500000 0.000000 0.750000
Si Si2 0.656565 0.656565 0.000000
Si Si3 0.839136 0.422274 0.216610
Si Si4 0.736620 0.564004 0.965464
Si Si5 0.596846 0.000000 0.500000
Si Si6 0.000000 0.334660 0.000000
Si Si7 0.807715 0.774668 0.178758
Si Si8 0.398140 0.189878 0.728200
O O1 0.445347 0.004746 0.646505
O O2 0.678993 0.595336 0.969485
O O3 0.687121 0.673773 0.169746
O O4 0.862602 0.362602 0.250000
O O5 0.864766 0.450323 0.054076
O O6 0.861304 0.459598 0.366968
O O7 0.773988 0.426601 0.197730
O O8 0.775430 0.590169 0.106624
O O9 0.730867 0.500000 0.000000
O O10 0.953858 0.309117 0.878065
O O11 0.752901 0.747100 0.250000
O O12 0.850417 0.725544 0.146265
O O13 0.801156 0.801156 0.000000
O O14 0.370142 0.129859 0.750000
#
# Coordination Sequence:
#
# PCOD9551315 Si02
#       8
#     4   8  16  16   8   8  16  16
#     4  10  24  38  60  70 116 154 220 278 300 358
#     4  10  24  38  66  91 122 164 200 258 318 381
#     4  12  25  37  59  84 116 162 205 257 312 371
#     4  11  22  45  61  89 126 160 206 254 316 375
#     4  11  22  40  54  80 106 160 211 266 314 344
#     4  12  24  38  58  83 114 160 203 254 308 348
#     4  10  20  35  59  89 125 157 200 250 306 377
#     4  10  22  40  58  87 120 160 209 259 297 370
#
# _framework density 18.904233000000001
#
# number of rings (size 3 to 8) (size 9 to 14) (size 15 to 20)
#    0.000    1.217    4.348    1.043    4.870    0.696 
#    1.565    0.000    0.000    1.304    0.000    0.000 
#    0.000    0.000    0.000    4.522    0.000    0.000 
#
# Total GULP energy -256226.215876 kJ/mol
# GULP energy per Si atom -5570.135128 kJ/mol
# Density = 1.886121 g / cm^3
# Si number density = 18.904233 Si / 1000 Ang^3
#
#
#
# Elastic Constant Matrix: (Units=GPa)
#
#
# Indices 1 2 3 4 5 6 
#
# 1 74.0500 42.7608 10.7930 0.0000 0.0000 0.0000
# 2 42.7608 74.0503 10.7950 0.0000 0.0000 0.0000
# 3 10.7930 10.7950 69.8099 0.0000 0.0000 0.0000
# 4 0.0000 0.0000 0.0000 20.5999 0.0000 0.0000
# 5 0.0000 0.0000 0.0000 0.0000 20.5996 0.0000
# 6 0.0000 0.0000 0.0000 0.0000 0.0000 34.0138
#
#
#
# Elastic Compliance Matrix: (Units=1/GPa)
#
#
# Indices 1 2 3 4 5 6 
#
# 1 0.020386 -0.011574 -0.001362 0.000000 0.000000 0.000000
# 2 -0.011574 0.020386 -0.001363 0.000000 0.000000 0.000000
# 3 -0.001362 -0.001363 0.014746 0.000000 0.000000 0.000000
# 4 0.000000 0.000000 0.000000 0.048544 0.000000 0.000000
# 5 0.000000 0.000000 0.000000 0.000000 0.048545 0.000000
# 6 0.000000 0.000000 0.000000 0.000000 0.000000 0.029400
#
#
# Mechanical properties :
#
#
# Convention : Reuss Voigt Hill
#
# Bulk Modulus (GPa) = 37.14591 38.51199 37.82895
# Shear Modulus (GPa) = 22.77097 25.28010 24.02553
#
# Velocity S-wave (km/s) = 3.47442 3.66084 3.56885
# Velocity P-wave (km/s) = 5.98228 6.18752 6.08576
#
# Compressibility (1/GPa) = 0.02692087
#
# Stress axis : x y z
#
# Youngs Moduli (GPa) = 49.05287 49.05269 67.81506
#
# Poissons Ratio (x) = 0.56771 0.09237
# Poissons Ratio (y) = 0.56772 0.09244
# Poissons Ratio (z) = 0.06682 0.06686
#
# Static dielectric constant tensor:
#      x y z
#    x 1.678760 0.000000 0.000000 
#    y 0.000000 1.678760 0.000000 
#    z 0.000000 0.000000 1.810840 
# 
# From -- ./inp_files/2535.got.cif
#   From: 2010.05.17/outbox.cif.g08.bks.cpg/sg97_2_cif.got.tgz:2535.got - 2010.06.03 19:55:32.
