data_PCOD9551240
_publ_section_title
;
Structure prediction by ZEFSAII (Michael W. Deem and Ramdas Pophale) SiO2 
 PCOD9551240
Probable space group: I 4 2 2 
;
_chemical_formula_sum "Si O2"
_cell_formula_units_Z 56
_cell_length_a 13.193140
_cell_length_b 13.193140
_cell_length_c 15.702988
_cell_angle_alpha 90.000000
_cell_angle_beta 90.000000
_cell_angle_gamma 90.000000
_cell_volume 2733.245494
_symmetry_space_group_name_H-M "I 4 2 2 "
_symmetry_group_IT_number 97
_symmetry_cell_setting 'tetragonal'
loop_
_space_group_symop_operation_xyz
x,y,z
-y,x,z
-x,-y,z
y,-x,z
x,-y,-z
-x,y,-z
y,x,-z
-y,-x,-z
1/2+x,1/2+y,1/2+z
1/2-y,1/2+x,1/2+z
1/2-x,1/2-y,1/2+z
1/2+y,1/2-x,1/2+z
1/2+x,1/2-y,1/2-z
1/2-x,1/2+y,1/2-z
1/2+y,1/2+x,1/2-z
1/2-y,1/2-x,1/2-z
loop_
_atom_site_type_symbol
_atom_site_label
_atom_site_fract_x
_atom_site_fract_y
_atom_site_fract_z
Si Si1 0.235624 0.300558 0.411497
Si Si2 0.429706 0.348913 0.884319
Si Si3 0.443760 0.224088 0.725182
Si Si4 0.323892 0.176109 0.250000
O O1 0.291730 0.291730 0.500000
O O2 0.124334 0.249339 0.424545
O O3 0.238917 0.412955 0.372575
O O4 0.282375 0.230615 0.335549
O O5 0.547209 0.370366 0.904809
O O6 0.422847 0.322942 0.783254
O O7 0.366827 0.133174 0.750000
O O8 0.556712 0.194475 0.747700
#
# Coordination Sequence:
#
# PCOD9551240 Si02
#       4
#    16  16  16   8
#     4  11  23  38  60  92 127 160 206 261 312 370
#     4  10  18  35  61  87 115 154 203 250 304 362
#     4  10  20  39  62  89 118 168 207 246 314 376
#     4  12  21  42  64  83 126 168 204 258 310 385
#
# _framework density 20.488461999999998
#
# number of rings (size 3 to 8) (size 9 to 14) (size 15 to 20)
#    0.000    1.429    7.143    0.429    0.000    2.286 
#    0.000    1.429    0.000    3.429    0.000    2.000 
#    0.000    0.000    0.000    0.000    0.000    0.000 
#
# Total GULP energy -156143.465262 kJ/mol
# GULP energy per Si atom -5576.552331 kJ/mol
# Density = 2.044183 g / cm^3
# Si number density = 20.488462 Si / 1000 Ang^3
#
#
#
# Elastic Constant Matrix: (Units=GPa)
#
#
# Indices 1 2 3 4 5 6 
#
# 1 4.8594 69.1036 13.9661 0.0000 0.0000 0.0000
# 2 69.1036 4.8682 13.9683 0.0000 0.0000 0.0000
# 3 13.9661 13.9683 111.0957 0.0000 0.0000 0.0000
# 4 0.0000 0.0000 0.0000 18.5221 0.0000 0.0000
# 5 0.0000 0.0000 0.0000 0.0000 18.5215 0.0000
# 6 0.0000 0.0000 0.0000 0.0000 0.0000 26.7072
#
#
#
# Elastic Compliance Matrix: (Units=1/GPa)
#
#
# Indices 1 2 3 4 5 6 
#
# 1 -0.000688 0.014880 -0.001784 0.000000 0.000000 0.000000
# 2 0.014880 -0.000686 -0.001784 0.000000 0.000000 0.000000
# 3 -0.001784 -0.001784 0.009450 0.000000 0.000000 0.000000
# 4 0.000000 0.000000 0.000000 0.053990 0.000000 0.000000
# 5 0.000000 0.000000 0.000000 0.000000 0.053991 0.000000
# 6 0.000000 0.000000 0.000000 0.000000 0.000000 0.037443
#
#
# Mechanical properties :
#
#
# Convention : Reuss Voigt Hill
#
# Bulk Modulus (GPa) = 32.57436 34.98881 33.78158
# Shear Modulus (GPa) = 35.43304 14.33585 24.88445
#
# Velocity S-wave (km/s) = 4.16313 2.64806 3.48883
# Velocity P-wave (km/s) = 6.24838 5.14432 5.72304
#
# Compressibility (1/GPa) = 0.03069899
#
# Stress axis : x y z
#
# Youngs Moduli (GPa) = -1454.41281 -1458.27477 105.82092
#
# Poissons Ratio (x) = 21.69917 0.18883
# Poissons Ratio (y) = 21.64171 0.18883
# Poissons Ratio (z) = -2.59534 -2.60212
#
# Static dielectric constant tensor:
#      x y z
#    x 1.762510 0.000000 0.000000 
#    y 0.000000 1.762520 0.000000 
#    z 0.000000 0.000000 1.811460 
# 
# From -- ./inp_files/4430.got.cif
#   From: 2010.05.17/outbox.cif.g08.bks.cpg/sg97_3_cif.got.tgz:4430.got - 2010.06.03 19:55:32.
