data_PCOD9551714
_publ_section_title
;
Structure prediction by ZEFSAII (Michael W. Deem and Ramdas Pophale) SiO2 
 PCOD9551714
Probable space group: I 41 2 2
;
_chemical_formula_sum "Si O2"
_cell_formula_units_Z 64
_cell_length_a 24.739659
_cell_length_b 24.739659
_cell_length_c 5.189263
_cell_angle_alpha 90.000000
_cell_angle_beta 90.000000
_cell_angle_gamma 90.000000
_cell_volume 3176.092194
_symmetry_space_group_name_H-M "I 41 2 2"
_symmetry_group_IT_number 98
_symmetry_cell_setting 'tetragonal'
loop_
_space_group_symop_operation_xyz
x,y,z
-y,1/2+x,1/4+z
-x,-y,z
y,1/2-x,1/4+z
x,1/2-y,1/4-z
-x,1/2+y,1/4-z
y,x,-z
-y,-x,-z
1/2+x,1/2+y,1/2+z
1/2-y,x,3/4+z
1/2-x,1/2-y,1/2+z
1/2+y,-x,3/4+z
1/2+x,-y,3/4-z
1/2-x,y,3/4-z
1/2+y,1/2+x,1/2-z
1/2-y,1/2-x,1/2-z
loop_
_atom_site_type_symbol
_atom_site_label
_atom_site_fract_x
_atom_site_fract_y
_atom_site_fract_z
Si Si1 0.157078 0.342923 0.250000
Si Si2 0.750000 0.854701 0.375000
Si Si3 0.814874 0.102853 0.895523
Si Si4 0.056703 0.197651 0.260975
Si Si5 0.184741 0.540049 0.853230
O O1 0.172501 0.299575 0.473518
O O2 0.163977 0.406851 0.312014
O O3 0.776435 0.895271 0.576985
O O4 0.750000 0.108668 0.875000
O O5 0.831426 0.084330 0.610185
O O6 0.843376 0.156625 0.000000
O O7 0.831875 0.057327 0.109164
O O8 0.016091 0.169860 0.461136
O O9 0.028977 0.250000 0.125000
O O10 0.250000 0.538413 0.875000
#
# Coordination Sequence:
#
# PCOD9551714 Si02
#       5
#     8   8  16  16  16
#     4  10  22  34  58  78 115 154 192 244 298 360
#     4  10  20  36  56  76 116 146 196 240 284 366
#     4  10  21  36  57  88 125 159 192 229 280 349
#     4  10  19  34  57  78 110 148 195 250 292 340
#     4  10  19  34  59  84 113 152 196 248 288 322
#
# _framework density 20.150549999999999
#
# number of rings (size 3 to 8) (size 9 to 14) (size 15 to 20)
#    0.000    2.000    1.250    3.750    3.500    0.000 
#    0.000    3.750   99.000    0.000    0.000    0.875 
#    0.000    0.000    0.000    0.000    0.000    0.000 
#
# Total GULP energy -178144.555400 kJ/mol
# GULP energy per Si atom -5567.017356 kJ/mol
# Density = 2.010469 g / cm^3
# Si number density = 20.150550 Si / 1000 Ang^3
#
#
#
# Elastic Constant Matrix: (Units=GPa)
#
#
# Indices 1 2 3 4 5 6 
#
# 1 65.5545 40.9493 28.7461 0.0000 0.0000 0.0000
# 2 40.9493 65.5512 28.7480 0.0000 0.0000 0.0000
# 3 28.7461 28.7480 117.9834 0.0000 0.0000 0.0000
# 4 0.0000 0.0000 0.0000 33.1171 0.0000 0.0000
# 5 0.0000 0.0000 0.0000 0.0000 33.1171 0.0000
# 6 0.0000 0.0000 0.0000 0.0000 0.0000 15.1029
#
#
#
# Elastic Compliance Matrix: (Units=1/GPa)
#
#
# Indices 1 2 3 4 5 6 
#
# 1 0.025727 -0.014916 -0.002634 0.000000 0.000000 0.000000
# 2 -0.014916 0.025729 -0.002635 0.000000 0.000000 0.000000
# 3 -0.002634 -0.002635 0.009759 0.000000 0.000000 0.000000
# 4 0.000000 0.000000 0.000000 0.030196 0.000000 0.000000
# 5 0.000000 0.000000 0.000000 0.000000 0.030196 0.000000
# 6 0.000000 0.000000 0.000000 0.000000 0.000000 0.066213
#
#
# Mechanical properties :
#
#
# Convention : Reuss Voigt Hill
#
# Bulk Modulus (GPa) = 47.97198 49.55290 48.76244
# Shear Modulus (GPa) = 21.26405 26.31044 23.78725
#
# Velocity S-wave (km/s) = 3.25200 3.61736 3.43953
# Velocity P-wave (km/s) = 6.16110 6.48782 6.32657
#
# Compressibility (1/GPa) = 0.02084550
#
# Stress axis : x y z
#
# Youngs Moduli (GPa) = 38.86946 38.86666 102.46460
#
# Poissons Ratio (x) = 0.57975 0.26986
# Poissons Ratio (y) = 0.57980 0.26998
# Poissons Ratio (z) = 0.10237 0.10241
#
# Static dielectric constant tensor:
#      x y z
#    x 1.744840 0.000000 0.000000 
#    y 0.000000 1.744840 0.000000 
#    z 0.000000 0.000000 1.879200 
# 
# From -- ./inp_files/1460.got.cif
#   From: 2010.05.17/outbox.cif.g08.bks.cpg/sg98_1_cif.got.tgz:1460.got - 2010.06.03 20:00:51.
