data_PCOD9551726
_publ_section_title
;
Structure prediction by ZEFSAII (Michael W. Deem and Ramdas Pophale) SiO2 
 PCOD9551726
Probable space group: I 41 2 2
;
_chemical_formula_sum "Si O2"
_cell_formula_units_Z 88
_cell_length_a 16.185890
_cell_length_b 16.185890
_cell_length_c 15.679127
_cell_angle_alpha 90.000000
_cell_angle_beta 90.000000
_cell_angle_gamma 90.000000
_cell_volume 4107.665279
_symmetry_space_group_name_H-M "I 41 2 2"
_symmetry_group_IT_number 98
_symmetry_cell_setting 'tetragonal'
loop_
_space_group_symop_operation_xyz
x,y,z
-y,1/2+x,1/4+z
-x,-y,z
y,1/2-x,1/4+z
x,1/2-y,1/4-z
-x,1/2+y,1/4-z
y,x,-z
-y,-x,-z
1/2+x,1/2+y,1/2+z
1/2-y,x,3/4+z
1/2-x,1/2-y,1/2+z
1/2+y,-x,3/4+z
1/2+x,-y,3/4-z
1/2-x,y,3/4-z
1/2+y,1/2+x,1/2-z
1/2-y,1/2-x,1/2-z
loop_
_atom_site_type_symbol
_atom_site_label
_atom_site_fract_x
_atom_site_fract_y
_atom_site_fract_z
Si Si1 0.792360 0.597413 0.042557
Si Si2 0.779800 0.100812 0.727687
Si Si3 0.894425 0.894425 0.500000
Si Si4 0.212875 0.750000 0.125000
Si Si5 0.464533 0.339933 0.481049
Si Si6 0.148708 0.250000 0.125000
Si Si7 0.039544 0.084485 0.313752
O O1 0.704043 0.583471 0.998971
O O2 0.812979 0.550598 0.132103
O O3 0.790772 0.689558 0.076982
O O4 0.872895 0.594681 0.983288
O O5 0.798827 0.151446 0.812321
O O6 0.768511 0.176421 0.662499
O O7 0.692071 0.056314 0.745270
O O8 0.843590 0.027918 0.704258
O O9 0.938666 0.922301 0.413468
O O10 0.432500 0.432500 0.500000
O O11 0.408688 0.291262 0.552137
O O12 0.000000 0.000000 0.281945
#
# Coordination Sequence:
#
# PCOD9551726 Si02
#       7
#    16  16   8   8  16   8  16
#     4  11  23  38  68 107 137 182 225 291 369 435
#     4  11  23  51  69 106 139 186 245 300 352 440
#     4  12  25  46  68 104 138 189 242 296 374 444
#     4  10  27  46  78  97 134 196 242 291 348 422
#     4  10  21  37  67 105 142 180 218 288 371 425
#     4  10  19  36  64 109 148 180 210 283 360 456
#     4  12  28  46  69  99 144 189 245 307 356 430
#
# _framework density 21.423362000000001
#
# number of rings (size 3 to 8) (size 9 to 14) (size 15 to 20)
#    0.000    1.091    3.636    1.364   11.455    0.000 
#    9.818    1.818    0.000    1.091    0.000    0.000 
#    0.000    0.000    0.000    0.000    0.000    0.000 
#
# Total GULP energy -245193.143591 kJ/mol
# GULP energy per Si atom -5572.571445 kJ/mol
# Density = 2.137460 g / cm^3
# Si number density = 21.423362 Si / 1000 Ang^3
#
#
#
# Elastic Constant Matrix: (Units=GPa)
#
#
# Indices 1 2 3 4 5 6 
#
# 1 163.5126 -53.1894 15.9597 0.0000 0.0000 0.0000
# 2 -53.1894 163.5126 15.9597 0.0000 0.0000 0.0000
# 3 15.9597 15.9597 109.9976 0.0000 0.0000 0.0000
# 4 0.0000 0.0000 0.0000 -26.5213 0.0000 0.0000
# 5 0.0000 0.0000 0.0000 0.0000 -26.5213 0.0000
# 6 0.0000 0.0000 0.0000 0.0000 0.0000 5.7800
#
#
#
# Elastic Compliance Matrix: (Units=1/GPa)
#
#
# Indices 1 2 3 4 5 6 
#
# 1 0.007038 0.002423 -0.001373 0.000000 0.000000 0.000000
# 2 0.002423 0.007038 -0.001373 0.000000 0.000000 0.000000
# 3 -0.001373 -0.001373 0.009489 0.000000 0.000000 0.000000
# 4 0.000000 0.000000 0.000000 -0.037706 0.000000 0.000000
# 5 0.000000 0.000000 0.000000 0.000000 -0.037706 0.000000
# 6 0.000000 0.000000 0.000000 0.000000 0.000000 0.173010
#
#
# Mechanical properties :
#
#
# Convention : Reuss Voigt Hill
#
# Bulk Modulus (GPa) = 43.62759 43.83142 43.72950
# Shear Modulus (GPa) = 38.62506 21.10032 29.86269
#
# Velocity S-wave (km/s) = 4.25071 3.14175 3.73759
# Velocity P-wave (km/s) = 6.67084 5.80214 6.25160
#
# Compressibility (1/GPa) = 0.02292128
#
# Stress axis : x y z
#
# Youngs Moduli (GPa) = 142.08491 142.08491 105.38001
#
# Poissons Ratio (x) = -0.34433 0.14466
# Poissons Ratio (y) = -0.34433 0.14466
# Poissons Ratio (z) = 0.19505 0.19505
#
# Static dielectric constant tensor:
#      x y z
#    x 2.042910 0.000000 0.000000 
#    y 0.000000 2.042910 0.000000 
#    z 0.000000 0.000000 1.856280 
# 
# From -- ./inp_files/6579.got.cif
#   From: 2010.05.17/outbox.cif.g08.bks.cpg/sg98_4_cif.got.tgz:6579.got - 2010.06.03 20:00:51.
