data_PCOD9551759
_publ_section_title
;
Structure prediction by ZEFSAII (Michael W. Deem and Ramdas Pophale) SiO2 
 PCOD9551759
Probable space group: I 41 2 2
;
_chemical_formula_sum "Si O2"
_cell_formula_units_Z 56
_cell_length_a 10.735026
_cell_length_b 10.735026
_cell_length_c 24.979934
_cell_angle_alpha 90.000000
_cell_angle_beta 90.000000
_cell_angle_gamma 90.000000
_cell_volume 2878.707159
_symmetry_space_group_name_H-M "I 41 2 2"
_symmetry_group_IT_number 98
_symmetry_cell_setting 'tetragonal'
loop_
_space_group_symop_operation_xyz
x,y,z
-y,1/2+x,1/4+z
-x,-y,z
y,1/2-x,1/4+z
x,1/2-y,1/4-z
-x,1/2+y,1/4-z
y,x,-z
-y,-x,-z
1/2+x,1/2+y,1/2+z
1/2-y,x,3/4+z
1/2-x,1/2-y,1/2+z
1/2+y,-x,3/4+z
1/2+x,-y,3/4-z
1/2-x,y,3/4-z
1/2+y,1/2+x,1/2-z
1/2-y,1/2-x,1/2-z
loop_
_atom_site_type_symbol
_atom_site_label
_atom_site_fract_x
_atom_site_fract_y
_atom_site_fract_z
Si Si1 0.219396 0.219396 0.500000
Si Si2 0.000000 0.000000 0.905723
Si Si3 0.894886 0.748840 0.392632
Si Si4 0.360100 0.639900 0.500000
Si Si5 0.491039 0.356456 0.790431
O O1 0.117224 0.207687 0.453465
O O2 0.362332 0.203782 0.480941
O O3 0.943021 0.890824 0.869388
O O4 0.098670 0.940120 0.947670
O O5 0.750000 0.752386 0.375000
O O6 0.978275 0.834440 0.354127
O O7 0.395813 0.779315 0.484572
O O8 0.500000 0.500000 0.777271
#
# Coordination Sequence:
#
# PCOD9551759 Si02
#       5
#     8   8  16   8  16
#     4  10  20  35  59  84 114 156 198 239 303 356
#     4   9  16  30  58  90 118 140 184 255 318 344
#     4   9  18  33  55  85 116 152 188 240 298 362
#     4   9  16  32  56  91 118 144 184 247 306 361
#     4  10  20  35  62  86 120 154 193 244 305 359
#
# _framework density 19.453177
#
# number of rings (size 3 to 8) (size 9 to 14) (size 15 to 20)
#    0.000    2.571    0.000    5.143    2.000    0.000 
#    0.000    0.714   18.857    0.000    0.000    0.000 
#    0.000    0.000    0.000    0.000    0.000    0.000 
#
# Total GULP energy -156066.818079 kJ/mol
# GULP energy per Si atom -5573.814931 kJ/mol
# Density = 1.940890 g / cm^3
# Si number density = 19.453177 Si / 1000 Ang^3
#
#
#
# Elastic Constant Matrix: (Units=GPa)
#
#
# Indices 1 2 3 4 5 6 
#
# 1 84.1674 57.3074 39.2025 0.0000 0.0000 0.0000
# 2 57.3074 84.1674 39.2025 0.0000 0.0000 0.0000
# 3 39.2025 39.2025 121.7169 0.0000 0.0000 0.0000
# 4 0.0000 0.0000 0.0000 19.2716 0.0000 0.0000
# 5 0.0000 0.0000 0.0000 0.0000 19.2716 0.0000
# 6 0.0000 0.0000 0.0000 0.0000 0.0000 19.9011
#
#
#
# Elastic Compliance Matrix: (Units=1/GPa)
#
#
# Indices 1 2 3 4 5 6 
#
# 1 0.022917 -0.014313 -0.002771 0.000000 0.000000 0.000000
# 2 -0.014313 0.022917 -0.002771 0.000000 0.000000 0.000000
# 3 -0.002771 -0.002771 0.010001 0.000000 0.000000 0.000000
# 4 0.000000 0.000000 0.000000 0.051890 0.000000 0.000000
# 5 0.000000 0.000000 0.000000 0.000000 0.051890 0.000000
# 6 0.000000 0.000000 0.000000 0.000000 0.000000 0.050248
#
#
# Mechanical properties :
#
#
# Convention : Reuss Voigt Hill
#
# Bulk Modulus (GPa) = 62.01794 62.38629 62.20211
# Shear Modulus (GPa) = 19.61177 21.97814 20.79495
#
# Velocity S-wave (km/s) = 3.17859 3.36489 3.27306
# Velocity P-wave (km/s) = 6.73951 6.87286 6.80652
#
# Compressibility (1/GPa) = 0.01612437
#
# Stress axis : x y z
#
# Youngs Moduli (GPa) = 43.63537 43.63537 99.99091
#
# Poissons Ratio (x) = 0.62455 0.27710
# Poissons Ratio (y) = 0.62455 0.27710
# Poissons Ratio (z) = 0.12092 0.12092
#
# Static dielectric constant tensor:
#      x y z
#    x 1.667910 0.000000 0.000000 
#    y 0.000000 1.667910 0.000000 
#    z 0.000000 0.000000 1.797320 
# 
# From -- ./inp_files/9749.got.cif
#   From: 2010.05.17/outbox.cif.g08.bks.cpg/sg98_5_cif.got.tgz:9749.got - 2010.06.03 20:00:51.
