data_PCOD9551576
_publ_section_title
;
Structure prediction by ZEFSAII (Michael W. Deem and Ramdas Pophale) SiO2 
 PCOD9551576
Probable space group: I 4 2 2 
;
_chemical_formula_sum "Si O2"
_cell_formula_units_Z 40
_cell_length_a 8.099813
_cell_length_b 8.099813
_cell_length_c 25.054602
_cell_angle_alpha 90.000000
_cell_angle_beta 90.000000
_cell_angle_gamma 90.000000
_cell_volume 1643.756538
_symmetry_space_group_name_H-M "I 4 2 2 "
_symmetry_group_IT_number 97
_symmetry_cell_setting 'tetragonal'
loop_
_space_group_symop_operation_xyz
x,y,z
-y,x,z
-x,-y,z
y,-x,z
x,-y,-z
-x,y,-z
y,x,-z
-y,-x,-z
1/2+x,1/2+y,1/2+z
1/2-y,1/2+x,1/2+z
1/2-x,1/2-y,1/2+z
1/2+y,1/2-x,1/2+z
1/2+x,1/2-y,1/2-z
1/2-x,1/2+y,1/2-z
1/2+y,1/2+x,1/2-z
1/2-y,1/2-x,1/2-z
loop_
_atom_site_type_symbol
_atom_site_label
_atom_site_fract_x
_atom_site_fract_y
_atom_site_fract_z
Si Si1 0.916699 0.734708 0.587211
Si Si2 0.723969 0.000000 0.000000
Si Si3 0.255206 0.884627 0.806006
O O1 0.873435 0.582695 0.549199
O O2 0.874938 0.675264 0.646873
O O3 0.102719 0.800895 0.578259
O O4 0.850313 0.149688 0.000000
O O5 0.338581 0.838581 0.750000
O O6 0.078725 0.789415 0.810165
#
# Coordination Sequence:
#
# PCOD9551576 Si02
#       3
#    16   8  16
#     4  11  26  48  74 108 151 201 256 316 386 462
#     4  11  26  45  70 102 140 192 250 310 376 450
#     4  11  24  43  71 109 150 194 249 313 383 459
#
# _framework density 24.334500999999999
#
# number of rings (size 3 to 8) (size 9 to 14) (size 15 to 20)
#    0.000    1.000    0.000    4.800    0.000   21.600 
#    0.000    2.000    0.000    0.000    0.000    0.000 
#    0.000    0.000    0.000    0.000    0.000    0.000 
#
# Total GULP energy -111685.039058 kJ/mol
# GULP energy per Si atom -5584.251953 kJ/mol
# Density = 2.427911 g / cm^3
# Si number density = 24.334501 Si / 1000 Ang^3
#
#
#
# Elastic Constant Matrix: (Units=GPa)
#
#
# Indices 1 2 3 4 5 6 
#
# 1 121.9889 132.9492 97.5516 0.0000 0.0000 0.0000
# 2 132.9492 121.9893 97.5531 0.0000 0.0000 0.0000
# 3 97.5516 97.5531 203.4745 0.0000 0.0000 0.0000
# 4 0.0000 0.0000 0.0000 69.0000 0.0000 0.0000
# 5 0.0000 0.0000 0.0000 0.0000 69.0216 0.0000
# 6 0.0000 0.0000 0.0000 0.0000 0.0000 57.3131
#
#
#
# Elastic Compliance Matrix: (Units=1/GPa)
#
#
# Indices 1 2 3 4 5 6 
#
# 1 -0.042522 0.048718 -0.002971 0.000000 0.000000 0.000000
# 2 0.048718 -0.042522 -0.002970 0.000000 0.000000 0.000000
# 3 -0.002971 -0.002970 0.007763 0.000000 0.000000 0.000000
# 4 0.000000 0.000000 0.000000 0.014493 0.000000 0.000000
# 5 0.000000 0.000000 0.000000 0.000000 0.014488 0.000000
# 6 0.000000 0.000000 0.000000 0.000000 0.000000 0.017448
#
#
# Mechanical properties :
#
#
# Convention : Reuss Voigt Hill
#
# Bulk Modulus (GPa) = 120.88035 122.61783 121.74909
# Shear Modulus (GPa) = -43.99557 47.02685 1.51564
#
# Velocity S-wave (km/s) = -4.25661 4.40081 0.79006
# Velocity P-wave (km/s) = 5.06201 8.73617 7.13949
#
# Compressibility (1/GPa) = 0.00827264
#
# Stress axis : x y z
#
# Youngs Moduli (GPa) = -23.51746 -23.51714 128.81748
#
# Poissons Ratio (x) = 1.14570 0.38271
# Poissons Ratio (y) = 1.14572 0.38259
# Poissons Ratio (z) = -0.06987 -0.06985
#
# Static dielectric constant tensor:
#      x y z
#    x 1.754290 0.000000 0.000000 
#    y 0.000000 1.754200 0.000000 
#    z 0.000000 0.000000 1.872700 
# 
# From -- ./inp_files/6914.got.cif
#   From: 2010.05.17/outbox.cif.g08.bks.cpg/sg97_4_cif.got.tgz:6914.got - 2010.06.03 19:55:32.
