data_PCOD9551202
_publ_section_title
;
Structure prediction by ZEFSAII (Michael W. Deem and Ramdas Pophale) SiO2 
 PCOD9551202
Probable space group: I 4 2 2 
;
_chemical_formula_sum "Si O2"
_cell_formula_units_Z 72
_cell_length_a 20.754092
_cell_length_b 20.754092
_cell_length_c 9.224844
_cell_angle_alpha 90.000000
_cell_angle_beta 90.000000
_cell_angle_gamma 90.000000
_cell_volume 3973.438594
_symmetry_space_group_name_H-M "I 4 2 2 "
_symmetry_group_IT_number 97
_symmetry_cell_setting 'tetragonal'
loop_
_space_group_symop_operation_xyz
x,y,z
-y,x,z
-x,-y,z
y,-x,z
x,-y,-z
-x,y,-z
y,x,-z
-y,-x,-z
1/2+x,1/2+y,1/2+z
1/2-y,1/2+x,1/2+z
1/2-x,1/2-y,1/2+z
1/2+y,1/2-x,1/2+z
1/2+x,1/2-y,1/2-z
1/2-x,1/2+y,1/2-z
1/2+y,1/2+x,1/2-z
1/2-y,1/2-x,1/2-z
loop_
_atom_site_type_symbol
_atom_site_label
_atom_site_fract_x
_atom_site_fract_y
_atom_site_fract_z
Si Si1 0.056710 0.912649 0.315232
Si Si2 0.108217 0.891784 0.000000
Si Si3 0.196431 0.294309 0.575866
Si Si4 0.773604 0.064882 0.595845
Si Si5 0.752777 0.568782 0.561974
O O1 0.069484 0.910574 0.143122
O O2 0.083925 0.848522 0.385703
O O3 0.981381 0.914097 0.352606
O O4 0.091272 0.815827 0.991331
O O5 0.251358 0.251358 0.500000
O O6 0.208034 0.291967 0.750000
O O7 0.126403 0.265608 0.539066
O O8 0.202172 0.369601 0.536580
O O9 0.754229 0.056942 0.765130
O O10 0.766351 0.000000 0.500000
O O11 0.772506 0.500000 0.500000
#
# Coordination Sequence:
#
# PCOD9551202 Si02
#       5
#    16   8  16  16  16
#     4  10  20  31  47  74 110 153 195 228 271 331
#     4  10  16  31  52  78 106 144 192 239 276 316
#     4  10  22  39  59  87 118 153 195 244 294 348
#     4  10  23  37  55  83 119 152 186 240 299 342
#     4  10  20  37  61  84 112 149 198 240 283 347
#
# _framework density 18.120325999999999
#
# number of rings (size 3 to 8) (size 9 to 14) (size 15 to 20)
#    0.000    2.000    1.111    3.333    3.111    2.667 
#    0.000    1.111    0.000    0.667    0.000    4.667 
#    0.000    0.000    0.000    0.000    0.000    0.000 
#
# Total GULP energy -200822.548195 kJ/mol
# GULP energy per Si atom -5578.404117 kJ/mol
# Density = 1.807908 g / cm^3
# Si number density = 18.120326 Si / 1000 Ang^3
#
#
#
# Elastic Constant Matrix: (Units=GPa)
#
#
# Indices 1 2 3 4 5 6 
#
# 1 124.0331 82.8412 55.7516 0.0000 0.0000 0.0000
# 2 82.8412 124.0335 55.7509 0.0000 0.0000 0.0000
# 3 55.7516 55.7509 67.1590 0.0000 0.0000 0.0000
# 4 0.0000 0.0000 0.0000 23.2649 0.0000 0.0000
# 5 0.0000 0.0000 0.0000 0.0000 23.2648 0.0000
# 6 0.0000 0.0000 0.0000 0.0000 0.0000 50.6539
#
#
#
# Elastic Compliance Matrix: (Units=1/GPa)
#
#
# Indices 1 2 3 4 5 6 
#
# 1 0.016512 -0.007764 -0.007262 0.000000 0.000000 0.000000
# 2 -0.007764 0.016512 -0.007262 0.000000 0.000000 0.000000
# 3 -0.007262 -0.007262 0.026947 0.000000 0.000000 0.000000
# 4 0.000000 0.000000 0.000000 0.042983 0.000000 0.000000
# 5 0.000000 0.000000 0.000000 0.000000 0.042983 0.000000
# 6 0.000000 0.000000 0.000000 0.000000 0.000000 0.019742
#
#
# Mechanical properties :
#
#
# Convention : Reuss Voigt Hill
#
# Bulk Modulus (GPa) = 64.95680 78.21256 71.58468
# Shear Modulus (GPa) = 23.21391 27.49552 25.35471
#
# Velocity S-wave (km/s) = 3.58313 3.89959 3.74470
# Velocity P-wave (km/s) = 7.28311 7.97072 7.63466
#
# Compressibility (1/GPa) = 0.01539485
#
# Stress axis : x y z
#
# Youngs Moduli (GPa) = 60.56052 60.56165 37.10986
#
# Poissons Ratio (x) = 0.47022 0.26950
# Poissons Ratio (y) = 0.47021 0.26948
# Poissons Ratio (z) = 0.43981 0.43979
#
# Static dielectric constant tensor:
#      x y z
#    x 1.626580 0.000000 0.000000 
#    y 0.000000 1.626580 0.000000 
#    z 0.000000 0.000000 1.680860 
# 
# From -- ./inp_files/2262.got.cif
#   From: 2010.05.17/outbox.cif.g08.bks.cpg/sg97_2_cif.got.tgz:2262.got - 2010.06.03 19:55:32.
