data_PCOD9551879
_publ_section_title
;
Structure prediction by ZEFSAII (Michael W. Deem and Ramdas Pophale) SiO2 
 PCOD9551879
Probable space group: I 41 2 2
;
_chemical_formula_sum "Si O2"
_cell_formula_units_Z 112
_cell_length_a 14.137006
_cell_length_b 14.137006
_cell_length_c 27.246796
_cell_angle_alpha 90.000000
_cell_angle_beta 90.000000
_cell_angle_gamma 90.000000
_cell_volume 5445.406743
_symmetry_space_group_name_H-M "I 41 2 2"
_symmetry_group_IT_number 98
_symmetry_cell_setting 'tetragonal'
loop_
_space_group_symop_operation_xyz
x,y,z
-y,1/2+x,1/4+z
-x,-y,z
y,1/2-x,1/4+z
x,1/2-y,1/4-z
-x,1/2+y,1/4-z
y,x,-z
-y,-x,-z
1/2+x,1/2+y,1/2+z
1/2-y,x,3/4+z
1/2-x,1/2-y,1/2+z
1/2+y,-x,3/4+z
1/2+x,-y,3/4-z
1/2-x,y,3/4-z
1/2+y,1/2+x,1/2-z
1/2-y,1/2-x,1/2-z
loop_
_atom_site_type_symbol
_atom_site_label
_atom_site_fract_x
_atom_site_fract_y
_atom_site_fract_z
Si Si1 0.341181 0.578687 0.701571
Si Si2 0.500000 0.000000 0.114550
Si Si3 0.422057 0.138464 0.032834
Si Si4 0.610635 0.476884 0.595396
Si Si5 0.723678 0.436036 0.428849
Si Si6 0.630000 0.038146 0.202023
Si Si7 0.657813 0.657813 0.000000
Si Si8 0.578560 0.722926 0.487564
O O1 0.363226 0.514293 0.748491
O O2 0.371498 0.519432 0.653381
O O3 0.387569 0.681607 0.698637
O O4 0.228984 0.590786 0.699619
O O5 0.453109 0.083870 0.082228
O O6 0.574098 0.048092 0.151715
O O7 0.374060 0.244343 0.028581
O O8 0.335295 0.076962 0.012486
O O9 0.500000 0.500000 0.586571
O O10 0.629299 0.367550 0.580233
O O11 0.678139 0.542385 0.563087
O O12 0.750000 0.477236 0.375000
O O13 0.690641 0.511569 0.468469
O O14 0.574895 0.074895 0.250000
O O15 0.648926 0.926867 0.210681
O O16 0.681182 0.681182 0.500000
#
# Coordination Sequence:
#
# PCOD9551879 Si02
#       8
#    16   8  16  16  16  16   8  16
#     4  10  25  44  67  98 135 181 226 281 360 411
#     4  12  23  42  70 104 132 180 235 294 350 422
#     4  11  25  41  69  99 141 177 229 291 346 422
#     4  11  23  41  66  94 135 183 227 282 341 418
#     4  10  23  41  65  93 134 178 222 279 344 415
#     4  11  22  46  74  94 136 181 227 289 358 419
#     4  10  21  46  64  98 135 188 222 274 356 431
#     4  12  23  39  64 100 133 177 232 279 337 417
#
# _framework density 20.567792000000001
#
# number of rings (size 3 to 8) (size 9 to 14) (size 15 to 20)
#    0.000    1.143    3.571    2.143    5.000    1.714 
#    0.000    7.143    0.000    0.000    0.000    0.000 
#    0.000    0.000    0.000    0.000    0.000    0.000 
#
# Total GULP energy -312372.935708 kJ/mol
# GULP energy per Si atom -5578.088138 kJ/mol
# Density = 2.052098 g / cm^3
# Si number density = 20.567792 Si / 1000 Ang^3
#
#
#
# Elastic Constant Matrix: (Units=GPa)
#
#
# Indices 1 2 3 4 5 6 
#
# 1 73.1576 26.3741 40.9169 0.0000 0.0000 0.0000
# 2 26.3741 73.1576 40.9169 0.0000 0.0000 0.0000
# 3 40.9169 40.9169 92.1244 0.0000 0.0000 0.0000
# 4 0.0000 0.0000 0.0000 -53.0155 0.0000 0.0000
# 5 0.0000 0.0000 0.0000 0.0000 -53.0155 0.0000
# 6 0.0000 0.0000 0.0000 0.0000 0.0000 26.5152
#
#
#
# Elastic Compliance Matrix: (Units=1/GPa)
#
#
# Indices 1 2 3 4 5 6 
#
# 1 0.018601 -0.002774 -0.007029 0.000000 0.000000 0.000000
# 2 -0.002774 0.018601 -0.007029 0.000000 0.000000 0.000000
# 3 -0.007029 -0.007029 0.017099 0.000000 0.000000 0.000000
# 4 0.000000 0.000000 0.000000 -0.018862 0.000000 0.000000
# 5 0.000000 0.000000 0.000000 0.000000 -0.018862 0.000000
# 6 0.000000 0.000000 0.000000 0.000000 0.000000 0.037714
#
#
# Mechanical properties :
#
#
# Convention : Reuss Voigt Hill
#
# Bulk Modulus (GPa) = 48.46202 50.53949 49.50075
# Shear Modulus (GPa) = 52.72375 -7.22106 22.75135
#
# Velocity S-wave (km/s) = 5.06851 -1.87576 3.32951
# Velocity P-wave (km/s) = 7.60699 4.46477 6.23701
#
# Compressibility (1/GPa) = 0.02063472
#
# Stress axis : x y z
#
# Youngs Moduli (GPa) = 53.76129 53.76129 58.48305
#
# Poissons Ratio (x) = 0.14915 0.41109
# Poissons Ratio (y) = 0.14915 0.41109
# Poissons Ratio (z) = 0.37790 0.37790
#
# Static dielectric constant tensor:
#      x y z
#    x 1.770970 0.000000 0.000000 
#    y 0.000000 1.770970 0.000000 
#    z 0.000000 0.000000 1.712900 
# 
# From -- ./inp_files/11020.got.cif
#   From: 2010.05.17/outbox.cif.g08.bks.cpg/sg98_6_cif.got.tgz:11020.got - 2010.06.03 20:00:51.
