data_PCOD9551908
_publ_section_title
;
Structure prediction by ZEFSAII (Michael W. Deem and Ramdas Pophale) SiO2 
 PCOD9551908
Probable space group: I 41 2 2
;
_chemical_formula_sum "Si O2"
_cell_formula_units_Z 56
_cell_length_a 15.211806
_cell_length_b 15.211806
_cell_length_c 10.655316
_cell_angle_alpha 90.000000
_cell_angle_beta 90.000000
_cell_angle_gamma 90.000000
_cell_volume 2465.629912
_symmetry_space_group_name_H-M "I 41 2 2"
_symmetry_group_IT_number 98
_symmetry_cell_setting 'tetragonal'
loop_
_space_group_symop_operation_xyz
x,y,z
-y,1/2+x,1/4+z
-x,-y,z
y,1/2-x,1/4+z
x,1/2-y,1/4-z
-x,1/2+y,1/4-z
y,x,-z
-y,-x,-z
1/2+x,1/2+y,1/2+z
1/2-y,x,3/4+z
1/2-x,1/2-y,1/2+z
1/2+y,-x,3/4+z
1/2+x,-y,3/4-z
1/2-x,y,3/4-z
1/2+y,1/2+x,1/2-z
1/2-y,1/2-x,1/2-z
loop_
_atom_site_type_symbol
_atom_site_label
_atom_site_fract_x
_atom_site_fract_y
_atom_site_fract_z
Si Si1 0.650471 0.409508 0.726171
Si Si2 0.804248 0.695753 0.750000
Si Si3 0.304600 0.426486 0.591404
Si Si4 0.857309 0.142692 0.500000
Si Si5 0.750000 0.452386 0.375000
O O1 0.634973 0.505439 0.667546
O O2 0.753597 0.379581 0.729732
O O3 0.604981 0.336646 0.639891
O O4 0.618185 0.404230 0.869832
O O5 0.750000 0.715364 0.875000
O O6 0.765519 0.605302 0.697102
O O7 0.358278 0.358278 0.500000
O O8 0.252140 0.485215 0.494095
#
# Coordination Sequence:
#
# PCOD9551908 Si02
#       5
#    16   8  16   8   8
#     4  11  23  42  77 106 163 198 271 324 393 490
#     4  12  26  52  80 103 141 206 260 330 384 482
#     4  12  27  47  76 112 150 214 274 326 399 480
#     4  10  22  42  68 119 141 218 252 306 418 474
#     4  12  24  46  70 116 156 212 254 332 410 468
#
# _framework density 22.712247000000001
#
# number of rings (size 3 to 8) (size 9 to 14) (size 15 to 20)
#    0.000    0.571    4.286    4.286    4.000    2.286 
#    0.000    0.000    0.000    4.286    0.000    0.000 
#    0.000    0.000    0.000    0.000    0.000    0.000 
#
# Total GULP energy -156101.139207 kJ/mol
# GULP energy per Si atom -5575.040686 kJ/mol
# Density = 2.266055 g / cm^3
# Si number density = 22.712247 Si / 1000 Ang^3
#
#
#
# Elastic Constant Matrix: (Units=GPa)
#
#
# Indices 1 2 3 4 5 6 
#
# 1 85.0334 31.8894 50.9578 0.0000 0.0000 0.0000
# 2 31.8894 85.0340 50.9569 0.0000 0.0000 0.0000
# 3 50.9578 50.9569 187.0203 0.0000 0.0000 0.0000
# 4 0.0000 0.0000 0.0000 461.3008 0.0000 0.0000
# 5 0.0000 0.0000 0.0000 0.0000 463.8933 0.0000
# 6 0.0000 0.0000 0.0000 0.0000 0.0000 -10.7606
#
#
#
# Elastic Compliance Matrix: (Units=1/GPa)
#
#
# Indices 1 2 3 4 5 6 
#
# 1 0.015017 -0.003800 -0.003056 0.000000 0.000000 0.000000
# 2 -0.003800 0.015016 -0.003056 0.000000 0.000000 0.000000
# 3 -0.003056 -0.003056 0.007012 0.000000 0.000000 0.000000
# 4 0.000000 0.000000 0.000000 0.002168 0.000000 0.000000
# 5 0.000000 0.000000 0.000000 0.000000 0.002156 0.000000
# 6 0.000000 0.000000 0.000000 0.000000 0.000000 -0.092931
#
#
# Mechanical properties :
#
#
# Convention : Reuss Voigt Hill
#
# Bulk Modulus (GPa) = 58.06932 69.41066 63.73999
# Shear Modulus (GPa) = -192.32884 197.77226 2.72171
#
# Velocity S-wave (km/s) = -9.21219 9.34165 1.09588
# Velocity P-wave (km/s) = 9.35573 12.12363 5.45219
#
# Compressibility (1/GPa) = 0.01722080
#
# Stress axis : x y z
#
# Youngs Moduli (GPa) = 66.59245 66.59348 142.60393
#
# Poissons Ratio (x) = 0.25306 0.43583
# Poissons Ratio (y) = 0.25306 0.43581
# Poissons Ratio (z) = 0.20352 0.20351
#
# Static dielectric constant tensor:
#      x y z
#    x 0.721910 0.000000 0.000000 
#    y 0.000000 0.714170 0.000000 
#    z 0.000000 0.000000 1.841340 
# 
# From -- ./inp_files/4734.got.cif
#   From: 2010.05.17/outbox.cif.g08.bks.cpg/sg98_3_cif.got.tgz:4734.got - 2010.06.03 20:00:51.
