data_PCOD9551736
_publ_section_title
;
Structure prediction by ZEFSAII (Michael W. Deem and Ramdas Pophale) SiO2 
 PCOD9551736
Probable space group: I 41 2 2
;
_chemical_formula_sum "Si O2"
_cell_formula_units_Z 108
_cell_length_a 14.411140
_cell_length_b 14.411140
_cell_length_c 24.610517
_cell_angle_alpha 90.000000
_cell_angle_beta 90.000000
_cell_angle_gamma 90.000000
_cell_volume 5111.135701
_symmetry_space_group_name_H-M "I 41 2 2"
_symmetry_group_IT_number 98
_symmetry_cell_setting 'tetragonal'
loop_
_space_group_symop_operation_xyz
x,y,z
-y,1/2+x,1/4+z
-x,-y,z
y,1/2-x,1/4+z
x,1/2-y,1/4-z
-x,1/2+y,1/4-z
y,x,-z
-y,-x,-z
1/2+x,1/2+y,1/2+z
1/2-y,x,3/4+z
1/2-x,1/2-y,1/2+z
1/2+y,-x,3/4+z
1/2+x,-y,3/4-z
1/2-x,y,3/4-z
1/2+y,1/2+x,1/2-z
1/2-y,1/2-x,1/2-z
loop_
_atom_site_type_symbol
_atom_site_label
_atom_site_fract_x
_atom_site_fract_y
_atom_site_fract_z
Si Si1 0.922262 0.583001 0.439747
Si Si2 0.500000 0.500000 0.500000
Si Si3 0.676798 0.314579 0.332597
Si Si4 0.349741 0.600801 0.939250
Si Si5 0.842693 0.499285 0.158064
Si Si6 0.449146 0.817961 0.488250
Si Si7 0.000000 0.500000 0.883246
Si Si8 0.843481 0.999011 0.295405
O O1 0.836587 0.529287 0.467319
O O2 0.000000 0.500000 0.436771
O O3 0.914112 0.629258 0.380657
O O4 0.952798 0.656420 0.486149
O O5 0.505300 0.415284 0.457544
O O6 0.750000 0.350638 0.375000
O O7 0.679333 0.203834 0.328762
O O8 0.579923 0.342957 0.360838
O O9 0.704768 0.359524 0.275326
O O10 0.435790 0.565371 0.904164
O O11 0.258415 0.533973 0.937854
O O12 0.386059 0.613942 0.000000
O O13 0.748521 0.483164 0.190979
O O14 0.410624 0.911754 0.461380
O O15 0.085853 0.445464 0.914430
#
# Coordination Sequence:
#
# PCOD9551736 Si02
#       8
#    16   4  16  16  16  16   8  16
#     4  10  19  41  62  90 132 175 222 265 323 407
#     4  12  24  38  56  96 138 156 228 266 336 424
#     4  12  23  36  60  98 140 165 207 270 353 418
#     4  12  24  40  60  97 138 178 214 284 342 412
#     4  12  22  38  62  93 131 182 206 278 342 395
#     4  11  21  38  66  96 130 175 224 268 342 423
#     4  12  23  37  60  90 131 179 230 256 330 416
#     4  11  21  41  63  93 133 174 217 272 334 410
#
# _framework density 21.130333
#
# number of rings (size 3 to 8) (size 9 to 14) (size 15 to 20)
#    0.000    0.593    7.407    4.222    0.000    0.000 
#    0.000    0.000    0.000    0.000   19.259    0.000 
#    0.000    0.000    0.000    0.000    0.000    0.000 
#
# Total GULP energy -300769.838355 kJ/mol
# GULP energy per Si atom -5569.811821 kJ/mol
# Density = 2.108224 g / cm^3
# Si number density = 21.130333 Si / 1000 Ang^3
#
#
#
# Elastic Constant Matrix: (Units=GPa)
#
#
# Indices 1 2 3 4 5 6 
#
# 1 72.8695 36.2718 36.9302 0.0000 0.0000 0.0000
# 2 36.2718 72.8695 36.9302 0.0000 0.0000 0.0000
# 3 36.9302 36.9302 143.5058 0.0000 0.0000 0.0000
# 4 0.0000 0.0000 0.0000 36.4671 0.0000 0.0000
# 5 0.0000 0.0000 0.0000 0.0000 36.4669 0.0000
# 6 0.0000 0.0000 0.0000 0.0000 0.0000 77.9292
#
#
#
# Elastic Compliance Matrix: (Units=1/GPa)
#
#
# Indices 1 2 3 4 5 6 
#
# 1 0.019209 -0.008115 -0.002855 0.000000 0.000000 0.000000
# 2 -0.008115 0.019209 -0.002855 0.000000 0.000000 0.000000
# 3 -0.002855 -0.002855 0.008438 0.000000 0.000000 0.000000
# 4 0.000000 0.000000 0.000000 0.027422 0.000000 0.000000
# 5 0.000000 0.000000 0.000000 0.000000 0.027422 0.000000
# 6 0.000000 0.000000 0.000000 0.000000 0.000000 0.012832
#
#
# Mechanical properties :
#
#
# Convention : Reuss Voigt Hill
#
# Bulk Modulus (GPa) = 52.06545 56.61213 54.33879
# Shear Modulus (GPa) = 33.65076 42.11348 37.88212
#
# Velocity S-wave (km/s) = 3.99498 4.46918 4.23872
# Velocity P-wave (km/s) = 6.78038 7.31311 7.05177
#
# Compressibility (1/GPa) = 0.01920659
#
# Stress axis : x y z
#
# Youngs Moduli (GPa) = 52.05792 52.05790 118.51363
#
# Poissons Ratio (x) = 0.42244 0.33837
# Poissons Ratio (y) = 0.42244 0.33837
# Poissons Ratio (z) = 0.14863 0.14863
#
# Static dielectric constant tensor:
#      x y z
#    x 1.787520 0.000000 0.000000 
#    y 0.000000 1.787520 0.000000 
#    z 0.000000 0.000000 4.105570 
# 
# From -- ./inp_files/10127.got.cif
#   From: 2010.05.17/outbox.cif.g08.bks.cpg/sg98_6_cif.got.tgz:10127.got - 2010.06.03 20:00:51.
