data_PCOD9551489
_publ_section_title
;
Structure prediction by ZEFSAII (Michael W. Deem and Ramdas Pophale) SiO2 
 PCOD9551489
Probable space group: I 4 2 2 
;
_chemical_formula_sum "Si O2"
_cell_formula_units_Z 112
_cell_length_a 14.506906
_cell_length_b 14.506906
_cell_length_c 24.607298
_cell_angle_alpha 90.000000
_cell_angle_beta 90.000000
_cell_angle_gamma 90.000000
_cell_volume 5178.613780
_symmetry_space_group_name_H-M "I 4 2 2 "
_symmetry_group_IT_number 97
_symmetry_cell_setting 'tetragonal'
loop_
_space_group_symop_operation_xyz
x,y,z
-y,x,z
-x,-y,z
y,-x,z
x,-y,-z
-x,y,-z
y,x,-z
-y,-x,-z
1/2+x,1/2+y,1/2+z
1/2-y,1/2+x,1/2+z
1/2-x,1/2-y,1/2+z
1/2+y,1/2-x,1/2+z
1/2+x,1/2-y,1/2-z
1/2-x,1/2+y,1/2-z
1/2+y,1/2+x,1/2-z
1/2-y,1/2-x,1/2-z
loop_
_atom_site_type_symbol
_atom_site_label
_atom_site_fract_x
_atom_site_fract_y
_atom_site_fract_z
Si Si1 0.863751 0.722184 0.482036
Si Si2 0.055267 0.239668 0.050856
Si Si3 0.056063 0.700470 0.773626
Si Si4 0.925823 0.132921 0.842991
Si Si5 0.538417 0.897239 0.374137
Si Si6 0.527704 0.776006 0.093331
Si Si7 0.152739 0.984464 0.692126
O O1 0.817489 0.817489 0.500000
O O2 0.787695 0.645033 0.473491
O O3 0.924747 0.706780 0.535225
O O4 0.921274 0.718778 0.425983
O O5 0.082257 0.163294 0.094712
O O6 0.996111 0.320761 0.081964
O O7 0.000000 0.201223 0.000000
O O8 0.130556 0.630556 0.750000
O O9 0.106877 0.781497 0.807499
O O10 0.996197 0.755517 0.728795
O O11 0.996776 0.642301 0.816967
O O12 0.035355 0.120731 0.832003
O O13 0.646151 0.919520 0.372489
O O14 0.500000 0.000000 0.387246
O O15 0.530633 0.685015 0.129907
O O16 0.096541 0.079446 0.702740
#
# Coordination Sequence:
#
# PCOD9551489 Si02
#       7
#    16  16  16  16  16  16  16
#     4  11  24  39  64  97 140 175 225 284 335 398
#     4  11  23  38  64 102 137 182 226 273 333 404
#     4  11  25  44  69 103 133 171 229 292 349 412
#     4  10  24  46  71  97 137 186 226 274 341 414
#     4  11  22  41  66  95 139 178 216 273 349 417
#     4  11  23  42  67  99 130 181 226 279 345 407
#     4  11  25  48  72  96 134 184 232 283 349 420
#
# _framework density 21.627407999999999
#
# number of rings (size 3 to 8) (size 9 to 14) (size 15 to 20)
#    0.000    1.143    2.857    2.571    4.000    3.429 
#    7.714    0.714    0.000    3.429    0.000    0.000 
#    0.000    0.000    0.000    0.000    0.000    0.000 
#
# Total GULP energy -312433.893804 kJ/mol
# GULP energy per Si atom -5579.176675 kJ/mol
# Density = 2.157818 g / cm^3
# Si number density = 21.627408 Si / 1000 Ang^3
#
#
#
# Elastic Constant Matrix: (Units=GPa)
#
#
# Indices 1 2 3 4 5 6 
#
# 1 71.3844 22.6921 33.1647 0.0000 0.0000 0.0000
# 2 22.6921 71.3844 33.1647 0.0000 0.0000 0.0000
# 3 33.1647 33.1647 108.8024 0.0000 0.0000 0.0000
# 4 0.0000 0.0000 0.0000 30.2882 0.0000 0.0000
# 5 0.0000 0.0000 0.0000 0.0000 30.2882 0.0000
# 6 0.0000 0.0000 0.0000 0.0000 0.0000 16.6377
#
#
#
# Elastic Compliance Matrix: (Units=1/GPa)
#
#
# Indices 1 2 3 4 5 6 
#
# 1 0.017038 -0.003499 -0.004127 0.000000 0.000000 0.000000
# 2 -0.003499 0.017038 -0.004127 0.000000 0.000000 0.000000
# 3 -0.004127 -0.004127 0.011707 0.000000 0.000000 0.000000
# 4 0.000000 0.000000 0.000000 0.033016 0.000000 0.000000
# 5 0.000000 0.000000 0.000000 0.000000 0.033016 0.000000
# 6 0.000000 0.000000 0.000000 0.000000 0.000000 0.060105
#
#
# Mechanical properties :
#
#
# Convention : Reuss Voigt Hill
#
# Bulk Modulus (GPa) = 44.88796 47.73493 46.31145
# Shear Modulus (GPa) = 24.64851 26.27948 25.46400
#
# Velocity S-wave (km/s) = 3.37959 3.48961 3.43504
# Velocity P-wave (km/s) = 6.00242 6.19322 6.09856
#
# Compressibility (1/GPa) = 0.02227769
#
# Stress axis : x y z
#
# Youngs Moduli (GPa) = 58.69134 58.69134 85.41934
#
# Poissons Ratio (x) = 0.20535 0.35253
# Poissons Ratio (y) = 0.20535 0.35253
# Poissons Ratio (z) = 0.24222 0.24222
#
# Static dielectric constant tensor:
#      x y z
#    x 1.830960 0.000000 0.000000 
#    y 0.000000 1.830960 0.000000 
#    z 0.000000 0.000000 1.806950 
# 
# From -- ./inp_files/7263.got.cif
#   From: 2010.05.17/outbox.cif.g08.bks.cpg/sg97_4_cif.got.tgz:7263.got - 2010.06.03 19:55:32.
