data_PCOD9551651
_publ_section_title
;
Structure prediction by ZEFSAII (Michael W. Deem and Ramdas Pophale) SiO2 
 PCOD9551651
Probable space group: I 41 2 2
;
_chemical_formula_sum "Si O2"
_cell_formula_units_Z 112
_cell_length_a 14.458956
_cell_length_b 14.458956
_cell_length_c 31.682866
_cell_angle_alpha 90.000000
_cell_angle_beta 90.000000
_cell_angle_gamma 90.000000
_cell_volume 6623.664595
_symmetry_space_group_name_H-M "I 41 2 2"
_symmetry_group_IT_number 98
_symmetry_cell_setting 'tetragonal'
loop_
_space_group_symop_operation_xyz
x,y,z
-y,1/2+x,1/4+z
-x,-y,z
y,1/2-x,1/4+z
x,1/2-y,1/4-z
-x,1/2+y,1/4-z
y,x,-z
-y,-x,-z
1/2+x,1/2+y,1/2+z
1/2-y,x,3/4+z
1/2-x,1/2-y,1/2+z
1/2+y,-x,3/4+z
1/2+x,-y,3/4-z
1/2-x,y,3/4-z
1/2+y,1/2+x,1/2-z
1/2-y,1/2-x,1/2-z
loop_
_atom_site_type_symbol
_atom_site_label
_atom_site_fract_x
_atom_site_fract_y
_atom_site_fract_z
Si Si1 0.919355 0.921623 0.451476
Si Si2 0.351918 0.692530 0.250366
Si Si3 0.351840 0.993120 0.656960
Si Si4 0.485255 0.339185 0.593505
Si Si5 0.447669 0.774679 0.329197
Si Si6 0.569890 0.212839 0.171435
Si Si7 0.958537 0.299653 0.249522
O O1 0.901000 0.901000 0.500000
O O2 0.959329 0.830589 0.430579
O O3 0.832591 0.971626 0.431405
O O4 0.000000 0.000000 0.450436
O O5 0.272924 0.772924 0.250000
O O6 0.417381 0.707330 0.290885
O O7 0.406206 0.712266 0.207201
O O8 0.296607 0.597162 0.251811
O O9 0.401713 0.090215 0.645894
O O10 0.425741 0.908149 0.654846
O O11 0.275621 0.961877 0.623321
O O12 0.313116 0.004176 0.704622
O O13 0.491389 0.250000 0.625000
O O14 0.483493 0.309400 0.543805
O O15 0.366278 0.851033 0.328243
O O16 0.570337 0.250000 0.125000
O O17 0.881928 0.381928 0.250000
#
# Coordination Sequence:
#
# PCOD9551651 Si02
#       7
#    16  16  16  16  16  16  16
#     4   9  16  30  49  69  99 139 171 199 244 307
#     4   9  16  26  46  77 107 132 159 206 265 311
#     4  10  20  33  53  79 102 135 175 217 265 311
#     4  10  20  35  54  74 103 138 174 214 262 322
#     4  10  18  30  50  74 103 135 173 211 253 309
#     4  10  18  28  47  77 106 133 169 214 258 300
#     4   9  17  30  50  78 106 127 158 210 269 316
#
# _framework density 16.909068999999999
#
# number of rings (size 3 to 8) (size 9 to 14) (size 15 to 20)
#    0.000    2.429    1.429    2.143    0.000    4.571 
#    0.000    0.714    3.143    1.714    0.000    0.000 
#    0.000    0.000    0.000    0.000    0.000    0.000 
#
# Total GULP energy -311751.744669 kJ/mol
# GULP energy per Si atom -5566.995441 kJ/mol
# Density = 1.687058 g / cm^3
# Si number density = 16.909069 Si / 1000 Ang^3
#
#
#
# Elastic Constant Matrix: (Units=GPa)
#
#
# Indices 1 2 3 4 5 6 
#
# 1 43.4031 20.9780 22.9742 0.0000 0.0000 0.0000
# 2 20.9780 43.4031 22.9742 0.0000 0.0000 0.0000
# 3 22.9742 22.9742 105.4638 0.0000 0.0000 0.0000
# 4 0.0000 0.0000 0.0000 -12.7604 0.0000 0.0000
# 5 0.0000 0.0000 0.0000 0.0000 -12.7604 0.0000
# 6 0.0000 0.0000 0.0000 0.0000 0.0000 10.6396
#
#
#
# Elastic Compliance Matrix: (Units=1/GPa)
#
#
# Indices 1 2 3 4 5 6 
#
# 1 0.031492 -0.013100 -0.004006 0.000000 0.000000 0.000000
# 2 -0.013100 0.031492 -0.004006 0.000000 0.000000 0.000000
# 3 -0.004006 -0.004006 0.011227 0.000000 0.000000 0.000000
# 4 0.000000 0.000000 0.000000 -0.078367 0.000000 0.000000
# 5 0.000000 0.000000 0.000000 0.000000 -0.078367 0.000000
# 6 0.000000 0.000000 0.000000 0.000000 0.000000 0.093989
#
#
# Mechanical properties :
#
#
# Convention : Reuss Voigt Hill
#
# Bulk Modulus (GPa) = 31.26428 36.23584 33.75006
# Shear Modulus (GPa) = 77.69349 5.37997 41.53673
#
# Velocity S-wave (km/s) = 6.78584 1.78567 4.96166
# Velocity P-wave (km/s) = 8.94017 5.07226 7.26823
#
# Compressibility (1/GPa) = 0.03198538
#
# Stress axis : x y z
#
# Youngs Moduli (GPa) = 31.75370 31.75370 89.06721
#
# Poissons Ratio (x) = 0.41599 0.35685
# Poissons Ratio (y) = 0.41599 0.35685
# Poissons Ratio (z) = 0.12722 0.12722
#
# Static dielectric constant tensor:
#      x y z
#    x 1.569420 0.000000 0.000000 
#    y 0.000000 1.569420 0.000000 
#    z 0.000000 0.000000 1.572830 
# 
# From -- ./inp_files/10972.got.cif
#   From: 2010.05.17/outbox.cif.g08.bks.cpg/sg98_6_cif.got.tgz:10972.got - 2010.06.03 20:00:51.
