data_PCOD9551417
_publ_section_title
;
Structure prediction by ZEFSAII (Michael W. Deem and Ramdas Pophale) SiO2 
 PCOD9551417
Probable space group: I 4 2 2 
;
_chemical_formula_sum "Si O2"
_cell_formula_units_Z 72
_cell_length_a 21.259581
_cell_length_b 21.259581
_cell_length_c 7.878800
_cell_angle_alpha 90.000000
_cell_angle_beta 90.000000
_cell_angle_gamma 90.000000
_cell_volume 3560.979537
_symmetry_space_group_name_H-M "I 4 2 2 "
_symmetry_group_IT_number 97
_symmetry_cell_setting 'tetragonal'
loop_
_space_group_symop_operation_xyz
x,y,z
-y,x,z
-x,-y,z
y,-x,z
x,-y,-z
-x,y,-z
y,x,-z
-y,-x,-z
1/2+x,1/2+y,1/2+z
1/2-y,1/2+x,1/2+z
1/2-x,1/2-y,1/2+z
1/2+y,1/2-x,1/2+z
1/2+x,1/2-y,1/2-z
1/2-x,1/2+y,1/2-z
1/2+y,1/2+x,1/2-z
1/2-y,1/2-x,1/2-z
loop_
_atom_site_type_symbol
_atom_site_label
_atom_site_fract_x
_atom_site_fract_y
_atom_site_fract_z
Si Si1 0.132159 0.076368 0.827775
Si Si2 0.209852 0.884660 0.651373
Si Si3 0.143431 0.000000 0.500000
Si Si4 0.266713 0.933595 0.991786
Si Si5 0.210276 0.299352 0.445735
O O1 0.138138 0.143737 0.732631
O O2 0.111752 0.024151 0.681375
O O3 0.089302 0.089302 0.000000
O O4 0.201944 0.060353 0.898278
O O5 0.186911 0.940576 0.533239
O O6 0.247360 0.916498 0.802256
O O7 0.254360 0.835056 0.555260
O O8 0.304936 0.872265 0.042796
O O9 0.300166 0.000000 0.000000
O O10 0.281500 0.281500 0.500000
O O11 0.213328 0.286673 0.250000
#
# Coordination Sequence:
#
# PCOD9551417 Si02
#       5
#    16  16   8  16  16
#     4  10  22  38  59  89 118 171 215 267 331 397
#     4  11  23  38  62  91 125 162 211 264 331 384
#     4  12  20  36  60  91 125 162 210 272 328 390
#     4  11  21  39  60  89 127 166 206 254 321 394
#     4  12  23  37  60  94 129 160 207 266 337 394
#
# _framework density 20.219155000000001
#
# number of rings (size 3 to 8) (size 9 to 14) (size 15 to 20)
#    0.000    0.889    2.222    8.667    0.000    0.000 
#    0.000    0.000    0.000    5.333   11.556    0.778 
#    0.000    0.000    0.000    0.000    0.000    0.000 
#
# Total GULP energy -200704.869615 kJ/mol
# GULP energy per Si atom -5575.135267 kJ/mol
# Density = 2.017314 g / cm^3
# Si number density = 20.219155 Si / 1000 Ang^3
#
#
#
# Elastic Constant Matrix: (Units=GPa)
#
#
# Indices 1 2 3 4 5 6 
#
# 1 100.7088 30.8187 42.4628 0.0000 0.0000 0.0000
# 2 30.8187 100.7062 42.4619 0.0000 0.0000 0.0000
# 3 42.4628 42.4619 144.1548 0.0000 0.0000 0.0000
# 4 0.0000 0.0000 0.0000 24.5178 0.0000 0.0000
# 5 0.0000 0.0000 0.0000 0.0000 24.5162 0.0000
# 6 0.0000 0.0000 0.0000 0.0000 0.0000 16.7409
#
#
#
# Elastic Compliance Matrix: (Units=1/GPa)
#
#
# Indices 1 2 3 4 5 6 
#
# 1 0.011848 -0.002460 -0.002766 0.000000 0.000000 0.000000
# 2 -0.002460 0.011849 -0.002766 0.000000 0.000000 0.000000
# 3 -0.002766 -0.002766 0.008566 0.000000 0.000000 0.000000
# 4 0.000000 0.000000 0.000000 0.040787 0.000000 0.000000
# 5 0.000000 0.000000 0.000000 0.000000 0.040789 0.000000
# 6 0.000000 0.000000 0.000000 0.000000 0.000000 0.059734
#
#
# Mechanical properties :
#
#
# Convention : Reuss Voigt Hill
#
# Bulk Modulus (GPa) = 61.41944 64.11738 62.76841
# Shear Modulus (GPa) = 25.64334 28.47675 27.06004
#
# Velocity S-wave (km/s) = 3.56514 3.75694 3.66230
# Velocity P-wave (km/s) = 6.88402 7.11334 6.99962
#
# Compressibility (1/GPa) = 0.01628149
#
# Stress axis : x y z
#
# Youngs Moduli (GPa) = 84.39924 84.39724 116.73742
#
# Poissons Ratio (x) = 0.20761 0.32284
# Poissons Ratio (y) = 0.20761 0.32284
# Poissons Ratio (z) = 0.23341 0.23340
#
# Static dielectric constant tensor:
#      x y z
#    x 1.787790 0.000000 0.000000 
#    y 0.000000 1.787790 0.000000 
#    z 0.000000 0.000000 1.601940 
# 
# From -- ./inp_files/2256.got.cif
#   From: 2010.05.17/outbox.cif.g08.bks.cpg/sg97_2_cif.got.tgz:2256.got - 2010.06.03 19:55:32.
