data_PCOD9551046
_publ_section_title
;
Structure prediction by ZEFSAII (Michael W. Deem and Ramdas Pophale) SiO2 
 PCOD9551046
Probable space group: P 43 21 2
;
_chemical_formula_sum "Si O2"
_cell_formula_units_Z 40
_cell_length_a 17.125220
_cell_length_b 17.125220
_cell_length_c 4.767526
_cell_angle_alpha 90.000000
_cell_angle_beta 90.000000
_cell_angle_gamma 90.000000
_cell_volume 1398.187416
_symmetry_space_group_name_H-M "P 43 21 2"
_symmetry_group_IT_number 96
_symmetry_cell_setting 'tetragonal'
loop_
_space_group_symop_operation_xyz
x,y,z
1/2-y,1/2+x,3/4+z
-x,-y,1/2+z
1/2+y,1/2-x,1/4+z
1/2+x,1/2-y,1/4-z
1/2-x,1/2+y,3/4-z
y,x,-z
-y,-x,1/2-z
loop_
_atom_site_type_symbol
_atom_site_label
_atom_site_fract_x
_atom_site_fract_y
_atom_site_fract_z
Si Si1 0.310068 0.689933 0.250000
Si Si2 0.275449 0.837409 0.879958
Si Si3 0.028610 0.171556 0.199799
Si Si4 0.002114 0.002114 0.500000
Si Si5 0.400398 0.066904 0.041860
Si Si6 0.262997 0.980333 0.306255
O O1 0.239494 0.695896 0.461253
O O2 0.309089 0.611500 0.074396
O O3 0.193684 0.806317 0.750000
O O4 0.351429 0.862363 0.692332
O O5 0.269906 0.901154 0.128940
O O6 0.015930 0.078759 0.244806
O O7 0.971766 0.225583 0.387504
O O8 0.026108 0.199299 0.883003
O O9 0.951743 0.048257 0.750000
O O10 0.488980 0.090256 0.111319
O O11 0.342661 0.031334 0.284023
#
# Coordination Sequence:
#
# PCOD9551046 Si02
#       6
#     4   8   8   4   8   8
#     4  12  25  46  84 112 158 208 276 339 410 496
#     4  11  26  48  78 118 166 219 274 344 417 502
#     4  12  26  50  83 112 158 207 271 337 417 493
#     4  12  27  50  80 116 154 214 278 343 410 502
#     4  10  23  47  77 120 166 221 276 347 421 513
#     4  11  26  49  76 122 158 211 270 341 419 500
#
# _framework density 28.608470000000001
#
# number of rings (size 3 to 8) (size 9 to 14) (size 15 to 20)
#    0.000    0.800    2.000    4.200    4.200    4.000 
#    5.400    2.000    0.000    0.000    0.000    0.000 
#    0.000    0.000    0.000    0.000    0.000    0.000 
#
# Total GULP energy -223932.366758 kJ/mol
# GULP energy per Si atom -5598.309169 kJ/mol
# Density = 2.854336 g / cm^3
# Si number density = 28.608470 Si / 1000 Ang^3
#
#
#
# Elastic Constant Matrix: (Units=GPa)
#
#
# Indices 1 2 3 4 5 6 
#
# 1 171.7168 38.9596 30.4509 0.0000 0.0000 0.0000
# 2 38.9596 171.7145 30.4520 0.0000 0.0000 0.0000
# 3 30.4509 30.4520 179.8314 0.0000 0.0000 0.0000
# 4 0.0000 0.0000 0.0000 32.2545 0.0000 0.0000
# 5 0.0000 0.0000 0.0000 0.0000 32.2553 0.0000
# 6 0.0000 0.0000 0.0000 0.0000 0.0000 63.3971
#
#
#
# Elastic Compliance Matrix: (Units=1/GPa)
#
#
# Indices 1 2 3 4 5 6 
#
# 1 0.006262 -0.001271 -0.000845 0.000000 0.000000 0.000000
# 2 -0.001271 0.006262 -0.000845 0.000000 0.000000 0.000000
# 3 -0.000845 -0.000845 0.005847 0.000000 0.000000 0.000000
# 4 0.000000 0.000000 0.000000 0.031003 0.000000 0.000000
# 5 0.000000 0.000000 0.000000 0.000000 0.031003 0.000000
# 6 0.000000 0.000000 0.000000 0.000000 0.000000 0.015774
#
#
# Mechanical properties :
#
#
# Convention : Reuss Voigt Hill
#
# Bulk Modulus (GPa) = 80.33189 80.33197 80.33193
# Shear Modulus (GPa) = 47.07129 53.80806 50.43967
#
# Velocity S-wave (km/s) = 4.06071 4.34157 4.20349
# Velocity P-wave (km/s) = 7.08001 7.29884 7.19026
#
# Compressibility (1/GPa) = 0.01244836
#
# Stress axis : x y z
#
# Youngs Moduli (GPa) = 159.70012 159.69754 171.02838
#
# Poissons Ratio (x) = 0.20295 0.14454
# Poissons Ratio (y) = 0.20295 0.14455
# Poissons Ratio (z) = 0.13496 0.13497
#
# Static dielectric constant tensor:
#      x y z
#    x 2.220100 0.000000 0.000000 
#    y 0.000000 2.220100 0.000000 
#    z 0.000000 0.000000 2.326650 
# 
# From -- ./inp_files/461.got.cif
#   From: 2010.05.17/outbox.cif.g08.bks.cpg/sg96_1_cif.got.tgz:461.got - 2010.06.03 19:52:08.
