data_PCOD9551210
_publ_section_title
;
Structure prediction by ZEFSAII (Michael W. Deem and Ramdas Pophale) SiO2 
 PCOD9551210
Probable space group: I 4 2 2 
;
_chemical_formula_sum "Si O2"
_cell_formula_units_Z 120
_cell_length_a 28.208786
_cell_length_b 28.208786
_cell_length_c 7.428622
_cell_angle_alpha 90.000000
_cell_angle_beta 90.000000
_cell_angle_gamma 90.000000
_cell_volume 5911.219041
_symmetry_space_group_name_H-M "I 4 2 2 "
_symmetry_group_IT_number 97
_symmetry_cell_setting 'tetragonal'
loop_
_space_group_symop_operation_xyz
x,y,z
-y,x,z
-x,-y,z
y,-x,z
x,-y,-z
-x,y,-z
y,x,-z
-y,-x,-z
1/2+x,1/2+y,1/2+z
1/2-y,1/2+x,1/2+z
1/2-x,1/2-y,1/2+z
1/2+y,1/2-x,1/2+z
1/2+x,1/2-y,1/2-z
1/2-x,1/2+y,1/2-z
1/2+y,1/2+x,1/2-z
1/2-y,1/2-x,1/2-z
loop_
_atom_site_type_symbol
_atom_site_label
_atom_site_fract_x
_atom_site_fract_y
_atom_site_fract_z
Si Si1 0.793900 0.554437 0.451548
Si Si2 0.655770 0.459775 0.271092
Si Si3 0.697256 0.771147 0.947526
Si Si4 0.809124 0.942556 0.870877
Si Si5 0.500000 0.420187 0.000000
Si Si6 0.445795 0.808440 0.026182
Si Si7 0.361808 0.143628 0.528367
Si Si8 0.788927 0.898020 0.497998
O O1 0.800489 0.500000 0.500000
O O2 0.739349 0.569708 0.477364
O O3 0.800168 0.559990 0.238454
O O4 0.832545 0.589626 0.532376
O O5 0.693379 0.503356 0.295998
O O6 0.650142 0.442208 0.477322
O O7 0.613798 0.487903 0.169486
O O8 0.673073 0.415923 0.148597
O O9 0.709755 0.790245 0.750000
O O10 0.677870 0.819252 0.035470
O O11 0.654502 0.733262 0.979005
O O12 0.745248 0.745248 0.000000
O O13 0.810906 0.910884 0.693378
O O14 0.545365 0.454636 0.000000
O O15 0.408897 0.848368 0.966262
O O16 0.430285 0.757268 0.951230
O O17 0.500000 0.820294 0.000000
O O18 0.360018 0.139983 0.750000
#
# Coordination Sequence:
#
# PCOD9551210 Si02
#       8
#    16  16  16  16   8  16  16  16
#     4  10  17  30  53  84 119 142 188 247 318 352
#     4  11  20  38  69  93 126 154 209 262 326 387
#     4  10  21  41  58  80 122 173 219 249 315 392
#     4  10  19  34  61 101 123 152 195 271 328 377
#     4  11  26  48  72  90 128 178 208 256 331 410
#     4   9  17  29  53  79 106 152 201 241 295 360
#     4   8  17  34  54  74 110 160 192 238 304 377
#     4  10  19  36  63  88 121 162 205 268 324 366
#
# _framework density 20.300381000000002
#
# number of rings (size 3 to 8) (size 9 to 14) (size 15 to 20)
#    0.000    2.200    2.667    4.000    0.000    0.533 
#    4.800    3.333    0.000    3.600    0.000    2.800 
#    0.000    0.000    0.000    0.000    0.000    0.000 
#
# Total GULP energy -334003.017389 kJ/mol
# GULP energy per Si atom -5566.716956 kJ/mol
# Density = 2.025418 g / cm^3
# Si number density = 20.300381 Si / 1000 Ang^3
#
#
#
# Elastic Constant Matrix: (Units=GPa)
#
#
# Indices 1 2 3 4 5 6 
#
# 1 67.9623 47.8562 16.8516 0.0000 0.0000 0.0000
# 2 47.8562 67.9660 16.8528 0.0000 0.0000 0.0000
# 3 16.8516 16.8528 80.0770 0.0000 0.0000 0.0000
# 4 0.0000 0.0000 0.0000 9.3236 0.0000 0.0000
# 5 0.0000 0.0000 0.0000 0.0000 9.3307 0.0000
# 6 0.0000 0.0000 0.0000 0.0000 0.0000 -22.4672
#
#
#
# Elastic Compliance Matrix: (Units=1/GPa)
#
#
# Indices 1 2 3 4 5 6 
#
# 1 0.029465 -0.020267 -0.001935 0.000000 0.000000 0.000000
# 2 -0.020267 0.029464 -0.001936 0.000000 0.000000 0.000000
# 3 -0.001935 -0.001936 0.013303 0.000000 0.000000 0.000000
# 4 0.000000 0.000000 0.000000 0.107255 0.000000 0.000000
# 5 0.000000 0.000000 0.000000 0.000000 0.107173 0.000000
# 6 0.000000 0.000000 0.000000 0.000000 0.000000 -0.044509
#
#
# Mechanical properties :
#
#
# Convention : Reuss Voigt Hill
#
# Bulk Modulus (GPa) = 41.74493 42.12518 41.93505
# Shear Modulus (GPa) = 16.75536 8.20039 12.47787
#
# Velocity S-wave (km/s) = 2.87604 2.01204 2.48193
# Velocity P-wave (km/s) = 5.62469 5.11798 5.37730
#
# Compressibility (1/GPa) = 0.02395500
#
# Stress axis : x y z
#
# Youngs Moduli (GPa) = 33.93835 33.94005 75.17292
#
# Poissons Ratio (x) = 0.68787 0.14549
# Poissons Ratio (y) = 0.68783 0.14552
# Poissons Ratio (z) = 0.06568 0.06570
#
# Static dielectric constant tensor:
#      x y z
#    x 1.720420 0.000000 0.000000 
#    y 0.000000 1.720400 0.000000 
#    z 0.000000 0.000000 1.764730 
# 
# From -- ./inp_files/2649.got.cif
#   From: 2010.05.17/outbox.cif.g08.bks.cpg/sg97_2_cif.got.tgz:2649.got - 2010.06.03 19:55:32.
