data_PCOD9551920
_publ_section_title
;
Structure prediction by ZEFSAII (Michael W. Deem and Ramdas Pophale) SiO2 
 PCOD9551920
Probable space group: I 41 2 2
;
_chemical_formula_sum "Si O2"
_cell_formula_units_Z 40
_cell_length_a 19.379034
_cell_length_b 19.379034
_cell_length_c 5.114910
_cell_angle_alpha 90.000000
_cell_angle_beta 90.000000
_cell_angle_gamma 90.000000
_cell_volume 1920.888895
_symmetry_space_group_name_H-M "I 41 2 2"
_symmetry_group_IT_number 98
_symmetry_cell_setting 'tetragonal'
loop_
_space_group_symop_operation_xyz
x,y,z
-y,1/2+x,1/4+z
-x,-y,z
y,1/2-x,1/4+z
x,1/2-y,1/4-z
-x,1/2+y,1/4-z
y,x,-z
-y,-x,-z
1/2+x,1/2+y,1/2+z
1/2-y,x,3/4+z
1/2-x,1/2-y,1/2+z
1/2+y,-x,3/4+z
1/2+x,-y,3/4-z
1/2-x,y,3/4-z
1/2+y,1/2+x,1/2-z
1/2-y,1/2-x,1/2-z
loop_
_atom_site_type_symbol
_atom_site_label
_atom_site_fract_x
_atom_site_fract_y
_atom_site_fract_z
Si Si1 0.250000 0.029840 0.875000
Si Si2 0.141981 0.423862 0.003092
Si Si3 0.325844 0.938686 0.253403
O O1 0.281724 0.075133 0.640304
O O2 0.191599 0.978401 0.765560
O O3 0.095712 0.404288 0.250000
O O4 0.123508 0.376493 0.750000
O O5 0.133634 0.502494 0.912248
O O6 0.250000 0.926557 0.375000
O O7 0.370137 0.870137 0.250000
#
# Coordination Sequence:
#
# PCOD9551920 Si02
#       3
#     8  16  16
#     4  10  22  44  66  98 142 180 222 284 338 406
#     4  11  22  41  67 102 134 179 224 280 341 399
#     4  10  23  43  65  99 138 183 229 277 330 401
#
# _framework density 20.823692000000001
#
# number of rings (size 3 to 8) (size 9 to 14) (size 15 to 20)
#    0.000    1.600    4.000    0.000    0.000    7.200 
#   10.800    0.000    0.000    0.000   15.600    0.000 
#    0.000    0.000    0.000    0.000    0.000    0.000 
#
# Total GULP energy -111396.309371 kJ/mol
# GULP energy per Si atom -5569.815469 kJ/mol
# Density = 2.077630 g / cm^3
# Si number density = 20.823692 Si / 1000 Ang^3
#
#
#
# Elastic Constant Matrix: (Units=GPa)
#
#
# Indices 1 2 3 4 5 6 
#
# 1 92.4868 81.3576 59.8017 0.0000 0.0000 0.0000
# 2 81.3576 92.4897 59.8026 0.0000 0.0000 0.0000
# 3 59.8017 59.8026 174.9051 0.0000 0.0000 0.0000
# 4 0.0000 0.0000 0.0000 16.1233 0.0000 0.0000
# 5 0.0000 0.0000 0.0000 0.0000 16.1245 0.0000
# 6 0.0000 0.0000 0.0000 0.0000 0.0000 74.9366
#
#
#
# Elastic Compliance Matrix: (Units=1/GPa)
#
#
# Indices 1 2 3 4 5 6 
#
# 1 0.048682 -0.041160 -0.002572 0.000000 0.000000 0.000000
# 2 -0.041160 0.048681 -0.002572 0.000000 0.000000 0.000000
# 3 -0.002572 -0.002572 0.007476 0.000000 0.000000 0.000000
# 4 0.000000 0.000000 0.000000 0.062022 0.000000 0.000000
# 5 0.000000 0.000000 0.000000 0.000000 0.062018 0.000000
# 6 0.000000 0.000000 0.000000 0.000000 0.000000 0.013345
#
#
# Mechanical properties :
#
#
# Convention : Reuss Voigt Hill
#
# Bulk Modulus (GPa) = 81.75125 84.64506 83.19815
# Shear Modulus (GPa) = 14.75329 32.03153 23.39241
#
# Velocity S-wave (km/s) = 2.66463 3.92628 3.35529
# Velocity P-wave (km/s) = 6.98649 7.82885 7.41963
#
# Compressibility (1/GPa) = 0.01223223
#
# Stress axis : x y z
#
# Youngs Moduli (GPa) = 20.54132 20.54199 133.76174
#
# Poissons Ratio (x) = 0.84551 0.34400
# Poissons Ratio (y) = 0.84548 0.34399
# Poissons Ratio (z) = 0.05283 0.05283
#
# Static dielectric constant tensor:
#      x y z
#    x 1.763080 0.000000 0.000000 
#    y 0.000000 1.763080 0.000000 
#    z 0.000000 0.000000 1.862790 
# 
# From -- ./inp_files/699.got.cif
#   From: 2010.05.17/outbox.cif.g08.bks.cpg/sg98_1_cif.got.tgz:699.got - 2010.06.03 20:00:51.
