data_PCOD9551581
_publ_section_title
;
Structure prediction by ZEFSAII (Michael W. Deem and Ramdas Pophale) SiO2 
 PCOD9551581
Probable space group: I 4 2 2 
;
_chemical_formula_sum "Si O2"
_cell_formula_units_Z 48
_cell_length_a 12.238238
_cell_length_b 12.238238
_cell_length_c 12.526565
_cell_angle_alpha 90.000000
_cell_angle_beta 90.000000
_cell_angle_gamma 90.000000
_cell_volume 1876.159626
_symmetry_space_group_name_H-M "I 4 2 2 "
_symmetry_group_IT_number 97
_symmetry_cell_setting 'tetragonal'
loop_
_space_group_symop_operation_xyz
x,y,z
-y,x,z
-x,-y,z
y,-x,z
x,-y,-z
-x,y,-z
y,x,-z
-y,-x,-z
1/2+x,1/2+y,1/2+z
1/2-y,1/2+x,1/2+z
1/2-x,1/2-y,1/2+z
1/2+y,1/2-x,1/2+z
1/2+x,1/2-y,1/2-z
1/2-x,1/2+y,1/2-z
1/2+y,1/2+x,1/2-z
1/2-y,1/2-x,1/2-z
loop_
_atom_site_type_symbol
_atom_site_label
_atom_site_fract_x
_atom_site_fract_y
_atom_site_fract_z
Si Si1 0.845764 0.288580 0.439341
Si Si2 0.812623 0.425913 0.839348
Si Si3 0.371266 0.369532 0.320838
O O1 0.827571 0.172430 0.500000
O O2 0.797606 0.129966 0.288841
O O3 0.879460 0.354354 0.547174
O O4 0.946830 0.292466 0.359872
O O5 0.901674 0.401674 0.750000
O O6 0.768498 0.174350 0.889559
O O7 0.500855 0.355144 0.339781
#
# Coordination Sequence:
#
# PCOD9551581 Si02
#       3
#    16  16  16
#     4  11  24  48  82 122 165 216 278 339 426 508
#     4  11  24  48  84 121 162 217 274 351 421 503
#     4  11  26  50  83 117 159 213 275 345 416 499
#
# _framework density 25.584177
#
# number of rings (size 3 to 8) (size 9 to 14) (size 15 to 20)
#    0.000    1.000    3.333    2.000    0.000    1.333 
#    6.000    5.000    7.333    8.000    0.000    4.667 
#    0.000    0.000    0.000    0.000    0.000    0.000 
#
# Total GULP energy -133657.831517 kJ/mol
# GULP energy per Si atom -5569.076313 kJ/mol
# Density = 2.552595 g / cm^3
# Si number density = 25.584177 Si / 1000 Ang^3
#
#
#
# Elastic Constant Matrix: (Units=GPa)
#
#
# Indices 1 2 3 4 5 6 
#
# 1 167.5335 132.9632 97.7812 0.0000 0.0000 0.0000
# 2 132.9632 167.5324 97.7806 0.0000 0.0000 0.0000
# 3 97.7812 97.7806 187.9959 0.0000 0.0000 0.0000
# 4 0.0000 0.0000 0.0000 45.0757 0.0000 0.0000
# 5 0.0000 0.0000 0.0000 0.0000 45.0750 0.0000
# 6 0.0000 0.0000 0.0000 0.0000 0.0000 39.3701
#
#
#
# Elastic Compliance Matrix: (Units=1/GPa)
#
#
# Indices 1 2 3 4 5 6 
#
# 1 0.016979 -0.011948 -0.002617 0.000000 0.000000 0.000000
# 2 -0.011948 0.016979 -0.002617 0.000000 0.000000 0.000000
# 3 -0.002617 -0.002617 0.008041 0.000000 0.000000 0.000000
# 4 0.000000 0.000000 0.000000 0.022185 0.000000 0.000000
# 5 0.000000 0.000000 0.000000 0.000000 0.022185 0.000000
# 6 0.000000 0.000000 0.000000 0.000000 0.000000 0.025400
#
#
# Mechanical properties :
#
#
# Convention : Reuss Voigt Hill
#
# Bulk Modulus (GPa) = 130.95481 131.12352 131.03916
# Shear Modulus (GPa) = 33.62995 38.87328 36.25162
#
# Velocity S-wave (km/s) = 3.62951 3.90221 3.76833
# Velocity P-wave (km/s) = 8.29828 8.46558 8.38235
#
# Compressibility (1/GPa) = 0.00763622
#
# Stress axis : x y z
#
# Youngs Moduli (GPa) = 58.89693 58.89670 124.36042
#
# Poissons Ratio (x) = 0.70371 0.32540
# Poissons Ratio (y) = 0.70371 0.32539
# Poissons Ratio (z) = 0.15411 0.15411
#
# Static dielectric constant tensor:
#      x y z
#    x 2.121670 0.000000 0.000000 
#    y 0.000000 2.121670 0.000000 
#    z 0.000000 0.000000 2.226380 
# 
# From -- ./inp_files/5312.got.cif
#   From: 2010.05.17/outbox.cif.g08.bks.cpg/sg97_3_cif.got.tgz:5312.got - 2010.06.03 19:55:32.
