data_PCOD9551885
_publ_section_title
;
Structure prediction by ZEFSAII (Michael W. Deem and Ramdas Pophale) SiO2 
 PCOD9551885
Probable space group: I 41 2 2
;
_chemical_formula_sum "Si O2"
_cell_formula_units_Z 72
_cell_length_a 16.663859
_cell_length_b 16.663859
_cell_length_c 14.648767
_cell_angle_alpha 90.000000
_cell_angle_beta 90.000000
_cell_angle_gamma 90.000000
_cell_volume 4067.731098
_symmetry_space_group_name_H-M "I 41 2 2"
_symmetry_group_IT_number 98
_symmetry_cell_setting 'tetragonal'
loop_
_space_group_symop_operation_xyz
x,y,z
-y,1/2+x,1/4+z
-x,-y,z
y,1/2-x,1/4+z
x,1/2-y,1/4-z
-x,1/2+y,1/4-z
y,x,-z
-y,-x,-z
1/2+x,1/2+y,1/2+z
1/2-y,x,3/4+z
1/2-x,1/2-y,1/2+z
1/2+y,-x,3/4+z
1/2+x,-y,3/4-z
1/2-x,y,3/4-z
1/2+y,1/2+x,1/2-z
1/2-y,1/2-x,1/2-z
loop_
_atom_site_type_symbol
_atom_site_label
_atom_site_fract_x
_atom_site_fract_y
_atom_site_fract_z
Si Si1 0.860213 0.636038 0.048193
Si Si2 0.407515 0.836752 0.155820
Si Si3 0.818460 0.681541 0.250000
Si Si4 0.503879 0.093439 0.426863
Si Si5 0.305869 0.065652 0.240196
O O1 0.853541 0.644948 0.157082
O O2 0.789006 0.576774 0.017141
O O3 0.837713 0.723426 0.006044
O O4 0.947060 0.607699 0.013521
O O5 0.379377 0.750000 0.125000
O O6 0.366574 0.866574 0.250000
O O7 0.502139 0.829586 0.181925
O O8 0.391479 0.901090 0.076170
O O9 0.468635 0.152896 0.350707
O O10 0.500000 0.000000 0.398396
O O11 0.347985 0.152016 0.250000
#
# Coordination Sequence:
#
# PCOD9551885 Si02
#       5
#    16  16   8  16  16
#     4  11  21  36  57  88 126 163 211 241 320 376
#     4  10  22  37  59  82 116 152 201 256 313 355
#     4  10  22  36  55  84 127 174 200 250 300 404
#     4  11  21  35  55  86 122 158 198 253 304 375
#     4  11  20  31  54  89 125 156 185 239 307 377
#
# _framework density 17.700285000000001
#
# number of rings (size 3 to 8) (size 9 to 14) (size 15 to 20)
#    0.000    1.333    5.556    1.333    0.000    0.000 
#    0.000    0.556    4.889    0.000    0.000    0.000 
#    0.000    0.000    0.000    0.000    0.000    0.000 
#
# Total GULP energy -200773.996070 kJ/mol
# GULP energy per Si atom -5577.055446 kJ/mol
# Density = 1.766000 g / cm^3
# Si number density = 17.700285 Si / 1000 Ang^3
#
#
#
# Elastic Constant Matrix: (Units=GPa)
#
#
# Indices 1 2 3 4 5 6 
#
# 1 115.8729 37.4882 46.1694 0.0000 0.0000 0.0000
# 2 37.4882 115.8722 46.1689 0.0000 0.0000 0.0000
# 3 46.1694 46.1689 96.5575 0.0000 0.0000 0.0000
# 4 0.0000 0.0000 0.0000 21.5723 0.0000 0.0000
# 5 0.0000 0.0000 0.0000 0.0000 21.5715 0.0000
# 6 0.0000 0.0000 0.0000 0.0000 0.0000 -7.9845
#
#
#
# Elastic Compliance Matrix: (Units=1/GPa)
#
#
# Indices 1 2 3 4 5 6 
#
# 1 0.010957 -0.001800 -0.004378 0.000000 0.000000 0.000000
# 2 -0.001800 0.010957 -0.004378 0.000000 0.000000 0.000000
# 3 -0.004378 -0.004378 0.014544 0.000000 0.000000 0.000000
# 4 0.000000 0.000000 0.000000 0.046356 0.000000 0.000000
# 5 0.000000 0.000000 0.000000 0.000000 0.046357 0.000000
# 6 0.000000 0.000000 0.000000 0.000000 0.000000 -0.125242
#
#
# Mechanical properties :
#
#
# Convention : Reuss Voigt Hill
#
# Bulk Modulus (GPa) = 65.17309 65.32840 65.25074
# Shear Modulus (GPa) = 165.79627 20.26360 93.02994
#
# Velocity S-wave (km/s) = 9.68876 3.38719 7.25759
# Velocity P-wave (km/s) = 12.73040 7.23088 10.35250
#
# Compressibility (1/GPa) = 0.01534376
#
# Stress axis : x y z
#
# Youngs Moduli (GPa) = 91.26431 91.26405 68.75907
#
# Poissons Ratio (x) = 0.16432 0.30105
# Poissons Ratio (y) = 0.16432 0.30105
# Poissons Ratio (z) = 0.39959 0.39958
#
# Static dielectric constant tensor:
#      x y z
#    x 1.619930 0.000000 0.000000 
#    y 0.000000 1.619930 0.000000 
#    z 0.000000 0.000000 1.620110 
# 
# From -- ./inp_files/7479.got.cif
#   From: 2010.05.17/outbox.cif.g08.bks.cpg/sg98_4_cif.got.tgz:7479.got - 2010.06.03 20:00:51.
