data_PCOD9551691
_publ_section_title
;
Structure prediction by ZEFSAII (Michael W. Deem and Ramdas Pophale) SiO2 
 PCOD9551691
Probable space group: I 41 2 2
;
_chemical_formula_sum "Si O2"
_cell_formula_units_Z 120
_cell_length_a 17.974950
_cell_length_b 17.974950
_cell_length_c 19.534146
_cell_angle_alpha 90.000000
_cell_angle_beta 90.000000
_cell_angle_gamma 90.000000
_cell_volume 6311.459669
_symmetry_space_group_name_H-M "I 41 2 2"
_symmetry_group_IT_number 98
_symmetry_cell_setting 'tetragonal'
loop_
_space_group_symop_operation_xyz
x,y,z
-y,1/2+x,1/4+z
-x,-y,z
y,1/2-x,1/4+z
x,1/2-y,1/4-z
-x,1/2+y,1/4-z
y,x,-z
-y,-x,-z
1/2+x,1/2+y,1/2+z
1/2-y,x,3/4+z
1/2-x,1/2-y,1/2+z
1/2+y,-x,3/4+z
1/2+x,-y,3/4-z
1/2-x,y,3/4-z
1/2+y,1/2+x,1/2-z
1/2-y,1/2-x,1/2-z
loop_
_atom_site_type_symbol
_atom_site_label
_atom_site_fract_x
_atom_site_fract_y
_atom_site_fract_z
Si Si1 0.920410 0.079591 0.500000
Si Si2 0.299500 0.865412 0.058110
Si Si3 0.704037 0.518942 0.672890
Si Si4 0.557293 0.929786 0.502251
Si Si5 0.184089 0.542955 0.425135
Si Si6 0.363787 0.486093 0.116650
Si Si7 0.358283 0.596638 0.575358
Si Si8 0.424259 0.743257 0.052295
O O1 0.911117 0.010320 0.550778
O O2 0.916078 0.156014 0.542452
O O3 0.338169 0.934651 0.098358
O O4 0.215905 0.853233 0.083565
O O5 0.350208 0.793009 0.060377
O O6 0.289958 0.896903 0.981132
O O7 0.635611 0.559081 0.710243
O O8 0.785132 0.552199 0.653812
O O9 0.671625 0.482665 0.602829
O O10 0.726132 0.459754 0.732285
O O11 0.522141 0.855770 0.534469
O O12 0.558996 0.912654 0.421161
O O13 0.500000 0.000000 0.511757
O O14 0.250000 0.520407 0.375000
O O15 0.121769 0.580825 0.378933
O O16 0.392238 0.607763 0.500000
O O17 0.466615 0.750000 0.125000
#
# Coordination Sequence:
#
# PCOD9551691 Si02
#       8
#     8  16  16  16  16  16  16  16
#     4  10  20  30  49  82 124 150 196 247 278 360
#     4  10  19  30  45  71 113 159 201 227 287 354
#     4  10  21  39  57  85 117 158 202 250 307 362
#     4  11  21  39  66  82 119 165 204 243 312 370
#     4  11  21  35  51  79 113 155 203 250 300 352
#     4   9  20  36  55  85 119 152 195 250 297 358
#     4  11  20  31  50  73 115 157 195 246 280 354
#     4  11  20  31  51  78 118 162 202 231 289 359
#
# _framework density 19.013034000000001
#
# number of rings (size 3 to 8) (size 9 to 14) (size 15 to 20)
#    0.000    1.600    5.333    0.800    0.933    0.533 
#    0.000    1.667    0.000    0.000    0.000    2.800 
#    0.000    0.000    0.000    0.000    0.000    0.000 
#
# Total GULP energy -334340.427100 kJ/mol
# GULP energy per Si atom -5572.340452 kJ/mol
# Density = 1.896976 g / cm^3
# Si number density = 19.013034 Si / 1000 Ang^3
#
#
#
# Elastic Constant Matrix: (Units=GPa)
#
#
# Indices 1 2 3 4 5 6 
#
# 1 42.8486 16.7693 11.5319 0.0000 0.0000 0.0000
# 2 16.7693 42.8489 11.5315 0.0000 0.0000 0.0000
# 3 11.5319 11.5315 86.9548 0.0000 0.0000 0.0000
# 4 0.0000 0.0000 0.0000 26.6047 0.0000 0.0000
# 5 0.0000 0.0000 0.0000 0.0000 26.6049 0.0000
# 6 0.0000 0.0000 0.0000 0.0000 0.0000 19.2673
#
#
#
# Elastic Compliance Matrix: (Units=1/GPa)
#
#
# Indices 1 2 3 4 5 6 
#
# 1 0.028013 -0.010332 -0.002345 0.000000 0.000000 0.000000
# 2 -0.010332 0.028012 -0.002345 0.000000 0.000000 0.000000
# 3 -0.002345 -0.002345 0.012122 0.000000 0.000000 0.000000
# 4 0.000000 0.000000 0.000000 0.037587 0.000000 0.000000
# 5 0.000000 0.000000 0.000000 0.000000 0.037587 0.000000
# 6 0.000000 0.000000 0.000000 0.000000 0.000000 0.051902
#
#
# Mechanical properties :
#
#
# Convention : Reuss Voigt Hill
#
# Bulk Modulus (GPa) = 26.24383 28.03530 27.13956
# Shear Modulus (GPa) = 21.01131 23.35002 22.18066
#
# Velocity S-wave (km/s) = 3.32791 3.50824 3.41926
# Velocity P-wave (km/s) = 5.34787 5.58459 5.46751
#
# Compressibility (1/GPa) = 0.03810420
#
# Stress axis : x y z
#
# Youngs Moduli (GPa) = 35.69826 35.69862 82.49380
#
# Poissons Ratio (x) = 0.36884 0.19343
# Poissons Ratio (y) = 0.36883 0.19342
# Poissons Ratio (z) = 0.08371 0.08370
#
# Static dielectric constant tensor:
#      x y z
#    x 1.687240 0.000000 0.000000 
#    y 0.000000 1.687240 0.000000 
#    z 0.000000 0.000000 1.719030 
# 
# From -- ./inp_files/9144.got.cif
#   From: 2010.05.17/outbox.cif.g08.bks.cpg/sg98_5_cif.got.tgz:9144.got - 2010.06.03 20:00:51.
