data_PCOD9551393
_publ_section_title
;
Structure prediction by ZEFSAII (Michael W. Deem and Ramdas Pophale) SiO2 
 PCOD9551393
Probable space group: I 4 2 2 
;
_chemical_formula_sum "Si O2"
_cell_formula_units_Z 96
_cell_length_a 14.693213
_cell_length_b 14.693213
_cell_length_c 21.241915
_cell_angle_alpha 90.000000
_cell_angle_beta 90.000000
_cell_angle_gamma 90.000000
_cell_volume 4585.927826
_symmetry_space_group_name_H-M "I 4 2 2 "
_symmetry_group_IT_number 97
_symmetry_cell_setting 'tetragonal'
loop_
_space_group_symop_operation_xyz
x,y,z
-y,x,z
-x,-y,z
y,-x,z
x,-y,-z
-x,y,-z
y,x,-z
-y,-x,-z
1/2+x,1/2+y,1/2+z
1/2-y,1/2+x,1/2+z
1/2-x,1/2-y,1/2+z
1/2+y,1/2-x,1/2+z
1/2+x,1/2-y,1/2-z
1/2-x,1/2+y,1/2-z
1/2+y,1/2+x,1/2-z
1/2-y,1/2-x,1/2-z
loop_
_atom_site_type_symbol
_atom_site_label
_atom_site_fract_x
_atom_site_fract_y
_atom_site_fract_z
Si Si1 0.716100 0.783901 0.750000
Si Si2 0.486034 0.251361 0.714051
Si Si3 0.593080 0.942709 0.121357
Si Si4 0.888386 0.895700 0.433093
Si Si5 0.539644 0.644784 0.587955
Si Si6 0.000000 0.300756 0.000000
Si Si7 0.748892 0.374139 0.173486
O O1 0.609204 0.766985 0.748577
O O2 0.764399 0.730544 0.807024
O O3 0.516550 0.163013 0.673366
O O4 0.464869 0.326947 0.661156
O O5 0.563094 0.272850 0.765855
O O6 0.583198 0.837354 0.140603
O O7 0.500000 0.000000 0.123013
O O8 0.637421 0.949554 0.051813
O O9 0.856271 0.856271 0.500000
O O10 0.834700 0.864857 0.373213
O O11 0.995318 0.877293 0.431696
O O12 0.437753 0.607592 0.574775
O O13 0.557930 0.732404 0.544515
#
# Coordination Sequence:
#
# PCOD9551393 Si02
#       7
#     8  16  16  16  16   8  16
#     4  12  24  40  66  98 132 170 226 274 346 422
#     4  11  23  40  65  96 134 170 222 287 348 416
#     4  11  24  45  64  90 135 184 230 282 343 413
#     4   9  20  42  66  95 132 170 218 279 344 410
#     4  10  21  39  65  95 132 173 216 277 356 424
#     4  10  23  41  62  90 124 176 230 277 325 410
#     4  12  23  43  66 100 133 175 229 284 345 423
#
# _framework density 20.933603000000002
#
# number of rings (size 3 to 8) (size 9 to 14) (size 15 to 20)
#    0.000    1.333    1.667    4.250    2.333    1.333 
#   12.000    1.667    0.000    0.000    0.000    0.000 
#    0.000    0.000    0.000    0.000    0.000    0.000 
#
# Total GULP energy -267918.066569 kJ/mol
# GULP energy per Si atom -5581.626387 kJ/mol
# Density = 2.088596 g / cm^3
# Si number density = 20.933603 Si / 1000 Ang^3
#
#
#
# Elastic Constant Matrix: (Units=GPa)
#
#
# Indices 1 2 3 4 5 6 
#
# 1 121.6660 -48.5641 35.4236 0.0000 0.0000 0.0000
# 2 -48.5641 121.6666 35.4230 0.0000 0.0000 0.0000
# 3 35.4236 35.4230 134.8537 0.0000 0.0000 0.0000
# 4 0.0000 0.0000 0.0000 30.3272 0.0000 0.0000
# 5 0.0000 0.0000 0.0000 0.0000 30.3274 0.0000
# 6 0.0000 0.0000 0.0000 0.0000 0.0000 21.1622
#
#
#
# Elastic Compliance Matrix: (Units=1/GPa)
#
#
# Indices 1 2 3 4 5 6 
#
# 1 0.012113 0.006238 -0.004821 0.000000 0.000000 0.000000
# 2 0.006238 0.012113 -0.004820 0.000000 0.000000 0.000000
# 3 -0.004821 -0.004820 0.009948 0.000000 0.000000 0.000000
# 4 0.000000 0.000000 0.000000 0.032974 0.000000 0.000000
# 5 0.000000 0.000000 0.000000 0.000000 0.032973 0.000000
# 6 0.000000 0.000000 0.000000 0.000000 0.000000 0.047254
#
#
# Mechanical properties :
#
#
# Convention : Reuss Voigt Hill
#
# Bulk Modulus (GPa) = 36.53843 46.97237 41.75540
# Shear Modulus (GPa) = 30.61795 40.09026 35.35410
#
# Velocity S-wave (km/s) = 3.82857 4.38095 4.11404
# Velocity P-wave (km/s) = 6.08575 6.93381 6.52357
#
# Compressibility (1/GPa) = 0.02736844
#
# Stress axis : x y z
#
# Youngs Moduli (GPa) = 82.55680 82.55750 100.52336
#
# Poissons Ratio (x) = -0.51503 0.48458
# Poissons Ratio (y) = -0.51502 0.48457
# Poissons Ratio (z) = 0.39797 0.39797
#
# Static dielectric constant tensor:
#      x y z
#    x 1.758630 0.000000 0.000000 
#    y 0.000000 1.758630 0.000000 
#    z 0.000000 0.000000 1.820730 
# 
# From -- ./inp_files/6673.got.cif
#   From: 2010.05.17/outbox.cif.g08.bks.cpg/sg97_4_cif.got.tgz:6673.got - 2010.06.03 19:55:32.
