data_PCOD9551469
_publ_section_title
;
Structure prediction by ZEFSAII (Michael W. Deem and Ramdas Pophale) SiO2 
 PCOD9551469
Probable space group: I 4 2 2 
;
_chemical_formula_sum "Si O2"
_cell_formula_units_Z 56
_cell_length_a 17.710977
_cell_length_b 17.710977
_cell_length_c 7.344527
_cell_angle_alpha 90.000000
_cell_angle_beta 90.000000
_cell_angle_gamma 90.000000
_cell_volume 2303.821728
_symmetry_space_group_name_H-M "I 4 2 2 "
_symmetry_group_IT_number 97
_symmetry_cell_setting 'tetragonal'
loop_
_space_group_symop_operation_xyz
x,y,z
-y,x,z
-x,-y,z
y,-x,z
x,-y,-z
-x,y,-z
y,x,-z
-y,-x,-z
1/2+x,1/2+y,1/2+z
1/2-y,1/2+x,1/2+z
1/2-x,1/2-y,1/2+z
1/2+y,1/2-x,1/2+z
1/2+x,1/2-y,1/2-z
1/2-x,1/2+y,1/2-z
1/2+y,1/2+x,1/2-z
1/2-y,1/2-x,1/2-z
loop_
_atom_site_type_symbol
_atom_site_label
_atom_site_fract_x
_atom_site_fract_y
_atom_site_fract_z
Si Si1 0.888612 0.712194 0.134788
Si Si2 0.830445 0.928400 0.380344
Si Si3 0.378762 0.378762 0.500000
Si Si4 0.832777 0.443149 0.257205
O O1 0.821318 0.678683 0.250000
O O2 0.968377 0.679878 0.206358
O O3 0.887059 0.801526 0.113721
O O4 0.888558 0.685438 0.927379
O O5 0.858728 0.858728 0.500000
O O6 0.739221 0.926407 0.370942
O O7 0.854002 0.000000 0.500000
O O8 0.866397 0.934866 0.174580
O O9 0.921211 0.421211 0.250000
#
# Coordination Sequence:
#
# PCOD9551469 Si02
#       4
#    16  16   8  16
#     4  10  23  44  69 102 145 192 243 309 380 444
#     4  11  25  45  73 105 145 195 252 315 395 464
#     4  10  24  46  72 105 150 192 251 326 388 462
#     4  10  24  43  67 102 146 191 247 308 369 459
#
# _framework density 24.307438000000001
#
# number of rings (size 3 to 8) (size 9 to 14) (size 15 to 20)
#    0.000    1.714    0.000    1.714    8.000    8.857 
#    2.571    2.857    0.000   10.286    0.000    0.000 
#    0.000    0.000    0.000    0.000    0.000    0.000 
#
# Total GULP energy -156004.479257 kJ/mol
# GULP energy per Si atom -5571.588545 kJ/mol
# Density = 2.425211 g / cm^3
# Si number density = 24.307438 Si / 1000 Ang^3
#
#
#
# Elastic Constant Matrix: (Units=GPa)
#
#
# Indices 1 2 3 4 5 6 
#
# 1 139.0625 -18.1612 40.3435 0.0000 0.0000 0.0000
# 2 -18.1612 139.0792 40.3558 0.0000 0.0000 0.0000
# 3 40.3435 40.3558 159.8423 0.0000 0.0000 0.0000
# 4 0.0000 0.0000 0.0000 -6.3473 0.0000 0.0000
# 5 0.0000 0.0000 0.0000 0.0000 -6.3784 0.0000
# 6 0.0000 0.0000 0.0000 0.0000 0.0000 38.3387
#
#
#
# Elastic Compliance Matrix: (Units=1/GPa)
#
#
# Indices 1 2 3 4 5 6 
#
# 1 0.008154 0.001793 -0.002511 0.000000 0.000000 0.000000
# 2 0.001793 0.008153 -0.002511 0.000000 0.000000 0.000000
# 3 -0.002511 -0.002511 0.007524 0.000000 0.000000 0.000000
# 4 0.000000 0.000000 0.000000 -0.157548 0.000000 0.000000
# 5 0.000000 0.000000 0.000000 0.000000 -0.156780 0.000000
# 6 0.000000 0.000000 0.000000 0.000000 0.000000 0.026083
#
#
# Mechanical properties :
#
#
# Convention : Reuss Voigt Hill
#
# Bulk Modulus (GPa) = 57.55922 62.56223 60.06073
# Shear Modulus (GPa) = -19.82818 30.15234 5.16208
#
# Velocity S-wave (km/s) = -2.85919 3.52583 1.45886
# Velocity P-wave (km/s) = 3.58206 6.50916 5.25358
#
# Compressibility (1/GPa) = 0.01737341
#
# Stress axis : x y z
#
# Youngs Moduli (GPa) = 122.64564 122.65568 132.91152
#
# Poissons Ratio (x) = -0.21995 0.33370
# Poissons Ratio (y) = -0.21993 0.33374
# Poissons Ratio (z) = 0.30792 0.30799
#
# Static dielectric constant tensor:
#      x y z
#    x 2.252220 0.000000 0.000000 
#    y 0.000000 2.252240 0.000000 
#    z 0.000000 0.000000 2.311040 
# 
# From -- ./inp_files/1865.got.cif
#   From: 2010.05.17/outbox.cif.g08.bks.cpg/sg97_1_cif.got.tgz:1865.got - 2010.06.03 19:55:32.
