data_PCOD9551072
_publ_section_title
;
Structure prediction by ZEFSAII (Michael W. Deem and Ramdas Pophale) SiO2 
 PCOD9551072
Probable space group: P 43 21 2
;
_chemical_formula_sum "Si O2"
_cell_formula_units_Z 36
_cell_length_a 9.897045
_cell_length_b 9.897045
_cell_length_c 15.207523
_cell_angle_alpha 90.000000
_cell_angle_beta 90.000000
_cell_angle_gamma 90.000000
_cell_volume 1489.599685
_symmetry_space_group_name_H-M "P 43 21 2"
_symmetry_group_IT_number 96
_symmetry_cell_setting 'tetragonal'
loop_
_space_group_symop_operation_xyz
x,y,z
1/2-y,1/2+x,3/4+z
-x,-y,1/2+z
1/2+y,1/2-x,1/4+z
1/2+x,1/2-y,1/4-z
1/2-x,1/2+y,3/4-z
y,x,-z
-y,-x,1/2-z
loop_
_atom_site_type_symbol
_atom_site_label
_atom_site_fract_x
_atom_site_fract_y
_atom_site_fract_z
Si Si1 0.815566 0.751318 0.857159
Si Si2 0.557342 0.442659 0.750000
Si Si3 0.367703 0.942697 0.721733
Si Si4 0.455165 0.273222 0.315678
Si Si5 0.859370 0.780795 0.665111
O O1 0.887076 0.861828 0.916073
O O2 0.662958 0.734556 0.888135
O O3 0.785904 0.802160 0.757829
O O4 0.916719 0.625216 0.835539
O O5 0.587004 0.601761 0.753833
O O6 0.491267 0.862655 0.767422
O O7 0.313149 0.836882 0.650736
O O8 0.268225 0.993221 0.799494
O O9 0.585159 0.338908 0.361714
#
# Coordination Sequence:
#
# PCOD9551072 Si02
#       5
#     8   4   8   8   8
#     4  10  28  46  79 116 166 204 267 345 416 484
#     4  12  26  50  74 120 164 208 274 342 414 496
#     4  10  24  49  78 116 159 217 284 325 406 498
#     4  12  25  50  82 119 161 218 277 338 409 495
#     4  10  24  47  84 116 154 219 274 336 402 498
#
# _framework density 24.167566000000001
#
# number of rings (size 3 to 8) (size 9 to 14) (size 15 to 20)
#    1.333    0.000    2.222    1.333    3.111    8.000 
#    0.000    0.000    0.000    0.000    0.000    0.000 
#    0.000    0.000    0.000    0.000    0.000    0.000 
#
# Total GULP energy -200413.944507 kJ/mol
# GULP energy per Si atom -5567.054014 kJ/mol
# Density = 2.411256 g / cm^3
# Si number density = 24.167566 Si / 1000 Ang^3
#
#
#
# Elastic Constant Matrix: (Units=GPa)
#
#
# Indices 1 2 3 4 5 6 
#
# 1 132.8766 40.9873 30.7935 0.0000 0.0000 0.0000
# 2 40.9873 132.8776 30.7937 0.0000 0.0000 0.0000
# 3 30.7935 30.7937 60.1746 0.0000 0.0000 0.0000
# 4 0.0000 0.0000 0.0000 14.1260 0.0000 0.0000
# 5 0.0000 0.0000 0.0000 0.0000 14.1258 0.0000
# 6 0.0000 0.0000 0.0000 0.0000 0.0000 -8.5406
#
#
#
# Elastic Compliance Matrix: (Units=1/GPa)
#
#
# Indices 1 2 3 4 5 6 
#
# 1 0.008954 -0.001929 -0.003595 0.000000 0.000000 0.000000
# 2 -0.001929 0.008954 -0.003595 0.000000 0.000000 0.000000
# 3 -0.003595 -0.003595 0.020298 0.000000 0.000000 0.000000
# 4 0.000000 0.000000 0.000000 0.070792 0.000000 0.000000
# 5 0.000000 0.000000 0.000000 0.000000 0.070792 0.000000
# 6 0.000000 0.000000 0.000000 0.000000 0.000000 -0.117088
#
#
# Mechanical properties :
#
#
# Convention : Reuss Voigt Hill
#
# Bulk Modulus (GPa) = 50.08050 59.00865 54.54458
# Shear Modulus (GPa) = 57.08123 18.83253 37.95688
#
# Velocity S-wave (km/s) = 4.86520 2.79453 3.96734
# Velocity P-wave (km/s) = 7.23377 5.90610 6.60339
#
# Compressibility (1/GPa) = 0.01996785
#
# Stress axis : x y z
#
# Youngs Moduli (GPa) = 111.68377 111.68459 49.26669
#
# Poissons Ratio (x) = 0.21541 0.17711
# Poissons Ratio (y) = 0.21541 0.17711
# Poissons Ratio (z) = 0.40150 0.40150
#
# Static dielectric constant tensor:
#      x y z
#    x 2.191090 0.000000 0.000000 
#    y 0.000000 2.191090 0.000000 
#    z 0.000000 0.000000 2.026460 
# 
# From -- ./inp_files/2561.got.cif
#   From: 2010.05.17/outbox.cif.g08.bks.cpg/sg96_2_cif.got.tgz:2561.got - 2010.06.03 19:52:08.
