data_PCOD9551554
_publ_section_title
;
Structure prediction by ZEFSAII (Michael W. Deem and Ramdas Pophale) SiO2 
 PCOD9551554
Probable space group: I 4 2 2 
;
_chemical_formula_sum "Si O2"
_cell_formula_units_Z 120
_cell_length_a 20.089967
_cell_length_b 20.089967
_cell_length_c 14.369072
_cell_angle_alpha 90.000000
_cell_angle_beta 90.000000
_cell_angle_gamma 90.000000
_cell_volume 5799.454796
_symmetry_space_group_name_H-M "I 4 2 2 "
_symmetry_group_IT_number 97
_symmetry_cell_setting 'tetragonal'
loop_
_space_group_symop_operation_xyz
x,y,z
-y,x,z
-x,-y,z
y,-x,z
x,-y,-z
-x,y,-z
y,x,-z
-y,-x,-z
1/2+x,1/2+y,1/2+z
1/2-y,1/2+x,1/2+z
1/2-x,1/2-y,1/2+z
1/2+y,1/2-x,1/2+z
1/2+x,1/2-y,1/2-z
1/2-x,1/2+y,1/2-z
1/2+y,1/2+x,1/2-z
1/2-y,1/2-x,1/2-z
loop_
_atom_site_type_symbol
_atom_site_label
_atom_site_fract_x
_atom_site_fract_y
_atom_site_fract_z
Si Si1 0.442073 0.949859 0.861115
Si Si2 0.944367 0.804933 0.803072
Si Si3 0.742757 0.383706 0.493662
Si Si4 0.704390 0.044280 0.638980
Si Si5 0.164565 0.500000 0.500000
Si Si6 0.897764 0.824313 0.185163
Si Si7 0.661763 0.767549 0.005848
Si Si8 0.302643 0.889088 0.309328
O O1 0.446168 0.946168 0.750000
O O2 0.445210 0.872806 0.886147
O O3 0.377490 0.977712 0.910870
O O4 0.500000 0.000000 0.891884
O O5 0.924867 0.785052 0.907089
O O6 0.933410 0.741919 0.734045
O O7 0.891999 0.863385 0.779651
O O8 0.021936 0.826074 0.804222
O O9 0.795238 0.436517 0.534737
O O10 0.691226 0.374925 0.578652
O O11 0.783042 0.319691 0.454897
O O12 0.736888 0.091826 0.560331
O O13 0.704600 0.964644 0.654172
O O14 0.874400 0.760979 0.245026
O O15 0.696258 0.696258 0.000000
O O16 0.652652 0.796508 0.902837
O O17 0.368108 0.868108 0.250000
#
# Coordination Sequence:
#
# PCOD9551554 Si02
#       8
#    16  16  16  16   8  16  16  16
#     4  11  26  39  62  92 130 178 230 272 330 401
#     4  11  24  43  67  95 132 169 227 280 355 406
#     4  12  23  39  64  92 132 175 217 272 340 408
#     4  11  26  44  66  96 135 178 229 290 336 412
#     4  12  23  42  62  90 131 180 218 282 332 400
#     4  11  23  43  66  96 128 174 216 287 344 423
#     4  12  25  43  67  97 131 179 234 287 346 414
#     4  11  25  42  67  95 135 178 228 280 348 414
#
# _framework density 20.691602
#
# number of rings (size 3 to 8) (size 9 to 14) (size 15 to 20)
#    0.000    0.667    4.000    3.400    5.600    1.333 
#    0.000    0.000    0.000    1.600    0.000    0.000 
#    0.000    9.600    0.000    0.000    0.000    0.000 
#
# Total GULP energy -334786.960314 kJ/mol
# GULP energy per Si atom -5579.782672 kJ/mol
# Density = 2.064451 g / cm^3
# Si number density = 20.691602 Si / 1000 Ang^3
#
#
#
# Elastic Constant Matrix: (Units=GPa)
#
#
# Indices 1 2 3 4 5 6 
#
# 1 119.7284 20.2790 24.9362 0.0000 0.0000 0.0000
# 2 20.2790 119.7284 24.9362 0.0000 0.0000 0.0000
# 3 24.9362 24.9362 78.0571 0.0000 0.0000 0.0000
# 4 0.0000 0.0000 0.0000 21.6930 0.0000 0.0000
# 5 0.0000 0.0000 0.0000 0.0000 21.6930 0.0000
# 6 0.0000 0.0000 0.0000 0.0000 0.0000 43.5311
#
#
#
# Elastic Compliance Matrix: (Units=1/GPa)
#
#
# Indices 1 2 3 4 5 6 
#
# 1 0.009057 -0.000998 -0.002575 0.000000 0.000000 0.000000
# 2 -0.000998 0.009057 -0.002575 0.000000 0.000000 0.000000
# 3 -0.002575 -0.002575 0.014456 0.000000 0.000000 0.000000
# 4 0.000000 0.000000 0.000000 0.046098 0.000000 0.000000
# 5 0.000000 0.000000 0.000000 0.000000 0.046098 0.000000
# 6 0.000000 0.000000 0.000000 0.000000 0.000000 0.022972
#
#
# Mechanical properties :
#
#
# Convention : Reuss Voigt Hill
#
# Bulk Modulus (GPa) = 49.31818 50.86854 50.09336
# Shear Modulus (GPa) = 29.97738 33.87425 31.92581
#
# Velocity S-wave (km/s) = 3.81040 4.05050 3.93228
# Velocity P-wave (km/s) = 6.57613 6.82004 6.69919
#
# Compressibility (1/GPa) = 0.02027650
#
# Stress axis : x y z
#
# Youngs Moduli (GPa) = 110.40575 110.40575 69.17456
#
# Poissons Ratio (x) = 0.11017 0.17811
# Poissons Ratio (y) = 0.11017 0.17811
# Poissons Ratio (z) = 0.28427 0.28427
#
# Static dielectric constant tensor:
#      x y z
#    x 1.767150 0.000000 0.000000 
#    y 0.000000 1.767150 0.000000 
#    z 0.000000 0.000000 1.740960 
# 
# From -- ./inp_files/5067.got.cif
#   From: 2010.05.17/outbox.cif.g08.bks.cpg/sg97_3_cif.got.tgz:5067.got - 2010.06.03 19:55:32.
