data_PCOD9551727
_publ_section_title
;
Structure prediction by ZEFSAII (Michael W. Deem and Ramdas Pophale) SiO2 
 PCOD9551727
Probable space group: I 41 2 2
;
_chemical_formula_sum "Si O2"
_cell_formula_units_Z 88
_cell_length_a 14.970472
_cell_length_b 14.970472
_cell_length_c 18.639147
_cell_angle_alpha 90.000000
_cell_angle_beta 90.000000
_cell_angle_gamma 90.000000
_cell_volume 4177.313025
_symmetry_space_group_name_H-M "I 41 2 2"
_symmetry_group_IT_number 98
_symmetry_cell_setting 'tetragonal'
loop_
_space_group_symop_operation_xyz
x,y,z
-y,1/2+x,1/4+z
-x,-y,z
y,1/2-x,1/4+z
x,1/2-y,1/4-z
-x,1/2+y,1/4-z
y,x,-z
-y,-x,-z
1/2+x,1/2+y,1/2+z
1/2-y,x,3/4+z
1/2-x,1/2-y,1/2+z
1/2+y,-x,3/4+z
1/2+x,-y,3/4-z
1/2-x,y,3/4-z
1/2+y,1/2+x,1/2-z
1/2-y,1/2-x,1/2-z
loop_
_atom_site_type_symbol
_atom_site_label
_atom_site_fract_x
_atom_site_fract_y
_atom_site_fract_z
Si Si1 0.421197 0.563346 0.915338
Si Si2 0.217738 0.074555 0.970904
Si Si3 0.755684 0.024532 0.119076
Si Si4 0.914344 0.444038 0.335386
Si Si5 0.250000 0.456144 0.875000
Si Si6 0.635464 0.780445 0.982750
O O1 0.500000 0.500000 0.884707
O O2 0.426435 0.663128 0.884799
O O3 0.326542 0.517562 0.906217
O O4 0.433429 0.566572 0.000000
O O5 0.248625 0.016993 0.039430
O O6 0.296638 0.144420 0.953778
O O7 0.136837 0.136837 0.000000
O O8 0.171250 0.008251 0.913856
O O9 0.765794 0.943751 0.176360
O O10 0.846544 0.083776 0.121378
O O11 0.928151 0.428151 0.250000
O O12 0.000000 0.500000 0.362252
O O13 0.200613 0.400839 0.937548
O O14 0.690591 0.690591 0.000000
#
# Coordination Sequence:
#
# PCOD9551727 Si02
#       6
#    16  16  16  16   8  16
#     4  11  23  43  71  95 135 188 228 285 352 404
#     4  10  19  36  65  97 135 177 219 281 349 402
#     4  11  21  38  67  95 131 181 235 260 344 423
#     4   9  16  36  62  87 134 183 213 261 336 412
#     4  12  24  44  70 100 138 170 228 292 352 402
#     4  11  22  36  65 105 136 164 224 296 343 400
#
# _framework density 21.066172999999999
#
# number of rings (size 3 to 8) (size 9 to 14) (size 15 to 20)
#    0.000    1.455    5.455    3.273    0.000    2.182 
#    0.000    5.455    4.000    0.000    0.000    0.000 
#    0.000    0.000    0.000    0.000    0.000    0.000 
#
# Total GULP energy -245747.701706 kJ/mol
# GULP energy per Si atom -5585.175039 kJ/mol
# Density = 2.101823 g / cm^3
# Si number density = 21.066173 Si / 1000 Ang^3
#
#
#
# Elastic Constant Matrix: (Units=GPa)
#
#
# Indices 1 2 3 4 5 6 
#
# 1 -21.0288 183.1285 24.3868 0.0000 0.0000 0.0000
# 2 183.1285 -21.0330 24.3853 0.0000 0.0000 0.0000
# 3 24.3868 24.3853 42.9817 0.0000 0.0000 0.0000
# 4 0.0000 0.0000 0.0000 22.5339 0.0000 0.0000
# 5 0.0000 0.0000 0.0000 0.0000 22.5343 0.0000
# 6 0.0000 0.0000 0.0000 0.0000 0.0000 39.0378
#
#
#
# Elastic Compliance Matrix: (Units=1/GPa)
#
#
# Indices 1 2 3 4 5 6 
#
# 1 0.001270 0.006169 -0.004221 0.000000 0.000000 0.000000
# 2 0.006169 0.001270 -0.004221 0.000000 0.000000 0.000000
# 3 -0.004221 -0.004221 0.028055 0.000000 0.000000 0.000000
# 4 0.000000 0.000000 0.000000 0.044378 0.000000 0.000000
# 5 0.000000 0.000000 0.000000 0.000000 0.044377 0.000000
# 6 0.000000 0.000000 0.000000 0.000000 0.000000 0.025616
#
#
# Mechanical properties :
#
#
# Convention : Reuss Voigt Hill
#
# Bulk Modulus (GPa) = 38.38691 51.63568 45.01130
# Shear Modulus (GPa) = 31.60654 1.42248 16.51451
#
# Velocity S-wave (km/s) = 3.87763 0.82262 2.80292
# Velocity P-wave (km/s) = 6.18948 5.04645 5.64696
#
# Compressibility (1/GPa) = 0.02605055
#
# Stress axis : x y z
#
# Youngs Moduli (GPa) = 787.09774 787.15589 35.64443
#
# Poissons Ratio (x) = -4.85563 0.15044
# Poissons Ratio (y) = -4.85527 0.15044
# Poissons Ratio (z) = 3.32197 3.32231
#
# Static dielectric constant tensor:
#      x y z
#    x 1.748830 0.000000 0.000000 
#    y 0.000000 1.748820 0.000000 
#    z 0.000000 0.000000 1.749690 
# 
# From -- ./inp_files/8813.got.cif
#   From: 2010.05.17/outbox.cif.g08.bks.cpg/sg98_5_cif.got.tgz:8813.got - 2010.06.03 20:00:51.
