data_PCOD9551693
_publ_section_title
;
Structure prediction by ZEFSAII (Michael W. Deem and Ramdas Pophale) SiO2 
 PCOD9551693
Probable space group: I 41 2 2
;
_chemical_formula_sum "Si O2"
_cell_formula_units_Z 80
_cell_length_a 23.761686
_cell_length_b 23.761686
_cell_length_c 8.785118
_cell_angle_alpha 90.000000
_cell_angle_beta 90.000000
_cell_angle_gamma 90.000000
_cell_volume 4960.233309
_symmetry_space_group_name_H-M "I 41 2 2"
_symmetry_group_IT_number 98
_symmetry_cell_setting 'tetragonal'
loop_
_space_group_symop_operation_xyz
x,y,z
-y,1/2+x,1/4+z
-x,-y,z
y,1/2-x,1/4+z
x,1/2-y,1/4-z
-x,1/2+y,1/4-z
y,x,-z
-y,-x,-z
1/2+x,1/2+y,1/2+z
1/2-y,x,3/4+z
1/2-x,1/2-y,1/2+z
1/2+y,-x,3/4+z
1/2+x,-y,3/4-z
1/2-x,y,3/4-z
1/2+y,1/2+x,1/2-z
1/2-y,1/2-x,1/2-z
loop_
_atom_site_type_symbol
_atom_site_label
_atom_site_fract_x
_atom_site_fract_y
_atom_site_fract_z
Si Si1 0.734877 0.578162 0.552717
Si Si2 0.556154 0.850056 0.270673
Si Si3 0.798629 0.798629 0.000000
Si Si4 0.573298 0.426703 0.500000
Si Si5 0.522057 0.941039 0.505692
Si Si6 0.994771 0.860418 0.808580
O O1 0.750000 0.574554 0.375000
O O2 0.790265 0.569839 0.654892
O O3 0.708306 0.640116 0.576009
O O4 0.689468 0.531454 0.594483
O O5 0.614634 0.885367 0.250000
O O6 0.523802 0.890724 0.387580
O O7 0.517821 0.844885 0.118881
O O8 0.793143 0.750000 0.125000
O O9 0.519385 0.426479 0.608802
O O10 0.556368 0.377225 0.377930
O O11 0.583539 0.956116 0.568049
O O12 0.500000 0.000000 0.435834
#
# Coordination Sequence:
#
# PCOD9551693 Si02
#       6
#    16  16   8   8  16  16
#     4  11  24  37  50  69  96 136 180 230 282 329
#     4  10  22  34  53  72 101 133 174 224 275 330
#     4  10  26  36  52  65  88 130 185 242 282 318
#     4  10  19  30  54  74 100 124 160 214 268 334
#     4   9  18  32  51  76  98 124 164 212 263 324
#     4  10  20  32  51  71  97 126 165 216 270 325
#
# _framework density 16.128274000000001
#
# number of rings (size 3 to 8) (size 9 to 14) (size 15 to 20)
#    0.000    2.000    0.000    4.500   15.400    9.200 
#    0.000    0.000    0.000    0.000    0.000    0.000 
#    0.000    0.000    0.000    0.000    0.000  468.000 
#
# Total GULP energy -222731.851794 kJ/mol
# GULP energy per Si atom -5568.296295 kJ/mol
# Density = 1.609157 g / cm^3
# Si number density = 16.128274 Si / 1000 Ang^3
#
#
#
# Elastic Constant Matrix: (Units=GPa)
#
#
# Indices 1 2 3 4 5 6 
#
# 1 63.2358 47.1132 36.5219 0.0000 0.0000 0.0000
# 2 47.1132 63.2385 36.5209 0.0000 0.0000 0.0000
# 3 36.5219 36.5209 80.9949 0.0000 0.0000 0.0000
# 4 0.0000 0.0000 0.0000 12.8674 0.0000 0.0000
# 5 0.0000 0.0000 0.0000 0.0000 12.8764 0.0000
# 6 0.0000 0.0000 0.0000 0.0000 0.0000 25.1931
#
#
#
# Elastic Compliance Matrix: (Units=1/GPa)
#
#
# Indices 1 2 3 4 5 6 
#
# 1 0.037470 -0.024551 -0.005826 0.000000 0.000000 0.000000
# 2 -0.024551 0.037467 -0.005824 0.000000 0.000000 0.000000
# 3 -0.005826 -0.005824 0.017599 0.000000 0.000000 0.000000
# 4 0.000000 0.000000 0.000000 0.077716 0.000000 0.000000
# 5 0.000000 0.000000 0.000000 0.000000 0.077661 0.000000
# 6 0.000000 0.000000 0.000000 0.000000 0.000000 0.039693
#
#
# Mechanical properties :
#
#
# Convention : Reuss Voigt Hill
#
# Bulk Modulus (GPa) = 49.66308 49.75347 49.70828
# Shear Modulus (GPa) = 13.63442 16.00826 14.82134
#
# Velocity S-wave (km/s) = 2.91069 3.15391 3.03473
# Velocity P-wave (km/s) = 6.49273 6.64668 6.57016
#
# Compressibility (1/GPa) = 0.02013568
#
# Stress axis : x y z
#
# Youngs Moduli (GPa) = 26.68812 26.69015 56.82074
#
# Poissons Ratio (x) = 0.65527 0.33102
# Poissons Ratio (y) = 0.65522 0.33090
# Poissons Ratio (z) = 0.15547 0.15543
#
# Static dielectric constant tensor:
#      x y z
#    x 1.543170 0.000000 0.000000 
#    y 0.000000 1.543170 0.000000 
#    z 0.000000 0.000000 1.610370 
# 
# From -- ./inp_files/3652.got.cif
#   From: 2010.05.17/outbox.cif.g08.bks.cpg/sg98_2_cif.got.tgz:3652.got - 2010.06.03 20:00:51.
