data_PCOD9551915
_publ_section_title
;
Structure prediction by ZEFSAII (Michael W. Deem and Ramdas Pophale) SiO2 
 PCOD9551915
Probable space group: I 41 2 2
;
_chemical_formula_sum "Si O2"
_cell_formula_units_Z 72
_cell_length_a 15.298443
_cell_length_b 15.298443
_cell_length_c 15.003511
_cell_angle_alpha 90.000000
_cell_angle_beta 90.000000
_cell_angle_gamma 90.000000
_cell_volume 3511.457096
_symmetry_space_group_name_H-M "I 41 2 2"
_symmetry_group_IT_number 98
_symmetry_cell_setting 'tetragonal'
loop_
_space_group_symop_operation_xyz
x,y,z
-y,1/2+x,1/4+z
-x,-y,z
y,1/2-x,1/4+z
x,1/2-y,1/4-z
-x,1/2+y,1/4-z
y,x,-z
-y,-x,-z
1/2+x,1/2+y,1/2+z
1/2-y,x,3/4+z
1/2-x,1/2-y,1/2+z
1/2+y,-x,3/4+z
1/2+x,-y,3/4-z
1/2-x,y,3/4-z
1/2+y,1/2+x,1/2-z
1/2-y,1/2-x,1/2-z
loop_
_atom_site_type_symbol
_atom_site_label
_atom_site_fract_x
_atom_site_fract_y
_atom_site_fract_z
Si Si1 0.603406 0.896595 0.750000
Si Si2 0.377837 0.596133 0.763587
Si Si3 0.848691 0.288827 0.838250
Si Si4 0.186065 0.313936 0.750000
Si Si5 0.250000 0.034210 0.375000
Si Si6 0.837762 0.750000 0.125000
Si Si7 0.000000 0.500000 0.110829
O O1 0.693756 0.894090 0.805291
O O2 0.533665 0.921389 0.826462
O O3 0.404715 0.670163 0.833890
O O4 0.307045 0.629248 0.692698
O O5 0.321754 0.524139 0.820995
O O6 0.460479 0.569456 0.706705
O O7 0.750000 0.290283 0.875000
O O8 0.848512 0.348512 0.750000
O O9 0.098359 0.301636 0.692737
O O10 0.191946 0.229675 0.816046
#
# Coordination Sequence:
#
# PCOD9551915 Si02
#       7
#     8  16  16   8   8   8   8
#     4  10  22  43  58  84 128 163 206 258 310 384
#     4  11  22  40  63  88 127 160 207 267 313 379
#     4   9  18  40  64  87 112 162 219 250 291 371
#     4   9  20  33  60  98 114 157 206 251 314 382
#     4  11  20  36  60  89 128 156 200 257 310 376
#     4   9  18  40  68  79 116 170 216 243 300 404
#     4  11  26  40  53  96 136 154 203 272 330 369
#
# _framework density 20.50431
#
# number of rings (size 3 to 8) (size 9 to 14) (size 15 to 20)
#    0.000    2.000    3.333    1.333    0.000    3.556 
#   14.000    0.000    0.000    0.000    0.000    0.000 
#    0.000    0.000    0.000    0.000    0.000    0.000 
#
# Total GULP energy -200601.906455 kJ/mol
# GULP energy per Si atom -5572.275179 kJ/mol
# Density = 2.045764 g / cm^3
# Si number density = 20.504310 Si / 1000 Ang^3
#
#
#
# Elastic Constant Matrix: (Units=GPa)
#
#
# Indices 1 2 3 4 5 6 
#
# 1 25.0442 13.5818 36.1700 0.0000 0.0000 0.0000
# 2 13.5818 25.0443 36.1706 0.0000 0.0000 0.0000
# 3 36.1700 36.1706 135.3885 0.0000 0.0000 0.0000
# 4 0.0000 0.0000 0.0000 27.4765 0.0000 0.0000
# 5 0.0000 0.0000 0.0000 0.0000 27.4771 0.0000
# 6 0.0000 0.0000 0.0000 0.0000 0.0000 24.6362
#
#
#
# Elastic Compliance Matrix: (Units=1/GPa)
#
#
# Indices 1 2 3 4 5 6 
#
# 1 0.069527 -0.017713 -0.013842 0.000000 0.000000 0.000000
# 2 -0.017713 0.069528 -0.013843 0.000000 0.000000 0.000000
# 3 -0.013842 -0.013843 0.014783 0.000000 0.000000 0.000000
# 4 0.000000 0.000000 0.000000 0.036395 0.000000 0.000000
# 5 0.000000 0.000000 0.000000 0.000000 0.036394 0.000000
# 6 0.000000 0.000000 0.000000 0.000000 0.000000 0.040591
#
#
# Mechanical properties :
#
#
# Convention : Reuss Voigt Hill
#
# Bulk Modulus (GPa) = 15.86275 39.70240 27.78257
# Shear Modulus (GPa) = 13.19162 22.55495 17.87328
#
# Velocity S-wave (km/s) = 2.53920 3.32024 2.95563
# Velocity P-wave (km/s) = 4.04349 5.83983 5.02262
#
# Compressibility (1/GPa) = 0.06304079
#
# Stress axis : x y z
#
# Youngs Moduli (GPa) = 14.38282 14.38264 67.64722
#
# Poissons Ratio (x) = 0.25476 0.93640
# Poissons Ratio (y) = 0.25477 0.93644
# Poissons Ratio (z) = 0.19909 0.19910
#
# Static dielectric constant tensor:
#      x y z
#    x 1.756180 0.000000 0.000000 
#    y 0.000000 1.756180 0.000000 
#    z 0.000000 0.000000 1.759840 
# 
# From -- ./inp_files/7557.got.cif
#   From: 2010.05.17/outbox.cif.g08.bks.cpg/sg98_4_cif.got.tgz:7557.got - 2010.06.03 20:00:51.
