data_PCOD9551624
_publ_section_title
;
Structure prediction by ZEFSAII (Michael W. Deem and Ramdas Pophale) SiO2 
 PCOD9551624
Probable space group: I 4 2 2 
;
_chemical_formula_sum "Si O2"
_cell_formula_units_Z 48
_cell_length_a 21.000000
_cell_length_b 21.000000
_cell_length_c 12.000000
_cell_angle_alpha 90.000000
_cell_angle_beta 90.000000
_cell_angle_gamma 90.000000
_cell_volume 5292.000000
_symmetry_space_group_name_H-M "I 4 2 2 "
_symmetry_group_IT_number 97
_symmetry_cell_setting 'tetragonal'
loop_
_space_group_symop_operation_xyz
x,y,z
-y,x,z
-x,-y,z
y,-x,z
x,-y,-z
-x,y,-z
y,x,-z
-y,-x,-z
1/2+x,1/2+y,1/2+z
1/2-y,1/2+x,1/2+z
1/2-x,1/2-y,1/2+z
1/2+y,1/2-x,1/2+z
1/2+x,1/2-y,1/2-z
1/2-x,1/2+y,1/2-z
1/2+y,1/2+x,1/2-z
1/2-y,1/2-x,1/2-z
loop_
_atom_site_type_symbol
_atom_site_label
_atom_site_fract_x
_atom_site_fract_y
_atom_site_fract_z
Si Si1 0.108823 0.989282 0.721716
Si Si2 0.271551 0.834897 0.474367
Si Si3 0.688181 0.093132 0.697173
Si Si4 0.192833 0.901875 0.866056
Si Si5 0.538306 0.254152 0.172399
Si Si6 0.266509 0.623452 0.611068
O O1 0.144350 0.958847 0.831515
O O2 0.054329 0.933425 0.707528
O O3 0.175070 0.006061 0.654538
O O4 0.210320 0.789681 0.500000
O O5 0.298403 0.861586 0.591176
O O6 0.255088 0.899421 0.405769
O O7 0.323787 0.789295 0.411582
O O8 0.622177 0.122177 0.750000
O O9 0.745947 0.100503 0.785648
O O10 0.700782 0.018223 0.662697
O O11 0.158401 0.832839 0.854947
O O12 0.217297 0.907550 0.991883
O O13 0.570547 0.251432 0.295845
#
# Coordination Sequence:
#
# PCOD9551624 Si02
#       6
#    16  16  16  16  16  16
#     4  10  21  39  59  86 136 188 218 251 307 399
#     4  12  23  39  67  96 129 166 221 282 337 379
#     4  11  22  42  61  89 125 171 212 274 334 396
#     4  10  20  38  61  92 124 163 226 267 325 376
#     4  11  25  39  64  95 133 169 223 265 329 400
#     4  11  20  40  61  96 124 164 209 289 335 376
#
# _framework density 9.0702949999999998
#
# number of rings (size 3 to 8) (size 9 to 14) (size 15 to 20)
#    0.000    1.167    5.000    2.000    2.333    2.667 
#    0.000    0.000    0.000    2.000    0.000    4.667 
#    0.000    0.000    0.000    0.000    0.000    0.000 
#
# Total GULP energy -267294.903197 kJ/mol
# GULP energy per Si atom -5568.643817 kJ/mol
# Density = 0.904965 g / cm^3
# Si number density = 9.070295 Si / 1000 Ang^3
#
#
#
# Elastic Constant Matrix: (Units=GPa)
#
#
# Indices 1 2 3 4 5 6 
#
# 1 100.4887 44.0414 14.1062 0.0000 0.0000 0.0000
# 2 44.0414 100.4881 14.1062 0.0000 0.0000 0.0000
# 3 14.1062 14.1062 45.0280 0.0000 0.0000 0.0000
# 4 0.0000 0.0000 0.0000 36.3324 0.0000 0.0000
# 5 0.0000 0.0000 0.0000 0.0000 36.3327 0.0000
# 6 0.0000 0.0000 0.0000 0.0000 0.0000 50.6638
#
#
#
# Elastic Compliance Matrix: (Units=1/GPa)
#
#
# Indices 1 2 3 4 5 6 
#
# 1 0.012543 -0.005173 -0.002309 0.000000 0.000000 0.000000
# 2 -0.005173 0.012543 -0.002309 0.000000 0.000000 0.000000
# 3 -0.002309 -0.002309 0.023655 0.000000 0.000000 0.000000
# 4 0.000000 0.000000 0.000000 0.027524 0.000000 0.000000
# 5 0.000000 0.000000 0.000000 0.000000 0.027523 0.000000
# 6 0.000000 0.000000 0.000000 0.000000 0.000000 0.019738
#
#
# Mechanical properties :
#
#
# Convention : Reuss Voigt Hill
#
# Bulk Modulus (GPa) = 34.29433 43.39025 38.84229
# Shear Modulus (GPa) = 32.71691 36.24917 34.48304
#
# Velocity S-wave (km/s) = 4.25139 4.47501 4.36464
# Velocity P-wave (km/s) = 6.56086 7.11841 6.84532
#
# Compressibility (1/GPa) = 0.02915934
#
# Stress axis : x y z
#
# Youngs Moduli (GPa) = 79.72794 79.72744 42.27441
#
# Poissons Ratio (x) = 0.41243 0.09760
# Poissons Ratio (y) = 0.41244 0.09760
# Poissons Ratio (z) = 0.18407 0.18407
#
# Static dielectric constant tensor:
#      x y z
#    x 1.634760 0.000000 0.000000 
#    y 0.000000 1.634760 0.000000 
#    z 0.000000 0.000000 1.672900 
# 
# From -- ./inp_files/3884.got.cif
#   From: 2010.05.17/outbox.ucp.g08.bks.cvg/sg97_2_cif.got.tgz:3884.got - 2010.06.11 10:37:40.
