data_PCOD9551640
_publ_section_title
;
Structure prediction by ZEFSAII (Michael W. Deem and Ramdas Pophale) SiO2 
 PCOD9551640
Probable space group: I 41 2 2
;
_chemical_formula_sum "Si O2"
_cell_formula_units_Z 104
_cell_length_a 21.756532
_cell_length_b 21.756532
_cell_length_c 14.179882
_cell_angle_alpha 90.000000
_cell_angle_beta 90.000000
_cell_angle_gamma 90.000000
_cell_volume 6712.000134
_symmetry_space_group_name_H-M "I 41 2 2"
_symmetry_group_IT_number 98
_symmetry_cell_setting 'tetragonal'
loop_
_space_group_symop_operation_xyz
x,y,z
-y,1/2+x,1/4+z
-x,-y,z
y,1/2-x,1/4+z
x,1/2-y,1/4-z
-x,1/2+y,1/4-z
y,x,-z
-y,-x,-z
1/2+x,1/2+y,1/2+z
1/2-y,x,3/4+z
1/2-x,1/2-y,1/2+z
1/2+y,-x,3/4+z
1/2+x,-y,3/4-z
1/2-x,y,3/4-z
1/2+y,1/2+x,1/2-z
1/2-y,1/2-x,1/2-z
loop_
_atom_site_type_symbol
_atom_site_label
_atom_site_fract_x
_atom_site_fract_y
_atom_site_fract_z
Si Si1 0.936691 0.475148 0.855551
Si Si2 0.137192 0.225913 0.326233
Si Si3 0.750000 0.814286 0.875000
Si Si4 0.542548 0.756639 0.971218
Si Si5 0.416477 0.156396 0.126364
Si Si6 0.397853 0.737657 0.973272
Si Si7 0.651952 0.367072 0.847540
O O1 0.950503 0.450503 0.750000
O O2 0.897208 0.537080 0.846320
O O3 0.901225 0.419323 0.907907
O O4 0.000000 0.500000 0.899579
O O5 0.144188 0.234973 0.215005
O O6 0.192611 0.268075 0.364725
O O7 0.075231 0.251277 0.371555
O O8 0.143843 0.155245 0.359455
O O9 0.470345 0.747375 0.963510
O O10 0.557344 0.818429 0.027416
O O11 0.573418 0.706243 0.041076
O O12 0.372137 0.699544 0.883452
O O13 0.367636 0.802323 0.007314
O O14 0.389434 0.693108 0.063585
#
# Coordination Sequence:
#
# PCOD9551640 Si02
#       7
#    16  16   8  16  16  16  16
#     4  11  21  29  41  68 113 148 162 203 250 318
#     4  11  22  32  50  66  97 145 187 236 270 303
#     4  10  22  40  44  68 100 136 204 244 274 288
#     4  11  19  31  48  72 100 142 176 216 262 320
#     4  11  20  31  44  73 107 139 180 207 263 331
#     4  10  18  30  49  69 105 134 165 207 249 330
#     4  10  17  32  45  70 102 141 167 198 254 308
#
# _framework density 15.494635000000001
#
# number of rings (size 3 to 8) (size 9 to 14) (size 15 to 20)
#    0.000    1.385    6.154    2.308    8.615    0.000 
#    0.000    0.000    0.000    0.000    0.000    8.615 
#    0.000    4.923    0.000    0.000    0.000    0.000 
#
# Total GULP energy -289656.055650 kJ/mol
# GULP energy per Si atom -5570.308762 kJ/mol
# Density = 1.545937 g / cm^3
# Si number density = 15.494635 Si / 1000 Ang^3
#
#
#
# Elastic Constant Matrix: (Units=GPa)
#
#
# Indices 1 2 3 4 5 6 
#
# 1 82.6464 37.7246 40.9470 0.0000 0.0000 0.0000
# 2 37.7246 82.6464 40.9470 0.0000 0.0000 0.0000
# 3 40.9470 40.9470 71.0727 0.0000 0.0000 0.0000
# 4 0.0000 0.0000 0.0000 9.9165 0.0000 0.0000
# 5 0.0000 0.0000 0.0000 0.0000 9.9165 0.0000
# 6 0.0000 0.0000 0.0000 0.0000 0.0000 23.1720
#
#
#
# Elastic Compliance Matrix: (Units=1/GPa)
#
#
# Indices 1 2 3 4 5 6 
#
# 1 0.017962 -0.004299 -0.007872 0.000000 0.000000 0.000000
# 2 -0.004299 0.017962 -0.007872 0.000000 0.000000 0.000000
# 3 -0.007872 -0.007872 0.023140 0.000000 0.000000 0.000000
# 4 0.000000 0.000000 0.000000 0.100842 0.000000 0.000000
# 5 0.000000 0.000000 0.000000 0.000000 0.100842 0.000000
# 6 0.000000 0.000000 0.000000 0.000000 0.000000 0.043156
#
#
# Mechanical properties :
#
#
# Convention : Reuss Voigt Hill
#
# Bulk Modulus (GPa) = 52.68775 52.84473 52.76624
# Shear Modulus (GPa) = 14.27285 16.38412 15.32848
#
# Velocity S-wave (km/s) = 3.03833 3.25531 3.14869
# Velocity P-wave (km/s) = 6.81075 6.95044 6.88095
#
# Compressibility (1/GPa) = 0.01897975
#
# Stress axis : x y z
#
# Youngs Moduli (GPa) = 55.67299 55.67299 43.21457
#
# Poissons Ratio (x) = 0.23933 0.34017
# Poissons Ratio (y) = 0.23933 0.34017
# Poissons Ratio (z) = 0.43824 0.43824
#
# Static dielectric constant tensor:
#      x y z
#    x 1.572530 0.000000 0.000000 
#    y 0.000000 1.572530 0.000000 
#    z 0.000000 0.000000 1.511690 
# 
# From -- ./inp_files/6732.got.cif
#   From: 2010.05.17/outbox.cif.g08.bks.cpg/sg98_4_cif.got.tgz:6732.got - 2010.06.03 20:00:51.
