data_PCOD9551439
_publ_section_title
;
Structure prediction by ZEFSAII (Michael W. Deem and Ramdas Pophale) SiO2 
 PCOD9551439
Probable space group: I 4 2 2 
;
_chemical_formula_sum "Si O2"
_cell_formula_units_Z 56
_cell_length_a 18.115177
_cell_length_b 18.115177
_cell_length_c 6.904400
_cell_angle_alpha 90.000000
_cell_angle_beta 90.000000
_cell_angle_gamma 90.000000
_cell_volume 2265.745403
_symmetry_space_group_name_H-M "I 4 2 2 "
_symmetry_group_IT_number 97
_symmetry_cell_setting 'tetragonal'
loop_
_space_group_symop_operation_xyz
x,y,z
-y,x,z
-x,-y,z
y,-x,z
x,-y,-z
-x,y,-z
y,x,-z
-y,-x,-z
1/2+x,1/2+y,1/2+z
1/2-y,1/2+x,1/2+z
1/2-x,1/2-y,1/2+z
1/2+y,1/2-x,1/2+z
1/2+x,1/2-y,1/2-z
1/2-x,1/2+y,1/2-z
1/2+y,1/2+x,1/2-z
1/2-y,1/2-x,1/2-z
loop_
_atom_site_type_symbol
_atom_site_label
_atom_site_fract_x
_atom_site_fract_y
_atom_site_fract_z
Si Si1 0.839961 0.255519 0.392127
Si Si2 0.117543 0.015891 0.732255
Si Si3 0.633939 0.866062 0.750000
Si Si4 0.997319 0.278894 0.267718
O O1 0.822123 0.177878 0.500000
O O2 0.772627 0.272627 0.250000
O O3 0.848550 0.314649 0.565385
O O4 0.909916 0.266672 0.250311
O O5 0.200657 0.031475 0.795179
O O6 0.079673 0.938856 0.792106
O O7 0.120736 0.000000 0.500000
O O8 0.549024 0.845238 0.695780
O O9 0.000000 0.284891 0.500000
#
# Coordination Sequence:
#
# PCOD9551439 Si02
#       4
#    16  16   8  16
#     4  11  23  39  65  96 131 173 224 290 352 421
#     4   8  14  23  43  79 119 158 202 252 319 399
#     4  10  22  42  61  94 132 175 232 278 342 426
#     4   9  20  34  59  87 128 173 215 279 334 405
#
# _framework density 24.71593
#
# number of rings (size 3 to 8) (size 9 to 14) (size 15 to 20)
#    0.000    2.571    1.429    0.857   12.000    1.143 
#    0.000    0.714    0.000    5.143    0.000    0.000 
#    0.000    6.857    0.000    0.000    0.000    0.000 
#
# Total GULP energy -156058.396262 kJ/mol
# GULP energy per Si atom -5573.514152 kJ/mol
# Density = 2.465968 g / cm^3
# Si number density = 24.715930 Si / 1000 Ang^3
#
#
#
# Elastic Constant Matrix: (Units=GPa)
#
#
# Indices 1 2 3 4 5 6 
#
# 1 135.5500 81.2034 5.8778 0.0000 0.0000 0.0000
# 2 81.2034 135.5551 5.8774 0.0000 0.0000 0.0000
# 3 5.8778 5.8774 90.3253 0.0000 0.0000 0.0000
# 4 0.0000 0.0000 0.0000 13.4279 0.0000 0.0000
# 5 0.0000 0.0000 0.0000 0.0000 13.4275 0.0000
# 6 0.0000 0.0000 0.0000 0.0000 0.0000 31.6267
#
#
#
# Elastic Compliance Matrix: (Units=1/GPa)
#
#
# Indices 1 2 3 4 5 6 
#
# 1 0.011515 -0.006885 -0.000301 0.000000 0.000000 0.000000
# 2 -0.006885 0.011514 -0.000301 0.000000 0.000000 0.000000
# 3 -0.000301 -0.000301 0.011110 0.000000 0.000000 0.000000
# 4 0.000000 0.000000 0.000000 0.074472 0.000000 0.000000
# 5 0.000000 0.000000 0.000000 0.000000 0.074474 0.000000
# 6 0.000000 0.000000 0.000000 0.000000 0.000000 0.031619
#
#
# Mechanical properties :
#
#
# Convention : Reuss Voigt Hill
#
# Bulk Modulus (GPa) = 52.17881 60.81640 56.49760
# Shear Modulus (GPa) = 21.18037 29.59454 25.38745
#
# Velocity S-wave (km/s) = 2.93055 3.46408 3.20843
# Velocity P-wave (km/s) = 5.71035 6.37647 6.05258
#
# Compressibility (1/GPa) = 0.01916487
#
# Stress axis : x y z
#
# Youngs Moduli (GPa) = 86.84399 86.84730 90.00657
#
# Poissons Ratio (x) = 0.59793 0.02712
# Poissons Ratio (y) = 0.59791 0.02711
# Poissons Ratio (z) = 0.02617 0.02616
#
# Static dielectric constant tensor:
#      x y z
#    x 2.065530 0.000000 0.000000 
#    y 0.000000 2.065530 0.000000 
#    z 0.000000 0.000000 2.033740 
# 
# From -- ./inp_files/1870.got.cif
#   From: 2010.05.17/outbox.cif.g08.bks.cpg/sg97_1_cif.got.tgz:1870.got - 2010.06.03 19:55:32.
