data_PCOD9551063
_publ_section_title
;
Structure prediction by ZEFSAII (Michael W. Deem and Ramdas Pophale) SiO2 
 PCOD9551063
Probable space group: P 43 21 2
;
_chemical_formula_sum "Si O2"
_cell_formula_units_Z 28
_cell_length_a 10.225655
_cell_length_b 10.225655
_cell_length_c 10.352179
_cell_angle_alpha 90.000000
_cell_angle_beta 90.000000
_cell_angle_gamma 90.000000
_cell_volume 1082.465454
_symmetry_space_group_name_H-M "P 43 21 2"
_symmetry_group_IT_number 96
_symmetry_cell_setting 'tetragonal'
loop_
_space_group_symop_operation_xyz
x,y,z
1/2-y,1/2+x,3/4+z
-x,-y,1/2+z
1/2+y,1/2-x,1/4+z
1/2+x,1/2-y,1/4-z
1/2-x,1/2+y,3/4-z
y,x,-z
-y,-x,1/2-z
loop_
_atom_site_type_symbol
_atom_site_label
_atom_site_fract_x
_atom_site_fract_y
_atom_site_fract_z
Si Si1 0.965676 0.391348 0.121895
Si Si2 0.666665 0.481696 0.851514
Si Si3 0.175704 0.181824 0.145266
Si Si4 0.768924 0.231077 0.750000
O O1 0.938973 0.499295 0.229568
O O2 0.832864 0.306398 0.112086
O O3 0.641285 0.420367 0.993281
O O4 0.551826 0.448175 0.750000
O O5 0.910188 0.691010 0.669405
O O6 0.702877 0.629945 0.884398
O O7 0.277161 0.117289 0.456359
O O8 0.140510 0.140510 0.000000
#
# Coordination Sequence:
#
# PCOD9551063 Si02
#       4
#     8   8   8   4
#     4  10  24  46  76 109 161 207 268 330 410 483
#     4  10  26  49  85 112 171 212 275 338 413 498
#     4  10  24  45  74 116 158 207 266 335 399 485
#     4  10  26  54  82 124 160 222 276 340 422 492
#
# _framework density 25.866876999999999
#
# number of rings (size 3 to 8) (size 9 to 14) (size 15 to 20)
#    0.857    1.143    0.000    0.000    8.000   10.286 
#    7.714    0.000    0.000    0.000    0.000    0.000 
#    0.000    0.000    0.000    0.000    0.000    0.000 
#
# Total GULP energy -156607.559409 kJ/mol
# GULP energy per Si atom -5593.127122 kJ/mol
# Density = 2.580800 g / cm^3
# Si number density = 25.866877 Si / 1000 Ang^3
#
#
#
# Elastic Constant Matrix: (Units=GPa)
#
#
# Indices 1 2 3 4 5 6 
#
# 1 110.1683 126.2046 42.6982 0.0000 0.0000 0.0000
# 2 126.2046 110.1690 42.6946 0.0000 0.0000 0.0000
# 3 42.6982 42.6946 132.1119 0.0000 0.0000 0.0000
# 4 0.0000 0.0000 0.0000 29.9108 0.0000 0.0000
# 5 0.0000 0.0000 0.0000 0.0000 29.9102 0.0000
# 6 0.0000 0.0000 0.0000 0.0000 0.0000 43.7574
#
#
#
# Elastic Compliance Matrix: (Units=1/GPa)
#
#
# Indices 1 2 3 4 5 6 
#
# 1 -0.028785 0.033575 -0.001547 0.000000 0.000000 0.000000
# 2 0.033575 -0.028784 -0.001549 0.000000 0.000000 0.000000
# 3 -0.001547 -0.001549 0.008570 0.000000 0.000000 0.000000
# 4 0.000000 0.000000 0.000000 0.033433 0.000000 0.000000
# 5 0.000000 0.000000 0.000000 0.000000 0.033433 0.000000
# 6 0.000000 0.000000 0.000000 0.000000 0.000000 0.022853
#
#
# Mechanical properties :
#
#
# Convention : Reuss Voigt Hill
#
# Bulk Modulus (GPa) = 83.62886 86.18268 84.90577
# Shear Modulus (GPa) = -307.64928 30.10581 -138.77173
#
# Velocity S-wave (km/s) = -10.91759 3.41526 -7.33245
# Velocity P-wave (km/s) = 11.24831 6.99587 6.22825
#
# Compressibility (1/GPa) = 0.01195759
#
# Stress axis : x y z
#
# Youngs Moduli (GPa) = -34.73986 -34.74095 116.68732
#
# Poissons Ratio (x) = 1.16642 0.18052
# Poissons Ratio (y) = 1.16638 0.18075
# Poissons Ratio (z) = -0.05374 -0.05381
#
# Static dielectric constant tensor:
#      x y z
#    x 2.080450 0.000000 0.000000 
#    y 0.000000 2.080450 0.000000 
#    z 0.000000 0.000000 2.005320 
# 
# From -- ./inp_files/1014.got.cif
#   From: 2010.05.17/outbox.cif.g08.bks.cpg/sg96_1_cif.got.tgz:1014.got - 2010.06.03 19:52:08.
