data_PCOD9551139
_publ_section_title
;
Structure prediction by ZEFSAII (Michael W. Deem and Ramdas Pophale) SiO2 
 PCOD9551139
Probable space group: P 43 21 2
;
_chemical_formula_sum "Si O2"
_cell_formula_units_Z 48
_cell_length_a 8.431971
_cell_length_b 8.431971
_cell_length_c 29.472572
_cell_angle_alpha 90.000000
_cell_angle_beta 90.000000
_cell_angle_gamma 90.000000
_cell_volume 2095.444901
_symmetry_space_group_name_H-M "P 43 21 2"
_symmetry_group_IT_number 96
_symmetry_cell_setting 'tetragonal'
loop_
_space_group_symop_operation_xyz
x,y,z
1/2-y,1/2+x,3/4+z
-x,-y,1/2+z
1/2+y,1/2-x,1/4+z
1/2+x,1/2-y,1/4-z
1/2-x,1/2+y,3/4-z
y,x,-z
-y,-x,1/2-z
loop_
_atom_site_type_symbol
_atom_site_label
_atom_site_fract_x
_atom_site_fract_y
_atom_site_fract_z
Si Si1 0.572109 0.150097 0.378175
Si Si2 0.758269 0.967515 0.026622
Si Si3 0.283085 0.119896 0.832046
Si Si4 0.140864 0.760925 0.143318
Si Si5 0.559290 0.475370 0.547317
Si Si6 0.428994 0.050703 0.695683
O O1 0.718835 0.271789 0.376946
O O2 0.411753 0.249962 0.380660
O O3 0.585317 0.014432 0.340685
O O4 0.580422 0.043391 0.423839
O O5 0.727702 0.848431 0.068839
O O6 0.743520 0.141980 0.047261
O O7 0.915322 0.915322 0.000000
O O8 0.625642 0.974698 0.987301
O O9 0.133003 0.018163 0.817603
O O10 0.096478 0.670611 0.097130
O O11 0.987404 0.834022 0.168894
O O12 0.464291 0.464291 0.500000
O O13 0.748239 0.490798 0.540418
#
# Coordination Sequence:
#
# PCOD9551139 Si02
#       6
#     8   8   8   8   8   8
#     4  11  24  46  72  99 138 189 232 296 359 425
#     4  12  25  42  69 104 139 181 239 297 346 426
#     4  11  25  45  70 103 141 182 238 296 354 428
#     4  11  25  45  73  99 141 191 242 291 353 435
#     4  11  24  44  70 103 140 190 233 291 368 434
#     4  12  24  42  70 105 138 185 242 291 359 423
#
# _framework density 22.906829999999999
#
# number of rings (size 3 to 8) (size 9 to 14) (size 15 to 20)
#    0.000    0.667    5.000    2.500    2.333    1.333 
#    0.000    0.833    0.000    0.000    0.000    0.000 
#    0.000    0.000    0.000    0.000    0.000    0.000 
#
# Total GULP energy -267833.102738 kJ/mol
# GULP energy per Si atom -5579.856307 kJ/mol
# Density = 2.285469 g / cm^3
# Si number density = 22.906830 Si / 1000 Ang^3
#
#
#
# Elastic Constant Matrix: (Units=GPa)
#
#
# Indices 1 2 3 4 5 6 
#
# 1 45.7611 48.9715 15.1473 0.0000 0.0000 0.0000
# 2 48.9715 45.7611 15.1473 0.0000 0.0000 0.0000
# 3 15.1473 15.1473 86.5083 0.0000 0.0000 0.0000
# 4 0.0000 0.0000 0.0000 28.7799 0.0000 0.0000
# 5 0.0000 0.0000 0.0000 0.0000 28.7799 0.0000
# 6 0.0000 0.0000 0.0000 0.0000 0.0000 45.3840
#
#
#
# Elastic Compliance Matrix: (Units=1/GPa)
#
#
# Indices 1 2 3 4 5 6 
#
# 1 -0.150156 0.161338 -0.001958 0.000000 0.000000 0.000000
# 2 0.161338 -0.150156 -0.001958 0.000000 0.000000 0.000000
# 3 -0.001958 -0.001958 0.012245 0.000000 0.000000 0.000000
# 4 0.000000 0.000000 0.000000 0.034747 0.000000 0.000000
# 5 0.000000 0.000000 0.000000 0.000000 0.034747 0.000000
# 6 0.000000 0.000000 0.000000 0.000000 0.000000 0.022034
#
#
# Mechanical properties :
#
#
# Convention : Reuss Voigt Hill
#
# Bulk Modulus (GPa) = 37.34445 37.39586 37.37016
# Shear Modulus (GPa) = -9.95111 27.17303 8.61096
#
# Velocity S-wave (km/s) = -2.08653 3.44792 1.94095
# Velocity P-wave (km/s) = 3.24551 5.67552 4.62303
#
# Compressibility (1/GPa) = 0.02677774
#
# Stress axis : x y z
#
# Youngs Moduli (GPa) = -6.65976 -6.65976 81.66431
#
# Poissons Ratio (x) = 1.07447 0.15990
# Poissons Ratio (y) = 1.07447 0.15990
# Poissons Ratio (z) = -0.01304 -0.01304
#
# Static dielectric constant tensor:
#      x y z
#    x 1.904630 0.000000 0.000000 
#    y 0.000000 1.904630 0.000000 
#    z 0.000000 0.000000 1.905880 
# 
# From -- ./inp_files/4478.got.cif
#   From: 2010.05.17/outbox.cif.g08.bks.cpg/sg96_3_cif.got.tgz:4478.got - 2010.06.03 19:52:08.
