data_PCOD9551655
_publ_section_title
;
Structure prediction by ZEFSAII (Michael W. Deem and Ramdas Pophale) SiO2 
 PCOD9551655
Probable space group: I 41 2 2
;
_chemical_formula_sum "Si O2"
_cell_formula_units_Z 96
_cell_length_a 20.077737
_cell_length_b 20.077737
_cell_length_c 11.078006
_cell_angle_alpha 90.000000
_cell_angle_beta 90.000000
_cell_angle_gamma 90.000000
_cell_volume 4465.716183
_symmetry_space_group_name_H-M "I 41 2 2"
_symmetry_group_IT_number 98
_symmetry_cell_setting 'tetragonal'
loop_
_space_group_symop_operation_xyz
x,y,z
-y,1/2+x,1/4+z
-x,-y,z
y,1/2-x,1/4+z
x,1/2-y,1/4-z
-x,1/2+y,1/4-z
y,x,-z
-y,-x,-z
1/2+x,1/2+y,1/2+z
1/2-y,x,3/4+z
1/2-x,1/2-y,1/2+z
1/2+y,-x,3/4+z
1/2+x,-y,3/4-z
1/2-x,y,3/4-z
1/2+y,1/2+x,1/2-z
1/2-y,1/2-x,1/2-z
loop_
_atom_site_type_symbol
_atom_site_label
_atom_site_fract_x
_atom_site_fract_y
_atom_site_fract_z
Si Si1 0.567808 0.741757 0.268238
Si Si2 0.412523 0.760477 0.288901
Si Si3 0.308266 0.650715 0.285085
Si Si4 0.885528 0.614473 0.750000
Si Si5 0.563078 0.903805 0.988565
Si Si6 0.407505 0.592496 0.000000
Si Si7 0.415353 0.549266 0.272759
O O1 0.488624 0.737552 0.291672
O O2 0.601242 0.811762 0.307739
O O3 0.591087 0.667487 0.305145
O O4 0.577257 0.750000 0.125000
O O5 0.354666 0.711590 0.246171
O O6 0.386945 0.776569 0.422554
O O7 0.416763 0.829989 0.218562
O O8 0.250000 0.671244 0.375000
O O9 0.360640 0.596197 0.333379
O O10 0.897590 0.565559 0.863800
O O11 0.487776 0.920892 0.947404
O O12 0.598668 0.972134 0.950256
O O13 0.446857 0.583990 0.875291
#
# Coordination Sequence:
#
# PCOD9551655 Si02
#       7
#    16  16  16   8  16   8  16
#     4  10  20  35  55  88 124 152 183 235 303 370
#     4  11  23  35  54  78 114 159 193 243 285 347
#     4  11  24  39  53  77 113 160 206 242 289 348
#     4  10  18  29  54  84 124 154 172 228 303 360
#     4  10  18  32  54  81 114 146 191 233 292 356
#     4  10  20  29  50  82 114 142 190 227 288 356
#     4  10  19  33  54  80 108 152 190 246 288 339
#
# _framework density 21.497112000000001
#
# number of rings (size 3 to 8) (size 9 to 14) (size 15 to 20)
#    0.000    1.667    1.667    5.500    4.667    1.333 
#    0.000    0.000    0.000    4.000    0.000    0.000 
#    0.000    0.000    0.000    0.000    0.000    0.000 
#
# Total GULP energy -267494.713625 kJ/mol
# GULP energy per Si atom -5572.806534 kJ/mol
# Density = 2.144818 g / cm^3
# Si number density = 21.497112 Si / 1000 Ang^3
#
#
#
# Elastic Constant Matrix: (Units=GPa)
#
#
# Indices 1 2 3 4 5 6 
#
# 1 109.9326 33.2551 -7.7425 0.0000 0.0000 0.0000
# 2 33.2551 109.9329 -7.7430 0.0000 0.0000 0.0000
# 3 -7.7425 -7.7430 6.6784 0.0000 0.0000 0.0000
# 4 0.0000 0.0000 0.0000 14.3056 0.0000 0.0000
# 5 0.0000 0.0000 0.0000 0.0000 14.3050 0.0000
# 6 0.0000 0.0000 0.0000 0.0000 0.0000 32.7013
#
#
#
# Elastic Compliance Matrix: (Units=1/GPa)
#
#
# Indices 1 2 3 4 5 6 
#
# 1 0.010513 -0.002528 0.009257 0.000000 0.000000 0.000000
# 2 -0.002528 0.010513 0.009258 0.000000 0.000000 0.000000
# 3 0.009257 0.009258 0.171203 0.000000 0.000000 0.000000
# 4 0.000000 0.000000 0.000000 0.069903 0.000000 0.000000
# 5 0.000000 0.000000 0.000000 0.000000 0.069906 0.000000
# 6 0.000000 0.000000 0.000000 0.000000 0.000000 0.030580
#
#
# Mechanical properties :
#
#
# Convention : Reuss Voigt Hill
#
# Bulk Modulus (GPa) = 4.46022 29.12036 16.79029
# Shear Modulus (GPa) = 12.33413 26.18065 19.25739
#
# Velocity S-wave (km/s) = 2.39792 3.49358 2.99626
# Velocity P-wave (km/s) = 3.12186 5.46343 4.44944
#
# Compressibility (1/GPa) = 0.22420405
#
# Stress axis : x y z
#
# Youngs Moduli (GPa) = 95.11783 95.11710 5.84100
#
# Poissons Ratio (x) = 0.24048 -0.05407
# Poissons Ratio (y) = 0.24049 -0.05408
# Poissons Ratio (z) = -0.88052 -0.88061
#
# Static dielectric constant tensor:
#      x y z
#    x 1.868040 0.000000 0.000000 
#    y 0.000000 1.868050 0.000000 
#    z 0.000000 0.000000 1.798860 
# 
# From -- ./inp_files/5371.got.cif
#   From: 2010.05.17/outbox.cif.g08.bks.cpg/sg98_3_cif.got.tgz:5371.got - 2010.06.03 20:00:51.
