data_PCOD9551360
_publ_section_title
;
Structure prediction by ZEFSAII (Michael W. Deem and Ramdas Pophale) SiO2 
 PCOD9551360
Probable space group: I 4 2 2 
;
_chemical_formula_sum "Si O2"
_cell_formula_units_Z 64
_cell_length_a 10.987677
_cell_length_b 10.987677
_cell_length_c 24.647090
_cell_angle_alpha 90.000000
_cell_angle_beta 90.000000
_cell_angle_gamma 90.000000
_cell_volume 2975.619659
_symmetry_space_group_name_H-M "I 4 2 2 "
_symmetry_group_IT_number 97
_symmetry_cell_setting 'tetragonal'
loop_
_space_group_symop_operation_xyz
x,y,z
-y,x,z
-x,-y,z
y,-x,z
x,-y,-z
-x,y,-z
y,x,-z
-y,-x,-z
1/2+x,1/2+y,1/2+z
1/2-y,1/2+x,1/2+z
1/2-x,1/2-y,1/2+z
1/2+y,1/2-x,1/2+z
1/2+x,1/2-y,1/2-z
1/2-x,1/2+y,1/2-z
1/2+y,1/2+x,1/2-z
1/2-y,1/2-x,1/2-z
loop_
_atom_site_type_symbol
_atom_site_label
_atom_site_fract_x
_atom_site_fract_y
_atom_site_fract_z
Si Si1 0.627798 0.106033 0.966596
Si Si2 0.004188 0.636307 0.154689
Si Si3 0.744121 0.254150 0.313126
Si Si4 0.340242 0.379392 0.910391
O O1 0.615696 0.048580 0.906713
O O2 0.678182 0.237923 0.949041
O O3 0.500000 0.122142 0.000000
O O4 0.696449 0.000000 0.000000
O O5 0.103796 0.723554 0.182064
O O6 0.000000 0.500000 0.179575
O O7 0.875448 0.702983 0.157418
O O8 0.727615 0.227615 0.250000
O O9 0.852353 0.191292 0.347593
O O10 0.476342 0.335822 0.920676
#
# Coordination Sequence:
#
# PCOD9551360 Si02
#       4
#    16  16  16  16
#     4  10  20  40  67  93 135 190 231 278 373 443
#     4  11  24  46  69 102 148 188 252 305 369 465
#     4  11  26  41  72 102 138 200 247 308 380 451
#     4  10  23  42  65 104 145 175 241 316 371 448
#
# _framework density 21.508127000000002
#
# number of rings (size 3 to 8) (size 9 to 14) (size 15 to 20)
#    0.000    1.500    2.500    3.000    7.000    1.500 
#    4.500    1.250    0.000    0.000    0.000    1.750 
#    0.000    0.000    0.000    0.000    0.000    0.000 
#
# Total GULP energy -178415.924774 kJ/mol
# GULP energy per Si atom -5575.497649 kJ/mol
# Density = 2.145917 g / cm^3
# Si number density = 21.508127 Si / 1000 Ang^3
#
#
#
# Elastic Constant Matrix: (Units=GPa)
#
#
# Indices 1 2 3 4 5 6 
#
# 1 101.9131 45.4662 22.1293 0.0000 0.0000 0.0000
# 2 45.4662 101.9131 22.1293 0.0000 0.0000 0.0000
# 3 22.1293 22.1293 116.8404 0.0000 0.0000 0.0000
# 4 0.0000 0.0000 0.0000 4.0433 0.0000 0.0000
# 5 0.0000 0.0000 0.0000 0.0000 4.0433 0.0000
# 6 0.0000 0.0000 0.0000 0.0000 0.0000 20.4006
#
#
#
# Elastic Compliance Matrix: (Units=1/GPa)
#
#
# Indices 1 2 3 4 5 6 
#
# 1 0.012455 -0.005261 -0.001363 0.000000 0.000000 0.000000
# 2 -0.005261 0.012455 -0.001363 0.000000 0.000000 0.000000
# 3 -0.001363 -0.001363 0.009075 0.000000 0.000000 0.000000
# 4 0.000000 0.000000 0.000000 0.247323 0.000000 0.000000
# 5 0.000000 0.000000 0.000000 0.000000 0.247323 0.000000
# 6 0.000000 0.000000 0.000000 0.000000 0.000000 0.049018
#
#
# Mechanical properties :
#
#
# Convention : Reuss Voigt Hill
#
# Bulk Modulus (GPa) = 55.51475 55.56847 55.54161
# Shear Modulus (GPa) = 8.33854 21.09356 14.71605
#
# Velocity S-wave (km/s) = 1.97113 3.13505 2.61858
# Velocity P-wave (km/s) = 5.57203 6.24475 5.91796
#
# Compressibility (1/GPa) = 0.01801323
#
# Stress axis : x y z
#
# Youngs Moduli (GPa) = 80.28849 80.28849 110.19493
#
# Poissons Ratio (x) = 0.42237 0.15015
# Poissons Ratio (y) = 0.42237 0.15015
# Poissons Ratio (z) = 0.10940 0.10940
#
# Static dielectric constant tensor:
#      x y z
#    x 1.866930 0.000000 0.000000 
#    y 0.000000 1.866930 0.000000 
#    z 0.000000 0.000000 1.813040 
# 
# From -- ./inp_files/7053.got.cif
#   From: 2010.05.17/outbox.cif.g08.bks.cpg/sg97_4_cif.got.tgz:7053.got - 2010.06.03 19:55:32.
