data_PCOD9551367
_publ_section_title
;
Structure prediction by ZEFSAII (Michael W. Deem and Ramdas Pophale) SiO2 
 PCOD9551367
Probable space group: I 4 2 2 
;
_chemical_formula_sum "Si O2"
_cell_formula_units_Z 84
_cell_length_a 10.239635
_cell_length_b 10.239635
_cell_length_c 34.924828
_cell_angle_alpha 90.000000
_cell_angle_beta 90.000000
_cell_angle_gamma 90.000000
_cell_volume 3661.872579
_symmetry_space_group_name_H-M "I 4 2 2 "
_symmetry_group_IT_number 97
_symmetry_cell_setting 'tetragonal'
loop_
_space_group_symop_operation_xyz
x,y,z
-y,x,z
-x,-y,z
y,-x,z
x,-y,-z
-x,y,-z
y,x,-z
-y,-x,-z
1/2+x,1/2+y,1/2+z
1/2-y,1/2+x,1/2+z
1/2-x,1/2-y,1/2+z
1/2+y,1/2-x,1/2+z
1/2+x,1/2-y,1/2-z
1/2-x,1/2+y,1/2-z
1/2+y,1/2+x,1/2-z
1/2-y,1/2-x,1/2-z
loop_
_atom_site_type_symbol
_atom_site_label
_atom_site_fract_x
_atom_site_fract_y
_atom_site_fract_z
Si Si1 0.500000 0.500000 0.072865
Si Si2 0.387072 0.158668 0.855633
Si Si3 0.492307 0.719541 0.307876
Si Si4 0.642339 0.849734 0.485066
Si Si5 0.780521 0.975391 0.723615
Si Si6 0.771463 0.631086 0.903759
O O1 0.639005 0.421536 0.076368
O O2 0.313839 0.026788 0.843570
O O3 0.448877 0.202984 0.814864
O O4 0.282132 0.261389 0.873548
O O5 0.507230 0.161782 0.883968
O O6 0.369421 0.619939 0.309191
O O7 0.481056 0.783627 0.265711
O O8 0.500000 0.811298 0.500000
O O9 0.757977 0.757977 0.500000
O O10 0.640101 0.829637 0.439305
O O11 0.663942 0.000000 0.500000
O O12 0.889621 0.861086 0.722396
#
# Coordination Sequence:
#
# PCOD9551367 Si02
#       6
#     4  16  16  16  16  16
#     4   8  16  32  61 100 136 148 212 260 348 396
#     4  11  18  34  59  93 125 155 211 267 331 377
#     4   9  20  37  52  77 117 177 226 256 312 387
#     4  11  25  49  76 107 146 184 230 286 361 440
#     4   9  16  29  55  84 122 164 207 266 320 381
#     4  10  21  35  63 100 125 162 206 281 336 404
#
# _framework density 22.939084999999999
#
# number of rings (size 3 to 8) (size 9 to 14) (size 15 to 20)
#    0.000    2.095    1.905    4.000    0.000    0.381 
#   10.286    0.000    0.000    0.000    0.000    0.000 
#    0.000    0.000    0.000    0.000    0.000    0.000 
#
# Total GULP energy -234089.795061 kJ/mol
# GULP energy per Si atom -5573.566549 kJ/mol
# Density = 2.288687 g / cm^3
# Si number density = 22.939085 Si / 1000 Ang^3
#
#
#
# Elastic Constant Matrix: (Units=GPa)
#
#
# Indices 1 2 3 4 5 6 
#
# 1 64.3868 28.9677 32.6062 0.0000 0.0000 0.0000
# 2 28.9677 64.3868 32.6062 0.0000 0.0000 0.0000
# 3 32.6062 32.6062 135.6665 0.0000 0.0000 0.0000
# 4 0.0000 0.0000 0.0000 38.5273 0.0000 0.0000
# 5 0.0000 0.0000 0.0000 0.0000 38.5272 0.0000
# 6 0.0000 0.0000 0.0000 0.0000 0.0000 40.5224
#
#
#
# Elastic Compliance Matrix: (Units=1/GPa)
#
#
# Indices 1 2 3 4 5 6 
#
# 1 0.020553 -0.007680 -0.003094 0.000000 0.000000 0.000000
# 2 -0.007680 0.020553 -0.003094 0.000000 0.000000 0.000000
# 3 -0.003094 -0.003094 0.008858 0.000000 0.000000 0.000000
# 4 0.000000 0.000000 0.000000 0.025956 0.000000 0.000000
# 5 0.000000 0.000000 0.000000 0.000000 0.025956 0.000000
# 6 0.000000 0.000000 0.000000 0.000000 0.000000 0.024678
#
#
# Mechanical properties :
#
#
# Convention : Reuss Voigt Hill
#
# Bulk Modulus (GPa) = 44.98687 50.31114 47.64900
# Shear Modulus (GPa) = 30.92161 34.86606 32.89383
#
# Velocity S-wave (km/s) = 3.67548 3.90287 3.79088
# Velocity P-wave (km/s) = 6.13728 6.50307 6.32282
#
# Compressibility (1/GPa) = 0.02222871
#
# Stress axis : x y z
#
# Youngs Moduli (GPa) = 48.65416 48.65416 112.88957
#
# Poissons Ratio (x) = 0.37367 0.34927
# Poissons Ratio (y) = 0.37367 0.34927
# Poissons Ratio (z) = 0.15053 0.15053
#
# Static dielectric constant tensor:
#      x y z
#    x 1.871560 0.000000 0.000000 
#    y 0.000000 1.871560 0.000000 
#    z 0.000000 0.000000 1.922960 
# 
# From -- ./inp_files/8031.got.cif
#   From: 2010.05.17/outbox.cif.g08.bks.cpg/sg97_5_cif.got.tgz:8031.got - 2010.06.03 19:55:32.
