data_PCOD9551173
_publ_section_title
;
Structure prediction by ZEFSAII (Michael W. Deem and Ramdas Pophale) SiO2 
 PCOD9551173
Probable space group: P 43 21 2
;
_chemical_formula_sum "Si O2"
_cell_formula_units_Z 40
_cell_length_a 8.016739
_cell_length_b 8.016739
_cell_length_c 24.849058
_cell_angle_alpha 90.000000
_cell_angle_beta 90.000000
_cell_angle_gamma 90.000000
_cell_volume 1597.001849
_symmetry_space_group_name_H-M "P 43 21 2"
_symmetry_group_IT_number 96
_symmetry_cell_setting 'tetragonal'
loop_
_space_group_symop_operation_xyz
x,y,z
1/2-y,1/2+x,3/4+z
-x,-y,1/2+z
1/2+y,1/2-x,1/4+z
1/2+x,1/2-y,1/4-z
1/2-x,1/2+y,3/4-z
y,x,-z
-y,-x,1/2-z
loop_
_atom_site_type_symbol
_atom_site_label
_atom_site_fract_x
_atom_site_fract_y
_atom_site_fract_z
Si Si1 0.651942 0.594630 0.909247
Si Si2 0.191346 0.191346 0.000000
Si Si3 0.139086 0.696126 0.949601
Si Si4 0.281693 0.830301 0.048644
Si Si5 0.192400 0.893673 0.844444
Si Si6 0.783745 0.783745 0.000000
O O1 0.688041 0.661737 0.849957
O O2 0.792184 0.465164 0.929128
O O3 0.477165 0.498744 0.909273
O O4 0.654090 0.745382 0.952036
O O5 0.244776 0.301944 0.051276
O O6 0.230686 0.003796 0.019660
O O7 0.203229 0.822537 0.904142
O O8 0.157864 0.516930 0.921690
O O9 0.251895 0.694177 0.002518
O O10 0.961700 0.758755 0.971894
#
# Coordination Sequence:
#
# PCOD9551173 Si02
#       6
#     8   4   8   8   8   4
#     4  12  26  46  73 109 150 197 258 320 391 472
#     4  12  26  46  74 110 148 200 256 318 392 468
#     4  12  25  47  76 106 150 198 255 320 391 472
#     4  12  25  47  76 106 150 198 255 320 391 472
#     4  12  26  46  73 109 150 197 258 320 391 472
#     4  12  26  46  74 110 148 200 256 318 392 468
#
# _framework density 25.046935999999999
#
# number of rings (size 3 to 8) (size 9 to 14) (size 15 to 20)
#    0.000    0.000    0.000   12.000    0.000    0.000 
#    0.000   20.000    0.000    0.000    0.000    0.000 
#    0.000    0.000    0.000    0.000    0.000    0.000 
#
# Total GULP energy -224255.691235 kJ/mol
# GULP energy per Si atom -5606.392281 kJ/mol
# Density = 2.498993 g / cm^3
# Si number density = 25.046936 Si / 1000 Ang^3
#
#
#
# Elastic Constant Matrix: (Units=GPa)
#
#
# Indices 1 2 3 4 5 6 
#
# 1 66.7115 16.7244 7.7309 0.0000 0.0000 0.0000
# 2 16.7244 66.7115 7.7309 0.0000 0.0000 0.0000
# 3 7.7309 7.7309 152.9288 0.0000 0.0000 0.0000
# 4 0.0000 0.0000 0.0000 45.0617 0.0000 0.0000
# 5 0.0000 0.0000 0.0000 0.0000 45.0617 0.0000
# 6 0.0000 0.0000 0.0000 0.0000 0.0000 37.0173
#
#
#
# Elastic Compliance Matrix: (Units=1/GPa)
#
#
# Indices 1 2 3 4 5 6 
#
# 1 0.016052 -0.003953 -0.000612 0.000000 0.000000 0.000000
# 2 -0.003953 0.016052 -0.000612 0.000000 0.000000 0.000000
# 3 -0.000612 -0.000612 0.006601 0.000000 0.000000 0.000000
# 4 0.000000 0.000000 0.000000 0.022192 0.000000 0.000000
# 5 0.000000 0.000000 0.000000 0.000000 0.022192 0.000000
# 6 0.000000 0.000000 0.000000 0.000000 0.000000 0.027014
#
#
# Mechanical properties :
#
#
# Convention : Reuss Voigt Hill
#
# Bulk Modulus (GPa) = 35.27143 38.96936 37.12040
# Shear Modulus (GPa) = 38.48934 42.37251 40.43092
#
# Velocity S-wave (km/s) = 3.92431 4.11752 4.02208
# Velocity P-wave (km/s) = 5.88612 6.18042 6.03506
#
# Compressibility (1/GPa) = 0.02835156
#
# Stress axis : x y z
#
# Youngs Moduli (GPa) = 62.29804 62.29804 151.49613
#
# Poissons Ratio (x) = 0.24628 0.09266
# Poissons Ratio (y) = 0.24628 0.09266
# Poissons Ratio (z) = 0.03810 0.03810
#
# Static dielectric constant tensor:
#      x y z
#    x 2.066550 0.000000 0.000000 
#    y 0.000000 2.066550 0.000000 
#    z 0.000000 0.000000 1.901460 
# 
# From -- ./inp_files/3864.got.cif
#   From: 2010.05.17/outbox.cif.g08.bks.cpg/sg96_2_cif.got.tgz:3864.got - 2010.06.03 19:52:08.
