data_PCOD9551280
_publ_section_title
;
Structure prediction by ZEFSAII (Michael W. Deem and Ramdas Pophale) SiO2 
 PCOD9551280
Probable space group: I 4 2 2 
;
_chemical_formula_sum "Si O2"
_cell_formula_units_Z 120
_cell_length_a 26.331135
_cell_length_b 26.331135
_cell_length_c 8.732293
_cell_angle_alpha 90.000000
_cell_angle_beta 90.000000
_cell_angle_gamma 90.000000
_cell_volume 6054.349095
_symmetry_space_group_name_H-M "I 4 2 2 "
_symmetry_group_IT_number 97
_symmetry_cell_setting 'tetragonal'
loop_
_space_group_symop_operation_xyz
x,y,z
-y,x,z
-x,-y,z
y,-x,z
x,-y,-z
-x,y,-z
y,x,-z
-y,-x,-z
1/2+x,1/2+y,1/2+z
1/2-y,1/2+x,1/2+z
1/2-x,1/2-y,1/2+z
1/2+y,1/2-x,1/2+z
1/2+x,1/2-y,1/2-z
1/2-x,1/2+y,1/2-z
1/2+y,1/2+x,1/2-z
1/2-y,1/2-x,1/2-z
loop_
_atom_site_type_symbol
_atom_site_label
_atom_site_fract_x
_atom_site_fract_y
_atom_site_fract_z
Si Si1 0.271630 0.944688 0.048470
Si Si2 0.248887 0.035076 0.628669
Si Si3 0.585478 0.500000 0.500000
Si Si4 0.320795 0.462031 0.663981
Si Si5 0.303955 0.767909 0.915239
Si Si6 0.316739 0.388244 0.923906
Si Si7 0.443471 0.056331 0.436301
Si Si8 0.646900 0.130681 0.930701
O O1 0.277670 0.937842 0.231219
O O2 0.213303 0.946225 0.984281
O O3 0.303633 0.903432 0.958821
O O4 0.292256 0.000000 0.000000
O O5 0.212929 0.073237 0.536168
O O6 0.276476 0.000000 0.500000
O O7 0.215073 0.996275 0.729009
O O8 0.548709 0.548709 0.500000
O O9 0.626547 0.509406 0.633816
O O10 0.330460 0.412762 0.763276
O O11 0.287005 0.787005 0.750000
O O12 0.342229 0.721480 0.895827
O O13 0.336739 0.813669 0.991424
O O14 0.254574 0.745427 0.000000
O O15 0.367038 0.367038 0.000000
O O16 0.500000 0.069431 0.500000
O O17 0.445126 0.054875 0.250000
O O18 0.401136 0.097840 0.487063
O O19 0.431617 0.000000 0.500000
O O20 0.637212 0.137212 0.750000
#
# Coordination Sequence:
#
# PCOD9551280 Si02
#       8
#    16  16   8  16  16  16  16  16
#     4  10  19  37  65  91 115 159 214 261 312 371
#     4   9  19  36  56  86 119 149 198 265 312 360
#     4  11  24  38  58  92 132 162 205 270 326 382
#     4  10  19  38  62  87 118 158 208 263 308 373
#     4  10  22  42  59  85 125 162 199 255 319 381
#     4  10  22  37  59  85 116 159 205 253 314 378
#     4  10  20  38  61  89 123 164 208 255 309 376
#     4  10  21  37  61  89 124 160 203 258 319 373
#
# _framework density 19.820463
#
# number of rings (size 3 to 8) (size 9 to 14) (size 15 to 20)
#    0.000    2.067    2.000    2.800    1.867    2.133 
#    0.000   12.667    0.000    0.800    0.000    0.000 
#    0.000    0.000    0.000    0.000    0.000    0.000 
#
# Total GULP energy -334152.772677 kJ/mol
# GULP energy per Si atom -5569.212878 kJ/mol
# Density = 1.977535 g / cm^3
# Si number density = 19.820463 Si / 1000 Ang^3
#
#
#
# Elastic Constant Matrix: (Units=GPa)
#
#
# Indices 1 2 3 4 5 6 
#
# 1 81.1125 39.8062 25.1735 0.0000 0.0000 0.0000
# 2 39.8062 81.1123 25.1756 0.0000 0.0000 0.0000
# 3 25.1735 25.1756 103.8122 0.0000 0.0000 0.0000
# 4 0.0000 0.0000 0.0000 28.9728 0.0000 0.0000
# 5 0.0000 0.0000 0.0000 0.0000 28.9732 0.0000
# 6 0.0000 0.0000 0.0000 0.0000 0.0000 36.5667
#
#
#
# Elastic Compliance Matrix: (Units=1/GPa)
#
#
# Indices 1 2 3 4 5 6 
#
# 1 0.016704 -0.007505 -0.002230 0.000000 0.000000 0.000000
# 2 -0.007505 0.016704 -0.002231 0.000000 0.000000 0.000000
# 3 -0.002230 -0.002231 0.010715 0.000000 0.000000 0.000000
# 4 0.000000 0.000000 0.000000 0.034515 0.000000 0.000000
# 5 0.000000 0.000000 0.000000 0.000000 0.034515 0.000000
# 6 0.000000 0.000000 0.000000 0.000000 0.000000 0.027347
#
#
# Mechanical properties :
#
#
# Convention : Reuss Voigt Hill
#
# Bulk Modulus (GPa) = 49.53069 49.59418 49.56243
# Shear Modulus (GPa) = 29.21183 30.62797 29.91990
#
# Velocity S-wave (km/s) = 3.84320 3.93526 3.88950
# Velocity P-wave (km/s) = 6.68861 6.76198 6.72540
#
# Compressibility (1/GPa) = 0.02018950
#
# Stress axis : x y z
#
# Youngs Moduli (GPa) = 59.86582 59.86484 93.32981
#
# Poissons Ratio (x) = 0.44930 0.20817
# Poissons Ratio (y) = 0.44931 0.20822
# Poissons Ratio (z) = 0.13353 0.13356
#
# Static dielectric constant tensor:
#      x y z
#    x 1.731920 0.000000 0.000000 
#    y 0.000000 1.731920 0.000000 
#    z 0.000000 0.000000 1.736590 
# 
# From -- ./inp_files/2672.got.cif
#   From: 2010.05.17/outbox.cif.g08.bks.cpg/sg97_2_cif.got.tgz:2672.got - 2010.06.03 19:55:32.
