data_PCOD9551652
_publ_section_title
;
Structure prediction by ZEFSAII (Michael W. Deem and Ramdas Pophale) SiO2 
 PCOD9551652
Probable space group: I 41 2 2
;
_chemical_formula_sum "Si O2"
_cell_formula_units_Z 96
_cell_length_a 20.687356
_cell_length_b 20.687356
_cell_length_c 12.000938
_cell_angle_alpha 90.000000
_cell_angle_beta 90.000000
_cell_angle_gamma 90.000000
_cell_volume 5136.001812
_symmetry_space_group_name_H-M "I 41 2 2"
_symmetry_group_IT_number 98
_symmetry_cell_setting 'tetragonal'
loop_
_space_group_symop_operation_xyz
x,y,z
-y,1/2+x,1/4+z
-x,-y,z
y,1/2-x,1/4+z
x,1/2-y,1/4-z
-x,1/2+y,1/4-z
y,x,-z
-y,-x,-z
1/2+x,1/2+y,1/2+z
1/2-y,x,3/4+z
1/2-x,1/2-y,1/2+z
1/2+y,-x,3/4+z
1/2+x,-y,3/4-z
1/2-x,y,3/4-z
1/2+y,1/2+x,1/2-z
1/2-y,1/2-x,1/2-z
loop_
_atom_site_type_symbol
_atom_site_label
_atom_site_fract_x
_atom_site_fract_y
_atom_site_fract_z
Si Si1 0.948418 0.948177 0.821637
Si Si2 0.320001 0.124857 0.917523
Si Si3 0.712275 0.994598 0.239549
Si Si4 0.352221 0.229659 0.339355
Si Si5 0.085799 0.536440 0.631540
Si Si6 0.342769 0.530019 0.777195
O O1 0.877217 0.926055 0.862180
O O2 0.985433 0.880803 0.808461
O O3 0.938850 0.978702 0.697531
O O4 0.000000 0.000000 0.873610
O O5 0.250000 0.102010 0.875000
O O6 0.331587 0.198232 0.874910
O O7 0.314458 0.137107 0.051234
O O8 0.735665 0.922728 0.215311
O O9 0.658456 0.017630 0.155680
O O10 0.676816 0.993550 0.358843
O O11 0.771544 0.044921 0.234669
O O12 0.303142 0.196859 0.250000
O O13 0.049890 0.549890 0.750000
O O14 0.081314 0.603724 0.564276
#
# Coordination Sequence:
#
# PCOD9551652 Si02
#       6
#    16  16  16  16  16  16
#     4  10  19  33  51  76 106 145 186 234 287 336
#     4  12  24  39  53  78 114 158 197 240 280 346
#     4  10  18  28  48  75 108 138 179 218 283 340
#     4  12  23  35  54  77 111 157 197 234 276 330
#     4   9  18  30  47  74 109 138 177 224 295 347
#     4   9  18  29  45  74 110 138 171 226 277 354
#
# _framework density 18.691583000000001
#
# number of rings (size 3 to 8) (size 9 to 14) (size 15 to 20)
#    0.000    1.667    3.333    3.000    2.333    7.000 
#    0.000    0.000    0.000    2.000    0.000    0.000 
#   90.000    0.000    0.000    0.000    0.000    0.000 
#
# Total GULP energy -267268.265633 kJ/mol
# GULP energy per Si atom -5568.088867 kJ/mol
# Density = 1.864904 g / cm^3
# Si number density = 18.691583 Si / 1000 Ang^3
#
#
#
# Elastic Constant Matrix: (Units=GPa)
#
#
# Indices 1 2 3 4 5 6 
#
# 1 95.5971 40.7018 4.8551 0.0000 0.0000 0.0000
# 2 40.7018 95.5968 4.8550 0.0000 0.0000 0.0000
# 3 4.8551 4.8550 35.9168 0.0000 0.0000 0.0000
# 4 0.0000 0.0000 0.0000 19.9499 0.0000 0.0000
# 5 0.0000 0.0000 0.0000 0.0000 19.9500 0.0000
# 6 0.0000 0.0000 0.0000 0.0000 0.0000 30.9445
#
#
#
# Elastic Compliance Matrix: (Units=1/GPa)
#
#
# Indices 1 2 3 4 5 6 
#
# 1 0.012812 -0.005404 -0.001001 0.000000 0.000000 0.000000
# 2 -0.005404 0.012812 -0.001001 0.000000 0.000000 0.000000
# 3 -0.001001 -0.001001 0.028113 0.000000 0.000000 0.000000
# 4 0.000000 0.000000 0.000000 0.050126 0.000000 0.000000
# 5 0.000000 0.000000 0.000000 0.000000 0.050125 0.000000
# 6 0.000000 0.000000 0.000000 0.000000 0.000000 0.032316
#
#
# Mechanical properties :
#
#
# Convention : Reuss Voigt Hill
#
# Bulk Modulus (GPa) = 25.69138 36.43718 31.06428
# Shear Modulus (GPa) = 23.35436 25.94881 24.65158
#
# Velocity S-wave (km/s) = 3.53860 3.72998 3.63555
# Velocity P-wave (km/s) = 5.51999 6.17143 5.85478
#
# Compressibility (1/GPa) = 0.03892356
#
# Stress axis : x y z
#
# Youngs Moduli (GPa) = 78.04982 78.04961 35.57095
#
# Poissons Ratio (x) = 0.42179 0.03562
# Poissons Ratio (y) = 0.42180 0.03562
# Poissons Ratio (z) = 0.07816 0.07816
#
# Static dielectric constant tensor:
#      x y z
#    x 1.676570 0.000000 0.000000 
#    y 0.000000 1.676570 0.000000 
#    z 0.000000 0.000000 1.728420 
# 
# From -- ./inp_files/5336.got.cif
#   From: 2010.05.17/outbox.cif.g08.bks.cpg/sg98_3_cif.got.tgz:5336.got - 2010.06.03 20:00:51.
