data_PCOD9551590
_publ_section_title
;
Structure prediction by ZEFSAII (Michael W. Deem and Ramdas Pophale) SiO2 
 PCOD9551590
Probable space group: I 4 2 2 
;
_chemical_formula_sum "Si O2"
_cell_formula_units_Z 64
_cell_length_a 12.189641
_cell_length_b 12.189641
_cell_length_c 18.392827
_cell_angle_alpha 90.000000
_cell_angle_beta 90.000000
_cell_angle_gamma 90.000000
_cell_volume 2732.941381
_symmetry_space_group_name_H-M "I 4 2 2 "
_symmetry_group_IT_number 97
_symmetry_cell_setting 'tetragonal'
loop_
_space_group_symop_operation_xyz
x,y,z
-y,x,z
-x,-y,z
y,-x,z
x,-y,-z
-x,y,-z
y,x,-z
-y,-x,-z
1/2+x,1/2+y,1/2+z
1/2-y,1/2+x,1/2+z
1/2-x,1/2-y,1/2+z
1/2+y,1/2-x,1/2+z
1/2+x,1/2-y,1/2-z
1/2-x,1/2+y,1/2-z
1/2+y,1/2+x,1/2-z
1/2-y,1/2-x,1/2-z
loop_
_atom_site_type_symbol
_atom_site_label
_atom_site_fract_x
_atom_site_fract_y
_atom_site_fract_z
Si Si1 0.503314 0.185947 0.416214
Si Si2 0.206572 0.566667 0.136209
Si Si3 0.016634 0.181181 0.774682
Si Si4 0.350528 0.258887 0.923465
O O1 0.500000 0.221772 0.500000
O O2 0.411329 0.093441 0.398988
O O3 0.479386 0.278388 0.357154
O O4 0.629402 0.152247 0.408411
O O5 0.216789 0.525582 0.218948
O O6 0.272750 0.680090 0.132895
O O7 0.278250 0.479525 0.089182
O O8 0.114191 0.094921 0.762005
O O9 0.299022 0.299022 0.000000
#
# Coordination Sequence:
#
# PCOD9551590 Si02
#       4
#    16  16  16  16
#     4  12  27  46  74 111 159 207 262 327 392 479
#     4  12  25  49  77 111 156 204 262 325 399 475
#     4  11  25  47  76 112 156 210 265 329 396 473
#     4  12  26  46  78 112 153 204 255 334 396 471
#
# _framework density 23.417991000000001
#
# number of rings (size 3 to 8) (size 9 to 14) (size 15 to 20)
#    0.000    0.250    5.000    3.750    0.000    2.500 
#    0.000    5.000    0.000    0.000    0.000    0.000 
#    0.000    0.000    0.000    0.000    0.000    0.000 
#
# Total GULP energy -178834.669006 kJ/mol
# GULP energy per Si atom -5588.583406 kJ/mol
# Density = 2.336469 g / cm^3
# Si number density = 23.417991 Si / 1000 Ang^3
#
#
#
# Elastic Constant Matrix: (Units=GPa)
#
#
# Indices 1 2 3 4 5 6 
#
# 1 104.2946 37.1401 46.5519 0.0000 0.0000 0.0000
# 2 37.1401 104.2946 46.5519 0.0000 0.0000 0.0000
# 3 46.5519 46.5519 173.4961 0.0000 0.0000 0.0000
# 4 0.0000 0.0000 0.0000 31.6661 0.0000 0.0000
# 5 0.0000 0.0000 0.0000 0.0000 31.6661 0.0000
# 6 0.0000 0.0000 0.0000 0.0000 0.0000 18.6086
#
#
#
# Elastic Compliance Matrix: (Units=1/GPa)
#
#
# Indices 1 2 3 4 5 6 
#
# 1 0.011739 -0.003152 -0.002304 0.000000 0.000000 0.000000
# 2 -0.003152 0.011739 -0.002304 0.000000 0.000000 0.000000
# 3 -0.002304 -0.002304 0.007000 0.000000 0.000000 0.000000
# 4 0.000000 0.000000 0.000000 0.031580 0.000000 0.000000
# 5 0.000000 0.000000 0.000000 0.000000 0.031580 0.000000
# 6 0.000000 0.000000 0.000000 0.000000 0.000000 0.053739
#
#
# Mechanical properties :
#
#
# Convention : Reuss Voigt Hill
#
# Bulk Modulus (GPa) = 66.85278 71.39698 69.12488
# Shear Modulus (GPa) = 29.78276 33.17757 31.48017
#
# Velocity S-wave (km/s) = 3.57009 3.76807 3.67041
# Velocity P-wave (km/s) = 6.75304 7.03458 6.89525
#
# Compressibility (1/GPa) = 0.01495824
#
# Stress axis : x y z
#
# Youngs Moduli (GPa) = 85.18554 85.18554 142.85189
#
# Poissons Ratio (x) = 0.26850 0.32914
# Poissons Ratio (y) = 0.26850 0.32914
# Poissons Ratio (z) = 0.19627 0.19627
#
# Static dielectric constant tensor:
#      x y z
#    x 1.922410 0.000000 0.000000 
#    y 0.000000 1.922410 0.000000 
#    z 0.000000 0.000000 1.946350 
# 
# From -- ./inp_files/6313.got.cif
#   From: 2010.05.17/outbox.cif.g08.bks.cpg/sg97_4_cif.got.tgz:6313.got - 2010.06.03 19:55:32.
