data_PCOD9551168
_publ_section_title
;
Structure prediction by ZEFSAII (Michael W. Deem and Ramdas Pophale) SiO2 
 PCOD9551168
Probable space group: P 43 21 2
;
_chemical_formula_sum "Si O2"
_cell_formula_units_Z 48
_cell_length_a 11.675907
_cell_length_b 11.675907
_cell_length_c 17.843413
_cell_angle_alpha 90.000000
_cell_angle_beta 90.000000
_cell_angle_gamma 90.000000
_cell_volume 2432.535472
_symmetry_space_group_name_H-M "P 43 21 2"
_symmetry_group_IT_number 96
_symmetry_cell_setting 'tetragonal'
loop_
_space_group_symop_operation_xyz
x,y,z
1/2-y,1/2+x,3/4+z
-x,-y,1/2+z
1/2+y,1/2-x,1/4+z
1/2+x,1/2-y,1/4-z
1/2-x,1/2+y,3/4-z
y,x,-z
-y,-x,1/2-z
loop_
_atom_site_type_symbol
_atom_site_label
_atom_site_fract_x
_atom_site_fract_y
_atom_site_fract_z
Si Si1 0.419979 0.152990 0.849876
Si Si2 0.661490 0.411043 0.439826
Si Si3 0.565746 0.017859 0.948129
Si Si4 0.205080 0.929190 0.362543
Si Si5 0.893940 0.991305 0.141257
Si Si6 0.241364 0.461824 0.564683
O O1 0.288754 0.122873 0.833533
O O2 0.489562 0.085869 0.786187
O O3 0.461231 0.284343 0.847420
O O4 0.461082 0.099880 0.927974
O O5 0.597325 0.518309 0.400932
O O6 0.650281 0.445665 0.527560
O O7 0.582277 0.302169 0.421237
O O8 0.544276 0.891315 0.917709
O O9 0.682348 0.068841 0.912754
O O10 0.134116 0.811137 0.360775
O O11 0.238017 0.944388 0.274785
O O12 0.116708 0.030273 0.386903
#
# Coordination Sequence:
#
# PCOD9551168 Si02
#       6
#     8   8   8   8   8   8
#     4  12  24  38  58  92 122 160 208 256 303 359
#     4   9  20  41  62  83 120 163 202 244 312 370
#     4  12  24  37  60  93 124 156 210 257 309 357
#     4   9  20  38  62  88 118 160 198 241 312 370
#     4   9  20  40  63  84 116 162 202 243 309 376
#     4   9  20  39  62  87 123 161 193 249 308 367
#
# _framework density 19.732498
#
# number of rings (size 3 to 8) (size 9 to 14) (size 15 to 20)
#    0.000    2.000    3.333    2.000    4.667    0.667 
#    0.000    0.000    0.000    2.000    0.000    0.000 
#    0.000    0.000    0.000    0.000    0.000    0.000 
#
# Total GULP energy -267716.899117 kJ/mol
# GULP energy per Si atom -5577.435398 kJ/mol
# Density = 1.968759 g / cm^3
# Si number density = 19.732498 Si / 1000 Ang^3
#
#
#
# Elastic Constant Matrix: (Units=GPa)
#
#
# Indices 1 2 3 4 5 6 
#
# 1 88.7196 28.8741 -4.3545 0.0000 0.0000 0.0000
# 2 28.8741 88.7196 -4.3545 0.0000 0.0000 0.0000
# 3 -4.3545 -4.3545 16.7507 0.0000 0.0000 0.0000
# 4 0.0000 0.0000 0.0000 25.3811 0.0000 0.0000
# 5 0.0000 0.0000 0.0000 0.0000 25.3811 0.0000
# 6 0.0000 0.0000 0.0000 0.0000 0.0000 10.5109
#
#
#
# Elastic Compliance Matrix: (Units=1/GPa)
#
#
# Indices 1 2 3 4 5 6 
#
# 1 0.012690 -0.004019 0.002254 0.000000 0.000000 0.000000
# 2 -0.004019 0.012690 0.002254 0.000000 0.000000 0.000000
# 3 0.002254 0.002254 0.060871 0.000000 0.000000 0.000000
# 4 0.000000 0.000000 0.000000 0.039399 0.000000 0.000000
# 5 0.000000 0.000000 0.000000 0.000000 0.039399 0.000000
# 6 0.000000 0.000000 0.000000 0.000000 0.000000 0.095140
#
#
# Mechanical properties :
#
#
# Convention : Reuss Voigt Hill
#
# Bulk Modulus (GPa) = 11.46413 26.05779 18.76096
# Shear Modulus (GPa) = 17.34372 23.85625 20.59999
#
# Velocity S-wave (km/s) = 2.96791 3.48082 3.23455
# Velocity P-wave (km/s) = 4.19131 5.42116 4.84541
#
# Compressibility (1/GPa) = 0.08722862
#
# Stress axis : x y z
#
# Youngs Moduli (GPa) = 78.80073 78.80073 16.42823
#
# Poissons Ratio (x) = 0.31674 -0.03703
# Poissons Ratio (y) = 0.31674 -0.03703
# Poissons Ratio (z) = -0.17762 -0.17762
#
# Static dielectric constant tensor:
#      x y z
#    x 1.685180 0.000000 0.000000 
#    y 0.000000 1.685180 0.000000 
#    z 0.000000 0.000000 1.694750 
# 
# From -- ./inp_files/3097.got.cif
#   From: 2010.05.17/outbox.cif.g08.bks.cpg/sg96_2_cif.got.tgz:3097.got - 2010.06.03 19:52:08.
