data_PCOD9551838
_publ_section_title
;
Structure prediction by ZEFSAII (Michael W. Deem and Ramdas Pophale) SiO2 
 PCOD9551838
Probable space group: I 41 2 2
;
_chemical_formula_sum "Si O2"
_cell_formula_units_Z 64
_cell_length_a 19.397974
_cell_length_b 19.397974
_cell_length_c 8.379780
_cell_angle_alpha 90.000000
_cell_angle_beta 90.000000
_cell_angle_gamma 90.000000
_cell_volume 3153.155311
_symmetry_space_group_name_H-M "I 41 2 2"
_symmetry_group_IT_number 98
_symmetry_cell_setting 'tetragonal'
loop_
_space_group_symop_operation_xyz
x,y,z
-y,1/2+x,1/4+z
-x,-y,z
y,1/2-x,1/4+z
x,1/2-y,1/4-z
-x,1/2+y,1/4-z
y,x,-z
-y,-x,-z
1/2+x,1/2+y,1/2+z
1/2-y,x,3/4+z
1/2-x,1/2-y,1/2+z
1/2+y,-x,3/4+z
1/2+x,-y,3/4-z
1/2-x,y,3/4-z
1/2+y,1/2+x,1/2-z
1/2-y,1/2-x,1/2-z
loop_
_atom_site_type_symbol
_atom_site_label
_atom_site_fract_x
_atom_site_fract_y
_atom_site_fract_z
Si Si1 0.040526 0.108745 0.842519
Si Si2 0.664469 0.750000 0.625000
Si Si3 0.770305 0.555892 0.614330
Si Si4 0.910570 0.910570 0.500000
Si Si5 0.750000 0.065348 0.875000
Si Si6 0.392379 0.892379 0.750000
O O1 0.064093 0.189827 0.840251
O O2 0.058247 0.070772 0.674949
O O3 0.075674 0.075674 0.000000
O O4 0.958816 0.105222 0.882963
O O5 0.710436 0.789565 0.750000
O O6 0.612329 0.706938 0.732195
O O7 0.829586 0.568573 0.741538
O O8 0.770238 0.483595 0.523831
O O9 0.680703 0.104836 0.836777
#
# Coordination Sequence:
#
# PCOD9551838 Si02
#       6
#    16   8  16   8   8   8
#     4  11  23  41  63  94 132 175 226 268 322 387
#     4  11  22  32  46  76 116 169 228 270 302 355
#     4  10  21  38  56  85 128 175 214 270 322 373
#     4  12  22  36  67  92 126 178 224 264 316 379
#     4   9  20  42  70  88 122 163 210 266 344 409
#     4  10  21  42  70  92 124 166 210 271 348 406
#
# _framework density 20.297129999999999
#
# number of rings (size 3 to 8) (size 9 to 14) (size 15 to 20)
#    0.000    1.500    0.000    7.875    1.750    0.000 
#    0.000   10.000   11.000    0.000    0.000    0.000 
#    0.000    0.000    0.000    0.000    0.000    0.000 
#
# Total GULP energy -178405.231017 kJ/mol
# GULP energy per Si atom -5575.163469 kJ/mol
# Density = 2.025093 g / cm^3
# Si number density = 20.297130 Si / 1000 Ang^3
#
#
#
# Elastic Constant Matrix: (Units=GPa)
#
#
# Indices 1 2 3 4 5 6 
#
# 1 115.4785 63.2607 50.5422 0.0000 0.0000 0.0000
# 2 63.2607 115.4806 50.5410 0.0000 0.0000 0.0000
# 3 50.5422 50.5410 152.2609 0.0000 0.0000 0.0000
# 4 0.0000 0.0000 0.0000 16.2418 0.0000 0.0000
# 5 0.0000 0.0000 0.0000 0.0000 16.2411 0.0000
# 6 0.0000 0.0000 0.0000 0.0000 0.0000 -148.3961
#
#
#
# Elastic Compliance Matrix: (Units=1/GPa)
#
#
# Indices 1 2 3 4 5 6 
#
# 1 0.013019 -0.006131 -0.002286 0.000000 0.000000 0.000000
# 2 -0.006131 0.013019 -0.002286 0.000000 0.000000 0.000000
# 3 -0.002286 -0.002286 0.008086 0.000000 0.000000 0.000000
# 4 0.000000 0.000000 0.000000 0.061569 0.000000 0.000000
# 5 0.000000 0.000000 0.000000 0.000000 0.061572 0.000000
# 6 0.000000 0.000000 0.000000 0.000000 0.000000 -0.006739
#
#
# Mechanical properties :
#
#
# Convention : Reuss Voigt Hill
#
# Bulk Modulus (GPa) = 78.64312 79.10084 78.87198
# Shear Modulus (GPa) = 28.38131 -8.59088 9.89521
#
# Velocity S-wave (km/s) = 3.74343 -2.05955 2.21038
# Velocity P-wave (km/s) = 7.58383 5.77931 6.74221
#
# Compressibility (1/GPa) = 0.01271567
#
# Stress axis : x y z
#
# Youngs Moduli (GPa) = 76.81013 76.81237 123.67806
#
# Poissons Ratio (x) = 0.47096 0.28278
# Poissons Ratio (y) = 0.47094 0.28275
# Poissons Ratio (z) = 0.17562 0.17561
#
# Static dielectric constant tensor:
#      x y z
#    x 1.738230 0.000000 0.000000 
#    y 0.000000 1.738230 0.000000 
#    z 0.000000 0.000000 1.734030 
# 
# From -- ./inp_files/3369.got.cif
#   From: 2010.05.17/outbox.cif.g08.bks.cpg/sg98_2_cif.got.tgz:3369.got - 2010.06.03 20:00:51.
