data_PCOD9551565
_publ_section_title
;
Structure prediction by ZEFSAII (Michael W. Deem and Ramdas Pophale) SiO2 
 PCOD9551565
Probable space group: I 4 2 2 
;
_chemical_formula_sum "Si O2"
_cell_formula_units_Z 48
_cell_length_a 8.238379
_cell_length_b 8.238379
_cell_length_c 30.020430
_cell_angle_alpha 90.000000
_cell_angle_beta 90.000000
_cell_angle_gamma 90.000000
_cell_volume 2037.513259
_symmetry_space_group_name_H-M "I 4 2 2 "
_symmetry_group_IT_number 97
_symmetry_cell_setting 'tetragonal'
loop_
_space_group_symop_operation_xyz
x,y,z
-y,x,z
-x,-y,z
y,-x,z
x,-y,-z
-x,y,-z
y,x,-z
-y,-x,-z
1/2+x,1/2+y,1/2+z
1/2-y,1/2+x,1/2+z
1/2-x,1/2-y,1/2+z
1/2+y,1/2-x,1/2+z
1/2+x,1/2-y,1/2-z
1/2-x,1/2+y,1/2-z
1/2+y,1/2+x,1/2-z
1/2-y,1/2-x,1/2-z
loop_
_atom_site_type_symbol
_atom_site_label
_atom_site_fract_x
_atom_site_fract_y
_atom_site_fract_z
Si Si1 0.575333 0.237490 0.876949
Si Si2 0.238982 0.414671 0.707055
Si Si3 0.233926 0.457090 0.551532
O O1 0.691423 0.395238 0.874149
O O2 0.635234 0.125502 0.836596
O O3 0.592853 0.133595 0.921951
O O4 0.401303 0.302852 0.707458
O O5 0.135046 0.364955 0.750000
O O6 0.375827 0.324957 0.562804
O O7 0.196354 0.500000 0.500000
#
# Coordination Sequence:
#
# PCOD9551565 Si02
#       3
#    16  16  16
#     4  11  24  41  63  95 134 174 219 271 327 392
#     4  11  24  41  64  97 135 175 222 272 324 388
#     4   9  19  39  63  89 119 156 209 267 322 385
#
# _framework density 23.558126999999999
#
# number of rings (size 3 to 8) (size 9 to 14) (size 15 to 20)
#    0.000    1.667    0.000    5.000    0.000   14.000 
#    0.000   16.667    0.000    8.000    0.000    0.000 
#    0.000    0.000    0.000    0.000    0.000    0.000 
#
# Total GULP energy -134117.862384 kJ/mol
# GULP energy per Si atom -5588.244266 kJ/mol
# Density = 2.350451 g / cm^3
# Si number density = 23.558127 Si / 1000 Ang^3
#
#
#
# Elastic Constant Matrix: (Units=GPa)
#
#
# Indices 1 2 3 4 5 6 
#
# 1 97.9142 76.7619 34.8401 0.0000 0.0000 0.0000
# 2 76.7619 97.9128 34.8398 0.0000 0.0000 0.0000
# 3 34.8401 34.8398 75.2561 0.0000 0.0000 0.0000
# 4 0.0000 0.0000 0.0000 76.8675 0.0000 0.0000
# 5 0.0000 0.0000 0.0000 0.0000 76.8672 0.0000
# 6 0.0000 0.0000 0.0000 0.0000 0.0000 76.5746
#
#
#
# Elastic Compliance Matrix: (Units=1/GPa)
#
#
# Indices 1 2 3 4 5 6 
#
# 1 0.027150 -0.020128 -0.003251 0.000000 0.000000 0.000000
# 2 -0.020128 0.027150 -0.003251 0.000000 0.000000 0.000000
# 3 -0.003251 -0.003251 0.016298 0.000000 0.000000 0.000000
# 4 0.000000 0.000000 0.000000 0.013009 0.000000 0.000000
# 5 0.000000 0.000000 0.000000 0.000000 0.013009 0.000000
# 6 0.000000 0.000000 0.000000 0.000000 0.000000 0.013059
#
#
# Mechanical properties :
#
#
# Convention : Reuss Voigt Hill
#
# Bulk Modulus (GPa) = 57.67569 62.66297 60.16933
# Shear Modulus (GPa) = 29.63605 54.37127 42.00366
#
# Velocity S-wave (km/s) = 3.55067 4.80934 4.22712
# Velocity P-wave (km/s) = 6.43002 7.58266 7.03000
#
# Compressibility (1/GPa) = 0.01733833
#
# Stress axis : x y z
#
# Youngs Moduli (GPa) = 36.83307 36.83257 61.35810
#
# Poissons Ratio (x) = 0.74137 0.19946
# Poissons Ratio (y) = 0.74138 0.19946
# Poissons Ratio (z) = 0.11973 0.11973
#
# Static dielectric constant tensor:
#      x y z
#    x 1.879980 0.000000 0.000000 
#    y 0.000000 1.879990 0.000000 
#    z 0.000000 0.000000 1.888160 
# 
# From -- ./inp_files/7771.got.cif
#   From: 2010.05.17/outbox.cif.g08.bks.cpg/sg97_4_cif.got.tgz:7771.got - 2010.06.03 19:55:32.
