data_PCOD9551257
_publ_section_title
;
Structure prediction by ZEFSAII (Michael W. Deem and Ramdas Pophale) SiO2 
 PCOD9551257
Probable space group: I 4 2 2 
;
_chemical_formula_sum "Si O2"
_cell_formula_units_Z 36
_cell_length_a 12.489653
_cell_length_b 12.489653
_cell_length_c 10.094629
_cell_angle_alpha 90.000000
_cell_angle_beta 90.000000
_cell_angle_gamma 90.000000
_cell_volume 1574.675634
_symmetry_space_group_name_H-M "I 4 2 2 "
_symmetry_group_IT_number 97
_symmetry_cell_setting 'tetragonal'
loop_
_space_group_symop_operation_xyz
x,y,z
-y,x,z
-x,-y,z
y,-x,z
x,-y,-z
-x,y,-z
y,x,-z
-y,-x,-z
1/2+x,1/2+y,1/2+z
1/2-y,1/2+x,1/2+z
1/2-x,1/2-y,1/2+z
1/2+y,1/2-x,1/2+z
1/2+x,1/2-y,1/2-z
1/2-x,1/2+y,1/2-z
1/2+y,1/2+x,1/2-z
1/2-y,1/2-x,1/2-z
loop_
_atom_site_type_symbol
_atom_site_label
_atom_site_fract_x
_atom_site_fract_y
_atom_site_fract_z
Si Si1 0.500000 0.000000 0.250000
Si Si2 0.905029 0.234511 0.414391
Si Si3 0.775807 0.442949 0.371420
O O1 0.502368 0.890371 0.333771
O O2 0.864052 0.135949 0.500000
O O3 0.810398 0.321204 0.401005
O O4 0.943327 0.210674 0.265489
O O5 0.000000 0.286101 0.500000
O O6 0.729344 0.500000 0.500000
#
# Coordination Sequence:
#
# PCOD9551257 Si02
#       3
#     4  16  16
#     4   8  14  28  52  86 118 136 168 224 294 350
#     4  10  22  37  54  80 115 153 188 230 282 340
#     4  10  19  33  59  87 111 142 184 240 297 345
#
# _framework density 22.861851000000001
#
# number of rings (size 3 to 8) (size 9 to 14) (size 15 to 20)
#    0.000    2.667    0.000    6.000    0.000    7.556 
#    0.000    0.000    0.000    0.000    0.000    3.111 
#    0.000    0.000    0.000    0.000    0.000    0.000 
#
# Total GULP energy -100503.513030 kJ/mol
# GULP energy per Si atom -5583.528502 kJ/mol
# Density = 2.280982 g / cm^3
# Si number density = 22.861851 Si / 1000 Ang^3
#
#
#
# Elastic Constant Matrix: (Units=GPa)
#
#
# Indices 1 2 3 4 5 6 
#
# 1 25.0091 16.3287 47.2506 0.0000 0.0000 0.0000
# 2 16.3287 25.0126 47.2520 0.0000 0.0000 0.0000
# 3 47.2506 47.2520 263.0869 0.0000 0.0000 0.0000
# 4 0.0000 0.0000 0.0000 29.6965 0.0000 0.0000
# 5 0.0000 0.0000 0.0000 0.0000 29.6974 0.0000
# 6 0.0000 0.0000 0.0000 0.0000 0.0000 10.6138
#
#
#
# Elastic Compliance Matrix: (Units=1/GPa)
#
#
# Indices 1 2 3 4 5 6 
#
# 1 0.078117 -0.037070 -0.007372 0.000000 0.000000 0.000000
# 2 -0.037070 0.078103 -0.007370 0.000000 0.000000 0.000000
# 3 -0.007372 -0.007370 0.006449 0.000000 0.000000 0.000000
# 4 0.000000 0.000000 0.000000 0.033674 0.000000 0.000000
# 5 0.000000 0.000000 0.000000 0.000000 0.033673 0.000000
# 6 0.000000 0.000000 0.000000 0.000000 0.000000 0.094217
#
#
# Mechanical properties :
#
#
# Convention : Reuss Voigt Hill
#
# Bulk Modulus (GPa) = 16.93631 59.41905 38.17768
# Shear Modulus (GPa) = 11.17227 27.48669 19.32948
#
# Velocity S-wave (km/s) = 2.21302 3.47117 2.91089
# Velocity P-wave (km/s) = 3.73553 6.48940 5.29464
#
# Compressibility (1/GPa) = 0.05904475
#
# Stress axis : x y z
#
# Youngs Moduli (GPa) = 12.80139 12.80368 155.06998
#
# Poissons Ratio (x) = 0.47463 1.14315
# Poissons Ratio (y) = 0.47454 1.14286
# Poissons Ratio (z) = 0.09437 0.09436
#
# Static dielectric constant tensor:
#      x y z
#    x 1.886340 0.000000 0.000000 
#    y 0.000000 1.886340 0.000000 
#    z 0.000000 0.000000 1.883550 
# 
# From -- ./inp_files/1334.got.cif
#   From: 2010.05.17/outbox.cif.g08.bks.cpg/sg97_1_cif.got.tgz:1334.got - 2010.06.03 19:55:32.
