data_PCOD9551844
_publ_section_title
;
Structure prediction by ZEFSAII (Michael W. Deem and Ramdas Pophale) SiO2 
 PCOD9551844
Probable space group: I 41 2 2
;
_chemical_formula_sum "Si O2"
_cell_formula_units_Z 116
_cell_length_a 19.100655
_cell_length_b 19.100655
_cell_length_c 15.550119
_cell_angle_alpha 90.000000
_cell_angle_beta 90.000000
_cell_angle_gamma 90.000000
_cell_volume 5673.227999
_symmetry_space_group_name_H-M "I 41 2 2"
_symmetry_group_IT_number 98
_symmetry_cell_setting 'tetragonal'
loop_
_space_group_symop_operation_xyz
x,y,z
-y,1/2+x,1/4+z
-x,-y,z
y,1/2-x,1/4+z
x,1/2-y,1/4-z
-x,1/2+y,1/4-z
y,x,-z
-y,-x,-z
1/2+x,1/2+y,1/2+z
1/2-y,x,3/4+z
1/2-x,1/2-y,1/2+z
1/2+y,-x,3/4+z
1/2+x,-y,3/4-z
1/2-x,y,3/4-z
1/2+y,1/2+x,1/2-z
1/2-y,1/2-x,1/2-z
loop_
_atom_site_type_symbol
_atom_site_label
_atom_site_fract_x
_atom_site_fract_y
_atom_site_fract_z
Si Si1 0.350181 0.630755 0.681395
Si Si2 0.375274 0.354960 0.276367
Si Si3 0.213662 0.669398 0.595197
Si Si4 0.500000 0.500000 0.000000
Si Si5 0.750102 0.679704 0.580844
Si Si6 0.503945 0.415959 0.715245
Si Si7 0.506591 0.228278 0.027144
Si Si8 0.468022 0.856856 0.346631
O O1 0.293267 0.645313 0.609331
O O2 0.343451 0.695802 0.746081
O O3 0.428850 0.607757 0.659857
O O4 0.319020 0.568351 0.739754
O O5 0.354502 0.298662 0.348177
O O6 0.312030 0.364751 0.209538
O O7 0.394951 0.428109 0.319285
O O8 0.438966 0.320842 0.225107
O O9 0.203485 0.750000 0.625000
O O10 0.163848 0.615151 0.648925
O O11 0.493423 0.570988 0.945704
O O12 0.780696 0.750000 0.625000
O O13 0.703952 0.703952 0.500000
O O14 0.500000 0.500000 0.730224
O O15 0.513565 0.371982 0.803822
O O16 0.521006 0.250000 0.125000
O O17 0.499935 0.294131 0.961444
#
# Coordination Sequence:
#
# PCOD9551844 Si02
#       8
#    16  16  16   4  16  16  16  16
#     4  10  22  38  59  87 120 160 207 253 308 369
#     4  11  21  38  64  89 124 161 199 257 304 373
#     4  10  21  38  61  84 118 159 205 256 308 366
#     4  12  24  36  52  80 128 168 214 240 278 352
#     4   9  20  40  63  90 117 153 203 252 309 367
#     4  11  21  40  58  83 121 163 207 253 307 365
#     4  11  23  35  55  89 127 168 208 240 299 371
#     4  10  25  36  54  85 125 171 208 250 294 363
#
# _framework density 20.446912999999999
#
# number of rings (size 3 to 8) (size 9 to 14) (size 15 to 20)
#    0.000    1.655    2.069    2.069    9.655    0.000 
#    3.724    2.069    0.000    3.724    0.000    0.000 
#    0.000    0.000    0.000    0.000    0.000    0.000 
#
# Total GULP energy -323584.651937 kJ/mol
# GULP energy per Si atom -5579.045723 kJ/mol
# Density = 2.040037 g / cm^3
# Si number density = 20.446913 Si / 1000 Ang^3
#
#
#
# Elastic Constant Matrix: (Units=GPa)
#
#
# Indices 1 2 3 4 5 6 
#
# 1 90.0895 88.0936 8.9973 0.0000 0.0000 0.0000
# 2 88.0936 90.0895 8.9973 0.0000 0.0000 0.0000
# 3 8.9973 8.9973 23.1361 0.0000 0.0000 0.0000
# 4 0.0000 0.0000 0.0000 7.6330 0.0000 0.0000
# 5 0.0000 0.0000 0.0000 0.0000 7.6330 0.0000
# 6 0.0000 0.0000 0.0000 0.0000 0.0000 17.4656
#
#
#
# Elastic Compliance Matrix: (Units=1/GPa)
#
#
# Indices 1 2 3 4 5 6 
#
# 1 0.253437 -0.247595 -0.002272 0.000000 0.000000 0.000000
# 2 -0.247595 0.253437 -0.002272 0.000000 0.000000 0.000000
# 3 -0.002272 -0.002272 0.044989 0.000000 0.000000 0.000000
# 4 0.000000 0.000000 0.000000 0.131010 0.000000 0.000000
# 5 0.000000 0.000000 0.000000 0.000000 0.131010 0.000000
# 6 0.000000 0.000000 0.000000 0.000000 0.000000 0.057255
#
#
# Mechanical properties :
#
#
# Convention : Reuss Voigt Hill
#
# Bulk Modulus (GPa) = 21.01473 46.16570 33.59021
# Shear Modulus (GPa) = 3.59382 13.02813 8.31098
#
# Velocity S-wave (km/s) = 1.32720 2.52696 2.01829
# Velocity P-wave (km/s) = 3.55649 5.58044 4.67921
#
# Compressibility (1/GPa) = 0.04758567
#
# Stress axis : x y z
#
# Youngs Moduli (GPa) = 3.94576 3.94576 22.22752
#
# Poissons Ratio (x) = 0.97695 0.05049
# Poissons Ratio (y) = 0.97695 0.05049
# Poissons Ratio (z) = 0.00896 0.00896
#
# Static dielectric constant tensor:
#      x y z
#    x 1.754300 0.000000 0.000000 
#    y 0.000000 1.754300 0.000000 
#    z 0.000000 0.000000 1.727140 
# 
# From -- ./inp_files/7830.got.cif
#   From: 2010.05.17/outbox.cif.g08.bks.cpg/sg98_4_cif.got.tgz:7830.got - 2010.06.03 20:00:51.
