data_PCOD9551513
_publ_section_title
;
Structure prediction by ZEFSAII (Michael W. Deem and Ramdas Pophale) SiO2 
 PCOD9551513
Probable space group: I 4 2 2 
;
_chemical_formula_sum "Si O2"
_cell_formula_units_Z 128
_cell_length_a 23.550836
_cell_length_b 23.550836
_cell_length_c 11.368404
_cell_angle_alpha 90.000000
_cell_angle_beta 90.000000
_cell_angle_gamma 90.000000
_cell_volume 6305.392925
_symmetry_space_group_name_H-M "I 4 2 2 "
_symmetry_group_IT_number 97
_symmetry_cell_setting 'tetragonal'
loop_
_space_group_symop_operation_xyz
x,y,z
-y,x,z
-x,-y,z
y,-x,z
x,-y,-z
-x,y,-z
y,x,-z
-y,-x,-z
1/2+x,1/2+y,1/2+z
1/2-y,1/2+x,1/2+z
1/2-x,1/2-y,1/2+z
1/2+y,1/2-x,1/2+z
1/2+x,1/2-y,1/2-z
1/2-x,1/2+y,1/2-z
1/2+y,1/2+x,1/2-z
1/2-y,1/2-x,1/2-z
loop_
_atom_site_type_symbol
_atom_site_label
_atom_site_fract_x
_atom_site_fract_y
_atom_site_fract_z
Si Si1 0.374560 0.719687 0.981383
Si Si2 0.081401 0.223545 0.263164
Si Si3 0.325043 0.651219 0.366578
Si Si4 0.531380 0.081238 0.378483
Si Si5 0.203621 0.318694 0.584225
Si Si6 0.280772 0.546983 0.220615
Si Si7 0.655674 0.068690 0.792684
Si Si8 0.620676 0.827958 0.634732
O O1 0.339091 0.766497 0.906287
O O2 0.426798 0.700470 0.902577
O O3 0.331149 0.668852 0.000000
O O4 0.397966 0.741372 0.106253
O O5 0.127677 0.179189 0.215473
O O6 0.080150 0.277054 0.175047
O O7 0.017605 0.200828 0.266142
O O8 0.347698 0.652303 0.500000
O O9 0.266572 0.687976 0.367611
O O10 0.305488 0.589331 0.320252
O O11 0.500000 0.057408 0.500000
O O12 0.547296 0.047296 0.250000
O O13 0.488515 0.131947 0.347634
O O14 0.589019 0.115336 0.413139
O O15 0.179505 0.377309 0.636129
O O16 0.201881 0.333623 0.447697
O O17 0.211345 0.550398 0.219329
O O18 0.596795 0.096795 0.750000
O O19 0.651420 0.848581 0.750000
#
# Coordination Sequence:
#
# PCOD9551513 Si02
#       8
#    16  16  16  16  16  16  16  16
#     4  12  24  42  66 100 142 180 222 293 354 436
#     4  12  24  42  67  98 141 184 232 280 349 433
#     4  11  24  41  63 102 135 178 224 280 352 424
#     4  11  24  43  67  96 135 189 253 314 363 420
#     4  11  22  37  64  98 141 179 220 279 362 437
#     4  11  25  44  67  97 135 186 229 283 356 432
#     4  11  22  41  63  90 132 178 233 287 349 421
#     4  11  21  36  64  98 136 179 229 289 350 424
#
# _framework density 20.300083999999998
#
# number of rings (size 3 to 8) (size 9 to 14) (size 15 to 20)
#    0.000    0.750    7.500    0.750    0.000    0.750 
#    2.250    1.250    0.000    0.375    0.000    1.750 
#    0.000    0.000    0.000    0.000    0.000    0.000 
#
# Total GULP energy -356460.343045 kJ/mol
# GULP energy per Si atom -5569.692860 kJ/mol
# Density = 2.025388 g / cm^3
# Si number density = 20.300084 Si / 1000 Ang^3
#
#
#
# Elastic Constant Matrix: (Units=GPa)
#
#
# Indices 1 2 3 4 5 6 
#
# 1 128.9645 9.1315 25.6709 0.0000 0.0000 0.0000
# 2 9.1315 128.9683 25.6719 0.0000 0.0000 0.0000
# 3 25.6709 25.6719 75.0453 0.0000 0.0000 0.0000
# 4 0.0000 0.0000 0.0000 58.3844 0.0000 0.0000
# 5 0.0000 0.0000 0.0000 0.0000 58.4006 0.0000
# 6 0.0000 0.0000 0.0000 0.0000 0.0000 22.1135
#
#
#
# Elastic Compliance Matrix: (Units=1/GPa)
#
#
# Indices 1 2 3 4 5 6 
#
# 1 0.008321 -0.000024 -0.002838 0.000000 0.000000 0.000000
# 2 -0.000024 0.008320 -0.002838 0.000000 0.000000 0.000000
# 3 -0.002838 -0.002838 0.015267 0.000000 0.000000 0.000000
# 4 0.000000 0.000000 0.000000 0.017128 0.000000 0.000000
# 5 0.000000 0.000000 0.000000 0.000000 0.017123 0.000000
# 6 0.000000 0.000000 0.000000 0.000000 0.000000 0.045221
#
#
# Mechanical properties :
#
#
# Convention : Reuss Voigt Hill
#
# Bulk Modulus (GPa) = 48.76237 50.43631 49.59934
# Shear Modulus (GPa) = 38.57527 45.94663 42.26095
#
# Velocity S-wave (km/s) = 4.36392 4.76265 4.56764
# Velocity P-wave (km/s) = 7.03311 7.42584 7.23214
#
# Compressibility (1/GPa) = 0.02050762
#
# Stress axis : x y z
#
# Youngs Moduli (GPa) = 120.18218 120.18528 65.50104
#
# Poissons Ratio (x) = 0.00291 0.18589
# Poissons Ratio (y) = 0.00291 0.18589
# Poissons Ratio (z) = 0.34108 0.34109
#
# Static dielectric constant tensor:
#      x y z
#    x 1.541640 0.000000 0.000000 
#    y 0.000000 1.541570 0.000000 
#    z 0.000000 0.000000 1.643920 
# 
# From -- ./inp_files/4081.got.cif
#   From: 2010.05.17/outbox.cif.g08.bks.cpg/sg97_3_cif.got.tgz:4081.got - 2010.06.03 19:55:32.
