data_PCOD9551901
_publ_section_title
;
Structure prediction by ZEFSAII (Michael W. Deem and Ramdas Pophale) SiO2 
 PCOD9551901
Probable space group: I 41 2 2
;
_chemical_formula_sum "Si O2"
_cell_formula_units_Z 32
_cell_length_a 15.178157
_cell_length_b 15.178157
_cell_length_c 5.305284
_cell_angle_alpha 90.000000
_cell_angle_beta 90.000000
_cell_angle_gamma 90.000000
_cell_volume 1222.212494
_symmetry_space_group_name_H-M "I 41 2 2"
_symmetry_group_IT_number 98
_symmetry_cell_setting 'tetragonal'
loop_
_space_group_symop_operation_xyz
x,y,z
-y,1/2+x,1/4+z
-x,-y,z
y,1/2-x,1/4+z
x,1/2-y,1/4-z
-x,1/2+y,1/4-z
y,x,-z
-y,-x,-z
1/2+x,1/2+y,1/2+z
1/2-y,x,3/4+z
1/2-x,1/2-y,1/2+z
1/2+y,-x,3/4+z
1/2+x,-y,3/4-z
1/2-x,y,3/4-z
1/2+y,1/2+x,1/2-z
1/2-y,1/2-x,1/2-z
loop_
_atom_site_type_symbol
_atom_site_label
_atom_site_fract_x
_atom_site_fract_y
_atom_site_fract_z
Si Si1 0.396851 0.103150 0.250000
Si Si2 0.250000 0.415252 0.375000
Si Si3 0.668467 0.437306 0.721791
O O1 0.370597 0.170131 0.475978
O O2 0.383617 0.001046 0.330770
O O3 0.289022 0.483560 0.570971
O O4 0.619077 0.380924 0.500000
O O5 0.750000 0.391688 0.875000
#
# Coordination Sequence:
#
# PCOD9551901 Si02
#       3
#     8   8  16
#     4  10  22  41  68 104 156 202 256 317 380 470
#     4  10  22  40  70 102 156 188 262 310 380 462
#     4  10  23  43  73 110 148 199 261 321 390 471
#
# _framework density 26.182030000000001
#
# number of rings (size 3 to 8) (size 9 to 14) (size 15 to 20)
#    0.000    2.000    0.000    1.500    0.000   14.000 
#    0.000    0.000  203.500    0.000   26.000    0.000 
#    0.000    0.000    0.000    0.000    0.000    0.000 
#
# Total GULP energy -89068.501884 kJ/mol
# GULP energy per Si atom -5566.781368 kJ/mol
# Density = 2.612244 g / cm^3
# Si number density = 26.182030 Si / 1000 Ang^3
#
#
#
# Elastic Constant Matrix: (Units=GPa)
#
#
# Indices 1 2 3 4 5 6 
#
# 1 115.4493 113.3102 74.1525 0.0000 0.0000 0.0000
# 2 113.3102 115.4466 74.1509 0.0000 0.0000 0.0000
# 3 74.1525 74.1509 162.4204 0.0000 0.0000 0.0000
# 4 0.0000 0.0000 0.0000 67.9293 0.0000 0.0000
# 5 0.0000 0.0000 0.0000 0.0000 67.9298 0.0000
# 6 0.0000 0.0000 0.0000 0.0000 0.0000 14.9993
#
#
#
# Elastic Compliance Matrix: (Units=1/GPa)
#
#
# Indices 1 2 3 4 5 6 
#
# 1 0.236997 -0.230789 -0.002836 0.000000 0.000000 0.000000
# 2 -0.230789 0.237000 -0.002833 0.000000 0.000000 0.000000
# 3 -0.002836 -0.002833 0.008745 0.000000 0.000000 0.000000
# 4 0.000000 0.000000 0.000000 0.014721 0.000000 0.000000
# 5 0.000000 0.000000 0.000000 0.000000 0.014721 0.000000
# 6 0.000000 0.000000 0.000000 0.000000 0.000000 0.066670
#
#
# Mechanical properties :
#
#
# Convention : Reuss Voigt Hill
#
# Bulk Modulus (GPa) = 101.78535 101.83815 101.81175
# Shear Modulus (GPa) = 4.73913 38.95185 21.84549
#
# Velocity S-wave (km/s) = 1.34685 3.86130 2.89168
# Velocity P-wave (km/s) = 6.43266 7.67204 7.07952
#
# Compressibility (1/GPa) = 0.00982460
#
# Stress axis : x y z
#
# Youngs Moduli (GPa) = 4.21947 4.21940 114.34802
#
# Poissons Ratio (x) = 0.97379 0.32432
# Poissons Ratio (y) = 0.97381 0.32398
# Poissons Ratio (z) = 0.01197 0.01195
#
# Static dielectric constant tensor:
#      x y z
#    x 2.073860 0.000000 0.000000 
#    y 0.000000 2.073870 0.000000 
#    z 0.000000 0.000000 1.910260 
# 
# From -- ./inp_files/413.got.cif
#   From: 2010.05.17/outbox.cif.g08.bks.cpg/sg98_1_cif.got.tgz:413.got - 2010.06.03 20:00:51.
