data_PCOD9551146
_publ_section_title
;
Structure prediction by ZEFSAII (Michael W. Deem and Ramdas Pophale) SiO2 
 PCOD9551146
Probable space group: P 43 21 2
;
_chemical_formula_sum "Si O2"
_cell_formula_units_Z 40
_cell_length_a 14.145126
_cell_length_b 14.145126
_cell_length_c 9.625359
_cell_angle_alpha 90.000000
_cell_angle_beta 90.000000
_cell_angle_gamma 90.000000
_cell_volume 1925.886005
_symmetry_space_group_name_H-M "P 43 21 2"
_symmetry_group_IT_number 96
_symmetry_cell_setting 'tetragonal'
loop_
_space_group_symop_operation_xyz
x,y,z
1/2-y,1/2+x,3/4+z
-x,-y,1/2+z
1/2+y,1/2-x,1/4+z
1/2+x,1/2-y,1/4-z
1/2-x,1/2+y,3/4-z
y,x,-z
-y,-x,1/2-z
loop_
_atom_site_type_symbol
_atom_site_label
_atom_site_fract_x
_atom_site_fract_y
_atom_site_fract_z
Si Si1 0.981998 0.331244 0.484379
Si Si2 0.613155 0.184438 0.503564
Si Si3 0.188465 0.823495 0.414577
Si Si4 0.844763 0.497658 0.426671
Si Si5 0.471576 0.682475 0.785196
O O1 0.902767 0.262845 0.546021
O O2 0.934712 0.432018 0.452983
O O3 0.065904 0.339588 0.596963
O O4 0.000134 0.295979 0.328042
O O5 0.721065 0.215794 0.525595
O O6 0.554121 0.267661 0.431147
O O7 0.620700 0.093859 0.399834
O O8 0.184598 0.815403 0.250000
O O9 0.082015 0.843928 0.467050
O O10 0.766633 0.454876 0.324594
O O11 0.404481 0.595520 0.750000
#
# Coordination Sequence:
#
# PCOD9551146 Si02
#       5
#     8   8   8   8   8
#     4  12  25  43  69 102 137 176 224 284 343 403
#     4  11  25  42  71  99 137 177 224 281 346 398
#     4  11  24  47  66 100 136 179 228 282 330 407
#     4  11  26  40  70 104 134 176 224 282 348 408
#     4  11  24  47  68  97 135 183 225 280 337 407
#
# _framework density 20.769662
#
# number of rings (size 3 to 8) (size 9 to 14) (size 15 to 20)
#    0.000    0.800    4.000    2.400    5.600    2.400 
#    3.600    1.000    0.000    0.000    0.000    0.000 
#    0.000    0.000    0.000    0.000    0.000    0.000 
#
# Total GULP energy -223550.460995 kJ/mol
# GULP energy per Si atom -5588.761525 kJ/mol
# Density = 2.072239 g / cm^3
# Si number density = 20.769662 Si / 1000 Ang^3
#
#
#
# Elastic Constant Matrix: (Units=GPa)
#
#
# Indices 1 2 3 4 5 6 
#
# 1 46.0844 35.7881 11.0466 0.0000 0.0000 0.0000
# 2 35.7881 46.0857 11.0467 0.0000 0.0000 0.0000
# 3 11.0466 11.0467 120.1295 0.0000 0.0000 0.0000
# 4 0.0000 0.0000 0.0000 29.4238 0.0000 0.0000
# 5 0.0000 0.0000 0.0000 0.0000 29.4241 0.0000
# 6 0.0000 0.0000 0.0000 0.0000 0.0000 29.2507
#
#
#
# Elastic Compliance Matrix: (Units=1/GPa)
#
#
# Indices 1 2 3 4 5 6 
#
# 1 0.054821 -0.042296 -0.001152 0.000000 0.000000 0.000000
# 2 -0.042296 0.054820 -0.001152 0.000000 0.000000 0.000000
# 3 -0.001152 -0.001152 0.008536 0.000000 0.000000 0.000000
# 4 0.000000 0.000000 0.000000 0.033986 0.000000 0.000000
# 5 0.000000 0.000000 0.000000 0.000000 0.033986 0.000000
# 6 0.000000 0.000000 0.000000 0.000000 0.000000 0.034187
#
#
# Mechanical properties :
#
#
# Convention : Reuss Voigt Hill
#
# Bulk Modulus (GPa) = 34.50795 36.45141 35.47968
# Shear Modulus (GPa) = 15.66442 27.91426 21.78934
#
# Velocity S-wave (km/s) = 2.74924 3.67003 3.24249
# Velocity P-wave (km/s) = 5.16996 5.96215 5.58013
#
# Compressibility (1/GPa) = 0.02897883
#
# Stress axis : x y z
#
# Youngs Moduli (GPa) = 18.24104 18.24159 117.14855
#
# Poissons Ratio (x) = 0.77154 0.13493
# Poissons Ratio (y) = 0.77152 0.13492
# Poissons Ratio (z) = 0.02101 0.02101
#
# Static dielectric constant tensor:
#      x y z
#    x 1.737230 0.000000 0.000000 
#    y 0.000000 1.737230 0.000000 
#    z 0.000000 0.000000 1.923870 
# 
# From -- ./inp_files/1315.got.cif
#   From: 2010.05.17/outbox.cif.g08.bks.cpg/sg96_1_cif.got.tgz:1315.got - 2010.06.03 19:52:08.
