data_PCOD9551098
_publ_section_title
;
Structure prediction by ZEFSAII (Michael W. Deem and Ramdas Pophale) SiO2 
 PCOD9551098
Probable space group: P 43 21 2
;
_chemical_formula_sum "Si O2"
_cell_formula_units_Z 32
_cell_length_a 15.252612
_cell_length_b 15.252612
_cell_length_c 6.669383
_cell_angle_alpha 90.000000
_cell_angle_beta 90.000000
_cell_angle_gamma 90.000000
_cell_volume 1551.579753
_symmetry_space_group_name_H-M "P 43 21 2"
_symmetry_group_IT_number 96
_symmetry_cell_setting 'tetragonal'
loop_
_space_group_symop_operation_xyz
x,y,z
1/2-y,1/2+x,3/4+z
-x,-y,1/2+z
1/2+y,1/2-x,1/4+z
1/2+x,1/2-y,1/4-z
1/2-x,1/2+y,3/4-z
y,x,-z
-y,-x,1/2-z
loop_
_atom_site_type_symbol
_atom_site_label
_atom_site_fract_x
_atom_site_fract_y
_atom_site_fract_z
Si Si1 0.896707 0.021704 0.579584
Si Si2 0.748271 0.513489 0.493308
Si Si3 0.092048 0.209981 0.626425
Si Si4 0.654015 0.194662 0.269073
O O1 0.991608 0.991608 0.500000
O O2 0.858316 0.938402 0.702158
O O3 0.833528 0.041357 0.396505
O O4 0.905361 0.094640 0.750000
O O5 0.722079 0.484365 0.715796
O O6 0.810314 0.597239 0.507197
O O7 0.786342 0.426302 0.383431
O O8 0.172396 0.172396 0.500000
O O9 0.117363 0.294226 0.754842
O O10 0.732026 0.267975 0.250000
#
# Coordination Sequence:
#
# PCOD9551098 Si02
#       4
#     8   8   8   8
#     4  11  23  35  60 100 136 171 222 286 352 414
#     4  11  25  44  66  99 133 182 231 278 343 413
#     4  11  20  43  68  88 136 181 215 282 348 398
#     4  11  25  45  69  99 136 175 231 283 337 411
#
# _framework density 20.624140000000001
#
# number of rings (size 3 to 8) (size 9 to 14) (size 15 to 20)
#    0.000    1.000    5.000    2.250    3.500    5.000 
#    4.500    0.000    0.000    0.000    0.000    0.000 
#    0.000    0.000    0.000    0.000    0.000    0.000 
#
# Total GULP energy -178786.190771 kJ/mol
# GULP energy per Si atom -5587.068462 kJ/mol
# Density = 2.057720 g / cm^3
# Si number density = 20.624140 Si / 1000 Ang^3
#
#
#
# Elastic Constant Matrix: (Units=GPa)
#
#
# Indices 1 2 3 4 5 6 
#
# 1 75.5047 50.4151 36.7522 0.0000 0.0000 0.0000
# 2 50.4151 75.5038 36.7518 0.0000 0.0000 0.0000
# 3 36.7522 36.7518 139.9647 0.0000 0.0000 0.0000
# 4 0.0000 0.0000 0.0000 26.3228 0.0000 0.0000
# 5 0.0000 0.0000 0.0000 0.0000 26.3229 0.0000
# 6 0.0000 0.0000 0.0000 0.0000 0.0000 38.1904
#
#
#
# Elastic Compliance Matrix: (Units=1/GPa)
#
#
# Indices 1 2 3 4 5 6 
#
# 1 0.024618 -0.015239 -0.002463 0.000000 0.000000 0.000000
# 2 -0.015239 0.024619 -0.002463 0.000000 0.000000 0.000000
# 3 -0.002463 -0.002463 0.008438 0.000000 0.000000 0.000000
# 4 0.000000 0.000000 0.000000 0.037990 0.000000 0.000000
# 5 0.000000 0.000000 0.000000 0.000000 0.037990 0.000000
# 6 0.000000 0.000000 0.000000 0.000000 0.000000 0.026185
#
#
# Mechanical properties :
#
#
# Convention : Reuss Voigt Hill
#
# Bulk Modulus (GPa) = 57.65259 59.86791 58.76025
# Shear Modulus (GPa) = 24.27764 29.30416 26.79090
#
# Velocity S-wave (km/s) = 3.43468 3.77353 3.60808
# Velocity P-wave (km/s) = 6.61392 6.93377 6.77573
#
# Compressibility (1/GPa) = 0.01734527
#
# Stress axis : x y z
#
# Youngs Moduli (GPa) = 40.62007 40.61962 118.51110
#
# Poissons Ratio (x) = 0.61901 0.29187
# Poissons Ratio (y) = 0.61902 0.29187
# Poissons Ratio (z) = 0.10004 0.10004
#
# Static dielectric constant tensor:
#      x y z
#    x 1.759040 0.000000 0.000000 
#    y 0.000000 1.759040 0.000000 
#    z 0.000000 0.000000 1.742300 
# 
# From -- ./inp_files/322.got.cif
#   From: 2010.05.17/outbox.cif.g08.bks.cpg/sg96_1_cif.got.tgz:322.got - 2010.06.03 19:52:08.
