data_PCOD9551511
_publ_section_title
;
Structure prediction by ZEFSAII (Michael W. Deem and Ramdas Pophale) SiO2 
 PCOD9551511
Probable space group: I 4 2 2 
;
_chemical_formula_sum "Si O2"
_cell_formula_units_Z 96
_cell_length_a 14.740085
_cell_length_b 14.740085
_cell_length_c 24.106344
_cell_angle_alpha 90.000000
_cell_angle_beta 90.000000
_cell_angle_gamma 90.000000
_cell_volume 5237.587912
_symmetry_space_group_name_H-M "I 4 2 2 "
_symmetry_group_IT_number 97
_symmetry_cell_setting 'tetragonal'
loop_
_space_group_symop_operation_xyz
x,y,z
-y,x,z
-x,-y,z
y,-x,z
x,-y,-z
-x,y,-z
y,x,-z
-y,-x,-z
1/2+x,1/2+y,1/2+z
1/2-y,1/2+x,1/2+z
1/2-x,1/2-y,1/2+z
1/2+y,1/2-x,1/2+z
1/2+x,1/2-y,1/2-z
1/2-x,1/2+y,1/2-z
1/2+y,1/2+x,1/2-z
1/2-y,1/2-x,1/2-z
loop_
_atom_site_type_symbol
_atom_site_label
_atom_site_fract_x
_atom_site_fract_y
_atom_site_fract_z
Si Si1 0.297528 0.972337 0.379542
Si Si2 0.175214 0.548508 0.620187
Si Si3 0.500000 0.852146 0.500000
Si Si4 0.643904 0.865296 0.186881
Si Si5 0.932514 0.864852 0.308872
Si Si6 0.342895 0.000000 0.500000
Si Si7 0.162563 0.770888 0.790869
O O1 0.391914 0.916799 0.378731
O O2 0.216816 0.914358 0.351820
O O3 0.311058 0.064761 0.344796
O O4 0.283865 0.989351 0.444727
O O5 0.198920 0.523800 0.556828
O O6 0.159849 0.456832 0.653573
O O7 0.245595 0.609155 0.654064
O O8 0.587702 0.916320 0.489626
O O9 0.614536 0.885465 0.250000
O O10 0.740088 0.813541 0.193221
O O11 0.900529 0.832836 0.248168
O O12 0.039159 0.883996 0.316434
O O13 0.186210 0.686210 0.750000
#
# Coordination Sequence:
#
# PCOD9551511 Si02
#       7
#    16  16   8  16  16   8  16
#     4  11  21  37  61  88 117 160 201 250 304 354
#     4  11  21  36  60  86 119 161 197 246 311 358
#     4   9  18  36  56  84 116 161 196 238 305 360
#     4  11  23  35  58  89 122 150 201 255 300 365
#     4  11  23  40  61  84 120 166 200 238 306 374
#     4   9  18  36  58  83 120 154 196 249 300 354
#     4  11  21  38  56  87 122 156 195 252 301 354
#
# _framework density 18.329049000000001
#
# number of rings (size 3 to 8) (size 9 to 14) (size 15 to 20)
#    0.000    1.333    3.333    4.500    0.000    0.667 
#    0.000    1.667    0.000    1.000    0.000    0.000 
#    0.000    1.333    0.000    0.000    0.000    0.000 
#
# Total GULP energy -267769.963193 kJ/mol
# GULP energy per Si atom -5578.540900 kJ/mol
# Density = 1.828733 g / cm^3
# Si number density = 18.329049 Si / 1000 Ang^3
#
#
#
# Elastic Constant Matrix: (Units=GPa)
#
#
# Indices 1 2 3 4 5 6 
#
# 1 66.6490 5.8820 33.8744 0.0000 0.0000 0.0000
# 2 5.8820 66.6490 33.8744 0.0000 0.0000 0.0000
# 3 33.8744 33.8744 150.6933 0.0000 0.0000 0.0000
# 4 0.0000 0.0000 0.0000 11.9547 0.0000 0.0000
# 5 0.0000 0.0000 0.0000 0.0000 11.9548 0.0000
# 6 0.0000 0.0000 0.0000 0.0000 0.0000 20.5295
#
#
#
# Elastic Compliance Matrix: (Units=1/GPa)
#
#
# Indices 1 2 3 4 5 6 
#
# 1 0.016954 0.000498 -0.003923 0.000000 0.000000 0.000000
# 2 0.000498 0.016954 -0.003923 0.000000 0.000000 0.000000
# 3 -0.003923 -0.003923 0.008400 0.000000 0.000000 0.000000
# 4 0.000000 0.000000 0.000000 0.083649 0.000000 0.000000
# 5 0.000000 0.000000 0.000000 0.000000 0.083649 0.000000
# 6 0.000000 0.000000 0.000000 0.000000 0.000000 0.048710
#
#
# Mechanical properties :
#
#
# Convention : Reuss Voigt Hill
#
# Bulk Modulus (GPa) = 36.21755 47.91699 42.06727
# Shear Modulus (GPa) = 17.71696 22.91184 20.31440
#
# Velocity S-wave (km/s) = 3.11240 3.53941 3.33275
# Velocity P-wave (km/s) = 5.72002 6.55001 6.14903
#
# Compressibility (1/GPa) = 0.02761092
#
# Stress axis : x y z
#
# Youngs Moduli (GPa) = 58.98357 58.98355 119.05243
#
# Poissons Ratio (x) = -0.02935 0.46703
# Poissons Ratio (y) = -0.02935 0.46703
# Poissons Ratio (z) = 0.23139 0.23139
#
# Static dielectric constant tensor:
#      x y z
#    x 1.644080 0.000000 0.000000 
#    y 0.000000 1.644080 0.000000 
#    z 0.000000 0.000000 1.643480 
# 
# From -- ./inp_files/7215.got.cif
#   From: 2010.05.17/outbox.cif.g08.bks.cpg/sg97_4_cif.got.tgz:7215.got - 2010.06.03 19:55:32.
