data_PCOD9551051
_publ_section_title
;
Structure prediction by ZEFSAII (Michael W. Deem and Ramdas Pophale) SiO2 
 PCOD9551051
Probable space group: P 43 21 2
;
_chemical_formula_sum "Si O2"
_cell_formula_units_Z 56
_cell_length_a 14.648596
_cell_length_b 14.648596
_cell_length_c 11.074715
_cell_angle_alpha 90.000000
_cell_angle_beta 90.000000
_cell_angle_gamma 90.000000
_cell_volume 2376.427459
_symmetry_space_group_name_H-M "P 43 21 2"
_symmetry_group_IT_number 96
_symmetry_cell_setting 'tetragonal'
loop_
_space_group_symop_operation_xyz
x,y,z
1/2-y,1/2+x,3/4+z
-x,-y,1/2+z
1/2+y,1/2-x,1/4+z
1/2+x,1/2-y,1/4-z
1/2-x,1/2+y,3/4-z
y,x,-z
-y,-x,1/2-z
loop_
_atom_site_type_symbol
_atom_site_label
_atom_site_fract_x
_atom_site_fract_y
_atom_site_fract_z
Si Si1 0.120403 0.995772 0.556549
Si Si2 0.253544 0.981932 0.327522
Si Si3 0.392908 0.140641 0.980290
Si Si4 0.349544 0.349544 0.000000
Si Si5 0.913203 0.409359 0.534587
Si Si6 0.893283 0.794824 0.403381
Si Si7 0.725024 0.725024 0.000000
Si Si8 0.714498 0.345537 0.557450
O O1 0.024529 0.024529 0.500000
O O2 0.145914 0.075602 0.651819
O O3 0.192322 0.997198 0.446664
O O4 0.120081 0.903737 0.631016
O O5 0.360366 0.983532 0.373523
O O6 0.238387 0.877897 0.288364
O O7 0.217777 0.039347 0.212127
O O8 0.377319 0.244425 0.023030
O O9 0.485920 0.085695 0.012247
O O10 0.299829 0.093457 0.024290
O O11 0.409387 0.148339 0.837631
O O12 0.811294 0.392977 0.583336
O O13 0.877340 0.877340 0.500000
O O14 0.799192 0.809199 0.327187
O O15 0.756938 0.790371 0.891704
#
# Coordination Sequence:
#
# PCOD9551051 Si02
#       8
#     8   8   8   4   8   8   4   8
#     4  12  24  47  78 108 148 214 268 339 423 505
#     4  11  25  47  72 112 159 204 274 336 408 514
#     4  12  25  44  75 111 156 211 265 342 409 499
#     4  12  24  47  76 114 153 208 274 338 412 496
#     4  11  23  45  72 106 152 209 268 327 419 491
#     4  12  25  45  76 115 157 210 271 337 417 501
#     4  10  24  41  72 102 145 204 264 320 400 496
#     4  11  20  45  73  99 145 213 259 317 416 503
#
# _framework density 23.564782999999998
#
# number of rings (size 3 to 8) (size 9 to 14) (size 15 to 20)
#    0.000    0.571    7.143    0.000    2.000    4.000 
#    2.571    0.000    0.000    0.000    0.000    0.000 
#    0.000    0.000    0.000    0.000    0.000    0.000 
#
# Total GULP energy -312064.523293 kJ/mol
# GULP energy per Si atom -5572.580773 kJ/mol
# Density = 2.351115 g / cm^3
# Si number density = 23.564783 Si / 1000 Ang^3
#
#
#
# Elastic Constant Matrix: (Units=GPa)
#
#
# Indices 1 2 3 4 5 6 
#
# 1 92.7861 33.6540 30.1490 0.0000 0.0000 0.0000
# 2 33.6540 92.7861 30.1490 0.0000 0.0000 0.0000
# 3 30.1490 30.1490 104.5276 0.0000 0.0000 0.0000
# 4 0.0000 0.0000 0.0000 39.1952 0.0000 0.0000
# 5 0.0000 0.0000 0.0000 0.0000 39.1952 0.0000
# 6 0.0000 0.0000 0.0000 0.0000 0.0000 26.5130
#
#
#
# Elastic Compliance Matrix: (Units=1/GPa)
#
#
# Indices 1 2 3 4 5 6 
#
# 1 0.013041 -0.003871 -0.002645 0.000000 0.000000 0.000000
# 2 -0.003871 0.013041 -0.002645 0.000000 0.000000 0.000000
# 3 -0.002645 -0.002645 0.011093 0.000000 0.000000 0.000000
# 4 0.000000 0.000000 0.000000 0.025513 0.000000 0.000000
# 5 0.000000 0.000000 0.000000 0.000000 0.025513 0.000000
# 6 0.000000 0.000000 0.000000 0.000000 0.000000 0.037717
#
#
# Mechanical properties :
#
#
# Convention : Reuss Voigt Hill
#
# Bulk Modulus (GPa) = 53.04136 53.11152 53.07644
# Shear Modulus (GPa) = 33.21740 34.05720 33.63730
#
# Velocity S-wave (km/s) = 3.75856 3.80578 3.78225
# Velocity P-wave (km/s) = 6.43377 6.47297 6.45340
#
# Compressibility (1/GPa) = 0.01885321
#
# Stress axis : x y z
#
# Youngs Moduli (GPa) = 76.68260 76.68260 90.14992
#
# Poissons Ratio (x) = 0.29680 0.23844
# Poissons Ratio (y) = 0.29680 0.23844
# Poissons Ratio (z) = 0.20282 0.20282
#
# Static dielectric constant tensor:
#      x y z
#    x 2.001910 0.000000 0.000000 
#    y 0.000000 2.001910 0.000000 
#    z 0.000000 0.000000 1.922660 
# 
# From -- ./inp_files/2317.got.cif
#   From: 2010.05.17/outbox.cif.g08.bks.cpg/sg96_2_cif.got.tgz:2317.got - 2010.06.03 19:52:08.
