data_PCOD9551323
_publ_section_title
;
Structure prediction by ZEFSAII (Michael W. Deem and Ramdas Pophale) SiO2 
 PCOD9551323
Probable space group: I 4 2 2 
;
_chemical_formula_sum "Si O2"
_cell_formula_units_Z 72
_cell_length_a 20.681540
_cell_length_b 20.681540
_cell_length_c 9.062135
_cell_angle_alpha 90.000000
_cell_angle_beta 90.000000
_cell_angle_gamma 90.000000
_cell_volume 3876.111632
_symmetry_space_group_name_H-M "I 4 2 2 "
_symmetry_group_IT_number 97
_symmetry_cell_setting 'tetragonal'
loop_
_space_group_symop_operation_xyz
x,y,z
-y,x,z
-x,-y,z
y,-x,z
x,-y,-z
-x,y,-z
y,x,-z
-y,-x,-z
1/2+x,1/2+y,1/2+z
1/2-y,1/2+x,1/2+z
1/2-x,1/2-y,1/2+z
1/2+y,1/2-x,1/2+z
1/2+x,1/2-y,1/2-z
1/2-x,1/2+y,1/2-z
1/2+y,1/2+x,1/2-z
1/2-y,1/2-x,1/2-z
loop_
_atom_site_type_symbol
_atom_site_label
_atom_site_fract_x
_atom_site_fract_y
_atom_site_fract_z
Si Si1 0.175621 0.742858 0.883686
Si Si2 0.862981 0.694511 0.598109
Si Si3 0.500000 0.217168 0.000000
Si Si4 0.391346 0.500000 0.500000
Si Si5 0.943420 0.814218 0.261295
Si Si6 0.153853 0.153853 0.500000
O O1 0.222779 0.722779 0.750000
O O2 0.111467 0.777015 0.830114
O O3 0.211915 0.788086 0.000000
O O4 0.161153 0.677217 0.968471
O O5 0.832725 0.667276 0.750000
O O6 0.937935 0.680821 0.565541
O O7 0.853477 0.773041 0.568551
O O8 0.478543 0.263395 0.866066
O O9 0.437345 0.437345 0.500000
O O10 0.349383 0.508722 0.648266
O O11 0.899804 0.856468 0.373959
#
# Coordination Sequence:
#
# PCOD9551323 Si02
#       6
#    16  16   8   8  16   8
#     4  12  20  36  61  97 124 152 197 270 346 389
#     4  11  22  37  62  94 129 163 200 263 325 402
#     4  10  24  40  58  93 127 164 212 242 334 396
#     4  11  28  46  58  82 122 177 240 264 296 373
#     4  11  24  40  62  88 123 165 212 271 320 387
#     4  10  20  36  62  93 120 158 209 268 346 382
#
# _framework density 18.575315
#
# number of rings (size 3 to 8) (size 9 to 14) (size 15 to 20)
#    0.000    1.000    5.556    2.667    9.333    0.000 
#    0.000    0.000    0.000    0.000    0.000    9.333 
#    0.000    0.000    0.000    0.000    0.000    0.000 
#
# Total GULP energy -200891.266528 kJ/mol
# GULP energy per Si atom -5580.312959 kJ/mol
# Density = 1.853304 g / cm^3
# Si number density = 18.575315 Si / 1000 Ang^3
#
#
#
# Elastic Constant Matrix: (Units=GPa)
#
#
# Indices 1 2 3 4 5 6 
#
# 1 64.0363 55.2819 56.6114 0.0000 0.0000 0.0000
# 2 55.2819 64.0321 56.6114 0.0000 0.0000 0.0000
# 3 56.6114 56.6114 152.0051 0.0000 0.0000 0.0000
# 4 0.0000 0.0000 0.0000 17.5100 0.0000 0.0000
# 5 0.0000 0.0000 0.0000 0.0000 17.5088 0.0000
# 6 0.0000 0.0000 0.0000 0.0000 0.0000 12.8221
#
#
#
# Elastic Compliance Matrix: (Units=1/GPa)
#
#
# Indices 1 2 3 4 5 6 
#
# 1 0.063606 -0.050647 -0.004826 0.000000 0.000000 0.000000
# 2 -0.050647 0.063612 -0.004829 0.000000 0.000000 0.000000
# 3 -0.004826 -0.004829 0.010175 0.000000 0.000000 0.000000
# 4 0.000000 0.000000 0.000000 0.057110 0.000000 0.000000
# 5 0.000000 0.000000 0.000000 0.000000 0.057114 0.000000
# 6 0.000000 0.000000 0.000000 0.000000 0.000000 0.077991
#
#
# Mechanical properties :
#
#
# Convention : Reuss Voigt Hill
#
# Bulk Modulus (GPa) = 59.56377 68.56477 64.06427
# Shear Modulus (GPa) = 10.96956 17.00610 13.98783
#
# Velocity S-wave (km/s) = 2.43275 3.02904 2.74712
# Velocity P-wave (km/s) = 6.32667 7.01608 6.68027
#
# Compressibility (1/GPa) = 0.01678873
#
# Stress axis : x y z
#
# Youngs Moduli (GPa) = 15.72185 15.72032 98.28483
#
# Poissons Ratio (x) = 0.79618 0.47435
# Poissons Ratio (y) = 0.79626 0.47458
# Poissons Ratio (z) = 0.07588 0.07591
#
# Static dielectric constant tensor:
#      x y z
#    x 1.691840 0.000000 0.000000 
#    y 0.000000 1.691840 0.000000 
#    z 0.000000 0.000000 1.670220 
# 
# From -- ./inp_files/2281.got.cif
#   From: 2010.05.17/outbox.cif.g08.bks.cpg/sg97_2_cif.got.tgz:2281.got - 2010.06.03 19:55:32.
