data_PCOD9551724
_publ_section_title
;
Structure prediction by ZEFSAII (Michael W. Deem and Ramdas Pophale) SiO2 
 PCOD9551724
Probable space group: I 41 2 2
;
_chemical_formula_sum "Si O2"
_cell_formula_units_Z 96
_cell_length_a 17.010490
_cell_length_b 17.010490
_cell_length_c 16.303748
_cell_angle_alpha 90.000000
_cell_angle_beta 90.000000
_cell_angle_gamma 90.000000
_cell_volume 4717.599861
_symmetry_space_group_name_H-M "I 41 2 2"
_symmetry_group_IT_number 98
_symmetry_cell_setting 'tetragonal'
loop_
_space_group_symop_operation_xyz
x,y,z
-y,1/2+x,1/4+z
-x,-y,z
y,1/2-x,1/4+z
x,1/2-y,1/4-z
-x,1/2+y,1/4-z
y,x,-z
-y,-x,-z
1/2+x,1/2+y,1/2+z
1/2-y,x,3/4+z
1/2-x,1/2-y,1/2+z
1/2+y,-x,3/4+z
1/2+x,-y,3/4-z
1/2-x,y,3/4-z
1/2+y,1/2+x,1/2-z
1/2-y,1/2-x,1/2-z
loop_
_atom_site_type_symbol
_atom_site_label
_atom_site_fract_x
_atom_site_fract_y
_atom_site_fract_z
Si Si1 0.954834 0.081831 0.413328
Si Si2 0.598400 0.024907 0.834253
Si Si3 0.416982 0.872381 0.988324
Si Si4 0.340307 0.149411 0.844827
Si Si5 0.013121 0.250287 0.397655
Si Si6 0.893591 0.236449 0.007500
O O1 0.909691 0.090310 0.500000
O O2 0.903770 0.076533 0.330626
O O3 0.012372 0.156729 0.407916
O O4 0.000000 0.000000 0.415777
O O5 0.554812 0.054812 0.750000
O O6 0.562698 0.065763 0.915040
O O7 0.686650 0.055915 0.821739
O O8 0.611321 0.932741 0.847808
O O9 0.469944 0.796692 0.970977
O O10 0.323562 0.863088 0.976817
O O11 0.250000 0.143201 0.875000
O O12 0.331329 0.168672 0.750000
O O13 0.400664 0.213001 0.883401
O O14 0.952699 0.263495 0.320913
O O15 0.817073 0.182927 0.000000
#
# Coordination Sequence:
#
# PCOD9551724 Si02
#       6
#    16  16  16  16  16  16
#     4  10  26  51  72  88 126 179 235 298 341 401
#     4  11  21  38  64 104 148 189 214 268 355 443
#     4  11  22  37  69 102 133 174 223 280 341 424
#     4  12  26  43  66 102 151 191 232 294 354 431
#     4  11  24  41  67 106 132 176 241 273 352 432
#     4  10  19  36  59  99 146 177 210 263 344 427
#
# _framework density 20.349332
#
# number of rings (size 3 to 8) (size 9 to 14) (size 15 to 20)
#    0.000    1.167    5.000    1.500    4.667    3.667 
#    3.000    3.333    0.000    0.000    0.000    0.000 
#    0.000    0.000    0.000    0.000    0.000    0.000 
#
# Total GULP energy -267608.891988 kJ/mol
# GULP energy per Si atom -5575.185250 kJ/mol
# Density = 2.030302 g / cm^3
# Si number density = 20.349332 Si / 1000 Ang^3
#
#
#
# Elastic Constant Matrix: (Units=GPa)
#
#
# Indices 1 2 3 4 5 6 
#
# 1 146.9194 62.5146 35.9568 0.0000 0.0000 0.0000
# 2 62.5146 146.9186 35.9576 0.0000 0.0000 0.0000
# 3 35.9568 35.9576 118.6815 0.0000 0.0000 0.0000
# 4 0.0000 0.0000 0.0000 12.7808 0.0000 0.0000
# 5 0.0000 0.0000 0.0000 0.0000 12.7787 0.0000
# 6 0.0000 0.0000 0.0000 0.0000 0.0000 14.0188
#
#
#
# Elastic Compliance Matrix: (Units=1/GPa)
#
#
# Indices 1 2 3 4 5 6 
#
# 1 0.008588 -0.003259 -0.001615 0.000000 0.000000 0.000000
# 2 -0.003259 0.008589 -0.001615 0.000000 0.000000 0.000000
# 3 -0.001615 -0.001615 0.009404 0.000000 0.000000 0.000000
# 4 0.000000 0.000000 0.000000 0.078242 0.000000 0.000000
# 5 0.000000 0.000000 0.000000 0.000000 0.078255 0.000000
# 6 0.000000 0.000000 0.000000 0.000000 0.000000 0.071333
#
#
# Mechanical properties :
#
#
# Convention : Reuss Voigt Hill
#
# Bulk Modulus (GPa) = 73.50635 75.70862 74.60748
# Shear Modulus (GPa) = 18.38754 26.45502 22.42128
#
# Velocity S-wave (km/s) = 3.00925 3.60952 3.32297
# Velocity P-wave (km/s) = 6.94800 7.39302 7.17396
#
# Compressibility (1/GPa) = 0.01360427
#
# Stress axis : x y z
#
# Youngs Moduli (GPa) = 116.43582 116.43475 106.33467
#
# Poissons Ratio (x) = 0.37949 0.17168
# Poissons Ratio (y) = 0.37950 0.17169
# Poissons Ratio (z) = 0.18799 0.18800
#
# Static dielectric constant tensor:
#      x y z
#    x 1.751600 0.000000 0.000000 
#    y 0.000000 1.751610 0.000000 
#    z 0.000000 0.000000 1.788580 
# 
# From -- ./inp_files/7704.got.cif
#   From: 2010.05.17/outbox.cif.g08.bks.cpg/sg98_4_cif.got.tgz:7704.got - 2010.06.03 20:00:51.
