data_PCOD9551530
_publ_section_title
;
Structure prediction by ZEFSAII (Michael W. Deem and Ramdas Pophale) SiO2 
 PCOD9551530
Probable space group: I 4 2 2 
;
_chemical_formula_sum "Si O2"
_cell_formula_units_Z 88
_cell_length_a 17.180818
_cell_length_b 17.180818
_cell_length_c 14.516817
_cell_angle_alpha 90.000000
_cell_angle_beta 90.000000
_cell_angle_gamma 90.000000
_cell_volume 4285.081404
_symmetry_space_group_name_H-M "I 4 2 2 "
_symmetry_group_IT_number 97
_symmetry_cell_setting 'tetragonal'
loop_
_space_group_symop_operation_xyz
x,y,z
-y,x,z
-x,-y,z
y,-x,z
x,-y,-z
-x,y,-z
y,x,-z
-y,-x,-z
1/2+x,1/2+y,1/2+z
1/2-y,1/2+x,1/2+z
1/2-x,1/2-y,1/2+z
1/2+y,1/2-x,1/2+z
1/2+x,1/2-y,1/2-z
1/2-x,1/2+y,1/2-z
1/2+y,1/2+x,1/2-z
1/2-y,1/2-x,1/2-z
loop_
_atom_site_type_symbol
_atom_site_label
_atom_site_fract_x
_atom_site_fract_y
_atom_site_fract_z
Si Si1 0.931849 0.206828 0.756487
Si Si2 0.409323 0.014169 0.399822
Si Si3 0.415329 0.295069 0.534958
Si Si4 0.151930 0.315860 0.890732
Si Si5 0.610102 0.711848 0.211710
Si Si6 0.619716 0.119716 0.250000
O O1 0.936139 0.181139 0.861390
O O2 0.872863 0.148083 0.708020
O O3 0.891842 0.290712 0.775148
O O4 0.016304 0.212839 0.709545
O O5 0.397347 0.104772 0.375507
O O6 0.500000 0.000000 0.408939
O O7 0.371054 0.000000 0.500000
O O8 0.387642 0.948578 0.325776
O O9 0.500000 0.272956 0.500000
O O10 0.370622 0.370622 0.500000
O O11 0.363427 0.224043 0.490049
O O12 0.237408 0.347973 0.867182
O O13 0.130998 0.253528 0.810376
#
# Coordination Sequence:
#
# PCOD9551530 Si02
#       6
#    16  16  16  16  16   8
#     4  12  23  43  65  98 122 175 220 271 335 408
#     4  11  24  37  59  95 133 175 216 268 329 413
#     4  12  24  41  65  95 131 174 217 277 341 399
#     4  11  22  42  59  91 135 163 211 270 335 382
#     4  11  24  41  66  91 131 170 219 274 330 401
#     4  12  23  40  66  90 130 175 226 258 340 406
#
# _framework density 20.536365
#
# number of rings (size 3 to 8) (size 9 to 14) (size 15 to 20)
#    0.000    0.545    5.455    3.545    5.091    0.545 
#    0.000    1.818    0.000    0.000    0.000    0.000 
#    0.000    1.455    0.000    0.000    0.000    0.000 
#
# Total GULP energy -245109.633844 kJ/mol
# GULP energy per Si atom -5570.673496 kJ/mol
# Density = 2.048962 g / cm^3
# Si number density = 20.536365 Si / 1000 Ang^3
#
#
#
# Elastic Constant Matrix: (Units=GPa)
#
#
# Indices 1 2 3 4 5 6 
#
# 1 86.9748 40.4768 1.7004 0.0000 0.0000 0.0000
# 2 40.4768 86.9748 1.7004 0.0000 0.0000 0.0000
# 3 1.7004 1.7004 30.8029 0.0000 0.0000 0.0000
# 4 0.0000 0.0000 0.0000 1.4740 0.0000 0.0000
# 5 0.0000 0.0000 0.0000 0.0000 1.4740 0.0000
# 6 0.0000 0.0000 0.0000 0.0000 0.0000 44.3519
#
#
#
# Elastic Compliance Matrix: (Units=1/GPa)
#
#
# Indices 1 2 3 4 5 6 
#
# 1 0.014682 -0.006824 -0.000434 0.000000 0.000000 0.000000
# 2 -0.006824 0.014682 -0.000434 0.000000 0.000000 0.000000
# 3 -0.000434 -0.000434 0.032512 0.000000 0.000000 0.000000
# 4 0.000000 0.000000 0.000000 0.678413 0.000000 0.000000
# 5 0.000000 0.000000 0.000000 0.000000 0.678413 0.000000
# 6 0.000000 0.000000 0.000000 0.000000 0.000000 0.022547
#
#
# Mechanical properties :
#
#
# Convention : Reuss Voigt Hill
#
# Bulk Modulus (GPa) = 21.50876 32.50086 27.00481
# Shear Modulus (GPa) = 3.39644 20.18498 11.79071
#
# Velocity S-wave (km/s) = 1.28742 3.13851 2.39872
# Velocity P-wave (km/s) = 3.56457 5.38461 4.56619
#
# Compressibility (1/GPa) = 0.04649270
#
# Stress axis : x y z
#
# Youngs Moduli (GPa) = 68.11064 68.11064 30.75748
#
# Poissons Ratio (x) = 0.46481 0.01334
# Poissons Ratio (y) = 0.46481 0.01334
# Poissons Ratio (z) = 0.02954 0.02954
#
# Static dielectric constant tensor:
#      x y z
#    x 1.840520 0.000000 0.000000 
#    y 0.000000 1.840520 0.000000 
#    z 0.000000 0.000000 2.836270 
# 
# From -- ./inp_files/4842.got.cif
#   From: 2010.05.17/outbox.cif.g08.bks.cpg/sg97_3_cif.got.tgz:4842.got - 2010.06.03 19:55:32.
