data_PCOD9551446
_publ_section_title
;
Structure prediction by ZEFSAII (Michael W. Deem and Ramdas Pophale) SiO2 
 PCOD9551446
Probable space group: I 4 2 2 
;
_chemical_formula_sum "Si O2"
_cell_formula_units_Z 112
_cell_length_a 31.310341
_cell_length_b 31.310341
_cell_length_c 5.455012
_cell_angle_alpha 90.000000
_cell_angle_beta 90.000000
_cell_angle_gamma 90.000000
_cell_volume 5347.752573
_symmetry_space_group_name_H-M "I 4 2 2 "
_symmetry_group_IT_number 97
_symmetry_cell_setting 'tetragonal'
loop_
_space_group_symop_operation_xyz
x,y,z
-y,x,z
-x,-y,z
y,-x,z
x,-y,-z
-x,y,-z
y,x,-z
-y,-x,-z
1/2+x,1/2+y,1/2+z
1/2-y,1/2+x,1/2+z
1/2-x,1/2-y,1/2+z
1/2+y,1/2-x,1/2+z
1/2+x,1/2-y,1/2-z
1/2-x,1/2+y,1/2-z
1/2+y,1/2+x,1/2-z
1/2-y,1/2-x,1/2-z
loop_
_atom_site_type_symbol
_atom_site_label
_atom_site_fract_x
_atom_site_fract_y
_atom_site_fract_z
Si Si1 0.948605 0.591303 0.493987
Si Si2 0.606120 0.748102 0.665973
Si Si3 0.692682 0.050160 0.486535
Si Si4 0.121181 0.949404 0.487442
Si Si5 0.314114 0.754591 0.081514
Si Si6 0.659402 0.588599 0.515716
Si Si7 0.191364 0.628558 0.293209
O O1 0.931678 0.568323 0.250000
O O2 0.941400 0.642165 0.439821
O O3 0.000000 0.585396 0.500000
O O4 0.927157 0.572844 0.750000
O O5 0.568039 0.770457 0.809549
O O6 0.645489 0.728172 0.814509
O O7 0.592791 0.710542 0.487261
O O8 0.630470 0.789759 0.560527
O O9 0.699187 0.079537 0.724536
O O10 0.697556 0.000000 0.500000
O O11 0.076849 0.923152 0.500000
O O12 0.146041 0.934228 0.731957
O O13 0.115163 0.000000 0.500000
O O14 0.144987 0.936329 0.233325
O O15 0.286508 0.786508 0.250000
O O16 0.279530 0.720471 0.000000
O O17 0.338843 0.781802 0.874079
O O18 0.633248 0.633248 0.500000
O O19 0.143363 0.643363 0.250000
#
# Coordination Sequence:
#
# PCOD9551446 Si02
#       7
#    16  16  16  16  16  16  16
#     4  11  25  45  73 104 137 176 216 273 344 412
#     4  11  26  42  65  94 126 181 227 280 338 406
#     4  10  26  45  65  97 130 172 226 278 334 406
#     4  10  22  44  70 104 139 181 229 286 351 418
#     4  11  24  38  61  94 131 168 219 281 340 401
#     4  10  24  42  67  97 140 183 231 282 344 414
#     4  11  23  42  65  92 129 171 219 275 340 401
#
# _framework density 20.943377999999999
#
# number of rings (size 3 to 8) (size 9 to 14) (size 15 to 20)
#    0.000    1.429    1.429    1.714   10.000    2.714 
#    2.571    0.000    0.000    2.571    0.000    0.000 
#    0.000    0.000    0.000    0.000    0.000    0.000 
#
# Total GULP energy -312003.762757 kJ/mol
# GULP energy per Si atom -5571.495764 kJ/mol
# Density = 2.089571 g / cm^3
# Si number density = 20.943378 Si / 1000 Ang^3
#
#
#
# Elastic Constant Matrix: (Units=GPa)
#
#
# Indices 1 2 3 4 5 6 
#
# 1 118.7574 71.2646 32.7720 0.0000 0.0000 0.0000
# 2 71.2646 118.7607 32.7759 0.0000 0.0000 0.0000
# 3 32.7720 32.7759 78.0249 0.0000 0.0000 0.0000
# 4 0.0000 0.0000 0.0000 20.7942 0.0000 0.0000
# 5 0.0000 0.0000 0.0000 0.0000 20.8068 0.0000
# 6 0.0000 0.0000 0.0000 0.0000 0.0000 24.0052
#
#
#
# Elastic Compliance Matrix: (Units=1/GPa)
#
#
# Indices 1 2 3 4 5 6 
#
# 1 0.013605 -0.007450 -0.002585 0.000000 0.000000 0.000000
# 2 -0.007450 0.013605 -0.002586 0.000000 0.000000 0.000000
# 3 -0.002585 -0.002586 0.014988 0.000000 0.000000 0.000000
# 4 0.000000 0.000000 0.000000 0.048090 0.000000 0.000000
# 5 0.000000 0.000000 0.000000 0.000000 0.048061 0.000000
# 6 0.000000 0.000000 0.000000 0.000000 0.000000 0.041658
#
#
# Mechanical properties :
#
#
# Convention : Reuss Voigt Hill
#
# Bulk Modulus (GPa) = 58.97501 65.46310 62.21905
# Shear Modulus (GPa) = 23.70796 25.03662 24.37229
#
# Velocity S-wave (km/s) = 3.36817 3.46127 3.41504
# Velocity P-wave (km/s) = 6.58381 6.87742 6.73221
#
# Compressibility (1/GPa) = 0.01695633
#
# Stress axis : x y z
#
# Youngs Moduli (GPa) = 73.50434 73.50432 66.71968
#
# Poissons Ratio (x) = 0.54764 0.17244
# Poissons Ratio (y) = 0.54764 0.17251
# Poissons Ratio (z) = 0.18997 0.19005
#
# Static dielectric constant tensor:
#      x y z
#    x 1.768690 0.000000 0.000000 
#    y 0.000000 1.768640 0.000000 
#    z 0.000000 0.000000 1.840970 
# 
# From -- ./inp_files/1158.got.cif
#   From: 2010.05.17/outbox.cif.g08.bks.cpg/sg97_1_cif.got.tgz:1158.got - 2010.06.03 19:55:32.
