data_PCOD9551209
_publ_section_title
;
Structure prediction by ZEFSAII (Michael W. Deem and Ramdas Pophale) SiO2 
 PCOD9551209
Probable space group: I 4 2 2 
;
_chemical_formula_sum "Si O2"
_cell_formula_units_Z 96
_cell_length_a 17.733484
_cell_length_b 17.733484
_cell_length_c 17.095158
_cell_angle_alpha 90.000000
_cell_angle_beta 90.000000
_cell_angle_gamma 90.000000
_cell_volume 5376.024682
_symmetry_space_group_name_H-M "I 4 2 2 "
_symmetry_group_IT_number 97
_symmetry_cell_setting 'tetragonal'
loop_
_space_group_symop_operation_xyz
x,y,z
-y,x,z
-x,-y,z
y,-x,z
x,-y,-z
-x,y,-z
y,x,-z
-y,-x,-z
1/2+x,1/2+y,1/2+z
1/2-y,1/2+x,1/2+z
1/2-x,1/2-y,1/2+z
1/2+y,1/2-x,1/2+z
1/2+x,1/2-y,1/2-z
1/2-x,1/2+y,1/2-z
1/2+y,1/2+x,1/2-z
1/2-y,1/2-x,1/2-z
loop_
_atom_site_type_symbol
_atom_site_label
_atom_site_fract_x
_atom_site_fract_y
_atom_site_fract_z
Si Si1 0.300759 0.133047 0.325784
Si Si2 0.730457 0.086763 0.519171
Si Si3 0.612249 0.290390 0.295331
Si Si4 0.449097 0.610604 0.904860
Si Si5 0.182608 0.267828 0.360730
Si Si6 0.823633 0.947744 0.240840
O O1 0.350334 0.149667 0.250000
O O2 0.327291 0.112236 0.412515
O O3 0.248328 0.206192 0.344044
O O4 0.251031 0.065073 0.291983
O O5 0.813575 0.085302 0.559666
O O6 0.732419 0.140884 0.443897
O O7 0.714719 0.000000 0.500000
O O8 0.652706 0.225224 0.345875
O O9 0.623677 0.257994 0.206746
O O10 0.658259 0.369456 0.303290
O O11 0.524734 0.312142 0.306121
O O12 0.402329 0.536344 0.926525
O O13 0.450574 0.615270 0.810391
#
# Coordination Sequence:
#
# PCOD9551209 Si02
#       6
#    16  16  16  16  16  16
#     4  10  19  34  54  78 113 157 202 236 279 349
#     4  11  24  32  55  84 118 158 200 240 298 356
#     4  10  19  32  54  75 116 155 205 240 295 343
#     4  10  20  30  42  74 130 173 184 207 273 370
#     4  10  19  36  49  75 115 164 201 251 275 346
#     4  10  17  30  52  79 112 160 197 234 277 357
#
# _framework density 17.857061000000002
#
# number of rings (size 3 to 8) (size 9 to 14) (size 15 to 20)
#    0.000    1.833    5.000    2.500    7.000    0.333 
#    0.000    0.833    0.000    1.000    0.000   10.500 
#    0.000    0.000    1.000    0.000    0.000    0.000 
#
# Total GULP energy -267206.712101 kJ/mol
# GULP energy per Si atom -5566.806502 kJ/mol
# Density = 1.781642 g / cm^3
# Si number density = 17.857061 Si / 1000 Ang^3
#
#
#
# Elastic Constant Matrix: (Units=GPa)
#
#
# Indices 1 2 3 4 5 6 
#
# 1 65.7591 38.9721 33.9820 0.0000 0.0000 0.0000
# 2 38.9721 65.7602 33.9838 0.0000 0.0000 0.0000
# 3 33.9820 33.9838 76.5710 0.0000 0.0000 0.0000
# 4 0.0000 0.0000 0.0000 25.4691 0.0000 0.0000
# 5 0.0000 0.0000 0.0000 0.0000 25.4689 0.0000
# 6 0.0000 0.0000 0.0000 0.0000 0.0000 20.0674
#
#
#
# Elastic Compliance Matrix: (Units=1/GPa)
#
#
# Indices 1 2 3 4 5 6 
#
# 1 0.025371 -0.011960 -0.005951 0.000000 0.000000 0.000000
# 2 -0.011960 0.025371 -0.005952 0.000000 0.000000 0.000000
# 3 -0.005951 -0.005952 0.018343 0.000000 0.000000 0.000000
# 4 0.000000 0.000000 0.000000 0.039263 0.000000 0.000000
# 5 0.000000 0.000000 0.000000 0.000000 0.039264 0.000000
# 6 0.000000 0.000000 0.000000 0.000000 0.000000 0.049832
#
#
# Mechanical properties :
#
#
# Convention : Reuss Voigt Hill
#
# Bulk Modulus (GPa) = 46.82336 46.88513 46.85425
# Shear Modulus (GPa) = 19.81853 20.94456 20.38155
#
# Velocity S-wave (km/s) = 3.33504 3.42848 3.38208
# Velocity P-wave (km/s) = 6.41156 6.47962 6.44568
#
# Compressibility (1/GPa) = 0.02135686
#
# Stress axis : x y z
#
# Youngs Moduli (GPa) = 39.41571 39.41537 54.51779
#
# Poissons Ratio (x) = 0.47141 0.32445
# Poissons Ratio (y) = 0.47142 0.32450
# Poissons Ratio (z) = 0.23457 0.23461
#
# Static dielectric constant tensor:
#      x y z
#    x 1.666710 0.000000 0.000000 
#    y 0.000000 1.666720 0.000000 
#    z 0.000000 0.000000 1.713800 
# 
# From -- ./inp_files/5780.got.cif
#   From: 2010.05.17/outbox.cif.g08.bks.cpg/sg97_3_cif.got.tgz:5780.got - 2010.06.03 19:55:32.
