data_PCOD9551492
_publ_section_title
;
Structure prediction by ZEFSAII (Michael W. Deem and Ramdas Pophale) SiO2 
 PCOD9551492
Probable space group: I 4 2 2 
;
_chemical_formula_sum "Si O2"
_cell_formula_units_Z 44
_cell_length_a 16.005773
_cell_length_b 16.005773
_cell_length_c 8.546973
_cell_angle_alpha 90.000000
_cell_angle_beta 90.000000
_cell_angle_gamma 90.000000
_cell_volume 2189.604306
_symmetry_space_group_name_H-M "I 4 2 2 "
_symmetry_group_IT_number 97
_symmetry_cell_setting 'tetragonal'
loop_
_space_group_symop_operation_xyz
x,y,z
-y,x,z
-x,-y,z
y,-x,z
x,-y,-z
-x,y,-z
y,x,-z
-y,-x,-z
1/2+x,1/2+y,1/2+z
1/2-y,1/2+x,1/2+z
1/2-x,1/2-y,1/2+z
1/2+y,1/2-x,1/2+z
1/2+x,1/2-y,1/2-z
1/2-x,1/2+y,1/2-z
1/2+y,1/2+x,1/2-z
1/2-y,1/2-x,1/2-z
loop_
_atom_site_type_symbol
_atom_site_label
_atom_site_fract_x
_atom_site_fract_y
_atom_site_fract_z
Si Si1 0.352837 0.000000 0.500000
Si Si2 0.396517 0.594147 0.317613
Si Si3 0.657345 0.245454 0.886988
Si Si4 0.500000 0.000000 0.750000
O O1 0.294250 0.080617 0.481090
O O2 0.416426 0.002301 0.645869
O O3 0.386339 0.494310 0.294525
O O4 0.382203 0.617798 0.500000
O O5 0.332905 0.635542 0.197786
O O6 0.682746 0.182746 0.750000
O O7 0.734300 0.265701 0.000000
#
# Coordination Sequence:
#
# PCOD9551492 Si02
#       4
#     8  16  16   4
#     4  11  24  48  70  93 132 178 232 267 328 404
#     4   9  19  40  65  91 128 176 216 252 317 402
#     4  12  25  41  62 100 132 166 211 280 338 380
#     4  10  24  50  72  90 120 194 232 266 312 414
#
# _framework density 20.094956
#
# number of rings (size 3 to 8) (size 9 to 14) (size 15 to 20)
#    0.000    1.455    1.818    4.364    2.545    0.000 
#   13.091    1.818    0.000    0.000    0.000    0.000 
#    0.000    0.000    0.000    0.000    0.000    0.000 
#
# Total GULP energy -122890.096479 kJ/mol
# GULP energy per Si atom -5585.913476 kJ/mol
# Density = 2.004922 g / cm^3
# Si number density = 20.094956 Si / 1000 Ang^3
#
#
#
# Elastic Constant Matrix: (Units=GPa)
#
#
# Indices 1 2 3 4 5 6 
#
# 1 71.6918 55.8257 37.7589 0.0000 0.0000 0.0000
# 2 55.8257 71.6953 37.7594 0.0000 0.0000 0.0000
# 3 37.7589 37.7594 74.3256 0.0000 0.0000 0.0000
# 4 0.0000 0.0000 0.0000 19.4770 0.0000 0.0000
# 5 0.0000 0.0000 0.0000 0.0000 19.4763 0.0000
# 6 0.0000 0.0000 0.0000 0.0000 0.0000 37.1585
#
#
#
# Elastic Compliance Matrix: (Units=1/GPa)
#
#
# Indices 1 2 3 4 5 6 
#
# 1 0.037120 -0.025902 -0.005699 0.000000 0.000000 0.000000
# 2 -0.025902 0.037117 -0.005698 0.000000 0.000000 0.000000
# 3 -0.005699 -0.005698 0.019244 0.000000 0.000000 0.000000
# 4 0.000000 0.000000 0.000000 0.051343 0.000000 0.000000
# 5 0.000000 0.000000 0.000000 0.000000 0.051344 0.000000
# 6 0.000000 0.000000 0.000000 0.000000 0.000000 0.026912
#
#
# Mechanical properties :
#
#
# Convention : Reuss Voigt Hill
#
# Bulk Modulus (GPa) = 52.95482 53.37788 53.16635
# Shear Modulus (GPa) = 16.44891 20.98028 18.71460
#
# Velocity S-wave (km/s) = 2.86415 3.23469 3.05504
# Velocity P-wave (km/s) = 6.11125 6.36957 6.24175
#
# Compressibility (1/GPa) = 0.01888402
#
# Stress axis : x y z
#
# Youngs Moduli (GPa) = 26.93995 26.94150 51.96423
#
# Poissons Ratio (x) = 0.69784 0.29612
# Poissons Ratio (y) = 0.69780 0.29609
# Poissons Ratio (z) = 0.15352 0.15351
#
# Static dielectric constant tensor:
#      x y z
#    x 1.673960 0.000000 0.000000 
#    y 0.000000 1.673960 0.000000 
#    z 0.000000 0.000000 1.736260 
# 
# From -- ./inp_files/1694.got.cif
#   From: 2010.05.17/outbox.cif.g08.bks.cpg/sg97_1_cif.got.tgz:1694.got - 2010.06.03 19:55:32.
