data_PCOD9551585
_publ_section_title
;
Structure prediction by ZEFSAII (Michael W. Deem and Ramdas Pophale) SiO2 
 PCOD9551585
Probable space group: I 4 2 2 
;
_chemical_formula_sum "Si O2"
_cell_formula_units_Z 84
_cell_length_a 12.133376
_cell_length_b 12.133376
_cell_length_c 27.877940
_cell_angle_alpha 90.000000
_cell_angle_beta 90.000000
_cell_angle_gamma 90.000000
_cell_volume 4104.157240
_symmetry_space_group_name_H-M "I 4 2 2 "
_symmetry_group_IT_number 97
_symmetry_cell_setting 'tetragonal'
loop_
_space_group_symop_operation_xyz
x,y,z
-y,x,z
-x,-y,z
y,-x,z
x,-y,-z
-x,y,-z
y,x,-z
-y,-x,-z
1/2+x,1/2+y,1/2+z
1/2-y,1/2+x,1/2+z
1/2-x,1/2-y,1/2+z
1/2+y,1/2-x,1/2+z
1/2+x,1/2-y,1/2-z
1/2-x,1/2+y,1/2-z
1/2+y,1/2+x,1/2-z
1/2-y,1/2-x,1/2-z
loop_
_atom_site_type_symbol
_atom_site_label
_atom_site_fract_x
_atom_site_fract_y
_atom_site_fract_z
Si Si1 0.707367 0.349230 0.945005
Si Si2 0.466311 0.125928 0.550981
Si Si3 0.339569 0.149739 0.127251
Si Si4 0.000000 0.000000 0.429537
Si Si5 0.569640 0.330510 0.705065
Si Si6 0.181337 0.037883 0.317509
O O1 0.836383 0.374054 0.942307
O O2 0.691357 0.245260 0.910276
O O3 0.627356 0.451435 0.932823
O O4 0.680683 0.319318 0.000000
O O5 0.500000 0.181303 0.500000
O O6 0.538038 0.163072 0.596370
O O7 0.500000 0.000000 0.547082
O O8 0.259501 0.124580 0.171581
O O9 0.445431 0.207145 0.152698
O O10 0.637959 0.442477 0.695814
O O11 0.562623 0.298564 0.761303
O O12 0.080974 0.124957 0.327475
#
# Coordination Sequence:
#
# PCOD9551585 Si02
#       6
#    16  16  16   4  16  16
#     4  12  25  43  65 101 134 177 235 300 351 420
#     4  11  25  44  61  88 139 186 219 274 356 419
#     4  12  23  38  69  96 134 177 232 276 350 426
#     4  12  29  44  72 100 128 176 236 304 356 420
#     4   9  19  41  66  93 130 178 230 280 342 418
#     4   9  21  39  64  99 137 174 224 290 350 411
#
# _framework density 20.467051999999999
#
# number of rings (size 3 to 8) (size 9 to 14) (size 15 to 20)
#    0.000    1.333    1.905    4.857    8.000    0.000 
#    0.000    0.000    0.000    1.143    0.000    0.000 
#    0.000    0.000    0.000    0.000    0.000    0.000 
#
# Total GULP energy -233859.506375 kJ/mol
# GULP energy per Si atom -5568.083485 kJ/mol
# Density = 2.042047 g / cm^3
# Si number density = 20.467052 Si / 1000 Ang^3
#
#
#
# Elastic Constant Matrix: (Units=GPa)
#
#
# Indices 1 2 3 4 5 6 
#
# 1 103.6952 24.6360 32.5748 0.0000 0.0000 0.0000
# 2 24.6360 103.6956 32.5751 0.0000 0.0000 0.0000
# 3 32.5748 32.5751 107.7910 0.0000 0.0000 0.0000
# 4 0.0000 0.0000 0.0000 24.0630 0.0000 0.0000
# 5 0.0000 0.0000 0.0000 0.0000 24.0638 0.0000
# 6 0.0000 0.0000 0.0000 0.0000 0.0000 23.5105
#
#
#
# Elastic Compliance Matrix: (Units=1/GPa)
#
#
# Indices 1 2 3 4 5 6 
#
# 1 0.010927 -0.001722 -0.002782 0.000000 0.000000 0.000000
# 2 -0.001722 0.010927 -0.002782 0.000000 0.000000 0.000000
# 3 -0.002782 -0.002782 0.010958 0.000000 0.000000 0.000000
# 4 0.000000 0.000000 0.000000 0.041558 0.000000 0.000000
# 5 0.000000 0.000000 0.000000 0.000000 0.041556 0.000000
# 6 0.000000 0.000000 0.000000 0.000000 0.000000 0.042534
#
#
# Mechanical properties :
#
#
# Convention : Reuss Voigt Hill
#
# Bulk Modulus (GPa) = 54.82196 54.97263 54.89730
# Shear Modulus (GPa) = 27.91570 29.35386 28.63478
#
# Velocity S-wave (km/s) = 3.69715 3.79119 3.74447
# Velocity P-wave (km/s) = 6.71334 6.78834 6.75094
#
# Compressibility (1/GPa) = 0.01824086
#
# Stress axis : x y z
#
# Youngs Moduli (GPa) = 91.51975 91.51997 91.25372
#
# Poissons Ratio (x) = 0.15761 0.25383
# Poissons Ratio (y) = 0.15761 0.25384
# Poissons Ratio (z) = 0.25457 0.25458
#
# Static dielectric constant tensor:
#      x y z
#    x 1.720690 0.000000 0.000000 
#    y 0.000000 1.720680 0.000000 
#    z 0.000000 0.000000 1.930890 
# 
# From -- ./inp_files/8079.got.cif
#   From: 2010.05.17/outbox.cif.g08.bks.cpg/sg97_5_cif.got.tgz:8079.got - 2010.06.03 19:55:32.
