data_PCOD9551589
_publ_section_title
;
Structure prediction by ZEFSAII (Michael W. Deem and Ramdas Pophale) SiO2 
 PCOD9551589
Probable space group: I 4 2 2 
;
_chemical_formula_sum "Si O2"
_cell_formula_units_Z 72
_cell_length_a 11.280003
_cell_length_b 11.280003
_cell_length_c 25.873354
_cell_angle_alpha 90.000000
_cell_angle_beta 90.000000
_cell_angle_gamma 90.000000
_cell_volume 3292.085917
_symmetry_space_group_name_H-M "I 4 2 2 "
_symmetry_group_IT_number 97
_symmetry_cell_setting 'tetragonal'
loop_
_space_group_symop_operation_xyz
x,y,z
-y,x,z
-x,-y,z
y,-x,z
x,-y,-z
-x,y,-z
y,x,-z
-y,-x,-z
1/2+x,1/2+y,1/2+z
1/2-y,1/2+x,1/2+z
1/2-x,1/2-y,1/2+z
1/2+y,1/2-x,1/2+z
1/2+x,1/2-y,1/2-z
1/2-x,1/2+y,1/2-z
1/2+y,1/2+x,1/2-z
1/2-y,1/2-x,1/2-z
loop_
_atom_site_type_symbol
_atom_site_label
_atom_site_fract_x
_atom_site_fract_y
_atom_site_fract_z
Si Si1 0.500000 0.000000 0.678548
Si Si2 0.348355 0.369890 0.665856
Si Si3 0.897687 0.672423 0.097150
Si Si4 0.849972 0.650029 0.750000
Si Si5 0.978650 0.812248 0.438334
Si Si6 0.500000 0.700752 0.500000
O O1 0.531249 0.888600 0.643507
O O2 0.382748 0.959209 0.710899
O O3 0.488856 0.344798 0.663339
O O4 0.315670 0.280387 0.619216
O O5 0.269364 0.345577 0.716265
O O6 0.816007 0.565180 0.077089
O O7 0.980318 0.721122 0.051174
O O8 0.099203 0.873855 0.420061
O O9 0.000000 0.813096 0.500000
O O10 0.385996 0.614005 0.500000
#
# Coordination Sequence:
#
# PCOD9551589 Si02
#       6
#     8  16  16   8  16   8
#     4  11  28  47  72 110 148 193 248 317 380 454
#     4  11  25  47  75 104 143 195 248 307 379 449
#     4  12  26  43  76 107 153 197 248 309 381 462
#     4  11  26  50  74 101 146 190 250 315 380 438
#     4   9  22  43  68 100 145 194 249 306 367 449
#     4  11  28  47  68 106 154 197 245 304 370 460
#
# _framework density 21.870632000000001
#
# number of rings (size 3 to 8) (size 9 to 14) (size 15 to 20)
#    0.000    1.222    2.222    2.000   12.444    1.778 
#    0.000    0.000    0.000    0.000    0.000    0.000 
#    0.000    0.000    0.000    0.000    0.000    0.000 
#
# Total GULP energy -200433.559893 kJ/mol
# GULP energy per Si atom -5567.598886 kJ/mol
# Density = 2.182085 g / cm^3
# Si number density = 21.870632 Si / 1000 Ang^3
#
#
#
# Elastic Constant Matrix: (Units=GPa)
#
#
# Indices 1 2 3 4 5 6 
#
# 1 90.5573 27.7170 43.4366 0.0000 0.0000 0.0000
# 2 27.7170 90.5567 43.4368 0.0000 0.0000 0.0000
# 3 43.4366 43.4368 101.7420 0.0000 0.0000 0.0000
# 4 0.0000 0.0000 0.0000 22.6774 0.0000 0.0000
# 5 0.0000 0.0000 0.0000 0.0000 22.6789 0.0000
# 6 0.0000 0.0000 0.0000 0.0000 0.0000 22.7472
#
#
#
# Elastic Compliance Matrix: (Units=1/GPa)
#
#
# Indices 1 2 3 4 5 6 
#
# 1 0.014115 -0.001798 -0.005259 0.000000 0.000000 0.000000
# 2 -0.001798 0.014116 -0.005259 0.000000 0.000000 0.000000
# 3 -0.005259 -0.005259 0.014319 0.000000 0.000000 0.000000
# 4 0.000000 0.000000 0.000000 0.044097 0.000000 0.000000
# 5 0.000000 0.000000 0.000000 0.000000 0.044094 0.000000
# 6 0.000000 0.000000 0.000000 0.000000 0.000000 0.043961
#
#
# Mechanical properties :
#
#
# Convention : Reuss Voigt Hill
#
# Bulk Modulus (GPa) = 55.80616 56.89296 56.34956
# Shear Modulus (GPa) = 24.35392 24.83842 24.59617
#
# Velocity S-wave (km/s) = 3.34060 3.37367 3.35717
# Velocity P-wave (km/s) = 6.36014 6.42226 6.39127
#
# Compressibility (1/GPa) = 0.01791917
#
# Stress axis : x y z
#
# Youngs Moduli (GPa) = 70.84463 70.84382 69.83727
#
# Poissons Ratio (x) = 0.12737 0.36725
# Poissons Ratio (y) = 0.12737 0.36726
# Poissons Ratio (z) = 0.37255 0.37255
#
# Static dielectric constant tensor:
#      x y z
#    x 1.961820 0.000000 0.000000 
#    y 0.000000 1.961820 0.000000 
#    z 0.000000 0.000000 1.891750 
# 
# From -- ./inp_files/7614.got.cif
#   From: 2010.05.17/outbox.cif.g08.bks.cpg/sg97_4_cif.got.tgz:7614.got - 2010.06.03 19:55:32.
