data_PCOD9551549
_publ_section_title
;
Structure prediction by ZEFSAII (Michael W. Deem and Ramdas Pophale) SiO2 
 PCOD9551549
Probable space group: I 4 2 2 
;
_chemical_formula_sum "Si O2"
_cell_formula_units_Z 56
_cell_length_a 17.200141
_cell_length_b 17.200141
_cell_length_c 7.849159
_cell_angle_alpha 90.000000
_cell_angle_beta 90.000000
_cell_angle_gamma 90.000000
_cell_volume 2322.133270
_symmetry_space_group_name_H-M "I 4 2 2 "
_symmetry_group_IT_number 97
_symmetry_cell_setting 'tetragonal'
loop_
_space_group_symop_operation_xyz
x,y,z
-y,x,z
-x,-y,z
y,-x,z
x,-y,-z
-x,y,-z
y,x,-z
-y,-x,-z
1/2+x,1/2+y,1/2+z
1/2-y,1/2+x,1/2+z
1/2-x,1/2-y,1/2+z
1/2+y,1/2-x,1/2+z
1/2+x,1/2-y,1/2-z
1/2-x,1/2+y,1/2-z
1/2+y,1/2+x,1/2-z
1/2-y,1/2-x,1/2-z
loop_
_atom_site_type_symbol
_atom_site_label
_atom_site_fract_x
_atom_site_fract_y
_atom_site_fract_z
Si Si1 0.710679 0.168600 0.442103
Si Si2 0.483129 0.376842 0.296445
Si Si3 0.197042 0.444130 0.657798
Si Si4 0.185098 0.500000 0.000000
O O1 0.783582 0.216419 0.500000
O O2 0.688603 0.188603 0.250000
O O3 0.640989 0.189363 0.574022
O O4 0.727474 0.077879 0.445248
O O5 0.564841 0.414736 0.233142
O O6 0.500000 0.382651 0.500000
O O7 0.458253 0.286777 0.280814
O O8 0.180112 0.500000 0.500000
O O9 0.146605 0.470781 0.822482
#
# Coordination Sequence:
#
# PCOD9551549 Si02
#       4
#    16  16  16   8
#     4  12  27  50  79 113 153 203 260 320 389 468
#     4   8  16  31  56  97 141 183 228 285 361 446
#     4  11  23  41  73 103 143 194 240 313 372 453
#     4  12  26  48  73 109 148 188 256 318 388 453
#
# _framework density 24.115756000000001
#
# number of rings (size 3 to 8) (size 9 to 14) (size 15 to 20)
#    0.000    1.429    2.857    3.429    8.000    2.286 
#    0.000    0.714    0.000    2.143    0.000    0.000 
#    0.000    0.000    0.000    0.000    0.000    0.000 
#
# Total GULP energy -156126.215349 kJ/mol
# GULP energy per Si atom -5575.936262 kJ/mol
# Density = 2.406087 g / cm^3
# Si number density = 24.115756 Si / 1000 Ang^3
#
#
#
# Elastic Constant Matrix: (Units=GPa)
#
#
# Indices 1 2 3 4 5 6 
#
# 1 138.2304 54.3672 45.1159 0.0000 0.0000 0.0000
# 2 54.3672 138.2385 45.1229 0.0000 0.0000 0.0000
# 3 45.1159 45.1229 172.0978 0.0000 0.0000 0.0000
# 4 0.0000 0.0000 0.0000 23.8006 0.0000 0.0000
# 5 0.0000 0.0000 0.0000 0.0000 23.7902 0.0000
# 6 0.0000 0.0000 0.0000 0.0000 0.0000 6.7653
#
#
#
# Elastic Compliance Matrix: (Units=1/GPa)
#
#
# Indices 1 2 3 4 5 6 
#
# 1 0.008922 -0.003002 -0.001552 0.000000 0.000000 0.000000
# 2 -0.003002 0.008921 -0.001552 0.000000 0.000000 0.000000
# 3 -0.001552 -0.001552 0.006624 0.000000 0.000000 0.000000
# 4 0.000000 0.000000 0.000000 0.042016 0.000000 0.000000
# 5 0.000000 0.000000 0.000000 0.000000 0.042034 0.000000
# 6 0.000000 0.000000 0.000000 0.000000 0.000000 0.147814
#
#
# Mechanical properties :
#
#
# Convention : Reuss Voigt Hill
#
# Bulk Modulus (GPa) = 81.59754 81.97543 81.78649
# Shear Modulus (GPa) = 18.34002 31.13525 24.73763
#
# Velocity S-wave (km/s) = 2.76071 3.59705 3.20627
# Velocity P-wave (km/s) = 6.63862 7.16366 6.90613
#
# Compressibility (1/GPa) = 0.01225527
#
# Stress axis : x y z
#
# Youngs Moduli (GPa) = 112.08836 112.09232 150.95818
#
# Poissons Ratio (x) = 0.33653 0.23423
# Poissons Ratio (y) = 0.33652 0.23429
# Poissons Ratio (z) = 0.17392 0.17397
#
# Static dielectric constant tensor:
#      x y z
#    x 2.032830 0.000000 0.000000 
#    y 0.000000 2.032880 0.000000 
#    z 0.000000 0.000000 1.978830 
# 
# From -- ./inp_files/1869.got.cif
#   From: 2010.05.17/outbox.cif.g08.bks.cpg/sg97_1_cif.got.tgz:1869.got - 2010.06.03 19:55:32.
