data_PCOD9551539
_publ_section_title
;
Structure prediction by ZEFSAII (Michael W. Deem and Ramdas Pophale) SiO2 
 PCOD9551539
Probable space group: I 4 2 2 
;
_chemical_formula_sum "Si O2"
_cell_formula_units_Z 64
_cell_length_a 14.196215
_cell_length_b 14.196215
_cell_length_c 15.047350
_cell_angle_alpha 90.000000
_cell_angle_beta 90.000000
_cell_angle_gamma 90.000000
_cell_volume 3032.530370
_symmetry_space_group_name_H-M "I 4 2 2 "
_symmetry_group_IT_number 97
_symmetry_cell_setting 'tetragonal'
loop_
_space_group_symop_operation_xyz
x,y,z
-y,x,z
-x,-y,z
y,-x,z
x,-y,-z
-x,y,-z
y,x,-z
-y,-x,-z
1/2+x,1/2+y,1/2+z
1/2-y,1/2+x,1/2+z
1/2-x,1/2-y,1/2+z
1/2+y,1/2-x,1/2+z
1/2+x,1/2-y,1/2-z
1/2-x,1/2+y,1/2-z
1/2+y,1/2+x,1/2-z
1/2-y,1/2-x,1/2-z
loop_
_atom_site_type_symbol
_atom_site_label
_atom_site_fract_x
_atom_site_fract_y
_atom_site_fract_z
Si Si1 0.187356 0.379903 0.155720
Si Si2 0.114993 0.896413 0.394134
Si Si3 0.407203 0.065014 0.354673
Si Si4 0.265316 0.894161 0.995037
O O1 0.141308 0.358693 0.250000
O O2 0.296307 0.348723 0.152617
O O3 0.176264 0.489972 0.132337
O O4 0.128709 0.325406 0.082239
O O5 0.122558 0.877443 0.500000
O O6 0.007425 0.874854 0.373001
O O7 0.411576 0.088425 0.250000
O O8 0.393797 0.158034 0.414327
O O9 0.500000 0.000000 0.376124
O O10 0.183061 0.816940 0.000000
O O11 0.226490 0.000000 0.000000
#
# Coordination Sequence:
#
# PCOD9551539 Si02
#       4
#    16  16  16  16
#     4  12  24  41  68 106 137 178 239 298 369 444
#     4   9  21  42  66  98 139 182 229 297 376 439
#     4  11  22  46  74 102 141 180 231 313 376 435
#     4  12  27  45  69 100 140 194 245 299 371 444
#
# _framework density 21.104488
#
# number of rings (size 3 to 8) (size 9 to 14) (size 15 to 20)
#    0.000    1.000    5.000    2.250   10.500    1.250 
#    4.500    0.000    0.000    0.000    0.000    0.000 
#    0.000    0.000    0.000    0.000    0.000    0.000 
#
# Total GULP energy -178681.343875 kJ/mol
# GULP energy per Si atom -5583.791996 kJ/mol
# Density = 2.105645 g / cm^3
# Si number density = 21.104488 Si / 1000 Ang^3
#
#
#
# Elastic Constant Matrix: (Units=GPa)
#
#
# Indices 1 2 3 4 5 6 
#
# 1 138.9478 57.5305 53.7085 0.0000 0.0000 0.0000
# 2 57.5305 138.9514 53.7081 0.0000 0.0000 0.0000
# 3 53.7085 53.7081 94.3653 0.0000 0.0000 0.0000
# 4 0.0000 0.0000 0.0000 11.3011 0.0000 0.0000
# 5 0.0000 0.0000 0.0000 0.0000 11.2980 0.0000
# 6 0.0000 0.0000 0.0000 0.0000 0.0000 33.2179
#
#
#
# Elastic Compliance Matrix: (Units=1/GPa)
#
#
# Indices 1 2 3 4 5 6 
#
# 1 0.009836 -0.002447 -0.004205 0.000000 0.000000 0.000000
# 2 -0.002447 0.009835 -0.004205 0.000000 0.000000 0.000000
# 3 -0.004205 -0.004205 0.015384 0.000000 0.000000 0.000000
# 4 0.000000 0.000000 0.000000 0.088487 0.000000 0.000000
# 5 0.000000 0.000000 0.000000 0.000000 0.088511 0.000000
# 6 0.000000 0.000000 0.000000 0.000000 0.000000 0.030104
#
#
# Mechanical properties :
#
#
# Convention : Reuss Voigt Hill
#
# Bulk Modulus (GPa) = 74.96142 78.01762 76.48952
# Shear Modulus (GPa) = 18.63456 24.98455 21.80955
#
# Velocity S-wave (km/s) = 2.97470 3.44445 3.21815
# Velocity P-wave (km/s) = 6.88438 7.27094 7.08030
#
# Compressibility (1/GPa) = 0.01334020
#
# Stress axis : x y z
#
# Youngs Moduli (GPa) = 101.67197 101.67581 65.00270
#
# Poissons Ratio (x) = 0.24878 0.27336
# Poissons Ratio (y) = 0.24877 0.27334
# Poissons Ratio (z) = 0.42757 0.42756
#
# Static dielectric constant tensor:
#      x y z
#    x 1.875430 0.000000 0.000000 
#    y 0.000000 1.875480 0.000000 
#    z 0.000000 0.000000 1.722270 
# 
# From -- ./inp_files/4521.got.cif
#   From: 2010.05.17/outbox.cif.g08.bks.cpg/sg97_3_cif.got.tgz:4521.got - 2010.06.03 19:55:32.
