data_PCOD9551927
_publ_section_title
;
Structure prediction by ZEFSAII (Michael W. Deem and Ramdas Pophale) SiO2 
 PCOD9551927
Probable space group: I 41 2 2
;
_chemical_formula_sum "Si O2"
_cell_formula_units_Z 52
_cell_length_a 20.502229
_cell_length_b 20.502229
_cell_length_c 5.773615
_cell_angle_alpha 90.000000
_cell_angle_beta 90.000000
_cell_angle_gamma 90.000000
_cell_volume 2426.889377
_symmetry_space_group_name_H-M "I 41 2 2"
_symmetry_group_IT_number 98
_symmetry_cell_setting 'tetragonal'
loop_
_space_group_symop_operation_xyz
x,y,z
-y,1/2+x,1/4+z
-x,-y,z
y,1/2-x,1/4+z
x,1/2-y,1/4-z
-x,1/2+y,1/4-z
y,x,-z
-y,-x,-z
1/2+x,1/2+y,1/2+z
1/2-y,x,3/4+z
1/2-x,1/2-y,1/2+z
1/2+y,-x,3/4+z
1/2+x,-y,3/4-z
1/2-x,y,3/4-z
1/2+y,1/2+x,1/2-z
1/2-y,1/2-x,1/2-z
loop_
_atom_site_type_symbol
_atom_site_label
_atom_site_fract_x
_atom_site_fract_y
_atom_site_fract_z
Si Si1 0.434593 0.318775 0.221047
Si Si2 0.500000 0.500000 0.500000
Si Si3 0.250000 0.981422 0.875000
Si Si4 0.028848 0.619087 0.898426
Si Si5 0.820120 0.679881 0.250000
O O1 0.411789 0.250000 0.125000
O O2 0.476999 0.292454 0.439354
O O3 0.367526 0.347899 0.301346
O O4 0.474421 0.360601 0.039631
O O5 0.434933 0.504224 0.337091
O O6 0.189172 0.947142 0.747851
O O7 0.084412 0.584412 0.750000
O O8 0.750000 0.675415 0.375000
#
# Coordination Sequence:
#
# PCOD9551927 Si02
#       5
#    16   4   8  16   8
#     4  10  23  44  63  94 138 185 237 301 360 422
#     4  12  26  46  68 114 144 192 254 312 372 448
#     4  10  22  46  66 100 146 178 234 298 378 436
#     4  11  25  45  69 104 143 190 242 306 377 452
#     4  12  24  43  64  99 140 200 257 296 350 437
#
# _framework density 21.426604000000001
#
# number of rings (size 3 to 8) (size 9 to 14) (size 15 to 20)
#    0.000    1.231    1.538    3.231    0.000    7.385 
#   11.077    0.000    0.000    0.000    0.000    0.000 
#  521.538    0.000    0.000    0.000    0.000    0.000 
#
# Total GULP energy -144909.596359 kJ/mol
# GULP energy per Si atom -5573.446014 kJ/mol
# Density = 2.137784 g / cm^3
# Si number density = 21.426604 Si / 1000 Ang^3
#
#
#
# Elastic Constant Matrix: (Units=GPa)
#
#
# Indices 1 2 3 4 5 6 
#
# 1 182.0308 5.4707 59.6325 0.0000 0.0000 0.0000
# 2 5.4707 182.0359 59.6316 0.0000 0.0000 0.0000
# 3 59.6325 59.6316 115.2479 0.0000 0.0000 0.0000
# 4 0.0000 0.0000 0.0000 41.7099 0.0000 0.0000
# 5 0.0000 0.0000 0.0000 0.0000 41.7093 0.0000
# 6 0.0000 0.0000 0.0000 0.0000 0.0000 16.1681
#
#
#
# Elastic Compliance Matrix: (Units=1/GPa)
#
#
# Indices 1 2 3 4 5 6 
#
# 1 0.006807 0.001143 -0.004113 0.000000 0.000000 0.000000
# 2 0.001143 0.006806 -0.004113 0.000000 0.000000 0.000000
# 3 -0.004113 -0.004113 0.012934 0.000000 0.000000 0.000000
# 4 0.000000 0.000000 0.000000 0.023975 0.000000 0.000000
# 5 0.000000 0.000000 0.000000 0.000000 0.023975 0.000000
# 6 0.000000 0.000000 0.000000 0.000000 0.000000 0.061850
#
#
# Mechanical properties :
#
#
# Convention : Reuss Voigt Hill
#
# Bulk Modulus (GPa) = 80.77869 80.97602 80.87736
# Shear Modulus (GPa) = 32.33290 43.55612 37.94451
#
# Velocity S-wave (km/s) = 3.88881 4.51356 4.21278
# Velocity P-wave (km/s) = 7.61221 8.06457 7.84165
#
# Compressibility (1/GPa) = 0.01237950
#
# Stress axis : x y z
#
# Youngs Moduli (GPa) = 146.91307 146.91884 77.31827
#
# Poissons Ratio (x) = -0.16791 0.31804
# Poissons Ratio (y) = -0.16791 0.31802
# Poissons Ratio (z) = 0.60431 0.60430
#
# Static dielectric constant tensor:
#      x y z
#    x 1.763810 0.000000 0.000000 
#    y 0.000000 1.763810 0.000000 
#    z 0.000000 0.000000 1.537610 
# 
# From -- ./inp_files/1014.got.cif
#   From: 2010.05.17/outbox.cif.g08.bks.cpg/sg98_1_cif.got.tgz:1014.got - 2010.06.03 20:00:51.
