data_PCOD9551466
_publ_section_title
;
Structure prediction by ZEFSAII (Michael W. Deem and Ramdas Pophale) SiO2 
 PCOD9551466
Probable space group: I 4 2 2 
;
_chemical_formula_sum "Si O2"
_cell_formula_units_Z 88
_cell_length_a 11.466236
_cell_length_b 11.466236
_cell_length_c 30.592903
_cell_angle_alpha 90.000000
_cell_angle_beta 90.000000
_cell_angle_gamma 90.000000
_cell_volume 4022.188706
_symmetry_space_group_name_H-M "I 4 2 2 "
_symmetry_group_IT_number 97
_symmetry_cell_setting 'tetragonal'
loop_
_space_group_symop_operation_xyz
x,y,z
-y,x,z
-x,-y,z
y,-x,z
x,-y,-z
-x,y,-z
y,x,-z
-y,-x,-z
1/2+x,1/2+y,1/2+z
1/2-y,1/2+x,1/2+z
1/2-x,1/2-y,1/2+z
1/2+y,1/2-x,1/2+z
1/2+x,1/2-y,1/2-z
1/2-x,1/2+y,1/2-z
1/2+y,1/2+x,1/2-z
1/2-y,1/2-x,1/2-z
loop_
_atom_site_type_symbol
_atom_site_label
_atom_site_fract_x
_atom_site_fract_y
_atom_site_fract_z
Si Si1 0.502502 0.127757 0.885679
Si Si2 0.762773 0.148638 0.917212
Si Si3 0.005361 0.198433 0.693955
Si Si4 0.864787 0.140801 0.177584
Si Si5 0.805803 0.573703 0.456653
Si Si6 0.176441 0.323560 0.750000
O O1 0.625890 0.154069 0.907987
O O2 0.485135 0.230829 0.851092
O O3 0.412494 0.106642 0.925129
O O4 0.500000 0.000000 0.862548
O O5 0.821543 0.172877 0.870726
O O6 0.807958 0.232518 0.954898
O O7 0.781486 0.016455 0.932319
O O8 0.049876 0.296791 0.728400
O O9 0.893388 0.114034 0.698026
O O10 0.808108 0.225940 0.212608
O O11 0.004174 0.158421 0.182701
O O12 0.838443 0.500000 0.500000
#
# Coordination Sequence:
#
# PCOD9551466 Si02
#       6
#    16  16  16  16  16   8
#     4  10  23  41  69  99 143 191 241 302 378 445
#     4  11  21  41  68 100 142 188 226 293 376 448
#     4  11  24  45  69 102 144 197 258 314 380 455
#     4  11  23  42  67  99 143 191 243 301 378 447
#     4  11  24  42  70 105 142 182 238 300 367 454
#     4  12  24  40  67 101 140 194 254 314 366 441
#
# _framework density 21.878634999999999
#
# number of rings (size 3 to 8) (size 9 to 14) (size 15 to 20)
#    0.000    1.091    3.636    2.727    0.000    5.091 
#    3.273    0.909    0.000    0.000    0.000    0.000 
#    0.000   26.182    0.000    0.000    0.000    0.000 
#
# Total GULP energy -245407.448408 kJ/mol
# GULP energy per Si atom -5577.442009 kJ/mol
# Density = 2.182884 g / cm^3
# Si number density = 21.878635 Si / 1000 Ang^3
#
#
#
# Elastic Constant Matrix: (Units=GPa)
#
#
# Indices 1 2 3 4 5 6 
#
# 1 72.0274 62.1302 38.6816 0.0000 0.0000 0.0000
# 2 62.1302 72.0280 38.6817 0.0000 0.0000 0.0000
# 3 38.6816 38.6817 137.9138 0.0000 0.0000 0.0000
# 4 0.0000 0.0000 0.0000 22.1821 0.0000 0.0000
# 5 0.0000 0.0000 0.0000 0.0000 22.1819 0.0000
# 6 0.0000 0.0000 0.0000 0.0000 0.0000 37.7321
#
#
#
# Elastic Compliance Matrix: (Units=1/GPa)
#
#
# Indices 1 2 3 4 5 6 
#
# 1 0.054964 -0.046071 -0.002494 0.000000 0.000000 0.000000
# 2 -0.046071 0.054963 -0.002494 0.000000 0.000000 0.000000
# 3 -0.002494 -0.002494 0.008650 0.000000 0.000000 0.000000
# 4 0.000000 0.000000 0.000000 0.045081 0.000000 0.000000
# 5 0.000000 0.000000 0.000000 0.000000 0.045082 0.000000
# 6 0.000000 0.000000 0.000000 0.000000 0.000000 0.026503
#
#
# Mechanical properties :
#
#
# Convention : Reuss Voigt Hill
#
# Bulk Modulus (GPa) = 60.76060 62.32845 61.54453
# Shear Modulus (GPa) = 14.58373 25.91759 20.25066
#
# Velocity S-wave (km/s) = 2.58461 3.44555 3.04565
# Velocity P-wave (km/s) = 6.06126 6.66177 6.36860
#
# Compressibility (1/GPa) = 0.01645803
#
# Stress axis : x y z
#
# Youngs Moduli (GPa) = 18.19382 18.19396 115.60768
#
# Poissons Ratio (x) = 0.83822 0.28833
# Poissons Ratio (y) = 0.83821 0.28833
# Poissons Ratio (z) = 0.04538 0.04538
#
# Static dielectric constant tensor:
#      x y z
#    x 1.854810 0.000000 0.000000 
#    y 0.000000 1.854810 0.000000 
#    z 0.000000 0.000000 1.865050 
# 
# From -- ./inp_files/8088.got.cif
#   From: 2010.05.17/outbox.cif.g08.bks.cpg/sg97_5_cif.got.tgz:8088.got - 2010.06.03 19:55:32.
