data_PCOD9551075
_publ_section_title
;
Structure prediction by ZEFSAII (Michael W. Deem and Ramdas Pophale) SiO2 
 PCOD9551075
Probable space group: P 43 21 2
;
_chemical_formula_sum "Si O2"
_cell_formula_units_Z 24
_cell_length_a 7.935103
_cell_length_b 7.935103
_cell_length_c 13.919576
_cell_angle_alpha 90.000000
_cell_angle_beta 90.000000
_cell_angle_gamma 90.000000
_cell_volume 876.458068
_symmetry_space_group_name_H-M "P 43 21 2"
_symmetry_group_IT_number 96
_symmetry_cell_setting 'tetragonal'
loop_
_space_group_symop_operation_xyz
x,y,z
1/2-y,1/2+x,3/4+z
-x,-y,1/2+z
1/2+y,1/2-x,1/4+z
1/2+x,1/2-y,1/4-z
1/2-x,1/2+y,3/4-z
y,x,-z
-y,-x,1/2-z
loop_
_atom_site_type_symbol
_atom_site_label
_atom_site_fract_x
_atom_site_fract_y
_atom_site_fract_z
Si Si1 0.719672 0.872799 0.238488
Si Si2 0.238137 0.984373 0.947060
Si Si3 0.046360 0.698187 0.204166
O O1 0.746253 0.983283 0.333953
O O2 0.908182 0.845524 0.196090
O O3 0.610906 0.881855 0.142698
O O4 0.708462 0.708462 0.000000
O O5 0.134651 0.134651 0.000000
O O6 0.152031 0.805348 0.967239
O O7 0.420470 0.938647 0.995397
#
# Coordination Sequence:
#
# PCOD9551075 Si02
#       3
#     8   8   8
#     4  10  24  52  94 128 192 230 314 368 464 532
#     4  10  24  50  95 126 188 241 304 373 460 541
#     4  10  24  50  95 126 188 241 304 373 460 541
#
# _framework density 27.382943999999998
#
# number of rings (size 3 to 8) (size 9 to 14) (size 15 to 20)
#    2.000    0.000    0.000    2.000    0.000    2.667 
#    6.000   10.000    0.000    0.000    0.000    0.000 
#    0.000    0.000    0.000    0.000    0.000    0.000 
#
# Total GULP energy -133771.655824 kJ/mol
# GULP energy per Si atom -5573.818993 kJ/mol
# Density = 2.732062 g / cm^3
# Si number density = 27.382944 Si / 1000 Ang^3
#
#
#
# Elastic Constant Matrix: (Units=GPa)
#
#
# Indices 1 2 3 4 5 6 
#
# 1 109.3767 64.2692 67.7308 0.0000 0.0000 0.0000
# 2 64.2692 109.3767 67.7308 0.0000 0.0000 0.0000
# 3 67.7308 67.7308 150.8805 0.0000 0.0000 0.0000
# 4 0.0000 0.0000 0.0000 48.7117 0.0000 0.0000
# 5 0.0000 0.0000 0.0000 0.0000 48.7117 0.0000
# 6 0.0000 0.0000 0.0000 0.0000 0.0000 66.7741
#
#
#
# Elastic Compliance Matrix: (Units=1/GPa)
#
#
# Indices 1 2 3 4 5 6 
#
# 1 0.015516 -0.006653 -0.003978 0.000000 0.000000 0.000000
# 2 -0.006653 0.015516 -0.003978 0.000000 0.000000 0.000000
# 3 -0.003978 -0.003978 0.010200 0.000000 0.000000 0.000000
# 4 0.000000 0.000000 0.000000 0.020529 0.000000 0.000000
# 5 0.000000 0.000000 0.000000 0.000000 0.020529 0.000000
# 6 0.000000 0.000000 0.000000 0.000000 0.000000 0.014976
#
#
# Mechanical properties :
#
#
# Convention : Reuss Voigt Hill
#
# Bulk Modulus (GPa) = 83.25777 85.45506 84.35641
# Shear Modulus (GPa) = 38.31745 44.16636 41.24190
#
# Velocity S-wave (km/s) = 3.74480 4.02047 3.88508
# Velocity P-wave (km/s) = 7.01207 7.26824 7.14130
#
# Compressibility (1/GPa) = 0.01201089
#
# Stress axis : x y z
#
# Youngs Moduli (GPa) = 64.45041 64.45041 98.04355
#
# Poissons Ratio (x) = 0.42882 0.39005
# Poissons Ratio (y) = 0.42882 0.39005
# Poissons Ratio (z) = 0.25641 0.25641
#
# Static dielectric constant tensor:
#      x y z
#    x 2.572450 0.000000 0.000000 
#    y 0.000000 2.572450 0.000000 
#    z 0.000000 0.000000 2.110520 
# 
# From -- ./inp_files/968.got.cif
#   From: 2010.05.17/outbox.cif.g08.bks.cpg/sg96_1_cif.got.tgz:968.got - 2010.06.03 19:52:08.
