data_PCOD9551390
_publ_section_title
;
Structure prediction by ZEFSAII (Michael W. Deem and Ramdas Pophale) SiO2 
 PCOD9551390
Probable space group: I 4 2 2 
;
_chemical_formula_sum "Si O2"
_cell_formula_units_Z 72
_cell_length_a 16.870024
_cell_length_b 16.870024
_cell_length_c 11.717333
_cell_angle_alpha 90.000000
_cell_angle_beta 90.000000
_cell_angle_gamma 90.000000
_cell_volume 3334.726136
_symmetry_space_group_name_H-M "I 4 2 2 "
_symmetry_group_IT_number 97
_symmetry_cell_setting 'tetragonal'
loop_
_space_group_symop_operation_xyz
x,y,z
-y,x,z
-x,-y,z
y,-x,z
x,-y,-z
-x,y,-z
y,x,-z
-y,-x,-z
1/2+x,1/2+y,1/2+z
1/2-y,1/2+x,1/2+z
1/2-x,1/2-y,1/2+z
1/2+y,1/2-x,1/2+z
1/2+x,1/2-y,1/2-z
1/2-x,1/2+y,1/2-z
1/2+y,1/2+x,1/2-z
1/2-y,1/2-x,1/2-z
loop_
_atom_site_type_symbol
_atom_site_label
_atom_site_fract_x
_atom_site_fract_y
_atom_site_fract_z
Si Si1 0.362847 0.936426 0.595326
Si Si2 0.199344 0.916058 0.567156
Si Si3 0.000000 0.761107 0.000000
Si Si4 0.875467 0.049516 0.814246
Si Si5 0.522352 0.856915 0.688868
O O1 0.289623 0.881791 0.560256
O O2 0.446695 0.902123 0.633822
O O3 0.382155 0.000000 0.500000
O O4 0.320299 0.982607 0.699450
O O5 0.141194 0.858807 0.500000
O O6 0.163577 0.928262 0.693584
O O7 0.201335 0.000000 0.500000
O O8 0.046261 0.704582 0.908883
O O9 0.943606 0.814633 0.920109
O O10 0.956819 0.098912 0.821649
O O11 0.586157 0.913844 0.750000
#
# Coordination Sequence:
#
# PCOD9551390 Si02
#       5
#    16  16   8  16  16
#     4  10  21  39  62  97 137 171 226 292 351 413
#     4  11  21  37  67  99 137 181 232 293 346 407
#     4  12  24  43  65 104 144 176 230 302 358 414
#     4  11  23  42  69 100 138 188 239 286 348 426
#     4  11  23  40  69  98 132 180 235 288 348 423
#
# _framework density 21.590979000000001
#
# number of rings (size 3 to 8) (size 9 to 14) (size 15 to 20)
#    0.000    1.111    4.444    3.333    0.000    2.000 
#    0.000    2.222    0.000    0.000    0.000    0.000 
#    0.000    0.000    0.000    0.000    0.000    0.000 
#
# Total GULP energy -200699.531422 kJ/mol
# GULP energy per Si atom -5574.986984 kJ/mol
# Density = 2.154184 g / cm^3
# Si number density = 21.590979 Si / 1000 Ang^3
#
#
#
# Elastic Constant Matrix: (Units=GPa)
#
#
# Indices 1 2 3 4 5 6 
#
# 1 93.0898 36.8470 39.3963 0.0000 0.0000 0.0000
# 2 36.8470 93.0923 39.3964 0.0000 0.0000 0.0000
# 3 39.3963 39.3964 165.3422 0.0000 0.0000 0.0000
# 4 0.0000 0.0000 0.0000 39.7430 0.0000 0.0000
# 5 0.0000 0.0000 0.0000 0.0000 39.7428 0.0000
# 6 0.0000 0.0000 0.0000 0.0000 0.0000 -9.9971
#
#
#
# Elastic Compliance Matrix: (Units=1/GPa)
#
#
# Indices 1 2 3 4 5 6 
#
# 1 0.013388 -0.004392 -0.002143 0.000000 0.000000 0.000000
# 2 -0.004392 0.013387 -0.002143 0.000000 0.000000 0.000000
# 3 -0.002143 -0.002143 0.007069 0.000000 0.000000 0.000000
# 4 0.000000 0.000000 0.000000 0.025162 0.000000 0.000000
# 5 0.000000 0.000000 0.000000 0.000000 0.025162 0.000000
# 6 0.000000 0.000000 0.000000 0.000000 0.000000 -0.100029
#
#
# Mechanical properties :
#
#
# Convention : Reuss Voigt Hill
#
# Bulk Modulus (GPa) = 60.65295 64.75594 62.70444
# Shear Modulus (GPa) = 715.03592 29.62339 372.32965
#
# Velocity S-wave (km/s) = 18.21791 3.70811 13.14615
# Velocity P-wave (km/s) = 21.69507 6.95634 16.11004
#
# Compressibility (1/GPa) = 0.01648724
#
# Stress axis : x y z
#
# Youngs Moduli (GPa) = 74.69440 74.69661 141.45278
#
# Poissons Ratio (x) = 0.32806 0.30320
# Poissons Ratio (y) = 0.32806 0.30319
# Poissons Ratio (z) = 0.16010 0.16010
#
# Static dielectric constant tensor:
#      x y z
#    x 1.850390 0.000000 0.000000 
#    y 0.000000 1.850390 0.000000 
#    z 0.000000 0.000000 1.797400 
# 
# From -- ./inp_files/3631.got.cif
#   From: 2010.05.17/outbox.cif.g08.bks.cpg/sg97_2_cif.got.tgz:3631.got - 2010.06.03 19:55:32.
