data_PCOD9551703
_publ_section_title
;
Structure prediction by ZEFSAII (Michael W. Deem and Ramdas Pophale) SiO2 
 PCOD9551703
Probable space group: I 41 2 2
;
_chemical_formula_sum "Si O2"
_cell_formula_units_Z 72
_cell_length_a 26.402801
_cell_length_b 26.402801
_cell_length_c 6.234639
_cell_angle_alpha 90.000000
_cell_angle_beta 90.000000
_cell_angle_gamma 90.000000
_cell_volume 4346.216105
_symmetry_space_group_name_H-M "I 41 2 2"
_symmetry_group_IT_number 98
_symmetry_cell_setting 'tetragonal'
loop_
_space_group_symop_operation_xyz
x,y,z
-y,1/2+x,1/4+z
-x,-y,z
y,1/2-x,1/4+z
x,1/2-y,1/4-z
-x,1/2+y,1/4-z
y,x,-z
-y,-x,-z
1/2+x,1/2+y,1/2+z
1/2-y,x,3/4+z
1/2-x,1/2-y,1/2+z
1/2+y,-x,3/4+z
1/2+x,-y,3/4-z
1/2-x,y,3/4-z
1/2+y,1/2+x,1/2-z
1/2-y,1/2-x,1/2-z
loop_
_atom_site_type_symbol
_atom_site_label
_atom_site_fract_x
_atom_site_fract_y
_atom_site_fract_z
Si Si1 0.935818 0.250000 0.625000
Si Si2 0.990806 0.198144 0.243144
Si Si3 0.404835 0.338563 0.860918
Si Si4 0.321358 0.178643 0.750000
Si Si5 0.750000 0.644254 0.875000
Si Si6 0.302907 0.887715 0.755117
O O1 0.970213 0.216796 0.470402
O O2 0.901552 0.213573 0.766435
O O3 0.008701 0.250000 0.125000
O O4 0.037816 0.161796 0.280937
O O5 0.940960 0.179914 0.114466
O O6 0.369937 0.325746 0.655265
O O7 0.386908 0.386908 0.000000
O O8 0.391085 0.293135 0.024662
O O9 0.274925 0.175178 0.576989
O O10 0.344641 0.844641 0.750000
O O11 0.250000 0.873621 0.875000
#
# Coordination Sequence:
#
# PCOD9551703 Si02
#       6
#     8  16  16   8   8  16
#     4   8  17  32  54  74 100 132 172 214 247 296
#     4   9  17  30  51  76  97 130 173 219 259 305
#     4  10  20  32  51  72  97 126 170 221 272 322
#     4  10  20  32  50  66  95 128 168 218 262 334
#     4  10  19  32  50  64  94 128 172 216 273 316
#     4   9  19  33  49  78 111 140 180 208 252 309
#
# _framework density 16.566134999999999
#
# number of rings (size 3 to 8) (size 9 to 14) (size 15 to 20)
#    0.000    3.111    0.000    2.667    0.000    8.889 
#    2.000    0.000   88.000    0.000    0.000   11.667 
#    0.000    0.000    0.000    0.000    0.000    0.000 
#
# Total GULP energy -200406.360005 kJ/mol
# GULP energy per Si atom -5566.843333 kJ/mol
# Density = 1.652843 g / cm^3
# Si number density = 16.566135 Si / 1000 Ang^3
#
#
#
# Elastic Constant Matrix: (Units=GPa)
#
#
# Indices 1 2 3 4 5 6 
#
# 1 95.0894 65.5492 40.9023 0.0000 0.0000 0.0000
# 2 65.5492 95.0896 40.9024 0.0000 0.0000 0.0000
# 3 40.9023 40.9024 112.4877 0.0000 0.0000 0.0000
# 4 0.0000 0.0000 0.0000 14.3185 0.0000 0.0000
# 5 0.0000 0.0000 0.0000 0.0000 14.3186 0.0000
# 6 0.0000 0.0000 0.0000 0.0000 0.0000 30.3992
#
#
#
# Elastic Compliance Matrix: (Units=1/GPa)
#
#
# Indices 1 2 3 4 5 6 
#
# 1 0.020746 -0.013106 -0.002778 0.000000 0.000000 0.000000
# 2 -0.013106 0.020746 -0.002778 0.000000 0.000000 0.000000
# 3 -0.002778 -0.002778 0.010910 0.000000 0.000000 0.000000
# 4 0.000000 0.000000 0.000000 0.069840 0.000000 0.000000
# 5 0.000000 0.000000 0.000000 0.000000 0.069839 0.000000
# 6 0.000000 0.000000 0.000000 0.000000 0.000000 0.032896
#
#
# Mechanical properties :
#
#
# Convention : Reuss Voigt Hill
#
# Bulk Modulus (GPa) = 66.32236 66.37495 66.34866
# Shear Modulus (GPa) = 18.70374 22.16146 20.43260
#
# Velocity S-wave (km/s) = 3.36376 3.66150 3.51578
# Velocity P-wave (km/s) = 7.43023 7.61768 7.52454
#
# Compressibility (1/GPa) = 0.01507787
#
# Stress axis : x y z
#
# Youngs Moduli (GPa) = 48.20224 48.20230 91.65835
#
# Poissons Ratio (x) = 0.63174 0.25462
# Poissons Ratio (y) = 0.63174 0.25462
# Poissons Ratio (z) = 0.13390 0.13390
#
# Static dielectric constant tensor:
#      x y z
#    x 1.579410 0.000000 0.000000 
#    y 0.000000 1.579410 0.000000 
#    z 0.000000 0.000000 1.601780 
# 
# From -- ./inp_files/1668.got.cif
#   From: 2010.05.17/outbox.cif.g08.bks.cpg/sg98_1_cif.got.tgz:1668.got - 2010.06.03 20:00:51.
