data_PCOD9551444
_publ_section_title
;
Structure prediction by ZEFSAII (Michael W. Deem and Ramdas Pophale) SiO2 
 PCOD9551444
Probable space group: I 4 2 2 
;
_chemical_formula_sum "Si O2"
_cell_formula_units_Z 60
_cell_length_a 10.854154
_cell_length_b 10.854154
_cell_length_c 20.604207
_cell_angle_alpha 90.000000
_cell_angle_beta 90.000000
_cell_angle_gamma 90.000000
_cell_volume 2427.436414
_symmetry_space_group_name_H-M "I 4 2 2 "
_symmetry_group_IT_number 97
_symmetry_cell_setting 'tetragonal'
loop_
_space_group_symop_operation_xyz
x,y,z
-y,x,z
-x,-y,z
y,-x,z
x,-y,-z
-x,y,-z
y,x,-z
-y,-x,-z
1/2+x,1/2+y,1/2+z
1/2-y,1/2+x,1/2+z
1/2-x,1/2-y,1/2+z
1/2+y,1/2-x,1/2+z
1/2+x,1/2-y,1/2-z
1/2-x,1/2+y,1/2-z
1/2+y,1/2+x,1/2-z
1/2-y,1/2-x,1/2-z
loop_
_atom_site_type_symbol
_atom_site_label
_atom_site_fract_x
_atom_site_fract_y
_atom_site_fract_z
Si Si1 0.147618 0.701839 0.870816
Si Si2 0.762254 0.411437 0.289553
Si Si3 0.853188 0.853188 0.000000
Si Si4 0.500000 0.500000 0.759708
Si Si5 0.796259 0.987040 0.576758
O O1 0.223596 0.778312 0.817883
O O2 0.180803 0.773615 0.937514
O O3 0.180353 0.559302 0.882987
O O4 0.007168 0.720344 0.848584
O O5 0.885616 0.385616 0.250000
O O6 0.648102 0.464641 0.248247
O O7 0.000000 0.834978 0.000000
O O8 0.893096 0.876300 0.591299
O O9 0.768174 0.000000 0.500000
#
# Coordination Sequence:
#
# PCOD9551444 Si02
#       5
#    16  16   8   4  16
#     4  11  21  42  74 106 149 190 240 321 384 459
#     4  10  22  43  73 111 146 197 257 309 381 472
#     4  11  20  32  68 113 148 180 234 303 400 478
#     4   8  20  44  80  93 148 201 252 316 380 442
#     4   9  19  40  70  98 138 190 246 299 380 478
#
# _framework density 24.717434000000001
#
# number of rings (size 3 to 8) (size 9 to 14) (size 15 to 20)
#    0.000    2.000    2.667    2.400    0.000    0.000 
#    9.600    1.333   23.467    0.000    0.000    0.000 
#    0.000    0.000    0.000    0.000    0.000    0.000 
#
# Total GULP energy -167099.379586 kJ/mol
# GULP energy per Si atom -5569.979320 kJ/mol
# Density = 2.466118 g / cm^3
# Si number density = 24.717434 Si / 1000 Ang^3
#
#
#
# Elastic Constant Matrix: (Units=GPa)
#
#
# Indices 1 2 3 4 5 6 
#
# 1 69.9630 72.0013 35.9920 0.0000 0.0000 0.0000
# 2 72.0013 69.9630 35.9920 0.0000 0.0000 0.0000
# 3 35.9920 35.9920 106.9918 0.0000 0.0000 0.0000
# 4 0.0000 0.0000 0.0000 29.4964 0.0000 0.0000
# 5 0.0000 0.0000 0.0000 0.0000 29.4964 0.0000
# 6 0.0000 0.0000 0.0000 0.0000 0.0000 70.5752
#
#
#
# Elastic Compliance Matrix: (Units=1/GPa)
#
#
# Indices 1 2 3 4 5 6 
#
# 1 -0.241060 0.249553 -0.002857 0.000000 0.000000 0.000000
# 2 0.249553 -0.241060 -0.002857 0.000000 0.000000 0.000000
# 3 -0.002857 -0.002857 0.011269 0.000000 0.000000 0.000000
# 4 0.000000 0.000000 0.000000 0.033902 0.000000 0.000000
# 5 0.000000 0.000000 0.000000 0.000000 0.033902 0.000000
# 6 0.000000 0.000000 0.000000 0.000000 0.000000 0.014169
#
#
# Mechanical properties :
#
#
# Convention : Reuss Voigt Hill
#
# Bulk Modulus (GPa) = 59.43097 59.43206 59.43152
# Shear Modulus (GPa) = -5.74088 32.77576 13.51744
#
# Velocity S-wave (km/s) = -1.52566 3.64540 2.34108
# Velocity P-wave (km/s) = 4.58179 6.46648 5.60394
#
# Compressibility (1/GPa) = 0.01682624
#
# Stress axis : x y z
#
# Youngs Moduli (GPa) = -4.14834 -4.14834 88.74173
#
# Poissons Ratio (x) = 1.03523 0.25353
# Poissons Ratio (y) = 1.03523 0.25353
# Poissons Ratio (z) = -0.01185 -0.01185
#
# Static dielectric constant tensor:
#      x y z
#    x 1.972090 0.000000 0.000000 
#    y 0.000000 1.972090 0.000000 
#    z 0.000000 0.000000 2.037460 
# 
# From -- ./inp_files/6339.got.cif
#   From: 2010.05.17/outbox.cif.g08.bks.cpg/sg97_4_cif.got.tgz:6339.got - 2010.06.03 19:55:32.
