data_PCOD9551673
_publ_section_title
;
Structure prediction by ZEFSAII (Michael W. Deem and Ramdas Pophale) SiO2 
 PCOD9551673
Probable space group: I 41 2 2
;
_chemical_formula_sum "Si O2"
_cell_formula_units_Z 56
_cell_length_a 19.834365
_cell_length_b 19.834365
_cell_length_c 7.905051
_cell_angle_alpha 90.000000
_cell_angle_beta 90.000000
_cell_angle_gamma 90.000000
_cell_volume 3109.863150
_symmetry_space_group_name_H-M "I 41 2 2"
_symmetry_group_IT_number 98
_symmetry_cell_setting 'tetragonal'
loop_
_space_group_symop_operation_xyz
x,y,z
-y,1/2+x,1/4+z
-x,-y,z
y,1/2-x,1/4+z
x,1/2-y,1/4-z
-x,1/2+y,1/4-z
y,x,-z
-y,-x,-z
1/2+x,1/2+y,1/2+z
1/2-y,x,3/4+z
1/2-x,1/2-y,1/2+z
1/2+y,-x,3/4+z
1/2+x,-y,3/4-z
1/2-x,y,3/4-z
1/2+y,1/2+x,1/2-z
1/2-y,1/2-x,1/2-z
loop_
_atom_site_type_symbol
_atom_site_label
_atom_site_fract_x
_atom_site_fract_y
_atom_site_fract_z
Si Si1 0.035115 0.242055 0.435769
Si Si2 0.898707 0.601293 0.750000
Si Si3 0.393711 0.033648 0.596357
Si Si4 0.111111 0.888890 0.000000
Si Si5 0.563453 0.250000 0.625000
O O1 0.004233 0.250000 0.625000
O O2 0.982856 0.230100 0.285481
O O3 0.086049 0.179349 0.452753
O O4 0.061979 0.316904 0.393597
O O5 0.942937 0.581821 0.586799
O O6 0.435877 0.064124 0.750000
O O7 0.393031 0.953242 0.624190
O O8 0.183444 0.895252 0.915217
#
# Coordination Sequence:
#
# PCOD9551673 Si02
#       5
#    16   8  16   8   8
#     4   9  19  34  55  81 113 155 185 227 284 330
#     4  10  18  34  59  78 114 152 190 230 276 339
#     4  10  20  35  56  86 115 149 193 234 284 337
#     4  10  21  38  62  82 110 150 192 233 302 356
#     4  10  20  40  60  78 114 146 184 242 294 344
#
# _framework density 18.007224999999998
#
# number of rings (size 3 to 8) (size 9 to 14) (size 15 to 20)
#    0.000    2.286    0.000    3.857    0.000    0.000 
#    0.000   31.429   53.429    0.000    0.000    0.000 
#    0.000    0.000    0.000    0.000    0.000    0.000 
#
# Total GULP energy -155976.145933 kJ/mol
# GULP energy per Si atom -5570.576640 kJ/mol
# Density = 1.796624 g / cm^3
# Si number density = 18.007225 Si / 1000 Ang^3
#
#
#
# Elastic Constant Matrix: (Units=GPa)
#
#
# Indices 1 2 3 4 5 6 
#
# 1 105.2189 77.9755 68.8205 0.0000 0.0000 0.0000
# 2 77.9755 105.2162 68.8254 0.0000 0.0000 0.0000
# 3 68.8205 68.8254 128.1723 0.0000 0.0000 0.0000
# 4 0.0000 0.0000 0.0000 17.5505 0.0000 0.0000
# 5 0.0000 0.0000 0.0000 0.0000 17.5493 0.0000
# 6 0.0000 0.0000 0.0000 0.0000 0.0000 27.3988
#
#
#
# Elastic Compliance Matrix: (Units=1/GPa)
#
#
# Indices 1 2 3 4 5 6 
#
# 1 0.022928 -0.013779 -0.004912 0.000000 0.000000 0.000000
# 2 -0.013779 0.022931 -0.004915 0.000000 0.000000 0.000000
# 3 -0.004912 -0.004915 0.013079 0.000000 0.000000 0.000000
# 4 0.000000 0.000000 0.000000 0.056978 0.000000 0.000000
# 5 0.000000 0.000000 0.000000 0.000000 0.056982 0.000000
# 6 0.000000 0.000000 0.000000 0.000000 0.000000 0.036498
#
#
# Mechanical properties :
#
#
# Convention : Reuss Voigt Hill
#
# Bulk Modulus (GPa) = 85.28114 85.53889 85.41002
# Shear Modulus (GPa) = 19.19273 20.69880 19.94576
#
# Velocity S-wave (km/s) = 3.26825 3.39406 3.33175
# Velocity P-wave (km/s) = 7.85520 7.93506 7.89523
#
# Compressibility (1/GPa) = 0.01172592
#
# Stress axis : x y z
#
# Youngs Moduli (GPa) = 43.61501 43.60994 76.46079
#
# Poissons Ratio (x) = 0.60089 0.37558
# Poissons Ratio (y) = 0.60096 0.37579
# Poissons Ratio (z) = 0.21424 0.21434
#
# Static dielectric constant tensor:
#      x y z
#    x 1.629570 0.000000 0.000000 
#    y 0.000000 1.629570 0.000000 
#    z 0.000000 0.000000 1.661230 
# 
# From -- ./inp_files/3081.got.cif
#   From: 2010.05.17/outbox.cif.g08.bks.cpg/sg98_2_cif.got.tgz:3081.got - 2010.06.03 20:00:51.
