data_PCOD9551911
_publ_section_title
;
Structure prediction by ZEFSAII (Michael W. Deem and Ramdas Pophale) SiO2 
 PCOD9551911
Probable space group: I 41 2 2
;
_chemical_formula_sum "Si O2"
_cell_formula_units_Z 48
_cell_length_a 20.107108
_cell_length_b 20.107108
_cell_length_c 5.285813
_cell_angle_alpha 90.000000
_cell_angle_beta 90.000000
_cell_angle_gamma 90.000000
_cell_volume 2137.031954
_symmetry_space_group_name_H-M "I 41 2 2"
_symmetry_group_IT_number 98
_symmetry_cell_setting 'tetragonal'
loop_
_space_group_symop_operation_xyz
x,y,z
-y,1/2+x,1/4+z
-x,-y,z
y,1/2-x,1/4+z
x,1/2-y,1/4-z
-x,1/2+y,1/4-z
y,x,-z
-y,-x,-z
1/2+x,1/2+y,1/2+z
1/2-y,x,3/4+z
1/2-x,1/2-y,1/2+z
1/2+y,-x,3/4+z
1/2+x,-y,3/4-z
1/2-x,y,3/4-z
1/2+y,1/2+x,1/2-z
1/2-y,1/2-x,1/2-z
loop_
_atom_site_type_symbol
_atom_site_label
_atom_site_fract_x
_atom_site_fract_y
_atom_site_fract_z
Si Si1 0.388727 0.250000 0.125000
Si Si2 0.822944 0.177057 0.000000
Si Si3 0.118191 0.881810 0.500000
Si Si4 0.034115 0.364893 0.887595
Si Si5 0.140250 0.359751 0.250000
O O1 0.437283 0.203341 0.281131
O O2 0.348394 0.303724 0.289491
O O3 0.750000 0.169530 0.875000
O O4 0.868368 0.162971 0.751423
O O5 0.043088 0.872641 0.402457
O O6 0.075278 0.424723 0.750000
O O7 0.062991 0.357638 0.169341
#
# Coordination Sequence:
#
# PCOD9551911 Si02
#       5
#     8   8   8  16   8
#     4  10  22  42  72 102 144 202 246 314 370 446
#     4  12  29  52  75 113 154 193 247 310 373 452
#     4  12  28  46  82 115 146 199 252 300 386 452
#     4  10  24  44  71 106 151 192 245 313 371 445
#     4  10  22  44  75 100 152 194 256 310 377 444
#
# _framework density 22.46106
#
# number of rings (size 3 to 8) (size 9 to 14) (size 15 to 20)
#    0.000    1.333    0.000    3.500   14.000    0.000 
#    0.000    0.000  132.000    0.000    0.000    0.000 
#    0.000    0.000    0.000    0.000    0.000    0.000 
#
# Total GULP energy -133874.628635 kJ/mol
# GULP energy per Si atom -5578.109526 kJ/mol
# Density = 2.240994 g / cm^3
# Si number density = 22.461060 Si / 1000 Ang^3
#
#
#
# Elastic Constant Matrix: (Units=GPa)
#
#
# Indices 1 2 3 4 5 6 
#
# 1 227.4654 -64.9882 48.7144 0.0000 0.0000 0.0000
# 2 -64.9882 227.4366 48.7335 0.0000 0.0000 0.0000
# 3 48.7144 48.7335 127.2259 0.0000 0.0000 0.0000
# 4 0.0000 0.0000 0.0000 0.0298 0.0000 0.0000
# 5 0.0000 0.0000 0.0000 0.0000 0.0374 0.0000
# 6 0.0000 0.0000 0.0000 0.0000 0.0000 16.1719
#
#
#
# Elastic Compliance Matrix: (Units=1/GPa)
#
#
# Indices 1 2 3 4 5 6 
#
# 1 0.005705 0.002286 -0.003060 0.000000 0.000000 0.000000
# 2 0.002286 0.005706 -0.003061 0.000000 0.000000 0.000000
# 3 -0.003060 -0.003061 0.010204 0.000000 0.000000 0.000000
# 4 0.000000 0.000000 0.000000 33.525933 0.000000 0.000000
# 5 0.000000 0.000000 0.000000 0.000000 26.708810 0.000000
# 6 0.000000 0.000000 0.000000 0.000000 0.000000 0.061836
#
#
# Mechanical properties :
#
#
# Convention : Reuss Voigt Hill
#
# Bulk Modulus (GPa) = 71.71210 71.89416 71.80313
# Shear Modulus (GPa) = 0.08288 39.89237 19.98762
#
# Velocity S-wave (km/s) = 0.19230 4.21891 2.98632
# Velocity P-wave (km/s) = 5.66091 7.47062 6.62782
#
# Compressibility (1/GPa) = 0.01394465
#
# Stress axis : x y z
#
# Youngs Moduli (GPa) = 175.29732 175.26083 98.00047
#
# Poissons Ratio (x) = -0.40059 0.29986
# Poissons Ratio (y) = -0.40067 0.29996
# Poissons Ratio (z) = 0.53637 0.53643
#
# Static dielectric constant tensor:
#      x y z
#    x 1.819470 0.000000 0.000000 
#    y 0.000000 1.819460 0.000000 
#    z 0.000000 0.000000 1.750230 
# 
# From -- ./inp_files/947.got.cif
#   From: 2010.05.17/outbox.cif.g08.bks.cpg/sg98_1_cif.got.tgz:947.got - 2010.06.03 20:00:51.
