data_PCOD9551160
_publ_section_title
;
Structure prediction by ZEFSAII (Michael W. Deem and Ramdas Pophale) SiO2 
 PCOD9551160
Probable space group: P 43 21 2
;
_chemical_formula_sum "Si O2"
_cell_formula_units_Z 40
_cell_length_a 14.111799
_cell_length_b 14.111799
_cell_length_c 9.053910
_cell_angle_alpha 90.000000
_cell_angle_beta 90.000000
_cell_angle_gamma 90.000000
_cell_volume 1803.021631
_symmetry_space_group_name_H-M "P 43 21 2"
_symmetry_group_IT_number 96
_symmetry_cell_setting 'tetragonal'
loop_
_space_group_symop_operation_xyz
x,y,z
1/2-y,1/2+x,3/4+z
-x,-y,1/2+z
1/2+y,1/2-x,1/4+z
1/2+x,1/2-y,1/4-z
1/2-x,1/2+y,3/4-z
y,x,-z
-y,-x,1/2-z
loop_
_atom_site_type_symbol
_atom_site_label
_atom_site_fract_x
_atom_site_fract_y
_atom_site_fract_z
Si Si1 0.409153 0.679058 0.488378
Si Si2 0.823324 0.674853 0.528771
Si Si3 0.887877 0.048302 0.468374
Si Si4 0.964206 0.746408 0.299528
Si Si5 0.756021 0.525075 0.742698
O O1 0.367788 0.747582 0.612027
O O2 0.509177 0.645338 0.558495
O O3 0.335653 0.593779 0.481470
O O4 0.425983 0.731380 0.335792
O O5 0.719062 0.719062 0.500000
O O6 0.889156 0.678707 0.383479
O O7 0.819032 0.579830 0.622437
O O8 0.920795 0.154676 0.497882
O O9 0.799265 0.028356 0.578436
O O10 0.976244 0.976244 0.500000
O O11 0.016214 0.703767 0.157409
#
# Coordination Sequence:
#
# PCOD9551160 Si02
#       5
#     8   8   8   8   8
#     4   9  18  33  52  77 115 150 174 223 290 332
#     4   9  20  37  51  73 115 154 180 222 285 336
#     4   9  17  30  51  82 117 144 173 223 285 339
#     4   9  19  34  50  79 121 147 172 231 293 330
#     4  12  19  30  57  83 102 143 198 229 264 339
#
# _framework density 22.184981000000001
#
# number of rings (size 3 to 8) (size 9 to 14) (size 15 to 20)
#    0.000    2.400    0.000    6.600    0.000    3.200 
#    0.000   12.000    0.000    2.400    0.000    0.000 
#    0.000    0.000    0.000    0.000    0.000    0.000 
#
# Total GULP energy -223168.266544 kJ/mol
# GULP energy per Si atom -5579.206664 kJ/mol
# Density = 2.213449 g / cm^3
# Si number density = 22.184981 Si / 1000 Ang^3
#
#
#
# Elastic Constant Matrix: (Units=GPa)
#
#
# Indices 1 2 3 4 5 6 
#
# 1 17.2339 26.1471 20.4658 0.0000 0.0000 0.0000
# 2 26.1471 17.2339 20.4658 0.0000 0.0000 0.0000
# 3 20.4658 20.4658 135.4602 0.0000 0.0000 0.0000
# 4 0.0000 0.0000 0.0000 19.8797 0.0000 0.0000
# 5 0.0000 0.0000 0.0000 0.0000 19.8797 0.0000
# 6 0.0000 0.0000 0.0000 0.0000 0.0000 8.7243
#
#
#
# Elastic Compliance Matrix: (Units=1/GPa)
#
#
# Indices 1 2 3 4 5 6 
#
# 1 -0.042655 0.069539 -0.004062 0.000000 0.000000 0.000000
# 2 0.069539 -0.042655 -0.004062 0.000000 0.000000 0.000000
# 3 -0.004062 -0.004062 0.008610 0.000000 0.000000 0.000000
# 4 0.000000 0.000000 0.000000 0.050303 0.000000 0.000000
# 5 0.000000 0.000000 0.000000 0.000000 0.050303 0.000000
# 6 0.000000 0.000000 0.000000 0.000000 0.000000 0.114622
#
#
# Mechanical properties :
#
#
# Convention : Reuss Voigt Hill
#
# Bulk Modulus (GPa) = 21.67757 33.78725 27.73241
# Shear Modulus (GPa) = 160.90793 16.55337 88.73065
#
# Velocity S-wave (km/s) = 8.52570 2.73454 6.33109
# Velocity P-wave (km/s) = 10.33002 5.02326 8.12227
#
# Compressibility (1/GPa) = 0.04613063
#
# Stress axis : x y z
#
# Youngs Moduli (GPa) = -23.44406 -23.44406 116.15003
#
# Poissons Ratio (x) = 1.63027 0.47177
# Poissons Ratio (y) = 1.63027 0.47177
# Poissons Ratio (z) = -0.09522 -0.09522
#
# Static dielectric constant tensor:
#      x y z
#    x 1.857770 0.000000 0.000000 
#    y 0.000000 1.857770 0.000000 
#    z 0.000000 0.000000 1.856820 
# 
# From -- ./inp_files/1281.got.cif
#   From: 2010.05.17/outbox.cif.g08.bks.cpg/sg96_1_cif.got.tgz:1281.got - 2010.06.03 19:52:08.
