data_PCOD9551599
_publ_section_title
;
Structure prediction by ZEFSAII (Michael W. Deem and Ramdas Pophale) SiO2 
 PCOD9551599
Probable space group: I 4 2 2 
;
_chemical_formula_sum "Si O2"
_cell_formula_units_Z 40
_cell_length_a 13.841031
_cell_length_b 13.841031
_cell_length_c 8.965686
_cell_angle_alpha 90.000000
_cell_angle_beta 90.000000
_cell_angle_gamma 90.000000
_cell_volume 1717.593577
_symmetry_space_group_name_H-M "I 4 2 2 "
_symmetry_group_IT_number 97
_symmetry_cell_setting 'tetragonal'
loop_
_space_group_symop_operation_xyz
x,y,z
-y,x,z
-x,-y,z
y,-x,z
x,-y,-z
-x,y,-z
y,x,-z
-y,-x,-z
1/2+x,1/2+y,1/2+z
1/2-y,1/2+x,1/2+z
1/2-x,1/2-y,1/2+z
1/2+y,1/2-x,1/2+z
1/2+x,1/2-y,1/2-z
1/2-x,1/2+y,1/2-z
1/2+y,1/2+x,1/2-z
1/2-y,1/2-x,1/2-z
loop_
_atom_site_type_symbol
_atom_site_label
_atom_site_fract_x
_atom_site_fract_y
_atom_site_fract_z
Si Si1 0.285583 0.285583 0.000000
Si Si2 0.445565 0.786290 0.787856
Si Si3 0.153944 0.346057 0.250000
Si Si4 0.338384 0.500000 0.500000
O O1 0.385173 0.278811 0.094938
O O2 0.195375 0.281896 0.113287
O O3 0.369968 0.869968 0.750000
O O4 0.548346 0.835273 0.823205
O O5 0.479845 0.726267 0.644512
O O6 0.408993 0.408993 0.500000
#
# Coordination Sequence:
#
# PCOD9551599 Si02
#       4
#     8  16   8   8
#     4  12  26  48  76 119 167 218 274 350 430 504
#     4  12  26  46  81 116 163 215 278 348 423 502
#     4  12  27  48  76 119 162 216 276 352 422 505
#     4  11  26  48  75 110 158 218 275 330 419 510
#
# _framework density 23.288397
#
# number of rings (size 3 to 8) (size 9 to 14) (size 15 to 20)
#    0.000    0.200    2.000    6.600    5.600    0.000 
#    0.000    6.000    0.000    2.400    0.000    0.000 
#    0.000    0.000    0.000    0.000    0.000    0.000 
#
# Total GULP energy -111689.511133 kJ/mol
# GULP energy per Si atom -5584.475557 kJ/mol
# Density = 2.323539 g / cm^3
# Si number density = 23.288397 Si / 1000 Ang^3
#
#
#
# Elastic Constant Matrix: (Units=GPa)
#
#
# Indices 1 2 3 4 5 6 
#
# 1 175.6903 42.4628 60.0826 0.0000 0.0000 0.0000
# 2 42.4628 175.6929 60.0833 0.0000 0.0000 0.0000
# 3 60.0826 60.0833 129.4571 0.0000 0.0000 0.0000
# 4 0.0000 0.0000 0.0000 -2.7733 0.0000 0.0000
# 5 0.0000 0.0000 0.0000 0.0000 -2.7601 0.0000
# 6 0.0000 0.0000 0.0000 0.0000 0.0000 40.7977
#
#
#
# Elastic Compliance Matrix: (Units=1/GPa)
#
#
# Indices 1 2 3 4 5 6 
#
# 1 0.006832 -0.000674 -0.002858 0.000000 0.000000 0.000000
# 2 -0.000674 0.006832 -0.002858 0.000000 0.000000 0.000000
# 3 -0.002858 -0.002858 0.010378 0.000000 0.000000 0.000000
# 4 0.000000 0.000000 0.000000 -0.360586 0.000000 0.000000
# 5 0.000000 0.000000 0.000000 0.000000 -0.362300 0.000000
# 6 0.000000 0.000000 0.000000 0.000000 0.000000 0.024511
#
#
# Mechanical properties :
#
#
# Convention : Reuss Voigt Hill
#
# Bulk Modulus (GPa) = 88.79783 89.56641 89.18212
# Shear Modulus (GPa) = -7.60111 28.26698 10.33293
#
# Velocity S-wave (km/s) = -1.80859 3.48771 2.10869
# Velocity P-wave (km/s) = 5.81817 7.40014 6.65632
#
# Compressibility (1/GPa) = 0.01126154
#
# Stress axis : x y z
#
# Youngs Moduli (GPa) = 146.36758 146.36947 96.36169
#
# Poissons Ratio (x) = 0.09863 0.27541
# Poissons Ratio (y) = 0.09862 0.27541
# Poissons Ratio (z) = 0.41834 0.41834
#
# Static dielectric constant tensor:
#      x y z
#    x 2.457100 0.000000 0.000000 
#    y 0.000000 2.456940 0.000000 
#    z 0.000000 0.000000 1.947000 
# 
# From -- ./inp_files/1490.got.cif
#   From: 2010.05.17/outbox.cif.g08.bks.cpg/sg97_1_cif.got.tgz:1490.got - 2010.06.03 19:55:32.
