data_PCOD9551874
_publ_section_title
;
Structure prediction by ZEFSAII (Michael W. Deem and Ramdas Pophale) SiO2 
 PCOD9551874
Probable space group: I 41 2 2
;
_chemical_formula_sum "Si O2"
_cell_formula_units_Z 64
_cell_length_a 10.124024
_cell_length_b 10.124024
_cell_length_c 28.604136
_cell_angle_alpha 90.000000
_cell_angle_beta 90.000000
_cell_angle_gamma 90.000000
_cell_volume 2931.805575
_symmetry_space_group_name_H-M "I 41 2 2"
_symmetry_group_IT_number 98
_symmetry_cell_setting 'tetragonal'
loop_
_space_group_symop_operation_xyz
x,y,z
-y,1/2+x,1/4+z
-x,-y,z
y,1/2-x,1/4+z
x,1/2-y,1/4-z
-x,1/2+y,1/4-z
y,x,-z
-y,-x,-z
1/2+x,1/2+y,1/2+z
1/2-y,x,3/4+z
1/2-x,1/2-y,1/2+z
1/2+y,-x,3/4+z
1/2+x,-y,3/4-z
1/2-x,y,3/4-z
1/2+y,1/2+x,1/2-z
1/2-y,1/2-x,1/2-z
loop_
_atom_site_type_symbol
_atom_site_label
_atom_site_fract_x
_atom_site_fract_y
_atom_site_fract_z
Si Si1 0.250305 0.205738 0.448956
Si Si2 0.354503 0.456922 0.336738
Si Si3 0.937986 0.140468 0.658765
Si Si4 0.030344 0.758511 0.985771
O O1 0.188361 0.188361 0.500000
O O2 0.159999 0.298220 0.417278
O O3 0.390684 0.280258 0.459112
O O4 0.284361 0.065968 0.428256
O O5 0.500000 0.500000 0.349782
O O6 0.250000 0.504462 0.375000
O O7 0.319375 0.503567 0.284202
O O8 0.874406 0.250000 0.625000
O O9 0.837255 0.107415 0.700353
O O10 0.000000 0.000000 0.640531
O O11 0.113217 0.886784 0.000000
#
# Coordination Sequence:
#
# PCOD9551874 Si02
#       4
#    16  16  16  16
#     4   9  19  39  67  89 129 178 225 273 352 415
#     4  11  24  40  65  99 135 179 233 287 344 424
#     4  10  21  43  66  95 132 180 231 284 348 420
#     4  10  22  40  65  96 137 174 224 293 355 413
#
# _framework density 21.829550000000001
#
# number of rings (size 3 to 8) (size 9 to 14) (size 15 to 20)
#    0.000    2.000    0.000    4.500    3.500    4.500 
#   13.500    0.000    0.000    0.000    0.000    0.000 
#    0.000    0.000    0.000    0.000    0.000    0.000 
#
# Total GULP energy -178795.443771 kJ/mol
# GULP energy per Si atom -5587.357618 kJ/mol
# Density = 2.177987 g / cm^3
# Si number density = 21.829550 Si / 1000 Ang^3
#
#
#
# Elastic Constant Matrix: (Units=GPa)
#
#
# Indices 1 2 3 4 5 6 
#
# 1 76.9537 51.6546 31.4839 0.0000 0.0000 0.0000
# 2 51.6546 76.9516 31.4846 0.0000 0.0000 0.0000
# 3 31.4839 31.4846 91.0701 0.0000 0.0000 0.0000
# 4 0.0000 0.0000 0.0000 12.7597 0.0000 0.0000
# 5 0.0000 0.0000 0.0000 0.0000 12.7596 0.0000
# 6 0.0000 0.0000 0.0000 0.0000 0.0000 40.8441
#
#
#
# Elastic Compliance Matrix: (Units=1/GPa)
#
#
# Indices 1 2 3 4 5 6 
#
# 1 0.024444 -0.015084 -0.003236 0.000000 0.000000 0.000000
# 2 -0.015084 0.024445 -0.003236 0.000000 0.000000 0.000000
# 3 -0.003236 -0.003236 0.013218 0.000000 0.000000 0.000000
# 4 0.000000 0.000000 0.000000 0.078371 0.000000 0.000000
# 5 0.000000 0.000000 0.000000 0.000000 0.078372 0.000000
# 6 0.000000 0.000000 0.000000 0.000000 0.000000 0.024483
#
#
# Mechanical properties :
#
#
# Convention : Reuss Voigt Hill
#
# Bulk Modulus (GPa) = 52.64722 52.69128 52.66925
# Shear Modulus (GPa) = 17.07781 21.96283 19.52032
#
# Velocity S-wave (km/s) = 2.80004 3.17536 2.99359
# Velocity P-wave (km/s) = 5.88417 6.13464 6.01071
#
# Compressibility (1/GPa) = 0.01899435
#
# Stress axis : x y z
#
# Youngs Moduli (GPa) = 40.91003 40.90847 75.65486
#
# Poissons Ratio (x) = 0.61708 0.24479
# Poissons Ratio (y) = 0.61710 0.24483
# Poissons Ratio (z) = 0.13237 0.13239
#
# Static dielectric constant tensor:
#      x y z
#    x 1.807130 0.000000 0.000000 
#    y 0.000000 1.807130 0.000000 
#    z 0.000000 0.000000 1.846110 
# 
# From -- ./inp_files/10656.got.cif
#   From: 2010.05.17/outbox.cif.g08.bks.cpg/sg98_6_cif.got.tgz:10656.got - 2010.06.03 20:00:51.
