data_PCOD9551926
_publ_section_title
;
Structure prediction by ZEFSAII (Michael W. Deem and Ramdas Pophale) SiO2 
 PCOD9551926
Probable space group: I 41 2 2
;
_chemical_formula_sum "Si O2"
_cell_formula_units_Z 80
_cell_length_a 11.443658
_cell_length_b 11.443658
_cell_length_c 30.436194
_cell_angle_alpha 90.000000
_cell_angle_beta 90.000000
_cell_angle_gamma 90.000000
_cell_volume 3985.842045
_symmetry_space_group_name_H-M "I 41 2 2"
_symmetry_group_IT_number 98
_symmetry_cell_setting 'tetragonal'
loop_
_space_group_symop_operation_xyz
x,y,z
-y,1/2+x,1/4+z
-x,-y,z
y,1/2-x,1/4+z
x,1/2-y,1/4-z
-x,1/2+y,1/4-z
y,x,-z
-y,-x,-z
1/2+x,1/2+y,1/2+z
1/2-y,x,3/4+z
1/2-x,1/2-y,1/2+z
1/2+y,-x,3/4+z
1/2+x,-y,3/4-z
1/2-x,y,3/4-z
1/2+y,1/2+x,1/2-z
1/2-y,1/2-x,1/2-z
loop_
_atom_site_type_symbol
_atom_site_label
_atom_site_fract_x
_atom_site_fract_y
_atom_site_fract_z
Si Si1 0.853719 0.646282 0.250000
Si Si2 0.827737 0.484598 0.783250
Si Si3 0.292442 0.229963 0.324978
Si Si4 0.365158 0.002767 0.538660
Si Si5 0.870185 0.129816 0.000000
Si Si6 0.753620 0.229116 0.175204
O O1 0.808079 0.723072 0.291484
O O2 0.843009 0.506955 0.258329
O O3 0.919550 0.419550 0.750000
O O4 0.850999 0.608522 0.806906
O O5 0.713795 0.512828 0.754533
O O6 0.798058 0.382969 0.817473
O O7 0.250000 0.215482 0.375000
O O8 0.391990 0.328428 0.320506
O O9 0.500000 0.000000 0.527983
O O10 0.326877 0.882419 0.560079
O O11 0.793579 0.169597 0.041674
O O12 0.777995 0.250000 0.125000
#
# Coordination Sequence:
#
# PCOD9551926 Si02
#       6
#     8  16  16  16   8  16
#     4  11  26  44  69  94 142 182 225 292 344 427
#     4  10  22  45  71  97 137 183 230 286 357 414
#     4  12  26  44  70 105 138 181 241 290 354 423
#     4  11  23  42  68  96 133 182 223 283 351 416
#     4  11  24  46  68  97 134 184 228 277 360 418
#     4  11  24  42  68  98 133 171 229 286 344 417
#
# _framework density 20.07104
#
# number of rings (size 3 to 8) (size 9 to 14) (size 15 to 20)
#    0.000    1.000    5.000    1.800    2.800    8.800 
#    0.000    0.000    0.000    0.000    0.000    0.000 
#    0.000    0.000    0.000    0.000    0.000    0.000 
#
# Total GULP energy -223362.865147 kJ/mol
# GULP energy per Si atom -5584.071629 kJ/mol
# Density = 2.002536 g / cm^3
# Si number density = 20.071040 Si / 1000 Ang^3
#
#
#
# Elastic Constant Matrix: (Units=GPa)
#
#
# Indices 1 2 3 4 5 6 
#
# 1 115.4057 21.1865 22.4293 0.0000 0.0000 0.0000
# 2 21.1865 115.4047 22.4294 0.0000 0.0000 0.0000
# 3 22.4293 22.4294 116.4732 0.0000 0.0000 0.0000
# 4 0.0000 0.0000 0.0000 16.0036 0.0000 0.0000
# 5 0.0000 0.0000 0.0000 0.0000 16.0038 0.0000
# 6 0.0000 0.0000 0.0000 0.0000 0.0000 18.7154
#
#
#
# Elastic Compliance Matrix: (Units=1/GPa)
#
#
# Indices 1 2 3 4 5 6 
#
# 1 0.009214 -0.001399 -0.001505 0.000000 0.000000 0.000000
# 2 -0.001399 0.009215 -0.001505 0.000000 0.000000 0.000000
# 3 -0.001505 -0.001505 0.009165 0.000000 0.000000 0.000000
# 4 0.000000 0.000000 0.000000 0.062486 0.000000 0.000000
# 5 0.000000 0.000000 0.000000 0.000000 0.062485 0.000000
# 6 0.000000 0.000000 0.000000 0.000000 0.000000 0.053432
#
#
# Mechanical properties :
#
#
# Convention : Reuss Voigt Hill
#
# Bulk Modulus (GPa) = 53.25953 53.26377 53.26165
# Shear Modulus (GPa) = 22.61681 28.89377 25.75529
#
# Velocity S-wave (km/s) = 3.36048 3.79829 3.58607
# Velocity P-wave (km/s) = 6.45370 6.76988 6.61368
#
# Compressibility (1/GPa) = 0.01877598
#
# Stress axis : x y z
#
# Youngs Moduli (GPa) = 108.52531 108.52429 109.10709
#
# Poissons Ratio (x) = 0.15184 0.16421
# Poissons Ratio (y) = 0.15184 0.16421
# Poissons Ratio (z) = 0.16333 0.16333
#
# Static dielectric constant tensor:
#      x y z
#    x 1.746110 0.000000 0.000000 
#    y 0.000000 1.746110 0.000000 
#    z 0.000000 0.000000 1.642030 
# 
# From -- ./inp_files/11867.got.cif
#   From: 2010.05.17/outbox.cif.g08.bks.cpg/sg98_6_cif.got.tgz:11867.got - 2010.06.03 20:00:51.
