data_PCOD9551152
_publ_section_title
;
Structure prediction by ZEFSAII (Michael W. Deem and Ramdas Pophale) SiO2 
 PCOD9551152
Probable space group: P 43 21 2
;
_chemical_formula_sum "Si O2"
_cell_formula_units_Z 36
_cell_length_a 9.025265
_cell_length_b 9.025265
_cell_length_c 16.658075
_cell_angle_alpha 90.000000
_cell_angle_beta 90.000000
_cell_angle_gamma 90.000000
_cell_volume 1356.890301
_symmetry_space_group_name_H-M "P 43 21 2"
_symmetry_group_IT_number 96
_symmetry_cell_setting 'tetragonal'
loop_
_space_group_symop_operation_xyz
x,y,z
1/2-y,1/2+x,3/4+z
-x,-y,1/2+z
1/2+y,1/2-x,1/4+z
1/2+x,1/2-y,1/4-z
1/2-x,1/2+y,3/4-z
y,x,-z
-y,-x,1/2-z
loop_
_atom_site_type_symbol
_atom_site_label
_atom_site_fract_x
_atom_site_fract_y
_atom_site_fract_z
Si Si1 0.201724 0.554718 0.370467
Si Si2 0.257825 0.045956 0.608574
Si Si3 0.133762 0.242812 0.135511
Si Si4 0.889722 0.608884 0.296496
Si Si5 0.080020 0.919981 0.750000
O O1 0.358650 0.611473 0.337604
O O2 0.173845 0.380876 0.384253
O O3 0.177720 0.626513 0.458809
O O4 0.063344 0.595343 0.314491
O O5 0.333873 0.900758 0.567269
O O6 0.213998 0.962156 0.690934
O O7 0.294277 0.171945 0.129151
O O8 0.036412 0.290416 0.059821
O O9 0.049400 0.113382 0.185222
#
# Coordination Sequence:
#
# PCOD9551152 Si02
#       5
#     8   8   8   8   4
#     4  11  28  46  72 114 151 198 250 314 384 434
#     4  11  27  46  79 107 152 199 246 311 376 442
#     4  11  25  44  78 103 148 202 247 305 367 447
#     4  11  26  45  74 109 151 203 250 315 371 445
#     4  12  24  50  76 108 154 196 252 308 376 434
#
# _framework density 26.531255000000002
#
# number of rings (size 3 to 8) (size 9 to 14) (size 15 to 20)
#    0.000    0.889    4.444    0.000   15.556    1.778 
#    0.000    0.000    0.000    0.000    0.000    0.000 
#    0.000    0.000    0.000    0.000    0.000    0.000 
#
# Total GULP energy -200483.729880 kJ/mol
# GULP energy per Si atom -5568.992497 kJ/mol
# Density = 2.647087 g / cm^3
# Si number density = 26.531255 Si / 1000 Ang^3
#
#
#
# Elastic Constant Matrix: (Units=GPa)
#
#
# Indices 1 2 3 4 5 6 
#
# 1 68.1854 17.0023 0.5749 0.0000 0.0000 0.0000
# 2 17.0023 68.1848 0.5746 0.0000 0.0000 0.0000
# 3 0.5749 0.5746 105.5756 0.0000 0.0000 0.0000
# 4 0.0000 0.0000 0.0000 29.3941 0.0000 0.0000
# 5 0.0000 0.0000 0.0000 0.0000 29.3942 0.0000
# 6 0.0000 0.0000 0.0000 0.0000 0.0000 79.8939
#
#
#
# Elastic Compliance Matrix: (Units=1/GPa)
#
#
# Indices 1 2 3 4 5 6 
#
# 1 0.015639 -0.003899 -0.000064 0.000000 0.000000 0.000000
# 2 -0.003899 0.015639 -0.000064 0.000000 0.000000 0.000000
# 3 -0.000064 -0.000064 0.009473 0.000000 0.000000 0.000000
# 4 0.000000 0.000000 0.000000 0.034020 0.000000 0.000000
# 5 0.000000 0.000000 0.000000 0.000000 0.034020 0.000000
# 6 0.000000 0.000000 0.000000 0.000000 0.000000 0.012517
#
#
# Mechanical properties :
#
#
# Convention : Reuss Voigt Hill
#
# Bulk Modulus (GPa) = 30.58450 30.91661 30.75056
# Shear Modulus (GPa) = 35.64807 42.65603 39.15205
#
# Velocity S-wave (km/s) = 3.66953 4.01404 3.84565
# Velocity P-wave (km/s) = 5.43200 5.75861 5.59769
#
# Compressibility (1/GPa) = 0.03269630
#
# Stress axis : x y z
#
# Youngs Moduli (GPa) = 63.94398 63.94342 105.56782
#
# Poissons Ratio (x) = 0.24932 0.00675
# Poissons Ratio (y) = 0.24932 0.00674
# Poissons Ratio (z) = 0.00409 0.00408
#
# Static dielectric constant tensor:
#      x y z
#    x 2.154530 0.000000 0.000000 
#    y 0.000000 2.154540 0.000000 
#    z 0.000000 0.000000 2.173350 
# 
# From -- ./inp_files/3454.got.cif
#   From: 2010.05.17/outbox.cif.g08.bks.cpg/sg96_2_cif.got.tgz:3454.got - 2010.06.03 19:52:08.
