data_PCOD9551740
_publ_section_title
;
Structure prediction by ZEFSAII (Michael W. Deem and Ramdas Pophale) SiO2 
 PCOD9551740
Probable space group: I 41 2 2
;
_chemical_formula_sum "Si O2"
_cell_formula_units_Z 88
_cell_length_a 17.859017
_cell_length_b 17.859017
_cell_length_c 16.422410
_cell_angle_alpha 90.000000
_cell_angle_beta 90.000000
_cell_angle_gamma 90.000000
_cell_volume 5237.837153
_symmetry_space_group_name_H-M "I 41 2 2"
_symmetry_group_IT_number 98
_symmetry_cell_setting 'tetragonal'
loop_
_space_group_symop_operation_xyz
x,y,z
-y,1/2+x,1/4+z
-x,-y,z
y,1/2-x,1/4+z
x,1/2-y,1/4-z
-x,1/2+y,1/4-z
y,x,-z
-y,-x,-z
1/2+x,1/2+y,1/2+z
1/2-y,x,3/4+z
1/2-x,1/2-y,1/2+z
1/2+y,-x,3/4+z
1/2+x,-y,3/4-z
1/2-x,y,3/4-z
1/2+y,1/2+x,1/2-z
1/2-y,1/2-x,1/2-z
loop_
_atom_site_type_symbol
_atom_site_label
_atom_site_fract_x
_atom_site_fract_y
_atom_site_fract_z
Si Si1 0.101037 0.683196 0.061321
Si Si2 0.250000 0.224698 0.875000
Si Si3 0.466077 0.422539 0.720390
Si Si4 0.372248 0.035336 0.687412
Si Si5 0.121349 0.283462 0.969370
Si Si6 0.795121 0.120942 0.067134
O O1 0.080503 0.750000 0.125000
O O2 0.180979 0.652740 0.094901
O O3 0.036607 0.621358 0.068490
O O4 0.100565 0.713625 0.968307
O O5 0.181501 0.277786 0.898022
O O6 0.226902 0.169487 0.801882
O O7 0.500000 0.500000 0.755893
O O8 0.406127 0.445147 0.650838
O O9 0.426068 0.359394 0.775670
O O10 0.433356 0.066645 0.750000
O O11 0.293119 0.074861 0.708053
O O12 0.350014 0.949313 0.694141
O O13 0.818199 0.181802 0.000000
#
# Coordination Sequence:
#
# PCOD9551740 Si02
#       6
#    16   8  16  16  16  16
#     4  10  20  32  48  71 106 141 179 214 258 318
#     4  10  20  32  52  76 108 144 186 208 274 312
#     4  12  23  32  48  79 114 148 176 209 267 333
#     4  12  20  28  47  76 117 147 171 203 265 330
#     4  11  20  34  50  77 110 146 175 225 258 334
#     4  10  20  31  46  70 104 145 179 215 258 318
#
# _framework density 16.800827000000002
#
# number of rings (size 3 to 8) (size 9 to 14) (size 15 to 20)
#    0.000    1.091    7.273    2.182    1.273    0.000 
#    0.000    0.000    0.000    0.000   11.818    2.545 
#    0.000    0.000    0.000    0.000    0.000    0.000 
#
# Total GULP energy -244941.091893 kJ/mol
# GULP energy per Si atom -5566.842998 kJ/mol
# Density = 1.676259 g / cm^3
# Si number density = 16.800827 Si / 1000 Ang^3
#
#
#
# Elastic Constant Matrix: (Units=GPa)
#
#
# Indices 1 2 3 4 5 6 
#
# 1 91.2153 35.9917 30.6615 0.0000 0.0000 0.0000
# 2 35.9917 91.2153 30.6610 0.0000 0.0000 0.0000
# 3 30.6615 30.6610 34.5205 0.0000 0.0000 0.0000
# 4 0.0000 0.0000 0.0000 25.7482 0.0000 0.0000
# 5 0.0000 0.0000 0.0000 0.0000 25.7481 0.0000
# 6 0.0000 0.0000 0.0000 0.0000 0.0000 33.3685
#
#
#
# Elastic Compliance Matrix: (Units=1/GPa)
#
#
# Indices 1 2 3 4 5 6 
#
# 1 0.015928 -0.002180 -0.012211 0.000000 0.000000 0.000000
# 2 -0.002180 0.015928 -0.012210 0.000000 0.000000 0.000000
# 3 -0.012211 -0.012210 0.050659 0.000000 0.000000 0.000000
# 4 0.000000 0.000000 0.000000 0.038838 0.000000 0.000000
# 5 0.000000 0.000000 0.000000 0.000000 0.038838 0.000000
# 6 0.000000 0.000000 0.000000 0.000000 0.000000 0.029968
#
#
# Mechanical properties :
#
#
# Convention : Reuss Voigt Hill
#
# Bulk Modulus (GPa) = 34.11576 45.73103 39.92340
# Shear Modulus (GPa) = 19.75247 24.94875 22.35061
#
# Velocity S-wave (km/s) = 3.43255 3.85771 3.65132
# Velocity P-wave (km/s) = 6.00499 6.86449 6.44907
#
# Compressibility (1/GPa) = 0.02931196
#
# Stress axis : x y z
#
# Youngs Moduli (GPa) = 62.78255 62.78342 19.73968
#
# Poissons Ratio (x) = 0.13689 0.24104
# Poissons Ratio (y) = 0.13689 0.24103
# Poissons Ratio (z) = 0.76663 0.76661
#
# Static dielectric constant tensor:
#      x y z
#    x 1.635270 0.000000 0.000000 
#    y 0.000000 1.635260 0.000000 
#    z 0.000000 0.000000 1.599520 
# 
# From -- ./inp_files/6548.got.cif
#   From: 2010.05.17/outbox.cif.g08.bks.cpg/sg98_4_cif.got.tgz:6548.got - 2010.06.03 20:00:51.
