data_PCOD9551499
_publ_section_title
;
Structure prediction by ZEFSAII (Michael W. Deem and Ramdas Pophale) SiO2 
 PCOD9551499
Probable space group: I 4 2 2 
;
_chemical_formula_sum "Si O2"
_cell_formula_units_Z 88
_cell_length_a 17.980563
_cell_length_b 17.980563
_cell_length_c 14.492451
_cell_angle_alpha 90.000000
_cell_angle_beta 90.000000
_cell_angle_gamma 90.000000
_cell_volume 4685.418767
_symmetry_space_group_name_H-M "I 4 2 2 "
_symmetry_group_IT_number 97
_symmetry_cell_setting 'tetragonal'
loop_
_space_group_symop_operation_xyz
x,y,z
-y,x,z
-x,-y,z
y,-x,z
x,-y,-z
-x,y,-z
y,x,-z
-y,-x,-z
1/2+x,1/2+y,1/2+z
1/2-y,1/2+x,1/2+z
1/2-x,1/2-y,1/2+z
1/2+y,1/2-x,1/2+z
1/2+x,1/2-y,1/2-z
1/2-x,1/2+y,1/2-z
1/2+y,1/2+x,1/2-z
1/2-y,1/2-x,1/2-z
loop_
_atom_site_type_symbol
_atom_site_label
_atom_site_fract_x
_atom_site_fract_y
_atom_site_fract_z
Si Si1 0.120519 0.721955 0.314067
Si Si2 0.245898 0.200123 0.602600
Si Si3 0.500000 0.838515 0.500000
Si Si4 0.517893 0.725408 0.332092
Si Si5 0.412773 0.843968 0.012743
Si Si6 0.662605 0.641023 0.390052
O O1 0.164547 0.664547 0.250000
O O2 0.175629 0.792688 0.329802
O O3 0.041499 0.739717 0.266584
O O4 0.116174 0.684131 0.413606
O O5 0.215002 0.215002 0.500000
O O6 0.292983 0.124748 0.591914
O O7 0.302483 0.268043 0.623549
O O8 0.521899 0.786926 0.413299
O O9 0.571675 0.886396 0.526773
O O10 0.586242 0.669327 0.346869
O O11 0.438615 0.687063 0.349878
O O12 0.500000 0.838697 0.000000
O O13 0.644774 0.644774 0.500000
#
# Coordination Sequence:
#
# PCOD9551499 Si02
#       6
#    16  16   8  16  16  16
#     4  11  21  38  62  88 118 159 218 274 303 373
#     4   9  18  37  62  82 112 166 215 248 310 391
#     4  12  19  38  62  87 124 172 210 250 333 398
#     4  12  22  35  61  91 127 160 210 265 326 385
#     4  11  23  39  61  88 125 167 211 260 326 390
#     4  11  19  34  57  88 119 164 202 252 321 398
#
# _framework density 18.781673000000001
#
# number of rings (size 3 to 8) (size 9 to 14) (size 15 to 20)
#    0.000    1.091    7.273    1.364    0.000    1.818 
#    0.000    1.818    0.000    0.000    0.000    0.000 
#    0.000   17.818    0.000    0.000    0.000    0.000 
#
# Total GULP energy -245373.135204 kJ/mol
# GULP energy per Si atom -5576.662164 kJ/mol
# Density = 1.873893 g / cm^3
# Si number density = 18.781673 Si / 1000 Ang^3
#
#
#
# Elastic Constant Matrix: (Units=GPa)
#
#
# Indices 1 2 3 4 5 6 
#
# 1 91.7710 43.1620 18.4993 0.0000 0.0000 0.0000
# 2 43.1620 91.7710 18.4993 0.0000 0.0000 0.0000
# 3 18.4993 18.4993 66.2278 0.0000 0.0000 0.0000
# 4 0.0000 0.0000 0.0000 27.1655 0.0000 0.0000
# 5 0.0000 0.0000 0.0000 0.0000 27.1655 0.0000
# 6 0.0000 0.0000 0.0000 0.0000 0.0000 25.6988
#
#
#
# Elastic Compliance Matrix: (Units=1/GPa)
#
#
# Indices 1 2 3 4 5 6 
#
# 1 0.014299 -0.006273 -0.002242 0.000000 0.000000 0.000000
# 2 -0.006273 0.014299 -0.002242 0.000000 0.000000 0.000000
# 3 -0.002242 -0.002242 0.016352 0.000000 0.000000 0.000000
# 4 0.000000 0.000000 0.000000 0.036811 0.000000 0.000000
# 5 0.000000 0.000000 0.000000 0.000000 0.036811 0.000000
# 6 0.000000 0.000000 0.000000 0.000000 0.000000 0.038912
#
#
# Mechanical properties :
#
#
# Convention : Reuss Voigt Hill
#
# Bulk Modulus (GPa) = 42.66924 45.56564 44.11744
# Shear Modulus (GPa) = 26.76501 27.31322 27.03912
#
# Velocity S-wave (km/s) = 3.77909 3.81760 3.79839
# Velocity P-wave (km/s) = 6.46606 6.61403 6.54046
#
# Compressibility (1/GPa) = 0.02343609
#
# Stress axis : x y z
#
# Youngs Moduli (GPa) = 69.93465 69.93465 61.15531
#
# Poissons Ratio (x) = 0.43872 0.13710
# Poissons Ratio (y) = 0.43872 0.13710
# Poissons Ratio (z) = 0.15678 0.15678
#
# Static dielectric constant tensor:
#      x y z
#    x 1.664570 0.000000 0.000000 
#    y 0.000000 1.664570 0.000000 
#    z 0.000000 0.000000 1.777940 
# 
# From -- ./inp_files/4865.got.cif
#   From: 2010.05.17/outbox.cif.g08.bks.cpg/sg97_3_cif.got.tgz:4865.got - 2010.06.03 19:55:32.
