data_PCOD9551194
_publ_section_title
;
Structure prediction by ZEFSAII (Michael W. Deem and Ramdas Pophale) SiO2 
 PCOD9551194
Probable space group: P 43 21 2
;
_chemical_formula_sum "Si O2"
_cell_formula_units_Z 40
_cell_length_a 9.000000
_cell_length_b 9.000000
_cell_length_c 27.000000
_cell_angle_alpha 90.000000
_cell_angle_beta 90.000000
_cell_angle_gamma 90.000000
_cell_volume 2187.000000
_symmetry_space_group_name_H-M "P 43 21 2"
_symmetry_group_IT_number 96
_symmetry_cell_setting 'tetragonal'
loop_
_space_group_symop_operation_xyz
x,y,z
1/2-y,1/2+x,3/4+z
-x,-y,1/2+z
1/2+y,1/2-x,1/4+z
1/2+x,1/2-y,1/4-z
1/2-x,1/2+y,3/4-z
y,x,-z
-y,-x,1/2-z
loop_
_atom_site_type_symbol
_atom_site_label
_atom_site_fract_x
_atom_site_fract_y
_atom_site_fract_z
Si Si1 0.128224 0.253961 0.790534
Si Si2 0.374824 0.407637 0.722322
Si Si3 0.724459 0.041828 0.264118
Si Si4 0.521938 0.105006 0.696341
Si Si5 0.653479 0.959252 0.605988
O O1 0.252628 0.344240 0.760514
O O2 0.968498 0.329788 0.779753
O O3 0.142549 0.279376 0.849808
O O4 0.154426 0.085385 0.775243
O O5 0.462240 0.537761 0.750000
O O6 0.487127 0.274832 0.708009
O O7 0.285721 0.460058 0.673646
O O8 0.807112 0.192889 0.250000
O O9 0.630047 0.065550 0.314089
O O10 0.615130 0.986537 0.220452
O O11 0.548432 0.069759 0.638138
#
# Coordination Sequence:
#
# PCOD9551194 Si02
#       5
#     8   8   8   8   8
#     4   9  23  40  59  93 123 158 211 254 319 371
#     4  11  22  43  65  91 128 168 209 268 319 372
#     4  11  22  39  65  90 124 166 204 272 308 367
#     4   9  23  42  59  91 126 164 203 263 313 379
#     4  10  21  40  64  93 121 165 212 258 305 396
#
# _framework density 18.289895000000001
#
# number of rings (size 3 to 8) (size 9 to 14) (size 15 to 20)
#    1.200    0.800    2.000    0.600    5.600    0.800 
#   14.400    0.000    0.000    0.000    0.000    0.000 
#    0.000    0.000    0.000    0.000    0.000    0.000 
#
# Total GULP energy -222734.023133 kJ/mol
# GULP energy per Si atom -5568.350578 kJ/mol
# Density = 1.824827 g / cm^3
# Si number density = 18.289895 Si / 1000 Ang^3
#
#
#
# Elastic Constant Matrix: (Units=GPa)
#
#
# Indices 1 2 3 4 5 6 
#
# 1 62.5537 46.8186 45.8661 0.0000 0.0000 0.0000
# 2 46.8186 62.5488 45.8646 0.0000 0.0000 0.0000
# 3 45.8661 45.8646 133.4070 0.0000 0.0000 0.0000
# 4 0.0000 0.0000 0.0000 26.2798 0.0000 0.0000
# 5 0.0000 0.0000 0.0000 0.0000 26.2795 0.0000
# 6 0.0000 0.0000 0.0000 0.0000 0.0000 41.7215
#
#
#
# Elastic Compliance Matrix: (Units=1/GPa)
#
#
# Indices 1 2 3 4 5 6 
#
# 1 0.038204 -0.025357 -0.004417 0.000000 0.000000 0.000000
# 2 -0.025357 0.038207 -0.004417 0.000000 0.000000 0.000000
# 3 -0.004417 -0.004417 0.010533 0.000000 0.000000 0.000000
# 4 0.000000 0.000000 0.000000 0.038052 0.000000 0.000000
# 5 0.000000 0.000000 0.000000 0.000000 0.038052 0.000000
# 6 0.000000 0.000000 0.000000 0.000000 0.000000 0.023968
#
#
# Mechanical properties :
#
#
# Convention : Reuss Voigt Hill
#
# Bulk Modulus (GPa) = 53.87771 59.51202 56.69486
# Shear Modulus (GPa) = 19.11417 26.85349 22.98383
#
# Velocity S-wave (km/s) = 3.23626 3.83589 3.54876
# Velocity P-wave (km/s) = 6.59440 7.22686 6.91786
#
# Compressibility (1/GPa) = 0.01856055
#
# Stress axis : x y z
#
# Youngs Moduli (GPa) = 26.17555 26.17344 94.93875
#
# Poissons Ratio (x) = 0.66368 0.41934
# Poissons Ratio (y) = 0.66374 0.41938
# Poissons Ratio (z) = 0.11562 0.11562
#
# Static dielectric constant tensor:
#      x y z
#    x 1.638010 0.000000 0.000000 
#    y 0.000000 1.638010 0.000000 
#    z 0.000000 0.000000 1.602860 
# 
# From -- ./inp_files/4132.got.cif
#   From: 2010.05.17/outbox.ucp.g08.bks.cvg/sg96_3_cif.got.tgz:4132.got - 2010.06.11 10:37:29.
