data_PCOD9551426
_publ_section_title
;
Structure prediction by ZEFSAII (Michael W. Deem and Ramdas Pophale) SiO2 
 PCOD9551426
Probable space group: I 4 2 2 
;
_chemical_formula_sum "Si O2"
_cell_formula_units_Z 48
_cell_length_a 16.648975
_cell_length_b 16.648975
_cell_length_c 8.120080
_cell_angle_alpha 90.000000
_cell_angle_beta 90.000000
_cell_angle_gamma 90.000000
_cell_volume 2250.791728
_symmetry_space_group_name_H-M "I 4 2 2 "
_symmetry_group_IT_number 97
_symmetry_cell_setting 'tetragonal'
loop_
_space_group_symop_operation_xyz
x,y,z
-y,x,z
-x,-y,z
y,-x,z
x,-y,-z
-x,y,-z
y,x,-z
-y,-x,-z
1/2+x,1/2+y,1/2+z
1/2-y,1/2+x,1/2+z
1/2-x,1/2-y,1/2+z
1/2+y,1/2-x,1/2+z
1/2+x,1/2-y,1/2-z
1/2-x,1/2+y,1/2-z
1/2+y,1/2+x,1/2-z
1/2-y,1/2-x,1/2-z
loop_
_atom_site_type_symbol
_atom_site_label
_atom_site_fract_x
_atom_site_fract_y
_atom_site_fract_z
Si Si1 0.281609 0.658829 0.221420
Si Si2 0.661181 0.964079 0.175120
Si Si3 0.271084 0.571359 0.893216
O O1 0.246461 0.746461 0.250000
O O2 0.238305 0.596055 0.341122
O O3 0.377016 0.668078 0.216584
O O4 0.248499 0.630858 0.042224
O O5 0.588686 0.911315 0.250000
O O6 0.696485 0.033280 0.295949
O O7 0.638735 0.000000 0.000000
O O8 0.310765 0.500000 0.000000
#
# Coordination Sequence:
#
# PCOD9551426 Si02
#       3
#    16  16  16
#     4   9  19  37  63  89 116 166 224 268 309 376
#     4  10  22  40  62  93 130 172 220 273 336 400
#     4   9  19  36  60  91 125 154 204 271 326 377
#
# _framework density 21.325828000000001
#
# number of rings (size 3 to 8) (size 9 to 14) (size 15 to 20)
#    0.000    2.667    0.000    0.000    0.000   14.667 
#    0.000   13.333    0.000  137.000    0.000   21.000 
#    0.000    0.000    0.000    0.000    0.000    0.000 
#
# Total GULP energy -133638.954895 kJ/mol
# GULP energy per Si atom -5568.289787 kJ/mol
# Density = 2.127729 g / cm^3
# Si number density = 21.325828 Si / 1000 Ang^3
#
#
#
# Elastic Constant Matrix: (Units=GPa)
#
#
# Indices 1 2 3 4 5 6 
#
# 1 93.9272 80.3585 60.4173 0.0000 0.0000 0.0000
# 2 80.3585 93.9257 60.4216 0.0000 0.0000 0.0000
# 3 60.4173 60.4216 72.3631 0.0000 0.0000 0.0000
# 4 0.0000 0.0000 0.0000 38.6501 0.0000 0.0000
# 5 0.0000 0.0000 0.0000 0.0000 38.6499 0.0000
# 6 0.0000 0.0000 0.0000 0.0000 0.0000 21.3354
#
#
#
# Elastic Compliance Matrix: (Units=1/GPa)
#
#
# Indices 1 2 3 4 5 6 
#
# 1 0.043660 -0.030039 -0.011371 0.000000 0.000000 0.000000
# 2 -0.030039 0.043669 -0.011383 0.000000 0.000000 0.000000
# 3 -0.011371 -0.011383 0.032817 0.000000 0.000000 0.000000
# 4 0.000000 0.000000 0.000000 0.025873 0.000000 0.000000
# 5 0.000000 0.000000 0.000000 0.000000 0.025873 0.000000
# 6 0.000000 0.000000 0.000000 0.000000 0.000000 0.046870
#
#
# Mechanical properties :
#
#
# Convention : Reuss Voigt Hill
#
# Bulk Modulus (GPa) = 68.67389 73.62343 71.14866
# Shear Modulus (GPa) = 15.18827 23.66166 19.42496
#
# Velocity S-wave (km/s) = 2.67160 3.33458 3.02133
# Velocity P-wave (km/s) = 6.46442 7.03022 6.75325
#
# Compressibility (1/GPa) = 0.01456158
#
# Stress axis : x y z
#
# Youngs Moduli (GPa) = 22.90424 22.89959 30.47184
#
# Poissons Ratio (x) = 0.68788 0.34649
# Poissons Ratio (y) = 0.68802 0.34685
# Poissons Ratio (z) = 0.26044 0.26066
#
# Static dielectric constant tensor:
#      x y z
#    x 1.856110 0.000000 0.000000 
#    y 0.000000 1.856110 0.000000 
#    z 0.000000 0.000000 1.866910 
# 
# From -- ./inp_files/1656.got.cif
#   From: 2010.05.17/outbox.cif.g08.bks.cpg/sg97_1_cif.got.tgz:1656.got - 2010.06.03 19:55:32.
