data_PCOD9551527
_publ_section_title
;
Structure prediction by ZEFSAII (Michael W. Deem and Ramdas Pophale) SiO2 
 PCOD9551527
Probable space group: I 4 2 2 
;
_chemical_formula_sum "Si O2"
_cell_formula_units_Z 64
_cell_length_a 11.702787
_cell_length_b 11.702787
_cell_length_c 21.746225
_cell_angle_alpha 90.000000
_cell_angle_beta 90.000000
_cell_angle_gamma 90.000000
_cell_volume 2978.259107
_symmetry_space_group_name_H-M "I 4 2 2 "
_symmetry_group_IT_number 97
_symmetry_cell_setting 'tetragonal'
loop_
_space_group_symop_operation_xyz
x,y,z
-y,x,z
-x,-y,z
y,-x,z
x,-y,-z
-x,y,-z
y,x,-z
-y,-x,-z
1/2+x,1/2+y,1/2+z
1/2-y,1/2+x,1/2+z
1/2-x,1/2-y,1/2+z
1/2+y,1/2-x,1/2+z
1/2+x,1/2-y,1/2-z
1/2-x,1/2+y,1/2-z
1/2+y,1/2+x,1/2-z
1/2-y,1/2-x,1/2-z
loop_
_atom_site_type_symbol
_atom_site_label
_atom_site_fract_x
_atom_site_fract_y
_atom_site_fract_z
Si Si1 0.961761 0.818732 0.860032
Si Si2 0.979146 0.191587 0.394960
Si Si3 0.688764 0.997175 0.738270
Si Si4 0.404351 0.926577 0.937228
O O1 0.930331 0.709659 0.899071
O O2 0.085044 0.869947 0.874888
O O3 0.973691 0.784057 0.789029
O O4 0.949804 0.297540 0.439605
O O5 0.097433 0.121476 0.402012
O O6 0.988338 0.252362 0.327998
O O7 0.625566 0.874435 0.750000
O O8 0.591291 0.091291 0.750000
O O9 0.500000 0.000000 0.901482
O O10 0.387478 0.000000 0.000000
#
# Coordination Sequence:
#
# PCOD9551527 Si02
#       4
#    16  16  16  16
#     4  11  25  43  68 105 143 183 236 296 361 438
#     4  11  25  45  74 110 149 192 246 307 374 443
#     4  11  22  37  68 108 149 191 236 290 363 446
#     4  11  26  47  71 100 134 189 246 297 365 432
#
# _framework density 21.489063999999999
#
# number of rings (size 3 to 8) (size 9 to 14) (size 15 to 20)
#    0.000    1.000    2.500    3.000    7.000    5.000 
#    4.500    1.250    0.000    6.000    0.000    0.000 
#    0.000    0.000    0.000    0.000    0.000    0.000 
#
# Total GULP energy -178771.935350 kJ/mol
# GULP energy per Si atom -5586.622980 kJ/mol
# Density = 2.144015 g / cm^3
# Si number density = 21.489064 Si / 1000 Ang^3
#
#
#
# Elastic Constant Matrix: (Units=GPa)
#
#
# Indices 1 2 3 4 5 6 
#
# 1 221.9215 9.2294 49.7345 0.0000 0.0000 0.0000
# 2 9.2294 221.9161 49.7350 0.0000 0.0000 0.0000
# 3 49.7345 49.7350 113.1221 0.0000 0.0000 0.0000
# 4 0.0000 0.0000 0.0000 4.4939 0.0000 0.0000
# 5 0.0000 0.0000 0.0000 0.0000 4.5131 0.0000
# 6 0.0000 0.0000 0.0000 0.0000 0.0000 69.9984
#
#
#
# Elastic Compliance Matrix: (Units=1/GPa)
#
#
# Indices 1 2 3 4 5 6 
#
# 1 0.005019 0.000317 -0.002346 0.000000 0.000000 0.000000
# 2 0.000317 0.005019 -0.002346 0.000000 0.000000 0.000000
# 3 -0.002346 -0.002346 0.010903 0.000000 0.000000 0.000000
# 4 0.000000 0.000000 0.000000 0.222523 0.000000 0.000000
# 5 0.000000 0.000000 0.000000 0.000000 0.221576 0.000000
# 6 0.000000 0.000000 0.000000 0.000000 0.000000 0.014286
#
#
# Mechanical properties :
#
#
# Convention : Reuss Voigt Hill
#
# Bulk Modulus (GPa) = 82.02978 86.03970 84.03474
# Shear Modulus (GPa) = 10.15974 45.68514 27.92244
#
# Velocity S-wave (km/s) = 2.17672 4.61583 3.60860
# Velocity P-wave (km/s) = 6.67631 8.27850 7.52020
#
# Compressibility (1/GPa) = 0.01219070
#
# Stress axis : x y z
#
# Youngs Moduli (GPa) = 199.25733 199.25144 91.71982
#
# Poissons Ratio (x) = -0.06317 0.21516
# Poissons Ratio (y) = -0.06317 0.21517
# Poissons Ratio (z) = 0.46743 0.46743
#
# Static dielectric constant tensor:
#      x y z
#    x 1.786210 0.000000 0.000000 
#    y 0.000000 1.786200 0.000000 
#    z 0.000000 0.000000 1.817480 
# 
# From -- ./inp_files/6293.got.cif
#   From: 2010.05.17/outbox.cif.g08.bks.cpg/sg97_4_cif.got.tgz:6293.got - 2010.06.03 19:55:32.
