data_PCOD9551147
_publ_section_title
;
Structure prediction by ZEFSAII (Michael W. Deem and Ramdas Pophale) SiO2 
 PCOD9551147
Probable space group: P 43 21 2
;
_chemical_formula_sum "Si O2"
_cell_formula_units_Z 48
_cell_length_a 8.236284
_cell_length_b 8.236284
_cell_length_c 28.865072
_cell_angle_alpha 90.000000
_cell_angle_beta 90.000000
_cell_angle_gamma 90.000000
_cell_volume 1958.101823
_symmetry_space_group_name_H-M "P 43 21 2"
_symmetry_group_IT_number 96
_symmetry_cell_setting 'tetragonal'
loop_
_space_group_symop_operation_xyz
x,y,z
1/2-y,1/2+x,3/4+z
-x,-y,1/2+z
1/2+y,1/2-x,1/4+z
1/2+x,1/2-y,1/4-z
1/2-x,1/2+y,3/4-z
y,x,-z
-y,-x,1/2-z
loop_
_atom_site_type_symbol
_atom_site_label
_atom_site_fract_x
_atom_site_fract_y
_atom_site_fract_z
Si Si1 0.840781 0.663985 0.753533
Si Si2 0.194796 0.805205 0.250000
Si Si3 0.998995 0.998995 0.500000
Si Si4 0.652340 0.048892 0.157659
Si Si5 0.516518 0.929861 0.064562
Si Si6 0.093470 0.200100 0.910875
Si Si7 0.939620 0.715457 0.314664
O O1 0.688622 0.539909 0.751855
O O2 0.976099 0.574064 0.723205
O O3 0.779031 0.816738 0.724183
O O4 0.918225 0.698894 0.803353
O O5 0.266997 0.934708 0.288679
O O6 0.114974 0.697983 0.291585
O O7 0.928535 0.922954 0.453087
O O8 0.752278 0.216273 0.161473
O O9 0.464455 0.102845 0.167569
O O10 0.640624 0.973141 0.106286
O O11 0.334642 0.952474 0.082320
O O12 0.067642 0.157319 0.857031
#
# Coordination Sequence:
#
# PCOD9551147 Si02
#       7
#     8   4   4   8   8   8   8
#     4  12  24  45  72 112 139 200 241 308 377 443
#     4  12  25  50  67 112 160 186 247 322 387 452
#     4  12  25  42  73 108 144 190 249 294 375 458
#     4  11  24  47  76 110 148 192 256 307 374 463
#     4  11  25  46  74 104 150 201 240 316 381 444
#     4  11  24  49  76 101 148 200 252 302 377 459
#     4  11  25  46  74 107 149 191 247 316 376 449
#
# _framework density 24.513536999999999
#
# number of rings (size 3 to 8) (size 9 to 14) (size 15 to 20)
#    0.000    0.667    5.000    2.500    2.333    1.333 
#    3.000    0.000    0.000    0.000    0.000    0.000 
#    0.000    0.000    0.000    0.000    0.000    0.000 
#
# Total GULP energy -267306.056634 kJ/mol
# GULP energy per Si atom -5568.876180 kJ/mol
# Density = 2.445774 g / cm^3
# Si number density = 24.513537 Si / 1000 Ang^3
#
#
#
# Elastic Constant Matrix: (Units=GPa)
#
#
# Indices 1 2 3 4 5 6 
#
# 1 41.6467 36.5882 48.2567 0.0000 0.0000 0.0000
# 2 36.5882 41.6470 48.2572 0.0000 0.0000 0.0000
# 3 48.2567 48.2572 168.7359 0.0000 0.0000 0.0000
# 4 0.0000 0.0000 0.0000 34.0387 0.0000 0.0000
# 5 0.0000 0.0000 0.0000 0.0000 34.0385 0.0000
# 6 0.0000 0.0000 0.0000 0.0000 0.0000 40.2674
#
#
#
# Elastic Compliance Matrix: (Units=1/GPa)
#
#
# Indices 1 2 3 4 5 6 
#
# 1 0.108716 -0.088966 -0.005648 0.000000 0.000000 0.000000
# 2 -0.088966 0.108716 -0.005649 0.000000 0.000000 0.000000
# 3 -0.005648 -0.005649 0.009157 0.000000 0.000000 0.000000
# 4 0.000000 0.000000 0.000000 0.029378 0.000000 0.000000
# 5 0.000000 0.000000 0.000000 0.000000 0.029378 0.000000
# 6 0.000000 0.000000 0.000000 0.000000 0.000000 0.024834
#
#
# Mechanical properties :
#
#
# Convention : Reuss Voigt Hill
#
# Bulk Modulus (GPa) = 38.36733 57.58155 47.97444
# Shear Modulus (GPa) = 9.62661 29.59742 19.61202
#
# Velocity S-wave (km/s) = 1.98383 3.47852 2.83158
# Velocity P-wave (km/s) = 4.57525 6.29874 5.50487
#
# Compressibility (1/GPa) = 0.02606384
#
# Stress axis : x y z
#
# Youngs Moduli (GPa) = 9.19827 9.19828 109.20419
#
# Poissons Ratio (x) = 0.81833 0.61678
# Poissons Ratio (y) = 0.81833 0.61685
# Poissons Ratio (z) = 0.05195 0.05196
#
# Static dielectric constant tensor:
#      x y z
#    x 2.062670 0.000000 0.000000 
#    y 0.000000 2.062670 0.000000 
#    z 0.000000 0.000000 1.989240 
# 
# From -- ./inp_files/4541.got.cif
#   From: 2010.05.17/outbox.cif.g08.bks.cpg/sg96_3_cif.got.tgz:4541.got - 2010.06.03 19:52:08.
