data_PCOD9551387
_publ_section_title
;
Structure prediction by ZEFSAII (Michael W. Deem and Ramdas Pophale) SiO2 
 PCOD9551387
Probable space group: I 4 2 2 
;
_chemical_formula_sum "Si O2"
_cell_formula_units_Z 72
_cell_length_a 14.599803
_cell_length_b 14.599803
_cell_length_c 14.638472
_cell_angle_alpha 90.000000
_cell_angle_beta 90.000000
_cell_angle_gamma 90.000000
_cell_volume 3120.252486
_symmetry_space_group_name_H-M "I 4 2 2 "
_symmetry_group_IT_number 97
_symmetry_cell_setting 'tetragonal'
loop_
_space_group_symop_operation_xyz
x,y,z
-y,x,z
-x,-y,z
y,-x,z
x,-y,-z
-x,y,-z
y,x,-z
-y,-x,-z
1/2+x,1/2+y,1/2+z
1/2-y,1/2+x,1/2+z
1/2-x,1/2-y,1/2+z
1/2+y,1/2-x,1/2+z
1/2+x,1/2-y,1/2-z
1/2-x,1/2+y,1/2-z
1/2+y,1/2+x,1/2-z
1/2-y,1/2-x,1/2-z
loop_
_atom_site_type_symbol
_atom_site_label
_atom_site_fract_x
_atom_site_fract_y
_atom_site_fract_z
Si Si1 0.045970 0.706698 0.403255
Si Si2 0.644465 0.020218 0.891314
Si Si3 0.145097 0.987962 0.889409
Si Si4 0.860774 0.318535 0.657639
Si Si5 0.706715 0.706715 0.000000
O O1 0.095791 0.615502 0.368150
O O2 0.119962 0.783095 0.432393
O O3 0.000000 0.679267 0.500000
O O4 0.957112 0.735226 0.345814
O O5 0.750679 0.027601 0.865186
O O6 0.612116 0.925573 0.846960
O O7 0.636315 0.000000 0.000000
O O8 0.081151 0.904243 0.858297
O O9 0.143257 0.000000 0.000000
O O10 0.805308 0.305308 0.750000
O O11 0.801667 0.292516 0.568215
#
# Coordination Sequence:
#
# PCOD9551387 Si02
#       5
#    16  16  16  16   8
#     4  10  21  38  64  94 133 181 228 286 340 417
#     4  11  19  31  62  88 129 175 228 269 337 411
#     4   8  16  27  43  77 124 168 214 261 317 391
#     4  11  25  43  63 101 139 179 234 295 354 428
#     4  10  22  42  70  93 139 182 236 284 346 424
#
# _framework density 23.075054999999999
#
# number of rings (size 3 to 8) (size 9 to 14) (size 15 to 20)
#    0.000    2.000    4.444    1.333    3.111    1.778 
#    4.000    0.000    0.000   27.000    0.000    0.000 
#    0.000    0.000    0.000    0.000    0.000    0.000 
#
# Total GULP energy -200960.259158 kJ/mol
# GULP energy per Si atom -5582.229421 kJ/mol
# Density = 2.302254 g / cm^3
# Si number density = 23.075055 Si / 1000 Ang^3
#
#
#
# Elastic Constant Matrix: (Units=GPa)
#
#
# Indices 1 2 3 4 5 6 
#
# 1 101.2035 39.8292 9.0712 0.0000 0.0000 0.0000
# 2 39.8292 101.2035 9.0712 0.0000 0.0000 0.0000
# 3 9.0712 9.0712 86.9391 0.0000 0.0000 0.0000
# 4 0.0000 0.0000 0.0000 15.0680 0.0000 0.0000
# 5 0.0000 0.0000 0.0000 0.0000 15.0680 0.0000
# 6 0.0000 0.0000 0.0000 0.0000 0.0000 23.8559
#
#
#
# Elastic Compliance Matrix: (Units=1/GPa)
#
#
# Indices 1 2 3 4 5 6 
#
# 1 0.011740 -0.004553 -0.000750 0.000000 0.000000 0.000000
# 2 -0.004553 0.011740 -0.000750 0.000000 0.000000 0.000000
# 3 -0.000750 -0.000750 0.011659 0.000000 0.000000 0.000000
# 4 0.000000 0.000000 0.000000 0.066366 0.000000 0.000000
# 5 0.000000 0.000000 0.000000 0.000000 0.066366 0.000000
# 6 0.000000 0.000000 0.000000 0.000000 0.000000 0.041918
#
#
# Mechanical properties :
#
#
# Convention : Reuss Voigt Hill
#
# Bulk Modulus (GPa) = 43.41547 45.03215 44.22381
# Shear Modulus (GPa) = 21.77957 26.22336 24.00147
#
# Velocity S-wave (km/s) = 3.07556 3.37477 3.22863
# Velocity P-wave (km/s) = 5.60962 5.89434 5.75374
#
# Compressibility (1/GPa) = 0.02303326
#
# Stress axis : x y z
#
# Youngs Moduli (GPa) = 85.17718 85.17718 85.77217
#
# Poissons Ratio (x) = 0.38783 0.06432
# Poissons Ratio (y) = 0.38783 0.06432
# Poissons Ratio (z) = 0.06387 0.06387
#
# Static dielectric constant tensor:
#      x y z
#    x 1.888710 0.000000 0.000000 
#    y 0.000000 1.888710 0.000000 
#    z 0.000000 0.000000 2.038630 
# 
# From -- ./inp_files/5561.got.cif
#   From: 2010.05.17/outbox.cif.g08.bks.cpg/sg97_3_cif.got.tgz:5561.got - 2010.06.03 19:55:32.
