data_PCOD9551644
_publ_section_title
;
Structure prediction by ZEFSAII (Michael W. Deem and Ramdas Pophale) SiO2 
 PCOD9551644
Probable space group: I 41 2 2
;
_chemical_formula_sum "Si O2"
_cell_formula_units_Z 80
_cell_length_a 12.749822
_cell_length_b 12.749822
_cell_length_c 28.512172
_cell_angle_alpha 90.000000
_cell_angle_beta 90.000000
_cell_angle_gamma 90.000000
_cell_volume 4634.880545
_symmetry_space_group_name_H-M "I 41 2 2"
_symmetry_group_IT_number 98
_symmetry_cell_setting 'tetragonal'
loop_
_space_group_symop_operation_xyz
x,y,z
-y,1/2+x,1/4+z
-x,-y,z
y,1/2-x,1/4+z
x,1/2-y,1/4-z
-x,1/2+y,1/4-z
y,x,-z
-y,-x,-z
1/2+x,1/2+y,1/2+z
1/2-y,x,3/4+z
1/2-x,1/2-y,1/2+z
1/2+y,-x,3/4+z
1/2+x,-y,3/4-z
1/2-x,y,3/4-z
1/2+y,1/2+x,1/2-z
1/2-y,1/2-x,1/2-z
loop_
_atom_site_type_symbol
_atom_site_label
_atom_site_fract_x
_atom_site_fract_y
_atom_site_fract_z
Si Si1 0.032813 0.387047 0.199064
Si Si2 0.953105 0.892416 0.283577
Si Si3 0.366512 0.716569 0.724505
Si Si4 0.859553 0.766990 0.891833
Si Si5 0.492543 0.375536 0.311200
O O1 0.081935 0.418066 0.250000
O O2 0.125443 0.336183 0.169878
O O3 0.000000 0.500000 0.179137
O O4 0.932534 0.311257 0.200847
O O5 0.906249 0.816685 0.322240
O O6 0.049357 0.828611 0.261252
O O7 0.880626 0.930129 0.239166
O O8 0.000000 0.000000 0.303886
O O9 0.267868 0.767868 0.750000
O O10 0.339985 0.613582 0.694413
O O11 0.750000 0.722511 0.875000
O O12 0.933050 0.804765 0.849018
O O13 0.500000 0.500000 0.323648
#
# Coordination Sequence:
#
# PCOD9551644 Si02
#       5
#    16  16  16  16  16
#     4  11  19  30  52  83 116 143 180 217 273 334
#     4   9  20  39  54  73 113 143 175 230 291 329
#     4  10  17  34  56  78 109 147 177 221 279 336
#     4  12  22  33  58  81 106 145 191 233 271 340
#     4   9  21  36  54  81 113 143 179 228 283 331
#
# _framework density 17.260425000000001
#
# number of rings (size 3 to 8) (size 9 to 14) (size 15 to 20)
#    0.000    2.200    4.000    3.000    0.000    0.000 
#    0.000   11.000    0.000    0.000    0.000    0.000 
#    0.000    0.000    0.000    0.000    0.000    0.000 
#
# Total GULP energy -222861.374709 kJ/mol
# GULP energy per Si atom -5571.534368 kJ/mol
# Density = 1.722114 g / cm^3
# Si number density = 17.260425 Si / 1000 Ang^3
#
#
#
# Elastic Constant Matrix: (Units=GPa)
#
#
# Indices 1 2 3 4 5 6 
#
# 1 78.3557 26.8708 33.3839 0.0000 0.0000 0.0000
# 2 26.8708 78.3556 33.3838 0.0000 0.0000 0.0000
# 3 33.3839 33.3838 83.8376 0.0000 0.0000 0.0000
# 4 0.0000 0.0000 0.0000 24.3362 0.0000 0.0000
# 5 0.0000 0.0000 0.0000 0.0000 24.3360 0.0000
# 6 0.0000 0.0000 0.0000 0.0000 0.0000 19.1889
#
#
#
# Elastic Compliance Matrix: (Units=1/GPa)
#
#
# Indices 1 2 3 4 5 6 
#
# 1 0.016070 -0.003353 -0.005064 0.000000 0.000000 0.000000
# 2 -0.003353 0.016070 -0.005064 0.000000 0.000000 0.000000
# 3 -0.005064 -0.005064 0.015960 0.000000 0.000000 0.000000
# 4 0.000000 0.000000 0.000000 0.041091 0.000000 0.000000
# 5 0.000000 0.000000 0.000000 0.000000 0.041091 0.000000
# 6 0.000000 0.000000 0.000000 0.000000 0.000000 0.052114
#
#
# Mechanical properties :
#
#
# Convention : Reuss Voigt Hill
#
# Bulk Modulus (GPa) = 47.30678 47.53620 47.42149
# Shear Modulus (GPa) = 23.10501 23.36623 23.23562
#
# Velocity S-wave (km/s) = 3.66267 3.68332 3.67301
# Velocity P-wave (km/s) = 6.73454 6.75940 6.74698
#
# Compressibility (1/GPa) = 0.02113862
#
# Stress axis : x y z
#
# Youngs Moduli (GPa) = 62.22890 62.22888 62.65507
#
# Poissons Ratio (x) = 0.20868 0.31726
# Poissons Ratio (y) = 0.20868 0.31726
# Poissons Ratio (z) = 0.31510 0.31510
#
# Static dielectric constant tensor:
#      x y z
#    x 1.620740 0.000000 0.000000 
#    y 0.000000 1.620740 0.000000 
#    z 0.000000 0.000000 1.630300 
# 
# From -- ./inp_files/11796.got.cif
#   From: 2010.05.17/outbox.cif.g08.bks.cpg/sg98_6_cif.got.tgz:11796.got - 2010.06.03 20:00:51.
