data_PCOD9551464
_publ_section_title
;
Structure prediction by ZEFSAII (Michael W. Deem and Ramdas Pophale) SiO2 
 PCOD9551464
Probable space group: I 4 2 2 
;
_chemical_formula_sum "Si O2"
_cell_formula_units_Z 56
_cell_length_a 17.877142
_cell_length_b 17.877142
_cell_length_c 7.040743
_cell_angle_alpha 90.000000
_cell_angle_beta 90.000000
_cell_angle_gamma 90.000000
_cell_volume 2250.166588
_symmetry_space_group_name_H-M "I 4 2 2 "
_symmetry_group_IT_number 97
_symmetry_cell_setting 'tetragonal'
loop_
_space_group_symop_operation_xyz
x,y,z
-y,x,z
-x,-y,z
y,-x,z
x,-y,-z
-x,y,-z
y,x,-z
-y,-x,-z
1/2+x,1/2+y,1/2+z
1/2-y,1/2+x,1/2+z
1/2-x,1/2-y,1/2+z
1/2+y,1/2-x,1/2+z
1/2+x,1/2-y,1/2-z
1/2-x,1/2+y,1/2-z
1/2+y,1/2+x,1/2-z
1/2-y,1/2-x,1/2-z
loop_
_atom_site_type_symbol
_atom_site_label
_atom_site_fract_x
_atom_site_fract_y
_atom_site_fract_z
Si Si1 0.201545 0.967455 0.211890
Si Si2 0.637073 0.984853 0.773512
Si Si3 0.149444 0.350557 0.750000
Si Si4 0.630523 0.683681 0.196491
O O1 0.285664 0.942404 0.266059
O O2 0.151051 0.894855 0.211139
O O3 0.181619 0.041259 0.332829
O O4 0.201736 0.000000 0.000000
O O5 0.563741 0.936260 0.750000
O O6 0.642637 0.064416 0.663012
O O7 0.639855 0.000000 0.000000
O O8 0.237724 0.354426 0.694739
O O9 0.677949 0.677949 0.000000
#
# Coordination Sequence:
#
# PCOD9551464 Si02
#       4
#    16  16   8  16
#     4  10  23  43  68 101 137 178 230 283 353 418
#     4  10  23  41  66  99 137 182 227 275 343 410
#     4  10  25  40  62 104 130 179 230 278 344 408
#     4  11  24  42  68  99 139 180 233 289 342 413
#
# _framework density 24.887046999999999
#
# number of rings (size 3 to 8) (size 9 to 14) (size 15 to 20)
#    0.000    1.714    0.000    2.143    6.000    7.429 
#    0.000    2.857    0.000    0.000    0.000    0.000 
#    0.000    0.000    0.000    0.000    0.000    0.000 
#
# Total GULP energy -155900.002713 kJ/mol
# GULP energy per Si atom -5567.857240 kJ/mol
# Density = 2.483040 g / cm^3
# Si number density = 24.887047 Si / 1000 Ang^3
#
#
#
# Elastic Constant Matrix: (Units=GPa)
#
#
# Indices 1 2 3 4 5 6 
#
# 1 192.7511 113.1653 19.3024 0.0000 0.0000 0.0000
# 2 113.1653 192.7452 19.3017 0.0000 0.0000 0.0000
# 3 19.3024 19.3017 59.8961 0.0000 0.0000 0.0000
# 4 0.0000 0.0000 0.0000 24.6352 0.0000 0.0000
# 5 0.0000 0.0000 0.0000 0.0000 24.6356 0.0000
# 6 0.0000 0.0000 0.0000 0.0000 0.0000 49.8090
#
#
#
# Elastic Compliance Matrix: (Units=1/GPa)
#
#
# Indices 1 2 3 4 5 6 
#
# 1 0.007986 -0.004579 -0.001098 0.000000 0.000000 0.000000
# 2 -0.004579 0.007987 -0.001098 0.000000 0.000000 0.000000
# 3 -0.001098 -0.001098 0.017403 0.000000 0.000000 0.000000
# 4 0.000000 0.000000 0.000000 0.040592 0.000000 0.000000
# 5 0.000000 0.000000 0.000000 0.000000 0.040592 0.000000
# 6 0.000000 0.000000 0.000000 0.000000 0.000000 0.020077
#
#
# Mechanical properties :
#
#
# Convention : Reuss Voigt Hill
#
# Bulk Modulus (GPa) = 50.43906 83.21456 66.82681
# Shear Modulus (GPa) = 32.30057 39.39083 35.84570
#
# Velocity S-wave (km/s) = 3.60653 3.98274 3.79929
# Velocity P-wave (km/s) = 6.13628 7.39318 6.79386
#
# Compressibility (1/GPa) = 0.01982590
#
# Stress axis : x y z
#
# Youngs Moduli (GPa) = 125.21316 125.20949 57.46035
#
# Poissons Ratio (x) = 0.57334 0.06310
# Poissons Ratio (y) = 0.57335 0.06309
# Poissons Ratio (z) = 0.13750 0.13749
#
# Static dielectric constant tensor:
#      x y z
#    x 1.930810 0.000000 0.000000 
#    y 0.000000 1.930810 0.000000 
#    z 0.000000 0.000000 2.188930 
# 
# From -- ./inp_files/1886.got.cif
#   From: 2010.05.17/outbox.cif.g08.bks.cpg/sg97_1_cif.got.tgz:1886.got - 2010.06.03 19:55:32.
