data_PCOD9551639
_publ_section_title
;
Structure prediction by ZEFSAII (Michael W. Deem and Ramdas Pophale) SiO2 
 PCOD9551639
Probable space group: I 41 2 2
;
_chemical_formula_sum "Si O2"
_cell_formula_units_Z 96
_cell_length_a 21.147797
_cell_length_b 21.147797
_cell_length_c 13.687493
_cell_angle_alpha 90.000000
_cell_angle_beta 90.000000
_cell_angle_gamma 90.000000
_cell_volume 6121.448159
_symmetry_space_group_name_H-M "I 41 2 2"
_symmetry_group_IT_number 98
_symmetry_cell_setting 'tetragonal'
loop_
_space_group_symop_operation_xyz
x,y,z
-y,1/2+x,1/4+z
-x,-y,z
y,1/2-x,1/4+z
x,1/2-y,1/4-z
-x,1/2+y,1/4-z
y,x,-z
-y,-x,-z
1/2+x,1/2+y,1/2+z
1/2-y,x,3/4+z
1/2-x,1/2-y,1/2+z
1/2+y,-x,3/4+z
1/2+x,-y,3/4-z
1/2-x,y,3/4-z
1/2+y,1/2+x,1/2-z
1/2-y,1/2-x,1/2-z
loop_
_atom_site_type_symbol
_atom_site_label
_atom_site_fract_x
_atom_site_fract_y
_atom_site_fract_z
Si Si1 0.788868 0.812931 0.778541
Si Si2 0.363818 0.033215 0.748052
Si Si3 0.895342 0.495391 0.465836
Si Si4 0.555093 0.777463 0.429016
Si Si5 0.099978 0.502717 0.035177
Si Si6 0.276749 0.430576 0.766558
O O1 0.750000 0.834410 0.875000
O O2 0.750446 0.749555 0.750000
O O3 0.785519 0.870765 0.703433
O O4 0.863576 0.799517 0.780378
O O5 0.397622 0.102379 0.750000
O O6 0.289653 0.037902 0.727717
O O7 0.391998 0.998946 0.652911
O O8 0.379672 0.000682 0.850445
O O9 0.832990 0.514590 0.523635
O O10 0.947844 0.549170 0.486555
O O11 0.929860 0.429805 0.491371
O O12 0.545664 0.773703 0.312885
O O13 0.164981 0.479543 0.987028
O O14 0.250000 0.420964 0.875000
#
# Coordination Sequence:
#
# PCOD9551639 Si02
#       6
#    16  16  16  16  16  16
#     4  12  21  32  48  71 100 136 169 205 250 296
#     4   9  17  29  48  76 107 135 159 200 262 318
#     4  10  17  31  51  74 101 131 172 214 257 303
#     4  11  21  31  49  76 102 133 172 211 250 301
#     4   9  19  33  49  70  99 138 175 211 255 304
#     4  11  24  38  49  67 101 140 183 215 254 301
#
# _framework density 15.682563999999999
#
# number of rings (size 3 to 8) (size 9 to 14) (size 15 to 20)
#    0.000    1.667    3.333    3.000    2.333    2.000 
#    0.000    0.833    0.000    2.000    0.000    0.000 
#    0.000   32.000    0.000    0.000    0.000    0.000 
#
# Total GULP energy -267544.899511 kJ/mol
# GULP energy per Si atom -5573.852073 kJ/mol
# Density = 1.564687 g / cm^3
# Si number density = 15.682564 Si / 1000 Ang^3
#
#
#
# Elastic Constant Matrix: (Units=GPa)
#
#
# Indices 1 2 3 4 5 6 
#
# 1 72.7926 51.8179 30.9049 0.0000 0.0000 0.0000
# 2 51.8179 72.7924 30.9052 0.0000 0.0000 0.0000
# 3 30.9049 30.9052 78.9256 0.0000 0.0000 0.0000
# 4 0.0000 0.0000 0.0000 8.4159 0.0000 0.0000
# 5 0.0000 0.0000 0.0000 0.0000 8.4160 0.0000
# 6 0.0000 0.0000 0.0000 0.0000 0.0000 26.6556
#
#
#
# Elastic Compliance Matrix: (Units=1/GPa)
#
#
# Indices 1 2 3 4 5 6 
#
# 1 0.028818 -0.018859 -0.003900 0.000000 0.000000 0.000000
# 2 -0.018859 0.028818 -0.003900 0.000000 0.000000 0.000000
# 3 -0.003900 -0.003900 0.015724 0.000000 0.000000 0.000000
# 4 0.000000 0.000000 0.000000 0.118822 0.000000 0.000000
# 5 0.000000 0.000000 0.000000 0.000000 0.118822 0.000000
# 6 0.000000 0.000000 0.000000 0.000000 0.000000 0.037516
#
#
# Mechanical properties :
#
#
# Convention : Reuss Voigt Hill
#
# Bulk Modulus (GPa) = 49.89069 50.19629 50.04349
# Shear Modulus (GPa) = 12.23936 16.08968 14.16452
#
# Velocity S-wave (km/s) = 2.79667 3.20654 3.00859
# Velocity P-wave (km/s) = 6.50465 6.76656 6.63690
#
# Compressibility (1/GPa) = 0.02004382
#
# Stress axis : x y z
#
# Youngs Moduli (GPa) = 34.70056 34.70029 63.59591
#
# Poissons Ratio (x) = 0.65440 0.24801
# Poissons Ratio (y) = 0.65441 0.24802
# Poissons Ratio (z) = 0.13532 0.13533
#
# Static dielectric constant tensor:
#      x y z
#    x 1.526170 0.000000 0.000000 
#    y 0.000000 1.526170 0.000000 
#    z 0.000000 0.000000 1.564780 
# 
# From -- ./inp_files/6662.got.cif
#   From: 2010.05.17/outbox.cif.g08.bks.cpg/sg98_4_cif.got.tgz:6662.got - 2010.06.03 20:00:51.
