data_PCOD9551115
_publ_section_title
;
Structure prediction by ZEFSAII (Michael W. Deem and Ramdas Pophale) SiO2 
 PCOD9551115
Probable space group: P 43 21 2
;
_chemical_formula_sum "Si O2"
_cell_formula_units_Z 48
_cell_length_a 11.163727
_cell_length_b 11.163727
_cell_length_c 19.620480
_cell_angle_alpha 90.000000
_cell_angle_beta 90.000000
_cell_angle_gamma 90.000000
_cell_volume 2445.276888
_symmetry_space_group_name_H-M "P 43 21 2"
_symmetry_group_IT_number 96
_symmetry_cell_setting 'tetragonal'
loop_
_space_group_symop_operation_xyz
x,y,z
1/2-y,1/2+x,3/4+z
-x,-y,1/2+z
1/2+y,1/2-x,1/4+z
1/2+x,1/2-y,1/4-z
1/2-x,1/2+y,3/4-z
y,x,-z
-y,-x,1/2-z
loop_
_atom_site_type_symbol
_atom_site_label
_atom_site_fract_x
_atom_site_fract_y
_atom_site_fract_z
Si Si1 0.048236 0.108733 0.922608
Si Si2 0.932791 0.102688 0.320654
Si Si3 0.575802 0.152959 0.936764
Si Si4 0.979384 0.491560 0.938334
Si Si5 0.263472 0.832925 0.028513
Si Si6 0.312427 0.832608 0.872885
O O1 0.145762 0.195647 0.887118
O O2 0.925444 0.181720 0.929764
O O3 0.033613 0.985628 0.881962
O O4 0.088503 0.088503 0.000000
O O5 0.962715 0.037286 0.250000
O O6 0.790694 0.124888 0.322336
O O7 0.988478 0.233792 0.320931
O O8 0.702219 0.214225 0.954786
O O9 0.571742 0.090377 0.862890
O O10 0.538698 0.055699 0.995789
O O11 0.074363 0.415144 0.893657
O O12 0.871763 0.400676 0.957019
O O13 0.257010 0.850390 0.947271
#
# Coordination Sequence:
#
# PCOD9551115 Si02
#       6
#     8   8   8   8   8   8
#     4  11  25  42  66 100 140 176 231 291 352 425
#     4  12  24  39  70 101 131 172 235 292 356 417
#     4  12  26  45  71  99 138 186 233 290 350 428
#     4  11  25  45  70 102 136 181 234 288 351 419
#     4  11  25  45  68  97 142 184 230 284 358 420
#     4  11  22  42  70  98 136 174 225 299 348 412
#
# _framework density 19.629678999999999
#
# number of rings (size 3 to 8) (size 9 to 14) (size 15 to 20)
#    0.000    0.667    5.000    2.500    7.000    0.000 
#    0.000    0.833    0.000    0.000    0.000    0.000 
#    0.000    0.000    0.000    0.000    0.000    0.000 
#
# Total GULP energy -267930.583389 kJ/mol
# GULP energy per Si atom -5581.887154 kJ/mol
# Density = 1.958500 g / cm^3
# Si number density = 19.629679 Si / 1000 Ang^3
#
#
#
# Elastic Constant Matrix: (Units=GPa)
#
#
# Indices 1 2 3 4 5 6 
#
# 1 76.1473 33.9640 38.9773 0.0000 0.0000 0.0000
# 2 33.9640 76.1478 38.9774 0.0000 0.0000 0.0000
# 3 38.9773 38.9774 113.5004 0.0000 0.0000 0.0000
# 4 0.0000 0.0000 0.0000 18.0644 0.0000 0.0000
# 5 0.0000 0.0000 0.0000 0.0000 18.0641 0.0000
# 6 0.0000 0.0000 0.0000 0.0000 0.0000 31.7446
#
#
#
# Elastic Compliance Matrix: (Units=1/GPa)
#
#
# Indices 1 2 3 4 5 6 
#
# 1 0.017852 -0.005854 -0.004121 0.000000 0.000000 0.000000
# 2 -0.005854 0.017852 -0.004121 0.000000 0.000000 0.000000
# 3 -0.004121 -0.004121 0.011641 0.000000 0.000000 0.000000
# 4 0.000000 0.000000 0.000000 0.055357 0.000000 0.000000
# 5 0.000000 0.000000 0.000000 0.000000 0.055358 0.000000
# 6 0.000000 0.000000 0.000000 0.000000 0.000000 0.031501
#
#
# Mechanical properties :
#
#
# Convention : Reuss Voigt Hill
#
# Bulk Modulus (GPa) = 52.20244 54.40366 53.30305
# Shear Modulus (GPa) = 22.30776 23.83309 23.07042
#
# Velocity S-wave (km/s) = 3.37476 3.48822 3.43196
# Velocity P-wave (km/s) = 6.46813 6.63316 6.55116
#
# Compressibility (1/GPa) = 0.01915619
#
# Stress axis : x y z
#
# Youngs Moduli (GPa) = 56.01463 56.01501 85.90598
#
# Poissons Ratio (x) = 0.32788 0.35398
# Poissons Ratio (y) = 0.32788 0.35398
# Poissons Ratio (z) = 0.23081 0.23081
#
# Static dielectric constant tensor:
#      x y z
#    x 1.697530 0.000000 0.000000 
#    y 0.000000 1.697530 0.000000 
#    z 0.000000 0.000000 1.717520 
# 
# From -- ./inp_files/3122.got.cif
#   From: 2010.05.17/outbox.cif.g08.bks.cpg/sg96_2_cif.got.tgz:3122.got - 2010.06.03 19:52:08.
