data_PCOD9551980
_publ_section_title
;
Structure prediction by ZEFSAII (Michael W. Deem and Ramdas Pophale) SiO2 
 PCOD9551980
Probable space group: I 41 2 2
;
_chemical_formula_sum "Si O2"
_cell_formula_units_Z 112
_cell_length_a 13.934744
_cell_length_b 13.934744
_cell_length_c 24.169547
_cell_angle_alpha 90.000000
_cell_angle_beta 90.000000
_cell_angle_gamma 90.000000
_cell_volume 4693.172311
_symmetry_space_group_name_H-M "I 41 2 2"
_symmetry_group_IT_number 98
_symmetry_cell_setting 'tetragonal'
loop_
_space_group_symop_operation_xyz
x,y,z
-y,1/2+x,1/4+z
-x,-y,z
y,1/2-x,1/4+z
x,1/2-y,1/4-z
-x,1/2+y,1/4-z
y,x,-z
-y,-x,-z
1/2+x,1/2+y,1/2+z
1/2-y,x,3/4+z
1/2-x,1/2-y,1/2+z
1/2+y,-x,3/4+z
1/2+x,-y,3/4-z
1/2-x,y,3/4-z
1/2+y,1/2+x,1/2-z
1/2-y,1/2-x,1/2-z
loop_
_atom_site_type_symbol
_atom_site_label
_atom_site_fract_x
_atom_site_fract_y
_atom_site_fract_z
Si Si1 0.764769 0.864359 0.726751
Si Si2 0.733137 0.012268 0.816660
Si Si3 0.557144 0.595195 0.082460
Si Si4 0.903808 0.060390 0.208547
Si Si5 0.308468 0.470835 0.800075
Si Si6 0.014026 0.253347 0.371362
Si Si7 0.816791 0.215508 0.933054
O O1 0.738033 0.761968 0.750000
O O2 0.878725 0.864532 0.724000
O O3 0.717953 0.937884 0.769020
O O4 0.726008 0.895549 0.667727
O O5 0.750000 0.962270 0.875000
O O6 0.661056 0.100960 0.819991
O O7 0.832899 0.066150 0.805010
O O8 0.500000 0.500000 0.064815
O O9 0.550318 0.694370 0.047993
O O10 0.517957 0.641523 0.140266
O O11 0.662007 0.551753 0.094353
O O12 0.836951 0.059208 0.262544
O O13 0.839331 0.013076 0.161262
O O14 0.000000 0.000000 0.216333
O O15 0.919235 0.234794 0.332578
O O16 0.750000 0.235037 0.875000
O O17 0.778860 0.221141 0.000000
#
# Coordination Sequence:
#
# PCOD9551980 Si02
#       7
#    16  16  16  16  16  16  16
#     4  11  25  41  67 101 143 193 239 306 378 461
#     4  11  23  43  66 103 147 187 242 306 381 476
#     4  10  24  49  72 103 149 191 256 331 393 469
#     4  12  24  42  73 101 136 189 250 312 388 475
#     4  10  24  45  73 104 137 196 257 314 389 477
#     4  11  25  43  67 105 143 194 245 315 386 464
#     4  11  22  44  69 100 152 198 250 319 386 474
#
# _framework density 23.864456000000001
#
# number of rings (size 3 to 8) (size 9 to 14) (size 15 to 20)
#    0.000    1.143    5.714    0.429    6.000    0.000 
#    7.714    2.143    0.000    0.000    0.000    0.000 
#    0.000    0.000    0.000    0.000    0.000    0.000 
#
# Total GULP energy -312158.358136 kJ/mol
# GULP energy per Si atom -5574.256395 kJ/mol
# Density = 2.381014 g / cm^3
# Si number density = 23.864456 Si / 1000 Ang^3
#
#
#
# Elastic Constant Matrix: (Units=GPa)
#
#
# Indices 1 2 3 4 5 6 
#
# 1 84.5466 40.1095 37.9623 0.0000 0.0000 0.0000
# 2 40.1095 84.5488 37.9622 0.0000 0.0000 0.0000
# 3 37.9623 37.9622 110.1383 0.0000 0.0000 0.0000
# 4 0.0000 0.0000 0.0000 27.8538 0.0000 0.0000
# 5 0.0000 0.0000 0.0000 0.0000 27.8530 0.0000
# 6 0.0000 0.0000 0.0000 0.0000 0.0000 32.7638
#
#
#
# Elastic Compliance Matrix: (Units=1/GPa)
#
#
# Indices 1 2 3 4 5 6 
#
# 1 0.016329 -0.006175 -0.003500 0.000000 0.000000 0.000000
# 2 -0.006175 0.016328 -0.003500 0.000000 0.000000 0.000000
# 3 -0.003500 -0.003500 0.011492 0.000000 0.000000 0.000000
# 4 0.000000 0.000000 0.000000 0.035902 0.000000 0.000000
# 5 0.000000 0.000000 0.000000 0.000000 0.035903 0.000000
# 6 0.000000 0.000000 0.000000 0.000000 0.000000 0.030521
#
#
# Mechanical properties :
#
#
# Convention : Reuss Voigt Hill
#
# Bulk Modulus (GPa) = 56.17877 56.81129 56.49503
# Shear Modulus (GPa) = 27.97100 28.57411 28.27256
#
# Velocity S-wave (km/s) = 3.42728 3.46403 3.44570
# Velocity P-wave (km/s) = 6.26526 6.31323 6.28929
#
# Compressibility (1/GPa) = 0.01780032
#
# Stress axis : x y z
#
# Youngs Moduli (GPa) = 61.24224 61.24421 87.01675
#
# Poissons Ratio (x) = 0.37817 0.30454
# Poissons Ratio (y) = 0.37816 0.30452
# Poissons Ratio (z) = 0.21434 0.21433
#
# Static dielectric constant tensor:
#      x y z
#    x 1.993390 0.000000 0.000000 
#    y 0.000000 1.993380 0.000000 
#    z 0.000000 0.000000 2.040480 
# 
# From -- ./inp_files/10113.got.cif
#   From: 2010.05.17/outbox.cif.g08.bks.cpg/sg98_6_cif.got.tgz:10113.got - 2010.06.03 20:00:51.
