data_PCOD9551134
_publ_section_title
;
Structure prediction by ZEFSAII (Michael W. Deem and Ramdas Pophale) SiO2 
 PCOD9551134
Probable space group: P 43 21 2
;
_chemical_formula_sum "Si O2"
_cell_formula_units_Z 56
_cell_length_a 11.258568
_cell_length_b 11.258568
_cell_length_c 20.055384
_cell_angle_alpha 90.000000
_cell_angle_beta 90.000000
_cell_angle_gamma 90.000000
_cell_volume 2542.127287
_symmetry_space_group_name_H-M "P 43 21 2"
_symmetry_group_IT_number 96
_symmetry_cell_setting 'tetragonal'
loop_
_space_group_symop_operation_xyz
x,y,z
1/2-y,1/2+x,3/4+z
-x,-y,1/2+z
1/2+y,1/2-x,1/4+z
1/2+x,1/2-y,1/4-z
1/2-x,1/2+y,3/4-z
y,x,-z
-y,-x,1/2-z
loop_
_atom_site_type_symbol
_atom_site_label
_atom_site_fract_x
_atom_site_fract_y
_atom_site_fract_z
Si Si1 0.180054 0.930435 0.642289
Si Si2 0.191883 0.883537 0.483633
Si Si3 0.242203 0.610610 0.504536
Si Si4 0.003823 0.996178 0.250000
Si Si5 0.427457 0.905641 0.430959
Si Si6 0.331930 0.735070 0.840499
Si Si7 0.048710 0.508006 0.693610
Si Si8 0.067531 0.067531 0.000000
O O1 0.184395 0.920063 0.561908
O O2 0.058724 0.949137 0.683571
O O3 0.226932 0.803505 0.667733
O O4 0.273694 0.034409 0.659307
O O5 0.229234 0.745716 0.477725
O O6 0.058082 0.913574 0.465010
O O7 0.289533 0.942590 0.436000
O O8 0.358185 0.530794 0.491889
O O9 0.251266 0.633217 0.583175
O O10 0.122067 0.552126 0.476960
O O11 0.466422 0.915692 0.507781
O O12 0.494929 0.992887 0.379826
O O13 0.425206 0.825458 0.806302
O O14 0.343375 0.604415 0.809239
#
# Coordination Sequence:
#
# PCOD9551134 Si02
#       8
#     8   8   8   4   8   8   8   4
#     4  11  24  41  71 105 136 177 238 298 365 419
#     4  11  25  44  68 101 140 187 234 300 359 432
#     4  11  25  44  68 101 140 187 234 300 359 432
#     4  12  23  44  69 100 140 184 242 294 353 428
#     4  12  24  45  71 101 142 186 233 292 366 441
#     4  11  24  41  71 105 136 177 238 298 365 419
#     4  12  24  45  71 101 142 186 233 292 366 441
#     4  12  23  44  69 100 140 184 242 294 353 428
#
# _framework density 22.028797000000001
#
# number of rings (size 3 to 8) (size 9 to 14) (size 15 to 20)
#    0.000    0.571    5.714    3.000    0.000    2.286 
#    0.000    0.714    0.000    0.000    0.000    0.000 
#    0.000    0.000    0.000    0.000    0.000    0.000 
#
# Total GULP energy -312454.222288 kJ/mol
# GULP energy per Si atom -5579.539684 kJ/mol
# Density = 2.197866 g / cm^3
# Si number density = 22.028797 Si / 1000 Ang^3
#
#
#
# Elastic Constant Matrix: (Units=GPa)
#
#
# Indices 1 2 3 4 5 6 
#
# 1 68.6546 -13.7275 -14.1511 0.0000 0.0000 0.0000
# 2 -13.7275 68.6542 -14.1512 0.0000 0.0000 0.0000
# 3 -14.1511 -14.1512 40.7251 0.0000 0.0000 0.0000
# 4 0.0000 0.0000 0.0000 27.1851 0.0000 0.0000
# 5 0.0000 0.0000 0.0000 0.0000 27.1851 0.0000
# 6 0.0000 0.0000 0.0000 0.0000 0.0000 18.1434
#
#
#
# Elastic Compliance Matrix: (Units=1/GPa)
#
#
# Indices 1 2 3 4 5 6 
#
# 1 0.017158 0.005019 0.007706 0.000000 0.000000 0.000000
# 2 0.005019 0.017158 0.007706 0.000000 0.000000 0.000000
# 3 0.007706 0.007706 0.029910 0.000000 0.000000 0.000000
# 4 0.000000 0.000000 0.000000 0.036785 0.000000 0.000000
# 5 0.000000 0.000000 0.000000 0.000000 0.036785 0.000000
# 6 0.000000 0.000000 0.000000 0.000000 0.000000 0.055117
#
#
# Mechanical properties :
#
#
# Convention : Reuss Voigt Hill
#
# Bulk Modulus (GPa) = 9.51591 10.44160 9.97876
# Shear Modulus (GPa) = 26.72668 29.17363 27.95015
#
# Velocity S-wave (km/s) = 3.48697 3.64310 3.56589
# Velocity P-wave (km/s) = 4.53223 4.73777 4.63614
#
# Compressibility (1/GPa) = 0.10508714
#
# Stress axis : x y z
#
# Youngs Moduli (GPa) = 58.28336 58.28288 33.43347
#
# Poissons Ratio (x) = -0.29252 -0.25763
# Poissons Ratio (y) = -0.29253 -0.25764
# Poissons Ratio (z) = -0.44912 -0.44913
#
# Static dielectric constant tensor:
#      x y z
#    x 1.859270 0.000000 0.000000 
#    y 0.000000 1.859270 0.000000 
#    z 0.000000 0.000000 1.810350 
# 
# From -- ./inp_files/3591.got.cif
#   From: 2010.05.17/outbox.cif.g08.bks.cpg/sg96_2_cif.got.tgz:3591.got - 2010.06.03 19:52:08.
