data_PCOD9551764
_publ_section_title
;
Structure prediction by ZEFSAII (Michael W. Deem and Ramdas Pophale) SiO2 
 PCOD9551764
Probable space group: I 41 2 2
;
_chemical_formula_sum "Si O2"
_cell_formula_units_Z 92
_cell_length_a 15.202029
_cell_length_b 15.202029
_cell_length_c 19.933446
_cell_angle_alpha 90.000000
_cell_angle_beta 90.000000
_cell_angle_gamma 90.000000
_cell_volume 4606.652973
_symmetry_space_group_name_H-M "I 41 2 2"
_symmetry_group_IT_number 98
_symmetry_cell_setting 'tetragonal'
loop_
_space_group_symop_operation_xyz
x,y,z
-y,1/2+x,1/4+z
-x,-y,z
y,1/2-x,1/4+z
x,1/2-y,1/4-z
-x,1/2+y,1/4-z
y,x,-z
-y,-x,-z
1/2+x,1/2+y,1/2+z
1/2-y,x,3/4+z
1/2-x,1/2-y,1/2+z
1/2+y,-x,3/4+z
1/2+x,-y,3/4-z
1/2-x,y,3/4-z
1/2+y,1/2+x,1/2-z
1/2-y,1/2-x,1/2-z
loop_
_atom_site_type_symbol
_atom_site_label
_atom_site_fract_x
_atom_site_fract_y
_atom_site_fract_z
Si Si1 0.290400 0.790400 0.250000
Si Si2 0.119114 0.874691 0.282410
Si Si3 0.500000 0.000000 0.250000
Si Si4 0.260198 0.260198 0.000000
Si Si5 0.463808 0.672573 0.915964
Si Si6 0.095095 0.483533 0.419935
Si Si7 0.055929 0.187998 0.748869
Si Si8 0.750000 0.873061 0.875000
O O1 0.195369 0.803240 0.281222
O O2 0.305331 0.867513 0.195826
O O3 0.048856 0.851707 0.339027
O O4 0.071089 0.878531 0.210385
O O5 0.169540 0.968294 0.294865
O O6 0.412980 0.998562 0.204833
O O7 0.359059 0.240554 0.027512
O O8 0.190094 0.249576 0.060041
O O9 0.524151 0.754615 0.936823
O O10 0.081597 0.408937 0.477053
O O11 0.167086 0.438736 0.373657
O O12 0.000000 0.500000 0.387743
#
# Coordination Sequence:
#
# PCOD9551764 Si02
#       8
#     8  16   4   8  16  16  16   8
#     4   9  20  39  52  92 118 161 213 256 312 368
#     4  10  20  38  63  84 124 169 205 254 324 374
#     4  10  22  32  52  92 124 158 210 236 310 380
#     4  10  21  42  65  93 124 163 208 262 322 388
#     4  10  20  36  56  86 130 158 199 259 298 386
#     4   9  20  39  60  88 118 160 213 256 312 382
#     4   9  20  37  58  90 118 160 206 245 315 380
#     4  10  22  42  64  92 124 162 212 270 318 388
#
# _framework density 19.971115999999999
#
# number of rings (size 3 to 8) (size 9 to 14) (size 15 to 20)
#    0.000    2.435    0.000    1.043    3.652    5.565 
#   18.783    0.435    0.000    0.000    0.000    0.000 
#    0.000    0.000    0.000    0.000    0.000    0.000 
#
# Total GULP energy -256437.960665 kJ/mol
# GULP energy per Si atom -5574.738275 kJ/mol
# Density = 1.992566 g / cm^3
# Si number density = 19.971116 Si / 1000 Ang^3
#
#
#
# Elastic Constant Matrix: (Units=GPa)
#
#
# Indices 1 2 3 4 5 6 
#
# 1 86.1597 55.8175 17.3086 0.0000 0.0000 0.0000
# 2 55.8175 86.1597 17.3086 0.0000 0.0000 0.0000
# 3 17.3086 17.3086 52.0739 0.0000 0.0000 0.0000
# 4 0.0000 0.0000 0.0000 15.9157 0.0000 0.0000
# 5 0.0000 0.0000 0.0000 0.0000 15.9157 0.0000
# 6 0.0000 0.0000 0.0000 0.0000 0.0000 35.4933
#
#
#
# Elastic Compliance Matrix: (Units=1/GPa)
#
#
# Indices 1 2 3 4 5 6 
#
# 1 0.020311 -0.012646 -0.002548 0.000000 0.000000 0.000000
# 2 -0.012646 0.020311 -0.002548 0.000000 0.000000 0.000000
# 3 -0.002548 -0.002548 0.020897 0.000000 0.000000 0.000000
# 4 0.000000 0.000000 0.000000 0.062831 0.000000 0.000000
# 5 0.000000 0.000000 0.000000 0.000000 0.062831 0.000000
# 6 0.000000 0.000000 0.000000 0.000000 0.000000 0.028174
#
#
# Mechanical properties :
#
#
# Convention : Reuss Voigt Hill
#
# Bulk Modulus (GPa) = 38.40864 45.02918 41.71891
# Shear Modulus (GPa) = 19.26655 22.39551 20.83103
#
# Velocity S-wave (km/s) = 3.10937 3.35236 3.23314
# Velocity P-wave (km/s) = 5.67139 6.13029 5.90530
#
# Compressibility (1/GPa) = 0.02603581
#
# Stress axis : x y z
#
# Youngs Moduli (GPa) = 49.23449 49.23449 47.85364
#
# Poissons Ratio (x) = 0.62264 0.12191
# Poissons Ratio (y) = 0.62264 0.12191
# Poissons Ratio (z) = 0.12543 0.12543
#
# Static dielectric constant tensor:
#      x y z
#    x 1.734280 0.000000 0.000000 
#    y 0.000000 1.734280 0.000000 
#    z 0.000000 0.000000 1.750410 
# 
# From -- ./inp_files/9020.got.cif
#   From: 2010.05.17/outbox.cif.g08.bks.cpg/sg98_5_cif.got.tgz:9020.got - 2010.06.03 20:00:51.
