data_PCOD9551363
_publ_section_title
;
Structure prediction by ZEFSAII (Michael W. Deem and Ramdas Pophale) SiO2 
 PCOD9551363
Probable space group: I 4 2 2 
;
_chemical_formula_sum "Si O2"
_cell_formula_units_Z 120
_cell_length_a 21.320850
_cell_length_b 21.320850
_cell_length_c 15.362061
_cell_angle_alpha 90.000000
_cell_angle_beta 90.000000
_cell_angle_gamma 90.000000
_cell_volume 6983.264870
_symmetry_space_group_name_H-M "I 4 2 2 "
_symmetry_group_IT_number 97
_symmetry_cell_setting 'tetragonal'
loop_
_space_group_symop_operation_xyz
x,y,z
-y,x,z
-x,-y,z
y,-x,z
x,-y,-z
-x,y,-z
y,x,-z
-y,-x,-z
1/2+x,1/2+y,1/2+z
1/2-y,1/2+x,1/2+z
1/2-x,1/2-y,1/2+z
1/2+y,1/2-x,1/2+z
1/2+x,1/2-y,1/2-z
1/2-x,1/2+y,1/2-z
1/2+y,1/2+x,1/2-z
1/2-y,1/2-x,1/2-z
loop_
_atom_site_type_symbol
_atom_site_label
_atom_site_fract_x
_atom_site_fract_y
_atom_site_fract_z
Si Si1 0.822384 0.488034 0.796060
Si Si2 0.906239 0.688722 0.582137
Si Si3 0.940216 0.399105 0.563393
Si Si4 0.689217 0.296860 0.598754
Si Si5 0.704785 0.310898 0.095873
Si Si6 0.861668 0.253691 0.749509
Si Si7 0.000000 0.654631 0.000000
Si Si8 0.088989 0.693260 0.144514
O O1 0.801447 0.523853 0.884117
O O2 0.886437 0.459844 0.837265
O O3 0.781633 0.430319 0.762933
O O4 0.819235 0.543117 0.725205
O O5 0.907708 0.662400 0.482841
O O6 0.869937 0.750747 0.608900
O O7 0.867571 0.633438 0.630886
O O8 0.891006 0.455363 0.556339
O O9 0.000000 0.413169 0.500000
O O10 0.679441 0.320560 0.500000
O O11 0.746662 0.247392 0.593450
O O12 0.713976 0.350447 0.662995
O O13 0.633059 0.255056 0.640893
O O14 0.656363 0.292043 0.169724
O O15 0.678551 0.321450 0.000000
O O16 0.811474 0.311474 0.750000
O O17 0.955566 0.695079 0.939373
#
# Coordination Sequence:
#
# PCOD9551363 Si02
#       8
#    16  16  16  16  16  16   8  16
#     4  11  21  31  50  73 106 137 178 220 263 303
#     4   9  18  35  51  69 101 139 178 208 257 314
#     4   9  19  33  47  68 101 144 180 222 255 298
#     4   9  19  35  53  71 101 134 174 224 274 322
#     4   9  16  31  54  75  95 129 171 214 267 321
#     4  10  21  31  48  75 101 134 176 221 267 321
#     4  10  21  32  50  70 102 140 187 220 258 312
#     4  10  21  33  53  74  99 141 181 219 266 315
#
# _framework density 17.183938999999999
#
# number of rings (size 3 to 8) (size 9 to 14) (size 15 to 20)
#    0.000    2.400    0.000    2.200    3.733    4.267 
#    0.000    0.000    2.933    0.000    0.000    0.000 
#    0.000    8.533    1.600    8.533    0.000    0.000 
#
# Total GULP energy -334088.509406 kJ/mol
# GULP energy per Si atom -5568.141823 kJ/mol
# Density = 1.714483 g / cm^3
# Si number density = 17.183939 Si / 1000 Ang^3
#
#
#
# Elastic Constant Matrix: (Units=GPa)
#
#
# Indices 1 2 3 4 5 6 
#
# 1 59.6574 24.0270 35.1377 0.0000 0.0000 0.0000
# 2 24.0270 59.6597 35.1360 0.0000 0.0000 0.0000
# 3 35.1377 35.1360 91.2363 0.0000 0.0000 0.0000
# 4 0.0000 0.0000 0.0000 19.1883 0.0000 0.0000
# 5 0.0000 0.0000 0.0000 0.0000 19.1883 0.0000
# 6 0.0000 0.0000 0.0000 0.0000 0.0000 10.4126
#
#
#
# Elastic Compliance Matrix: (Units=1/GPa)
#
#
# Indices 1 2 3 4 5 6 
#
# 1 0.022864 -0.005202 -0.006802 0.000000 0.000000 0.000000
# 2 -0.005202 0.022862 -0.006801 0.000000 0.000000 0.000000
# 3 -0.006802 -0.006801 0.016199 0.000000 0.000000 0.000000
# 4 0.000000 0.000000 0.000000 0.052115 0.000000 0.000000
# 5 0.000000 0.000000 0.000000 0.000000 0.052115 0.000000
# 6 0.000000 0.000000 0.000000 0.000000 0.000000 0.096037
#
#
# Mechanical properties :
#
#
# Convention : Reuss Voigt Hill
#
# Bulk Modulus (GPa) = 41.12677 44.35053 42.73865
# Shear Modulus (GPa) = 16.23861 17.50803 16.87332
#
# Velocity S-wave (km/s) = 3.07740 3.19542 3.13697
# Velocity P-wave (km/s) = 6.05082 6.28328 6.16814
#
# Compressibility (1/GPa) = 0.02431506
#
# Stress axis : x y z
#
# Youngs Moduli (GPa) = 43.73703 43.74051 61.73072
#
# Poissons Ratio (x) = 0.22754 0.41991
# Poissons Ratio (y) = 0.22752 0.41983
# Poissons Ratio (z) = 0.29751 0.29748
#
# Static dielectric constant tensor:
#      x y z
#    x 1.616640 0.000000 0.000000 
#    y 0.000000 1.616640 0.000000 
#    z 0.000000 0.000000 1.671200 
# 
# From -- ./inp_files/5071.got.cif
#   From: 2010.05.17/outbox.cif.g08.bks.cpg/sg97_3_cif.got.tgz:5071.got - 2010.06.03 19:55:32.
