data_PCOD9551795
_publ_section_title
;
Structure prediction by ZEFSAII (Michael W. Deem and Ramdas Pophale) SiO2 
 PCOD9551795
Probable space group: I 41 2 2
;
_chemical_formula_sum "Si O2"
_cell_formula_units_Z 40
_cell_length_a 19.254169
_cell_length_b 19.254169
_cell_length_c 5.051233
_cell_angle_alpha 90.000000
_cell_angle_beta 90.000000
_cell_angle_gamma 90.000000
_cell_volume 1872.608372
_symmetry_space_group_name_H-M "I 41 2 2"
_symmetry_group_IT_number 98
_symmetry_cell_setting 'tetragonal'
loop_
_space_group_symop_operation_xyz
x,y,z
-y,1/2+x,1/4+z
-x,-y,z
y,1/2-x,1/4+z
x,1/2-y,1/4-z
-x,1/2+y,1/4-z
y,x,-z
-y,-x,-z
1/2+x,1/2+y,1/2+z
1/2-y,x,3/4+z
1/2-x,1/2-y,1/2+z
1/2+y,-x,3/4+z
1/2+x,-y,3/4-z
1/2-x,y,3/4-z
1/2+y,1/2+x,1/2-z
1/2-y,1/2-x,1/2-z
loop_
_atom_site_type_symbol
_atom_site_label
_atom_site_fract_x
_atom_site_fract_y
_atom_site_fract_z
Si Si1 0.856291 0.750000 0.625000
Si Si2 0.443832 0.126080 0.986155
Si Si3 0.828344 0.102899 0.255234
O O1 0.805222 0.694779 0.750000
O O2 0.904623 0.700347 0.450432
O O3 0.424132 0.075869 0.750000
O O4 0.413175 0.086826 0.250000
O O5 0.523771 0.147704 0.964018
O O6 0.873094 0.126907 0.500000
O O7 0.750000 0.106889 0.375000
O O8 0.849056 0.150945 0.000000
#
# Coordination Sequence:
#
# PCOD9551795 Si02
#       3
#     8  16  16
#     4  10  20  38  64 104 146 186 234 272 346 422
#     4  11  24  42  70 105 146 190 233 285 353 436
#     4  12  27  49  74 104 140 183 243 306 368 431
#
# _framework density 21.360582000000001
#
# number of rings (size 3 to 8) (size 9 to 14) (size 15 to 20)
#    0.000    0.800    2.000    4.800    0.000   11.200 
#    0.000    0.000    0.000    0.000    0.000    0.000 
#    0.000    0.000    0.000    0.000    0.000    0.000 
#
# Total GULP energy -111505.507440 kJ/mol
# GULP energy per Si atom -5575.275372 kJ/mol
# Density = 2.131196 g / cm^3
# Si number density = 21.360582 Si / 1000 Ang^3
#
#
#
# Elastic Constant Matrix: (Units=GPa)
#
#
# Indices 1 2 3 4 5 6 
#
# 1 68.4483 178.7198 56.3805 0.0000 0.0000 0.0000
# 2 178.7198 68.4783 56.3885 0.0000 0.0000 0.0000
# 3 56.3805 56.3885 140.5643 0.0000 0.0000 0.0000
# 4 0.0000 0.0000 0.0000 26.2439 0.0000 0.0000
# 5 0.0000 0.0000 0.0000 0.0000 26.2702 0.0000
# 6 0.0000 0.0000 0.0000 0.0000 0.0000 -7.3288
#
#
#
# Elastic Compliance Matrix: (Units=1/GPa)
#
#
# Indices 1 2 3 4 5 6 
#
# 1 -0.002060 0.007011 -0.001986 0.000000 0.000000 0.000000
# 2 0.007011 -0.002058 -0.001986 0.000000 0.000000 0.000000
# 3 -0.001986 -0.001986 0.008708 0.000000 0.000000 0.000000
# 4 0.000000 0.000000 0.000000 0.038104 0.000000 0.000000
# 5 0.000000 0.000000 0.000000 0.000000 0.038066 0.000000
# 6 0.000000 0.000000 0.000000 0.000000 0.000000 -0.136449
#
#
# Mechanical properties :
#
#
# Convention : Reuss Voigt Hill
#
# Bulk Modulus (GPa) = 93.75550 95.60762 94.68156
# Shear Modulus (GPa) = -85.89630 8.10387 -38.89621
#
# Velocity S-wave (km/s) = -6.34821 1.94989 -4.27187
# Velocity P-wave (km/s) = 3.12186 7.06580 4.48216
#
# Compressibility (1/GPa) = 0.01066604
#
# Stress axis : x y z
#
# Youngs Moduli (GPa) = -485.54813 -485.79818 114.84077
#
# Poissons Ratio (x) = 3.40582 0.22811
# Poissons Ratio (y) = 3.40406 0.22810
# Poissons Ratio (z) = -0.96447 -0.96492
#
# Static dielectric constant tensor:
#      x y z
#    x 2.146810 0.000000 0.000000 
#    y 0.000000 2.145130 0.000000 
#    z 0.000000 0.000000 1.791290 
# 
# From -- ./inp_files/477.got.cif
#   From: 2010.05.17/outbox.cif.g08.bks.cpg/sg98_1_cif.got.tgz:477.got - 2010.06.03 20:00:51.
