data_PCOD9551779
_publ_section_title
;
Structure prediction by ZEFSAII (Michael W. Deem and Ramdas Pophale) SiO2 
 PCOD9551779
Probable space group: I 41 2 2
;
_chemical_formula_sum "Si O2"
_cell_formula_units_Z 88
_cell_length_a 11.904770
_cell_length_b 11.904770
_cell_length_c 30.669299
_cell_angle_alpha 90.000000
_cell_angle_beta 90.000000
_cell_angle_gamma 90.000000
_cell_volume 4346.561892
_symmetry_space_group_name_H-M "I 41 2 2"
_symmetry_group_IT_number 98
_symmetry_cell_setting 'tetragonal'
loop_
_space_group_symop_operation_xyz
x,y,z
-y,1/2+x,1/4+z
-x,-y,z
y,1/2-x,1/4+z
x,1/2-y,1/4-z
-x,1/2+y,1/4-z
y,x,-z
-y,-x,-z
1/2+x,1/2+y,1/2+z
1/2-y,x,3/4+z
1/2-x,1/2-y,1/2+z
1/2+y,-x,3/4+z
1/2+x,-y,3/4-z
1/2-x,y,3/4-z
1/2+y,1/2+x,1/2-z
1/2-y,1/2-x,1/2-z
loop_
_atom_site_type_symbol
_atom_site_label
_atom_site_fract_x
_atom_site_fract_y
_atom_site_fract_z
Si Si1 0.146915 0.044963 0.685137
Si Si2 0.809685 0.871587 0.449613
Si Si3 0.000000 0.500000 0.492852
Si Si4 0.750000 0.058326 0.875000
Si Si5 0.619943 0.628993 0.328622
Si Si6 0.119880 0.974519 0.084478
Si Si7 0.500000 0.000000 0.146901
O O1 0.109191 0.175309 0.692539
O O2 0.096277 0.969000 0.723376
O O3 0.278245 0.028784 0.690650
O O4 0.103096 0.998718 0.638384
O O5 0.847850 0.847850 0.500000
O O6 0.828354 0.751303 0.425938
O O7 0.892434 0.964779 0.427124
O O8 0.955232 0.598687 0.462725
O O9 0.846425 0.128087 0.899251
O O10 0.704945 0.973015 0.912346
O O11 0.542450 0.621753 0.370461
O O12 0.000000 0.000000 0.063337
#
# Coordination Sequence:
#
# PCOD9551779 Si02
#       7
#    16  16   8   8  16  16   8
#     4  11  24  43  66  97 135 180 216 281 343 396
#     4  12  23  41  69  93 127 175 228 275 327 400
#     4  11  22  42  63  94 139 171 214 273 344 398
#     4  10  20  36  70  94 126 170 222 284 324 400
#     4  11  20  40  67  92 126 174 223 267 330 404
#     4  10  20  39  68  97 126 171 234 270 328 406
#     4  11  25  40  63 100 128 166 236 273 330 403
#
# _framework density 20.245885999999999
#
# number of rings (size 3 to 8) (size 9 to 14) (size 15 to 20)
#    0.000    1.091    6.364    3.000    0.000    0.000 
#    6.545    0.909    4.000    0.000    0.000    0.000 
#    0.000    0.000    0.000    0.000    0.000    0.000 
#
# Total GULP energy -245021.138224 kJ/mol
# GULP energy per Si atom -5568.662232 kJ/mol
# Density = 2.019981 g / cm^3
# Si number density = 20.245886 Si / 1000 Ang^3
#
#
#
# Elastic Constant Matrix: (Units=GPa)
#
#
# Indices 1 2 3 4 5 6 
#
# 1 85.0430 44.4377 18.9889 0.0000 0.0000 0.0000
# 2 44.4377 85.0430 18.9889 0.0000 0.0000 0.0000
# 3 18.9889 18.9889 65.7354 0.0000 0.0000 0.0000
# 4 0.0000 0.0000 0.0000 6.4253 0.0000 0.0000
# 5 0.0000 0.0000 0.0000 0.0000 6.4253 0.0000
# 6 0.0000 0.0000 0.0000 0.0000 0.0000 5.5430
#
#
#
# Elastic Compliance Matrix: (Units=1/GPa)
#
#
# Indices 1 2 3 4 5 6 
#
# 1 0.016533 -0.008095 -0.002438 0.000000 0.000000 0.000000
# 2 -0.008095 0.016533 -0.002438 0.000000 0.000000 0.000000
# 3 -0.002438 -0.002438 0.016621 0.000000 0.000000 0.000000
# 4 0.000000 0.000000 0.000000 0.155636 0.000000 0.000000
# 5 0.000000 0.000000 0.000000 0.000000 0.155636 0.000000
# 6 0.000000 0.000000 0.000000 0.000000 0.000000 0.180409
#
#
# Mechanical properties :
#
#
# Convention : Reuss Voigt Hill
#
# Bulk Modulus (GPa) = 42.11071 44.51693 43.31382
# Shear Modulus (GPa) = 8.69231 13.90575 11.29903
#
# Velocity S-wave (km/s) = 2.07429 2.62361 2.36496
# Velocity P-wave (km/s) = 5.15575 5.58692 5.37566
#
# Compressibility (1/GPa) = 0.02374693
#
# Stress axis : x y z
#
# Youngs Moduli (GPa) = 60.48612 60.48612 60.16574
#
# Poissons Ratio (x) = 0.48961 0.14665
# Poissons Ratio (y) = 0.48961 0.14665
# Poissons Ratio (z) = 0.14744 0.14744
#
# Static dielectric constant tensor:
#      x y z
#    x 1.658450 0.000000 0.000000 
#    y 0.000000 1.658450 0.000000 
#    z 0.000000 0.000000 1.756690 
# 
# From -- ./inp_files/11985.got.cif
#   From: 2010.05.17/outbox.cif.g08.bks.cpg/sg98_6_cif.got.tgz:11985.got - 2010.06.03 20:00:51.
