data_PCOD9551007
_publ_section_title
;
Structure prediction by ZEFSAII (Michael W. Deem and Ramdas Pophale) SiO2 
 PCOD9551007
Probable space group: P 43 21 2
;
_chemical_formula_sum "Si O2"
_cell_formula_units_Z 40
_cell_length_a 9.226081
_cell_length_b 9.226081
_cell_length_c 20.486997
_cell_angle_alpha 90.000000
_cell_angle_beta 90.000000
_cell_angle_gamma 90.000000
_cell_volume 1743.864875
_symmetry_space_group_name_H-M "P 43 21 2"
_symmetry_group_IT_number 96
_symmetry_cell_setting 'tetragonal'
loop_
_space_group_symop_operation_xyz
x,y,z
1/2-y,1/2+x,3/4+z
-x,-y,1/2+z
1/2+y,1/2-x,1/4+z
1/2+x,1/2-y,1/4-z
1/2-x,1/2+y,3/4-z
y,x,-z
-y,-x,1/2-z
loop_
_atom_site_type_symbol
_atom_site_label
_atom_site_fract_x
_atom_site_fract_y
_atom_site_fract_z
Si Si1 0.234027 0.234139 0.402843
Si Si2 0.474037 0.169599 0.497131
Si Si3 0.251771 0.449011 0.712192
Si Si4 0.148261 0.905035 0.592248
Si Si5 0.657908 0.361264 0.400629
O O1 0.343949 0.138094 0.446689
O O2 0.224313 0.390324 0.438882
O O3 0.305782 0.250977 0.332980
O O4 0.075354 0.168421 0.403056
O O5 0.569308 0.292701 0.460975
O O6 0.586501 0.041673 0.511843
O O7 0.354386 0.418845 0.773252
O O8 0.299238 0.576372 0.663984
O O9 0.032910 0.852151 0.645860
O O10 0.298319 0.819023 0.598782
#
# Coordination Sequence:
#
# PCOD9551007 Si02
#       5
#     8   8   8   8   8
#     4  10  23  38  73  97 131 179 240 279 350 410
#     4   9  22  41  63 101 132 172 228 286 336 411
#     4  10  23  43  68  97 143 176 227 296 343 420
#     4  11  25  46  68 102 138 191 226 294 349 420
#     4  10  24  45  67  98 146 174 234 281 353 412
#
# _framework density 22.937556000000001
#
# number of rings (size 3 to 8) (size 9 to 14) (size 15 to 20)
#    0.000    2.000    0.000    0.600   16.800    1.600 
#    3.600    4.000    0.000    0.000    0.000    0.000 
#    0.000    0.000    0.000    0.000    0.000    0.000 
#
# Total GULP energy -223780.781154 kJ/mol
# GULP energy per Si atom -5594.519529 kJ/mol
# Density = 2.288535 g / cm^3
# Si number density = 22.937556 Si / 1000 Ang^3
#
#
#
# Elastic Constant Matrix: (Units=GPa)
#
#
# Indices 1 2 3 4 5 6 
#
# 1 -276.0305 402.1956 13.9871 0.0000 0.0000 0.0000
# 2 402.1956 -276.0305 13.9871 0.0000 0.0000 0.0000
# 3 13.9871 13.9871 72.0953 0.0000 0.0000 0.0000
# 4 0.0000 0.0000 0.0000 19.1406 0.0000 0.0000
# 5 0.0000 0.0000 0.0000 0.0000 19.1406 0.0000
# 6 0.0000 0.0000 0.0000 0.0000 0.0000 19.2870
#
#
#
# Elastic Compliance Matrix: (Units=1/GPa)
#
#
# Indices 1 2 3 4 5 6 
#
# 1 0.003404 0.004878 -0.001607 0.000000 0.000000 0.000000
# 2 0.004878 0.003404 -0.001607 0.000000 0.000000 0.000000
# 3 -0.001607 -0.001607 0.014494 0.000000 0.000000 0.000000
# 4 0.000000 0.000000 0.000000 0.052245 0.000000 0.000000
# 5 0.000000 0.000000 0.000000 0.000000 0.052245 0.000000
# 6 0.000000 0.000000 0.000000 0.000000 0.000000 0.051848
#
#
# Mechanical properties :
#
#
# Convention : Reuss Voigt Hill
#
# Bulk Modulus (GPa) = 40.59861 42.26379 41.43120
# Shear Modulus (GPa) = 27.39405 -49.16206 -10.88400
#
# Velocity S-wave (km/s) = 3.45960 -4.63460 -2.18068
# Velocity P-wave (km/s) = 5.80486 3.18964 3.42948
#
# Compressibility (1/GPa) = 0.02463139
#
# Stress axis : x y z
#
# Youngs Moduli (GPa) = 293.77325 293.77325 68.99395
#
# Poissons Ratio (x) = -1.43315 0.11086
# Poissons Ratio (y) = -1.43315 0.11086
# Poissons Ratio (z) = 0.47205 0.47205
#
# Static dielectric constant tensor:
#      x y z
#    x 1.868710 0.000000 0.000000 
#    y 0.000000 1.868710 0.000000 
#    z 0.000000 0.000000 1.882250 
# 
# From -- ./inp_files/4097.got.cif
#   From: 2010.05.17/outbox.cif.g08.bks.cpg/sg96_3_cif.got.tgz:4097.got - 2010.06.03 19:52:08.
