data_PCOD9551891
_publ_section_title
;
Structure prediction by ZEFSAII (Michael W. Deem and Ramdas Pophale) SiO2 
 PCOD9551891
Probable space group: I 41 2 2
;
_chemical_formula_sum "Si O2"
_cell_formula_units_Z 128
_cell_length_a 21.112421
_cell_length_b 21.112421
_cell_length_c 16.097912
_cell_angle_alpha 90.000000
_cell_angle_beta 90.000000
_cell_angle_gamma 90.000000
_cell_volume 7175.391866
_symmetry_space_group_name_H-M "I 41 2 2"
_symmetry_group_IT_number 98
_symmetry_cell_setting 'tetragonal'
loop_
_space_group_symop_operation_xyz
x,y,z
-y,1/2+x,1/4+z
-x,-y,z
y,1/2-x,1/4+z
x,1/2-y,1/4-z
-x,1/2+y,1/4-z
y,x,-z
-y,-x,-z
1/2+x,1/2+y,1/2+z
1/2-y,x,3/4+z
1/2-x,1/2-y,1/2+z
1/2+y,-x,3/4+z
1/2+x,-y,3/4-z
1/2-x,y,3/4-z
1/2+y,1/2+x,1/2-z
1/2-y,1/2-x,1/2-z
loop_
_atom_site_type_symbol
_atom_site_label
_atom_site_fract_x
_atom_site_fract_y
_atom_site_fract_z
Si Si1 0.204634 0.791721 0.297716
Si Si2 0.062274 0.854782 0.125882
Si Si3 0.928948 0.250299 0.985660
Si Si4 0.569090 0.261511 0.223634
Si Si5 0.156560 0.975416 0.141724
Si Si6 0.017618 0.874598 0.500133
Si Si7 0.560486 0.952935 0.920814
Si Si8 0.945190 0.553997 0.887398
O O1 0.250000 0.797009 0.375000
O O2 0.232294 0.732294 0.250000
O O3 0.132724 0.774571 0.313464
O O4 0.216037 0.859326 0.254368
O O5 0.081011 0.806370 0.052870
O O6 0.056264 0.811842 0.208776
O O7 0.113858 0.911449 0.129931
O O8 0.993261 0.887580 0.120957
O O9 0.973974 0.216462 0.919503
O O10 0.564796 0.250000 0.125000
O O11 0.526713 0.315990 0.264806
O O12 0.548326 0.193805 0.258279
O O13 0.110622 0.034577 0.129189
O O14 0.074156 0.925845 0.500000
O O15 0.972645 0.891702 0.422798
O O16 0.978516 0.887752 0.585593
O O17 0.500000 0.000000 0.924896
O O18 0.575955 0.937409 0.017586
O O19 0.000000 0.500000 0.889186
#
# Coordination Sequence:
#
# PCOD9551891 Si02
#       8
#    16  16  16  16  16  16  16  16
#     4  11  22  33  47  68 103 150 192 217 246 301
#     4  10  22  39  55  77 102 143 184 238 279 324
#     4  11  23  37  55  74 106 140 190 230 272 320
#     4  11  22  32  45  74 111 147 184 221 261 307
#     4  11  21  37  54  77 105 144 182 228 279 326
#     4   9  17  29  47  71 104 141 189 226 267 315
#     4   9  19  34  55  74  99 131 180 230 292 331
#     4   8  15  30  50  73  96 135 180 234 281 322
#
# _framework density 17.838746
#
# number of rings (size 3 to 8) (size 9 to 14) (size 15 to 20)
#    0.000    2.000    1.250    3.750    3.500    2.500 
#    0.000    1.875    0.000    0.000    0.000    0.000 
#    0.000    8.000    0.000    0.000    0.000    0.000 
#
# Total GULP energy -356508.828463 kJ/mol
# GULP energy per Si atom -5570.450445 kJ/mol
# Density = 1.779814 g / cm^3
# Si number density = 17.838746 Si / 1000 Ang^3
#
#
#
# Elastic Constant Matrix: (Units=GPa)
#
#
# Indices 1 2 3 4 5 6 
#
# 1 45.4606 26.7994 11.8027 0.0000 0.0000 0.0000
# 2 26.7994 45.4619 11.8023 0.0000 0.0000 0.0000
# 3 11.8027 11.8023 43.4056 0.0000 0.0000 0.0000
# 4 0.0000 0.0000 0.0000 15.5958 0.0000 0.0000
# 5 0.0000 0.0000 0.0000 0.0000 15.5957 0.0000
# 6 0.0000 0.0000 0.0000 0.0000 0.0000 22.3362
#
#
#
# Elastic Compliance Matrix: (Units=1/GPa)
#
#
# Indices 1 2 3 4 5 6 
#
# 1 0.034387 -0.019199 -0.004130 0.000000 0.000000 0.000000
# 2 -0.019199 0.034386 -0.004129 0.000000 0.000000 0.000000
# 3 -0.004130 -0.004129 0.025284 0.000000 0.000000 0.000000
# 4 0.000000 0.000000 0.000000 0.064120 0.000000 0.000000
# 5 0.000000 0.000000 0.000000 0.000000 0.064120 0.000000
# 6 0.000000 0.000000 0.000000 0.000000 0.000000 0.044770
#
#
# Mechanical properties :
#
#
# Convention : Reuss Voigt Hill
#
# Bulk Modulus (GPa) = 25.54864 26.12632 25.83748
# Shear Modulus (GPa) = 14.92400 16.30046 15.61223
#
# Velocity S-wave (km/s) = 2.89555 3.02614 2.96156
# Velocity P-wave (km/s) = 5.05292 5.18533 5.11955
#
# Compressibility (1/GPa) = 0.03914102
#
# Stress axis : x y z
#
# Youngs Moduli (GPa) = 29.08071 29.08174 39.55018
#
# Poissons Ratio (x) = 0.55833 0.16335
# Poissons Ratio (y) = 0.55831 0.16332
# Poissons Ratio (z) = 0.12011 0.12009
#
# Static dielectric constant tensor:
#      x y z
#    x 1.610490 0.000000 0.000000 
#    y 0.000000 1.610490 0.000000 
#    z 0.000000 0.000000 1.683630 
# 
# From -- ./inp_files/7931.got.cif
#   From: 2010.05.17/outbox.cif.g08.bks.cpg/sg98_4_cif.got.tgz:7931.got - 2010.06.03 20:00:51.
