data_PCOD9551827
_publ_section_title
;
Structure prediction by ZEFSAII (Michael W. Deem and Ramdas Pophale) SiO2 
 PCOD9551827
Probable space group: I 41 2 2
;
_chemical_formula_sum "Si O2"
_cell_formula_units_Z 112
_cell_length_a 14.253746
_cell_length_b 14.253746
_cell_length_c 26.516388
_cell_angle_alpha 90.000000
_cell_angle_beta 90.000000
_cell_angle_gamma 90.000000
_cell_volume 5387.315326
_symmetry_space_group_name_H-M "I 41 2 2"
_symmetry_group_IT_number 98
_symmetry_cell_setting 'tetragonal'
loop_
_space_group_symop_operation_xyz
x,y,z
-y,1/2+x,1/4+z
-x,-y,z
y,1/2-x,1/4+z
x,1/2-y,1/4-z
-x,1/2+y,1/4-z
y,x,-z
-y,-x,-z
1/2+x,1/2+y,1/2+z
1/2-y,x,3/4+z
1/2-x,1/2-y,1/2+z
1/2+y,-x,3/4+z
1/2+x,-y,3/4-z
1/2-x,y,3/4-z
1/2+y,1/2+x,1/2-z
1/2-y,1/2-x,1/2-z
loop_
_atom_site_type_symbol
_atom_site_label
_atom_site_fract_x
_atom_site_fract_y
_atom_site_fract_z
Si Si1 0.653507 0.197422 0.175621
Si Si2 0.866484 0.284585 0.293409
Si Si3 0.953091 0.665633 0.716721
Si Si4 0.643707 0.690801 0.876388
Si Si5 0.205534 0.957404 0.149401
Si Si6 0.127323 0.416916 0.976778
Si Si7 0.600922 0.067087 0.989612
O O1 0.619975 0.250000 0.125000
O O2 0.739234 0.263816 0.194148
O O3 0.563194 0.182595 0.210090
O O4 0.699198 0.097365 0.164429
O O5 0.861140 0.361140 0.250000
O O6 0.914984 0.317292 0.344426
O O7 0.915193 0.199227 0.265142
O O8 0.921142 0.578858 0.750000
O O9 0.898719 0.651188 0.663939
O O10 0.913231 0.763160 0.740280
O O11 0.750000 0.729948 0.875000
O O12 0.565812 0.765548 0.893606
O O13 0.615749 0.648481 0.821826
O O14 0.127787 0.926854 0.190607
O O15 0.102197 0.526430 0.967674
O O16 0.045291 0.399699 0.017524
#
# Coordination Sequence:
#
# PCOD9551827 Si02
#       7
#    16  16  16  16  16  16  16
#     4  10  21  35  55  88 134 173 210 262 321 407
#     4  11  21  37  61  93 133 171 214 276 345 409
#     4  11  22  36  56  91 132 175 219 268 332 406
#     4  10  22  37  57  86 130 184 235 270 329 406
#     4  11  23  39  61  99 135 175 224 282 335 411
#     4  10  21  38  59  88 122 179 227 270 324 403
#     4  11  21  36  63  92 127 176 232 269 340 404
#
# _framework density 20.789574999999999
#
# number of rings (size 3 to 8) (size 9 to 14) (size 15 to 20)
#    0.000    1.429    4.286    2.143    2.000    0.571 
#    0.000    3.571    0.000    0.000   59.429    2.000 
#    0.000    0.000    0.000    0.000    0.000    0.000 
#
# Total GULP energy -312349.249020 kJ/mol
# GULP energy per Si atom -5577.665161 kJ/mol
# Density = 2.074226 g / cm^3
# Si number density = 20.789575 Si / 1000 Ang^3
#
#
#
# Elastic Constant Matrix: (Units=GPa)
#
#
# Indices 1 2 3 4 5 6 
#
# 1 84.5570 35.2569 40.6402 0.0000 0.0000 0.0000
# 2 35.2569 84.5580 40.6404 0.0000 0.0000 0.0000
# 3 40.6402 40.6404 119.7985 0.0000 0.0000 0.0000
# 4 0.0000 0.0000 0.0000 26.5488 0.0000 0.0000
# 5 0.0000 0.0000 0.0000 0.0000 26.5486 0.0000
# 6 0.0000 0.0000 0.0000 0.0000 0.0000 19.9488
#
#
#
# Elastic Compliance Matrix: (Units=1/GPa)
#
#
# Indices 1 2 3 4 5 6 
#
# 1 0.015563 -0.004721 -0.003678 0.000000 0.000000 0.000000
# 2 -0.004721 0.015562 -0.003678 0.000000 0.000000 0.000000
# 3 -0.003678 -0.003678 0.010843 0.000000 0.000000 0.000000
# 4 0.000000 0.000000 0.000000 0.037667 0.000000 0.000000
# 5 0.000000 0.000000 0.000000 0.000000 0.037667 0.000000
# 6 0.000000 0.000000 0.000000 0.000000 0.000000 0.050128
#
#
# Mechanical properties :
#
#
# Convention : Reuss Voigt Hill
#
# Bulk Modulus (GPa) = 56.13566 57.99871 57.06718
# Shear Modulus (GPa) = 25.31380 26.10096 25.70738
#
# Velocity S-wave (km/s) = 3.49323 3.54712 3.52028
# Velocity P-wave (km/s) = 6.58260 6.68840 6.63571
#
# Compressibility (1/GPa) = 0.01781399
#
# Stress axis : x y z
#
# Youngs Moduli (GPa) = 64.25682 64.25763 92.22860
#
# Poissons Ratio (x) = 0.30338 0.33920
# Poissons Ratio (y) = 0.30337 0.33919
# Poissons Ratio (z) = 0.23632 0.23632
#
# Static dielectric constant tensor:
#      x y z
#    x 1.798110 0.000000 0.000000 
#    y 0.000000 1.798110 0.000000 
#    z 0.000000 0.000000 1.820220 
# 
# From -- ./inp_files/10968.got.cif
#   From: 2010.05.17/outbox.cif.g08.bks.cpg/sg98_6_cif.got.tgz:10968.got - 2010.06.03 20:00:51.
