data_PCOD9551958
_publ_section_title
;
Structure prediction by ZEFSAII (Michael W. Deem and Ramdas Pophale) SiO2 
 PCOD9551958
Probable space group: I 41 2 2
;
_chemical_formula_sum "Si O2"
_cell_formula_units_Z 88
_cell_length_a 16.332318
_cell_length_b 16.332318
_cell_length_c 13.394438
_cell_angle_alpha 90.000000
_cell_angle_beta 90.000000
_cell_angle_gamma 90.000000
_cell_volume 3572.894157
_symmetry_space_group_name_H-M "I 41 2 2"
_symmetry_group_IT_number 98
_symmetry_cell_setting 'tetragonal'
loop_
_space_group_symop_operation_xyz
x,y,z
-y,1/2+x,1/4+z
-x,-y,z
y,1/2-x,1/4+z
x,1/2-y,1/4-z
-x,1/2+y,1/4-z
y,x,-z
-y,-x,-z
1/2+x,1/2+y,1/2+z
1/2-y,x,3/4+z
1/2-x,1/2-y,1/2+z
1/2+y,-x,3/4+z
1/2+x,-y,3/4-z
1/2-x,y,3/4-z
1/2+y,1/2+x,1/2-z
1/2-y,1/2-x,1/2-z
loop_
_atom_site_type_symbol
_atom_site_label
_atom_site_fract_x
_atom_site_fract_y
_atom_site_fract_z
Si Si1 0.250000 0.504530 0.375000
Si Si2 0.500000 0.500000 0.500000
Si Si3 0.210143 0.210143 0.500000
Si Si4 0.000000 0.000000 0.500000
Si Si5 0.713753 0.418995 0.975345
Si Si6 0.183088 0.521296 0.167770
Si Si7 0.869201 0.860094 0.832720
Si Si8 0.123728 0.074055 0.377730
O O1 0.227786 0.549967 0.270713
O O2 0.171677 0.444710 0.387010
O O3 0.486261 0.583237 0.433161
O O4 0.198140 0.300764 0.462493
O O5 0.171557 0.153648 0.413139
O O6 0.968928 0.932722 0.418186
O O7 0.750000 0.378525 0.875000
O O8 0.675004 0.501953 0.929448
O O9 0.636754 0.363247 0.000000
O O10 0.774164 0.435727 0.070533
O O11 0.195157 0.423312 0.156707
O O12 0.930049 0.876451 0.740022
#
# Coordination Sequence:
#
# PCOD9551958 Si02
#       8
#     8   4   8   4  16  16  16  16
#     4  12  28  44  68 112 156 216 274 318 396 504
#     4  12  28  56  80 112 166 222 286 338 422 522
#     4  11  22  34  62 104 150 194 236 309 386 478
#     4  10  24  38  64 116 142 188 250 306 408 446
#     4  12  26  52  81 113 154 197 266 345 414 482
#     4  12  27  51  76 112 154 209 271 336 411 492
#     4  12  24  41  70 104 161 205 254 315 393 485
#     4  11  22  40  69 105 148 191 250 321 390 475
#
# _framework density 24.629891000000001
#
# number of rings (size 3 to 8) (size 9 to 14) (size 15 to 20)
#    0.000    0.364    6.364    1.636    7.636    2.182 
#    1.636    0.000    0.000    0.000    0.000    0.000 
#    0.000    0.000    0.000    0.000    0.000    0.000 
#
# Total GULP energy -244962.383273 kJ/mol
# GULP energy per Si atom -5567.326893 kJ/mol
# Density = 2.457383 g / cm^3
# Si number density = 24.629891 Si / 1000 Ang^3
#
#
#
# Elastic Constant Matrix: (Units=GPa)
#
#
# Indices 1 2 3 4 5 6 
#
# 1 81.4982 34.3791 49.4814 0.0000 0.0000 0.0000
# 2 34.3791 81.4955 49.4796 0.0000 0.0000 0.0000
# 3 49.4814 49.4796 190.1274 0.0000 0.0000 0.0000
# 4 0.0000 0.0000 0.0000 23.2118 0.0000 0.0000
# 5 0.0000 0.0000 0.0000 0.0000 23.2123 0.0000
# 6 0.0000 0.0000 0.0000 0.0000 0.0000 52.2505
#
#
#
# Elastic Compliance Matrix: (Units=1/GPa)
#
#
# Indices 1 2 3 4 5 6 
#
# 1 0.016160 -0.005064 -0.002888 0.000000 0.000000 0.000000
# 2 -0.005064 0.016160 -0.002888 0.000000 0.000000 0.000000
# 3 -0.002888 -0.002888 0.006763 0.000000 0.000000 0.000000
# 4 0.000000 0.000000 0.000000 0.043082 0.000000 0.000000
# 5 0.000000 0.000000 0.000000 0.000000 0.043081 0.000000
# 6 0.000000 0.000000 0.000000 0.000000 0.000000 0.019139
#
#
# Mechanical properties :
#
#
# Convention : Reuss Voigt Hill
#
# Bulk Modulus (GPa) = 57.45827 68.86682 63.16254
# Shear Modulus (GPa) = 29.09300 34.38699 31.73999
#
# Velocity S-wave (km/s) = 3.44060 3.74056 3.59371
# Velocity P-wave (km/s) = 6.25803 6.83206 6.55134
#
# Compressibility (1/GPa) = 0.01740394
#
# Stress axis : x y z
#
# Youngs Moduli (GPa) = 61.88279 61.88120 147.86982
#
# Poissons Ratio (x) = 0.31335 0.42702
# Poissons Ratio (y) = 0.31335 0.42701
# Poissons Ratio (z) = 0.17871 0.17870
#
# Static dielectric constant tensor:
#      x y z
#    x 2.101570 0.000000 0.000000 
#    y 0.000000 2.101580 0.000000 
#    z 0.000000 0.000000 2.554350 
# 
# From -- ./inp_files/6587.got.cif
#   From: 2010.05.17/outbox.cif.g08.bks.cpg/sg98_4_cif.got.tgz:6587.got - 2010.06.03 20:00:51.
