data_PCOD9551523
_publ_section_title
;
Structure prediction by ZEFSAII (Michael W. Deem and Ramdas Pophale) SiO2 
 PCOD9551523
Probable space group: I 4 2 2 
;
_chemical_formula_sum "Si O2"
_cell_formula_units_Z 80
_cell_length_a 11.752695
_cell_length_b 11.752695
_cell_length_c 30.339711
_cell_angle_alpha 90.000000
_cell_angle_beta 90.000000
_cell_angle_gamma 90.000000
_cell_volume 4190.698060
_symmetry_space_group_name_H-M "I 4 2 2 "
_symmetry_group_IT_number 97
_symmetry_cell_setting 'tetragonal'
loop_
_space_group_symop_operation_xyz
x,y,z
-y,x,z
-x,-y,z
y,-x,z
x,-y,-z
-x,y,-z
y,x,-z
-y,-x,-z
1/2+x,1/2+y,1/2+z
1/2-y,1/2+x,1/2+z
1/2-x,1/2-y,1/2+z
1/2+y,1/2-x,1/2+z
1/2+x,1/2-y,1/2-z
1/2-x,1/2+y,1/2-z
1/2+y,1/2+x,1/2-z
1/2-y,1/2-x,1/2-z
loop_
_atom_site_type_symbol
_atom_site_label
_atom_site_fract_x
_atom_site_fract_y
_atom_site_fract_z
Si Si1 0.885441 0.431167 0.336283
Si Si2 0.819308 0.044995 0.771729
Si Si3 0.819839 0.954010 0.334606
Si Si4 0.001053 0.638093 0.928823
Si Si5 0.635868 0.183675 0.001004
O O1 0.796822 0.428274 0.296468
O O2 0.921822 0.304388 0.351403
O O3 0.826388 0.490364 0.378425
O O4 0.000000 0.500000 0.324385
O O5 0.808917 0.047513 0.718731
O O6 0.919238 0.134022 0.783351
O O7 0.920361 0.865794 0.346848
O O8 0.000000 0.500000 0.927474
O O9 0.113969 0.670478 0.955213
O O10 0.894922 0.671339 0.959565
O O11 0.500000 0.192831 0.000000
O O12 0.696999 0.303002 0.000000
#
# Coordination Sequence:
#
# PCOD9551523 Si02
#       5
#    16  16  16  16  16
#     4  11  22  34  56  85 108 144 195 243 281 347
#     4   9  20  37  54  75 110 152 190 238 293 339
#     4   9  20  39  56  75 112 155 189 234 298 349
#     4   8  18  36  52  74 109 145 176 218 270 322
#     4   9  17  34  58  79 107 144 176 210 270 335
#
# _framework density 19.089898999999999
#
# number of rings (size 3 to 8) (size 9 to 14) (size 15 to 20)
#    0.000    2.800    0.000    3.000    2.800    3.400 
#    7.200    0.000    0.000    4.800    0.000    0.000 
#    0.000    0.000    0.000    0.000    0.000    0.000 
#
# Total GULP energy -223097.210921 kJ/mol
# GULP energy per Si atom -5577.430273 kJ/mol
# Density = 1.904645 g / cm^3
# Si number density = 19.089899 Si / 1000 Ang^3
#
#
#
# Elastic Constant Matrix: (Units=GPa)
#
#
# Indices 1 2 3 4 5 6 
#
# 1 66.7500 32.4726 3.5192 0.0000 0.0000 0.0000
# 2 32.4726 66.7465 3.5189 0.0000 0.0000 0.0000
# 3 3.5192 3.5189 32.4485 0.0000 0.0000 0.0000
# 4 0.0000 0.0000 0.0000 5.7166 0.0000 0.0000
# 5 0.0000 0.0000 0.0000 0.0000 5.7139 0.0000
# 6 0.0000 0.0000 0.0000 0.0000 0.0000 7.4043
#
#
#
# Elastic Compliance Matrix: (Units=1/GPa)
#
#
# Indices 1 2 3 4 5 6 
#
# 1 0.019665 -0.009509 -0.001102 0.000000 0.000000 0.000000
# 2 -0.009509 0.019666 -0.001101 0.000000 0.000000 0.000000
# 3 -0.001102 -0.001101 0.031057 0.000000 0.000000 0.000000
# 4 0.000000 0.000000 0.000000 0.174930 0.000000 0.000000
# 5 0.000000 0.000000 0.000000 0.000000 0.175013 0.000000
# 6 0.000000 0.000000 0.000000 0.000000 0.000000 0.135057
#
#
# Mechanical properties :
#
#
# Convention : Reuss Voigt Hill
#
# Bulk Modulus (GPa) = 21.29277 27.21849 24.25563
# Shear Modulus (GPa) = 8.41088 12.19590 10.30339
#
# Velocity S-wave (km/s) = 2.10131 2.53032 2.32573
# Velocity P-wave (km/s) = 4.13104 4.77763 4.46605
#
# Compressibility (1/GPa) = 0.04696430
#
# Stress axis : x y z
#
# Youngs Moduli (GPa) = 50.85059 50.84796 32.19893
#
# Poissons Ratio (x) = 0.48353 0.03547
# Poissons Ratio (y) = 0.48355 0.03546
# Poissons Ratio (z) = 0.05602 0.05600
#
# Static dielectric constant tensor:
#      x y z
#    x 1.659010 0.000000 0.000000 
#    y 0.000000 1.659010 0.000000 
#    z 0.000000 0.000000 1.697530 
# 
# From -- ./inp_files/7929.got.cif
#   From: 2010.05.17/outbox.cif.g08.bks.cpg/sg97_4_cif.got.tgz:7929.got - 2010.06.03 19:55:32.
