data_PCOD9551091
_publ_section_title
;
Structure prediction by ZEFSAII (Michael W. Deem and Ramdas Pophale) SiO2 
 PCOD9551091
Probable space group: P 43 21 2
;
_chemical_formula_sum "Si O2"
_cell_formula_units_Z 20
_cell_length_a 8.186067
_cell_length_b 8.186067
_cell_length_c 10.681257
_cell_angle_alpha 90.000000
_cell_angle_beta 90.000000
_cell_angle_gamma 90.000000
_cell_volume 715.769114
_symmetry_space_group_name_H-M "P 43 21 2"
_symmetry_group_IT_number 96
_symmetry_cell_setting 'tetragonal'
loop_
_space_group_symop_operation_xyz
x,y,z
1/2-y,1/2+x,3/4+z
-x,-y,1/2+z
1/2+y,1/2-x,1/4+z
1/2+x,1/2-y,1/4-z
1/2-x,1/2+y,3/4-z
y,x,-z
-y,-x,1/2-z
loop_
_atom_site_type_symbol
_atom_site_label
_atom_site_fract_x
_atom_site_fract_y
_atom_site_fract_z
Si Si1 0.385104 0.446755 0.640011
Si Si2 0.257498 0.257498 0.000000
Si Si3 0.610659 0.922187 0.147136
O O1 0.449029 0.449029 0.500000
O O2 0.517397 0.482604 0.750000
O O3 0.268131 0.602487 0.658831
O O4 0.321640 0.261834 0.656296
O O5 0.228261 0.431500 0.060219
O O6 0.467460 0.929800 0.253200
#
# Coordination Sequence:
#
# PCOD9551091 Si02
#       3
#     8   4   8
#     4  10  26  54  85 120 172 224 280 360 433 512
#     4  10  28  50  82 118 172 214 286 342 426 514
#     4  12  29  50  88 125 166 227 288 349 439 521
#
# _framework density 27.941969
#
# number of rings (size 3 to 8) (size 9 to 14) (size 15 to 20)
#    1.200    0.000    0.000    2.400   11.200    4.800 
#    0.000    0.000    4.400    0.000    0.000    0.000 
#    0.000    0.000    0.000    0.000    0.000    0.000 
#
# Total GULP energy -111998.043999 kJ/mol
# GULP energy per Si atom -5599.902200 kJ/mol
# Density = 2.787837 g / cm^3
# Si number density = 27.941969 Si / 1000 Ang^3
#
#
#
# Elastic Constant Matrix: (Units=GPa)
#
#
# Indices 1 2 3 4 5 6 
#
# 1 167.5058 133.3732 80.0025 0.0000 0.0000 0.0000
# 2 133.3732 167.5040 80.0039 0.0000 0.0000 0.0000
# 3 80.0025 80.0039 218.9316 0.0000 0.0000 0.0000
# 4 0.0000 0.0000 0.0000 56.0906 0.0000 0.0000
# 5 0.0000 0.0000 0.0000 0.0000 56.0908 0.0000
# 6 0.0000 0.0000 0.0000 0.0000 0.0000 36.2324
#
#
#
# Elastic Compliance Matrix: (Units=1/GPa)
#
#
# Indices 1 2 3 4 5 6 
#
# 1 0.016712 -0.012586 -0.001507 0.000000 0.000000 0.000000
# 2 -0.012586 0.016712 -0.001508 0.000000 0.000000 0.000000
# 3 -0.001507 -0.001508 0.005669 0.000000 0.000000 0.000000
# 4 0.000000 0.000000 0.000000 0.017828 0.000000 0.000000
# 5 0.000000 0.000000 0.000000 0.000000 0.017828 0.000000
# 6 0.000000 0.000000 0.000000 0.000000 0.000000 0.027600
#
#
# Mechanical properties :
#
#
# Convention : Reuss Voigt Hill
#
# Bulk Modulus (GPa) = 126.74251 126.74451 126.74351
# Shear Modulus (GPa) = 36.71558 47.05354 41.88456
#
# Velocity S-wave (km/s) = 3.62884 4.10808 3.87587
# Velocity P-wave (km/s) = 7.93824 8.24379 8.09246
#
# Compressibility (1/GPa) = 0.00789001
#
# Stress axis : x y z
#
# Youngs Moduli (GPa) = 59.83873 59.83745 176.38607
#
# Poissons Ratio (x) = 0.75314 0.26587
# Poissons Ratio (y) = 0.75316 0.26593
# Poissons Ratio (z) = 0.09020 0.09021
#
# Static dielectric constant tensor:
#      x y z
#    x 2.163880 0.000000 0.000000 
#    y 0.000000 2.163870 0.000000 
#    z 0.000000 0.000000 2.170960 
# 
# From -- ./inp_files/1760.got.cif
#   From: 2010.05.17/outbox.cif.g08.bks.cpg/sg96_1_cif.got.tgz:1760.got - 2010.06.03 19:52:08.
