data_PCOD9551631
_publ_section_title
;
Structure prediction by ZEFSAII (Michael W. Deem and Ramdas Pophale) SiO2 
 PCOD9551631
Probable space group: I 41 2 2
;
_chemical_formula_sum "Si O2"
_cell_formula_units_Z 92
_cell_length_a 26.055154
_cell_length_b 26.055154
_cell_length_c 8.715832
_cell_angle_alpha 90.000000
_cell_angle_beta 90.000000
_cell_angle_gamma 90.000000
_cell_volume 5916.926021
_symmetry_space_group_name_H-M "I 41 2 2"
_symmetry_group_IT_number 98
_symmetry_cell_setting 'tetragonal'
loop_
_space_group_symop_operation_xyz
x,y,z
-y,1/2+x,1/4+z
-x,-y,z
y,1/2-x,1/4+z
x,1/2-y,1/4-z
-x,1/2+y,1/4-z
y,x,-z
-y,-x,-z
1/2+x,1/2+y,1/2+z
1/2-y,x,3/4+z
1/2-x,1/2-y,1/2+z
1/2+y,-x,3/4+z
1/2+x,-y,3/4-z
1/2-x,y,3/4-z
1/2+y,1/2+x,1/2-z
1/2-y,1/2-x,1/2-z
loop_
_atom_site_type_symbol
_atom_site_label
_atom_site_fract_x
_atom_site_fract_y
_atom_site_fract_z
Si Si1 0.000000 0.000000 0.500000
Si Si2 0.725838 0.066806 0.217169
Si Si3 0.619846 0.119846 0.250000
Si Si4 0.987159 0.596609 0.211257
Si Si5 0.927997 0.043339 0.255585
Si Si6 0.382560 0.702357 0.528586
Si Si7 0.009155 0.695037 0.059992
O O1 0.048397 0.994761 0.384779
O O2 0.750000 0.049368 0.375000
O O3 0.679503 0.106862 0.236957
O O4 0.771155 0.094288 0.122301
O O5 0.702020 0.019970 0.119303
O O6 0.599333 0.088082 0.397977
O O7 0.939414 0.560587 0.250000
O O8 0.016081 0.605646 0.374178
O O9 0.024850 0.566153 0.094446
O O10 0.975479 0.649144 0.123537
O O11 0.358959 0.750000 0.625000
O O12 0.343124 0.656877 0.500000
O O13 0.433045 0.684977 0.622867
O O14 0.992959 0.750000 0.125000
#
# Coordination Sequence:
#
# PCOD9551631 Si02
#       7
#     4  16   8  16  16  16  16
#     4  10  16  34  36  76 108 122 148 192 252 310
#     4  10  22  33  50  68  89 121 176 219 270 318
#     4  11  22  33  48  72  92 128 156 224 262 312
#     4  11  19  33  51  75  96 131 167 197 246 309
#     4  10  20  29  50  69 107 124 156 201 256 307
#     4   9  21  37  49  61  85 120 167 219 269 314
#     4   9  21  36  51  68  92 129 170 201 244 317
#
# _framework density 15.548614000000001
#
# number of rings (size 3 to 8) (size 9 to 14) (size 15 to 20)
#    0.000    2.435    3.478    0.522   12.174    0.000 
#    1.565    0.000    0.000    0.000    0.000    0.000 
#    0.000    0.000    0.000    0.000   16.522    0.000 
#
# Total GULP energy -256422.594430 kJ/mol
# GULP energy per Si atom -5574.404227 kJ/mol
# Density = 1.551323 g / cm^3
# Si number density = 15.548614 Si / 1000 Ang^3
#
#
#
# Elastic Constant Matrix: (Units=GPa)
#
#
# Indices 1 2 3 4 5 6 
#
# 1 41.2196 24.2006 26.1911 0.0000 0.0000 0.0000
# 2 24.2006 41.2242 26.1919 0.0000 0.0000 0.0000
# 3 26.1911 26.1919 118.3626 0.0000 0.0000 0.0000
# 4 0.0000 0.0000 0.0000 21.1038 0.0000 0.0000
# 5 0.0000 0.0000 0.0000 0.0000 21.1036 0.0000
# 6 0.0000 0.0000 0.0000 0.0000 0.0000 17.3709
#
#
#
# Elastic Compliance Matrix: (Units=1/GPa)
#
#
# Indices 1 2 3 4 5 6 
#
# 1 0.038666 -0.020087 -0.004111 0.000000 0.000000 0.000000
# 2 -0.020087 0.038661 -0.004110 0.000000 0.000000 0.000000
# 3 -0.004111 -0.004110 0.010268 0.000000 0.000000 0.000000
# 4 0.000000 0.000000 0.000000 0.047385 0.000000 0.000000
# 5 0.000000 0.000000 0.000000 0.000000 0.047385 0.000000
# 6 0.000000 0.000000 0.000000 0.000000 0.000000 0.057567
#
#
# Mechanical properties :
#
#
# Convention : Reuss Voigt Hill
#
# Bulk Modulus (GPa) = 32.28055 39.33041 35.80548
# Shear Modulus (GPa) = 16.29332 20.19719 18.24526
#
# Velocity S-wave (km/s) = 3.24063 3.60803 3.42926
# Velocity P-wave (km/s) = 5.89986 6.53508 6.22558
#
# Compressibility (1/GPa) = 0.03097841
#
# Stress axis : x y z
#
# Youngs Moduli (GPa) = 25.86272 25.86589 97.39138
#
# Poissons Ratio (x) = 0.51956 0.40038
# Poissons Ratio (y) = 0.51950 0.40031
# Poissons Ratio (z) = 0.10632 0.10632
#
# Static dielectric constant tensor:
#      x y z
#    x 1.526490 0.000000 0.000000 
#    y 0.000000 1.526490 0.000000 
#    z 0.000000 0.000000 1.585810 
# 
# From -- ./inp_files/3861.got.cif
#   From: 2010.05.17/outbox.cif.g08.bks.cpg/sg98_2_cif.got.tgz:3861.got - 2010.06.03 20:00:51.
