data_PCOD9551193
_publ_section_title
;
Structure prediction by ZEFSAII (Michael W. Deem and Ramdas Pophale) SiO2 
 PCOD9551193
Probable space group: P 43 21 2
;
_chemical_formula_sum "Si O2"
_cell_formula_units_Z 56
_cell_length_a 15.000000
_cell_length_b 15.000000
_cell_length_c 12.000000
_cell_angle_alpha 90.000000
_cell_angle_beta 90.000000
_cell_angle_gamma 90.000000
_cell_volume 2700.000000
_symmetry_space_group_name_H-M "P 43 21 2"
_symmetry_group_IT_number 96
_symmetry_cell_setting 'tetragonal'
loop_
_space_group_symop_operation_xyz
x,y,z
1/2-y,1/2+x,3/4+z
-x,-y,1/2+z
1/2+y,1/2-x,1/4+z
1/2+x,1/2-y,1/4-z
1/2-x,1/2+y,3/4-z
y,x,-z
-y,-x,1/2-z
loop_
_atom_site_type_symbol
_atom_site_label
_atom_site_fract_x
_atom_site_fract_y
_atom_site_fract_z
Si Si1 0.512226 0.184450 0.507145
Si Si2 0.816788 0.559578 0.239642
Si Si3 0.124719 0.229544 0.234546
Si Si4 0.072438 0.797700 0.683156
Si Si5 0.133533 0.373640 0.081537
Si Si6 0.642766 0.936402 0.077724
Si Si7 0.801000 0.902104 0.910803
O O1 0.609454 0.137403 0.499776
O O2 0.469659 0.201214 0.386915
O O3 0.451690 0.108378 0.562273
O O4 0.513738 0.273762 0.583428
O O5 0.725015 0.584734 0.303095
O O6 0.856886 0.468322 0.294478
O O7 0.167392 0.278821 0.129771
O O8 0.092637 0.312452 0.308002
O O9 0.183994 0.171000 0.315228
O O10 0.032357 0.181227 0.202000
O O11 0.130814 0.869186 0.750000
O O12 0.097229 0.701636 0.736095
O O13 0.137117 0.457266 0.165845
O O14 0.712103 0.899294 0.985972
O O15 0.881446 0.881446 0.000000
#
# Coordination Sequence:
#
# PCOD9551193 Si02
#       7
#     8   8   8   8   8   8   8
#     4  12  21  34  61  91 137 159 200 274 327 413
#     4  11  22  34  55  96 129 165 204 259 351 404
#     4   9  21  37  57  81 117 168 218 255 322 392
#     4  10  22  38  58  83 121 168 220 273 318 396
#     4  10  20  34  55  87 124 156 202 261 340 410
#     4  10  20  34  57  89 120 158 202 262 338 396
#     4  10  22  39  57  85 124 170 211 256 317 398
#
# _framework density 20.740741
#
# number of rings (size 3 to 8) (size 9 to 14) (size 15 to 20)
#    0.000    1.714    2.857    1.714    6.000    0.000 
#    0.000    2.143    0.000   12.857    0.000    0.000 
#    0.000    0.000    0.000    0.000    0.000    0.000 
#
# Total GULP energy -311749.877506 kJ/mol
# GULP energy per Si atom -5566.962098 kJ/mol
# Density = 2.069353 g / cm^3
# Si number density = 20.740741 Si / 1000 Ang^3
#
#
#
# Elastic Constant Matrix: (Units=GPa)
#
#
# Indices 1 2 3 4 5 6 
#
# 1 33.0325 25.9038 15.2595 0.0000 0.0000 0.0000
# 2 25.9038 33.0325 15.2595 0.0000 0.0000 0.0000
# 3 15.2595 15.2595 91.2884 0.0000 0.0000 0.0000
# 4 0.0000 0.0000 0.0000 28.3887 0.0000 0.0000
# 5 0.0000 0.0000 0.0000 0.0000 28.3887 0.0000
# 6 0.0000 0.0000 0.0000 0.0000 0.0000 11.2747
#
#
#
# Elastic Compliance Matrix: (Units=1/GPa)
#
#
# Indices 1 2 3 4 5 6 
#
# 1 0.079427 -0.060852 -0.003105 0.000000 0.000000 0.000000
# 2 -0.060852 0.079427 -0.003105 0.000000 0.000000 0.000000
# 3 -0.003105 -0.003105 0.011992 0.000000 0.000000 0.000000
# 4 0.000000 0.000000 0.000000 0.035225 0.000000 0.000000
# 5 0.000000 0.000000 0.000000 0.000000 0.035225 0.000000
# 6 0.000000 0.000000 0.000000 0.000000 0.000000 0.088694
#
#
# Mechanical properties :
#
#
# Convention : Reuss Voigt Hill
#
# Bulk Modulus (GPa) = 27.23087 30.02209 28.62648
# Shear Modulus (GPa) = 10.49633 20.33914 15.41774
#
# Velocity S-wave (km/s) = 2.25205 3.13491 2.72941
# Velocity P-wave (km/s) = 4.46318 5.25451 4.87493
#
# Compressibility (1/GPa) = 0.03672303
#
# Stress axis : x y z
#
# Youngs Moduli (GPa) = 12.59010 12.59010 83.38655
#
# Poissons Ratio (x) = 0.76613 0.25891
# Poissons Ratio (y) = 0.76613 0.25891
# Poissons Ratio (z) = 0.03909 0.03909
#
# Static dielectric constant tensor:
#      x y z
#    x 1.732610 0.000000 0.000000 
#    y 0.000000 1.732610 0.000000 
#    z 0.000000 0.000000 1.873430 
# 
# From -- ./inp_files/2298.got.cif
#   From: 2010.05.17/outbox.ucp.g08.bks.cvg/sg96_2_cif.got.tgz:2298.got - 2010.06.11 10:37:29.
