data_PCOD9551522
_publ_section_title
;
Structure prediction by ZEFSAII (Michael W. Deem and Ramdas Pophale) SiO2 
 PCOD9551522
Probable space group: I 4 2 2 
;
_chemical_formula_sum "Si O2"
_cell_formula_units_Z 108
_cell_length_a 14.661512
_cell_length_b 14.661512
_cell_length_c 24.031790
_cell_angle_alpha 90.000000
_cell_angle_beta 90.000000
_cell_angle_gamma 90.000000
_cell_volume 5165.871995
_symmetry_space_group_name_H-M "I 4 2 2 "
_symmetry_group_IT_number 97
_symmetry_cell_setting 'tetragonal'
loop_
_space_group_symop_operation_xyz
x,y,z
-y,x,z
-x,-y,z
y,-x,z
x,-y,-z
-x,y,-z
y,x,-z
-y,-x,-z
1/2+x,1/2+y,1/2+z
1/2-y,1/2+x,1/2+z
1/2-x,1/2-y,1/2+z
1/2+y,1/2-x,1/2+z
1/2+x,1/2-y,1/2-z
1/2-x,1/2+y,1/2-z
1/2+y,1/2+x,1/2-z
1/2-y,1/2-x,1/2-z
loop_
_atom_site_type_symbol
_atom_site_label
_atom_site_fract_x
_atom_site_fract_y
_atom_site_fract_z
Si Si1 0.153634 0.000000 0.000000
Si Si2 0.679088 0.174460 0.370719
Si Si3 0.502723 0.280726 0.836989
Si Si4 0.247332 0.007999 0.121983
Si Si5 0.000000 0.000000 0.643923
Si Si6 0.608256 0.894027 0.511081
Si Si7 0.958924 0.854782 0.772216
Si Si8 0.313986 0.837930 0.598331
O O1 0.088753 0.088753 0.000000
O O2 0.207446 0.996962 0.059250
O O3 0.727538 0.093466 0.337040
O O4 0.586453 0.221551 0.349723
O O5 0.640473 0.131433 0.427906
O O6 0.753806 0.251463 0.383429
O O7 0.490640 0.386548 0.854664
O O8 0.550866 0.280736 0.776174
O O9 0.570260 0.231860 0.880059
O O10 0.173554 0.049157 0.164162
O O11 0.326866 0.083006 0.120729
O O12 0.500000 0.880012 0.500000
O O13 0.669575 0.838536 0.467660
O O14 0.624724 0.000000 0.500000
O O15 0.893222 0.939507 0.762193
#
# Coordination Sequence:
#
# PCOD9551522 Si02
#       8
#     8  16  16  16   4  16  16  16
#     4  11  22  42  66  95 132 184 230 277 328 389
#     4  12  24  42  67  98 134 181 224 280 346 399
#     4  12  24  42  75  97 130 179 227 287 349 407
#     4  12  26  41  63 100 143 177 225 279 330 413
#     4  12  20  52  68 105 128 169 244 292 344 406
#     4  11  22  41  67  93 133 183 223 275 331 409
#     4  11  21  42  69  97 131 180 229 285 342 397
#     4  12  24  42  67  98 134 181 224 280 346 399
#
# _framework density 20.906441999999998
#
# number of rings (size 3 to 8) (size 9 to 14) (size 15 to 20)
#    0.000    0.370    5.926    4.000    0.000    2.963 
#    0.000    2.963    0.000    2.667    0.000    0.000 
#    0.000    0.000    0.000    0.000    0.000    0.000 
#
# Total GULP energy -301114.722906 kJ/mol
# GULP energy per Si atom -5576.198572 kJ/mol
# Density = 2.085886 g / cm^3
# Si number density = 20.906442 Si / 1000 Ang^3
#
#
#
# Elastic Constant Matrix: (Units=GPa)
#
#
# Indices 1 2 3 4 5 6 
#
# 1 -348.7898 459.9521 -2.7038 0.0000 0.0000 0.0000
# 2 459.9521 -348.7898 -2.7038 0.0000 0.0000 0.0000
# 3 -2.7038 -2.7038 65.6327 0.0000 0.0000 0.0000
# 4 0.0000 0.0000 0.0000 28.2899 0.0000 0.0000
# 5 0.0000 0.0000 0.0000 0.0000 28.2899 0.0000
# 6 0.0000 0.0000 0.0000 0.0000 0.0000 40.1359
#
#
#
# Elastic Compliance Matrix: (Units=1/GPa)
#
#
# Indices 1 2 3 4 5 6 
#
# 1 0.003889 0.005125 0.000371 0.000000 0.000000 0.000000
# 2 0.005125 0.003889 0.000371 0.000000 0.000000 0.000000
# 3 0.000371 0.000371 0.015267 0.000000 0.000000 0.000000
# 4 0.000000 0.000000 0.000000 0.035348 0.000000 0.000000
# 5 0.000000 0.000000 0.000000 0.000000 0.035348 0.000000
# 6 0.000000 0.000000 0.000000 0.000000 0.000000 0.024915
#
#
# Mechanical properties :
#
#
# Convention : Reuss Voigt Hill
#
# Bulk Modulus (GPa) = 28.75207 30.79356 29.77282
# Shear Modulus (GPa) = 42.18914 -53.08963 -5.45025
#
# Velocity S-wave (km/s) = 4.49709 -5.04470 -1.61636
# Velocity P-wave (km/s) = 6.38339 4.37845 3.28457
#
# Compressibility (1/GPa) = 0.03478010
#
# Stress axis : x y z
#
# Youngs Moduli (GPa) = 257.15436 257.15435 65.50115
#
# Poissons Ratio (x) = -1.31797 -0.02432
# Poissons Ratio (y) = -1.31797 -0.02432
# Poissons Ratio (z) = -0.09549 -0.09549
#
# Static dielectric constant tensor:
#      x y z
#    x 1.756610 0.000000 0.000000 
#    y 0.000000 1.756610 0.000000 
#    z 0.000000 0.000000 1.774770 
# 
# From -- ./inp_files/7311.got.cif
#   From: 2010.05.17/outbox.cif.g08.bks.cpg/sg97_4_cif.got.tgz:7311.got - 2010.06.03 19:55:32.
