data_PCOD9551020
_publ_section_title
;
Structure prediction by ZEFSAII (Michael W. Deem and Ramdas Pophale) SiO2 
 PCOD9551020
Probable space group: P 43 21 2
;
_chemical_formula_sum "Si O2"
_cell_formula_units_Z 40
_cell_length_a 7.163542
_cell_length_b 7.163542
_cell_length_c 30.233368
_cell_angle_alpha 90.000000
_cell_angle_beta 90.000000
_cell_angle_gamma 90.000000
_cell_volume 1551.465610
_symmetry_space_group_name_H-M "P 43 21 2"
_symmetry_group_IT_number 96
_symmetry_cell_setting 'tetragonal'
loop_
_space_group_symop_operation_xyz
x,y,z
1/2-y,1/2+x,3/4+z
-x,-y,1/2+z
1/2+y,1/2-x,1/4+z
1/2+x,1/2-y,1/4-z
1/2-x,1/2+y,3/4-z
y,x,-z
-y,-x,1/2-z
loop_
_atom_site_type_symbol
_atom_site_label
_atom_site_fract_x
_atom_site_fract_y
_atom_site_fract_z
Si Si1 0.669512 0.971326 0.700399
Si Si2 0.940457 0.941442 0.832087
Si Si3 0.362209 0.500989 0.322211
Si Si4 0.298157 0.886668 0.596861
Si Si5 0.036065 0.636177 0.453493
O O1 0.896492 0.005238 0.702505
O O2 0.551378 0.147338 0.683764
O O3 0.570344 0.930772 0.746907
O O4 0.682800 0.795353 0.667594
O O5 0.902226 0.056436 0.877110
O O6 0.743492 0.861806 0.817624
O O7 0.063204 0.770350 0.853088
O O8 0.450219 0.706040 0.317468
O O9 0.490249 0.358009 0.295408
O O10 0.508636 0.901700 0.577326
#
# Coordination Sequence:
#
# PCOD9551020 Si02
#       5
#     8   8   8   8   8
#     4  12  24  44  73 110 137 185 237 308 357 423
#     4  10  23  42  70  95 137 190 232 275 351 437
#     4  10  24  47  70  97 145 193 228 285 364 434
#     4  10  26  46  70 103 147 184 244 291 359 437
#     4  12  22  43  76 103 142 186 239 295 364 424
#
# _framework density 25.782076
#
# number of rings (size 3 to 8) (size 9 to 14) (size 15 to 20)
#    1.200    0.000    2.000    4.200    0.000    7.200 
#    3.600    0.000    0.000    0.000    0.000    0.000 
#    0.000    0.000    0.000    0.000    0.000    0.000 
#
# Total GULP energy -222674.548651 kJ/mol
# GULP energy per Si atom -5566.863716 kJ/mol
# Density = 2.572339 g / cm^3
# Si number density = 25.782076 Si / 1000 Ang^3
#
#
#
# Elastic Constant Matrix: (Units=GPa)
#
#
# Indices 1 2 3 4 5 6 
#
# 1 81.1934 49.6060 25.6112 0.0000 0.0000 0.0000
# 2 49.6060 81.1934 25.6112 0.0000 0.0000 0.0000
# 3 25.6112 25.6112 89.7662 0.0000 0.0000 0.0000
# 4 0.0000 0.0000 0.0000 23.6952 0.0000 0.0000
# 5 0.0000 0.0000 0.0000 0.0000 23.6952 0.0000
# 6 0.0000 0.0000 0.0000 0.0000 0.0000 35.4981
#
#
#
# Elastic Compliance Matrix: (Units=1/GPa)
#
#
# Indices 1 2 3 4 5 6 
#
# 1 0.020133 -0.011526 -0.002456 0.000000 0.000000 0.000000
# 2 -0.011526 0.020133 -0.002456 0.000000 0.000000 0.000000
# 3 -0.002456 -0.002456 0.012541 0.000000 0.000000 0.000000
# 4 0.000000 0.000000 0.000000 0.042203 0.000000 0.000000
# 5 0.000000 0.000000 0.000000 0.000000 0.042203 0.000000
# 6 0.000000 0.000000 0.000000 0.000000 0.000000 0.028171
#
#
# Mechanical properties :
#
#
# Convention : Reuss Voigt Hill
#
# Bulk Modulus (GPa) = 50.16908 50.42332 50.29620
# Shear Modulus (GPa) = 24.40214 26.66603 25.53409
#
# Velocity S-wave (km/s) = 3.07982 3.21952 3.15045
# Velocity P-wave (km/s) = 5.66994 5.78104 5.72576
#
# Compressibility (1/GPa) = 0.01993259
#
# Stress axis : x y z
#
# Youngs Moduli (GPa) = 49.67080 49.67080 79.73657
#
# Poissons Ratio (x) = 0.57249 0.19581
# Poissons Ratio (y) = 0.57249 0.19581
# Poissons Ratio (z) = 0.12197 0.12197
#
# Static dielectric constant tensor:
#      x y z
#    x 2.240310 0.000000 0.000000 
#    y 0.000000 2.240310 0.000000 
#    z 0.000000 0.000000 2.138890 
# 
# From -- ./inp_files/4305.got.cif
#   From: 2010.05.17/outbox.cif.g08.bks.cpg/sg96_3_cif.got.tgz:4305.got - 2010.06.03 19:52:08.
