data_PCOD9551993
_publ_section_title
;
Structure prediction by ZEFSAII (Michael W. Deem and Ramdas Pophale) SiO2 
 PCOD9551993
Probable space group: I 41 2 2
;
_chemical_formula_sum "Si O2"
_cell_formula_units_Z 96
_cell_length_a 15.851408
_cell_length_b 15.851408
_cell_length_c 19.263329
_cell_angle_alpha 90.000000
_cell_angle_beta 90.000000
_cell_angle_gamma 90.000000
_cell_volume 4840.241500
_symmetry_space_group_name_H-M "I 41 2 2"
_symmetry_group_IT_number 98
_symmetry_cell_setting 'tetragonal'
loop_
_space_group_symop_operation_xyz
x,y,z
-y,1/2+x,1/4+z
-x,-y,z
y,1/2-x,1/4+z
x,1/2-y,1/4-z
-x,1/2+y,1/4-z
y,x,-z
-y,-x,-z
1/2+x,1/2+y,1/2+z
1/2-y,x,3/4+z
1/2-x,1/2-y,1/2+z
1/2+y,-x,3/4+z
1/2+x,-y,3/4-z
1/2-x,y,3/4-z
1/2+y,1/2+x,1/2-z
1/2-y,1/2-x,1/2-z
loop_
_atom_site_type_symbol
_atom_site_label
_atom_site_fract_x
_atom_site_fract_y
_atom_site_fract_z
Si Si1 0.552533 0.910057 0.827014
Si Si2 0.495232 0.871670 0.282196
Si Si3 0.009571 0.208174 0.700864
Si Si4 0.223079 0.973732 0.675808
Si Si5 0.446733 0.411592 0.729525
Si Si6 0.182935 0.707865 0.550872
O O1 0.593223 0.906778 0.750000
O O2 0.509781 0.817071 0.836044
O O3 0.602337 0.920291 0.899547
O O4 0.500000 0.000000 0.825472
O O5 0.561271 0.938730 0.250000
O O6 0.526384 0.784475 0.251720
O O7 0.483536 0.846508 0.362779
O O8 0.407132 0.907132 0.250000
O O9 0.016028 0.250000 0.625000
O O10 0.912794 0.182873 0.717716
O O11 0.069357 0.131214 0.718735
O O12 0.171854 0.009417 0.741352
O O13 0.236614 0.875564 0.689998
O O14 0.500000 0.500000 0.731854
O O15 0.175498 0.750000 0.625000
O O16 0.227892 0.772109 0.500000
#
# Coordination Sequence:
#
# PCOD9551993 Si02
#       6
#    16  16  16  16  16  16
#     4  10  25  48  72  92 130 182 236 296 345 404
#     4  11  23  38  66 103 144 182 219 274 354 439
#     4  11  20  39  61  96 143 182 219 276 342 419
#     4  12  24  43  69 102 135 184 240 281 357 427
#     4  11  23  42  70 101 135 178 226 281 349 418
#     4  11  24  37  62 100 142 179 222 284 350 423
#
# _framework density 19.833722000000002
#
# number of rings (size 3 to 8) (size 9 to 14) (size 15 to 20)
#    0.000    1.000    3.333    4.500    4.667    0.667 
#    0.000    0.833    3.667    0.000    0.000    0.000 
#    0.000    0.000    0.000    0.000    0.000    0.000 
#
# Total GULP energy -267262.529967 kJ/mol
# GULP energy per Si atom -5567.969374 kJ/mol
# Density = 1.978858 g / cm^3
# Si number density = 19.833722 Si / 1000 Ang^3
#
#
#
# Elastic Constant Matrix: (Units=GPa)
#
#
# Indices 1 2 3 4 5 6 
#
# 1 80.9990 24.2053 25.4743 0.0000 0.0000 0.0000
# 2 24.2053 80.9977 25.4753 0.0000 0.0000 0.0000
# 3 25.4743 25.4753 113.8243 0.0000 0.0000 0.0000
# 4 0.0000 0.0000 0.0000 12.5125 0.0000 0.0000
# 5 0.0000 0.0000 0.0000 0.0000 12.5177 0.0000
# 6 0.0000 0.0000 0.0000 0.0000 0.0000 18.3930
#
#
#
# Elastic Compliance Matrix: (Units=1/GPa)
#
#
# Indices 1 2 3 4 5 6 
#
# 1 0.014134 -0.003473 -0.002386 0.000000 0.000000 0.000000
# 2 -0.003473 0.014135 -0.002386 0.000000 0.000000 0.000000
# 3 -0.002386 -0.002386 0.009853 0.000000 0.000000 0.000000
# 4 0.000000 0.000000 0.000000 0.079920 0.000000 0.000000
# 5 0.000000 0.000000 0.000000 0.000000 0.079887 0.000000
# 6 0.000000 0.000000 0.000000 0.000000 0.000000 0.054369
#
#
# Mechanical properties :
#
#
# Convention : Reuss Voigt Hill
#
# Bulk Modulus (GPa) = 46.22931 47.34786 46.78859
# Shear Modulus (GPa) = 18.11602 22.06238 20.08920
#
# Velocity S-wave (km/s) = 3.02552 3.33884 3.18603
# Velocity P-wave (km/s) = 5.96356 6.22800 6.09722
#
# Compressibility (1/GPa) = 0.02163130
#
# Stress axis : x y z
#
# Youngs Moduli (GPa) = 70.75046 70.74887 101.48701
#
# Poissons Ratio (x) = 0.24574 0.24214
# Poissons Ratio (y) = 0.24575 0.24216
# Poissons Ratio (z) = 0.16880 0.16881
#
# Static dielectric constant tensor:
#      x y z
#    x 1.912930 0.000000 0.000000 
#    y 0.000000 1.912770 0.000000 
#    z 0.000000 0.000000 1.821910 
# 
# From -- ./inp_files/8929.got.cif
#   From: 2010.05.17/outbox.cif.g08.bks.cpg/sg98_5_cif.got.tgz:8929.got - 2010.06.03 20:00:51.
