data_PCOD9551455
_publ_section_title
;
Structure prediction by ZEFSAII (Michael W. Deem and Ramdas Pophale) SiO2 
 PCOD9551455
Probable space group: I 4 2 2 
;
_chemical_formula_sum "Si O2"
_cell_formula_units_Z 96
_cell_length_a 25.050219
_cell_length_b 25.050219
_cell_length_c 7.627259
_cell_angle_alpha 90.000000
_cell_angle_beta 90.000000
_cell_angle_gamma 90.000000
_cell_volume 4786.207777
_symmetry_space_group_name_H-M "I 4 2 2 "
_symmetry_group_IT_number 97
_symmetry_cell_setting 'tetragonal'
loop_
_space_group_symop_operation_xyz
x,y,z
-y,x,z
-x,-y,z
y,-x,z
x,-y,-z
-x,y,-z
y,x,-z
-y,-x,-z
1/2+x,1/2+y,1/2+z
1/2-y,1/2+x,1/2+z
1/2-x,1/2-y,1/2+z
1/2+y,1/2-x,1/2+z
1/2+x,1/2-y,1/2-z
1/2-x,1/2+y,1/2-z
1/2+y,1/2+x,1/2-z
1/2-y,1/2-x,1/2-z
loop_
_atom_site_type_symbol
_atom_site_label
_atom_site_fract_x
_atom_site_fract_y
_atom_site_fract_z
Si Si1 0.439534 0.851192 0.208466
Si Si2 0.413455 0.266314 0.209483
Si Si3 0.353372 0.057973 0.288524
Si Si4 0.293959 0.293808 0.290592
Si Si5 0.148822 0.941528 0.004638
Si Si6 0.769395 0.086260 0.304331
O O1 0.392819 0.892819 0.250000
O O2 0.498325 0.867748 0.274847
O O3 0.427204 0.790267 0.262645
O O4 0.442906 0.849481 0.998520
O O5 0.428160 0.206644 0.272216
O O6 0.349675 0.272819 0.216141
O O7 0.435443 0.310989 0.340303
O O8 0.431073 0.273680 0.007414
O O9 0.397103 0.102898 0.250000
O O10 0.300200 0.300200 0.500000
O O11 0.248360 0.251641 0.250000
O O12 0.277965 0.350259 0.208954
O O13 0.105650 0.894351 0.000000
O O14 0.185644 0.937266 0.177647
O O15 0.123385 0.000000 0.000000
#
# Coordination Sequence:
#
# PCOD9551455 Si02
#       6
#    16  16  16  16  16  16
#     4  10  23  40  59  87 121 164 216 266 318 374
#     4  11  22  42  66  95 130 168 215 267 324 388
#     4  10  23  40  59  87 121 164 216 266 318 374
#     4  12  22  36  60  99 139 173 211 260 323 392
#     4  12  26  45  70 100 131 169 217 263 325 398
#     4  11  22  42  66  95 130 168 215 267 324 388
#
# _framework density 20.057634
#
# number of rings (size 3 to 8) (size 9 to 14) (size 15 to 20)
#    0.000    1.000    3.333    3.500    2.333    5.833 
#    0.000    1.667    0.000    0.000    0.000    2.333 
#    0.000    0.000    0.000    0.000    0.000    0.000 
#
# Total GULP energy -268375.187194 kJ/mol
# GULP energy per Si atom -5591.149733 kJ/mol
# Density = 2.001198 g / cm^3
# Si number density = 20.057634 Si / 1000 Ang^3
#
#
#
# Elastic Constant Matrix: (Units=GPa)
#
#
# Indices 1 2 3 4 5 6 
#
# 1 85.0606 23.4399 -16.1251 0.0000 0.0000 0.0000
# 2 23.4399 85.0108 -16.1401 0.0000 0.0000 0.0000
# 3 -16.1251 -16.1401 59.0223 0.0000 0.0000 0.0000
# 4 0.0000 0.0000 0.0000 -1.6577 0.0000 0.0000
# 5 0.0000 0.0000 0.0000 0.0000 -1.6505 0.0000
# 6 0.0000 0.0000 0.0000 0.0000 0.0000 5.0825
#
#
#
# Elastic Compliance Matrix: (Units=1/GPa)
#
#
# Indices 1 2 3 4 5 6 
#
# 1 0.013130 -0.003100 0.002739 0.000000 0.000000 0.000000
# 2 -0.003100 0.013139 0.002746 0.000000 0.000000 0.000000
# 3 0.002739 0.002746 0.018442 0.000000 0.000000 0.000000
# 4 0.000000 0.000000 0.000000 -0.603240 0.000000 0.000000
# 5 0.000000 0.000000 0.000000 0.000000 -0.605887 0.000000
# 6 0.000000 0.000000 0.000000 0.000000 0.000000 0.196755
#
#
# Mechanical properties :
#
#
# Convention : Reuss Voigt Hill
#
# Bulk Modulus (GPa) = 20.20940 23.49368 21.85154
# Shear Modulus (GPa) = -5.23047 16.21611 5.49282
#
# Velocity S-wave (km/s) = -1.61660 2.84646 1.65664
# Velocity P-wave (km/s) = 2.57158 4.74780 3.81802
#
# Compressibility (1/GPa) = 0.04948192
#
# Stress axis : x y z
#
# Youngs Moduli (GPa) = 76.16176 76.10697 54.22377
#
# Poissons Ratio (x) = 0.23595 -0.14854
# Poissons Ratio (y) = 0.23612 -0.14890
# Poissons Ratio (z) = -0.20863 -0.20900
#
# Static dielectric constant tensor:
#      x y z
#    x 1.693810 0.000000 0.000000 
#    y 0.000000 1.693810 0.000000 
#    z 0.000000 0.000000 1.731400 
# 
# From -- ./inp_files/2467.got.cif
#   From: 2010.05.17/outbox.cif.g08.bks.cpg/sg97_2_cif.got.tgz:2467.got - 2010.06.03 19:55:32.
