data_PCOD9551270
_publ_section_title
;
Structure prediction by ZEFSAII (Michael W. Deem and Ramdas Pophale) SiO2 
 PCOD9551270
Probable space group: I 4 2 2 
;
_chemical_formula_sum "Si O2"
_cell_formula_units_Z 96
_cell_length_a 22.131058
_cell_length_b 22.131058
_cell_length_c 11.301070
_cell_angle_alpha 90.000000
_cell_angle_beta 90.000000
_cell_angle_gamma 90.000000
_cell_volume 5535.080197
_symmetry_space_group_name_H-M "I 4 2 2 "
_symmetry_group_IT_number 97
_symmetry_cell_setting 'tetragonal'
loop_
_space_group_symop_operation_xyz
x,y,z
-y,x,z
-x,-y,z
y,-x,z
x,-y,-z
-x,y,-z
y,x,-z
-y,-x,-z
1/2+x,1/2+y,1/2+z
1/2-y,1/2+x,1/2+z
1/2-x,1/2-y,1/2+z
1/2+y,1/2-x,1/2+z
1/2+x,1/2-y,1/2-z
1/2-x,1/2+y,1/2-z
1/2+y,1/2+x,1/2-z
1/2-y,1/2-x,1/2-z
loop_
_atom_site_type_symbol
_atom_site_label
_atom_site_fract_x
_atom_site_fract_y
_atom_site_fract_z
Si Si1 0.717055 0.064458 0.451582
Si Si2 0.716626 0.327557 0.875537
Si Si3 0.885409 0.635096 0.626484
Si Si4 0.175914 0.771092 0.883692
Si Si5 0.614934 0.979496 0.717757
Si Si6 0.941195 0.694533 0.057487
O O1 0.762667 0.102639 0.375567
O O2 0.698203 0.105426 0.561782
O O3 0.653798 0.055358 0.382005
O O4 0.737531 0.000000 0.500000
O O5 0.775421 0.283893 0.883236
O O6 0.693737 0.316742 0.741298
O O7 0.682186 0.317815 0.000000
O O8 0.853171 0.646830 0.750000
O O9 0.849174 0.590259 0.540862
O O10 0.952688 0.612346 0.665795
O O11 0.110791 0.739135 0.897505
O O12 0.190042 0.809959 0.000000
O O13 0.551757 0.948244 0.750000
O O14 0.654607 0.968413 0.835298
O O15 0.000000 0.725200 0.000000
#
# Coordination Sequence:
#
# PCOD9551270 Si02
#       6
#    16  16  16  16  16  16
#     4  10  20  34  53  73  98 138 176 218 265 319
#     4  10  19  35  57  78 100 137 175 224 279 324
#     4  11  22  32  45  75  97 130 184 226 257 307
#     4  10  21  37  54  77 105 136 175 226 276 329
#     4  11  20  34  51  65 100 142 181 221 265 305
#     4  12  22  37  54  71 104 143 178 219 279 321
#
# _framework density 17.343921000000002
#
# number of rings (size 3 to 8) (size 9 to 14) (size 15 to 20)
#    0.000    1.333    6.667    0.000    0.000    1.667 
#    0.000    0.833    0.000    0.000    0.000    0.000 
#    0.000    0.667    0.000    3.000    0.000    0.333 
#
# Total GULP energy -267374.287836 kJ/mol
# GULP energy per Si atom -5570.297663 kJ/mol
# Density = 1.730445 g / cm^3
# Si number density = 17.343921 Si / 1000 Ang^3
#
#
#
# Elastic Constant Matrix: (Units=GPa)
#
#
# Indices 1 2 3 4 5 6 
#
# 1 36.3760 12.0761 26.8484 0.0000 0.0000 0.0000
# 2 12.0761 36.3742 26.8478 0.0000 0.0000 0.0000
# 3 26.8484 26.8478 144.4241 0.0000 0.0000 0.0000
# 4 0.0000 0.0000 0.0000 21.2173 0.0000 0.0000
# 5 0.0000 0.0000 0.0000 0.0000 21.2176 0.0000
# 6 0.0000 0.0000 0.0000 0.0000 0.0000 13.1274
#
#
#
# Elastic Compliance Matrix: (Units=1/GPa)
#
#
# Indices 1 2 3 4 5 6 
#
# 1 0.033574 -0.007580 -0.004832 0.000000 0.000000 0.000000
# 2 -0.007580 0.033575 -0.004832 0.000000 0.000000 0.000000
# 3 -0.004832 -0.004832 0.008721 0.000000 0.000000 0.000000
# 4 0.000000 0.000000 0.000000 0.047131 0.000000 0.000000
# 5 0.000000 0.000000 0.000000 0.000000 0.047131 0.000000
# 6 0.000000 0.000000 0.000000 0.000000 0.000000 0.076177
#
#
# Mechanical properties :
#
#
# Convention : Reuss Voigt Hill
#
# Bulk Modulus (GPa) = 24.16576 38.74655 31.45616
# Shear Modulus (GPa) = 16.97274 21.20594 19.08934
#
# Velocity S-wave (km/s) = 3.13165 3.50047 3.32118
# Velocity P-wave (km/s) = 5.19998 6.22305 5.73438
#
# Compressibility (1/GPa) = 0.04138086
#
# Stress axis : x y z
#
# Youngs Moduli (GPa) = 29.78536 29.78389 114.66953
#
# Poissons Ratio (x) = 0.22575 0.55412
# Poissons Ratio (y) = 0.22576 0.55414
# Poissons Ratio (z) = 0.14393 0.14393
#
# Static dielectric constant tensor:
#      x y z
#    x 1.595870 0.000000 0.000000 
#    y 0.000000 1.595870 0.000000 
#    z 0.000000 0.000000 1.697920 
# 
# From -- ./inp_files/3896.got.cif
#   From: 2010.05.17/outbox.cif.g08.bks.cpg/sg97_2_cif.got.tgz:3896.got - 2010.06.03 19:55:32.
