data_PCOD9551358
_publ_section_title
;
Structure prediction by ZEFSAII (Michael W. Deem and Ramdas Pophale) SiO2 
 PCOD9551358
Probable space group: I 4 2 2 
;
_chemical_formula_sum "Si O2"
_cell_formula_units_Z 96
_cell_length_a 22.932620
_cell_length_b 22.932620
_cell_length_c 8.557857
_cell_angle_alpha 90.000000
_cell_angle_beta 90.000000
_cell_angle_gamma 90.000000
_cell_volume 4500.620300
_symmetry_space_group_name_H-M "I 4 2 2 "
_symmetry_group_IT_number 97
_symmetry_cell_setting 'tetragonal'
loop_
_space_group_symop_operation_xyz
x,y,z
-y,x,z
-x,-y,z
y,-x,z
x,-y,-z
-x,y,-z
y,x,-z
-y,-x,-z
1/2+x,1/2+y,1/2+z
1/2-y,1/2+x,1/2+z
1/2-x,1/2-y,1/2+z
1/2+y,1/2-x,1/2+z
1/2+x,1/2-y,1/2-z
1/2-x,1/2+y,1/2-z
1/2+y,1/2+x,1/2-z
1/2-y,1/2-x,1/2-z
loop_
_atom_site_type_symbol
_atom_site_label
_atom_site_fract_x
_atom_site_fract_y
_atom_site_fract_z
Si Si1 0.366431 0.287834 0.060616
Si Si2 0.902429 0.691224 0.961897
Si Si3 0.500000 0.399975 0.500000
Si Si4 0.421906 0.921906 0.750000
Si Si5 0.578866 0.792673 0.816156
Si Si6 0.710975 0.473988 0.294356
Si Si7 0.708913 0.208913 0.750000
Si Si8 0.000000 0.618532 0.500000
O O1 0.424469 0.289927 0.162057
O O2 0.311121 0.267771 0.166146
O O3 0.351275 0.351275 0.000000
O O4 0.375477 0.242278 0.920801
O O5 0.924295 0.636106 0.859406
O O6 0.942818 0.747384 0.924291
O O7 0.839717 0.702212 0.885119
O O8 0.901048 0.682807 0.147954
O O9 0.556590 0.443411 0.500000
O O10 0.491347 0.352809 0.358806
O O11 0.475953 0.919414 0.861659
O O12 0.528398 0.746101 0.774231
O O13 0.550625 0.840771 0.929576
#
# Coordination Sequence:
#
# PCOD9551358 Si02
#       8
#    16  16   8   8  16  16   8   8
#     4  11  25  40  64  99 142 181 223 285 348 418
#     4  10  20  39  71  98 132 175 235 287 341 412
#     4  11  26  44  70 106 144 187 240 300 356 417
#     4  11  24  42  66 108 136 182 236 300 352 421
#     4  12  21  40  68  99 126 181 233 283 339 417
#     4  11  21  42  68 100 133 177 239 287 338 426
#     4   9  22  42  56  95 144 169 216 285 346 421
#     4  12  24  42  70  97 142 179 238 290 354 426
#
# _framework density 21.330393999999998
#
# number of rings (size 3 to 8) (size 9 to 14) (size 15 to 20)
#    0.000    1.083    5.000    2.000    2.333    4.000 
#    0.000    3.333    0.000    8.000    0.000    0.000 
#    0.000    0.000    0.000    0.000    0.000    0.000 
#
# Total GULP energy -268077.459723 kJ/mol
# GULP energy per Si atom -5584.947078 kJ/mol
# Density = 2.128184 g / cm^3
# Si number density = 21.330394 Si / 1000 Ang^3
#
#
#
# Elastic Constant Matrix: (Units=GPa)
#
#
# Indices 1 2 3 4 5 6 
#
# 1 -59.4972 180.3923 34.6449 0.0000 0.0000 0.0000
# 2 180.3923 -59.4977 34.6447 0.0000 0.0000 0.0000
# 3 34.6449 34.6447 141.8116 0.0000 0.0000 0.0000
# 4 0.0000 0.0000 0.0000 14.8746 0.0000 0.0000
# 5 0.0000 0.0000 0.0000 0.0000 14.8769 0.0000
# 6 0.0000 0.0000 0.0000 0.0000 0.0000 25.9915
#
#
#
# Elastic Compliance Matrix: (Units=1/GPa)
#
#
# Indices 1 2 3 4 5 6 
#
# 1 0.002725 0.006893 -0.002350 0.000000 0.000000 0.000000
# 2 0.006893 0.002725 -0.002350 0.000000 0.000000 0.000000
# 3 -0.002350 -0.002350 0.008200 0.000000 0.000000 0.000000
# 4 0.000000 0.000000 0.000000 0.067229 0.000000 0.000000
# 5 0.000000 0.000000 0.000000 0.000000 0.067218 0.000000
# 6 0.000000 0.000000 0.000000 0.000000 0.000000 0.038474
#
#
# Mechanical properties :
#
#
# Convention : Reuss Voigt Hill
#
# Bulk Modulus (GPa) = 55.44045 58.02005 56.73025
# Shear Modulus (GPa) = 26.56813 -3.97575 11.29619
#
# Velocity S-wave (km/s) = 3.53307 -1.36672 2.30376
# Velocity P-wave (km/s) = 6.53385 4.97686 5.80776
#
# Compressibility (1/GPa) = 0.01803737
#
# Stress axis : x y z
#
# Youngs Moduli (GPa) = 366.98326 366.98530 121.95527
#
# Poissons Ratio (x) = -2.52981 0.28657
# Poissons Ratio (y) = -2.52980 0.28657
# Poissons Ratio (z) = 0.86233 0.86234
#
# Static dielectric constant tensor:
#      x y z
#    x 1.772130 0.000000 0.000000 
#    y 0.000000 1.772130 0.000000 
#    z 0.000000 0.000000 1.925400 
# 
# From -- ./inp_files/2536.got.cif
#   From: 2010.05.17/outbox.cif.g08.bks.cpg/sg97_2_cif.got.tgz:2536.got - 2010.06.03 19:55:32.
