data_PCOD9551181
_publ_section_title
;
Structure prediction by ZEFSAII (Michael W. Deem and Ramdas Pophale) SiO2 
 PCOD9551181
Probable space group: P 43 21 2
;
_chemical_formula_sum "Si O2"
_cell_formula_units_Z 36
_cell_length_a 9.489222
_cell_length_b 9.489222
_cell_length_c 14.123143
_cell_angle_alpha 90.000000
_cell_angle_beta 90.000000
_cell_angle_gamma 90.000000
_cell_volume 1271.723131
_symmetry_space_group_name_H-M "P 43 21 2"
_symmetry_group_IT_number 96
_symmetry_cell_setting 'tetragonal'
loop_
_space_group_symop_operation_xyz
x,y,z
1/2-y,1/2+x,3/4+z
-x,-y,1/2+z
1/2+y,1/2-x,1/4+z
1/2+x,1/2-y,1/4-z
1/2-x,1/2+y,3/4-z
y,x,-z
-y,-x,1/2-z
loop_
_atom_site_type_symbol
_atom_site_label
_atom_site_fract_x
_atom_site_fract_y
_atom_site_fract_z
Si Si1 0.942534 0.015276 0.605868
Si Si2 0.863578 0.136423 0.250000
Si Si3 0.599163 0.902588 0.409499
Si Si4 0.687039 0.792233 0.102231
Si Si5 0.165448 0.275106 0.793681
O O1 0.802373 0.968693 0.661833
O O2 0.932243 0.181326 0.614826
O O3 0.644627 0.057632 0.442933
O O4 0.069831 0.945169 0.662032
O O5 0.698962 0.099280 0.252481
O O6 0.957760 0.957760 0.500000
O O7 0.447826 0.882110 0.359602
O O8 0.712120 0.811029 0.349855
O O9 0.798474 0.764776 0.186448
O O10 0.754927 0.754927 0.000000
#
# Coordination Sequence:
#
# PCOD9551181 Si02
#       5
#     8   4   8   8   8
#     4  12  28  57  91 132 185 243 309 389 474 568
#     4  12  26  58  82 126 184 244 302 382 466 566
#     4  12  30  56  94 133 184 248 310 394 477 564
#     4  12  30  58  94 136 186 242 309 403 472 565
#     4  12  30  56  91 136 182 243 316 378 476 581
#
# _framework density 28.308050000000001
#
# number of rings (size 3 to 8) (size 9 to 14) (size 15 to 20)
#    0.000    0.000    3.333    4.000    4.667    9.778 
#    6.000    0.000    0.000    0.000    0.000    0.000 
#    0.000    0.000    0.000    0.000    0.000    0.000 
#
# Total GULP energy -202113.514081 kJ/mol
# GULP energy per Si atom -5614.264280 kJ/mol
# Density = 2.824362 g / cm^3
# Si number density = 28.308050 Si / 1000 Ang^3
#
#
#
# Elastic Constant Matrix: (Units=GPa)
#
#
# Indices 1 2 3 4 5 6 
#
# 1 243.3557 67.4925 44.4546 0.0000 0.0000 0.0000
# 2 67.4925 243.3561 44.4546 0.0000 0.0000 0.0000
# 3 44.4546 44.4546 198.8754 0.0000 0.0000 0.0000
# 4 0.0000 0.0000 0.0000 25.5148 0.0000 0.0000
# 5 0.0000 0.0000 0.0000 0.0000 25.5149 0.0000
# 6 0.0000 0.0000 0.0000 0.0000 0.0000 42.9277
#
#
#
# Elastic Compliance Matrix: (Units=1/GPa)
#
#
# Indices 1 2 3 4 5 6 
#
# 1 0.004561 -0.001125 -0.000768 0.000000 0.000000 0.000000
# 2 -0.001125 0.004561 -0.000768 0.000000 0.000000 0.000000
# 3 -0.000768 -0.000768 0.005372 0.000000 0.000000 0.000000
# 4 0.000000 0.000000 0.000000 0.039193 0.000000 0.000000
# 5 0.000000 0.000000 0.000000 0.000000 0.039193 0.000000
# 6 0.000000 0.000000 0.000000 0.000000 0.000000 0.023295
#
#
# Mechanical properties :
#
#
# Convention : Reuss Voigt Hill
#
# Bulk Modulus (GPa) = 109.02371 110.93232 109.97801
# Shear Modulus (GPa) = 40.14286 54.07051 47.10668
#
# Velocity S-wave (km/s) = 3.76982 4.37518 4.08373
# Velocity P-wave (km/s) = 7.58588 8.04957 7.82116
#
# Compressibility (1/GPa) = 0.00917232
#
# Stress axis : x y z
#
# Youngs Moduli (GPa) = 219.22690 219.22734 186.16041
#
# Poissons Ratio (x) = 0.24658 0.14301
# Poissons Ratio (y) = 0.24658 0.14301
# Poissons Ratio (z) = 0.16841 0.16841
#
# Static dielectric constant tensor:
#      x y z
#    x 2.260510 0.000000 0.000000 
#    y 0.000000 2.260510 0.000000 
#    z 0.000000 0.000000 2.339450 
# 
# From -- ./inp_files/2593.got.cif
#   From: 2010.05.17/outbox.cif.g08.bks.cpg/sg96_2_cif.got.tgz:2593.got - 2010.06.03 19:52:08.
