data_PCOD9551420
_publ_section_title
;
Structure prediction by ZEFSAII (Michael W. Deem and Ramdas Pophale) SiO2 
 PCOD9551420
Probable space group: I 4 2 2 
;
_chemical_formula_sum "Si O2"
_cell_formula_units_Z 112
_cell_length_a 22.116004
_cell_length_b 22.116004
_cell_length_c 12.177076
_cell_angle_alpha 90.000000
_cell_angle_beta 90.000000
_cell_angle_gamma 90.000000
_cell_volume 5956.022589
_symmetry_space_group_name_H-M "I 4 2 2 "
_symmetry_group_IT_number 97
_symmetry_cell_setting 'tetragonal'
loop_
_space_group_symop_operation_xyz
x,y,z
-y,x,z
-x,-y,z
y,-x,z
x,-y,-z
-x,y,-z
y,x,-z
-y,-x,-z
1/2+x,1/2+y,1/2+z
1/2-y,1/2+x,1/2+z
1/2-x,1/2-y,1/2+z
1/2+y,1/2-x,1/2+z
1/2+x,1/2-y,1/2-z
1/2-x,1/2+y,1/2-z
1/2+y,1/2+x,1/2-z
1/2-y,1/2-x,1/2-z
loop_
_atom_site_type_symbol
_atom_site_label
_atom_site_fract_x
_atom_site_fract_y
_atom_site_fract_z
Si Si1 0.425222 0.560686 0.676429
Si Si2 0.257974 0.537056 0.147124
Si Si3 0.948075 0.105432 0.411474
Si Si4 0.818368 0.720391 0.041221
Si Si5 0.757013 0.403142 0.915049
Si Si6 0.856016 0.183954 0.784668
Si Si7 0.276512 0.132057 0.195228
O O1 0.417475 0.491592 0.637825
O O2 0.432193 0.562838 0.809524
O O3 0.368999 0.604723 0.658057
O O4 0.331096 0.533479 0.144722
O O5 0.229638 0.471397 0.126172
O O6 0.229877 0.565613 0.255474
O O7 0.249900 0.582965 0.044720
O O8 0.892900 0.107101 0.500000
O O9 0.000000 0.089590 0.500000
O O10 0.800648 0.654796 0.086414
O O11 0.850470 0.759273 0.134997
O O12 0.758510 0.758510 0.000000
O O13 0.860497 0.717176 0.934433
O O14 0.703568 0.383527 0.831655
O O15 0.787574 0.161565 0.769587
O O16 0.330291 0.169710 0.250000
#
# Coordination Sequence:
#
# PCOD9551420 Si02
#       7
#    16  16  16  16  16  16  16
#     4  11  22  34  51  78 118 166 213 255 300 344
#     4  11  23  33  55  86 119 162 189 246 316 374
#     4  12  20  30  43  75 117 160 206 249 294 349
#     4  10  22  39  60  87 111 162 212 258 308 362
#     4  11  21  37  55  87 121 152 196 246 321 369
#     4  11  22  36  59  82 118 164 209 260 302 352
#     4  11  21  37  59  83 118 160 208 249 307 372
#
# _framework density 18.804494999999999
#
# number of rings (size 3 to 8) (size 9 to 14) (size 15 to 20)
#    0.000    1.000    5.714    3.857    0.000    0.143 
#    0.000    0.714    3.143    0.000    0.000    9.000 
#    0.000    2.286    4.571    0.000    0.000    0.000 
#
# Total GULP energy -312200.650855 kJ/mol
# GULP energy per Si atom -5575.011622 kJ/mol
# Density = 1.876170 g / cm^3
# Si number density = 18.804495 Si / 1000 Ang^3
#
#
#
# Elastic Constant Matrix: (Units=GPa)
#
#
# Indices 1 2 3 4 5 6 
#
# 1 85.0960 55.3185 31.0877 0.0000 0.0000 0.0000
# 2 55.3185 85.1022 31.0874 0.0000 0.0000 0.0000
# 3 31.0877 31.0874 70.9871 0.0000 0.0000 0.0000
# 4 0.0000 0.0000 0.0000 26.1680 0.0000 0.0000
# 5 0.0000 0.0000 0.0000 0.0000 26.1674 0.0000
# 6 0.0000 0.0000 0.0000 0.0000 0.0000 27.8066
#
#
#
# Elastic Compliance Matrix: (Units=1/GPa)
#
#
# Indices 1 2 3 4 5 6 
#
# 1 0.021208 -0.012372 -0.003870 0.000000 0.000000 0.000000
# 2 -0.012372 0.021206 -0.003869 0.000000 0.000000 0.000000
# 3 -0.003870 -0.003869 0.017476 0.000000 0.000000 0.000000
# 4 0.000000 0.000000 0.000000 0.038215 0.000000 0.000000
# 5 0.000000 0.000000 0.000000 0.000000 0.038216 0.000000
# 6 0.000000 0.000000 0.000000 0.000000 0.000000 0.035963
#
#
# Mechanical properties :
#
#
# Convention : Reuss Voigt Hill
#
# Bulk Modulus (GPa) = 50.84085 52.90807 51.87446
# Shear Modulus (GPa) = 22.82489 24.27450 23.54969
#
# Velocity S-wave (km/s) = 3.48774 3.59679 3.54269
# Velocity P-wave (km/s) = 6.58136 6.74138 6.66185
#
# Compressibility (1/GPa) = 0.01966922
#
# Stress axis : x y z
#
# Youngs Moduli (GPa) = 47.15244 47.15669 57.22194
#
# Poissons Ratio (x) = 0.58343 0.22142
# Poissons Ratio (y) = 0.58337 0.22136
# Poissons Ratio (z) = 0.18246 0.18243
#
# Static dielectric constant tensor:
#      x y z
#    x 1.717190 0.000000 0.000000 
#    y 0.000000 1.717180 0.000000 
#    z 0.000000 0.000000 1.686610 
# 
# From -- ./inp_files/4033.got.cif
#   From: 2010.05.17/outbox.cif.g08.bks.cpg/sg97_3_cif.got.tgz:4033.got - 2010.06.03 19:55:32.
