data_PCOD9551179
_publ_section_title
;
Structure prediction by ZEFSAII (Michael W. Deem and Ramdas Pophale) SiO2 
 PCOD9551179
Probable space group: P 43 21 2
;
_chemical_formula_sum "Si O2"
_cell_formula_units_Z 20
_cell_length_a 4.999144
_cell_length_b 4.999144
_cell_length_c 30.201703
_cell_angle_alpha 90.000000
_cell_angle_beta 90.000000
_cell_angle_gamma 90.000000
_cell_volume 754.784071
_symmetry_space_group_name_H-M "P 43 21 2"
_symmetry_group_IT_number 96
_symmetry_cell_setting 'tetragonal'
loop_
_space_group_symop_operation_xyz
x,y,z
1/2-y,1/2+x,3/4+z
-x,-y,1/2+z
1/2+y,1/2-x,1/4+z
1/2+x,1/2-y,1/4-z
1/2-x,1/2+y,3/4-z
y,x,-z
-y,-x,1/2-z
loop_
_atom_site_type_symbol
_atom_site_label
_atom_site_fract_x
_atom_site_fract_y
_atom_site_fract_z
Si Si1 0.033910 0.392175 0.116266
Si Si2 0.265252 0.642723 0.442480
Si Si3 0.858720 0.858720 0.000000
O O1 0.276602 0.282881 0.146922
O O2 0.879964 0.613420 0.145412
O O3 0.210894 0.464058 0.073346
O O4 0.163029 0.846639 0.479564
O O5 0.234877 0.349237 0.462050
#
# Coordination Sequence:
#
# PCOD9551179 Si02
#       3
#     8   8   4
#     4  12  26  50  84 110 154 216 272 336 390 500
#     4  12  29  52  72 125 152 214 270 329 408 474
#     4  12  30  48  84 112 178 206 260 350 406 472
#
# _framework density 26.497640000000001
#
# number of rings (size 3 to 8) (size 9 to 14) (size 15 to 20)
#    0.000    0.000    0.000    9.600   16.800    0.000 
#    0.000    0.000    0.000    0.000    0.000    0.000 
#    0.000    0.000    0.000    0.000    0.000    0.000 
#
# Total GULP energy -111692.930060 kJ/mol
# GULP energy per Si atom -5584.646503 kJ/mol
# Density = 2.643733 g / cm^3
# Si number density = 26.497640 Si / 1000 Ang^3
#
#
#
# Elastic Constant Matrix: (Units=GPa)
#
#
# Indices 1 2 3 4 5 6 
#
# 1 92.1098 29.9930 -1.5527 0.0000 0.0000 0.0000
# 2 29.9930 92.1098 -1.5527 0.0000 0.0000 0.0000
# 3 -1.5527 -1.5527 66.2313 0.0000 0.0000 0.0000
# 4 0.0000 0.0000 0.0000 46.4838 0.0000 0.0000
# 5 0.0000 0.0000 0.0000 0.0000 46.4838 0.0000
# 6 0.0000 0.0000 0.0000 0.0000 0.0000 46.1155
#
#
#
# Elastic Compliance Matrix: (Units=1/GPa)
#
#
# Indices 1 2 3 4 5 6 
#
# 1 0.012147 -0.003952 0.000192 0.000000 0.000000 0.000000
# 2 -0.003952 0.012147 0.000192 0.000000 0.000000 0.000000
# 3 0.000192 0.000192 0.015108 0.000000 0.000000 0.000000
# 4 0.000000 0.000000 0.000000 0.021513 0.000000 0.000000
# 5 0.000000 0.000000 0.000000 0.000000 0.021513 0.000000
# 6 0.000000 0.000000 0.000000 0.000000 0.000000 0.021685
#
#
# Mechanical properties :
#
#
# Convention : Reuss Voigt Hill
#
# Bulk Modulus (GPa) = 30.99290 33.80293 32.39791
# Shear Modulus (GPa) = 40.98288 42.72083 41.85185
#
# Velocity S-wave (km/s) = 3.93703 4.01964 3.97855
# Velocity P-wave (km/s) = 5.69112 5.85901 5.77567
#
# Compressibility (1/GPa) = 0.03226545
#
# Stress axis : x y z
#
# Youngs Moduli (GPa) = 82.32690 82.32690 66.19180
#
# Poissons Ratio (x) = 0.32536 -0.01272
# Poissons Ratio (y) = 0.32536 -0.01272
# Poissons Ratio (z) = -0.01582 -0.01582
#
# Static dielectric constant tensor:
#      x y z
#    x 2.108550 0.000000 0.000000 
#    y 0.000000 2.108550 0.000000 
#    z 0.000000 0.000000 2.134160 
# 
# From -- ./inp_files/3984.got.cif
#   From: 2010.05.17/outbox.cif.g08.bks.cpg/sg96_2_cif.got.tgz:3984.got - 2010.06.03 19:52:08.
