data_PCOD9551300
_publ_section_title
;
Structure prediction by ZEFSAII (Michael W. Deem and Ramdas Pophale) SiO2 
 PCOD9551300
Probable space group: I 4 2 2 
;
_chemical_formula_sum "Si O2"
_cell_formula_units_Z 88
_cell_length_a 27.835127
_cell_length_b 27.835127
_cell_length_c 6.525774
_cell_angle_alpha 90.000000
_cell_angle_beta 90.000000
_cell_angle_gamma 90.000000
_cell_volume 5056.132466
_symmetry_space_group_name_H-M "I 4 2 2 "
_symmetry_group_IT_number 97
_symmetry_cell_setting 'tetragonal'
loop_
_space_group_symop_operation_xyz
x,y,z
-y,x,z
-x,-y,z
y,-x,z
x,-y,-z
-x,y,-z
y,x,-z
-y,-x,-z
1/2+x,1/2+y,1/2+z
1/2-y,1/2+x,1/2+z
1/2-x,1/2-y,1/2+z
1/2+y,1/2-x,1/2+z
1/2+x,1/2-y,1/2-z
1/2-x,1/2+y,1/2-z
1/2+y,1/2+x,1/2-z
1/2-y,1/2-x,1/2-z
loop_
_atom_site_type_symbol
_atom_site_label
_atom_site_fract_x
_atom_site_fract_y
_atom_site_fract_z
Si Si1 0.296482 0.703519 0.500000
Si Si2 0.720752 0.853242 0.263768
Si Si3 0.386008 0.386008 0.000000
Si Si4 0.500000 0.580105 0.500000
Si Si5 0.878748 0.219608 0.668274
Si Si6 0.753923 0.946541 0.027691
Si Si7 0.027360 0.847378 0.297382
O O1 0.312512 0.749886 0.632984
O O2 0.337306 0.705566 0.328320
O O3 0.666863 0.833138 0.250000
O O4 0.744476 0.859968 0.489932
O O5 0.726774 0.904965 0.154638
O O6 0.391495 0.331316 0.926982
O O7 0.384445 0.428955 0.839908
O O8 0.454979 0.545022 0.500000
O O9 0.509192 0.617531 0.683346
O O10 0.922993 0.238261 0.804206
O O11 0.803843 0.955002 0.153696
O O12 0.732702 0.000000 0.000000
O O13 0.000000 0.829508 0.500000
#
# Coordination Sequence:
#
# PCOD9551300 Si02
#       7
#     8  16   8   8  16  16  16
#     4  10  20  33  54  82 118 160 196 244 295 363
#     4  11  24  38  59  87 124 162 198 249 305 377
#     4  12  20  35  60  79 106 142 191 246 303 372
#     4  11  26  42  54  72 102 144 192 264 342 385
#     4  11  21  39  56  87 117 151 202 247 301 364
#     4  11  24  39  61  86 114 152 205 252 306 364
#     4  12  24  38  58  81 103 140 194 258 313 378
#
# _framework density 17.404606000000001
#
# number of rings (size 3 to 8) (size 9 to 14) (size 15 to 20)
#    0.000    0.818    4.545    3.273    5.091    2.182 
#    0.000    0.909    0.000    0.000    0.000    0.000 
#    0.000    0.000    0.000   11.455    0.000    0.000 
#
# Total GULP energy -245077.812008 kJ/mol
# GULP energy per Si atom -5569.950273 kJ/mol
# Density = 1.736499 g / cm^3
# Si number density = 17.404606 Si / 1000 Ang^3
#
#
#
# Elastic Constant Matrix: (Units=GPa)
#
#
# Indices 1 2 3 4 5 6 
#
# 1 71.9672 62.6367 33.4442 0.0000 0.0000 0.0000
# 2 62.6367 71.9608 33.4424 0.0000 0.0000 0.0000
# 3 33.4442 33.4424 90.8771 0.0000 0.0000 0.0000
# 4 0.0000 0.0000 0.0000 12.3958 0.0000 0.0000
# 5 0.0000 0.0000 0.0000 0.0000 12.3976 0.0000
# 6 0.0000 0.0000 0.0000 0.0000 0.0000 28.0159
#
#
#
# Elastic Compliance Matrix: (Units=1/GPa)
#
#
# Indices 1 2 3 4 5 6 
#
# 1 0.058149 -0.049060 -0.003346 0.000000 0.000000 0.000000
# 2 -0.049060 0.058154 -0.003346 0.000000 0.000000 0.000000
# 3 -0.003346 -0.003346 0.013467 0.000000 0.000000 0.000000
# 4 0.000000 0.000000 0.000000 0.080673 0.000000 0.000000
# 5 0.000000 0.000000 0.000000 0.000000 0.080661 0.000000
# 6 0.000000 0.000000 0.000000 0.000000 0.000000 0.035694
#
#
# Mechanical properties :
#
#
# Convention : Reuss Voigt Hill
#
# Bulk Modulus (GPa) = 54.74376 54.87240 54.80808
# Shear Modulus (GPa) = 11.25136 17.58064 14.41600
#
# Velocity S-wave (km/s) = 2.54531 3.18168 2.88112
# Velocity P-wave (km/s) = 6.33720 6.71516 6.52891
#
# Compressibility (1/GPa) = 0.01826692
#
# Stress axis : x y z
#
# Youngs Moduli (GPa) = 17.19707 17.19561 74.25823
#
# Poissons Ratio (x) = 0.84361 0.24847
# Poissons Ratio (y) = 0.84369 0.24845
# Poissons Ratio (z) = 0.05754 0.05753
#
# Static dielectric constant tensor:
#      x y z
#    x 1.622810 0.000000 0.000000 
#    y 0.000000 1.622810 0.000000 
#    z 0.000000 0.000000 3.308790 
# 
# From -- ./inp_files/1092.got.cif
#   From: 2010.05.17/outbox.cif.g08.bks.cpg/sg97_1_cif.got.tgz:1092.got - 2010.06.03 19:55:32.
