data_PCOD9551776
_publ_section_title
;
Structure prediction by ZEFSAII (Michael W. Deem and Ramdas Pophale) SiO2 
 PCOD9551776
Probable space group: I 41 2 2
;
_chemical_formula_sum "Si O2"
_cell_formula_units_Z 72
_cell_length_a 11.167910
_cell_length_b 11.167910
_cell_length_c 28.717031
_cell_angle_alpha 90.000000
_cell_angle_beta 90.000000
_cell_angle_gamma 90.000000
_cell_volume 3581.651679
_symmetry_space_group_name_H-M "I 41 2 2"
_symmetry_group_IT_number 98
_symmetry_cell_setting 'tetragonal'
loop_
_space_group_symop_operation_xyz
x,y,z
-y,1/2+x,1/4+z
-x,-y,z
y,1/2-x,1/4+z
x,1/2-y,1/4-z
-x,1/2+y,1/4-z
y,x,-z
-y,-x,-z
1/2+x,1/2+y,1/2+z
1/2-y,x,3/4+z
1/2-x,1/2-y,1/2+z
1/2+y,-x,3/4+z
1/2+x,-y,3/4-z
1/2-x,y,3/4-z
1/2+y,1/2+x,1/2-z
1/2-y,1/2-x,1/2-z
loop_
_atom_site_type_symbol
_atom_site_label
_atom_site_fract_x
_atom_site_fract_y
_atom_site_fract_z
Si Si1 0.500000 0.500000 0.856082
Si Si2 0.766169 0.439750 0.550453
Si Si3 0.360758 0.526122 0.301337
Si Si4 0.699945 0.802158 0.696137
Si Si5 0.250000 0.408272 0.875000
Si Si6 0.750000 0.317358 0.375000
O O1 0.512145 0.387374 0.822945
O O2 0.372471 0.483488 0.882087
O O3 0.794180 0.424447 0.495485
O O4 0.676889 0.553992 0.556881
O O5 0.740097 0.325006 0.582362
O O6 0.500000 0.500000 0.290986
O O7 0.283580 0.409933 0.316227
O O8 0.349865 0.611465 0.345703
O O9 0.723022 0.776979 0.750000
O O10 0.817087 0.767300 0.667574
#
# Coordination Sequence:
#
# PCOD9551776 Si02
#       6
#     8  16  16  16   8   8
#     4  10  20  38  61  86 122 178 213 272 332 384
#     4  10  22  44  62  91 132 172 214 269 333 392
#     4  11  24  41  65  95 134 170 213 273 329 393
#     4   9  21  40  64  87 125 177 212 257 337 399
#     4  10  20  36  64  86 128 160 230 266 326 400
#     4  12  26  36  68 100 126 166 226 272 326 398
#
# _framework density 20.102457000000001
#
# number of rings (size 3 to 8) (size 9 to 14) (size 15 to 20)
#    0.000    1.778    1.111    2.000    9.333    0.000 
#    0.000    3.889    0.000    0.000    0.000    0.000 
#    0.000    0.000    0.000    0.000    0.000    0.000 
#
# Total GULP energy -200428.584589 kJ/mol
# GULP energy per Si atom -5567.460683 kJ/mol
# Density = 2.005670 g / cm^3
# Si number density = 20.102457 Si / 1000 Ang^3
#
#
#
# Elastic Constant Matrix: (Units=GPa)
#
#
# Indices 1 2 3 4 5 6 
#
# 1 83.0223 34.2233 38.9400 0.0000 0.0000 0.0000
# 2 34.2233 83.0226 38.9397 0.0000 0.0000 0.0000
# 3 38.9400 38.9397 83.7607 0.0000 0.0000 0.0000
# 4 0.0000 0.0000 0.0000 27.7046 0.0000 0.0000
# 5 0.0000 0.0000 0.0000 0.0000 27.7045 0.0000
# 6 0.0000 0.0000 0.0000 0.0000 0.0000 27.0736
#
#
#
# Elastic Compliance Matrix: (Units=1/GPa)
#
#
# Indices 1 2 3 4 5 6 
#
# 1 0.016416 -0.004076 -0.005737 0.000000 0.000000 0.000000
# 2 -0.004076 0.016416 -0.005737 0.000000 0.000000 0.000000
# 3 -0.005737 -0.005737 0.017273 0.000000 0.000000 0.000000
# 4 0.000000 0.000000 0.000000 0.036095 0.000000 0.000000
# 5 0.000000 0.000000 0.000000 0.000000 0.036095 0.000000
# 6 0.000000 0.000000 0.000000 0.000000 0.000000 0.036936
#
#
# Mechanical properties :
#
#
# Convention : Reuss Voigt Hill
#
# Bulk Modulus (GPa) = 52.61670 52.66796 52.64233
# Shear Modulus (GPa) = 25.42393 25.67672 25.55032
#
# Velocity S-wave (km/s) = 3.56014 3.57780 3.56898
# Velocity P-wave (km/s) = 6.56739 6.58211 6.57475
#
# Compressibility (1/GPa) = 0.01900537
#
# Stress axis : x y z
#
# Youngs Moduli (GPa) = 60.91633 60.91693 57.89510
#
# Poissons Ratio (x) = 0.24831 0.33213
# Poissons Ratio (y) = 0.24831 0.33212
# Poissons Ratio (z) = 0.34946 0.34945
#
# Static dielectric constant tensor:
#      x y z
#    x 1.800120 0.000000 0.000000 
#    y 0.000000 1.800120 0.000000 
#    z 0.000000 0.000000 1.656350 
# 
# From -- ./inp_files/10857.got.cif
#   From: 2010.05.17/outbox.cif.g08.bks.cpg/sg98_6_cif.got.tgz:10857.got - 2010.06.03 20:00:51.
