data_PCOD9551187
_publ_section_title
;
Structure prediction by ZEFSAII (Michael W. Deem and Ramdas Pophale) SiO2 
 PCOD9551187
Probable space group: P 43 21 2
;
_chemical_formula_sum "Si O2"
_cell_formula_units_Z 24
_cell_length_a 8.859609
_cell_length_b 8.859609
_cell_length_c 11.795446
_cell_angle_alpha 90.000000
_cell_angle_beta 90.000000
_cell_angle_gamma 90.000000
_cell_volume 925.856070
_symmetry_space_group_name_H-M "P 43 21 2"
_symmetry_group_IT_number 96
_symmetry_cell_setting 'tetragonal'
loop_
_space_group_symop_operation_xyz
x,y,z
1/2-y,1/2+x,3/4+z
-x,-y,1/2+z
1/2+y,1/2-x,1/4+z
1/2+x,1/2-y,1/4-z
1/2-x,1/2+y,3/4-z
y,x,-z
-y,-x,1/2-z
loop_
_atom_site_type_symbol
_atom_site_label
_atom_site_fract_x
_atom_site_fract_y
_atom_site_fract_z
Si Si1 0.422085 0.771815 0.438161
Si Si2 0.414576 0.774811 0.694111
Si Si3 0.888274 0.069660 0.883179
O O1 0.548979 0.901480 0.424141
O O2 0.712619 0.429238 0.431894
O O3 0.275403 0.873321 0.420411
O O4 0.420943 0.614002 0.366018
O O5 0.251275 0.748725 0.750000
O O6 0.515643 0.686626 0.785903
O O7 0.893689 0.106311 0.750000
#
# Coordination Sequence:
#
# PCOD9551187 Si02
#       3
#     8   8   8
#     4  12  31  50  89 129 178 236 300 368 456 534
#     4  12  28  53  83 121 179 235 291 368 450 533
#     4  12  30  55  86 130 183 234 306 372 439 546
#
# _framework density 25.921955000000001
#
# number of rings (size 3 to 8) (size 9 to 14) (size 15 to 20)
#    0.000    0.000    3.333    3.000   14.000    0.000 
#    0.000    0.000    0.000    0.000    0.000    0.000 
#    0.000    0.000    0.000    0.000    0.000    0.000 
#
# Total GULP energy -133703.125895 kJ/mol
# GULP energy per Si atom -5570.963579 kJ/mol
# Density = 2.586296 g / cm^3
# Si number density = 25.921955 Si / 1000 Ang^3
#
#
#
# Elastic Constant Matrix: (Units=GPa)
#
#
# Indices 1 2 3 4 5 6 
#
# 1 189.7823 82.5376 73.2049 0.0000 0.0000 0.0000
# 2 82.5376 189.7805 73.2050 0.0000 0.0000 0.0000
# 3 73.2049 73.2050 232.9547 0.0000 0.0000 0.0000
# 4 0.0000 0.0000 0.0000 23.9247 0.0000 0.0000
# 5 0.0000 0.0000 0.0000 0.0000 23.9242 0.0000
# 6 0.0000 0.0000 0.0000 0.0000 0.0000 53.1040
#
#
#
# Elastic Compliance Matrix: (Units=1/GPa)
#
#
# Indices 1 2 3 4 5 6 
#
# 1 0.006872 -0.002453 -0.001389 0.000000 0.000000 0.000000
# 2 -0.002453 0.006872 -0.001389 0.000000 0.000000 0.000000
# 3 -0.001389 -0.001389 0.005165 0.000000 0.000000 0.000000
# 4 0.000000 0.000000 0.000000 0.041798 0.000000 0.000000
# 5 0.000000 0.000000 0.000000 0.000000 0.041799 0.000000
# 6 0.000000 0.000000 0.000000 0.000000 0.000000 0.018831
#
#
# Mechanical properties :
#
#
# Convention : Reuss Voigt Hill
#
# Bulk Modulus (GPa) = 118.36338 118.93473 118.64906
# Shear Modulus (GPa) = 37.14368 45.76190 41.45279
#
# Velocity S-wave (km/s) = 3.78948 4.20619 4.00326
# Velocity P-wave (km/s) = 8.05651 8.34091 8.19995
#
# Compressibility (1/GPa) = 0.00844856
#
# Stress axis : x y z
#
# Youngs Moduli (GPa) = 145.52673 145.52505 193.59668
#
# Poissons Ratio (x) = 0.35696 0.26882
# Poissons Ratio (y) = 0.35697 0.26882
# Poissons Ratio (z) = 0.20207 0.20207
#
# Static dielectric constant tensor:
#      x y z
#    x 2.262040 0.000000 0.000000 
#    y 0.000000 2.262050 0.000000 
#    z 0.000000 0.000000 2.217140 
# 
# From -- ./inp_files/2464.got.cif
#   From: 2010.05.17/outbox.cif.g08.bks.cpg/sg96_2_cif.got.tgz:2464.got - 2010.06.03 19:52:08.
