data_PCOD9551864
_publ_section_title
;
Structure prediction by ZEFSAII (Michael W. Deem and Ramdas Pophale) SiO2 
 PCOD9551864
Probable space group: I 41 2 2
;
_chemical_formula_sum "Si O2"
_cell_formula_units_Z 96
_cell_length_a 19.188454
_cell_length_b 19.188454
_cell_length_c 13.471430
_cell_angle_alpha 90.000000
_cell_angle_beta 90.000000
_cell_angle_gamma 90.000000
_cell_volume 4960.136972
_symmetry_space_group_name_H-M "I 41 2 2"
_symmetry_group_IT_number 98
_symmetry_cell_setting 'tetragonal'
loop_
_space_group_symop_operation_xyz
x,y,z
-y,1/2+x,1/4+z
-x,-y,z
y,1/2-x,1/4+z
x,1/2-y,1/4-z
-x,1/2+y,1/4-z
y,x,-z
-y,-x,-z
1/2+x,1/2+y,1/2+z
1/2-y,x,3/4+z
1/2-x,1/2-y,1/2+z
1/2+y,-x,3/4+z
1/2+x,-y,3/4-z
1/2-x,y,3/4-z
1/2+y,1/2+x,1/2-z
1/2-y,1/2-x,1/2-z
loop_
_atom_site_type_symbol
_atom_site_label
_atom_site_fract_x
_atom_site_fract_y
_atom_site_fract_z
Si Si1 0.018022 0.921386 0.100496
Si Si2 0.306282 0.612865 0.290127
Si Si3 0.497587 0.386277 0.017600
Si Si4 0.245909 0.991381 0.628672
Si Si5 0.305291 0.406789 0.463467
Si Si6 0.683468 0.067549 0.445964
O O1 0.064204 0.868038 0.164620
O O2 0.951548 0.873010 0.072973
O O3 0.059617 0.940384 0.000000
O O4 0.000000 0.000000 0.141586
O O5 0.250000 0.635051 0.375000
O O6 0.263410 0.568372 0.210531
O O7 0.353109 0.665516 0.226015
O O8 0.516604 0.364258 0.129675
O O9 0.424973 0.424973 0.000000
O O10 0.558329 0.441672 0.000000
O O11 0.502283 0.323703 0.938030
O O12 0.268936 0.056901 0.692612
O O13 0.303689 0.970380 0.549582
O O14 0.333077 0.333077 0.500000
O O15 0.250000 0.404927 0.375000
O O16 0.750000 0.072604 0.375000
#
# Coordination Sequence:
#
# PCOD9551864 Si02
#       6
#    16  16  16  16  16  16
#     4  11  21  36  65 101 132 161 216 281 345 398
#     4  12  23  39  64  94 135 172 221 276 338 407
#     4  10  21  40  69 101 127 168 226 284 346 400
#     4  11  22  42  65  92 140 174 219 285 338 408
#     4  12  24  44  65 102 142 182 225 279 349 418
#     4  10  24  41  62  90 135 182 223 273 342 414
#
# _framework density 19.354305
#
# number of rings (size 3 to 8) (size 9 to 14) (size 15 to 20)
#    0.000    1.000    6.667    1.000    0.000    2.667 
#    0.000    3.333    0.000    0.000    0.000    0.000 
#    0.000    0.000    0.000    0.000    0.000    0.000 
#
# Total GULP energy -267515.072210 kJ/mol
# GULP energy per Si atom -5573.230671 kJ/mol
# Density = 1.931025 g / cm^3
# Si number density = 19.354305 Si / 1000 Ang^3
#
#
#
# Elastic Constant Matrix: (Units=GPa)
#
#
# Indices 1 2 3 4 5 6 
#
# 1 81.1473 24.0652 49.7596 0.0000 0.0000 0.0000
# 2 24.0652 81.1483 49.7616 0.0000 0.0000 0.0000
# 3 49.7596 49.7616 132.7195 0.0000 0.0000 0.0000
# 4 0.0000 0.0000 0.0000 -3.3957 0.0000 0.0000
# 5 0.0000 0.0000 0.0000 0.0000 -3.4097 0.0000
# 6 0.0000 0.0000 0.0000 0.0000 0.0000 30.2225
#
#
#
# Elastic Compliance Matrix: (Units=1/GPa)
#
#
# Indices 1 2 3 4 5 6 
#
# 1 0.016123 -0.001395 -0.005522 0.000000 0.000000 0.000000
# 2 -0.001395 0.016123 -0.005522 0.000000 0.000000 0.000000
# 3 -0.005522 -0.005522 0.011675 0.000000 0.000000 0.000000
# 4 0.000000 0.000000 0.000000 -0.294493 0.000000 0.000000
# 5 0.000000 0.000000 0.000000 0.000000 -0.293280 0.000000
# 6 0.000000 0.000000 0.000000 0.000000 0.000000 0.033088
#
#
# Mechanical properties :
#
#
# Convention : Reuss Voigt Hill
#
# Bulk Modulus (GPa) = 52.51208 60.24310 56.37759
# Shear Modulus (GPa) = -10.42672 16.11200 2.84264
#
# Velocity S-wave (km/s) = -2.32357 2.88840 1.21323
# Velocity P-wave (km/s) = 4.47127 6.50521 5.58167
#
# Compressibility (1/GPa) = 0.01904324
#
# Stress axis : x y z
#
# Youngs Moduli (GPa) = 62.02317 62.02268 85.65079
#
# Poissons Ratio (x) = 0.08655 0.47294
# Poissons Ratio (y) = 0.08655 0.47297
# Poissons Ratio (z) = 0.34247 0.34249
#
# Static dielectric constant tensor:
#      x y z
#    x 1.813900 0.000000 0.000000 
#    y 0.000000 1.813890 0.000000 
#    z 0.000000 0.000000 1.748510 
# 
# From -- ./inp_files/5287.got.cif
#   From: 2010.05.17/outbox.cif.g08.bks.cpg/sg98_3_cif.got.tgz:5287.got - 2010.06.03 20:00:51.
