data_PCOD9551538
_publ_section_title
;
Structure prediction by ZEFSAII (Michael W. Deem and Ramdas Pophale) SiO2 
 PCOD9551538
Probable space group: I 4 2 2 
;
_chemical_formula_sum "Si O2"
_cell_formula_units_Z 40
_cell_length_a 12.807014
_cell_length_b 12.807014
_cell_length_c 10.428317
_cell_angle_alpha 90.000000
_cell_angle_beta 90.000000
_cell_angle_gamma 90.000000
_cell_volume 1710.448462
_symmetry_space_group_name_H-M "I 4 2 2 "
_symmetry_group_IT_number 97
_symmetry_cell_setting 'tetragonal'
loop_
_space_group_symop_operation_xyz
x,y,z
-y,x,z
-x,-y,z
y,-x,z
x,-y,-z
-x,y,-z
y,x,-z
-y,-x,-z
1/2+x,1/2+y,1/2+z
1/2-y,1/2+x,1/2+z
1/2-x,1/2-y,1/2+z
1/2+y,1/2-x,1/2+z
1/2+x,1/2-y,1/2-z
1/2-x,1/2+y,1/2-z
1/2+y,1/2+x,1/2-z
1/2-y,1/2-x,1/2-z
loop_
_atom_site_type_symbol
_atom_site_label
_atom_site_fract_x
_atom_site_fract_y
_atom_site_fract_z
Si Si1 0.273646 0.951234 0.733181
Si Si2 0.339761 0.271222 0.867029
Si Si3 0.175938 0.000000 0.000000
O O1 0.372228 0.872228 0.750000
O O2 0.170797 0.890888 0.679735
O O3 0.245849 0.995488 0.872918
O O4 0.282459 0.047897 0.635473
O O5 0.283091 0.216910 0.750000
O O6 0.276196 0.276196 0.000000
O O7 0.100344 0.899657 0.000000
#
# Coordination Sequence:
#
# PCOD9551538 Si02
#       3
#    16  16   8
#     4  11  25  43  76 111 151 197 252 319 379 450
#     4  11  26  47  73 107 152 201 253 316 382 453
#     4  11  22  44  76 111 146 202 263 312 371 450
#
# _framework density 23.385680000000001
#
# number of rings (size 3 to 8) (size 9 to 14) (size 15 to 20)
#    0.000    1.000    4.000    1.200   11.200    1.600 
#    0.000    2.000    0.000    0.000    0.000    0.000 
#    0.000    0.000    0.000    0.000    0.000    0.000 
#
# Total GULP energy -111558.084183 kJ/mol
# GULP energy per Si atom -5577.904209 kJ/mol
# Density = 2.333245 g / cm^3
# Si number density = 23.385680 Si / 1000 Ang^3
#
#
#
# Elastic Constant Matrix: (Units=GPa)
#
#
# Indices 1 2 3 4 5 6 
#
# 1 143.8500 28.0234 56.6635 0.0000 0.0000 0.0000
# 2 28.0234 143.8755 56.6606 0.0000 0.0000 0.0000
# 3 56.6635 56.6606 190.5186 0.0000 0.0000 0.0000
# 4 0.0000 0.0000 0.0000 33.3458 0.0000 0.0000
# 5 0.0000 0.0000 0.0000 0.0000 33.3452 0.0000
# 6 0.0000 0.0000 0.0000 0.0000 0.0000 31.6048
#
#
#
# Elastic Compliance Matrix: (Units=1/GPa)
#
#
# Indices 1 2 3 4 5 6 
#
# 1 0.007936 -0.000698 -0.002153 0.000000 0.000000 0.000000
# 2 -0.000698 0.007934 -0.002152 0.000000 0.000000 0.000000
# 3 -0.002153 -0.002152 0.006529 0.000000 0.000000 0.000000
# 4 0.000000 0.000000 0.000000 0.029989 0.000000 0.000000
# 5 0.000000 0.000000 0.000000 0.000000 0.029989 0.000000
# 6 0.000000 0.000000 0.000000 0.000000 0.000000 0.031641
#
#
# Mechanical properties :
#
#
# Convention : Reuss Voigt Hill
#
# Bulk Modulus (GPa) = 80.68751 84.54878 82.61815
# Shear Modulus (GPa) = 39.01568 42.11893 40.56730
#
# Velocity S-wave (km/s) = 4.08898 4.24849 4.16950
# Velocity P-wave (km/s) = 7.54128 7.76523 7.65407
#
# Compressibility (1/GPa) = 0.01239349
#
# Stress axis : x y z
#
# Youngs Moduli (GPa) = 126.01477 126.04180 153.16146
#
# Poissons Ratio (x) = 0.08797 0.32970
# Poissons Ratio (y) = 0.08795 0.32960
# Poissons Ratio (z) = 0.27126 0.27124
#
# Static dielectric constant tensor:
#      x y z
#    x 2.034930 0.000000 0.000000 
#    y 0.000000 2.034920 0.000000 
#    z 0.000000 0.000000 1.930800 
# 
# From -- ./inp_files/1470.got.cif
#   From: 2010.05.17/outbox.cif.g08.bks.cpg/sg97_1_cif.got.tgz:1470.got - 2010.06.03 19:55:32.
