data_PCOD9551365
_publ_section_title
;
Structure prediction by ZEFSAII (Michael W. Deem and Ramdas Pophale) SiO2 
 PCOD9551365
Probable space group: I 4 2 2 
;
_chemical_formula_sum "Si O2"
_cell_formula_units_Z 80
_cell_length_a 27.468737
_cell_length_b 27.468737
_cell_length_c 5.316732
_cell_angle_alpha 90.000000
_cell_angle_beta 90.000000
_cell_angle_gamma 90.000000
_cell_volume 4011.641837
_symmetry_space_group_name_H-M "I 4 2 2 "
_symmetry_group_IT_number 97
_symmetry_cell_setting 'tetragonal'
loop_
_space_group_symop_operation_xyz
x,y,z
-y,x,z
-x,-y,z
y,-x,z
x,-y,-z
-x,y,-z
y,x,-z
-y,-x,-z
1/2+x,1/2+y,1/2+z
1/2-y,1/2+x,1/2+z
1/2-x,1/2-y,1/2+z
1/2+y,1/2-x,1/2+z
1/2+x,1/2-y,1/2-z
1/2-x,1/2+y,1/2-z
1/2+y,1/2+x,1/2-z
1/2-y,1/2-x,1/2-z
loop_
_atom_site_type_symbol
_atom_site_label
_atom_site_fract_x
_atom_site_fract_y
_atom_site_fract_z
Si Si1 0.500000 0.418368 0.500000
Si Si2 0.143138 0.643138 0.750000
Si Si3 0.146061 0.000000 0.500000
Si Si4 0.447026 0.181029 0.999066
Si Si5 0.779012 0.047033 0.180308
Si Si6 0.878652 0.731756 0.889625
Si Si7 0.727299 0.227299 0.750000
O O1 0.546805 0.453196 0.500000
O O2 0.493981 0.386833 0.246777
O O3 0.144712 0.595158 0.916980
O O4 0.192290 0.640669 0.589843
O O5 0.182690 0.042684 0.592217
O O6 0.454417 0.225555 0.803232
O O7 0.500000 0.157512 0.000000
O O8 0.423752 0.206984 0.242524
O O9 0.778291 0.097196 0.023924
O O10 0.785933 0.000000 0.000000
O O11 0.830703 0.738454 0.721289
O O12 0.745708 0.254292 0.500000
#
# Coordination Sequence:
#
# PCOD9551365 Si02
#       7
#     8   8   8  16  16  16   8
#     4  11  26  48  76 100 128 178 232 280 345 442
#     4  10  21  34  62  96 133 169 226 292 321 416
#     4  12  22  43  74 102 138 172 220 291 354 418
#     4  11  20  35  65  96 132 177 226 288 346 406
#     4  11  21  38  67 102 134 175 213 288 353 411
#     4  11  22  41  64  95 134 176 236 287 338 401
#     4  12  27  46  68  90 132 200 242 281 335 412
#
# _framework density 19.941960000000002
#
# number of rings (size 3 to 8) (size 9 to 14) (size 15 to 20)
#    0.000    0.900    6.000    1.200    2.800    0.800 
#    0.000    1.000    4.400    0.000    0.000    9.800 
#    0.000    0.000    0.000    0.000    0.000    0.000 
#
# Total GULP energy -223087.825399 kJ/mol
# GULP energy per Si atom -5577.195635 kJ/mol
# Density = 1.989657 g / cm^3
# Si number density = 19.941960 Si / 1000 Ang^3
#
#
#
# Elastic Constant Matrix: (Units=GPa)
#
#
# Indices 1 2 3 4 5 6 
#
# 1 90.8132 37.8953 38.1497 0.0000 0.0000 0.0000
# 2 37.8953 90.8142 38.1493 0.0000 0.0000 0.0000
# 3 38.1497 38.1493 114.9505 0.0000 0.0000 0.0000
# 4 0.0000 0.0000 0.0000 31.9868 0.0000 0.0000
# 5 0.0000 0.0000 0.0000 0.0000 31.9928 0.0000
# 6 0.0000 0.0000 0.0000 0.0000 0.0000 12.1464
#
#
#
# Elastic Compliance Matrix: (Units=1/GPa)
#
#
# Indices 1 2 3 4 5 6 
#
# 1 0.014285 -0.004612 -0.003210 0.000000 0.000000 0.000000
# 2 -0.004612 0.014285 -0.003210 0.000000 0.000000 0.000000
# 3 -0.003210 -0.003210 0.010830 0.000000 0.000000 0.000000
# 4 0.000000 0.000000 0.000000 0.031263 0.000000 0.000000
# 5 0.000000 0.000000 0.000000 0.000000 0.031257 0.000000
# 6 0.000000 0.000000 0.000000 0.000000 0.000000 0.082329
#
#
# Mechanical properties :
#
#
# Convention : Reuss Voigt Hill
#
# Bulk Modulus (GPa) = 57.68788 58.32961 58.00875
# Shear Modulus (GPa) = 23.57472 27.38409 25.47941
#
# Velocity S-wave (km/s) = 3.44199 3.70968 3.57834
# Velocity P-wave (km/s) = 6.69232 6.90378 6.79887
#
# Compressibility (1/GPa) = 0.01733466
#
# Stress axis : x y z
#
# Youngs Moduli (GPa) = 70.00441 70.00550 92.33544
#
# Poissons Ratio (x) = 0.32289 0.29641
# Poissons Ratio (y) = 0.32288 0.29640
# Poissons Ratio (z) = 0.22472 0.22472
#
# Static dielectric constant tensor:
#      x y z
#    x 1.743600 0.000000 0.000000 
#    y 0.000000 1.743600 0.000000 
#    z 0.000000 0.000000 1.796900 
# 
# From -- ./inp_files/1033.got.cif
#   From: 2010.05.17/outbox.cif.g08.bks.cpg/sg97_1_cif.got.tgz:1033.got - 2010.06.03 19:55:32.
