data_PCOD9551609
_publ_section_title
;
Structure prediction by ZEFSAII (Michael W. Deem and Ramdas Pophale) SiO2 
 PCOD9551609
Probable space group: I 4 2 2 
;
_chemical_formula_sum "Si O2"
_cell_formula_units_Z 72
_cell_length_a 10.705338
_cell_length_b 10.705338
_cell_length_c 26.309858
_cell_angle_alpha 90.000000
_cell_angle_beta 90.000000
_cell_angle_gamma 90.000000
_cell_volume 3015.221851
_symmetry_space_group_name_H-M "I 4 2 2 "
_symmetry_group_IT_number 97
_symmetry_cell_setting 'tetragonal'
loop_
_space_group_symop_operation_xyz
x,y,z
-y,x,z
-x,-y,z
y,-x,z
x,-y,-z
-x,y,-z
y,x,-z
-y,-x,-z
1/2+x,1/2+y,1/2+z
1/2-y,1/2+x,1/2+z
1/2-x,1/2-y,1/2+z
1/2+y,1/2-x,1/2+z
1/2+x,1/2-y,1/2-z
1/2-x,1/2+y,1/2-z
1/2+y,1/2+x,1/2-z
1/2-y,1/2-x,1/2-z
loop_
_atom_site_type_symbol
_atom_site_label
_atom_site_fract_x
_atom_site_fract_y
_atom_site_fract_z
Si Si1 0.788398 0.996327 0.444698
Si Si2 0.143118 0.152130 0.839045
Si Si3 0.287500 0.484744 0.831505
Si Si4 0.331970 0.831970 0.750000
Si Si5 0.348958 0.648967 0.446422
O O1 0.727131 0.990824 0.388416
O O2 0.883930 0.879800 0.444805
O O3 0.719629 0.000000 0.500000
O O4 0.182765 0.219676 0.789181
O O5 0.194709 0.201344 0.892792
O O6 0.993952 0.168680 0.838774
O O7 0.390811 0.372625 0.827065
O O8 0.189584 0.453464 0.786254
O O9 0.331722 0.498796 0.446484
O O10 0.301147 0.698854 0.500000
#
# Coordination Sequence:
#
# PCOD9551609 Si02
#       5
#    16  16  16   8  16
#     4   7  10  20  42  67  85 109 149 197 244 287
#     4   9  18  32  49  69  93 128 166 199 243 294
#     4   9  18  32  49  68  93 131 168 205 252 301
#     4  12  20  26  44  70 102 130 160 206 246 296
#     4   7  10  20  42  67  85 105 140 185 231 279
#
# _framework density 23.878838999999999
#
# number of rings (size 3 to 8) (size 9 to 14) (size 15 to 20)
#    0.000    3.556    0.000    5.333    0.000    1.778 
#    0.000    0.000    9.778   10.667    0.000    0.000 
#    0.000    0.000    0.000    0.000    0.000    0.000 
#
# Total GULP energy -200558.350090 kJ/mol
# GULP energy per Si atom -5571.065280 kJ/mol
# Density = 2.382449 g / cm^3
# Si number density = 23.878839 Si / 1000 Ang^3
#
#
#
# Elastic Constant Matrix: (Units=GPa)
#
#
# Indices 1 2 3 4 5 6 
#
# 1 40.5144 25.2834 35.2739 0.0000 0.0000 0.0000
# 2 25.2834 40.5144 35.2740 0.0000 0.0000 0.0000
# 3 35.2739 35.2740 283.1390 0.0000 0.0000 0.0000
# 4 0.0000 0.0000 0.0000 17.7407 0.0000 0.0000
# 5 0.0000 0.0000 0.0000 0.0000 17.7409 0.0000
# 6 0.0000 0.0000 0.0000 0.0000 0.0000 32.4347
#
#
#
# Elastic Compliance Matrix: (Units=1/GPa)
#
#
# Indices 1 2 3 4 5 6 
#
# 1 0.041598 -0.024057 -0.002185 0.000000 0.000000 0.000000
# 2 -0.024057 0.041598 -0.002185 0.000000 0.000000 0.000000
# 3 -0.002185 -0.002185 0.004076 0.000000 0.000000 0.000000
# 4 0.000000 0.000000 0.000000 0.056368 0.000000 0.000000
# 5 0.000000 0.000000 0.000000 0.000000 0.056367 0.000000
# 6 0.000000 0.000000 0.000000 0.000000 0.000000 0.030831
#
#
# Mechanical properties :
#
#
# Convention : Reuss Voigt Hill
#
# Bulk Modulus (GPa) = 32.87593 61.75894 47.31744
# Shear Modulus (GPa) = 16.78790 31.47236 24.13013
#
# Velocity S-wave (km/s) = 2.65438 3.63437 3.18232
# Velocity P-wave (km/s) = 4.81581 6.59781 5.77595
#
# Compressibility (1/GPa) = 0.03041739
#
# Stress axis : x y z
#
# Youngs Moduli (GPa) = 24.03944 24.03942 245.31854
#
# Poissons Ratio (x) = 0.57832 0.53609
# Poissons Ratio (y) = 0.57832 0.53610
# Poissons Ratio (z) = 0.05253 0.05253
#
# Static dielectric constant tensor:
#      x y z
#    x 1.924450 0.000000 0.000000 
#    y 0.000000 1.924450 0.000000 
#    z 0.000000 0.000000 1.982780 
# 
# From -- ./inp_files/7549.got.cif
#   From: 2010.05.17/outbox.cif.g08.bks.cpg/sg97_4_cif.got.tgz:7549.got - 2010.06.03 19:55:32.
