data_PCOD9551977
_publ_section_title
;
Structure prediction by ZEFSAII (Michael W. Deem and Ramdas Pophale) SiO2 
 PCOD9551977
Probable space group: I 41 2 2
;
_chemical_formula_sum "Si O2"
_cell_formula_units_Z 40
_cell_length_a 10.364953
_cell_length_b 10.364953
_cell_length_c 16.231715
_cell_angle_alpha 90.000000
_cell_angle_beta 90.000000
_cell_angle_gamma 90.000000
_cell_volume 1743.809675
_symmetry_space_group_name_H-M "I 41 2 2"
_symmetry_group_IT_number 98
_symmetry_cell_setting 'tetragonal'
loop_
_space_group_symop_operation_xyz
x,y,z
-y,1/2+x,1/4+z
-x,-y,z
y,1/2-x,1/4+z
x,1/2-y,1/4-z
-x,1/2+y,1/4-z
y,x,-z
-y,-x,-z
1/2+x,1/2+y,1/2+z
1/2-y,x,3/4+z
1/2-x,1/2-y,1/2+z
1/2+y,-x,3/4+z
1/2+x,-y,3/4-z
1/2-x,y,3/4-z
1/2+y,1/2+x,1/2-z
1/2-y,1/2-x,1/2-z
loop_
_atom_site_type_symbol
_atom_site_label
_atom_site_fract_x
_atom_site_fract_y
_atom_site_fract_z
Si Si1 0.250000 0.888702 0.875000
Si Si2 0.409969 0.123499 0.156214
Si Si3 0.212041 0.010573 0.036318
O O1 0.378357 0.818995 0.837818
O O2 0.207860 0.970312 0.795039
O O3 0.482960 0.250000 0.125000
O O4 0.366205 0.133796 0.250000
O O5 0.290243 0.102074 0.096464
O O6 0.500000 0.000000 0.149563
O O7 0.091429 0.091429 0.000000
#
# Coordination Sequence:
#
# PCOD9551977 Si02
#       3
#     8  16  16
#     4  10  24  44  76 110 146 192 256 312 392 454
#     4  11  28  47  75 111 153 206 261 321 402 457
#     4  11  26  46  76 111 151 202 253 319 391 459
#
# _framework density 22.938285
#
# number of rings (size 3 to 8) (size 9 to 14) (size 15 to 20)
#    0.000    1.200    0.000    3.600   16.800    3.200 
#    0.000    0.000    0.000    0.000    0.000    0.000 
#    0.000    0.000    0.000    0.000    0.000    0.000 
#
# Total GULP energy -111713.864795 kJ/mol
# GULP energy per Si atom -5585.693240 kJ/mol
# Density = 2.288608 g / cm^3
# Si number density = 22.938285 Si / 1000 Ang^3
#
#
#
# Elastic Constant Matrix: (Units=GPa)
#
#
# Indices 1 2 3 4 5 6 
#
# 1 108.9961 30.4119 69.4449 0.0000 0.0000 0.0000
# 2 30.4119 108.9962 69.4450 0.0000 0.0000 0.0000
# 3 69.4449 69.4450 199.6136 0.0000 0.0000 0.0000
# 4 0.0000 0.0000 0.0000 -317.1884 0.0002 0.0000
# 5 0.0000 0.0000 0.0000 0.0002 -319.5996 0.0000
# 6 0.0000 0.0000 0.0000 0.0000 0.0000 21.3518
#
#
#
# Elastic Compliance Matrix: (Units=1/GPa)
#
#
# Indices 1 2 3 4 5 6 
#
# 1 0.011852 -0.000873 -0.003819 0.000000 0.000000 0.000000
# 2 -0.000873 0.011852 -0.003819 0.000000 0.000000 0.000000
# 3 -0.003819 -0.003819 0.007667 0.000000 0.000000 0.000000
# 4 0.000000 0.000000 0.000000 -0.003153 0.000000 0.000000
# 5 0.000000 0.000000 0.000000 0.000000 -0.003129 0.000000
# 6 0.000000 0.000000 0.000000 0.000000 0.000000 0.046834
#
#
# Mechanical properties :
#
#
# Convention : Reuss Voigt Hill
#
# Bulk Modulus (GPa) = 69.70351 84.02326 76.86339
# Shear Modulus (GPa) = 53.34483 -106.53364 -26.59440
#
# Velocity S-wave (km/s) = 4.82766 -6.82235 -3.40867
# Velocity P-wave (km/s) = 7.84401 5.03484 4.25317
#
# Compressibility (1/GPa) = 0.01434648
#
# Stress axis : x y z
#
# Youngs Moduli (GPa) = 84.37568 84.37570 130.42687
#
# Poissons Ratio (x) = 0.07370 0.49814
# Poissons Ratio (y) = 0.07370 0.49814
# Poissons Ratio (z) = 0.32226 0.32226
#
# Static dielectric constant tensor:
#      x y z
#    x 1.970720 0.000000 0.000000 
#    y 0.000000 1.970980 0.000000 
#    z 0.000000 0.000000 1.805510 
# 
# From -- ./inp_files/5947.got.cif
#   From: 2010.05.17/outbox.cif.g08.bks.cpg/sg98_3_cif.got.tgz:5947.got - 2010.06.03 20:00:51.
