data_PCOD9551326
_publ_section_title
;
Structure prediction by ZEFSAII (Michael W. Deem and Ramdas Pophale) SiO2 
 PCOD9551326
Probable space group: I 4 2 2 
;
_chemical_formula_sum "Si O2"
_cell_formula_units_Z 80
_cell_length_a 25.552841
_cell_length_b 25.552841
_cell_length_c 6.601677
_cell_angle_alpha 90.000000
_cell_angle_beta 90.000000
_cell_angle_gamma 90.000000
_cell_volume 4310.549702
_symmetry_space_group_name_H-M "I 4 2 2 "
_symmetry_group_IT_number 97
_symmetry_cell_setting 'tetragonal'
loop_
_space_group_symop_operation_xyz
x,y,z
-y,x,z
-x,-y,z
y,-x,z
x,-y,-z
-x,y,-z
y,x,-z
-y,-x,-z
1/2+x,1/2+y,1/2+z
1/2-y,1/2+x,1/2+z
1/2-x,1/2-y,1/2+z
1/2+y,1/2-x,1/2+z
1/2+x,1/2-y,1/2-z
1/2-x,1/2+y,1/2-z
1/2+y,1/2+x,1/2-z
1/2-y,1/2-x,1/2-z
loop_
_atom_site_type_symbol
_atom_site_label
_atom_site_fract_x
_atom_site_fract_y
_atom_site_fract_z
Si Si1 0.129088 0.053199 0.890502
Si Si2 0.316048 0.903296 0.258641
Si Si3 0.068899 0.248647 0.653692
Si Si4 0.302547 0.000000 0.000000
Si Si5 0.219557 0.136700 0.994739
Si Si6 0.500000 0.346569 0.000000
O O1 0.120534 0.032187 0.664261
O O2 0.079635 0.079635 0.000000
O O3 0.175734 0.095344 0.912734
O O4 0.145865 0.000000 0.000000
O O5 0.365303 0.865303 0.250000
O O6 0.290472 0.921491 0.473693
O O7 0.269182 0.872343 0.146448
O O8 0.330300 0.954138 0.124242
O O9 0.121009 0.235541 0.777741
O O10 0.043606 0.194360 0.581010
O O11 0.029322 0.269782 0.825545
O O12 0.192836 0.192836 0.000000
#
# Coordination Sequence:
#
# PCOD9551326 Si02
#       6
#    16  16  16   8  16   8
#     4  11  23  38  59  89 118 157 214 274 322 393
#     4  11  23  39  61  97 128 168 217 266 330 390
#     4  11  19  37  66  88 117 164 214 262 314 384
#     4  10  20  36  64  92 123 158 215 276 310 386
#     4  10  22  39  57  87 121 165 214 269 319 390
#     4  12  18  36  66  85 116 163 208 264 330 376
#
# _framework density 18.559117000000001
#
# number of rings (size 3 to 8) (size 9 to 14) (size 15 to 20)
#    0.000    1.200    6.000    1.200    1.400    5.000 
#    3.600    0.000    0.000    1.200    0.000    9.800 
#    0.000    0.000    0.000    0.000    0.000    0.000 
#
# Total GULP energy -223023.056200 kJ/mol
# GULP energy per Si atom -5575.576405 kJ/mol
# Density = 1.851688 g / cm^3
# Si number density = 18.559117 Si / 1000 Ang^3
#
#
#
# Elastic Constant Matrix: (Units=GPa)
#
#
# Indices 1 2 3 4 5 6 
#
# 1 83.2410 53.2365 47.6524 0.0000 0.0000 0.0000
# 2 53.2365 83.2410 47.6524 0.0000 0.0000 0.0000
# 3 47.6524 47.6524 136.1531 0.0000 0.0000 0.0000
# 4 0.0000 0.0000 0.0000 1.0041 0.0000 0.0000
# 5 0.0000 0.0000 0.0000 0.0000 1.0041 0.0000
# 6 0.0000 0.0000 0.0000 0.0000 0.0000 24.8238
#
#
#
# Elastic Compliance Matrix: (Units=1/GPa)
#
#
# Indices 1 2 3 4 5 6 
#
# 1 0.021513 -0.011816 -0.003394 0.000000 0.000000 0.000000
# 2 -0.011816 0.021513 -0.003394 0.000000 0.000000 0.000000
# 3 -0.003394 -0.003394 0.009720 0.000000 0.000000 0.000000
# 4 0.000000 0.000000 0.000000 0.995876 0.000000 0.000000
# 5 0.000000 0.000000 0.000000 0.000000 0.995876 0.000000
# 6 0.000000 0.000000 0.000000 0.000000 0.000000 0.040284
#
#
# Mechanical properties :
#
#
# Convention : Reuss Voigt Hill
#
# Bulk Modulus (GPa) = 64.35382 66.63531 65.49457
# Shear Modulus (GPa) = 2.35054 15.63933 8.99493
#
# Velocity S-wave (km/s) = 1.12662 2.90604 2.20390
# Velocity P-wave (km/s) = 6.03678 6.87331 6.46858
#
# Compressibility (1/GPa) = 0.01553909
#
# Stress axis : x y z
#
# Youngs Moduli (GPa) = 46.48387 46.48387 102.87648
#
# Poissons Ratio (x) = 0.54923 0.34916
# Poissons Ratio (y) = 0.54923 0.34916
# Poissons Ratio (z) = 0.15776 0.15776
#
# Static dielectric constant tensor:
#      x y z
#    x 1.653530 0.000000 0.000000 
#    y 0.000000 1.653530 0.000000 
#    z 0.000000 0.000000 1.720890 
# 
# From -- ./inp_files/995.got.cif
#   From: 2010.05.17/outbox.cif.g08.bks.cpg/sg97_1_cif.got.tgz:995.got - 2010.06.03 19:55:32.
