data_PCOD9551896
_publ_section_title
;
Structure prediction by ZEFSAII (Michael W. Deem and Ramdas Pophale) SiO2 
 PCOD9551896
Probable space group: I 41 2 2
;
_chemical_formula_sum "Si O2"
_cell_formula_units_Z 76
_cell_length_a 14.651208
_cell_length_b 14.651208
_cell_length_c 18.592697
_cell_angle_alpha 90.000000
_cell_angle_beta 90.000000
_cell_angle_gamma 90.000000
_cell_volume 3991.069216
_symmetry_space_group_name_H-M "I 41 2 2"
_symmetry_group_IT_number 98
_symmetry_cell_setting 'tetragonal'
loop_
_space_group_symop_operation_xyz
x,y,z
-y,1/2+x,1/4+z
-x,-y,z
y,1/2-x,1/4+z
x,1/2-y,1/4-z
-x,1/2+y,1/4-z
y,x,-z
-y,-x,-z
1/2+x,1/2+y,1/2+z
1/2-y,x,3/4+z
1/2-x,1/2-y,1/2+z
1/2+y,-x,3/4+z
1/2+x,-y,3/4-z
1/2-x,y,3/4-z
1/2+y,1/2+x,1/2-z
1/2-y,1/2-x,1/2-z
loop_
_atom_site_type_symbol
_atom_site_label
_atom_site_fract_x
_atom_site_fract_y
_atom_site_fract_z
Si Si1 0.188326 0.968376 0.082974
Si Si2 0.302600 0.689554 0.804808
Si Si3 0.315011 0.380363 0.227207
Si Si4 0.000000 0.500000 0.250000
Si Si5 0.512300 0.108023 0.987127
Si Si6 0.696645 0.750000 0.625000
O O1 0.222381 0.864791 0.074847
O O2 0.170269 0.990861 0.165891
O O3 0.268031 0.025611 0.045157
O O4 0.093196 0.995012 0.045209
O O5 0.250000 0.656006 0.875000
O O6 0.226940 0.726940 0.750000
O O7 0.364124 0.607353 0.773950
O O8 0.422745 0.372965 0.215330
O O9 0.298793 0.363169 0.312830
O O10 0.260813 0.312060 0.174917
O O11 0.500000 0.000000 0.968827
#
# Coordination Sequence:
#
# PCOD9551896 Si02
#       6
#    16  16  16   4  16   8
#     4  12  24  41  66 101 135 178 227 281 352 426
#     4  12  26  46  69  97 138 187 239 292 343 417
#     4  11  23  41  63  96 131 177 225 280 345 413
#     4  12  24  36  68 108 140 172 218 280 360 432
#     4  12  25  43  67  96 138 183 230 282 348 411
#     4  10  22  40  64  90 132 170 216 286 342 406
#
# _framework density 19.042517
#
# number of rings (size 3 to 8) (size 9 to 14) (size 15 to 20)
#    0.000    0.421    8.421    1.263    1.474    0.000 
#    1.895    0.000    0.000    3.158    0.000    0.000 
#    0.000    0.000    0.000    0.000    0.000    0.000 
#
# Total GULP energy -211916.993040 kJ/mol
# GULP energy per Si atom -5576.762975 kJ/mol
# Density = 1.899918 g / cm^3
# Si number density = 19.042517 Si / 1000 Ang^3
#
#
#
# Elastic Constant Matrix: (Units=GPa)
#
#
# Indices 1 2 3 4 5 6 
#
# 1 104.0623 33.6316 39.7817 0.0000 0.0000 0.0000
# 2 33.6316 104.0623 39.7817 0.0000 0.0000 0.0000
# 3 39.7817 39.7817 102.2372 0.0000 0.0000 0.0000
# 4 0.0000 0.0000 0.0000 19.8754 0.0000 0.0000
# 5 0.0000 0.0000 0.0000 0.0000 19.8754 0.0000
# 6 0.0000 0.0000 0.0000 0.0000 0.0000 34.3113
#
#
#
# Elastic Compliance Matrix: (Units=1/GPa)
#
#
# Indices 1 2 3 4 5 6 
#
# 1 0.011784 -0.002415 -0.003646 0.000000 0.000000 0.000000
# 2 -0.002415 0.011784 -0.003646 0.000000 0.000000 0.000000
# 3 -0.003646 -0.003646 0.012618 0.000000 0.000000 0.000000
# 4 0.000000 0.000000 0.000000 0.050313 0.000000 0.000000
# 5 0.000000 0.000000 0.000000 0.000000 0.050313 0.000000
# 6 0.000000 0.000000 0.000000 0.000000 0.000000 0.029145
#
#
# Mechanical properties :
#
#
# Convention : Reuss Voigt Hill
#
# Bulk Modulus (GPa) = 59.61636 59.63907 59.62772
# Shear Modulus (GPa) = 26.18342 27.95686 27.07014
#
# Velocity S-wave (km/s) = 3.71212 3.83577 3.77445
# Velocity P-wave (km/s) = 7.05323 7.14174 7.09762
#
# Compressibility (1/GPa) = 0.01677392
#
# Stress axis : x y z
#
# Youngs Moduli (GPa) = 84.86308 84.86308 79.25030
#
# Poissons Ratio (x) = 0.20492 0.28891
# Poissons Ratio (y) = 0.20492 0.28891
# Poissons Ratio (z) = 0.30938 0.30938
#
# Static dielectric constant tensor:
#      x y z
#    x 1.683280 0.000000 0.000000 
#    y 0.000000 1.683280 0.000000 
#    z 0.000000 0.000000 1.642610 
# 
# From -- ./inp_files/8746.got.cif
#   From: 2010.05.17/outbox.cif.g08.bks.cpg/sg98_5_cif.got.tgz:8746.got - 2010.06.03 20:00:51.
