data_PCOD9551593
_publ_section_title
;
Structure prediction by ZEFSAII (Michael W. Deem and Ramdas Pophale) SiO2 
 PCOD9551593
Probable space group: I 4 2 2 
;
_chemical_formula_sum "Si O2"
_cell_formula_units_Z 36
_cell_length_a 10.470829
_cell_length_b 10.470829
_cell_length_c 12.019496
_cell_angle_alpha 90.000000
_cell_angle_beta 90.000000
_cell_angle_gamma 90.000000
_cell_volume 1317.796627
_symmetry_space_group_name_H-M "I 4 2 2 "
_symmetry_group_IT_number 97
_symmetry_cell_setting 'tetragonal'
loop_
_space_group_symop_operation_xyz
x,y,z
-y,x,z
-x,-y,z
y,-x,z
x,-y,-z
-x,y,-z
y,x,-z
-y,-x,-z
1/2+x,1/2+y,1/2+z
1/2-y,1/2+x,1/2+z
1/2-x,1/2-y,1/2+z
1/2+y,1/2-x,1/2+z
1/2+x,1/2-y,1/2-z
1/2-x,1/2+y,1/2-z
1/2+y,1/2+x,1/2-z
1/2-y,1/2-x,1/2-z
loop_
_atom_site_type_symbol
_atom_site_label
_atom_site_fract_x
_atom_site_fract_y
_atom_site_fract_z
Si Si1 0.264105 0.973194 0.288137
Si Si2 0.701702 0.118644 0.924477
Si Si3 0.500000 0.500000 0.858646
O O1 0.357199 0.857199 0.250000
O O2 0.220675 0.053563 0.178269
O O3 0.337550 0.071788 0.366454
O O4 0.139558 0.929500 0.354600
O O5 0.782219 0.217782 0.000000
O O6 0.669216 0.000000 0.000000
#
# Coordination Sequence:
#
# PCOD9551593 Si02
#       3
#    16  16   4
#     4  11  28  54  82 124 172 230 296 374 453 546
#     4  11  25  49  85 121 169 229 296 361 452 542
#     4  12  28  52  86 120 172 222 300 384 450 532
#
# _framework density 27.318328999999999
#
# number of rings (size 3 to 8) (size 9 to 14) (size 15 to 20)
#    0.000    0.889    0.000    5.333   12.444    4.000 
#    8.000    1.111    0.000    0.000    0.000    0.000 
#    0.000    0.000    0.000    0.000    0.000    0.000 
#
# Total GULP energy -100465.722375 kJ/mol
# GULP energy per Si atom -5581.429021 kJ/mol
# Density = 2.725615 g / cm^3
# Si number density = 27.318329 Si / 1000 Ang^3
#
#
#
# Elastic Constant Matrix: (Units=GPa)
#
#
# Indices 1 2 3 4 5 6 
#
# 1 173.6103 79.2155 46.7217 0.0000 0.0000 0.0000
# 2 79.2155 173.6093 46.7208 0.0000 0.0000 0.0000
# 3 46.7217 46.7208 149.3725 0.0000 0.0000 0.0000
# 4 0.0000 0.0000 0.0000 43.4640 0.0000 0.0000
# 5 0.0000 0.0000 0.0000 0.0000 43.4644 0.0000
# 6 0.0000 0.0000 0.0000 0.0000 0.0000 43.2346
#
#
#
# Elastic Compliance Matrix: (Units=1/GPa)
#
#
# Indices 1 2 3 4 5 6 
#
# 1 0.007533 -0.003061 -0.001399 0.000000 0.000000 0.000000
# 2 -0.003061 0.007533 -0.001399 0.000000 0.000000 0.000000
# 3 -0.001399 -0.001399 0.007570 0.000000 0.000000 0.000000
# 4 0.000000 0.000000 0.000000 0.023008 0.000000 0.000000
# 5 0.000000 0.000000 0.000000 0.000000 0.023007 0.000000
# 6 0.000000 0.000000 0.000000 0.000000 0.000000 0.023130
#
#
# Mechanical properties :
#
#
# Convention : Reuss Voigt Hill
#
# Bulk Modulus (GPa) = 91.58416 93.54535 92.56475
# Shear Modulus (GPa) = 46.66918 47.62821 47.14869
#
# Velocity S-wave (km/s) = 4.13770 4.18000 4.15890
# Velocity P-wave (km/s) = 7.51166 7.59036 7.55111
#
# Compressibility (1/GPa) = 0.01091892
#
# Stress axis : x y z
#
# Youngs Moduli (GPa) = 132.74795 132.74753 132.10461
#
# Poissons Ratio (x) = 0.40631 0.18480
# Poissons Ratio (y) = 0.40631 0.18479
# Poissons Ratio (z) = 0.18570 0.18569
#
# Static dielectric constant tensor:
#      x y z
#    x 2.168850 0.000000 0.000000 
#    y 0.000000 2.168850 0.000000 
#    z 0.000000 0.000000 2.350860 
# 
# From -- ./inp_files/2921.got.cif
#   From: 2010.05.17/outbox.cif.g08.bks.cpg/sg97_2_cif.got.tgz:2921.got - 2010.06.03 19:55:32.
