data_PCOD9551012
_publ_section_title
;
Structure prediction by ZEFSAII (Michael W. Deem and Ramdas Pophale) SiO2 
 PCOD9551012
Probable space group: P 43 21 2
;
_chemical_formula_sum "Si O2"
_cell_formula_units_Z 44
_cell_length_a 8.256017
_cell_length_b 8.256017
_cell_length_c 29.511091
_cell_angle_alpha 90.000000
_cell_angle_beta 90.000000
_cell_angle_gamma 90.000000
_cell_volume 2011.529575
_symmetry_space_group_name_H-M "P 43 21 2"
_symmetry_group_IT_number 96
_symmetry_cell_setting 'tetragonal'
loop_
_space_group_symop_operation_xyz
x,y,z
1/2-y,1/2+x,3/4+z
-x,-y,1/2+z
1/2+y,1/2-x,1/4+z
1/2+x,1/2-y,1/4-z
1/2-x,1/2+y,3/4-z
y,x,-z
-y,-x,1/2-z
loop_
_atom_site_type_symbol
_atom_site_label
_atom_site_fract_x
_atom_site_fract_y
_atom_site_fract_z
Si Si1 0.260726 0.058495 0.834327
Si Si2 0.354214 0.645787 0.250000
Si Si3 0.601942 0.897918 0.241626
Si Si4 0.756124 0.201097 0.843748
Si Si5 0.635079 0.429180 0.579956
Si Si6 0.073157 0.393558 0.834119
O O1 0.381192 0.035390 0.792220
O O2 0.193571 0.241047 0.828135
O O3 0.342127 0.019210 0.882177
O O4 0.109884 0.934979 0.831137
O O5 0.533850 0.713171 0.241269
O O6 0.302190 0.742750 0.294592
O O7 0.775779 0.901231 0.217450
O O8 0.482257 0.009154 0.211214
O O9 0.621106 0.237998 0.881038
O O10 0.913844 0.309320 0.855315
O O11 0.816025 0.018938 0.839323
#
# Coordination Sequence:
#
# PCOD9551012 Si02
#       6
#     8   4   8   8   8   8
#     4  11  25  44  74 100 150 185 242 298 359 435
#     4  10  24  40  66 102 138 178 232 296 342 430
#     4  11  25  42  71 101 143 184 240 293 359 427
#     4  10  23  41  70  99 142 180 242 286 356 429
#     4  11  24  43  71 103 135 191 235 294 359 427
#     4  10  24  44  66 107 140 190 232 298 362 426
#
# _framework density 21.873901
#
# number of rings (size 3 to 8) (size 9 to 14) (size 15 to 20)
#    0.000    1.455    0.000    3.818   15.273    0.000 
#    0.000    0.000    4.000    0.000    0.000    0.000 
#    0.000    0.000    0.000    0.000    0.000    0.000 
#
# Total GULP energy -245950.121106 kJ/mol
# GULP energy per Si atom -5589.775480 kJ/mol
# Density = 2.182411 g / cm^3
# Si number density = 21.873901 Si / 1000 Ang^3
#
#
#
# Elastic Constant Matrix: (Units=GPa)
#
#
# Indices 1 2 3 4 5 6 
#
# 1 111.6098 10.9044 12.1193 0.0000 0.0000 0.0000
# 2 10.9044 111.6098 12.1175 0.0000 0.0000 0.0000
# 3 12.1193 12.1175 76.2304 0.0000 0.0000 0.0000
# 4 0.0000 0.0000 0.0000 19.2549 0.0000 0.0000
# 5 0.0000 0.0000 0.0000 0.0000 19.2559 0.0000
# 6 0.0000 0.0000 0.0000 0.0000 0.0000 49.4259
#
#
#
# Elastic Compliance Matrix: (Units=1/GPa)
#
#
# Indices 1 2 3 4 5 6 
#
# 1 0.009179 -0.000751 -0.001340 0.000000 0.000000 0.000000
# 2 -0.000751 0.009179 -0.001340 0.000000 0.000000 0.000000
# 3 -0.001340 -0.001340 0.013544 0.000000 0.000000 0.000000
# 4 0.000000 0.000000 0.000000 0.051935 0.000000 0.000000
# 5 0.000000 0.000000 0.000000 0.000000 0.051932 0.000000
# 6 0.000000 0.000000 0.000000 0.000000 0.000000 0.020232
#
#
# Mechanical properties :
#
#
# Convention : Reuss Voigt Hill
#
# Bulk Modulus (GPa) = 39.93617 41.08139 40.50878
# Shear Modulus (GPa) = 29.20414 35.20793 32.20604
#
# Velocity S-wave (km/s) = 3.65788 4.01632 3.84128
# Velocity P-wave (km/s) = 6.01143 6.35055 6.18331
#
# Compressibility (1/GPa) = 0.02503996
#
# Stress axis : x y z
#
# Youngs Moduli (GPa) = 108.94814 108.94874 73.83300
#
# Poissons Ratio (x) = 0.08185 0.09892
# Poissons Ratio (y) = 0.08185 0.09891
# Poissons Ratio (z) = 0.14597 0.14595
#
# Static dielectric constant tensor:
#      x y z
#    x 1.830640 0.000000 0.000000 
#    y 0.000000 1.830640 0.000000 
#    z 0.000000 0.000000 1.812070 
# 
# From -- ./inp_files/4388.got.cif
#   From: 2010.05.17/outbox.cif.g08.bks.cpg/sg96_3_cif.got.tgz:4388.got - 2010.06.03 19:52:08.
