data_PCOD9551933
_publ_section_title
;
Structure prediction by ZEFSAII (Michael W. Deem and Ramdas Pophale) SiO2 
 PCOD9551933
Probable space group: I 41 2 2
;
_chemical_formula_sum "Si O2"
_cell_formula_units_Z 72
_cell_length_a 11.348771
_cell_length_b 11.348771
_cell_length_c 26.101501
_cell_angle_alpha 90.000000
_cell_angle_beta 90.000000
_cell_angle_gamma 90.000000
_cell_volume 3361.732464
_symmetry_space_group_name_H-M "I 41 2 2"
_symmetry_group_IT_number 98
_symmetry_cell_setting 'tetragonal'
loop_
_space_group_symop_operation_xyz
x,y,z
-y,1/2+x,1/4+z
-x,-y,z
y,1/2-x,1/4+z
x,1/2-y,1/4-z
-x,1/2+y,1/4-z
y,x,-z
-y,-x,-z
1/2+x,1/2+y,1/2+z
1/2-y,x,3/4+z
1/2-x,1/2-y,1/2+z
1/2+y,-x,3/4+z
1/2+x,-y,3/4-z
1/2-x,y,3/4-z
1/2+y,1/2+x,1/2-z
1/2-y,1/2-x,1/2-z
loop_
_atom_site_type_symbol
_atom_site_label
_atom_site_fract_x
_atom_site_fract_y
_atom_site_fract_z
Si Si1 0.050541 0.121514 0.729239
Si Si2 0.435698 0.678754 0.953905
Si Si3 0.019593 0.203943 0.979941
Si Si4 0.340473 0.716157 0.570613
Si Si5 0.500000 0.500000 0.131299
O O1 0.189537 0.108077 0.720749
O O2 0.013903 0.222636 0.767903
O O3 0.000000 0.000000 0.752630
O O4 0.998190 0.110827 0.671184
O O5 0.307964 0.733657 0.938212
O O6 0.492899 0.612452 0.905847
O O7 0.409703 0.590298 0.000000
O O8 0.923742 0.186501 0.934652
O O9 0.091700 0.091700 0.000000
O O10 0.932999 0.239704 0.025961
O O11 0.392219 0.750000 0.625000
#
# Coordination Sequence:
#
# PCOD9551933 Si02
#       5
#    16  16  16  16   8
#     4  10  22  48  66  96 145 182 234 302 365 428
#     4  12  23  41  71  99 138 185 249 291 364 443
#     4  11  23  46  68 101 144 182 229 305 362 429
#     4  11  21  40  69 102 130 185 232 287 357 442
#     4  10  25  42  70 112 130 194 252 299 372 446
#
# _framework density 21.417527
#
# number of rings (size 3 to 8) (size 9 to 14) (size 15 to 20)
#    0.667    0.444    4.444    3.000    3.111    1.778 
#   12.000    0.000    0.000    0.000    0.000    0.000 
#    0.000    0.000    0.000    0.000    0.000    0.000 
#
# Total GULP energy -200720.100818 kJ/mol
# GULP energy per Si atom -5575.558356 kJ/mol
# Density = 2.136878 g / cm^3
# Si number density = 21.417527 Si / 1000 Ang^3
#
#
#
# Elastic Constant Matrix: (Units=GPa)
#
#
# Indices 1 2 3 4 5 6 
#
# 1 74.2211 65.9650 34.0475 0.0000 0.0000 0.0000
# 2 65.9650 74.2213 34.0480 0.0000 0.0000 0.0000
# 3 34.0475 34.0480 97.8943 0.0000 0.0000 0.0000
# 4 0.0000 0.0000 0.0000 27.7034 0.0000 0.0000
# 5 0.0000 0.0000 0.0000 0.0000 27.7043 0.0000
# 6 0.0000 0.0000 0.0000 0.0000 0.0000 38.2888
#
#
#
# Elastic Compliance Matrix: (Units=1/GPa)
#
#
# Indices 1 2 3 4 5 6 
#
# 1 0.064852 -0.056269 -0.002985 0.000000 0.000000 0.000000
# 2 -0.056269 0.064852 -0.002986 0.000000 0.000000 0.000000
# 3 -0.002985 -0.002986 0.012292 0.000000 0.000000 0.000000
# 4 0.000000 0.000000 0.000000 0.036097 0.000000 0.000000
# 5 0.000000 0.000000 0.000000 0.000000 0.036096 0.000000
# 6 0.000000 0.000000 0.000000 0.000000 0.000000 0.026117
#
#
# Mechanical properties :
#
#
# Convention : Reuss Voigt Hill
#
# Bulk Modulus (GPa) = 57.08635 57.16195 57.12415
# Shear Modulus (GPa) = 13.49080 26.22438 19.85759
#
# Velocity S-wave (km/s) = 2.51249 3.50299 3.04824
# Velocity P-wave (km/s) = 5.92695 6.56571 6.25449
#
# Compressibility (1/GPa) = 0.01751732
#
# Stress axis : x y z
#
# Youngs Moduli (GPa) = 15.41972 15.41968 81.35556
#
# Poissons Ratio (x) = 0.86764 0.24285
# Poissons Ratio (y) = 0.86765 0.24290
# Poissons Ratio (z) = 0.04603 0.04604
#
# Static dielectric constant tensor:
#      x y z
#    x 1.925560 0.000000 0.000000 
#    y 0.000000 1.925560 0.000000 
#    z 0.000000 0.000000 1.801240 
# 
# From -- ./inp_files/10813.got.cif
#   From: 2010.05.17/outbox.cif.g08.bks.cpg/sg98_6_cif.got.tgz:10813.got - 2010.06.03 20:00:51.
