data_PCOD9551782
_publ_section_title
;
Structure prediction by ZEFSAII (Michael W. Deem and Ramdas Pophale) SiO2 
 PCOD9551782
Probable space group: I 41 2 2
;
_chemical_formula_sum "Si O2"
_cell_formula_units_Z 128
_cell_length_a 23.097117
_cell_length_b 23.097117
_cell_length_c 12.120054
_cell_angle_alpha 90.000000
_cell_angle_beta 90.000000
_cell_angle_gamma 90.000000
_cell_volume 6465.767790
_symmetry_space_group_name_H-M "I 41 2 2"
_symmetry_group_IT_number 98
_symmetry_cell_setting 'tetragonal'
loop_
_space_group_symop_operation_xyz
x,y,z
-y,1/2+x,1/4+z
-x,-y,z
y,1/2-x,1/4+z
x,1/2-y,1/4-z
-x,1/2+y,1/4-z
y,x,-z
-y,-x,-z
1/2+x,1/2+y,1/2+z
1/2-y,x,3/4+z
1/2-x,1/2-y,1/2+z
1/2+y,-x,3/4+z
1/2+x,-y,3/4-z
1/2-x,y,3/4-z
1/2+y,1/2+x,1/2-z
1/2-y,1/2-x,1/2-z
loop_
_atom_site_type_symbol
_atom_site_label
_atom_site_fract_x
_atom_site_fract_y
_atom_site_fract_z
Si Si1 0.579889 0.671495 0.469509
Si Si2 0.927200 0.876674 0.731253
Si Si3 0.303257 0.028130 0.290075
Si Si4 0.154152 0.588549 0.674332
Si Si5 0.037820 0.953855 0.696361
Si Si6 0.403304 0.524062 0.417271
Si Si7 0.070620 0.803990 0.200030
Si Si8 0.301987 0.438510 0.210097
O O1 0.638058 0.638058 0.500000
O O2 0.571715 0.664174 0.338373
O O3 0.527670 0.634592 0.528734
O O4 0.583475 0.739014 0.500176
O O5 0.933780 0.847390 0.611961
O O6 0.864025 0.908375 0.735054
O O7 0.990288 0.908186 0.736771
O O8 0.250000 0.021143 0.375000
O O9 0.295251 0.058459 0.172154
O O10 0.324529 0.964703 0.249675
O O11 0.143249 0.643249 0.750000
O O12 0.091726 0.570236 0.621664
O O13 0.192479 0.601692 0.567258
O O14 0.064045 0.987946 0.802165
O O15 0.000000 0.000000 0.629247
O O16 0.450476 0.549525 0.500000
O O17 0.359858 0.574782 0.378064
O O18 0.083511 0.750000 0.125000
O O19 0.003274 0.804386 0.239734
#
# Coordination Sequence:
#
# PCOD9551782 Si02
#       8
#    16  16  16  16  16  16  16  16
#     4  12  24  39  62  86 121 170 218 273 324 387
#     4  12  23  39  65  86 118 166 214 268 328 385
#     4  11  22  41  62  88 120 166 212 265 331 391
#     4  10  21  37  58  91 128 165 212 267 323 399
#     4  11  21  35  55  89 127 162 201 257 321 388
#     4  11  22  35  56  90 126 161 207 254 322 392
#     4  10  20  37  58  84 127 173 205 251 316 392
#     4  11  24  41  61  85 121 170 222 271 329 389
#
# _framework density 19.796565999999999
#
# number of rings (size 3 to 8) (size 9 to 14) (size 15 to 20)
#    0.000    1.000    5.000    4.125    0.000    0.250 
#    0.000    0.000    2.750    0.000    0.000    0.000 
#    0.000    4.000    0.000    0.000    0.000    0.000 
#
# Total GULP energy -356592.158642 kJ/mol
# GULP energy per Si atom -5571.752479 kJ/mol
# Density = 1.975151 g / cm^3
# Si number density = 19.796566 Si / 1000 Ang^3
#
#
#
# Elastic Constant Matrix: (Units=GPa)
#
#
# Indices 1 2 3 4 5 6 
#
# 1 73.8592 30.6694 36.6732 0.0000 0.0000 0.0000
# 2 30.6694 73.8606 36.6740 0.0000 0.0000 0.0000
# 3 36.6732 36.6740 144.5291 0.0000 0.0000 0.0000
# 4 0.0000 0.0000 0.0000 27.0574 0.0000 0.0000
# 5 0.0000 0.0000 0.0000 0.0000 27.0571 0.0000
# 6 0.0000 0.0000 0.0000 0.0000 0.0000 14.2747
#
#
#
# Elastic Compliance Matrix: (Units=1/GPa)
#
#
# Indices 1 2 3 4 5 6 
#
# 1 0.017396 -0.005757 -0.002953 0.000000 0.000000 0.000000
# 2 -0.005757 0.017396 -0.002953 0.000000 0.000000 0.000000
# 3 -0.002953 -0.002953 0.008418 0.000000 0.000000 0.000000
# 4 0.000000 0.000000 0.000000 0.036958 0.000000 0.000000
# 5 0.000000 0.000000 0.000000 0.000000 0.036959 0.000000
# 6 0.000000 0.000000 0.000000 0.000000 0.000000 0.070054
#
#
# Mechanical properties :
#
#
# Convention : Reuss Voigt Hill
#
# Bulk Modulus (GPa) = 50.29555 55.58691 52.94123
# Shear Modulus (GPa) = 23.02697 26.22665 24.62681
#
# Velocity S-wave (km/s) = 3.41424 3.64374 3.53086
# Velocity P-wave (km/s) = 6.40344 6.77071 6.58963
#
# Compressibility (1/GPa) = 0.01988248
#
# Stress axis : x y z
#
# Youngs Moduli (GPa) = 57.48359 57.48443 118.79561
#
# Poissons Ratio (x) = 0.33094 0.35084
# Poissons Ratio (y) = 0.33094 0.35085
# Poissons Ratio (z) = 0.16977 0.16977
#
# Static dielectric constant tensor:
#      x y z
#    x 1.745030 0.000000 0.000000 
#    y 0.000000 1.745030 0.000000 
#    z 0.000000 0.000000 1.743380 
# 
# From -- ./inp_files/5525.got.cif
#   From: 2010.05.17/outbox.cif.g08.bks.cpg/sg98_3_cif.got.tgz:5525.got - 2010.06.03 20:00:51.
