data_PCOD9551626
_publ_section_title
;
Structure prediction by ZEFSAII (Michael W. Deem and Ramdas Pophale) SiO2 
 PCOD9551626
Probable space group: I 4 2 2 
;
_chemical_formula_sum "Si O2"
_cell_formula_units_Z 54
_cell_length_a 15.000000
_cell_length_b 15.000000
_cell_length_c 24.000000
_cell_angle_alpha 90.000000
_cell_angle_beta 90.000000
_cell_angle_gamma 90.000000
_cell_volume 5400.000000
_symmetry_space_group_name_H-M "I 4 2 2 "
_symmetry_group_IT_number 97
_symmetry_cell_setting 'tetragonal'
loop_
_space_group_symop_operation_xyz
x,y,z
-y,x,z
-x,-y,z
y,-x,z
x,-y,-z
-x,y,-z
y,x,-z
-y,-x,-z
1/2+x,1/2+y,1/2+z
1/2-y,1/2+x,1/2+z
1/2-x,1/2-y,1/2+z
1/2+y,1/2-x,1/2+z
1/2+x,1/2-y,1/2-z
1/2-x,1/2+y,1/2-z
1/2+y,1/2+x,1/2-z
1/2-y,1/2-x,1/2-z
loop_
_atom_site_type_symbol
_atom_site_label
_atom_site_fract_x
_atom_site_fract_y
_atom_site_fract_z
Si Si1 0.500000 0.500000 0.901589
Si Si2 0.222838 0.710710 0.387379
Si Si3 0.149050 0.012058 0.757865
Si Si4 0.320207 0.581084 0.868738
Si Si5 0.837090 0.439934 0.299830
Si Si6 0.895711 0.105430 0.067640
Si Si7 0.535229 0.179777 0.937363
Si Si8 0.500000 0.000000 0.629743
O O1 0.416627 0.572156 0.898072
O O2 0.214483 0.815254 0.368675
O O3 0.195542 0.642733 0.338019
O O4 0.319257 0.672618 0.408759
O O5 0.141731 0.697546 0.431913
O O6 0.165402 0.036016 0.692412
O O7 0.078840 0.092607 0.771638
O O8 0.248276 0.995968 0.782669
O O9 0.250176 0.520793 0.901463
O O10 0.892163 0.392163 0.250000
O O11 0.910425 0.499698 0.332390
O O12 0.000849 0.123451 0.083471
O O13 0.891284 0.108717 0.000000
O O14 0.512282 0.085471 0.909187
O O15 0.500000 0.182856 0.000000
#
# Coordination Sequence:
#
# PCOD9551626 Si02
#       8
#     4  16  16  16  16  16  16   8
#     4  12  20  44  73  88 136 188 224 280 357 400
#     4  11  25  42  66 105 137 177 233 290 350 421
#     4  11  21  40  69  99 133 176 225 278 345 412
#     4  12  22  42  70  95 136 183 226 283 348 416
#     4  11  24  42  66  95 136 175 226 283 344 423
#     4   9  21  45  73  99 136 183 228 285 357 421
#     4  11  25  42  64  94 131 175 231 289 342 416
#     4  10  24  48  62  86 132 180 222 282 360 418
#
# _framework density 10.0
#
# number of rings (size 3 to 8) (size 9 to 14) (size 15 to 20)
#    0.000    1.185    2.963    3.556    2.074    4.741 
#    5.333    4.815    0.000    0.000    0.000    0.000 
#    0.000    0.000    0.000    0.000    0.000    0.000 
#
# Total GULP energy -301015.065492 kJ/mol
# GULP energy per Si atom -5574.353065 kJ/mol
# Density = 0.997724 g / cm^3
# Si number density = 10.000000 Si / 1000 Ang^3
#
#
#
# Elastic Constant Matrix: (Units=GPa)
#
#
# Indices 1 2 3 4 5 6 
#
# 1 111.1046 18.6097 -30.4693 0.0000 0.0000 0.0000
# 2 18.6097 111.1046 -30.4693 0.0000 0.0000 0.0000
# 3 -30.4693 -30.4693 -20.7814 0.0000 0.0000 0.0000
# 4 0.0000 0.0000 0.0000 31.9459 0.0000 0.0000
# 5 0.0000 0.0000 0.0000 0.0000 31.9460 0.0000
# 6 0.0000 0.0000 0.0000 0.0000 0.0000 49.3335
#
#
#
# Elastic Compliance Matrix: (Units=1/GPa)
#
#
# Indices 1 2 3 4 5 6 
#
# 1 0.007688 -0.003123 -0.006693 0.000000 0.000000 0.000000
# 2 -0.003123 0.007688 -0.006693 0.000000 0.000000 0.000000
# 3 -0.006693 -0.006693 -0.028494 0.000000 0.000000 0.000000
# 4 0.000000 0.000000 0.000000 0.031303 0.000000 0.000000
# 5 0.000000 0.000000 0.000000 0.000000 0.031303 0.000000
# 6 0.000000 0.000000 0.000000 0.000000 0.000000 0.020270
#
#
# Mechanical properties :
#
#
# Convention : Reuss Voigt Hill
#
# Bulk Modulus (GPa) = -21.67511 12.97445 -4.35033
# Shear Modulus (GPa) = 57.20914 38.89553 48.05234
#
# Velocity S-wave (km/s) = 5.35413 4.41475 4.90697
# Velocity P-wave (km/s) = 5.23079 5.69982 5.47033
#
# Compressibility (1/GPa) = -0.04613588
#
# Stress axis : x y z
#
# Youngs Moduli (GPa) = 130.07005 130.06994 -35.09556
#
# Poissons Ratio (x) = 0.40624 -0.23490
# Poissons Ratio (y) = 0.40624 -0.23490
# Poissons Ratio (z) = 0.87056 0.87056
#
# Static dielectric constant tensor:
#      x y z
#    x 1.714970 0.000000 0.000000 
#    y 0.000000 1.714970 0.000000 
#    z 0.000000 0.000000 1.748430 
# 
# From -- ./inp_files/7295.got.cif
#   From: 2010.05.17/outbox.ucp.g08.bks.cvg/sg97_4_cif.got.tgz:7295.got - 2010.06.11 10:37:40.
