data_PCOD9551900
_publ_section_title
;
Structure prediction by ZEFSAII (Michael W. Deem and Ramdas Pophale) SiO2 
 PCOD9551900
Probable space group: I 41 2 2
;
_chemical_formula_sum "Si O2"
_cell_formula_units_Z 88
_cell_length_a 11.611886
_cell_length_b 11.611886
_cell_length_c 29.445443
_cell_angle_alpha 90.000000
_cell_angle_beta 90.000000
_cell_angle_gamma 90.000000
_cell_volume 3970.302704
_symmetry_space_group_name_H-M "I 41 2 2"
_symmetry_group_IT_number 98
_symmetry_cell_setting 'tetragonal'
loop_
_space_group_symop_operation_xyz
x,y,z
-y,1/2+x,1/4+z
-x,-y,z
y,1/2-x,1/4+z
x,1/2-y,1/4-z
-x,1/2+y,1/4-z
y,x,-z
-y,-x,-z
1/2+x,1/2+y,1/2+z
1/2-y,x,3/4+z
1/2-x,1/2-y,1/2+z
1/2+y,-x,3/4+z
1/2+x,-y,3/4-z
1/2-x,y,3/4-z
1/2+y,1/2+x,1/2-z
1/2-y,1/2-x,1/2-z
loop_
_atom_site_type_symbol
_atom_site_label
_atom_site_fract_x
_atom_site_fract_y
_atom_site_fract_z
Si Si1 0.820710 0.080156 0.420690
Si Si2 0.602603 0.763271 0.821548
Si Si3 0.263880 0.646096 0.546394
Si Si4 0.670113 0.571470 0.078555
Si Si5 0.493214 0.626562 0.603430
Si Si6 0.205520 0.294481 0.750000
O O1 0.750000 0.064215 0.375000
O O2 0.737176 0.160332 0.450175
O O3 0.937215 0.151129 0.413291
O O4 0.867112 0.952978 0.432138
O O5 0.482238 0.716777 0.802471
O O6 0.615075 0.727951 0.874714
O O7 0.605528 0.902575 0.817999
O O8 0.700763 0.716646 0.789409
O O9 0.330204 0.669797 0.500000
O O10 0.364873 0.648880 0.584626
O O11 0.729490 0.591470 0.030016
O O12 0.500000 0.500000 0.628831
O O13 0.525070 0.750000 0.625000
#
# Coordination Sequence:
#
# PCOD9551900 Si02
#       6
#    16  16  16  16  16   8
#     4  11  23  46  70  97 142 185 240 292 359 428
#     4  11  23  46  70 102 145 192 233 297 368 438
#     4  11  24  41  71 105 140 185 242 295 358 437
#     4  11  26  43  71 103 137 194 236 299 361 427
#     4  10  22  40  69 102 139 186 240 295 365 434
#     4  12  24  41  69 100 146 180 248 290 360 431
#
# _framework density 22.164556000000001
#
# number of rings (size 3 to 8) (size 9 to 14) (size 15 to 20)
#    0.000    1.091    1.818    4.364    5.091    3.273 
#    0.000    0.000    4.000    0.000    0.000    0.000 
#    0.000    0.000    0.000    0.000    0.000    0.000 
#
# Total GULP energy -245260.331249 kJ/mol
# GULP energy per Si atom -5574.098437 kJ/mol
# Density = 2.211411 g / cm^3
# Si number density = 22.164556 Si / 1000 Ang^3
#
#
#
# Elastic Constant Matrix: (Units=GPa)
#
#
# Indices 1 2 3 4 5 6 
#
# 1 93.4747 17.2243 -4.7231 0.0000 0.0000 0.0000
# 2 17.2243 93.4771 -4.7217 0.0000 0.0000 0.0000
# 3 -4.7231 -4.7217 55.8620 0.0000 0.0000 0.0000
# 4 0.0000 0.0000 0.0000 9.7626 0.0000 0.0000
# 5 0.0000 0.0000 0.0000 0.0000 9.7648 0.0000
# 6 0.0000 0.0000 0.0000 0.0000 0.0000 37.6529
#
#
#
# Elastic Compliance Matrix: (Units=1/GPa)
#
#
# Indices 1 2 3 4 5 6 
#
# 1 0.011107 -0.002008 0.000769 0.000000 0.000000 0.000000
# 2 -0.002008 0.011107 0.000769 0.000000 0.000000 0.000000
# 3 0.000769 0.000769 0.018031 0.000000 0.000000 0.000000
# 4 0.000000 0.000000 0.000000 0.102431 0.000000 0.000000
# 5 0.000000 0.000000 0.000000 0.000000 0.102408 0.000000
# 6 0.000000 0.000000 0.000000 0.000000 0.000000 0.026558
#
#
# Mechanical properties :
#
#
# Convention : Reuss Voigt Hill
#
# Bulk Modulus (GPa) = 25.44129 28.70809 27.07469
# Shear Modulus (GPa) = 17.50188 27.10503 22.30345
#
# Velocity S-wave (km/s) = 2.81309 3.50079 3.17561
# Velocity P-wave (km/s) = 4.69623 5.41490 5.06832
#
# Compressibility (1/GPa) = 0.03930618
#
# Stress axis : x y z
#
# Youngs Moduli (GPa) = 90.03405 90.03658 55.45912
#
# Poissons Ratio (x) = 0.18077 -0.04267
# Poissons Ratio (y) = 0.18076 -0.04265
# Poissons Ratio (z) = -0.06927 -0.06924
#
# Static dielectric constant tensor:
#      x y z
#    x 1.810200 0.000000 0.000000 
#    y 0.000000 1.810190 0.000000 
#    z 0.000000 0.000000 1.817510 
# 
# From -- ./inp_files/11952.got.cif
#   From: 2010.05.17/outbox.cif.g08.bks.cpg/sg98_6_cif.got.tgz:11952.got - 2010.06.03 20:00:51.
