data_PCOD9551518
_publ_section_title
;
Structure prediction by ZEFSAII (Michael W. Deem and Ramdas Pophale) SiO2 
 PCOD9551518
Probable space group: I 4 2 2 
;
_chemical_formula_sum "Si O2"
_cell_formula_units_Z 108
_cell_length_a 14.402528
_cell_length_b 14.402528
_cell_length_c 25.153721
_cell_angle_alpha 90.000000
_cell_angle_beta 90.000000
_cell_angle_gamma 90.000000
_cell_volume 5217.707099
_symmetry_space_group_name_H-M "I 4 2 2 "
_symmetry_group_IT_number 97
_symmetry_cell_setting 'tetragonal'
loop_
_space_group_symop_operation_xyz
x,y,z
-y,x,z
-x,-y,z
y,-x,z
x,-y,-z
-x,y,-z
y,x,-z
-y,-x,-z
1/2+x,1/2+y,1/2+z
1/2-y,1/2+x,1/2+z
1/2-x,1/2-y,1/2+z
1/2+y,1/2-x,1/2+z
1/2+x,1/2-y,1/2-z
1/2-x,1/2+y,1/2-z
1/2+y,1/2+x,1/2-z
1/2-y,1/2-x,1/2-z
loop_
_atom_site_type_symbol
_atom_site_label
_atom_site_fract_x
_atom_site_fract_y
_atom_site_fract_z
Si Si1 0.889677 0.103036 0.911408
Si Si2 0.054022 0.341690 0.793102
Si Si3 0.604796 0.104383 0.480282
Si Si4 0.216247 0.783753 0.000000
Si Si5 0.500000 0.500000 0.194425
Si Si6 0.056321 0.210436 0.280987
Si Si7 0.630020 0.119106 0.355087
Si Si8 0.191324 0.183914 0.187217
O O1 0.827141 0.167415 0.948013
O O2 0.870539 0.114656 0.848742
O O3 0.995729 0.126919 0.924169
O O4 0.084150 0.415851 0.750000
O O5 0.146348 0.296237 0.817973
O O6 0.011116 0.251429 0.764133
O O7 0.972172 0.381556 0.828921
O O8 0.500000 0.132162 0.500000
O O9 0.682958 0.177305 0.499188
O O10 0.613642 0.102408 0.416658
O O11 0.620226 0.000000 0.500000
O O12 0.524454 0.387584 0.197103
O O13 0.058188 0.292749 0.324706
O O14 0.152263 0.197062 0.247085
O O15 0.672431 0.220250 0.342995
#
# Coordination Sequence:
#
# PCOD9551518 Si02
#       8
#    16  16  16   8   4  16  16  16
#     4  11  22  34  62 102 143 178 221 278 355 444
#     4  11  23  39  69 102 144 190 232 290 362 440
#     4  11  27  50  76 105 140 186 247 310 368 444
#     4  12  24  45  72  95 138 180 238 298 370 428
#     4  12  24  44  68  96 133 197 236 292 348 432
#     4  11  24  42  67  97 144 187 242 286 347 439
#     4  11  25  46  68 101 144 184 244 306 361 439
#     4  11  21  38  64 103 147 193 226 285 351 438
#
# _framework density 20.698747000000001
#
# number of rings (size 3 to 8) (size 9 to 14) (size 15 to 20)
#    0.000    0.889    2.963    5.778    2.074    4.148 
#    2.667    0.000    0.000    0.222    0.000    0.000 
#    0.000    0.000    0.000    0.000    0.000    0.000 
#
# Total GULP energy -301092.306301 kJ/mol
# GULP energy per Si atom -5575.783450 kJ/mol
# Density = 2.065164 g / cm^3
# Si number density = 20.698747 Si / 1000 Ang^3
#
#
#
# Elastic Constant Matrix: (Units=GPa)
#
#
# Indices 1 2 3 4 5 6 
#
# 1 148.2979 2.4733 41.7393 0.0000 0.0000 0.0000
# 2 2.4733 148.2974 41.7385 0.0000 0.0000 0.0000
# 3 41.7393 41.7385 103.2246 0.0000 0.0000 0.0000
# 4 0.0000 0.0000 0.0000 22.4493 0.0000 0.0000
# 5 0.0000 0.0000 0.0000 0.0000 22.4497 0.0000
# 6 0.0000 0.0000 0.0000 0.0000 0.0000 39.8991
#
#
#
# Elastic Compliance Matrix: (Units=1/GPa)
#
#
# Indices 1 2 3 4 5 6 
#
# 1 0.007702 0.000844 -0.003456 0.000000 0.000000 0.000000
# 2 0.000844 0.007702 -0.003455 0.000000 0.000000 0.000000
# 3 -0.003456 -0.003455 0.012482 0.000000 0.000000 0.000000
# 4 0.000000 0.000000 0.000000 0.044545 0.000000 0.000000
# 5 0.000000 0.000000 0.000000 0.000000 0.044544 0.000000
# 6 0.000000 0.000000 0.000000 0.000000 0.000000 0.025063
#
#
# Mechanical properties :
#
#
# Convention : Reuss Voigt Hill
#
# Bulk Modulus (GPa) = 63.48529 63.52468 63.50498
# Shear Modulus (GPa) = 31.36335 37.88420 34.62377
#
# Velocity S-wave (km/s) = 3.89682 4.28280 4.09436
# Velocity P-wave (km/s) = 7.14035 7.43056 7.28690
#
# Compressibility (1/GPa) = 0.01575168
#
# Stress axis : x y z
#
# Youngs Moduli (GPa) = 129.84166 129.84185 80.11481
#
# Poissons Ratio (x) = -0.10960 0.27684
# Poissons Ratio (y) = -0.10960 0.27683
# Poissons Ratio (z) = 0.44867 0.44866
#
# Static dielectric constant tensor:
#      x y z
#    x 1.796980 0.000000 0.000000 
#    y 0.000000 1.796980 0.000000 
#    z 0.000000 0.000000 1.786380 
# 
# From -- ./inp_files/7293.got.cif
#   From: 2010.05.17/outbox.cif.g08.bks.cpg/sg97_4_cif.got.tgz:7293.got - 2010.06.03 19:55:32.
