data_PCOD9551725
_publ_section_title
;
Structure prediction by ZEFSAII (Michael W. Deem and Ramdas Pophale) SiO2 
 PCOD9551725
Probable space group: I 41 2 2
;
_chemical_formula_sum "Si O2"
_cell_formula_units_Z 72
_cell_length_a 15.104802
_cell_length_b 15.104802
_cell_length_c 17.362240
_cell_angle_alpha 90.000000
_cell_angle_beta 90.000000
_cell_angle_gamma 90.000000
_cell_volume 3961.282622
_symmetry_space_group_name_H-M "I 41 2 2"
_symmetry_group_IT_number 98
_symmetry_cell_setting 'tetragonal'
loop_
_space_group_symop_operation_xyz
x,y,z
-y,1/2+x,1/4+z
-x,-y,z
y,1/2-x,1/4+z
x,1/2-y,1/4-z
-x,1/2+y,1/4-z
y,x,-z
-y,-x,-z
1/2+x,1/2+y,1/2+z
1/2-y,x,3/4+z
1/2-x,1/2-y,1/2+z
1/2+y,-x,3/4+z
1/2+x,-y,3/4-z
1/2-x,y,3/4-z
1/2+y,1/2+x,1/2-z
1/2-y,1/2-x,1/2-z
loop_
_atom_site_type_symbol
_atom_site_label
_atom_site_fract_x
_atom_site_fract_y
_atom_site_fract_z
Si Si1 0.601964 0.769240 0.979270
Si Si2 0.639941 0.047454 0.177504
Si Si3 0.767218 0.750000 0.625000
Si Si4 0.954750 0.085024 0.732252
Si Si5 0.816797 0.203787 0.810440
O O1 0.547031 0.681353 0.952664
O O2 0.665198 0.788624 0.905182
O O3 0.667531 0.764667 0.052458
O O4 0.527379 0.837650 0.008522
O O5 0.587419 0.087419 0.250000
O O6 0.577606 0.056128 0.103006
O O7 0.724521 0.110808 0.161019
O O8 0.868624 0.123202 0.773228
O O9 0.000000 0.000000 0.769442
O O10 0.750000 0.173271 0.875000
O O11 0.758520 0.258520 0.750000
#
# Coordination Sequence:
#
# PCOD9551725 Si02
#       5
#    16  16   8  16  16
#     4  10  21  36  59  84 121 167 210 248 314 379
#     4  10  20  32  58  93 127 154 191 253 318 382
#     4  10  20  38  56  80 118 174 210 238 296 394
#     4  11  22  36  56  89 125 151 205 264 310 362
#     4  10  19  36  60  85 115 164 204 244 312 379
#
# _framework density 18.175930000000001
#
# number of rings (size 3 to 8) (size 9 to 14) (size 15 to 20)
#    0.000    1.778    2.222    2.667    0.000    2.222 
#    2.000    0.000    0.000    0.667    0.000    0.000 
#    0.000    0.000    0.000    0.000    0.000    0.000 
#
# Total GULP energy -200447.768617 kJ/mol
# GULP energy per Si atom -5567.993573 kJ/mol
# Density = 1.813456 g / cm^3
# Si number density = 18.175930 Si / 1000 Ang^3
#
#
#
# Elastic Constant Matrix: (Units=GPa)
#
#
# Indices 1 2 3 4 5 6 
#
# 1 67.4920 26.7243 40.9411 0.0000 0.0000 0.0000
# 2 26.7243 67.4920 40.9411 0.0000 0.0000 0.0000
# 3 40.9411 40.9411 86.8948 0.0000 0.0000 0.0000
# 4 0.0000 0.0000 0.0000 23.4093 0.0000 0.0000
# 5 0.0000 0.0000 0.0000 0.0000 23.4093 0.0000
# 6 0.0000 0.0000 0.0000 0.0000 0.0000 39.6223
#
#
#
# Elastic Compliance Matrix: (Units=1/GPa)
#
#
# Indices 1 2 3 4 5 6 
#
# 1 0.021251 -0.003278 -0.008468 0.000000 0.000000 0.000000
# 2 -0.003278 0.021251 -0.008468 0.000000 0.000000 0.000000
# 3 -0.008468 -0.008468 0.019488 0.000000 0.000000 0.000000
# 4 0.000000 0.000000 0.000000 0.042718 0.000000 0.000000
# 5 0.000000 0.000000 0.000000 0.000000 0.042718 0.000000
# 6 0.000000 0.000000 0.000000 0.000000 0.000000 0.025238
#
#
# Mechanical properties :
#
#
# Convention : Reuss Voigt Hill
#
# Bulk Modulus (GPa) = 46.37845 48.78797 47.58321
# Shear Modulus (GPa) = 22.69820 24.83968 23.76894
#
# Velocity S-wave (km/s) = 3.53768 3.70080 3.62016
# Velocity P-wave (km/s) = 6.50067 6.72024 6.61136
#
# Compressibility (1/GPa) = 0.02156174
#
# Stress axis : x y z
#
# Youngs Moduli (GPa) = 47.05566 47.05566 51.31341
#
# Poissons Ratio (x) = 0.15424 0.43454
# Poissons Ratio (y) = 0.15424 0.43454
# Poissons Ratio (z) = 0.39849 0.39849
#
# Static dielectric constant tensor:
#      x y z
#    x 1.695290 0.000000 0.000000 
#    y 0.000000 1.695290 0.000000 
#    z 0.000000 0.000000 0.979840 
# 
# From -- ./inp_files/7499.got.cif
#   From: 2010.05.17/outbox.cif.g08.bks.cpg/sg98_4_cif.got.tgz:7499.got - 2010.06.03 20:00:51.
