data_PCOD9551199
_publ_section_title
;
Structure prediction by ZEFSAII (Michael W. Deem and Ramdas Pophale) SiO2 
 PCOD9551199
Probable space group: I 4 2 2 
;
_chemical_formula_sum "Si O2"
_cell_formula_units_Z 72
_cell_length_a 15.257879
_cell_length_b 15.257879
_cell_length_c 18.562688
_cell_angle_alpha 90.000000
_cell_angle_beta 90.000000
_cell_angle_gamma 90.000000
_cell_volume 4321.447071
_symmetry_space_group_name_H-M "I 4 2 2 "
_symmetry_group_IT_number 97
_symmetry_cell_setting 'tetragonal'
loop_
_space_group_symop_operation_xyz
x,y,z
-y,x,z
-x,-y,z
y,-x,z
x,-y,-z
-x,y,-z
y,x,-z
-y,-x,-z
1/2+x,1/2+y,1/2+z
1/2-y,1/2+x,1/2+z
1/2-x,1/2-y,1/2+z
1/2+y,1/2-x,1/2+z
1/2+x,1/2-y,1/2-z
1/2-x,1/2+y,1/2-z
1/2+y,1/2+x,1/2-z
1/2-y,1/2-x,1/2-z
loop_
_atom_site_type_symbol
_atom_site_label
_atom_site_fract_x
_atom_site_fract_y
_atom_site_fract_z
Si Si1 0.500000 0.145800 0.500000
Si Si2 0.000000 0.781696 0.500000
Si Si3 0.000000 0.500000 0.378144
Si Si4 0.585662 0.828004 0.817455
Si Si5 0.811765 0.326174 0.971572
Si Si6 0.142976 0.015667 0.657421
O O1 0.589146 0.197567 0.490072
O O2 0.488296 0.082783 0.430953
O O3 0.083566 0.718989 0.490169
O O4 0.014900 0.838856 0.571128
O O5 0.977514 0.588890 0.335054
O O6 0.643824 0.856177 0.750000
O O7 0.647220 0.810020 0.887293
O O8 0.531957 0.737857 0.807451
O O9 0.746080 0.253921 0.000000
O O10 0.075195 0.093954 0.674806
#
# Coordination Sequence:
#
# PCOD9551199 Si02
#       6
#     8   8   8  16  16  16
#     4   9  16  30  50  73  96 124 166 215 262 301
#     4  10  16  26  50  80 106 128 154 196 260 328
#     4   9  17  30  52  74  97 129 166 214 263 307
#     4  10  20  34  49  73 106 138 176 216 258 312
#     4  10  19  31  50  74 101 131 169 214 254 303
#     4  10  19  31  49  74 106 138 166 202 254 318
#
# _framework density 16.661085
#
# number of rings (size 3 to 8) (size 9 to 14) (size 15 to 20)
#    0.000    2.222    0.000    7.667    0.000    0.889 
#    0.000    6.667    0.000    0.333    0.000    0.000 
#    0.000    0.000    0.000    0.000    0.000    0.000 
#
# Total GULP energy -200627.458796 kJ/mol
# GULP energy per Si atom -5572.984967 kJ/mol
# Density = 1.662316 g / cm^3
# Si number density = 16.661085 Si / 1000 Ang^3
#
#
#
# Elastic Constant Matrix: (Units=GPa)
#
#
# Indices 1 2 3 4 5 6 
#
# 1 127.7905 71.0136 35.0677 0.0000 0.0000 0.0000
# 2 71.0136 127.7905 35.0666 0.0000 0.0000 0.0000
# 3 35.0677 35.0666 43.3324 0.0000 0.0000 0.0000
# 4 0.0000 0.0000 0.0000 -10.8461 0.0000 0.0000
# 5 0.0000 0.0000 0.0000 0.0000 -10.7629 0.0000
# 6 0.0000 0.0000 0.0000 0.0000 0.0000 9.3872
#
#
#
# Elastic Compliance Matrix: (Units=1/GPa)
#
#
# Indices 1 2 3 4 5 6 
#
# 1 0.012326 -0.005286 -0.005697 0.000000 0.000000 0.000000
# 2 -0.005286 0.012326 -0.005697 0.000000 0.000000 0.000000
# 3 -0.005697 -0.005697 0.032298 0.000000 0.000000 0.000000
# 4 0.000000 0.000000 0.000000 -0.092199 0.000000 0.000000
# 5 0.000000 0.000000 0.000000 0.000000 -0.092912 0.000000
# 6 0.000000 0.000000 0.000000 0.000000 0.000000 0.106529
#
#
# Mechanical properties :
#
#
# Convention : Reuss Voigt Hill
#
# Bulk Modulus (GPa) = 42.39147 64.57881 53.48514
# Shear Modulus (GPa) = 255.18524 8.07333 131.62928
#
# Velocity S-wave (km/s) = 12.38931 2.20366 8.89806
# Velocity P-wave (km/s) = 15.17098 6.73196 11.73622
#
# Compressibility (1/GPa) = 0.02358965
#
# Stress axis : x y z
#
# Youngs Moduli (GPa) = 81.12629 81.12779 30.96142
#
# Poissons Ratio (x) = 0.42888 0.17640
# Poissons Ratio (y) = 0.42887 0.17638
# Poissons Ratio (z) = 0.46221 0.46217
#
# Static dielectric constant tensor:
#      x y z
#    x 1.777680 0.000000 0.000000 
#    y 0.000000 1.776950 0.000000 
#    z 0.000000 0.000000 1.567580 
# 
# From -- ./inp_files/5640.got.cif
#   From: 2010.05.17/outbox.cif.g08.bks.cpg/sg97_3_cif.got.tgz:5640.got - 2010.06.03 19:55:32.
