data_PCOD9551245
_publ_section_title
;
Structure prediction by ZEFSAII (Michael W. Deem and Ramdas Pophale) SiO2 
 PCOD9551245
Probable space group: I 4 2 2 
;
_chemical_formula_sum "Si O2"
_cell_formula_units_Z 112
_cell_length_a 17.595025
_cell_length_b 17.595025
_cell_length_c 20.803096
_cell_angle_alpha 90.000000
_cell_angle_beta 90.000000
_cell_angle_gamma 90.000000
_cell_volume 6440.324494
_symmetry_space_group_name_H-M "I 4 2 2 "
_symmetry_group_IT_number 97
_symmetry_cell_setting 'tetragonal'
loop_
_space_group_symop_operation_xyz
x,y,z
-y,x,z
-x,-y,z
y,-x,z
x,-y,-z
-x,y,-z
y,x,-z
-y,-x,-z
1/2+x,1/2+y,1/2+z
1/2-y,1/2+x,1/2+z
1/2-x,1/2-y,1/2+z
1/2+y,1/2-x,1/2+z
1/2+x,1/2-y,1/2-z
1/2-x,1/2+y,1/2-z
1/2+y,1/2+x,1/2-z
1/2-y,1/2-x,1/2-z
loop_
_atom_site_type_symbol
_atom_site_label
_atom_site_fract_x
_atom_site_fract_y
_atom_site_fract_z
Si Si1 0.188444 0.591110 0.801892
Si Si2 0.693936 0.552545 0.564001
Si Si3 0.814600 0.183572 0.247295
Si Si4 0.182032 0.312844 0.573084
Si Si5 0.183101 0.306909 0.429306
Si Si6 0.911927 0.311039 0.297704
Si Si7 0.820738 0.901162 0.887648
O O1 0.134574 0.634574 0.750000
O O2 0.275055 0.616119 0.786418
O O3 0.176039 0.624362 0.873025
O O4 0.178005 0.501672 0.797623
O O5 0.697218 0.500000 0.500000
O O6 0.762228 0.613401 0.571641
O O7 0.690736 0.490326 0.620942
O O8 0.619637 0.604662 0.571933
O O9 0.750704 0.250704 0.250000
O O10 0.888016 0.226526 0.273666
O O11 0.824417 0.149288 0.176603
O O12 0.149850 0.305204 0.500894
O O13 0.232356 0.235933 0.582941
O O14 0.123842 0.320299 0.631284
O O15 0.247232 0.371666 0.425731
O O16 0.870387 0.370387 0.250000
#
# Coordination Sequence:
#
# PCOD9551245 Si02
#       7
#    16  16  16  16  16  16  16
#     4  11  22  37  64  89 116 155 192 242 293 353
#     4  11  21  34  54  81 114 158 192 236 289 343
#     4  10  19  37  59  83 109 147 200 241 280 336
#     4  10  21  36  59  86 114 147 195 247 286 344
#     4  10  18  37  60  84 110 146 197 238 285 346
#     4  11  23  39  60  90 118 150 195 248 296 344
#     4  11  21  33  53  80 114 153 197 235 281 344
#
# _framework density 17.390428
#
# number of rings (size 3 to 8) (size 9 to 14) (size 15 to 20)
#    0.000    1.429    5.714    3.000    4.000    1.143 
#    0.000    0.714    0.000    0.429    0.000    0.000 
#    0.000    2.286    0.000    0.000    0.000    0.000 
#
# Total GULP energy -312083.363763 kJ/mol
# GULP energy per Si atom -5572.917210 kJ/mol
# Density = 1.735085 g / cm^3
# Si number density = 17.390428 Si / 1000 Ang^3
#
#
#
# Elastic Constant Matrix: (Units=GPa)
#
#
# Indices 1 2 3 4 5 6 
#
# 1 75.9725 58.9485 53.7331 0.0000 0.0000 0.0000
# 2 58.9485 75.9725 53.7331 0.0000 0.0000 0.0000
# 3 53.7331 53.7331 143.8913 0.0000 0.0000 0.0000
# 4 0.0000 0.0000 0.0000 19.7892 0.0000 0.0000
# 5 0.0000 0.0000 0.0000 0.0000 19.7892 0.0000
# 6 0.0000 0.0000 0.0000 0.0000 0.0000 10.9304
#
#
#
# Elastic Compliance Matrix: (Units=1/GPa)
#
#
# Indices 1 2 3 4 5 6 
#
# 1 0.034645 -0.024096 -0.003940 0.000000 0.000000 0.000000
# 2 -0.024096 0.034645 -0.003940 0.000000 0.000000 0.000000
# 3 -0.003940 -0.003940 0.009892 0.000000 0.000000 0.000000
# 4 0.000000 0.000000 0.000000 0.050533 0.000000 0.000000
# 5 0.000000 0.000000 0.000000 0.000000 0.050533 0.000000
# 6 0.000000 0.000000 0.000000 0.000000 0.000000 0.091488
#
#
# Mechanical properties :
#
#
# Convention : Reuss Voigt Hill
#
# Bulk Modulus (GPa) = 65.64658 69.85176 67.74917
# Shear Modulus (GPa) = 14.67298 18.72986 16.70142
#
# Velocity S-wave (km/s) = 2.90787 3.28536 3.10236
# Velocity P-wave (km/s) = 7.00749 7.39226 7.20244
#
# Compressibility (1/GPa) = 0.01523309
#
# Stress axis : x y z
#
# Youngs Moduli (GPa) = 28.86404 28.86404 101.09219
#
# Poissons Ratio (x) = 0.69549 0.39826
# Poissons Ratio (y) = 0.69549 0.39826
# Poissons Ratio (z) = 0.11371 0.11371
#
# Static dielectric constant tensor:
#      x y z
#    x 1.594120 0.000000 0.000000 
#    y 0.000000 1.594120 0.000000 
#    z 0.000000 0.000000 1.682310 
# 
# From -- ./inp_files/6776.got.cif
#   From: 2010.05.17/outbox.cif.g08.bks.cpg/sg97_4_cif.got.tgz:6776.got - 2010.06.03 19:55:32.
