data_PCOD9551369
_publ_section_title
;
Structure prediction by ZEFSAII (Michael W. Deem and Ramdas Pophale) SiO2 
 PCOD9551369
Probable space group: I 4 2 2 
;
_chemical_formula_sum "Si O2"
_cell_formula_units_Z 80
_cell_length_a 21.052908
_cell_length_b 21.052908
_cell_length_c 8.544557
_cell_angle_alpha 90.000000
_cell_angle_beta 90.000000
_cell_angle_gamma 90.000000
_cell_volume 3787.160723
_symmetry_space_group_name_H-M "I 4 2 2 "
_symmetry_group_IT_number 97
_symmetry_cell_setting 'tetragonal'
loop_
_space_group_symop_operation_xyz
x,y,z
-y,x,z
-x,-y,z
y,-x,z
x,-y,-z
-x,y,-z
y,x,-z
-y,-x,-z
1/2+x,1/2+y,1/2+z
1/2-y,1/2+x,1/2+z
1/2-x,1/2-y,1/2+z
1/2+y,1/2-x,1/2+z
1/2+x,1/2-y,1/2-z
1/2-x,1/2+y,1/2-z
1/2+y,1/2+x,1/2-z
1/2-y,1/2-x,1/2-z
loop_
_atom_site_type_symbol
_atom_site_label
_atom_site_fract_x
_atom_site_fract_y
_atom_site_fract_z
Si Si1 0.148041 0.000000 0.000000
Si Si2 0.123953 0.249220 0.349373
Si Si3 0.834981 0.237243 0.307107
Si Si4 0.500000 0.713100 0.000000
Si Si5 0.270172 0.378212 0.482018
Si Si6 0.597898 0.534327 0.819706
O O1 0.191806 0.942410 0.059052
O O2 0.106978 0.032022 0.134888
O O3 0.162319 0.181862 0.326352
O O4 0.150819 0.267212 0.522317
O O5 0.049133 0.247917 0.388551
O O6 0.131935 0.274624 0.170431
O O7 0.769411 0.269411 0.250000
O O8 0.882187 0.253185 0.162781
O O9 0.543743 0.666502 0.105240
O O10 0.319626 0.319626 0.500000
O O11 0.538524 0.578163 0.858737
#
# Coordination Sequence:
#
# PCOD9551369 Si02
#       6
#     8  16  16   8  16  16
#     4  12  20  33  52  68 104 136 192 231 288 346
#     4  10  23  35  56  77 105 137 173 241 289 341
#     4  10  23  38  60  81 100 136 192 241 295 343
#     4  12  22  37  50  72 104 140 190 223 302 344
#     4  10  21  36  53  76 103 143 180 241 291 332
#     4  11  23  32  45  64  95 141 190 244 279 312
#
# _framework density 21.124005
#
# number of rings (size 3 to 8) (size 9 to 14) (size 15 to 20)
#    0.000    1.400    2.000    3.600   16.800    1.600 
#    0.000    0.000    0.000    0.000    0.000    0.000 
#    0.000    0.000    0.000    0.000    0.000   10.000 
#
# Total GULP energy -222809.522035 kJ/mol
# GULP energy per Si atom -5570.238051 kJ/mol
# Density = 2.107593 g / cm^3
# Si number density = 21.124005 Si / 1000 Ang^3
#
#
#
# Elastic Constant Matrix: (Units=GPa)
#
#
# Indices 1 2 3 4 5 6 
#
# 1 31.0156 12.5989 16.1476 0.0000 0.0000 0.0000
# 2 12.5989 31.0156 16.1476 0.0000 0.0000 0.0000
# 3 16.1476 16.1476 203.2861 0.0000 0.0000 0.0000
# 4 0.0000 0.0000 0.0000 34.2533 0.0000 0.0000
# 5 0.0000 0.0000 0.0000 0.0000 34.2533 0.0000
# 6 0.0000 0.0000 0.0000 0.0000 0.0000 12.2328
#
#
#
# Elastic Compliance Matrix: (Units=1/GPa)
#
#
# Indices 1 2 3 4 5 6 
#
# 1 0.039330 -0.014969 -0.001935 0.000000 0.000000 0.000000
# 2 -0.014969 0.039330 -0.001935 0.000000 0.000000 0.000000
# 3 -0.001935 -0.001935 0.005227 0.000000 0.000000 0.000000
# 4 0.000000 0.000000 0.000000 0.029194 0.000000 0.000000
# 5 0.000000 0.000000 0.000000 0.000000 0.029194 0.000000
# 6 0.000000 0.000000 0.000000 0.000000 0.000000 0.081748
#
#
# Mechanical properties :
#
#
# Convention : Reuss Voigt Hill
#
# Bulk Modulus (GPa) = 21.64115 39.45621 30.54868
# Shear Modulus (GPa) = 18.04383 30.84274 24.44329
#
# Velocity S-wave (km/s) = 2.92582 3.82524 3.40536
# Velocity P-wave (km/s) = 4.65628 6.18295 5.47311
#
# Compressibility (1/GPa) = 0.04620826
#
# Stress axis : x y z
#
# Youngs Moduli (GPa) = 25.42604 25.42604 191.32926
#
# Poissons Ratio (x) = 0.38060 0.37024
# Poissons Ratio (y) = 0.38060 0.37024
# Poissons Ratio (z) = 0.04920 0.04920
#
# Static dielectric constant tensor:
#      x y z
#    x 1.784950 0.000000 0.000000 
#    y 0.000000 1.784950 0.000000 
#    z 0.000000 0.000000 2.008110 
# 
# From -- ./inp_files/2390.got.cif
#   From: 2010.05.17/outbox.cif.g08.bks.cpg/sg97_2_cif.got.tgz:2390.got - 2010.06.03 19:55:32.
