data_PCOD9551677
_publ_section_title
;
Structure prediction by ZEFSAII (Michael W. Deem and Ramdas Pophale) SiO2 
 PCOD9551677
Probable space group: I 41 2 2
;
_chemical_formula_sum "Si O2"
_cell_formula_units_Z 48
_cell_length_a 10.613117
_cell_length_b 10.613117
_cell_length_c 17.785750
_cell_angle_alpha 90.000000
_cell_angle_beta 90.000000
_cell_angle_gamma 90.000000
_cell_volume 2003.355799
_symmetry_space_group_name_H-M "I 41 2 2"
_symmetry_group_IT_number 98
_symmetry_cell_setting 'tetragonal'
loop_
_space_group_symop_operation_xyz
x,y,z
-y,1/2+x,1/4+z
-x,-y,z
y,1/2-x,1/4+z
x,1/2-y,1/4-z
-x,1/2+y,1/4-z
y,x,-z
-y,-x,-z
1/2+x,1/2+y,1/2+z
1/2-y,x,3/4+z
1/2-x,1/2-y,1/2+z
1/2+y,-x,3/4+z
1/2+x,-y,3/4-z
1/2-x,y,3/4-z
1/2+y,1/2+x,1/2-z
1/2-y,1/2-x,1/2-z
loop_
_atom_site_type_symbol
_atom_site_label
_atom_site_fract_x
_atom_site_fract_y
_atom_site_fract_z
Si Si1 0.117959 0.595763 0.583472
Si Si2 0.776962 0.981615 0.520274
Si Si3 0.738175 0.928807 0.961539
O O1 0.198604 0.569738 0.658257
O O2 0.201105 0.543311 0.514549
O O3 0.000000 0.500000 0.591368
O O4 0.058073 0.723805 0.550678
O O5 0.901108 0.901108 0.500000
O O6 0.671808 0.876907 0.538630
O O7 0.750000 0.966855 0.875000
O O8 0.855179 0.855179 0.000000
#
# Coordination Sequence:
#
# PCOD9551677 Si02
#       3
#    16  16  16
#     4  10  22  40  71 107 139 189 241 292 361 425
#     4  10  22  41  73 105 142 185 240 299 358 427
#     4  10  18  35  69 108 145 191 235 283 357 433
#
# _framework density 23.959799
#
# number of rings (size 3 to 8) (size 9 to 14) (size 15 to 20)
#    0.000    2.000    3.333    0.000    0.000    0.667 
#    0.000    1.667   29.333    0.000    0.000    0.000 
#    0.000    0.000    0.000    0.000    0.000    0.000 
#
# Total GULP energy -134287.293454 kJ/mol
# GULP energy per Si atom -5595.303894 kJ/mol
# Density = 2.390527 g / cm^3
# Si number density = 23.959799 Si / 1000 Ang^3
#
#
#
# Elastic Constant Matrix: (Units=GPa)
#
#
# Indices 1 2 3 4 5 6 
#
# 1 49.9278 61.6360 54.5097 0.0000 0.0000 0.0000
# 2 61.6360 49.9278 54.5097 0.0000 0.0000 0.0000
# 3 54.5097 54.5097 264.9844 0.0000 0.0000 0.0000
# 4 0.0000 0.0000 0.0000 25.9198 0.0000 0.0000
# 5 0.0000 0.0000 0.0000 0.0000 25.9198 0.0000
# 6 0.0000 0.0000 0.0000 0.0000 0.0000 26.4836
#
#
#
# Elastic Compliance Matrix: (Units=1/GPa)
#
#
# Indices 1 2 3 4 5 6 
#
# 1 -0.037096 0.048314 -0.002308 0.000000 0.000000 0.000000
# 2 0.048314 -0.037096 -0.002308 0.000000 0.000000 0.000000
# 3 -0.002308 -0.002308 0.004723 0.000000 0.000000 0.000000
# 4 0.000000 0.000000 0.000000 0.038581 0.000000 0.000000
# 5 0.000000 0.000000 0.000000 0.000000 0.038581 0.000000
# 6 0.000000 0.000000 0.000000 0.000000 0.000000 0.037759
#
#
# Mechanical properties :
#
#
# Convention : Reuss Voigt Hill
#
# Bulk Modulus (GPa) = 55.77428 78.46120 67.11774
# Shear Modulus (GPa) = -139.00717 28.61030 -55.19844
#
# Velocity S-wave (km/s) = -7.62514 3.45932 -4.80499
# Velocity P-wave (km/s) = 7.36172 6.98384 1.64635
#
# Compressibility (1/GPa) = 0.01792941
#
# Stress axis : x y z
#
# Youngs Moduli (GPa) = -26.95725 -26.95725 211.71790
#
# Poissons Ratio (x) = 1.30242 0.48860
# Poissons Ratio (y) = 1.30242 0.48860
# Poissons Ratio (z) = -0.06221 -0.06221
#
# Static dielectric constant tensor:
#      x y z
#    x 1.930140 0.000000 0.000000 
#    y 0.000000 1.930140 0.000000 
#    z 0.000000 0.000000 1.933470 
# 
# From -- ./inp_files/7193.got.cif
#   From: 2010.05.17/outbox.cif.g08.bks.cpg/sg98_4_cif.got.tgz:7193.got - 2010.06.03 20:00:51.
