data_PCOD9551108
_publ_section_title
;
Structure prediction by ZEFSAII (Michael W. Deem and Ramdas Pophale) SiO2 
 PCOD9551108
Probable space group: P 43 21 2
;
_chemical_formula_sum "Si O2"
_cell_formula_units_Z 60
_cell_length_a 17.610964
_cell_length_b 17.610964
_cell_length_c 9.113279
_cell_angle_alpha 90.000000
_cell_angle_beta 90.000000
_cell_angle_gamma 90.000000
_cell_volume 2826.447512
_symmetry_space_group_name_H-M "P 43 21 2"
_symmetry_group_IT_number 96
_symmetry_cell_setting 'tetragonal'
loop_
_space_group_symop_operation_xyz
x,y,z
1/2-y,1/2+x,3/4+z
-x,-y,1/2+z
1/2+y,1/2-x,1/4+z
1/2+x,1/2-y,1/4-z
1/2-x,1/2+y,3/4-z
y,x,-z
-y,-x,1/2-z
loop_
_atom_site_type_symbol
_atom_site_label
_atom_site_fract_x
_atom_site_fract_y
_atom_site_fract_z
Si Si1 0.154002 0.683492 0.666710
Si Si2 0.578745 0.730227 0.342010
Si Si3 0.478877 0.579223 0.088717
Si Si4 0.586737 0.969784 0.673940
Si Si5 0.815968 0.103734 0.547383
Si Si6 0.682208 0.317792 0.250000
Si Si7 0.162573 0.029380 0.838863
Si Si8 0.250151 0.979889 0.301234
O O1 0.143212 0.725346 0.821930
O O2 0.101337 0.609778 0.660054
O O3 0.129124 0.742417 0.543833
O O4 0.242919 0.671285 0.653056
O O5 0.616252 0.657428 0.261184
O O6 0.516697 0.708289 0.464460
O O7 0.543039 0.777889 0.212251
O O8 0.456591 0.543410 0.250000
O O9 0.472309 0.671711 0.083541
O O10 0.556035 0.556035 0.000000
O O11 0.418873 0.541322 0.980147
O O12 0.532665 0.950215 0.814523
O O13 0.674059 0.991100 0.719884
O O14 0.837700 0.021096 0.484693
O O15 0.783399 0.091204 0.709156
O O16 0.611584 0.312394 0.139853
#
# Coordination Sequence:
#
# PCOD9551108 Si02
#       8
#     8   8   8   8   8   4   8   8
#     4  11  23  46  70 102 136 184 240 296 374 436
#     4  11  23  43  71 105 143 180 233 295 362 439
#     4  12  25  42  67 107 154 197 236 285 359 443
#     4  12  29  53  77 103 140 190 253 315 375 431
#     4  11  21  45  71 103 141 187 238 289 358 449
#     4  12  24  42  72 104 146 190 240 300 358 434
#     4  11  23  39  67 101 142 194 237 282 344 441
#     4  12  26  46  71 106 143 184 240 300 359 429
#
# _framework density 21.228061
#
# number of rings (size 3 to 8) (size 9 to 14) (size 15 to 20)
#    0.000    0.533    4.000    5.600    6.533    0.000 
#    2.400    0.000    0.000    0.000    0.000    0.000 
#    0.000    0.000    0.000    0.000    0.000    0.000 
#
# Total GULP energy -334616.182584 kJ/mol
# GULP energy per Si atom -5576.936376 kJ/mol
# Density = 2.117974 g / cm^3
# Si number density = 21.228061 Si / 1000 Ang^3
#
#
#
# Elastic Constant Matrix: (Units=GPa)
#
#
# Indices 1 2 3 4 5 6 
#
# 1 121.2532 18.0197 34.2360 0.0000 0.0000 0.0000
# 2 18.0197 121.2475 34.2369 0.0000 0.0000 0.0000
# 3 34.2360 34.2369 110.4178 0.0000 0.0000 0.0000
# 4 0.0000 0.0000 0.0000 21.3426 0.0000 0.0000
# 5 0.0000 0.0000 0.0000 0.0000 21.3422 0.0000
# 6 0.0000 0.0000 0.0000 0.0000 0.0000 30.2885
#
#
#
# Elastic Compliance Matrix: (Units=1/GPa)
#
#
# Indices 1 2 3 4 5 6 
#
# 1 0.009079 -0.000608 -0.002627 0.000000 0.000000 0.000000
# 2 -0.000608 0.009080 -0.002627 0.000000 0.000000 0.000000
# 3 -0.002627 -0.002627 0.010685 0.000000 0.000000 0.000000
# 4 0.000000 0.000000 0.000000 0.046855 0.000000 0.000000
# 5 0.000000 0.000000 0.000000 0.000000 0.046855 0.000000
# 6 0.000000 0.000000 0.000000 0.000000 0.000000 0.033016
#
#
# Mechanical properties :
#
#
# Convention : Reuss Voigt Hill
#
# Bulk Modulus (GPa) = 58.40486 58.43373 58.41930
# Shear Modulus (GPa) = 28.90177 32.35640 30.62908
#
# Velocity S-wave (km/s) = 3.69384 3.90837 3.80262
# Velocity P-wave (km/s) = 6.76501 6.92485 6.84540
#
# Compressibility (1/GPa) = 0.01712186
#
# Stress axis : x y z
#
# Youngs Moduli (GPa) = 110.14251 110.13624 93.58530
#
# Poissons Ratio (x) = 0.06692 0.24582
# Poissons Ratio (y) = 0.06693 0.24584
# Poissons Ratio (z) = 0.28931 0.28932
#
# Static dielectric constant tensor:
#      x y z
#    x 1.816060 0.000000 0.000000 
#    y 0.000000 1.816060 0.000000 
#    z 0.000000 0.000000 1.663550 
# 
# From -- ./inp_files/1622.got.cif
#   From: 2010.05.17/outbox.cif.g08.bks.cpg/sg96_1_cif.got.tgz:1622.got - 2010.06.03 19:52:08.
