data_PCOD9551017
_publ_section_title
;
Structure prediction by ZEFSAII (Michael W. Deem and Ramdas Pophale) SiO2 
 PCOD9551017
Probable space group: P 43 21 2
;
_chemical_formula_sum "Si O2"
_cell_formula_units_Z 56
_cell_length_a 10.872346
_cell_length_b 10.872346
_cell_length_c 20.162228
_cell_angle_alpha 90.000000
_cell_angle_beta 90.000000
_cell_angle_gamma 90.000000
_cell_volume 2383.334783
_symmetry_space_group_name_H-M "P 43 21 2"
_symmetry_group_IT_number 96
_symmetry_cell_setting 'tetragonal'
loop_
_space_group_symop_operation_xyz
x,y,z
1/2-y,1/2+x,3/4+z
-x,-y,1/2+z
1/2+y,1/2-x,1/4+z
1/2+x,1/2-y,1/4-z
1/2-x,1/2+y,3/4-z
y,x,-z
-y,-x,1/2-z
loop_
_atom_site_type_symbol
_atom_site_label
_atom_site_fract_x
_atom_site_fract_y
_atom_site_fract_z
Si Si1 0.054782 0.001358 0.399918
Si Si2 0.443526 0.053527 0.628989
Si Si3 0.142891 0.857110 0.750000
Si Si4 0.625571 0.709474 0.360309
Si Si5 0.362461 0.596551 0.479137
Si Si6 0.685112 0.314889 0.750000
Si Si7 0.863032 0.525824 0.015413
Si Si8 0.775315 0.175516 0.957277
O O1 0.100043 0.994411 0.324522
O O2 0.124806 0.110200 0.439648
O O3 0.923489 0.067856 0.395832
O O4 0.091785 0.876558 0.436873
O O5 0.541363 0.991602 0.677771
O O6 0.501761 0.080649 0.557306
O O7 0.411217 0.180040 0.667725
O O8 0.318256 0.975451 0.620692
O O9 0.202097 0.807997 0.681903
O O10 0.992296 0.842729 0.750384
O O11 0.675072 0.737967 0.287069
O O12 0.267042 0.538559 0.529808
O O13 0.275672 0.691904 0.439696
O O14 0.828902 0.338453 0.756884
#
# Coordination Sequence:
#
# PCOD9551017 Si02
#       8
#     8   8   4   8   8   4   8   8
#     4  11  18  34  65  93 116 150 204 264 324 362
#     4  12  20  38  65  90 128 163 212 260 322 388
#     4  10  23  42  62  84 123 174 214 252 317 388
#     4  11  22  41  63  89 122 173 217 259 309 388
#     4  11  24  39  56  93 128 160 207 259 320 382
#     4  12  17  32  62  90 123 146 192 258 325 376
#     4  12  23  37  60 100 128 167 201 266 333 381
#     4  12  20  39  65  90 121 163 211 267 312 380
#
# _framework density 23.496490999999999
#
# number of rings (size 3 to 8) (size 9 to 14) (size 15 to 20)
#    0.000    0.571   10.000    0.429    0.000    0.000 
#   10.286    0.000    0.000    0.000    0.000    0.000 
#    0.000    0.000    0.000    0.000    0.000    0.000 
#
# Total GULP energy -312168.905068 kJ/mol
# GULP energy per Si atom -5574.444733 kJ/mol
# Density = 2.344301 g / cm^3
# Si number density = 23.496491 Si / 1000 Ang^3
#
#
#
# Elastic Constant Matrix: (Units=GPa)
#
#
# Indices 1 2 3 4 5 6 
#
# 1 31.8858 5.7041 5.5991 0.0000 0.0000 0.0000
# 2 5.7041 31.8857 5.5989 0.0000 0.0000 0.0000
# 3 5.5991 5.5989 151.9405 0.0000 0.0000 0.0000
# 4 0.0000 0.0000 0.0000 30.4652 0.0000 0.0000
# 5 0.0000 0.0000 0.0000 0.0000 30.4654 0.0000
# 6 0.0000 0.0000 0.0000 0.0000 0.0000 10.2271
#
#
#
# Elastic Compliance Matrix: (Units=1/GPa)
#
#
# Indices 1 2 3 4 5 6 
#
# 1 0.032546 -0.005648 -0.000991 0.000000 0.000000 0.000000
# 2 -0.005648 0.032547 -0.000991 0.000000 0.000000 0.000000
# 3 -0.000991 -0.000991 0.006655 0.000000 0.000000 0.000000
# 4 0.000000 0.000000 0.000000 0.032824 0.000000 0.000000
# 5 0.000000 0.000000 0.000000 0.000000 0.032824 0.000000
# 6 0.000000 0.000000 0.000000 0.000000 0.000000 0.097780
#
#
# Mechanical properties :
#
#
# Convention : Reuss Voigt Hill
#
# Bulk Modulus (GPa) = 17.70342 27.72401 22.71372
# Shear Modulus (GPa) = 18.56903 27.48555 23.02729
#
# Velocity S-wave (km/s) = 2.81426 3.42390 3.13394
# Velocity P-wave (km/s) = 4.25569 5.23981 4.77318
#
# Compressibility (1/GPa) = 0.05648625
#
# Stress axis : x y z
#
# Youngs Moduli (GPa) = 30.72537 30.72526 150.27260
#
# Poissons Ratio (x) = 0.17354 0.14895
# Poissons Ratio (y) = 0.17354 0.14895
# Poissons Ratio (z) = 0.03046 0.03045
#
# Static dielectric constant tensor:
#      x y z
#    x 1.937680 0.000000 0.000000 
#    y 0.000000 1.937680 0.000000 
#    z 0.000000 0.000000 1.958630 
# 
# From -- ./inp_files/3575.got.cif
#   From: 2010.05.17/outbox.cif.g08.bks.cpg/sg96_2_cif.got.tgz:3575.got - 2010.06.03 19:52:08.
