data_PCOD9551952
_publ_section_title
;
Structure prediction by ZEFSAII (Michael W. Deem and Ramdas Pophale) SiO2 
 PCOD9551952
Probable space group: I 41 2 2
;
_chemical_formula_sum "Si O2"
_cell_formula_units_Z 48
_cell_length_a 14.949860
_cell_length_b 14.949860
_cell_length_c 9.100027
_cell_angle_alpha 90.000000
_cell_angle_beta 90.000000
_cell_angle_gamma 90.000000
_cell_volume 2033.840692
_symmetry_space_group_name_H-M "I 41 2 2"
_symmetry_group_IT_number 98
_symmetry_cell_setting 'tetragonal'
loop_
_space_group_symop_operation_xyz
x,y,z
-y,1/2+x,1/4+z
-x,-y,z
y,1/2-x,1/4+z
x,1/2-y,1/4-z
-x,1/2+y,1/4-z
y,x,-z
-y,-x,-z
1/2+x,1/2+y,1/2+z
1/2-y,x,3/4+z
1/2-x,1/2-y,1/2+z
1/2+y,-x,3/4+z
1/2+x,-y,3/4-z
1/2-x,y,3/4-z
1/2+y,1/2+x,1/2-z
1/2-y,1/2-x,1/2-z
loop_
_atom_site_type_symbol
_atom_site_label
_atom_site_fract_x
_atom_site_fract_y
_atom_site_fract_z
Si Si1 0.526398 0.211080 0.465825
Si Si2 0.114541 0.550566 0.088839
Si Si3 0.143210 0.124835 0.340665
O O1 0.548397 0.250000 0.625000
O O2 0.570551 0.279962 0.354314
O O3 0.566956 0.112887 0.470545
O O4 0.418343 0.209048 0.452678
O O5 0.069131 0.569131 0.250000
O O6 0.118720 0.449632 0.029441
O O7 0.102181 0.102181 0.500000
O O8 0.250000 0.136874 0.375000
#
# Coordination Sequence:
#
# PCOD9551952 Si02
#       3
#    16  16  16
#     4  10  23  44  72 101 146 195 247 299 363 442
#     4  10  23  47  72 105 147 200 246 295 370 437
#     4  12  25  46  71 109 146 190 246 307 374 435
#
# _framework density 23.600667999999999
#
# number of rings (size 3 to 8) (size 9 to 14) (size 15 to 20)
#    0.000    1.333    3.333    1.000    0.000   13.333 
#    0.000   11.667    0.000    0.000    0.000    0.000 
#    0.000    0.000    0.000    0.000    0.000    0.000 
#
# Total GULP energy -133667.635578 kJ/mol
# GULP energy per Si atom -5569.484816 kJ/mol
# Density = 2.354695 g / cm^3
# Si number density = 23.600668 Si / 1000 Ang^3
#
#
#
# Elastic Constant Matrix: (Units=GPa)
#
#
# Indices 1 2 3 4 5 6 
#
# 1 90.4258 93.8038 15.0496 0.0000 0.0000 0.0000
# 2 93.8038 90.4258 15.0496 0.0000 0.0000 0.0000
# 3 15.0496 15.0496 65.8741 0.0000 0.0000 0.0000
# 4 0.0000 0.0000 0.0000 28.6570 0.0000 0.0000
# 5 0.0000 0.0000 0.0000 0.0000 28.6570 0.0000
# 6 0.0000 0.0000 0.0000 0.0000 0.0000 28.8303
#
#
#
# Elastic Compliance Matrix: (Units=1/GPa)
#
#
# Indices 1 2 3 4 5 6 
#
# 1 -0.145196 0.150834 -0.001288 0.000000 0.000000 0.000000
# 2 0.150834 -0.145196 -0.001288 0.000000 0.000000 0.000000
# 3 -0.001288 -0.001288 0.015769 0.000000 0.000000 0.000000
# 4 0.000000 0.000000 0.000000 0.034895 0.000000 0.000000
# 5 0.000000 0.000000 0.000000 0.000000 0.034895 0.000000
# 6 0.000000 0.000000 0.000000 0.000000 0.000000 0.034686
#
#
# Mechanical properties :
#
#
# Convention : Reuss Voigt Hill
#
# Bulk Modulus (GPa) = 45.67601 54.94797 50.31199
# Shear Modulus (GPa) = -10.88462 25.41704 7.26621
#
# Velocity S-wave (km/s) = -2.14989 3.28527 1.75656
# Velocity P-wave (km/s) = 3.63772 6.14195 5.04760
#
# Compressibility (1/GPa) = 0.02189333
#
# Stress axis : x y z
#
# Youngs Moduli (GPa) = -6.88726 -6.88726 63.41535
#
# Poissons Ratio (x) = 1.03883 0.08169
# Poissons Ratio (y) = 1.03883 0.08169
# Poissons Ratio (z) = -0.00887 -0.00887
#
# Static dielectric constant tensor:
#      x y z
#    x 1.964830 0.000000 0.000000 
#    y 0.000000 1.964830 0.000000 
#    z 0.000000 0.000000 1.959930 
# 
# From -- ./inp_files/4449.got.cif
#   From: 2010.05.17/outbox.cif.g08.bks.cpg/sg98_3_cif.got.tgz:4449.got - 2010.06.03 20:00:51.
