data_PCOD9551765
_publ_section_title
;
Structure prediction by ZEFSAII (Michael W. Deem and Ramdas Pophale) SiO2 
 PCOD9551765
Probable space group: I 41 2 2
;
_chemical_formula_sum "Si O2"
_cell_formula_units_Z 120
_cell_length_a 17.919294
_cell_length_b 17.919294
_cell_length_c 19.426022
_cell_angle_alpha 90.000000
_cell_angle_beta 90.000000
_cell_angle_gamma 90.000000
_cell_volume 6237.716983
_symmetry_space_group_name_H-M "I 41 2 2"
_symmetry_group_IT_number 98
_symmetry_cell_setting 'tetragonal'
loop_
_space_group_symop_operation_xyz
x,y,z
-y,1/2+x,1/4+z
-x,-y,z
y,1/2-x,1/4+z
x,1/2-y,1/4-z
-x,1/2+y,1/4-z
y,x,-z
-y,-x,-z
1/2+x,1/2+y,1/2+z
1/2-y,x,3/4+z
1/2-x,1/2-y,1/2+z
1/2+y,-x,3/4+z
1/2+x,-y,3/4-z
1/2-x,y,3/4-z
1/2+y,1/2+x,1/2-z
1/2-y,1/2-x,1/2-z
loop_
_atom_site_type_symbol
_atom_site_label
_atom_site_fract_x
_atom_site_fract_y
_atom_site_fract_z
Si Si1 0.488687 0.835699 0.147128
Si Si2 0.836665 0.421401 0.362406
Si Si3 0.460167 0.166138 0.757201
Si Si4 0.480706 0.087373 0.005865
Si Si5 0.953035 0.308032 0.394891
Si Si6 0.452198 0.633443 0.896207
Si Si7 0.523819 0.838987 0.506239
Si Si8 0.424762 0.075239 0.250000
O O1 0.484250 0.750000 0.125000
O O2 0.511461 0.886973 0.083182
O O3 0.407668 0.873514 0.161543
O O4 0.551720 0.852316 0.204928
O O5 0.750000 0.407590 0.375000
O O6 0.854660 0.472138 0.295492
O O7 0.878040 0.342596 0.362849
O O8 0.855734 0.470708 0.429364
O O9 0.391550 0.108451 0.750000
O O10 0.486936 0.171069 0.836109
O O11 0.448908 0.253829 0.740300
O O12 0.394057 0.093009 0.987174
O O13 0.500000 0.000000 0.996411
O O14 0.528382 0.142982 0.960764
O O15 0.949978 0.221298 0.414321
O O16 0.480515 0.640911 0.815872
O O17 0.510555 0.584872 0.941674
#
# Coordination Sequence:
#
# PCOD9551765 Si02
#       8
#    16  16  16  16  16  16  16   8
#     4  12  24  39  66  94 123 161 204 259 330 380
#     4  10  20  36  57  87 123 165 202 249 304 367
#     4  10  22  36  57  89 125 159 205 261 308 355
#     4  12  20  38  65  86 113 165 217 255 297 381
#     4  11  23  35  60  92 124 161 211 257 311 375
#     4  11  22  40  60  91 123 159 201 261 320 377
#     4  10  20  37  61  83 115 160 211 249 307 363
#     4  12  23  42  68  92 124 160 210 270 308 367
#
# _framework density 19.237807
#
# number of rings (size 3 to 8) (size 9 to 14) (size 15 to 20)
#    0.000    1.067    4.000    3.200    0.000    1.067 
#    0.000    0.000    5.867    7.200    0.000    0.000 
#    0.000    0.000    0.000    0.000    0.000    0.000 
#
# Total GULP energy -334040.589647 kJ/mol
# GULP energy per Si atom -5567.343161 kJ/mol
# Density = 1.919402 g / cm^3
# Si number density = 19.237807 Si / 1000 Ang^3
#
#
#
# Elastic Constant Matrix: (Units=GPa)
#
#
# Indices 1 2 3 4 5 6 
#
# 1 109.3936 56.9711 21.0313 0.0000 0.0000 0.0000
# 2 56.9711 109.3915 21.0322 0.0000 0.0000 0.0000
# 3 21.0313 21.0322 78.1263 0.0000 0.0000 0.0000
# 4 0.0000 0.0000 0.0000 23.5615 0.0000 0.0000
# 5 0.0000 0.0000 0.0000 0.0000 23.5617 0.0000
# 6 0.0000 0.0000 0.0000 0.0000 0.0000 15.9928
#
#
#
# Elastic Compliance Matrix: (Units=1/GPa)
#
#
# Indices 1 2 3 4 5 6 
#
# 1 0.012763 -0.006313 -0.001736 0.000000 0.000000 0.000000
# 2 -0.006313 0.012763 -0.001736 0.000000 0.000000 0.000000
# 3 -0.001736 -0.001736 0.013735 0.000000 0.000000 0.000000
# 4 0.000000 0.000000 0.000000 0.042442 0.000000 0.000000
# 5 0.000000 0.000000 0.000000 0.000000 0.042442 0.000000
# 6 0.000000 0.000000 0.000000 0.000000 0.000000 0.062528
#
#
# Mechanical properties :
#
#
# Convention : Reuss Voigt Hill
#
# Bulk Modulus (GPa) = 50.78931 54.99783 52.89357
# Shear Modulus (GPa) = 23.49542 25.81498 24.65520
#
# Velocity S-wave (km/s) = 3.49852 3.66715 3.58383
# Velocity P-wave (km/s) = 6.54046 6.82504 6.68427
#
# Compressibility (1/GPa) = 0.01968918
#
# Stress axis : x y z
#
# Youngs Moduli (GPa) = 78.35218 78.35022 72.80863
#
# Poissons Ratio (x) = 0.49463 0.12641
# Poissons Ratio (y) = 0.49465 0.12643
# Poissons Ratio (z) = 0.13603 0.13605
#
# Static dielectric constant tensor:
#      x y z
#    x 1.714890 0.000000 0.000000 
#    y 0.000000 1.714890 0.000000 
#    z 0.000000 0.000000 1.782720 
# 
# From -- ./inp_files/9147.got.cif
#   From: 2010.05.17/outbox.cif.g08.bks.cpg/sg98_5_cif.got.tgz:9147.got - 2010.06.03 20:00:51.
