data_PCOD9551432
_publ_section_title
;
Structure prediction by ZEFSAII (Michael W. Deem and Ramdas Pophale) SiO2 
 PCOD9551432
Probable space group: I 4 2 2 
;
_chemical_formula_sum "Si O2"
_cell_formula_units_Z 88
_cell_length_a 11.257109
_cell_length_b 11.257109
_cell_length_c 32.317512
_cell_angle_alpha 90.000000
_cell_angle_beta 90.000000
_cell_angle_gamma 90.000000
_cell_volume 4095.356013
_symmetry_space_group_name_H-M "I 4 2 2 "
_symmetry_group_IT_number 97
_symmetry_cell_setting 'tetragonal'
loop_
_space_group_symop_operation_xyz
x,y,z
-y,x,z
-x,-y,z
y,-x,z
x,-y,-z
-x,y,-z
y,x,-z
-y,-x,-z
1/2+x,1/2+y,1/2+z
1/2-y,1/2+x,1/2+z
1/2-x,1/2-y,1/2+z
1/2+y,1/2-x,1/2+z
1/2+x,1/2-y,1/2-z
1/2-x,1/2+y,1/2-z
1/2+y,1/2+x,1/2-z
1/2-y,1/2-x,1/2-z
loop_
_atom_site_type_symbol
_atom_site_label
_atom_site_fract_x
_atom_site_fract_y
_atom_site_fract_z
Si Si1 0.989628 0.199916 0.455430
Si Si2 0.724489 0.141426 0.319109
Si Si3 0.655844 0.190017 0.887877
Si Si4 0.500000 0.000000 0.853704
Si Si5 0.352264 0.364946 0.546443
Si Si6 0.330982 0.414040 0.265193
O O1 0.961169 0.274202 0.414811
O O2 0.106115 0.118914 0.454477
O O3 0.000000 0.264601 0.500000
O O4 0.802187 0.215053 0.352906
O O5 0.647102 0.232089 0.292126
O O6 0.809607 0.087794 0.283998
O O7 0.623710 0.047021 0.333124
O O8 0.619517 0.056375 0.874175
O O9 0.766537 0.187985 0.919426
O O10 0.492310 0.339414 0.550114
O O11 0.321911 0.321911 0.500000
O O12 0.450055 0.345527 0.276459
#
# Coordination Sequence:
#
# PCOD9551432 Si02
#       6
#    16  16  16   8  16  16
#     4   9  20  38  58  82 117 165 216 266 332 405
#     4  11  24  42  66  92 136 175 210 281 345 398
#     4  12  23  40  64  92 132 171 219 281 346 398
#     4  12  26  41  61 104 132 168 236 272 334 418
#     4   9  20  39  61  86 118 165 217 269 335 402
#     4  10  22  41  66  96 125 170 224 264 331 415
#
# _framework density 21.487753999999999
#
# number of rings (size 3 to 8) (size 9 to 14) (size 15 to 20)
#    0.000    1.636    0.000    5.455    2.545    2.909 
#    3.273    3.636    0.000    0.000    0.000    0.000 
#    0.000    0.000    0.000    0.000    0.000    0.000 
#
# Total GULP energy -245136.718076 kJ/mol
# GULP energy per Si atom -5571.289047 kJ/mol
# Density = 2.143885 g / cm^3
# Si number density = 21.487754 Si / 1000 Ang^3
#
#
#
# Elastic Constant Matrix: (Units=GPa)
#
#
# Indices 1 2 3 4 5 6 
#
# 1 59.2227 5.2512 17.1894 0.0000 0.0000 0.0000
# 2 5.2512 59.2227 17.1894 0.0000 0.0000 0.0000
# 3 17.1894 17.1894 83.8502 0.0000 0.0000 0.0000
# 4 0.0000 0.0000 0.0000 29.2671 0.0000 0.0000
# 5 0.0000 0.0000 0.0000 0.0000 29.2671 0.0000
# 6 0.0000 0.0000 0.0000 0.0000 0.0000 40.3094
#
#
#
# Elastic Compliance Matrix: (Units=1/GPa)
#
#
# Indices 1 2 3 4 5 6 
#
# 1 0.017971 -0.000557 -0.003570 0.000000 0.000000 0.000000
# 2 -0.000557 0.017971 -0.003570 0.000000 0.000000 0.000000
# 3 -0.003570 -0.003570 0.013390 0.000000 0.000000 0.000000
# 4 0.000000 0.000000 0.000000 0.034168 0.000000 0.000000
# 5 0.000000 0.000000 0.000000 0.000000 0.034168 0.000000
# 6 0.000000 0.000000 0.000000 0.000000 0.000000 0.024808
#
#
# Mechanical properties :
#
#
# Convention : Reuss Voigt Hill
#
# Bulk Modulus (GPa) = 29.46575 31.28394 30.37484
# Shear Modulus (GPa) = 29.55391 30.61308 30.08350
#
# Velocity S-wave (km/s) = 3.71264 3.77858 3.74576
# Velocity P-wave (km/s) = 5.66753 5.79892 5.73360
#
# Compressibility (1/GPa) = 0.03393770
#
# Stress axis : x y z
#
# Youngs Moduli (GPa) = 55.64528 55.64527 74.68445
#
# Poissons Ratio (x) = 0.03101 0.26661
# Poissons Ratio (y) = 0.03101 0.26661
# Poissons Ratio (z) = 0.19864 0.19864
#
# Static dielectric constant tensor:
#      x y z
#    x 1.807980 0.000000 0.000000 
#    y 0.000000 1.807980 0.000000 
#    z 0.000000 0.000000 1.816560 
# 
# From -- ./inp_files/8055.got.cif
#   From: 2010.05.17/outbox.cif.g08.bks.cpg/sg97_5_cif.got.tgz:8055.got - 2010.06.03 19:55:32.
