data_PCOD9551997
_publ_section_title
;
Structure prediction by ZEFSAII (Michael W. Deem and Ramdas Pophale) SiO2 
 PCOD9551997
Probable space group: I 41 2 2
;
_chemical_formula_sum "Si O2"
_cell_formula_units_Z 60
_cell_length_a 13.353508
_cell_length_b 13.353508
_cell_length_c 16.032791
_cell_angle_alpha 90.000000
_cell_angle_beta 90.000000
_cell_angle_gamma 90.000000
_cell_volume 2858.905980
_symmetry_space_group_name_H-M "I 41 2 2"
_symmetry_group_IT_number 98
_symmetry_cell_setting 'tetragonal'
loop_
_space_group_symop_operation_xyz
x,y,z
-y,1/2+x,1/4+z
-x,-y,z
y,1/2-x,1/4+z
x,1/2-y,1/4-z
-x,1/2+y,1/4-z
y,x,-z
-y,-x,-z
1/2+x,1/2+y,1/2+z
1/2-y,x,3/4+z
1/2-x,1/2-y,1/2+z
1/2+y,-x,3/4+z
1/2+x,-y,3/4-z
1/2-x,y,3/4-z
1/2+y,1/2+x,1/2-z
1/2-y,1/2-x,1/2-z
loop_
_atom_site_type_symbol
_atom_site_label
_atom_site_fract_x
_atom_site_fract_y
_atom_site_fract_z
Si Si1 0.000000 0.000000 0.500000
Si Si2 0.358421 0.006511 0.403308
Si Si3 0.841268 0.287150 0.939454
Si Si4 0.750000 0.655822 0.375000
Si Si5 0.719835 0.568051 0.194477
O O1 0.013862 0.909900 0.564305
O O2 0.250000 0.041549 0.375000
O O3 0.415656 0.100532 0.440775
O O4 0.352554 0.906566 0.459676
O O5 0.750000 0.292404 0.875000
O O6 0.954732 0.257363 0.916599
O O7 0.797044 0.202957 0.000000
O O8 0.747440 0.590317 0.290768
O O9 0.651279 0.725532 0.386924
#
# Coordination Sequence:
#
# PCOD9551997 Si02
#       5
#     4  16  16   8  16
#     4  12  24  44  64 112 144 186 248 308 376 432
#     4  11  25  39  72 103 144 186 234 308 365 432
#     4  11  27  44  67 102 143 192 232 287 363 439
#     4  10  26  42  74  98 136 180 250 294 362 422
#     4  11  23  47  68 105 137 188 239 304 358 428
#
# _framework density 20.987048000000001
#
# number of rings (size 3 to 8) (size 9 to 14) (size 15 to 20)
#    0.000    1.067    4.000    0.000   16.800    0.000 
#    0.000    2.667    0.000    0.000    0.000    0.000 
#    0.000    0.000    0.000    0.000    0.000    0.000 
#
# Total GULP energy -167111.029621 kJ/mol
# GULP energy per Si atom -5570.367654 kJ/mol
# Density = 2.093928 g / cm^3
# Si number density = 20.987048 Si / 1000 Ang^3
#
#
#
# Elastic Constant Matrix: (Units=GPa)
#
#
# Indices 1 2 3 4 5 6 
#
# 1 132.1176 67.0287 23.9009 0.0000 0.0000 0.0000
# 2 67.0287 132.1139 23.9078 0.0000 0.0000 0.0000
# 3 23.9009 23.9078 40.1752 0.0000 0.0000 0.0000
# 4 0.0000 0.0000 0.0000 29.8551 0.0000 0.0000
# 5 0.0000 0.0000 0.0000 0.0000 29.8450 0.0000
# 6 0.0000 0.0000 0.0000 0.0000 0.0000 25.1874
#
#
#
# Elastic Compliance Matrix: (Units=1/GPa)
#
#
# Indices 1 2 3 4 5 6 
#
# 1 0.010611 -0.004753 -0.003484 0.000000 0.000000 0.000000
# 2 -0.004753 0.010612 -0.003487 0.000000 0.000000 0.000000
# 3 -0.003484 -0.003487 0.029039 0.000000 0.000000 0.000000
# 4 0.000000 0.000000 0.000000 0.033495 0.000000 0.000000
# 5 0.000000 0.000000 0.000000 0.000000 0.033506 0.000000
# 6 0.000000 0.000000 0.000000 0.000000 0.000000 0.039702
#
#
# Mechanical properties :
#
#
# Convention : Reuss Voigt Hill
#
# Bulk Modulus (GPa) = 37.29567 59.34239 48.31903
# Shear Modulus (GPa) = 26.40594 29.61546 28.01070
#
# Velocity S-wave (km/s) = 3.55096 3.76058 3.65727
# Velocity P-wave (km/s) = 5.88403 6.86972 6.39589
#
# Compressibility (1/GPa) = 0.02681276
#
# Stress axis : x y z
#
# Youngs Moduli (GPa) = 94.24518 94.23558 34.43648
#
# Poissons Ratio (x) = 0.44789 0.11998
# Poissons Ratio (y) = 0.44793 0.12009
# Poissons Ratio (z) = 0.32835 0.32863
#
# Static dielectric constant tensor:
#      x y z
#    x 1.726120 0.000000 0.000000 
#    y 0.000000 1.726110 0.000000 
#    z 0.000000 0.000000 1.587540 
# 
# From -- ./inp_files/6280.got.cif
#   From: 2010.05.17/outbox.cif.g08.bks.cpg/sg98_4_cif.got.tgz:6280.got - 2010.06.03 20:00:51.
