data_PCOD9551087
_publ_section_title
;
Structure prediction by ZEFSAII (Michael W. Deem and Ramdas Pophale) SiO2 
 PCOD9551087
Probable space group: P 43 21 2
;
_chemical_formula_sum "Si O2"
_cell_formula_units_Z 52
_cell_length_a 19.259737
_cell_length_b 19.259737
_cell_length_c 6.407374
_cell_angle_alpha 90.000000
_cell_angle_beta 90.000000
_cell_angle_gamma 90.000000
_cell_volume 2376.735096
_symmetry_space_group_name_H-M "P 43 21 2"
_symmetry_group_IT_number 96
_symmetry_cell_setting 'tetragonal'
loop_
_space_group_symop_operation_xyz
x,y,z
1/2-y,1/2+x,3/4+z
-x,-y,1/2+z
1/2+y,1/2-x,1/4+z
1/2+x,1/2-y,1/4-z
1/2-x,1/2+y,3/4-z
y,x,-z
-y,-x,1/2-z
loop_
_atom_site_type_symbol
_atom_site_label
_atom_site_fract_x
_atom_site_fract_y
_atom_site_fract_z
Si Si1 0.727969 0.546291 0.108316
Si Si2 0.769039 0.459397 0.729373
Si Si3 0.695534 0.695534 0.000000
Si Si4 0.657006 0.055927 0.331249
Si Si5 0.909945 0.807167 0.609330
Si Si6 0.695365 0.792483 0.378594
Si Si7 0.416028 0.043691 0.361651
O O1 0.804970 0.556756 0.196481
O O2 0.696820 0.485743 0.254027
O O3 0.732418 0.516286 0.875421
O O4 0.694873 0.622067 0.120071
O O5 0.815250 0.490203 0.541628
O O6 0.707640 0.418152 0.609512
O O7 0.834703 0.432518 0.865515
O O8 0.764690 0.696190 0.858098
O O9 0.685291 0.119827 0.198436
O O10 0.577990 0.060470 0.392276
O O11 0.872559 0.872559 0.500000
O O12 0.856984 0.744239 0.560275
O O13 0.726828 0.726828 0.500000
O O14 0.462359 0.070083 0.558164
#
# Coordination Sequence:
#
# PCOD9551087 Si02
#       7
#     8   8   4   8   8   8   8
#     4  11  23  45  68  99 135 178 229 295 360 416
#     4  11  24  41  67  92 137 186 226 294 345 410
#     4  12  24  40  74 106 134 180 240 286 364 422
#     4  11  23  40  59  94 136 176 230 287 343 402
#     4  10  26  45  69  98 138 184 232 290 359 427
#     4  11  23  40  68  99 134 176 230 288 339 427
#     4  12  25  39  60  96 139 197 247 279 342 425
#
# _framework density 21.878755000000002
#
# number of rings (size 3 to 8) (size 9 to 14) (size 15 to 20)
#    0.000    0.923    4.615    1.846    6.462    3.077 
#    0.000    0.000    3.385    0.000    0.000    0.000 
#    0.000    0.000    0.000    0.000    0.000    0.000 
#
# Total GULP energy -289781.835403 kJ/mol
# GULP energy per Si atom -5572.727604 kJ/mol
# Density = 2.182896 g / cm^3
# Si number density = 21.878755 Si / 1000 Ang^3
#
#
#
# Elastic Constant Matrix: (Units=GPa)
#
#
# Indices 1 2 3 4 5 6 
#
# 1 46.8316 18.6833 10.5957 0.0000 0.0000 0.0000
# 2 18.6833 46.8316 10.5957 0.0000 0.0000 0.0000
# 3 10.5957 10.5957 72.3530 0.0000 0.0000 0.0000
# 4 0.0000 0.0000 0.0000 36.6192 0.0000 0.0000
# 5 0.0000 0.0000 0.0000 0.0000 36.6192 0.0000
# 6 0.0000 0.0000 0.0000 0.0000 0.0000 17.1588
#
#
#
# Elastic Compliance Matrix: (Units=1/GPa)
#
#
# Indices 1 2 3 4 5 6 
#
# 1 0.025774 -0.009752 -0.002346 0.000000 0.000000 0.000000
# 2 -0.009752 0.025774 -0.002346 0.000000 0.000000 0.000000
# 3 -0.002346 -0.002346 0.014508 0.000000 0.000000 0.000000
# 4 0.000000 0.000000 0.000000 0.027308 0.000000 0.000000
# 5 0.000000 0.000000 0.000000 0.000000 0.027308 0.000000
# 6 0.000000 0.000000 0.000000 0.000000 0.000000 0.058279
#
#
# Mechanical properties :
#
#
# Convention : Reuss Voigt Hill
#
# Bulk Modulus (GPa) = 26.90485 27.30728 27.10607
# Shear Modulus (GPa) = 22.70342 26.48885 24.59613
#
# Velocity S-wave (km/s) = 3.22482 3.48330 3.35655
# Velocity P-wave (km/s) = 5.11761 5.35594 5.23813
#
# Compressibility (1/GPa) = 0.03716801
#
# Stress axis : x y z
#
# Youngs Moduli (GPa) = 38.79814 38.79814 68.92574
#
# Poissons Ratio (x) = 0.37835 0.16173
# Poissons Ratio (y) = 0.37835 0.16173
# Poissons Ratio (z) = 0.09104 0.09104
#
# Static dielectric constant tensor:
#      x y z
#    x 1.841640 0.000000 0.000000 
#    y 0.000000 1.841640 0.000000 
#    z 0.000000 0.000000 1.894610 
# 
# From -- ./inp_files/695.got.cif
#   From: 2010.05.17/outbox.cif.g08.bks.cpg/sg96_1_cif.got.tgz:695.got - 2010.06.03 19:52:08.
