data_PCOD9551282
_publ_section_title
;
Structure prediction by ZEFSAII (Michael W. Deem and Ramdas Pophale) SiO2 
 PCOD9551282
Probable space group: I 4 2 2 
;
_chemical_formula_sum "Si O2"
_cell_formula_units_Z 56
_cell_length_a 19.420382
_cell_length_b 19.420382
_cell_length_c 7.855158
_cell_angle_alpha 90.000000
_cell_angle_beta 90.000000
_cell_angle_gamma 90.000000
_cell_volume 2962.582557
_symmetry_space_group_name_H-M "I 4 2 2 "
_symmetry_group_IT_number 97
_symmetry_cell_setting 'tetragonal'
loop_
_space_group_symop_operation_xyz
x,y,z
-y,x,z
-x,-y,z
y,-x,z
x,-y,-z
-x,y,-z
y,x,-z
-y,-x,-z
1/2+x,1/2+y,1/2+z
1/2-y,1/2+x,1/2+z
1/2-x,1/2-y,1/2+z
1/2+y,1/2-x,1/2+z
1/2+x,1/2-y,1/2-z
1/2-x,1/2+y,1/2-z
1/2+y,1/2+x,1/2-z
1/2-y,1/2-x,1/2-z
loop_
_atom_site_type_symbol
_atom_site_label
_atom_site_fract_x
_atom_site_fract_y
_atom_site_fract_z
Si Si1 0.850697 0.960456 0.337677
Si Si2 0.946084 0.248302 0.861883
Si Si3 0.184676 0.184676 0.500000
Si Si4 0.184856 0.315145 0.250000
Si Si5 0.104087 0.104087 0.000000
O O1 0.821623 0.885803 0.390927
O O2 0.883578 0.000000 0.500000
O O3 0.786775 0.009771 0.288136
O O4 0.896717 0.946521 0.166581
O O5 0.890332 0.305224 0.826059
O O6 0.906429 0.181327 0.934675
O O7 0.000000 0.272689 0.000000
O O8 0.188157 0.251842 0.382335
#
# Coordination Sequence:
#
# PCOD9551282 Si02
#       5
#    16  16   8   8   8
#     4  11  20  39  58  95 129 178 212 285 342 397
#     4  10  22  37  63  91 134 170 216 281 334 402
#     4  12  25  36  66  95 127 166 224 290 330 411
#     4  12  22  40  60 102 125 169 228 278 340 396
#     4  10  19  38  58  87 125 181 220 267 340 397
#
# _framework density 18.902425000000001
#
# number of rings (size 3 to 8) (size 9 to 14) (size 15 to 20)
#    0.000    1.143    5.714    0.857    4.000    0.000 
#    0.000    0.000    0.000   96.857    0.000   12.000 
#    0.000    0.000    0.000    0.000    0.000    0.000 
#
# Total GULP energy -156184.065341 kJ/mol
# GULP energy per Si atom -5578.002334 kJ/mol
# Density = 1.885940 g / cm^3
# Si number density = 18.902425 Si / 1000 Ang^3
#
#
#
# Elastic Constant Matrix: (Units=GPa)
#
#
# Indices 1 2 3 4 5 6 
#
# 1 119.6735 75.8083 56.6658 0.0000 0.0000 0.0000
# 2 75.8083 119.6775 56.6639 0.0000 0.0000 0.0000
# 3 56.6658 56.6639 132.1754 0.0000 0.0000 0.0000
# 4 0.0000 0.0000 0.0000 21.5191 0.0000 0.0000
# 5 0.0000 0.0000 0.0000 0.0000 21.5197 0.0000
# 6 0.0000 0.0000 0.0000 0.0000 0.0000 35.4641
#
#
#
# Elastic Compliance Matrix: (Units=1/GPa)
#
#
# Indices 1 2 3 4 5 6 
#
# 1 0.014802 -0.007994 -0.002919 0.000000 0.000000 0.000000
# 2 -0.007994 0.014801 -0.002918 0.000000 0.000000 0.000000
# 3 -0.002919 -0.002918 0.010068 0.000000 0.000000 0.000000
# 4 0.000000 0.000000 0.000000 0.046470 0.000000 0.000000
# 5 0.000000 0.000000 0.000000 0.000000 0.046469 0.000000
# 6 0.000000 0.000000 0.000000 0.000000 0.000000 0.028198
#
#
# Mechanical properties :
#
#
# Convention : Reuss Voigt Hill
#
# Bulk Modulus (GPa) = 83.26930 83.31137 83.29034
# Shear Modulus (GPa) = 25.97757 27.85981 26.91869
#
# Velocity S-wave (km/s) = 3.71117 3.84327 3.77780
# Velocity P-wave (km/s) = 7.90643 7.99152 7.94909
#
# Compressibility (1/GPa) = 0.01200923
#
# Stress axis : x y z
#
# Youngs Moduli (GPa) = 67.55761 67.56153 99.32457
#
# Poissons Ratio (x) = 0.54011 0.28990
# Poissons Ratio (y) = 0.54008 0.28984
# Poissons Ratio (z) = 0.19718 0.19715
#
# Static dielectric constant tensor:
#      x y z
#    x 1.650980 0.000000 0.000000 
#    y 0.000000 1.650980 0.000000 
#    z 0.000000 0.000000 1.800070 
# 
# From -- ./inp_files/1918.got.cif
#   From: 2010.05.17/outbox.cif.g08.bks.cpg/sg97_1_cif.got.tgz:1918.got - 2010.06.03 19:55:32.
