data_PCOD9551334
_publ_section_title
;
Structure prediction by ZEFSAII (Michael W. Deem and Ramdas Pophale) SiO2 
 PCOD9551334
Probable space group: I 4 2 2 
;
_chemical_formula_sum "Si O2"
_cell_formula_units_Z 72
_cell_length_a 15.553436
_cell_length_b 15.553436
_cell_length_c 14.996642
_cell_angle_alpha 90.000000
_cell_angle_beta 90.000000
_cell_angle_gamma 90.000000
_cell_volume 3627.828239
_symmetry_space_group_name_H-M "I 4 2 2 "
_symmetry_group_IT_number 97
_symmetry_cell_setting 'tetragonal'
loop_
_space_group_symop_operation_xyz
x,y,z
-y,x,z
-x,-y,z
y,-x,z
x,-y,-z
-x,y,-z
y,x,-z
-y,-x,-z
1/2+x,1/2+y,1/2+z
1/2-y,1/2+x,1/2+z
1/2-x,1/2-y,1/2+z
1/2+y,1/2-x,1/2+z
1/2+x,1/2-y,1/2-z
1/2-x,1/2+y,1/2-z
1/2+y,1/2+x,1/2-z
1/2-y,1/2-x,1/2-z
loop_
_atom_site_type_symbol
_atom_site_label
_atom_site_fract_x
_atom_site_fract_y
_atom_site_fract_z
Si Si1 0.843044 0.500000 0.500000
Si Si2 0.378907 0.423074 0.753959
Si Si3 0.704979 0.117792 0.662173
Si Si4 0.589769 0.950318 0.651779
Si Si5 0.132642 0.777879 0.080995
O O1 0.894256 0.430569 0.561990
O O2 0.779386 0.548318 0.566014
O O3 0.474240 0.386350 0.761349
O O4 0.305114 0.395615 0.821560
O O5 0.340986 0.388422 0.661249
O O6 0.652372 0.152372 0.750000
O O7 0.698579 0.200535 0.599131
O O8 0.660586 0.025819 0.639459
O O9 0.597382 0.902619 0.750000
O O10 0.500000 0.000000 0.658479
O O11 0.165301 0.834700 0.000000
#
# Coordination Sequence:
#
# PCOD9551334 Si02
#       5
#     8  16  16  16  16
#     4  12  23  36  60  89 126 164 198 245 320 388
#     4  10  22  42  63  82 114 166 214 256 307 372
#     4  10  20  37  60  87 120 148 202 263 310 371
#     4  11  19  35  59  89 121 163 197 248 318 391
#     4  11  23  37  56  89 125 155 196 255 314 380
#
# _framework density 19.846584
#
# number of rings (size 3 to 8) (size 9 to 14) (size 15 to 20)
#    0.000    1.333    4.444    3.000    0.000    1.778 
#    0.000    5.556    0.000    0.000    0.000    1.556 
#    0.000    0.000    0.000    0.000    0.000    0.000 
#
# Total GULP energy -200419.794579 kJ/mol
# GULP energy per Si atom -5567.216516 kJ/mol
# Density = 1.980141 g / cm^3
# Si number density = 19.846584 Si / 1000 Ang^3
#
#
#
# Elastic Constant Matrix: (Units=GPa)
#
#
# Indices 1 2 3 4 5 6 
#
# 1 -26.4675 128.5149 -5.1542 0.0000 0.0000 0.0000
# 2 128.5149 -26.4710 -5.1447 0.0000 0.0000 0.0000
# 3 -5.1542 -5.1447 9.3125 0.0000 0.0000 0.0000
# 4 0.0000 0.0000 0.0000 29.1449 0.0000 0.0000
# 5 0.0000 0.0000 0.0000 0.0000 29.1451 0.0000
# 6 0.0000 0.0000 0.0000 0.0000 0.0000 -28.0511
#
#
#
# Elastic Compliance Matrix: (Units=1/GPa)
#
#
# Indices 1 2 3 4 5 6 
#
# 1 0.001963 0.008416 0.005736 0.000000 0.000000 0.000000
# 2 0.008416 0.001963 0.005742 0.000000 0.000000 0.000000
# 3 0.005736 0.005742 0.113730 0.000000 0.000000 0.000000
# 4 0.000000 0.000000 0.000000 0.034311 0.000000 0.000000
# 5 0.000000 0.000000 0.000000 0.000000 0.034311 0.000000
# 6 0.000000 0.000000 0.000000 0.000000 0.000000 -0.035649
#
#
# Mechanical properties :
#
#
# Convention : Reuss Voigt Hill
#
# Bulk Modulus (GPa) = 6.35150 21.42290 13.88720
# Shear Modulus (GPa) = 30.61416 -4.74170 12.93623
#
# Velocity S-wave (km/s) = 3.93178 -1.54737 2.55583
# Velocity P-wave (km/s) = 4.88048 2.76138 3.96512
#
# Compressibility (1/GPa) = 0.15744314
#
# Stress axis : x y z
#
# Youngs Moduli (GPa) = 509.42499 509.30213 8.79279
#
# Poissons Ratio (x) = -4.28604 -0.05043
# Poissons Ratio (y) = -4.28707 -0.05049
# Poissons Ratio (z) = -2.92185 -2.92466
#
# Static dielectric constant tensor:
#      x y z
#    x 1.299630 0.000000 0.000000 
#    y 0.000000 1.300520 0.000000 
#    z 0.000000 0.000000 1.803370 
# 
# From -- ./inp_files/5620.got.cif
#   From: 2010.05.17/outbox.cif.g08.bks.cpg/sg97_3_cif.got.tgz:5620.got - 2010.06.03 19:55:32.
