data_PCOD9551208
_publ_section_title
;
Structure prediction by ZEFSAII (Michael W. Deem and Ramdas Pophale) SiO2 
 PCOD9551208
Probable space group: I 4 2 2 
;
_chemical_formula_sum "Si O2"
_cell_formula_units_Z 96
_cell_length_a 23.344347
_cell_length_b 23.344347
_cell_length_c 8.683854
_cell_angle_alpha 90.000000
_cell_angle_beta 90.000000
_cell_angle_gamma 90.000000
_cell_volume 4732.340370
_symmetry_space_group_name_H-M "I 4 2 2 "
_symmetry_group_IT_number 97
_symmetry_cell_setting 'tetragonal'
loop_
_space_group_symop_operation_xyz
x,y,z
-y,x,z
-x,-y,z
y,-x,z
x,-y,-z
-x,y,-z
y,x,-z
-y,-x,-z
1/2+x,1/2+y,1/2+z
1/2-y,1/2+x,1/2+z
1/2-x,1/2-y,1/2+z
1/2+y,1/2-x,1/2+z
1/2+x,1/2-y,1/2-z
1/2-x,1/2+y,1/2-z
1/2+y,1/2+x,1/2-z
1/2-y,1/2-x,1/2-z
loop_
_atom_site_type_symbol
_atom_site_label
_atom_site_fract_x
_atom_site_fract_y
_atom_site_fract_z
Si Si1 0.381935 0.375878 0.313390
Si Si2 0.087240 0.666114 0.348321
Si Si3 0.350244 0.181350 0.600190
Si Si4 0.019937 0.302642 0.178040
Si Si5 0.004974 0.831722 0.813959
Si Si6 0.666943 0.255958 0.691266
O O1 0.381331 0.381331 0.500000
O O2 0.444885 0.357192 0.257270
O O3 0.363152 0.438013 0.255838
O O4 0.339479 0.322899 0.280218
O O5 0.114446 0.614446 0.250000
O O6 0.121896 0.661274 0.508201
O O7 0.113598 0.724241 0.275246
O O8 0.020259 0.667159 0.306090
O O9 0.312034 0.187967 0.750000
O O10 0.414303 0.180282 0.665874
O O11 0.341694 0.234445 0.484237
O O12 0.013756 0.235383 0.214232
O O13 0.000000 0.311863 0.000000
O O14 0.000000 0.837431 0.000000
O O15 0.722722 0.222722 0.750000
#
# Coordination Sequence:
#
# PCOD9551208 Si02
#       6
#    16  16  16  16  16  16
#     4  10  17  30  47  78 114 148 200 235 300 349
#     4   9  17  30  54  81 104 146 193 228 280 358
#     4  10  20  31  50  84 114 140 190 245 297 349
#     4  11  16  32  55  76 108 149 196 226 285 360
#     4   9  18  27  48  76 111 151 192 241 286 356
#     4   9  17  33  54  76 111 150 189 231 289 366
#
# _framework density 20.285945999999999
#
# number of rings (size 3 to 8) (size 9 to 14) (size 15 to 20)
#    0.000    2.667    5.000    2.000    0.000    1.000 
#    0.000    5.000    0.000    0.500    0.000    0.000 
#    0.000    0.000    0.000    0.000   54.000    0.000 
#
# Total GULP energy -267467.259368 kJ/mol
# GULP energy per Si atom -5572.234570 kJ/mol
# Density = 2.023977 g / cm^3
# Si number density = 20.285946 Si / 1000 Ang^3
#
#
#
# Elastic Constant Matrix: (Units=GPa)
#
#
# Indices 1 2 3 4 5 6 
#
# 1 92.3871 63.3079 30.7288 0.0000 0.0000 0.0000
# 2 63.3079 92.3801 30.7293 0.0000 0.0000 0.0000
# 3 30.7288 30.7293 54.0881 0.0000 0.0000 0.0000
# 4 0.0000 0.0000 0.0000 6.1798 0.0000 0.0000
# 5 0.0000 0.0000 0.0000 0.0000 6.1797 0.0000
# 6 0.0000 0.0000 0.0000 0.0000 0.0000 23.6129
#
#
#
# Elastic Compliance Matrix: (Units=1/GPa)
#
#
# Indices 1 2 3 4 5 6 
#
# 1 0.021335 -0.013057 -0.004703 0.000000 0.000000 0.000000
# 2 -0.013057 0.021337 -0.004705 0.000000 0.000000 0.000000
# 3 -0.004703 -0.004705 0.023833 0.000000 0.000000 0.000000
# 4 0.000000 0.000000 0.000000 0.161817 0.000000 0.000000
# 5 0.000000 0.000000 0.000000 0.000000 0.161819 0.000000
# 6 0.000000 0.000000 0.000000 0.000000 0.000000 0.042350
#
#
# Mechanical properties :
#
#
# Convention : Reuss Voigt Hill
#
# Bulk Modulus (GPa) = 46.34578 54.26526 50.30552
# Shear Modulus (GPa) = 10.31748 14.80043 12.55896
#
# Velocity S-wave (km/s) = 2.25767 2.70402 2.49086
# Velocity P-wave (km/s) = 5.44903 6.04626 5.75540
#
# Compressibility (1/GPa) = 0.02157694
#
# Stress axis : x y z
#
# Youngs Moduli (GPa) = 46.87058 46.86591 41.95802
#
# Poissons Ratio (x) = 0.61191 0.19734
# Poissons Ratio (y) = 0.61197 0.19740
# Poissons Ratio (z) = 0.22044 0.22049
#
# Static dielectric constant tensor:
#      x y z
#    x 1.732510 0.000000 0.000000 
#    y 0.000000 1.732510 0.000000 
#    z 0.000000 0.000000 1.764070 
# 
# From -- ./inp_files/2487.got.cif
#   From: 2010.05.17/outbox.cif.g08.bks.cpg/sg97_2_cif.got.tgz:2487.got - 2010.06.03 19:55:32.
