data_PCOD9551545
_publ_section_title
;
Structure prediction by ZEFSAII (Michael W. Deem and Ramdas Pophale) SiO2 
 PCOD9551545
Probable space group: I 4 2 2 
;
_chemical_formula_sum "Si O2"
_cell_formula_units_Z 96
_cell_length_a 14.588640
_cell_length_b 14.588640
_cell_length_c 21.968653
_cell_angle_alpha 90.000000
_cell_angle_beta 90.000000
_cell_angle_gamma 90.000000
_cell_volume 4675.553643
_symmetry_space_group_name_H-M "I 4 2 2 "
_symmetry_group_IT_number 97
_symmetry_cell_setting 'tetragonal'
loop_
_space_group_symop_operation_xyz
x,y,z
-y,x,z
-x,-y,z
y,-x,z
x,-y,-z
-x,y,-z
y,x,-z
-y,-x,-z
1/2+x,1/2+y,1/2+z
1/2-y,1/2+x,1/2+z
1/2-x,1/2-y,1/2+z
1/2+y,1/2-x,1/2+z
1/2+x,1/2-y,1/2-z
1/2-x,1/2+y,1/2-z
1/2+y,1/2+x,1/2-z
1/2-y,1/2-x,1/2-z
loop_
_atom_site_type_symbol
_atom_site_label
_atom_site_fract_x
_atom_site_fract_y
_atom_site_fract_z
Si Si1 0.973545 0.769840 0.862933
Si Si2 0.010460 0.155547 0.727152
Si Si3 0.350618 0.306967 0.569480
Si Si4 0.647286 0.283072 0.064694
Si Si5 0.948716 0.255010 0.391594
Si Si6 0.900125 0.541110 0.565984
O O1 0.986538 0.801976 0.794630
O O2 0.872674 0.791524 0.887365
O O3 0.989819 0.664043 0.878856
O O4 0.046709 0.818447 0.907042
O O5 0.017566 0.238448 0.678148
O O6 0.918131 0.093987 0.721093
O O7 0.336771 0.336771 0.500000
O O8 0.310108 0.204258 0.575476
O O9 0.539515 0.271177 0.070804
O O10 0.685189 0.364061 0.106450
O O11 0.679207 0.320794 0.000000
O O12 0.913250 0.349670 0.422583
O O13 0.864559 0.500000 0.500000
O O14 0.000000 0.500000 0.571017
#
# Coordination Sequence:
#
# PCOD9551545 Si02
#       6
#    16  16  16  16  16  16
#     4  12  23  43  68 104 138 194 248 296 374 437
#     4  11  24  46  69  99 148 196 243 303 370 439
#     4  11  23  40  65 102 145 184 240 309 372 450
#     4  11  25  41  69 104 143 175 238 298 373 444
#     4  12  24  46  70 107 138 191 241 298 363 437
#     4  11  26  45  74 104 149 187 230 293 376 451
#
# _framework density 20.532328
#
# number of rings (size 3 to 8) (size 9 to 14) (size 15 to 20)
#    0.000    0.667    5.000    3.000    7.000    1.333 
#    0.000    7.500    0.000    0.000    0.000    0.000 
#    0.000    0.000    0.000    0.000    0.000    0.000 
#
# Total GULP energy -267732.324690 kJ/mol
# GULP energy per Si atom -5577.756764 kJ/mol
# Density = 2.048560 g / cm^3
# Si number density = 20.532328 Si / 1000 Ang^3
#
#
#
# Elastic Constant Matrix: (Units=GPa)
#
#
# Indices 1 2 3 4 5 6 
#
# 1 78.4514 25.7410 39.3264 0.0000 0.0000 0.0000
# 2 25.7410 78.4528 39.3260 0.0000 0.0000 0.0000
# 3 39.3264 39.3260 120.2574 0.0000 0.0000 0.0000
# 4 0.0000 0.0000 0.0000 9.0024 0.0000 0.0000
# 5 0.0000 0.0000 0.0000 0.0000 9.0014 0.0000
# 6 0.0000 0.0000 0.0000 0.0000 0.0000 28.5022
#
#
#
# Elastic Compliance Matrix: (Units=1/GPa)
#
#
# Indices 1 2 3 4 5 6 
#
# 1 0.015858 -0.003114 -0.004167 0.000000 0.000000 0.000000
# 2 -0.003114 0.015857 -0.004167 0.000000 0.000000 0.000000
# 3 -0.004167 -0.004167 0.011041 0.000000 0.000000 0.000000
# 4 0.000000 0.000000 0.000000 0.111081 0.000000 0.000000
# 5 0.000000 0.000000 0.000000 0.000000 0.111094 0.000000
# 6 0.000000 0.000000 0.000000 0.000000 0.000000 0.035085
#
#
# Mechanical properties :
#
#
# Convention : Reuss Voigt Hill
#
# Bulk Modulus (GPa) = 50.35613 53.99428 52.17520
# Shear Modulus (GPa) = 15.17300 20.81908 17.99604
#
# Velocity S-wave (km/s) = 2.72137 3.18774 2.96374
# Velocity P-wave (km/s) = 5.86967 6.31690 6.09738
#
# Compressibility (1/GPa) = 0.01985856
#
# Stress axis : x y z
#
# Youngs Moduli (GPa) = 63.06152 63.06313 90.57122
#
# Poissons Ratio (x) = 0.19638 0.37744
# Poissons Ratio (y) = 0.19637 0.37743
# Poissons Ratio (z) = 0.26280 0.26280
#
# Static dielectric constant tensor:
#      x y z
#    x 1.809780 0.000000 0.000000 
#    y 0.000000 1.809780 0.000000 
#    z 0.000000 0.000000 1.739960 
# 
# From -- ./inp_files/6617.got.cif
#   From: 2010.05.17/outbox.cif.g08.bks.cpg/sg97_4_cif.got.tgz:6617.got - 2010.06.03 19:55:32.
