data_PCOD9551204
_publ_section_title
;
Structure prediction by ZEFSAII (Michael W. Deem and Ramdas Pophale) SiO2 
 PCOD9551204
Probable space group: I 4 2 2 
;
_chemical_formula_sum "Si O2"
_cell_formula_units_Z 88
_cell_length_a 11.865296
_cell_length_b 11.865296
_cell_length_c 30.564556
_cell_angle_alpha 90.000000
_cell_angle_beta 90.000000
_cell_angle_gamma 90.000000
_cell_volume 4303.038632
_symmetry_space_group_name_H-M "I 4 2 2 "
_symmetry_group_IT_number 97
_symmetry_cell_setting 'tetragonal'
loop_
_space_group_symop_operation_xyz
x,y,z
-y,x,z
-x,-y,z
y,-x,z
x,-y,-z
-x,y,-z
y,x,-z
-y,-x,-z
1/2+x,1/2+y,1/2+z
1/2-y,1/2+x,1/2+z
1/2-x,1/2-y,1/2+z
1/2+y,1/2-x,1/2+z
1/2+x,1/2-y,1/2-z
1/2-x,1/2+y,1/2-z
1/2+y,1/2+x,1/2-z
1/2-y,1/2-x,1/2-z
loop_
_atom_site_type_symbol
_atom_site_label
_atom_site_fract_x
_atom_site_fract_y
_atom_site_fract_z
Si Si1 0.866419 0.866419 0.000000
Si Si2 0.461025 0.315525 0.258019
Si Si3 0.216101 0.204072 0.094537
Si Si4 0.849844 0.114973 0.364679
Si Si5 0.672026 0.915052 0.703550
Si Si6 0.497367 0.211649 0.648808
O O1 0.814876 0.821185 0.044879
O O2 0.000000 0.846660 0.000000
O O3 0.583538 0.374368 0.252855
O O4 0.464277 0.217389 0.221199
O O5 0.457866 0.271779 0.307300
O O6 0.285119 0.320184 0.097374
O O7 0.100392 0.219140 0.122816
O O8 0.290920 0.104152 0.116440
O O9 0.773418 0.144271 0.322680
O O10 0.979527 0.150756 0.364908
O O11 0.639754 0.860246 0.750000
O O12 0.568851 0.896106 0.669793
#
# Coordination Sequence:
#
# PCOD9551204 Si02
#       6
#     8  16  16  16  16  16
#     4  11  22  36  66 105 138 162 198 255 314 402
#     4  10  17  26  49  81 115 165 220 268 304 357
#     4  11  21  38  62  94 130 164 202 258 329 394
#     4  10  22  43  68  89 116 168 228 270 309 373
#     4   9  19  32  51  87 127 161 211 266 313 359
#     4  10  19  32  53  82 128 166 200 250 321 391
#
# _framework density 20.450665000000001
#
# number of rings (size 3 to 8) (size 9 to 14) (size 15 to 20)
#    0.000    1.909    3.636    1.091    0.000    1.818 
#    0.000    4.545    0.000    5.455    0.000    0.000 
#    0.000    0.000    0.000    0.000    0.000    0.000 
#
# Total GULP energy -245202.466192 kJ/mol
# GULP energy per Si atom -5572.783323 kJ/mol
# Density = 2.040412 g / cm^3
# Si number density = 20.450665 Si / 1000 Ang^3
#
#
#
# Elastic Constant Matrix: (Units=GPa)
#
#
# Indices 1 2 3 4 5 6 
#
# 1 49.4994 60.6396 45.7639 0.0000 0.0000 0.0000
# 2 60.6396 49.4995 45.7634 0.0000 0.0000 0.0000
# 3 45.7639 45.7634 158.9422 0.0000 0.0000 0.0000
# 4 0.0000 0.0000 0.0000 25.0047 0.0000 0.0000
# 5 0.0000 0.0000 0.0000 0.0000 25.0049 0.0000
# 6 0.0000 0.0000 0.0000 0.0000 0.0000 36.5397
#
#
#
# Elastic Compliance Matrix: (Units=1/GPa)
#
#
# Indices 1 2 3 4 5 6 
#
# 1 -0.038915 0.050850 -0.003436 0.000000 0.000000 0.000000
# 2 0.050850 -0.038915 -0.003437 0.000000 0.000000 0.000000
# 3 -0.003436 -0.003437 0.008270 0.000000 0.000000 0.000000
# 4 0.000000 0.000000 0.000000 0.039992 0.000000 0.000000
# 5 0.000000 0.000000 0.000000 0.000000 0.039992 0.000000
# 6 0.000000 0.000000 0.000000 0.000000 0.000000 0.027367
#
#
# Mechanical properties :
#
#
# Convention : Reuss Voigt Hill
#
# Bulk Modulus (GPa) = 54.36251 62.47500 58.41876
# Shear Modulus (GPa) = -113.55789 24.36147 -44.59821
#
# Velocity S-wave (km/s) = -7.45978 3.45517 -4.67494
# Velocity P-wave (km/s) = 6.89621 6.82151 0.71579
#
# Compressibility (1/GPa) = 0.01839503
#
# Stress axis : x y z
#
# Youngs Moduli (GPa) = -25.69689 -25.69712 120.91189
#
# Poissons Ratio (x) = 1.30670 0.41548
# Poissons Ratio (y) = 1.30669 0.41553
# Poissons Ratio (z) = -0.08830 -0.08831
#
# Static dielectric constant tensor:
#      x y z
#    x 1.810240 0.000000 0.000000 
#    y 0.000000 1.810240 0.000000 
#    z 0.000000 0.000000 1.704600 
# 
# From -- ./inp_files/8075.got.cif
#   From: 2010.05.17/outbox.cif.g08.bks.cpg/sg97_5_cif.got.tgz:8075.got - 2010.06.03 19:55:32.
