data_PCOD9551586
_publ_section_title
;
Structure prediction by ZEFSAII (Michael W. Deem and Ramdas Pophale) SiO2 
 PCOD9551586
Probable space group: I 4 2 2 
;
_chemical_formula_sum "Si O2"
_cell_formula_units_Z 52
_cell_length_a 17.291918
_cell_length_b 17.291918
_cell_length_c 8.120759
_cell_angle_alpha 90.000000
_cell_angle_beta 90.000000
_cell_angle_gamma 90.000000
_cell_volume 2428.191625
_symmetry_space_group_name_H-M "I 4 2 2 "
_symmetry_group_IT_number 97
_symmetry_cell_setting 'tetragonal'
loop_
_space_group_symop_operation_xyz
x,y,z
-y,x,z
-x,-y,z
y,-x,z
x,-y,-z
-x,y,-z
y,x,-z
-y,-x,-z
1/2+x,1/2+y,1/2+z
1/2-y,1/2+x,1/2+z
1/2-x,1/2-y,1/2+z
1/2+y,1/2-x,1/2+z
1/2+x,1/2-y,1/2-z
1/2-x,1/2+y,1/2-z
1/2+y,1/2+x,1/2-z
1/2-y,1/2-x,1/2-z
loop_
_atom_site_type_symbol
_atom_site_label
_atom_site_fract_x
_atom_site_fract_y
_atom_site_fract_z
Si Si1 0.000000 0.000000 0.800428
Si Si2 0.219441 0.596866 0.682621
Si Si3 0.579248 0.204278 0.705445
Si Si4 0.390805 0.627096 0.813684
O O1 0.084384 0.955769 0.793458
O O2 0.162852 0.662852 0.750000
O O3 0.188934 0.511543 0.727928
O O4 0.224129 0.597242 0.484827
O O5 0.304884 0.608036 0.754429
O O6 0.632191 0.132191 0.750000
O O7 0.599418 0.280787 0.808585
O O8 0.402432 0.597569 0.000000
#
# Coordination Sequence:
#
# PCOD9551586 Si02
#       4
#     4  16  16  16
#     4  12  25  40  69 106 133 168 209 258 321 384
#     4  11  25  44  66  95 129 170 217 265 322 380
#     4  11  25  44  66  95 129 170 217 265 322 380
#     4  12  23  42  68  98 134 169 212 261 321 384
#
# _framework density 21.415113999999999
#
# number of rings (size 3 to 8) (size 9 to 14) (size 15 to 20)
#    0.000    0.615    3.077    5.077    0.000    4.308 
#    0.000    6.154    0.000    0.000    0.000    0.000 
#    0.000    0.000    0.000    0.000    0.000    0.000 
#
# Total GULP energy -145097.753314 kJ/mol
# GULP energy per Si atom -5580.682820 kJ/mol
# Density = 2.136637 g / cm^3
# Si number density = 21.415114 Si / 1000 Ang^3
#
#
#
# Elastic Constant Matrix: (Units=GPa)
#
#
# Indices 1 2 3 4 5 6 
#
# 1 74.0174 33.6470 -0.3820 0.0000 0.0000 0.0000
# 2 33.6470 74.0183 -0.3816 0.0000 0.0000 0.0000
# 3 -0.3820 -0.3816 45.6783 0.0000 0.0000 0.0000
# 4 0.0000 0.0000 0.0000 -34.9781 0.0000 0.0000
# 5 0.0000 0.0000 0.0000 0.0000 -34.9769 0.0000
# 6 0.0000 0.0000 0.0000 0.0000 0.0000 48.0625
#
#
#
# Elastic Compliance Matrix: (Units=1/GPa)
#
#
# Indices 1 2 3 4 5 6 
#
# 1 0.017030 -0.007741 0.000078 0.000000 0.000000 0.000000
# 2 -0.007741 0.017029 0.000078 0.000000 0.000000 0.000000
# 3 0.000078 0.000078 0.021894 0.000000 0.000000 0.000000
# 4 0.000000 0.000000 0.000000 -0.028589 0.000000 0.000000
# 5 0.000000 0.000000 0.000000 0.000000 -0.028590 0.000000
# 6 0.000000 0.000000 0.000000 0.000000 0.000000 0.020806
#
#
# Mechanical properties :
#
#
# Convention : Reuss Voigt Hill
#
# Bulk Modulus (GPa) = 24.52101 28.83120 26.67610
# Shear Modulus (GPa) = 103.42514 6.34353 54.88433
#
# Velocity S-wave (km/s) = 6.95703 1.72296 5.06798
# Velocity P-wave (km/s) = 8.71830 4.17737 6.83591
#
# Compressibility (1/GPa) = 0.04078135
#
# Stress axis : x y z
#
# Youngs Moduli (GPa) = 58.72125 58.72196 45.67557
#
# Poissons Ratio (x) = 0.45456 -0.00355
# Poissons Ratio (y) = 0.45455 -0.00354
# Poissons Ratio (z) = -0.00457 -0.00455
#
# Static dielectric constant tensor:
#      x y z
#    x 1.731680 0.000000 0.000000 
#    y 0.000000 1.731680 0.000000 
#    z 0.000000 0.000000 1.856680 
# 
# From -- ./inp_files/1753.got.cif
#   From: 2010.05.17/outbox.cif.g08.bks.cpg/sg97_1_cif.got.tgz:1753.got - 2010.06.03 19:55:32.
