data_PCOD9551754
_publ_section_title
;
Structure prediction by ZEFSAII (Michael W. Deem and Ramdas Pophale) SiO2 
 PCOD9551754
Probable space group: I 41 2 2
;
_chemical_formula_sum "Si O2"
_cell_formula_units_Z 112
_cell_length_a 15.068493
_cell_length_b 15.068493
_cell_length_c 25.670044
_cell_angle_alpha 90.000000
_cell_angle_beta 90.000000
_cell_angle_gamma 90.000000
_cell_volume 5828.626875
_symmetry_space_group_name_H-M "I 41 2 2"
_symmetry_group_IT_number 98
_symmetry_cell_setting 'tetragonal'
loop_
_space_group_symop_operation_xyz
x,y,z
-y,1/2+x,1/4+z
-x,-y,z
y,1/2-x,1/4+z
x,1/2-y,1/4-z
-x,1/2+y,1/4-z
y,x,-z
-y,-x,-z
1/2+x,1/2+y,1/2+z
1/2-y,x,3/4+z
1/2-x,1/2-y,1/2+z
1/2+y,-x,3/4+z
1/2+x,-y,3/4-z
1/2-x,y,3/4-z
1/2+y,1/2+x,1/2-z
1/2-y,1/2-x,1/2-z
loop_
_atom_site_type_symbol
_atom_site_label
_atom_site_fract_x
_atom_site_fract_y
_atom_site_fract_z
Si Si1 0.647803 0.734081 0.886781
Si Si2 0.829004 0.427097 0.553822
Si Si3 0.739333 0.442363 0.813192
Si Si4 0.402185 0.166375 0.989696
Si Si5 0.000000 0.000000 0.757231
Si Si6 0.084133 0.284814 0.279581
Si Si7 0.583211 0.083211 0.250000
Si Si8 0.401265 0.483865 0.101939
O O1 0.750000 0.738986 0.875000
O O2 0.620073 0.766485 0.943632
O O3 0.603644 0.791782 0.840995
O O4 0.612787 0.633677 0.884545
O O5 0.857142 0.324495 0.551311
O O6 0.744696 0.478881 0.528146
O O7 0.835503 0.453772 0.614908
O O8 0.915611 0.471225 0.527022
O O9 0.750000 0.453477 0.875000
O O10 0.702821 0.531313 0.784247
O O11 0.833485 0.421760 0.787896
O O12 0.459283 0.085301 0.964489
O O13 0.306389 0.133941 0.011145
O O14 0.132171 0.367830 0.250000
O O15 0.503108 0.094917 0.290847
O O16 0.500000 0.500000 0.120986
#
# Coordination Sequence:
#
# PCOD9551754 Si02
#       8
#    16  16  16  16   8  16   8  16
#     4  11  22  36  55  83 125 154 202 264 310 367
#     4   9  18  34  55  76 109 153 196 247 291 359
#     4  11  22  37  57  84 119 166 213 255 296 365
#     4  10  20  37  53  84 115 156 205 241 304 368
#     4   8  16  32  58  75  99 146 200 234 282 362
#     4  10  20  34  55  85 113 152 193 245 314 368
#     4  12  23  36  54  84 117 162 214 254 302 366
#     4  11  22  37  49  78 121 165 206 250 299 361
#
# _framework density 19.215503999999999
#
# number of rings (size 3 to 8) (size 9 to 14) (size 15 to 20)
#    0.000    1.714    5.000    0.214    2.000    1.714 
#    2.571    0.000    0.000    0.000   18.571    0.000 
#    0.000    0.000    0.000    0.000    0.000    0.000 
#
# Total GULP energy -311765.728292 kJ/mol
# GULP energy per Si atom -5567.245148 kJ/mol
# Density = 1.917177 g / cm^3
# Si number density = 19.215504 Si / 1000 Ang^3
#
#
#
# Elastic Constant Matrix: (Units=GPa)
#
#
# Indices 1 2 3 4 5 6 
#
# 1 55.2415 30.3249 26.8823 0.0000 0.0000 0.0000
# 2 30.3249 55.2409 26.8823 0.0000 0.0000 0.0000
# 3 26.8823 26.8823 88.3986 0.0000 0.0000 0.0000
# 4 0.0000 0.0000 0.0000 16.0999 0.0000 0.0000
# 5 0.0000 0.0000 0.0000 0.0000 16.0997 0.0000
# 6 0.0000 0.0000 0.0000 0.0000 0.0000 26.9625
#
#
#
# Elastic Compliance Matrix: (Units=1/GPa)
#
#
# Indices 1 2 3 4 5 6 
#
# 1 0.027291 -0.012843 -0.004393 0.000000 0.000000 0.000000
# 2 -0.012843 0.027291 -0.004394 0.000000 0.000000 0.000000
# 3 -0.004393 -0.004394 0.013985 0.000000 0.000000 0.000000
# 4 0.000000 0.000000 0.000000 0.062112 0.000000 0.000000
# 5 0.000000 0.000000 0.000000 0.000000 0.062113 0.000000
# 6 0.000000 0.000000 0.000000 0.000000 0.000000 0.037089
#
#
# Mechanical properties :
#
#
# Convention : Reuss Voigt Hill
#
# Bulk Modulus (GPa) = 39.51717 40.78444 40.15081
# Shear Modulus (GPa) = 17.75718 19.48519 18.62119
#
# Velocity S-wave (km/s) = 3.04321 3.18785 3.11637
# Velocity P-wave (km/s) = 5.74091 5.90090 5.82146
#
# Compressibility (1/GPa) = 0.02530545
#
# Stress axis : x y z
#
# Youngs Moduli (GPa) = 36.64247 36.64193 71.50741
#
# Poissons Ratio (x) = 0.47061 0.31417
# Poissons Ratio (y) = 0.47061 0.31417
# Poissons Ratio (z) = 0.16099 0.16099
#
# Static dielectric constant tensor:
#      x y z
#    x 1.733440 0.000000 0.000000 
#    y 0.000000 1.733440 0.000000 
#    z 0.000000 0.000000 1.708070 
# 
# From -- ./inp_files/11004.got.cif
#   From: 2010.05.17/outbox.cif.g08.bks.cpg/sg98_6_cif.got.tgz:11004.got - 2010.06.03 20:00:51.
