data_PCOD9551171
_publ_section_title
;
Structure prediction by ZEFSAII (Michael W. Deem and Ramdas Pophale) SiO2 
 PCOD9551171
Probable space group: P 43 21 2
;
_chemical_formula_sum "Si O2"
_cell_formula_units_Z 48
_cell_length_a 8.094335
_cell_length_b 8.094335
_cell_length_c 28.536326
_cell_angle_alpha 90.000000
_cell_angle_beta 90.000000
_cell_angle_gamma 90.000000
_cell_volume 1869.650400
_symmetry_space_group_name_H-M "P 43 21 2"
_symmetry_group_IT_number 96
_symmetry_cell_setting 'tetragonal'
loop_
_space_group_symop_operation_xyz
x,y,z
1/2-y,1/2+x,3/4+z
-x,-y,1/2+z
1/2+y,1/2-x,1/4+z
1/2+x,1/2-y,1/4-z
1/2-x,1/2+y,3/4-z
y,x,-z
-y,-x,1/2-z
loop_
_atom_site_type_symbol
_atom_site_label
_atom_site_fract_x
_atom_site_fract_y
_atom_site_fract_z
Si Si1 0.073412 0.548315 0.503839
Si Si2 0.653662 0.619014 0.588319
Si Si3 0.625613 0.122134 0.655864
Si Si4 0.579287 0.420714 0.250000
Si Si5 0.144878 0.593064 0.164297
Si Si6 0.467829 0.467829 0.500000
Si Si7 0.622374 0.403851 0.154489
O O1 0.025874 0.472714 0.553976
O O2 0.011154 0.440994 0.459370
O O3 0.273977 0.520689 0.504273
O O4 0.005624 0.734621 0.501332
O O5 0.759283 0.515574 0.626033
O O6 0.570323 0.526503 0.545375
O O7 0.504896 0.685439 0.620524
O O8 0.762917 0.769108 0.570651
O O9 0.731214 0.264586 0.679695
O O10 0.501562 0.180322 0.615533
O O11 0.758623 0.011848 0.627698
O O12 0.529823 0.487676 0.198212
#
# Coordination Sequence:
#
# PCOD9551171 Si02
#       7
#     8   8   8   4   8   4   8
#     4  12  24  49  80 119 164 216 278 345 431 510
#     4  12  27  47  80 113 156 216 267 341 417 510
#     4  12  24  49  79 110 160 214 270 340 418 498
#     4  12  27  44  77 118 162 216 267 360 417 522
#     4  12  25  49  78 117 158 211 280 344 412 511
#     4  12  25  52  83 114 160 230 275 338 439 516
#     4  12  25  48  70 112 159 202 269 333 413 495
#
# _framework density 25.673249999999999
#
# number of rings (size 3 to 8) (size 9 to 14) (size 15 to 20)
#    0.000    0.000    5.000    5.500    0.000    0.000 
#    6.000    0.000    0.000    0.000    0.000    0.000 
#    0.000    0.000    0.000    0.000    0.000    0.000 
#
# Total GULP energy -268435.435033 kJ/mol
# GULP energy per Si atom -5592.404897 kJ/mol
# Density = 2.561482 g / cm^3
# Si number density = 25.673250 Si / 1000 Ang^3
#
#
#
# Elastic Constant Matrix: (Units=GPa)
#
#
# Indices 1 2 3 4 5 6 
#
# 1 97.4232 65.3656 33.9437 0.0000 0.0000 0.0000
# 2 65.3656 97.4227 33.9438 0.0000 0.0000 0.0000
# 3 33.9437 33.9438 180.6639 0.0000 0.0000 0.0000
# 4 0.0000 0.0000 0.0000 52.3114 0.0000 0.0000
# 5 0.0000 0.0000 0.0000 0.0000 52.3114 0.0000
# 6 0.0000 0.0000 0.0000 0.0000 0.0000 51.2564
#
#
#
# Elastic Compliance Matrix: (Units=1/GPa)
#
#
# Indices 1 2 3 4 5 6 
#
# 1 0.018930 -0.012264 -0.001252 0.000000 0.000000 0.000000
# 2 -0.012264 0.018930 -0.001252 0.000000 0.000000 0.000000
# 3 -0.001252 -0.001252 0.006006 0.000000 0.000000 0.000000
# 4 0.000000 0.000000 0.000000 0.019116 0.000000 0.000000
# 5 0.000000 0.000000 0.000000 0.000000 0.019116 0.000000
# 6 0.000000 0.000000 0.000000 0.000000 0.000000 0.019510
#
#
# Mechanical properties :
#
#
# Convention : Reuss Voigt Hill
#
# Bulk Modulus (GPa) = 69.79855 71.33513 70.56684
# Shear Modulus (GPa) = 36.78609 47.32631 42.05620
#
# Velocity S-wave (km/s) = 3.78942 4.29815 4.05178
# Velocity P-wave (km/s) = 6.81121 7.24419 7.03103
#
# Compressibility (1/GPa) = 0.01432694
#
# Stress axis : x y z
#
# Youngs Moduli (GPa) = 52.82738 52.82711 166.50841
#
# Poissons Ratio (x) = 0.64790 0.20851
# Poissons Ratio (y) = 0.64790 0.20852
# Poissons Ratio (z) = 0.06615 0.06615
#
# Static dielectric constant tensor:
#      x y z
#    x 2.030090 0.000000 0.000000 
#    y 0.000000 2.030100 0.000000 
#    z 0.000000 0.000000 1.994700 
# 
# From -- ./inp_files/4552.got.cif
#   From: 2010.05.17/outbox.cif.g08.bks.cpg/sg96_3_cif.got.tgz:4552.got - 2010.06.03 19:52:08.
