data_PCOD9551429
_publ_section_title
;
Structure prediction by ZEFSAII (Michael W. Deem and Ramdas Pophale) SiO2 
 PCOD9551429
Probable space group: I 4 2 2 
;
_chemical_formula_sum "Si O2"
_cell_formula_units_Z 64
_cell_length_a 13.361106
_cell_length_b 13.361106
_cell_length_c 15.662405
_cell_angle_alpha 90.000000
_cell_angle_beta 90.000000
_cell_angle_gamma 90.000000
_cell_volume 2796.039283
_symmetry_space_group_name_H-M "I 4 2 2 "
_symmetry_group_IT_number 97
_symmetry_cell_setting 'tetragonal'
loop_
_space_group_symop_operation_xyz
x,y,z
-y,x,z
-x,-y,z
y,-x,z
x,-y,-z
-x,y,-z
y,x,-z
-y,-x,-z
1/2+x,1/2+y,1/2+z
1/2-y,1/2+x,1/2+z
1/2-x,1/2-y,1/2+z
1/2+y,1/2-x,1/2+z
1/2+x,1/2-y,1/2-z
1/2-x,1/2+y,1/2-z
1/2+y,1/2+x,1/2-z
1/2-y,1/2-x,1/2-z
loop_
_atom_site_type_symbol
_atom_site_label
_atom_site_fract_x
_atom_site_fract_y
_atom_site_fract_z
Si Si1 0.354089 0.899147 0.455866
Si Si2 0.556018 0.660287 0.858738
Si Si3 0.754769 0.583323 0.325585
Si Si4 0.613073 0.707316 0.425506
O O1 0.237691 0.915019 0.432622
O O2 0.409232 0.864709 0.368016
O O3 0.371537 0.810331 0.523676
O O4 0.389612 0.000000 0.500000
O O5 0.440565 0.622713 0.860951
O O6 0.571744 0.724747 0.772088
O O7 0.701476 0.683914 0.359576
O O8 0.706452 0.488291 0.373303
O O9 0.625275 0.625275 0.500000
#
# Coordination Sequence:
#
# PCOD9551429 Si02
#       4
#    16  16  16  16
#     4  11  26  43  68 101 144 189 232 284 353 433
#     4  11  25  45  72 105 141 186 238 299 361 423
#     4  11  22  45  72 103 141 184 239 294 358 418
#     4  10  22  40  71 103 137 181 232 296 353 415
#
# _framework density 22.889520000000001
#
# number of rings (size 3 to 8) (size 9 to 14) (size 15 to 20)
#    0.000    1.250    2.500    3.750   10.500    2.500 
#    0.000    6.250    0.000    6.000    0.000    0.000 
#    0.000    0.000    0.000    0.000    0.000    0.000 
#
# Total GULP energy -178751.412230 kJ/mol
# GULP energy per Si atom -5585.981632 kJ/mol
# Density = 2.283742 g / cm^3
# Si number density = 22.889520 Si / 1000 Ang^3
#
#
#
# Elastic Constant Matrix: (Units=GPa)
#
#
# Indices 1 2 3 4 5 6 
#
# 1 100.1671 -2.6931 31.1573 0.0000 0.0000 0.0000
# 2 -2.6931 100.1671 31.1573 0.0000 0.0000 0.0000
# 3 31.1573 31.1573 75.9738 0.0000 0.0000 0.0000
# 4 0.0000 0.0000 0.0000 31.5721 0.0000 0.0000
# 5 0.0000 0.0000 0.0000 0.0000 31.5721 0.0000
# 6 0.0000 0.0000 0.0000 0.0000 0.0000 20.9970
#
#
#
# Elastic Compliance Matrix: (Units=1/GPa)
#
#
# Indices 1 2 3 4 5 6 
#
# 1 0.011813 0.002091 -0.005702 0.000000 0.000000 0.000000
# 2 0.002091 0.011813 -0.005702 0.000000 0.000000 0.000000
# 3 -0.005702 -0.005702 0.017840 0.000000 0.000000 0.000000
# 4 0.000000 0.000000 0.000000 0.031674 0.000000 0.000000
# 5 0.000000 0.000000 0.000000 0.000000 0.031673 0.000000
# 6 0.000000 0.000000 0.000000 0.000000 0.000000 0.047626
#
#
# Mechanical properties :
#
#
# Convention : Reuss Voigt Hill
#
# Bulk Modulus (GPa) = 43.78404 43.95011 43.86708
# Shear Modulus (GPa) = 27.98318 31.27404 29.62861
#
# Velocity S-wave (km/s) = 3.50027 3.70036 3.60171
# Velocity P-wave (km/s) = 5.95867 6.12369 6.04174
#
# Compressibility (1/GPa) = 0.02283937
#
# Stress axis : x y z
#
# Youngs Moduli (GPa) = 84.65053 84.65053 56.05519
#
# Poissons Ratio (x) = -0.17703 0.31965
# Poissons Ratio (y) = -0.17703 0.31965
# Poissons Ratio (z) = 0.48271 0.48271
#
# Static dielectric constant tensor:
#      x y z
#    x 1.884030 0.000000 0.000000 
#    y 0.000000 1.884030 0.000000 
#    z 0.000000 0.000000 1.892540 
# 
# From -- ./inp_files/4551.got.cif
#   From: 2010.05.17/outbox.cif.g08.bks.cpg/sg97_3_cif.got.tgz:4551.got - 2010.06.03 19:55:32.
