data_PCOD9551571
_publ_section_title
;
Structure prediction by ZEFSAII (Michael W. Deem and Ramdas Pophale) SiO2 
 PCOD9551571
Probable space group: I 4 2 2 
;
_chemical_formula_sum "Si O2"
_cell_formula_units_Z 48
_cell_length_a 8.101217
_cell_length_b 8.101217
_cell_length_c 32.827841
_cell_angle_alpha 90.000000
_cell_angle_beta 90.000000
_cell_angle_gamma 90.000000
_cell_volume 2154.481911
_symmetry_space_group_name_H-M "I 4 2 2 "
_symmetry_group_IT_number 97
_symmetry_cell_setting 'tetragonal'
loop_
_space_group_symop_operation_xyz
x,y,z
-y,x,z
-x,-y,z
y,-x,z
x,-y,-z
-x,y,-z
y,x,-z
-y,-x,-z
1/2+x,1/2+y,1/2+z
1/2-y,1/2+x,1/2+z
1/2-x,1/2-y,1/2+z
1/2+y,1/2-x,1/2+z
1/2+x,1/2-y,1/2-z
1/2-x,1/2+y,1/2-z
1/2+y,1/2+x,1/2-z
1/2-y,1/2-x,1/2-z
loop_
_atom_site_type_symbol
_atom_site_label
_atom_site_fract_x
_atom_site_fract_y
_atom_site_fract_z
Si Si1 0.500000 0.000000 0.360794
Si Si2 0.581543 0.765993 0.710297
Si Si3 0.197700 0.802301 0.500000
Si Si4 0.875826 0.758313 0.915236
O O1 0.406409 0.877443 0.329686
O O2 0.638047 0.907453 0.388767
O O3 0.394627 0.698031 0.710125
O O4 0.630562 0.869439 0.750000
O O5 0.240171 0.686404 0.461545
O O6 0.000000 0.778621 0.500000
O O7 0.068728 0.790324 0.905960
#
# Coordination Sequence:
#
# PCOD9551571 Si02
#       4
#     8  16   8  16
#     4  12  23  40  67 102 142 184 246 314 370 440
#     4  11  24  44  71 105 150 202 251 303 370 445
#     4  11  24  43  66  96 136 181 234 301 378 452
#     4  11  24  42  66  96 133 183 241 303 372 445
#
# _framework density 22.279140000000002
#
# number of rings (size 3 to 8) (size 9 to 14) (size 15 to 20)
#    0.000    0.833    0.000    7.500    0.000    5.333 
#    0.000    0.000    0.000    4.000    0.000    0.000 
#    0.000    0.000    0.000    0.000    0.000    0.000 
#
# Total GULP energy -133827.856429 kJ/mol
# GULP energy per Si atom -5576.160685 kJ/mol
# Density = 2.222843 g / cm^3
# Si number density = 22.279140 Si / 1000 Ang^3
#
#
#
# Elastic Constant Matrix: (Units=GPa)
#
#
# Indices 1 2 3 4 5 6 
#
# 1 108.9053 56.9514 78.2453 0.0000 0.0000 0.0000
# 2 56.9514 108.9047 78.2450 0.0000 0.0000 0.0000
# 3 78.2453 78.2450 216.4263 0.0000 0.0000 0.0000
# 4 0.0000 0.0000 0.0000 55.4717 0.0000 0.0000
# 5 0.0000 0.0000 0.0000 0.0000 55.4715 0.0000
# 6 0.0000 0.0000 0.0000 0.0000 0.0000 44.5865
#
#
#
# Elastic Compliance Matrix: (Units=1/GPa)
#
#
# Indices 1 2 3 4 5 6 
#
# 1 0.014199 -0.005049 -0.003308 0.000000 0.000000 0.000000
# 2 -0.005049 0.014199 -0.003308 0.000000 0.000000 0.000000
# 3 -0.003308 -0.003308 0.007013 0.000000 0.000000 0.000000
# 4 0.000000 0.000000 0.000000 0.018027 0.000000 0.000000
# 5 0.000000 0.000000 0.000000 0.000000 0.018027 0.000000
# 6 0.000000 0.000000 0.000000 0.000000 0.000000 0.022428
#
#
# Mechanical properties :
#
#
# Convention : Reuss Voigt Hill
#
# Bulk Modulus (GPa) = 82.77470 95.67996 89.22733
# Shear Modulus (GPa) = 41.23658 45.82558 43.53108
#
# Velocity S-wave (km/s) = 4.30688 4.54021 4.42508
# Velocity P-wave (km/s) = 7.87188 8.39785 8.13911
#
# Compressibility (1/GPa) = 0.01208099
#
# Stress axis : x y z
#
# Youngs Moduli (GPa) = 70.42581 70.42549 142.59989
#
# Poissons Ratio (x) = 0.35555 0.47176
# Poissons Ratio (y) = 0.35555 0.47176
# Poissons Ratio (z) = 0.23299 0.23299
#
# Static dielectric constant tensor:
#      x y z
#    x 1.833210 0.000000 0.000000 
#    y 0.000000 1.833200 0.000000 
#    z 0.000000 0.000000 1.852420 
# 
# From -- ./inp_files/7820.got.cif
#   From: 2010.05.17/outbox.cif.g08.bks.cpg/sg97_4_cif.got.tgz:7820.got - 2010.06.03 19:55:32.
