data_PCOD9551638
_publ_section_title
;
Structure prediction by ZEFSAII (Michael W. Deem and Ramdas Pophale) SiO2 
 PCOD9551638
Probable space group: I 41 2 2
;
_chemical_formula_sum "Si O2"
_cell_formula_units_Z 48
_cell_length_a 8.118899
_cell_length_b 8.118899
_cell_length_c 33.062286
_cell_angle_alpha 90.000000
_cell_angle_beta 90.000000
_cell_angle_gamma 90.000000
_cell_volume 2179.350869
_symmetry_space_group_name_H-M "I 41 2 2"
_symmetry_group_IT_number 98
_symmetry_cell_setting 'tetragonal'
loop_
_space_group_symop_operation_xyz
x,y,z
-y,1/2+x,1/4+z
-x,-y,z
y,1/2-x,1/4+z
x,1/2-y,1/4-z
-x,1/2+y,1/4-z
y,x,-z
-y,-x,-z
1/2+x,1/2+y,1/2+z
1/2-y,x,3/4+z
1/2-x,1/2-y,1/2+z
1/2+y,-x,3/4+z
1/2+x,-y,3/4-z
1/2-x,y,3/4-z
1/2+y,1/2+x,1/2-z
1/2-y,1/2-x,1/2-z
loop_
_atom_site_type_symbol
_atom_site_label
_atom_site_fract_x
_atom_site_fract_y
_atom_site_fract_z
Si Si1 0.763103 0.885388 0.042287
Si Si2 0.733060 0.384267 0.790069
Si Si3 0.000000 0.000000 0.600383
Si Si4 0.263086 0.250000 0.625000
O O1 0.575437 0.820667 0.035252
O O2 0.841299 0.783989 0.080630
O O3 0.733796 0.079293 0.049752
O O4 0.855639 0.855639 0.000000
O O5 0.818813 0.318813 0.750000
O O6 0.869676 0.397681 0.824378
O O7 0.862558 0.902703 0.624252
#
# Coordination Sequence:
#
# PCOD9551638 Si02
#       4
#    16  16   8   8
#     4  10  21  35  55  84 115 154 199 248 303 357
#     4  10  19  33  57  84 114 153 198 248 299 358
#     4  10  17  30  54  90 116 148 194 244 299 350
#     4  10  18  32  56  84 120 150 192 246 290 354
#
# _framework density 22.024905
#
# number of rings (size 3 to 8) (size 9 to 14) (size 15 to 20)
#    0.000    2.000    0.000    8.500    0.000    0.667 
#    0.000    0.000    0.000   24.000    0.000    0.000 
#    0.000    0.000    0.000    0.000    0.000    0.000 
#
# Total GULP energy -133888.857909 kJ/mol
# GULP energy per Si atom -5578.702413 kJ/mol
# Density = 2.197478 g / cm^3
# Si number density = 22.024905 Si / 1000 Ang^3
#
#
#
# Elastic Constant Matrix: (Units=GPa)
#
#
# Indices 1 2 3 4 5 6 
#
# 1 62.8552 16.5359 31.3689 0.0000 0.0000 0.0000
# 2 16.5359 62.8552 31.3689 0.0000 0.0000 0.0000
# 3 31.3689 31.3689 156.7016 0.0000 0.0000 0.0000
# 4 0.0000 0.0000 0.0000 17.4596 0.0000 0.0000
# 5 0.0000 0.0000 0.0000 0.0000 17.4596 0.0000
# 6 0.0000 0.0000 0.0000 0.0000 0.0000 17.8011
#
#
#
# Elastic Compliance Matrix: (Units=1/GPa)
#
#
# Indices 1 2 3 4 5 6 
#
# 1 0.018276 -0.003313 -0.002995 0.000000 0.000000 0.000000
# 2 -0.003313 0.018276 -0.002995 0.000000 0.000000 0.000000
# 3 -0.002995 -0.002995 0.007581 0.000000 0.000000 0.000000
# 4 0.000000 0.000000 0.000000 0.057275 0.000000 0.000000
# 5 0.000000 0.000000 0.000000 0.000000 0.057275 0.000000
# 6 0.000000 0.000000 0.000000 0.000000 0.000000 0.056176
#
#
# Mechanical properties :
#
#
# Convention : Reuss Voigt Hill
#
# Bulk Modulus (GPa) = 39.17683 48.99549 44.08616
# Shear Modulus (GPa) = 20.66326 24.08662 22.37494
#
# Velocity S-wave (km/s) = 3.06629 3.31056 3.19077
# Velocity P-wave (km/s) = 5.51020 6.07510 5.79953
#
# Compressibility (1/GPa) = 0.02552529
#
# Stress axis : x y z
#
# Youngs Moduli (GPa) = 54.71635 54.71635 131.91281
#
# Poissons Ratio (x) = 0.18129 0.39512
# Poissons Ratio (y) = 0.18129 0.39512
# Poissons Ratio (z) = 0.16389 0.16389
#
# Static dielectric constant tensor:
#      x y z
#    x 1.912620 0.000000 0.000000 
#    y 0.000000 1.912620 0.000000 
#    z 0.000000 0.000000 1.929600 
# 
# From -- ./inp_files/11477.got.cif
#   From: 2010.05.17/outbox.cif.g08.bks.cpg/sg98_6_cif.got.tgz:11477.got - 2010.06.03 20:00:51.
