data_PCOD9551472
_publ_section_title
;
Structure prediction by ZEFSAII (Michael W. Deem and Ramdas Pophale) SiO2 
 PCOD9551472
Probable space group: I 4 2 2 
;
_chemical_formula_sum "Si O2"
_cell_formula_units_Z 80
_cell_length_a 11.755977
_cell_length_b 11.755977
_cell_length_c 28.043086
_cell_angle_alpha 90.000000
_cell_angle_beta 90.000000
_cell_angle_gamma 90.000000
_cell_volume 3875.638481
_symmetry_space_group_name_H-M "I 4 2 2 "
_symmetry_group_IT_number 97
_symmetry_cell_setting 'tetragonal'
loop_
_space_group_symop_operation_xyz
x,y,z
-y,x,z
-x,-y,z
y,-x,z
x,-y,-z
-x,y,-z
y,x,-z
-y,-x,-z
1/2+x,1/2+y,1/2+z
1/2-y,1/2+x,1/2+z
1/2-x,1/2-y,1/2+z
1/2+y,1/2-x,1/2+z
1/2+x,1/2-y,1/2-z
1/2-x,1/2+y,1/2-z
1/2+y,1/2+x,1/2-z
1/2-y,1/2-x,1/2-z
loop_
_atom_site_type_symbol
_atom_site_label
_atom_site_fract_x
_atom_site_fract_y
_atom_site_fract_z
Si Si1 0.932483 0.172480 0.683170
Si Si2 0.293185 0.685317 0.436546
Si Si3 0.770427 0.000000 0.000000
Si Si4 0.093435 0.838996 0.569157
Si Si5 0.844976 0.112938 0.830463
Si Si6 0.775675 0.275675 0.750000
O O1 0.918423 0.180076 0.626402
O O2 0.883630 0.272011 0.714995
O O3 0.061005 0.141927 0.695307
O O4 0.215771 0.595290 0.465687
O O5 0.418670 0.669665 0.460075
O O6 0.254131 0.814375 0.445574
O O7 0.295916 0.655292 0.381090
O O8 0.961022 0.850387 0.555306
O O9 0.779866 0.171156 0.786840
O O10 0.976629 0.153238 0.827996
#
# Coordination Sequence:
#
# PCOD9551472 Si02
#       6
#    16  16   8  16  16   8
#     4   9  18  33  54  80 111 150 203 255 307 358
#     4  11  20  40  64 100 130 165 212 268 336 393
#     4  10  24  37  67  96 132 164 201 271 340 384
#     4   9  19  39  66  88 114 166 219 262 309 381
#     4  11  23  38  62  92 129 166 216 267 319 392
#     4  12  20  32  54  86 122 160 206 254 314 376
#
# _framework density 20.641759
#
# number of rings (size 3 to 8) (size 9 to 14) (size 15 to 20)
#    0.000    1.800    4.000    2.400    0.000    4.800 
#    0.000    6.000    0.000   19.200    0.000    0.000 
#    0.000    0.000    0.000    0.000    0.000    0.000 
#
# Total GULP energy -222735.165893 kJ/mol
# GULP energy per Si atom -5568.379147 kJ/mol
# Density = 2.059478 g / cm^3
# Si number density = 20.641759 Si / 1000 Ang^3
#
#
#
# Elastic Constant Matrix: (Units=GPa)
#
#
# Indices 1 2 3 4 5 6 
#
# 1 50.7488 39.0663 25.4340 0.0000 0.0000 0.0000
# 2 39.0663 50.7488 25.4340 0.0000 0.0000 0.0000
# 3 25.4340 25.4340 133.5152 0.0000 0.0000 0.0000
# 4 0.0000 0.0000 0.0000 31.8875 0.0000 0.0000
# 5 0.0000 0.0000 0.0000 0.0000 31.8875 0.0000
# 6 0.0000 0.0000 0.0000 0.0000 0.0000 19.5131
#
#
#
# Elastic Compliance Matrix: (Units=1/GPa)
#
#
# Indices 1 2 3 4 5 6 
#
# 1 0.049039 -0.036559 -0.002377 0.000000 0.000000 0.000000
# 2 -0.036559 0.049039 -0.002377 0.000000 0.000000 0.000000
# 3 -0.002377 -0.002377 0.008396 0.000000 0.000000 0.000000
# 4 0.000000 0.000000 0.000000 0.031360 0.000000 0.000000
# 5 0.000000 0.000000 0.000000 0.000000 0.031360 0.000000
# 6 0.000000 0.000000 0.000000 0.000000 0.000000 0.051248
#
#
# Mechanical properties :
#
#
# Convention : Reuss Voigt Hill
#
# Bulk Modulus (GPa) = 41.93458 46.09796 44.01627
# Shear Modulus (GPa) = 16.07624 26.32954 21.20289
#
# Velocity S-wave (km/s) = 2.79376 3.57535 3.20845
# Velocity P-wave (km/s) = 5.54674 6.27894 5.92416
#
# Compressibility (1/GPa) = 0.02384667
#
# Stress axis : x y z
#
# Youngs Moduli (GPa) = 20.39188 20.39188 119.11029
#
# Poissons Ratio (x) = 0.74550 0.28318
# Poissons Ratio (y) = 0.74550 0.28318
# Poissons Ratio (z) = 0.04848 0.04848
#
# Static dielectric constant tensor:
#      x y z
#    x 1.752410 0.000000 0.000000 
#    y 0.000000 1.752410 0.000000 
#    z 0.000000 0.000000 1.788720 
# 
# From -- ./inp_files/7994.got.cif
#   From: 2010.05.17/outbox.cif.g08.bks.cpg/sg97_4_cif.got.tgz:7994.got - 2010.06.03 19:55:32.
