data_PCOD9551919
_publ_section_title
;
Structure prediction by ZEFSAII (Michael W. Deem and Ramdas Pophale) SiO2 
 PCOD9551919
Probable space group: I 41 2 2
;
_chemical_formula_sum "Si O2"
_cell_formula_units_Z 48
_cell_length_a 18.779928
_cell_length_b 18.779928
_cell_length_c 5.619396
_cell_angle_alpha 90.000000
_cell_angle_beta 90.000000
_cell_angle_gamma 90.000000
_cell_volume 1981.880588
_symmetry_space_group_name_H-M "I 41 2 2"
_symmetry_group_IT_number 98
_symmetry_cell_setting 'tetragonal'
loop_
_space_group_symop_operation_xyz
x,y,z
-y,1/2+x,1/4+z
-x,-y,z
y,1/2-x,1/4+z
x,1/2-y,1/4-z
-x,1/2+y,1/4-z
y,x,-z
-y,-x,-z
1/2+x,1/2+y,1/2+z
1/2-y,x,3/4+z
1/2-x,1/2-y,1/2+z
1/2+y,-x,3/4+z
1/2+x,-y,3/4-z
1/2-x,y,3/4-z
1/2+y,1/2+x,1/2-z
1/2-y,1/2-x,1/2-z
loop_
_atom_site_type_symbol
_atom_site_label
_atom_site_fract_x
_atom_site_fract_y
_atom_site_fract_z
Si Si1 0.505946 0.326241 0.259440
Si Si2 0.627628 0.627628 0.000000
Si Si3 0.853877 0.353877 0.750000
Si Si4 0.415535 0.750000 0.625000
Si Si5 0.750000 0.855844 0.875000
O O1 0.501846 0.250000 0.125000
O O2 0.528140 0.308527 0.528786
O O3 0.436815 0.370473 0.189647
O O4 0.578065 0.359777 0.165500
O O5 0.616862 0.701038 0.847090
O O6 0.784023 0.366085 0.583126
O O7 0.692374 0.807627 0.750000
#
# Coordination Sequence:
#
# PCOD9551919 Si02
#       5
#    16   8   8   8   8
#     4  10  23  44  70 101 146 195 243 311 376 449
#     4  12  26  41  68 106 144 204 258 311 386 440
#     4  10  22  43  78 106 148 192 244 310 379 482
#     4  10  22  47  78 106 154 193 244 314 400 457
#     4  12  22  41  60  96 144 185 256 318 362 451
#
# _framework density 24.219422000000002
#
# number of rings (size 3 to 8) (size 9 to 14) (size 15 to 20)
#    0.000    1.333    1.667    3.000    0.000   12.667 
#    0.000    0.000  132.000   16.000    0.000    0.000 
#    0.000    0.000    0.000    0.000    0.000    0.000 
#
# Total GULP energy -133739.740495 kJ/mol
# GULP energy per Si atom -5572.489187 kJ/mol
# Density = 2.416430 g / cm^3
# Si number density = 24.219422 Si / 1000 Ang^3
#
#
#
# Elastic Constant Matrix: (Units=GPa)
#
#
# Indices 1 2 3 4 5 6 
#
# 1 83.1903 50.4120 42.5791 0.0000 0.0000 0.0000
# 2 50.4120 83.1898 42.5810 0.0000 0.0000 0.0000
# 3 42.5791 42.5810 122.1588 0.0000 0.0000 0.0000
# 4 0.0000 0.0000 0.0000 45.1885 0.0000 0.0000
# 5 0.0000 0.0000 0.0000 0.0000 45.1881 0.0000
# 6 0.0000 0.0000 0.0000 0.0000 0.0000 37.2923
#
#
#
# Elastic Compliance Matrix: (Units=1/GPa)
#
#
# Indices 1 2 3 4 5 6 
#
# 1 0.020065 -0.010443 -0.003354 0.000000 0.000000 0.000000
# 2 -0.010443 0.020066 -0.003355 0.000000 0.000000 0.000000
# 3 -0.003354 -0.003355 0.010524 0.000000 0.000000 0.000000
# 4 0.000000 0.000000 0.000000 0.022130 0.000000 0.000000
# 5 0.000000 0.000000 0.000000 0.000000 0.022130 0.000000
# 6 0.000000 0.000000 0.000000 0.000000 0.000000 0.026815
#
#
# Mechanical properties :
#
#
# Convention : Reuss Voigt Hill
#
# Bulk Modulus (GPa) = 61.14921 62.18701 61.66811
# Shear Modulus (GPa) = 30.96297 35.73156 33.34726
#
# Velocity S-wave (km/s) = 3.57940 3.84517 3.71466
# Velocity P-wave (km/s) = 6.51042 6.74136 6.62690
#
# Compressibility (1/GPa) = 0.01635344
#
# Stress axis : x y z
#
# Youngs Moduli (GPa) = 49.83725 49.83590 95.01760
#
# Poissons Ratio (x) = 0.52042 0.31868
# Poissons Ratio (y) = 0.52043 0.31874
# Poissons Ratio (z) = 0.16715 0.16718
#
# Static dielectric constant tensor:
#      x y z
#    x 1.941780 0.000000 0.000000 
#    y 0.000000 1.941780 0.000000 
#    z 0.000000 0.000000 1.918190 
# 
# From -- ./inp_files/948.got.cif
#   From: 2010.05.17/outbox.cif.g08.bks.cpg/sg98_1_cif.got.tgz:948.got - 2010.06.03 20:00:51.
