data_PCOD9551742
_publ_section_title
;
Structure prediction by ZEFSAII (Michael W. Deem and Ramdas Pophale) SiO2 
 PCOD9551742
Probable space group: I 41 2 2
;
_chemical_formula_sum "Si O2"
_cell_formula_units_Z 72
_cell_length_a 28.486487
_cell_length_b 28.486487
_cell_length_c 5.569829
_cell_angle_alpha 90.000000
_cell_angle_beta 90.000000
_cell_angle_gamma 90.000000
_cell_volume 4519.804512
_symmetry_space_group_name_H-M "I 41 2 2"
_symmetry_group_IT_number 98
_symmetry_cell_setting 'tetragonal'
loop_
_space_group_symop_operation_xyz
x,y,z
-y,1/2+x,1/4+z
-x,-y,z
y,1/2-x,1/4+z
x,1/2-y,1/4-z
-x,1/2+y,1/4-z
y,x,-z
-y,-x,-z
1/2+x,1/2+y,1/2+z
1/2-y,x,3/4+z
1/2-x,1/2-y,1/2+z
1/2+y,-x,3/4+z
1/2+x,-y,3/4-z
1/2-x,y,3/4-z
1/2+y,1/2+x,1/2-z
1/2-y,1/2-x,1/2-z
loop_
_atom_site_type_symbol
_atom_site_label
_atom_site_fract_x
_atom_site_fract_y
_atom_site_fract_z
Si Si1 0.839940 0.784700 0.820156
Si Si2 0.946751 0.773743 0.884918
Si Si3 0.130730 0.130730 0.500000
Si Si4 0.373753 0.445442 0.369654
Si Si5 0.974866 0.448023 0.002923
O O1 0.820329 0.750000 0.625000
O O2 0.890381 0.764011 0.894467
O O3 0.856677 0.833210 0.705752
O O4 0.800264 0.800264 0.000000
O O5 0.961149 0.750000 0.625000
O O6 0.967872 0.750000 0.125000
O O7 0.953819 0.829496 0.951677
O O8 0.140208 0.080761 0.621850
O O9 0.409795 0.409795 0.500000
O O10 0.405703 0.488623 0.283849
O O11 0.946135 0.446135 0.250000
O O12 0.000000 0.500000 0.002934
O O13 0.947660 0.447660 0.750000
#
# Coordination Sequence:
#
# PCOD9551742 Si02
#       5
#    16  16   8  16  16
#     4  11  23  35  53  68  83 105 143 197 251 311
#     4  11  23  37  53  75  92 117 159 205 242 300
#     4  12  20  36  53  70  88 112 156 176 252 316
#     4  12  21  33  54  76 100 131 157 198 260 314
#     4  10  20  33  47  75 107 127 153 189 227 315
#
# _framework density 15.929892000000001
#
# number of rings (size 3 to 8) (size 9 to 14) (size 15 to 20)
#    0.000    0.889    6.667    4.000    0.000    0.000 
#    0.000    0.000    2.444    1.333    0.000    0.000 
#    0.000    0.000    0.000    0.000    0.000    0.000 
#
# Total GULP energy -200474.954777 kJ/mol
# GULP energy per Si atom -5568.748744 kJ/mol
# Density = 1.589363 g / cm^3
# Si number density = 15.929892 Si / 1000 Ang^3
#
#
#
# Elastic Constant Matrix: (Units=GPa)
#
#
# Indices 1 2 3 4 5 6 
#
# 1 57.2500 46.7226 47.3378 0.0000 0.0000 0.0000
# 2 46.7226 57.2500 47.3378 0.0000 0.0000 0.0000
# 3 47.3378 47.3378 141.7117 0.0000 0.0000 0.0000
# 4 0.0000 0.0000 0.0000 32.2710 0.0000 0.0000
# 5 0.0000 0.0000 0.0000 0.0000 32.2710 0.0000
# 6 0.0000 0.0000 0.0000 0.0000 0.0000 24.9921
#
#
#
# Elastic Compliance Matrix: (Units=1/GPa)
#
#
# Indices 1 2 3 4 5 6 
#
# 1 0.054406 -0.040584 -0.004617 0.000000 0.000000 0.000000
# 2 -0.040584 0.054406 -0.004617 0.000000 0.000000 0.000000
# 3 -0.004617 -0.004617 0.010141 0.000000 0.000000 0.000000
# 4 0.000000 0.000000 0.000000 0.030988 0.000000 0.000000
# 5 0.000000 0.000000 0.000000 0.000000 0.030988 0.000000
# 6 0.000000 0.000000 0.000000 0.000000 0.000000 0.040013
#
#
# Mechanical properties :
#
#
# Convention : Reuss Voigt Hill
#
# Bulk Modulus (GPa) = 51.76806 59.88978 55.82892
# Shear Modulus (GPa) = 15.28974 25.56107 20.42541
#
# Velocity S-wave (km/s) = 3.10145 4.01009 3.58468
# Velocity P-wave (km/s) = 6.73745 7.68886 7.22883
#
# Compressibility (1/GPa) = 0.01931693
#
# Stress axis : x y z
#
# Youngs Moduli (GPa) = 18.38030 18.38030 98.60665
#
# Poissons Ratio (x) = 0.74594 0.45529
# Poissons Ratio (y) = 0.74594 0.45529
# Poissons Ratio (z) = 0.08487 0.08487
#
# Static dielectric constant tensor:
#      x y z
#    x 1.550730 0.000000 0.000000 
#    y 0.000000 1.550730 0.000000 
#    z 0.000000 0.000000 1.695290 
# 
# From -- ./inp_files/1643.got.cif
#   From: 2010.05.17/outbox.cif.g08.bks.cpg/sg98_1_cif.got.tgz:1643.got - 2010.06.03 20:00:51.
