data_PCOD9551038
_publ_section_title
;
Structure prediction by ZEFSAII (Michael W. Deem and Ramdas Pophale) SiO2 
 PCOD9551038
Probable space group: P 43 21 2
;
_chemical_formula_sum "Si O2"
_cell_formula_units_Z 24
_cell_length_a 12.985567
_cell_length_b 12.985567
_cell_length_c 4.856196
_cell_angle_alpha 90.000000
_cell_angle_beta 90.000000
_cell_angle_gamma 90.000000
_cell_volume 818.875809
_symmetry_space_group_name_H-M "P 43 21 2"
_symmetry_group_IT_number 96
_symmetry_cell_setting 'tetragonal'
loop_
_space_group_symop_operation_xyz
x,y,z
1/2-y,1/2+x,3/4+z
-x,-y,1/2+z
1/2+y,1/2-x,1/4+z
1/2+x,1/2-y,1/4-z
1/2-x,1/2+y,3/4-z
y,x,-z
-y,-x,1/2-z
loop_
_atom_site_type_symbol
_atom_site_label
_atom_site_fract_x
_atom_site_fract_y
_atom_site_fract_z
Si Si1 0.528767 0.358771 0.585504
Si Si2 0.134952 0.696231 0.226402
Si Si3 0.744784 0.987169 0.298227
O O1 0.441286 0.263167 0.728038
O O2 0.563480 0.281291 0.350718
O O3 0.560623 0.560623 0.000000
O O4 0.556522 0.365481 0.919128
O O5 0.239798 0.760203 0.250000
O O6 0.085577 0.698616 0.528808
O O7 0.160506 0.588883 0.088526
#
# Coordination Sequence:
#
# PCOD9551038 Si02
#       3
#     8   8   8
#     4  10  23  45  73 111 156 209 276 345 408 505
#     4  10  25  47  81 118 163 225 277 349 434 510
#     4  10  24  43  77 112 159 211 278 345 417 514
#
# _framework density 29.308472999999999
#
# number of rings (size 3 to 8) (size 9 to 14) (size 15 to 20)
#    2.000    0.000    0.000    2.000    4.667    1.333 
#    6.000    0.000    7.333    4.000    0.000    0.000 
#    0.000    0.000    0.000    0.000    0.000    0.000 
#
# Total GULP energy -134016.311733 kJ/mol
# GULP energy per Si atom -5584.012989 kJ/mol
# Density = 2.924177 g / cm^3
# Si number density = 29.308473 Si / 1000 Ang^3
#
#
#
# Elastic Constant Matrix: (Units=GPa)
#
#
# Indices 1 2 3 4 5 6 
#
# 1 166.1163 104.2451 92.2646 0.0000 0.0000 0.0000
# 2 104.2451 166.1160 92.2644 0.0000 0.0000 0.0000
# 3 92.2646 92.2644 318.2027 0.0000 0.0000 0.0000
# 4 0.0000 0.0000 0.0000 82.3532 0.0000 0.0000
# 5 0.0000 0.0000 0.0000 0.0000 82.3526 0.0000
# 6 0.0000 0.0000 0.0000 0.0000 0.0000 104.7904
#
#
#
# Elastic Compliance Matrix: (Units=1/GPa)
#
#
# Indices 1 2 3 4 5 6 
#
# 1 0.010387 -0.005776 -0.001337 0.000000 0.000000 0.000000
# 2 -0.005776 0.010387 -0.001337 0.000000 0.000000 0.000000
# 3 -0.001337 -0.001337 0.003918 0.000000 0.000000 0.000000
# 4 0.000000 0.000000 0.000000 0.012143 0.000000 0.000000
# 5 0.000000 0.000000 0.000000 0.000000 0.012143 0.000000
# 6 0.000000 0.000000 0.000000 0.000000 0.000000 0.009543
#
#
# Mechanical properties :
#
#
# Convention : Reuss Voigt Hill
#
# Bulk Modulus (GPa) = 128.33011 136.44258 132.38634
# Shear Modulus (GPa) = 64.08801 78.00998 71.04899
#
# Velocity S-wave (km/s) = 4.68126 5.16475 4.92894
# Velocity P-wave (km/s) = 8.54985 9.06759 8.81253
#
# Compressibility (1/GPa) = 0.00779240
#
# Stress axis : x y z
#
# Youngs Moduli (GPa) = 96.27427 96.27413 255.22970
#
# Poissons Ratio (x) = 0.55605 0.34126
# Poissons Ratio (y) = 0.55605 0.34126
# Poissons Ratio (z) = 0.12873 0.12873
#
# Static dielectric constant tensor:
#      x y z
#    x 2.353190 0.000000 0.000000 
#    y 0.000000 2.353190 0.000000 
#    z 0.000000 0.000000 2.247090 
# 
# From -- ./inp_files/135.got.cif
#   From: 2010.05.17/outbox.cif.g08.bks.cpg/sg96_1_cif.got.tgz:135.got - 2010.06.03 19:52:08.
