data_PCOD9551451
_publ_section_title
;
Structure prediction by ZEFSAII (Michael W. Deem and Ramdas Pophale) SiO2 
 PCOD9551451
Probable space group: I 4 2 2 
;
_chemical_formula_sum "Si O2"
_cell_formula_units_Z 72
_cell_length_a 11.157123
_cell_length_b 11.157123
_cell_length_c 32.394016
_cell_angle_alpha 90.000000
_cell_angle_beta 90.000000
_cell_angle_gamma 90.000000
_cell_volume 4032.452257
_symmetry_space_group_name_H-M "I 4 2 2 "
_symmetry_group_IT_number 97
_symmetry_cell_setting 'tetragonal'
loop_
_space_group_symop_operation_xyz
x,y,z
-y,x,z
-x,-y,z
y,-x,z
x,-y,-z
-x,y,-z
y,x,-z
-y,-x,-z
1/2+x,1/2+y,1/2+z
1/2-y,1/2+x,1/2+z
1/2-x,1/2-y,1/2+z
1/2+y,1/2-x,1/2+z
1/2+x,1/2-y,1/2-z
1/2-x,1/2+y,1/2-z
1/2+y,1/2+x,1/2-z
1/2-y,1/2-x,1/2-z
loop_
_atom_site_type_symbol
_atom_site_label
_atom_site_fract_x
_atom_site_fract_y
_atom_site_fract_z
Si Si1 0.615389 0.115389 0.250000
Si Si2 0.141418 0.518343 0.168439
Si Si3 0.675021 0.587387 0.313561
Si Si4 0.254202 0.717860 0.868592
Si Si5 0.643238 0.356685 0.953539
O O1 0.504568 0.131037 0.217906
O O2 0.622253 0.226336 0.280729
O O3 0.229233 0.415687 0.149548
O O4 0.204376 0.642988 0.155129
O O5 0.000000 0.500000 0.154601
O O6 0.551109 0.653318 0.307581
O O7 0.719653 0.627820 0.358484
O O8 0.290796 0.707146 0.915990
O O9 0.662604 0.500062 0.949786
O O10 0.679211 0.320789 0.000000
#
# Coordination Sequence:
#
# PCOD9551451 Si02
#       5
#     8  16  16  16  16
#     4  10  23  38  60  77 112 146 197 266 304 336
#     4  11  24  38  58  85 120 158 204 254 301 364
#     4  10  23  40  56  78 109 156 205 245 295 360
#     4  11  20  37  61  86 119 158 194 244 309 360
#     4   9  17  32  57  90 124 149 182 238 304 370
#
# _framework density 17.855139999999999
#
# number of rings (size 3 to 8) (size 9 to 14) (size 15 to 20)
#    0.000    1.778    2.222    3.667    6.222    0.444 
#    0.000    0.000    0.000    6.667    0.000    1.556 
#    0.000    0.000    0.000    0.000    0.000    0.000 
#
# Total GULP energy -200442.870154 kJ/mol
# GULP energy per Si atom -5567.857504 kJ/mol
# Density = 1.781450 g / cm^3
# Si number density = 17.855140 Si / 1000 Ang^3
#
#
#
# Elastic Constant Matrix: (Units=GPa)
#
#
# Indices 1 2 3 4 5 6 
#
# 1 62.3296 34.2639 34.3124 0.0000 0.0000 0.0000
# 2 34.2639 62.3296 34.3124 0.0000 0.0000 0.0000
# 3 34.3124 34.3124 149.3650 0.0000 0.0000 0.0000
# 4 0.0000 0.0000 0.0000 25.6689 0.0000 0.0000
# 5 0.0000 0.0000 0.0000 0.0000 25.6689 0.0000
# 6 0.0000 0.0000 0.0000 0.0000 0.0000 38.6500
#
#
#
# Elastic Compliance Matrix: (Units=1/GPa)
#
#
# Indices 1 2 3 4 5 6 
#
# 1 0.024001 -0.011629 -0.002842 0.000000 0.000000 0.000000
# 2 -0.011629 0.024001 -0.002842 0.000000 0.000000 0.000000
# 3 -0.002842 -0.002842 0.008001 0.000000 0.000000 0.000000
# 4 0.000000 0.000000 0.000000 0.038958 0.000000 0.000000
# 5 0.000000 0.000000 0.000000 0.000000 0.038958 0.000000
# 6 0.000000 0.000000 0.000000 0.000000 0.000000 0.025873
#
#
# Mechanical properties :
#
#
# Convention : Reuss Voigt Hill
#
# Bulk Modulus (GPa) = 46.78122 53.31132 50.04627
# Shear Modulus (GPa) = 24.80842 29.40657 27.10749
#
# Velocity S-wave (km/s) = 3.73155 4.06267 3.90062
# Velocity P-wave (km/s) = 6.69501 7.20622 6.95531
#
# Compressibility (1/GPa) = 0.02137610
#
# Stress axis : x y z
#
# Youngs Moduli (GPa) = 41.66452 41.66452 124.98774
#
# Poissons Ratio (x) = 0.48453 0.35523
# Poissons Ratio (y) = 0.48453 0.35523
# Poissons Ratio (z) = 0.11841 0.11841
#
# Static dielectric constant tensor:
#      x y z
#    x 1.659060 0.000000 0.000000 
#    y 0.000000 1.659060 0.000000 
#    z 0.000000 0.000000 1.627210 
# 
# From -- ./inp_files/7911.got.cif
#   From: 2010.05.17/outbox.cif.g08.bks.cpg/sg97_4_cif.got.tgz:7911.got - 2010.06.03 19:55:32.
