data_PCOD9551140
_publ_section_title
;
Structure prediction by ZEFSAII (Michael W. Deem and Ramdas Pophale) SiO2 
 PCOD9551140
Probable space group: P 43 21 2
;
_chemical_formula_sum "Si O2"
_cell_formula_units_Z 56
_cell_length_a 11.194517
_cell_length_b 11.194517
_cell_length_c 19.997548
_cell_angle_alpha 90.000000
_cell_angle_beta 90.000000
_cell_angle_gamma 90.000000
_cell_volume 2506.036939
_symmetry_space_group_name_H-M "P 43 21 2"
_symmetry_group_IT_number 96
_symmetry_cell_setting 'tetragonal'
loop_
_space_group_symop_operation_xyz
x,y,z
1/2-y,1/2+x,3/4+z
-x,-y,1/2+z
1/2+y,1/2-x,1/4+z
1/2+x,1/2-y,1/4-z
1/2-x,1/2+y,3/4-z
y,x,-z
-y,-x,1/2-z
loop_
_atom_site_type_symbol
_atom_site_label
_atom_site_fract_x
_atom_site_fract_y
_atom_site_fract_z
Si Si1 0.687587 0.431144 0.391860
Si Si2 0.704884 0.585672 0.752912
Si Si3 0.196277 0.426930 0.116132
Si Si4 0.059075 0.059075 0.000000
Si Si5 0.320016 0.521701 0.505469
Si Si6 0.644050 0.644050 0.500000
Si Si7 0.651779 0.174869 0.712290
Si Si8 0.812171 0.772998 0.838915
O O1 0.831332 0.403793 0.390960
O O2 0.647338 0.434099 0.313840
O O3 0.604654 0.331983 0.428982
O O4 0.654439 0.540560 0.442736
O O5 0.703007 0.583182 0.673326
O O6 0.573724 0.566507 0.780468
O O7 0.796657 0.486225 0.779398
O O8 0.754869 0.709701 0.776110
O O9 0.194143 0.572733 0.111243
O O10 0.239720 0.377561 0.045059
O O11 0.414852 0.414852 0.500000
O O12 0.194562 0.451075 0.508837
O O13 0.349482 0.599128 0.439700
O O14 0.715717 0.284284 0.750000
O O15 0.703595 0.203793 0.639520
#
# Coordination Sequence:
#
# PCOD9551140 Si02
#       8
#     8   8   8   4   8   4   8   8
#     4  12  24  44  75 108 144 200 251 309 367 473
#     4  12  24  45  72 105 144 183 246 312 369 440
#     4  12  23  45  70 105 143 188 250 297 377 441
#     4  12  25  44  75 106 144 196 258 305 376 457
#     4  11  24  44  74 104 141 194 248 289 376 465
#     4  12  23  46  71 102 144 202 250 297 390 449
#     4  11  25  41  70 109 141 185 241 308 368 452
#     4  12  25  45  73 104 149 196 237 313 382 443
#
# _framework density 22.346039000000001
#
# number of rings (size 3 to 8) (size 9 to 14) (size 15 to 20)
#    0.000    0.286    7.143    1.286    6.000    0.000 
#    5.143    0.000    0.000    0.000    0.000    0.000 
#    0.000    0.000    0.000    0.000    0.000    0.000 
#
# Total GULP energy -311908.243225 kJ/mol
# GULP energy per Si atom -5569.790058 kJ/mol
# Density = 2.229518 g / cm^3
# Si number density = 22.346039 Si / 1000 Ang^3
#
#
#
# Elastic Constant Matrix: (Units=GPa)
#
#
# Indices 1 2 3 4 5 6 
#
# 1 26.3735 80.0122 14.3809 0.0000 0.0000 0.0000
# 2 80.0122 26.3728 14.3810 0.0000 0.0000 0.0000
# 3 14.3809 14.3810 99.0324 0.0000 0.0000 0.0000
# 4 0.0000 0.0000 0.0000 14.4306 0.0000 0.0000
# 5 0.0000 0.0000 0.0000 0.0000 14.4311 0.0000
# 6 0.0000 0.0000 0.0000 0.0000 0.0000 22.3815
#
#
#
# Elastic Compliance Matrix: (Units=1/GPa)
#
#
# Indices 1 2 3 4 5 6 
#
# 1 -0.004430 0.014214 -0.001421 0.000000 0.000000 0.000000
# 2 0.014214 -0.004430 -0.001421 0.000000 0.000000 0.000000
# 3 -0.001421 -0.001421 0.010510 0.000000 0.000000 0.000000
# 4 0.000000 0.000000 0.000000 0.069297 0.000000 0.000000
# 5 0.000000 0.000000 0.000000 0.000000 0.069295 0.000000
# 6 0.000000 0.000000 0.000000 0.000000 0.000000 0.044680
#
#
# Mechanical properties :
#
#
# Convention : Reuss Voigt Hill
#
# Bulk Modulus (GPa) = 40.99187 41.03632 41.01410
# Shear Modulus (GPa) = 29.35813 13.11561 21.23687
#
# Velocity S-wave (km/s) = 3.62856 2.42530 3.08614
# Velocity P-wave (km/s) = 5.99494 5.12315 5.57611
#
# Compressibility (1/GPa) = 0.02439508
#
# Stress axis : x y z
#
# Youngs Moduli (GPa) = -225.75656 -225.74933 95.14443
#
# Poissons Ratio (x) = 3.20869 0.13518
# Poissons Ratio (y) = 3.20880 0.13518
# Poissons Ratio (z) = -0.32075 -0.32073
#
# Static dielectric constant tensor:
#      x y z
#    x 1.856130 0.000000 0.000000 
#    y 0.000000 1.856130 0.000000 
#    z 0.000000 0.000000 2.151360 
# 
# From -- ./inp_files/3600.got.cif
#   From: 2010.05.17/outbox.cif.g08.bks.cpg/sg96_2_cif.got.tgz:3600.got - 2010.06.03 19:52:08.
