data_PCOD9551155
_publ_section_title
;
Structure prediction by ZEFSAII (Michael W. Deem and Ramdas Pophale) SiO2 
 PCOD9551155
Probable space group: P 43 21 2
;
_chemical_formula_sum "Si O2"
_cell_formula_units_Z 40
_cell_length_a 9.065743
_cell_length_b 9.065743
_cell_length_c 19.969965
_cell_angle_alpha 90.000000
_cell_angle_beta 90.000000
_cell_angle_gamma 90.000000
_cell_volume 1641.285415
_symmetry_space_group_name_H-M "P 43 21 2"
_symmetry_group_IT_number 96
_symmetry_cell_setting 'tetragonal'
loop_
_space_group_symop_operation_xyz
x,y,z
1/2-y,1/2+x,3/4+z
-x,-y,1/2+z
1/2+y,1/2-x,1/4+z
1/2+x,1/2-y,1/4-z
1/2-x,1/2+y,3/4-z
y,x,-z
-y,-x,1/2-z
loop_
_atom_site_type_symbol
_atom_site_label
_atom_site_fract_x
_atom_site_fract_y
_atom_site_fract_z
Si Si1 0.445962 0.655649 0.899128
Si Si2 0.258363 0.243882 0.352062
Si Si3 0.301876 0.951947 0.282761
Si Si4 0.344369 0.310050 0.100816
Si Si5 0.867612 0.496591 0.518717
O O1 0.572187 0.707138 0.848530
O O2 0.309511 0.768022 0.897188
O O3 0.408099 0.486454 0.880888
O O4 0.511803 0.689411 0.972353
O O5 0.261883 0.069313 0.340929
O O6 0.199519 0.299776 0.424629
O O7 0.163130 0.312779 0.292337
O O8 0.461873 0.983529 0.250414
O O9 0.201108 0.404698 0.078707
O O10 0.424098 0.216375 0.042060
#
# Coordination Sequence:
#
# PCOD9551155 Si02
#       5
#     8   8   8   8   8
#     4  12  25  48  74 110 153 201 258 322 394 469
#     4  12  26  46  75 108 149 199 252 318 390 459
#     4  12  26  47  72 109 153 200 251 320 383 468
#     4  11  25  46  78 108 150 199 254 322 390 470
#     4  11  25  48  72 109 151 196 254 318 391 465
#
# _framework density 24.371141000000001
#
# number of rings (size 3 to 8) (size 9 to 14) (size 15 to 20)
#    0.000    0.400    4.000    4.200    5.600    0.000 
#    0.000    4.000    0.000    0.000    0.000    0.000 
#    0.000    0.000    0.000    0.000    0.000    0.000 
#
# Total GULP energy -223323.907564 kJ/mol
# GULP energy per Si atom -5583.097689 kJ/mol
# Density = 2.431567 g / cm^3
# Si number density = 24.371141 Si / 1000 Ang^3
#
#
#
# Elastic Constant Matrix: (Units=GPa)
#
#
# Indices 1 2 3 4 5 6 
#
# 1 65.3399 51.4757 28.4488 0.0000 0.0000 0.0000
# 2 51.4757 65.3399 28.4488 0.0000 0.0000 0.0000
# 3 28.4488 28.4488 63.8032 0.0000 0.0000 0.0000
# 4 0.0000 0.0000 0.0000 32.6127 0.0000 0.0000
# 5 0.0000 0.0000 0.0000 0.0000 32.6127 0.0000
# 6 0.0000 0.0000 0.0000 0.0000 0.0000 30.5076
#
#
#
# Elastic Compliance Matrix: (Units=1/GPa)
#
#
# Indices 1 2 3 4 5 6 
#
# 1 0.041532 -0.030596 -0.004876 0.000000 0.000000 0.000000
# 2 -0.030596 0.041532 -0.004876 0.000000 0.000000 0.000000
# 3 -0.004876 -0.004876 0.020021 0.000000 0.000000 0.000000
# 4 0.000000 0.000000 0.000000 0.030663 0.000000 0.000000
# 5 0.000000 0.000000 0.000000 0.000000 0.030663 0.000000
# 6 0.000000 0.000000 0.000000 0.000000 0.000000 0.032779
#
#
# Mechanical properties :
#
#
# Convention : Reuss Voigt Hill
#
# Bulk Modulus (GPa) = 44.66572 45.69217 45.17894
# Shear Modulus (GPa) = 17.52239 24.88723 21.20481
#
# Velocity S-wave (km/s) = 2.68429 3.19905 2.95291
# Velocity P-wave (km/s) = 5.28907 5.69512 5.49585
#
# Compressibility (1/GPa) = 0.02238853
#
# Stress axis : x y z
#
# Youngs Moduli (GPa) = 24.07788 24.07788 49.94660
#
# Poissons Ratio (x) = 0.73670 0.24354
# Poissons Ratio (y) = 0.73670 0.24354
# Poissons Ratio (z) = 0.11740 0.11740
#
# Static dielectric constant tensor:
#      x y z
#    x 2.059650 0.000000 0.000000 
#    y 0.000000 2.059650 0.000000 
#    z 0.000000 0.000000 2.034500 
# 
# From -- ./inp_files/3762.got.cif
#   From: 2010.05.17/outbox.cif.g08.bks.cpg/sg96_2_cif.got.tgz:3762.got - 2010.06.03 19:52:08.
