data_PCOD9551478
_publ_section_title
;
Structure prediction by ZEFSAII (Michael W. Deem and Ramdas Pophale) SiO2 
 PCOD9551478
Probable space group: I 4 2 2 
;
_chemical_formula_sum "Si O2"
_cell_formula_units_Z 112
_cell_length_a 14.954288
_cell_length_b 14.954288
_cell_length_c 24.267911
_cell_angle_alpha 90.000000
_cell_angle_beta 90.000000
_cell_angle_gamma 90.000000
_cell_volume 5427.050642
_symmetry_space_group_name_H-M "I 4 2 2 "
_symmetry_group_IT_number 97
_symmetry_cell_setting 'tetragonal'
loop_
_space_group_symop_operation_xyz
x,y,z
-y,x,z
-x,-y,z
y,-x,z
x,-y,-z
-x,y,-z
y,x,-z
-y,-x,-z
1/2+x,1/2+y,1/2+z
1/2-y,1/2+x,1/2+z
1/2-x,1/2-y,1/2+z
1/2+y,1/2-x,1/2+z
1/2+x,1/2-y,1/2-z
1/2-x,1/2+y,1/2-z
1/2+y,1/2+x,1/2-z
1/2-y,1/2-x,1/2-z
loop_
_atom_site_type_symbol
_atom_site_label
_atom_site_fract_x
_atom_site_fract_y
_atom_site_fract_z
Si Si1 0.260417 0.094684 0.120603
Si Si2 0.925522 0.130445 0.651134
Si Si3 0.283613 0.410530 0.030500
Si Si4 0.333041 0.101700 0.997777
Si Si5 0.388951 0.262003 0.614691
Si Si6 0.806583 0.615694 0.193482
Si Si7 0.944556 0.412418 0.314551
O O1 0.177801 0.159630 0.131708
O O2 0.350799 0.104240 0.156082
O O3 0.228387 0.992891 0.129082
O O4 0.292071 0.115318 0.058129
O O5 0.909711 0.178383 0.592101
O O6 0.881875 0.199554 0.694091
O O7 0.032314 0.116912 0.655549
O O8 0.177573 0.402205 0.021165
O O9 0.316151 0.500000 0.000000
O O10 0.325605 0.325605 0.000000
O O11 0.257158 0.109084 0.950722
O O12 0.369275 0.000000 0.000000
O O13 0.349747 0.175942 0.645995
O O14 0.852054 0.647947 0.250000
O O15 0.831714 0.513627 0.180443
O O16 0.927558 0.427558 0.250000
O O17 0.000000 0.500000 0.335287
#
# Coordination Sequence:
#
# PCOD9551478 Si02
#       7
#    16  16  16  16  16  16  16
#     4  11  24  41  69  98 134 182 228 289 349 420
#     4  11  26  47  70 105 147 189 233 286 355 435
#     4  12  23  37  67 103 144 192 227 272 346 437
#     4  10  24  42  62  96 138 180 229 291 343 410
#     4  11  23  43  65  96 136 179 232 285 350 415
#     4  12  25  45  70  97 131 180 234 286 344 420
#     4  11  22  45  71  97 133 174 222 292 349 412
#
# _framework density 20.637360000000001
#
# number of rings (size 3 to 8) (size 9 to 14) (size 15 to 20)
#    0.000    0.857    5.714    1.286    4.000    1.286 
#    2.571    0.000    0.000    2.571    0.000    0.000 
#    0.000    0.000    0.000    0.000    0.000    0.000 
#
# Total GULP energy -312884.291884 kJ/mol
# GULP energy per Si atom -5587.219498 kJ/mol
# Density = 2.059039 g / cm^3
# Si number density = 20.637360 Si / 1000 Ang^3
#
#
#
# Elastic Constant Matrix: (Units=GPa)
#
#
# Indices 1 2 3 4 5 6 
#
# 1 117.2599 68.6816 48.2088 0.0000 0.0000 0.0000
# 2 68.6816 117.2596 48.2090 0.0000 0.0000 0.0000
# 3 48.2088 48.2090 68.0201 0.0000 0.0000 0.0000
# 4 0.0000 0.0000 0.0000 13.0262 0.0000 0.0000
# 5 0.0000 0.0000 0.0000 0.0000 13.0255 0.0000
# 6 0.0000 0.0000 0.0000 0.0000 0.0000 35.0528
#
#
#
# Elastic Compliance Matrix: (Units=1/GPa)
#
#
# Indices 1 2 3 4 5 6 
#
# 1 0.014544 -0.006041 -0.006026 0.000000 0.000000 0.000000
# 2 -0.006041 0.014544 -0.006027 0.000000 0.000000 0.000000
# 3 -0.006026 -0.006027 0.023244 0.000000 0.000000 0.000000
# 4 0.000000 0.000000 0.000000 0.076768 0.000000 0.000000
# 5 0.000000 0.000000 0.000000 0.000000 0.076772 0.000000
# 6 0.000000 0.000000 0.000000 0.000000 0.000000 0.028528
#
#
# Mechanical properties :
#
#
# Convention : Reuss Voigt Hill
#
# Bulk Modulus (GPa) = 61.94195 70.30426 66.12311
# Shear Modulus (GPa) = 18.11784 21.38358 19.75071
#
# Velocity S-wave (km/s) = 2.96618 3.22243 3.09696
# Velocity P-wave (km/s) = 6.46611 6.92719 6.70061
#
# Compressibility (1/GPa) = 0.01614415
#
# Stress axis : x y z
#
# Youngs Moduli (GPa) = 68.75625 68.75577 43.02189
#
# Poissons Ratio (x) = 0.41537 0.25927
# Poissons Ratio (y) = 0.41537 0.25927
# Poissons Ratio (z) = 0.41435 0.41436
#
# Static dielectric constant tensor:
#      x y z
#    x 1.746410 0.000000 0.000000 
#    y 0.000000 1.746410 0.000000 
#    z 0.000000 0.000000 1.750370 
# 
# From -- ./inp_files/7257.got.cif
#   From: 2010.05.17/outbox.cif.g08.bks.cpg/sg97_4_cif.got.tgz:7257.got - 2010.06.03 19:55:32.
