data_PCOD9551024
_publ_section_title
;
Structure prediction by ZEFSAII (Michael W. Deem and Ramdas Pophale) SiO2 
 PCOD9551024
Probable space group: P 43 21 2
;
_chemical_formula_sum "Si O2"
_cell_formula_units_Z 40
_cell_length_a 14.948602
_cell_length_b 14.948602
_cell_length_c 7.642127
_cell_angle_alpha 90.000000
_cell_angle_beta 90.000000
_cell_angle_gamma 90.000000
_cell_volume 1707.715062
_symmetry_space_group_name_H-M "P 43 21 2"
_symmetry_group_IT_number 96
_symmetry_cell_setting 'tetragonal'
loop_
_space_group_symop_operation_xyz
x,y,z
1/2-y,1/2+x,3/4+z
-x,-y,1/2+z
1/2+y,1/2-x,1/4+z
1/2+x,1/2-y,1/4-z
1/2-x,1/2+y,3/4-z
y,x,-z
-y,-x,1/2-z
loop_
_atom_site_type_symbol
_atom_site_label
_atom_site_fract_x
_atom_site_fract_y
_atom_site_fract_z
Si Si1 0.726995 0.417660 0.797167
Si Si2 0.934250 0.082774 0.542904
Si Si3 0.777811 0.367892 0.197855
Si Si4 0.418087 0.088165 0.482957
Si Si5 0.732941 0.059391 0.439035
O O1 0.664204 0.335797 0.750000
O O2 0.670446 0.506500 0.756490
O O3 0.818905 0.413646 0.692213
O O4 0.750715 0.404591 0.003461
O O5 0.918380 0.081621 0.750000
O O6 0.838083 0.081449 0.450510
O O7 0.995744 0.995744 0.500000
O O8 0.704752 0.295249 0.250000
O O9 0.775668 0.453065 0.323748
O O10 0.874694 0.320527 0.189503
O O11 0.501636 0.079623 0.608416
O O12 0.422625 0.179626 0.371550
#
# Coordination Sequence:
#
# PCOD9551024 Si02
#       5
#     8   8   8   8   8
#     4  10  23  43  66 100 129 169 226 275 337 395
#     4  11  22  40  66  97 133 173 218 281 333 393
#     4  11  24  46  71  98 134 181 220 282 333 404
#     4  11  22  44  64  92 132 181 218 271 336 397
#     4  11  22  42  67  94 135 173 223 265 340 394
#
# _framework density 23.423110999999999
#
# number of rings (size 3 to 8) (size 9 to 14) (size 15 to 20)
#    0.000    1.200    6.000    0.600    0.000    7.200 
#   10.800    0.000    0.000    0.000    0.000    0.000 
#    0.000    0.000    0.000    0.000    0.000    0.000 
#
# Total GULP energy -223845.907514 kJ/mol
# GULP energy per Si atom -5596.147688 kJ/mol
# Density = 2.336980 g / cm^3
# Si number density = 23.423111 Si / 1000 Ang^3
#
#
#
# Elastic Constant Matrix: (Units=GPa)
#
#
# Indices 1 2 3 4 5 6 
#
# 1 215.0660 60.5183 15.9074 0.0000 0.0000 0.0000
# 2 60.5183 215.0731 15.9095 0.0000 0.0000 0.0000
# 3 15.9074 15.9095 47.8348 0.0000 0.0000 0.0000
# 4 0.0000 0.0000 0.0000 9.5554 0.0000 0.0000
# 5 0.0000 0.0000 0.0000 0.0000 9.5586 0.0000
# 6 0.0000 0.0000 0.0000 0.0000 0.0000 21.0907
#
#
#
# Elastic Compliance Matrix: (Units=1/GPa)
#
#
# Indices 1 2 3 4 5 6 
#
# 1 0.005122 -0.001348 -0.001255 0.000000 0.000000 0.000000
# 2 -0.001348 0.005122 -0.001255 0.000000 0.000000 0.000000
# 3 -0.001255 -0.001255 0.021740 0.000000 0.000000 0.000000
# 4 0.000000 0.000000 0.000000 0.104653 0.000000 0.000000
# 5 0.000000 0.000000 0.000000 0.000000 0.104618 0.000000
# 6 0.000000 0.000000 0.000000 0.000000 0.000000 0.047414
#
#
# Mechanical properties :
#
#
# Convention : Reuss Voigt Hill
#
# Bulk Modulus (GPa) = 41.20791 73.62714 57.41753
# Shear Modulus (GPa) = 16.42171 33.75017 25.08594
#
# Velocity S-wave (km/s) = 2.65068 3.80003 3.27615
# Velocity P-wave (km/s) = 5.19608 7.12428 6.23517
#
# Compressibility (1/GPa) = 0.02426718
#
# Stress axis : x y z
#
# Youngs Moduli (GPa) = 195.23662 195.24203 45.99814
#
# Poissons Ratio (x) = 0.26327 0.05772
# Poissons Ratio (y) = 0.26326 0.05773
# Poissons Ratio (z) = 0.24499 0.24504
#
# Static dielectric constant tensor:
#      x y z
#    x 1.866270 0.000000 0.000000 
#    y 0.000000 1.866270 0.000000 
#    z 0.000000 0.000000 1.847190 
# 
# From -- ./inp_files/1274.got.cif
#   From: 2010.05.17/outbox.cif.g08.bks.cpg/sg96_1_cif.got.tgz:1274.got - 2010.06.03 19:52:08.
