data_PCOD9551372
_publ_section_title
;
Structure prediction by ZEFSAII (Michael W. Deem and Ramdas Pophale) SiO2 
 PCOD9551372
Probable space group: I 4 2 2 
;
_chemical_formula_sum "Si O2"
_cell_formula_units_Z 104
_cell_length_a 16.588207
_cell_length_b 16.588207
_cell_length_c 17.966982
_cell_angle_alpha 90.000000
_cell_angle_beta 90.000000
_cell_angle_gamma 90.000000
_cell_volume 4943.949489
_symmetry_space_group_name_H-M "I 4 2 2 "
_symmetry_group_IT_number 97
_symmetry_cell_setting 'tetragonal'
loop_
_space_group_symop_operation_xyz
x,y,z
-y,x,z
-x,-y,z
y,-x,z
x,-y,-z
-x,y,-z
y,x,-z
-y,-x,-z
1/2+x,1/2+y,1/2+z
1/2-y,1/2+x,1/2+z
1/2-x,1/2-y,1/2+z
1/2+y,1/2-x,1/2+z
1/2+x,1/2-y,1/2-z
1/2-x,1/2+y,1/2-z
1/2+y,1/2+x,1/2-z
1/2-y,1/2-x,1/2-z
loop_
_atom_site_type_symbol
_atom_site_label
_atom_site_fract_x
_atom_site_fract_y
_atom_site_fract_z
Si Si1 0.663011 0.064976 0.937849
Si Si2 0.564705 0.882058 0.678224
Si Si3 0.407846 0.411853 0.162831
Si Si4 0.866607 0.310857 0.551477
Si Si5 0.871200 0.128801 0.500000
Si Si6 0.328671 0.317792 0.420970
Si Si7 0.355343 0.276203 0.733699
O O1 0.736891 0.119619 0.910983
O O2 0.620943 0.013212 0.874044
O O3 0.610711 0.128002 0.984978
O O4 0.692141 0.000000 0.000000
O O5 0.562358 0.937643 0.750000
O O6 0.643712 0.897653 0.625665
O O7 0.580105 0.793432 0.714398
O O8 0.497110 0.390556 0.188692
O O9 0.415311 0.397376 0.074655
O O10 0.333398 0.363992 0.195783
O O11 0.887096 0.221973 0.523396
O O12 0.768567 0.308213 0.564601
O O13 0.356171 0.356171 0.500000
O O14 0.330585 0.358354 0.340654
O O15 0.273354 0.226647 0.750000
#
# Coordination Sequence:
#
# PCOD9551372 Si02
#       7
#    16  16  16  16   8  16  16
#     4   9  16  26  47  79 117 149 190 243 310 372
#     4   9  17  29  47  80 122 162 195 243 313 380
#     4  11  26  43  58  85 128 168 198 245 324 390
#     4   9  17  30  53  84 111 145 201 271 307 339
#     4  12  18  37  66  78 110 156 219 260 302 370
#     4   9  16  30  49  77 112 146 188 245 310 352
#     4  10  21  36  58  87 116 155 207 264 299 350
#
# _framework density 21.035813999999998
#
# number of rings (size 3 to 8) (size 9 to 14) (size 15 to 20)
#    0.000    2.308    2.308    4.154    2.154    0.615 
#    0.000    0.000    0.000    0.000    0.000    2.154 
#    0.000   56.000    0.000    0.000    0.000    0.000 
#
# Total GULP energy -289498.477733 kJ/mol
# GULP energy per Si atom -5567.278418 kJ/mol
# Density = 2.098794 g / cm^3
# Si number density = 21.035814 Si / 1000 Ang^3
#
#
#
# Elastic Constant Matrix: (Units=GPa)
#
#
# Indices 1 2 3 4 5 6 
#
# 1 15.6016 74.5820 24.4283 0.0000 0.0000 0.0000
# 2 74.5820 15.6028 24.4261 0.0000 0.0000 0.0000
# 3 24.4283 24.4261 130.4591 0.0000 0.0000 0.0000
# 4 0.0000 0.0000 0.0000 19.6809 0.0000 0.0000
# 5 0.0000 0.0000 0.0000 0.0000 19.6811 0.0000
# 6 0.0000 0.0000 0.0000 0.0000 0.0000 12.6008
#
#
#
# Elastic Compliance Matrix: (Units=1/GPa)
#
#
# Indices 1 2 3 4 5 6 
#
# 1 -0.002308 0.014648 -0.002310 0.000000 0.000000 0.000000
# 2 0.014648 -0.002307 -0.002311 0.000000 0.000000 0.000000
# 3 -0.002310 -0.002311 0.008531 0.000000 0.000000 0.000000
# 4 0.000000 0.000000 0.000000 0.050811 0.000000 0.000000
# 5 0.000000 0.000000 0.000000 0.000000 0.050810 0.000000
# 6 0.000000 0.000000 0.000000 0.000000 0.000000 0.079360
#
#
# Mechanical properties :
#
#
# Convention : Reuss Voigt Hill
#
# Bulk Modulus (GPa) = 41.72156 45.39293 43.55724
# Shear Modulus (GPa) = 28.92966 12.94104 20.93535
#
# Velocity S-wave (km/s) = 3.71247 2.48299 3.15814
# Velocity P-wave (km/s) = 6.18492 5.46316 5.83521
#
# Compressibility (1/GPa) = 0.02396842
#
# Stress axis : x y z
#
# Youngs Moduli (GPa) = -433.34115 -433.42101 117.22641
#
# Poissons Ratio (x) = 6.34854 0.27084
# Poissons Ratio (y) = 6.34737 0.27088
# Poissons Ratio (z) = -1.00118 -1.00152
#
# Static dielectric constant tensor:
#      x y z
#    x 1.774360 0.000000 0.000000 
#    y 0.000000 1.774360 0.000000 
#    z 0.000000 0.000000 2.001980 
# 
# From -- ./inp_files/5874.got.cif
#   From: 2010.05.17/outbox.cif.g08.bks.cpg/sg97_3_cif.got.tgz:5874.got - 2010.06.03 19:55:32.
