data_PCOD9551475
_publ_section_title
;
Structure prediction by ZEFSAII (Michael W. Deem and Ramdas Pophale) SiO2 
 PCOD9551475
Probable space group: I 4 2 2 
;
_chemical_formula_sum "Si O2"
_cell_formula_units_Z 112
_cell_length_a 14.719297
_cell_length_b 14.719297
_cell_length_c 22.808968
_cell_angle_alpha 90.000000
_cell_angle_beta 90.000000
_cell_angle_gamma 90.000000
_cell_volume 4941.738641
_symmetry_space_group_name_H-M "I 4 2 2 "
_symmetry_group_IT_number 97
_symmetry_cell_setting 'tetragonal'
loop_
_space_group_symop_operation_xyz
x,y,z
-y,x,z
-x,-y,z
y,-x,z
x,-y,-z
-x,y,-z
y,x,-z
-y,-x,-z
1/2+x,1/2+y,1/2+z
1/2-y,1/2+x,1/2+z
1/2-x,1/2-y,1/2+z
1/2+y,1/2-x,1/2+z
1/2+x,1/2-y,1/2-z
1/2-x,1/2+y,1/2-z
1/2+y,1/2+x,1/2-z
1/2-y,1/2-x,1/2-z
loop_
_atom_site_type_symbol
_atom_site_label
_atom_site_fract_x
_atom_site_fract_y
_atom_site_fract_z
Si Si1 0.021354 0.854339 0.737752
Si Si2 0.875611 0.816534 0.060624
Si Si3 0.601387 0.009729 0.152844
Si Si4 0.287288 0.911933 0.349903
Si Si5 0.461630 0.713138 0.641413
Si Si6 0.798952 0.211487 0.439742
Si Si7 0.943141 0.370537 0.439808
O O1 0.044439 0.760423 0.706152
O O2 0.925912 0.900419 0.720978
O O3 0.009598 0.843556 0.807500
O O4 0.829854 0.872625 0.113604
O O5 0.807774 0.733465 0.049661
O O6 0.971139 0.784139 0.085292
O O7 0.873710 0.873710 0.000000
O O8 0.633000 0.113927 0.162209
O O9 0.500000 0.000000 0.179428
O O10 0.687514 0.949098 0.170359
O O11 0.586419 0.968089 0.086906
O O12 0.211817 0.850313 0.382671
O O13 0.321380 0.989190 0.394341
O O14 0.834330 0.165671 0.500000
O O15 0.856391 0.303733 0.436836
O O16 0.000000 0.375372 0.500000
#
# Coordination Sequence:
#
# PCOD9551475 Si02
#       7
#    16  16  16  16  16  16  16
#     4  11  25  46  73  95 127 176 231 296 338 406
#     4  11  24  39  67 102 140 178 220 284 345 423
#     4  10  24  41  65  98 140 177 222 278 343 413
#     4  11  23  42  65  97 131 181 233 276 345 407
#     4  12  22  46  67 101 136 176 232 277 348 415
#     4  11  21  39  64 100 140 179 224 278 347 414
#     4  11  22  41  66 101 139 180 227 288 350 422
#
# _framework density 22.664089000000001
#
# number of rings (size 3 to 8) (size 9 to 14) (size 15 to 20)
#    0.000    1.000    5.714    1.286    0.000    3.429 
#    5.143    5.714    0.000    0.000    0.000    0.000 
#    0.000    0.000    0.000    0.000    0.000    0.000 
#
# Total GULP energy -311972.601851 kJ/mol
# GULP energy per Si atom -5570.939319 kJ/mol
# Density = 2.261250 g / cm^3
# Si number density = 22.664089 Si / 1000 Ang^3
#
#
#
# Elastic Constant Matrix: (Units=GPa)
#
#
# Indices 1 2 3 4 5 6 
#
# 1 58.6686 33.3272 20.5505 0.0000 0.0000 0.0000
# 2 33.3272 58.6691 20.5506 0.0000 0.0000 0.0000
# 3 20.5505 20.5506 100.8374 0.0000 0.0000 0.0000
# 4 0.0000 0.0000 0.0000 33.9796 0.0000 0.0000
# 5 0.0000 0.0000 0.0000 0.0000 33.9796 0.0000
# 6 0.0000 0.0000 0.0000 0.0000 0.0000 34.8138
#
#
#
# Elastic Compliance Matrix: (Units=1/GPa)
#
#
# Indices 1 2 3 4 5 6 
#
# 1 0.025710 -0.013751 -0.002437 0.000000 0.000000 0.000000
# 2 -0.013751 0.025710 -0.002437 0.000000 0.000000 0.000000
# 3 -0.002437 -0.002437 0.010910 0.000000 0.000000 0.000000
# 4 0.000000 0.000000 0.000000 0.029429 0.000000 0.000000
# 5 0.000000 0.000000 0.000000 0.000000 0.029429 0.000000
# 6 0.000000 0.000000 0.000000 0.000000 0.000000 0.028724
#
#
# Mechanical properties :
#
#
# Convention : Reuss Voigt Hill
#
# Bulk Modulus (GPa) = 39.87348 40.78129 40.32738
# Shear Modulus (GPa) = 25.57237 30.13772 27.85504
#
# Velocity S-wave (km/s) = 3.36269 3.65054 3.50957
# Velocity P-wave (km/s) = 5.71912 5.98343 5.85277
#
# Compressibility (1/GPa) = 0.02507933
#
# Stress axis : x y z
#
# Youngs Moduli (GPa) = 38.89551 38.89578 91.65603
#
# Poissons Ratio (x) = 0.53485 0.22338
# Poissons Ratio (y) = 0.53485 0.22338
# Poissons Ratio (z) = 0.09480 0.09480
#
# Static dielectric constant tensor:
#      x y z
#    x 1.886390 0.000000 0.000000 
#    y 0.000000 1.886390 0.000000 
#    z 0.000000 0.000000 1.879490 
# 
# From -- ./inp_files/7252.got.cif
#   From: 2010.05.17/outbox.cif.g08.bks.cpg/sg97_4_cif.got.tgz:7252.got - 2010.06.03 19:55:32.
