data_PCOD9551053
_publ_section_title
;
Structure prediction by ZEFSAII (Michael W. Deem and Ramdas Pophale) SiO2 
 PCOD9551053
Probable space group: P 43 21 2
;
_chemical_formula_sum "Si O2"
_cell_formula_units_Z 24
_cell_length_a 7.272915
_cell_length_b 7.272915
_cell_length_c 20.064396
_cell_angle_alpha 90.000000
_cell_angle_beta 90.000000
_cell_angle_gamma 90.000000
_cell_volume 1061.312097
_symmetry_space_group_name_H-M "P 43 21 2"
_symmetry_group_IT_number 96
_symmetry_cell_setting 'tetragonal'
loop_
_space_group_symop_operation_xyz
x,y,z
1/2-y,1/2+x,3/4+z
-x,-y,1/2+z
1/2+y,1/2-x,1/4+z
1/2+x,1/2-y,1/4-z
1/2-x,1/2+y,3/4-z
y,x,-z
-y,-x,1/2-z
loop_
_atom_site_type_symbol
_atom_site_label
_atom_site_fract_x
_atom_site_fract_y
_atom_site_fract_z
Si Si1 0.664920 0.034145 0.806848
Si Si2 0.026646 0.602144 0.581081
Si Si3 0.357285 0.497051 0.122142
O O1 0.637575 0.962997 0.732830
O O2 0.520696 0.924889 0.854322
O O3 0.865084 0.993068 0.835666
O O4 0.604448 0.244087 0.820016
O O5 0.809456 0.559107 0.572339
O O6 0.055255 0.814049 0.598509
#
# Coordination Sequence:
#
# PCOD9551053 Si02
#       3
#     8   8   8
#     4  10  24  46  66 103 134 182 224 285 337 408
#     4  10  24  46  66 103 134 182 224 285 337 408
#     4  10  24  42  70  96 132 176 228 272 342 402
#
# _framework density 22.613517000000002
#
# number of rings (size 3 to 8) (size 9 to 14) (size 15 to 20)
#    2.000    0.000    0.000    2.000    4.667    2.667 
#    0.000    0.000    0.000    0.000    0.000    0.000 
#    0.000    0.000    0.000    0.000    0.000    0.000 
#
# Total GULP energy -134067.686478 kJ/mol
# GULP energy per Si atom -5586.153603 kJ/mol
# Density = 2.256205 g / cm^3
# Si number density = 22.613517 Si / 1000 Ang^3
#
#
#
# Elastic Constant Matrix: (Units=GPa)
#
#
# Indices 1 2 3 4 5 6 
#
# 1 90.2312 73.3790 41.0225 0.0000 0.0000 0.0000
# 2 73.3790 90.2312 41.0225 0.0000 0.0000 0.0000
# 3 41.0225 41.0225 121.0778 0.0000 0.0000 0.0000
# 4 0.0000 0.0000 0.0000 20.8906 0.0000 0.0000
# 5 0.0000 0.0000 0.0000 0.0000 20.8906 0.0000
# 6 0.0000 0.0000 0.0000 0.0000 0.0000 50.1327
#
#
#
# Elastic Compliance Matrix: (Units=1/GPa)
#
#
# Indices 1 2 3 4 5 6 
#
# 1 0.033351 -0.025988 -0.002495 0.000000 0.000000 0.000000
# 2 -0.025988 0.033351 -0.002495 0.000000 0.000000 0.000000
# 3 -0.002495 -0.002495 0.009950 0.000000 0.000000 0.000000
# 4 0.000000 0.000000 0.000000 0.047868 0.000000 0.000000
# 5 0.000000 0.000000 0.000000 0.000000 0.047868 0.000000
# 6 0.000000 0.000000 0.000000 0.000000 0.000000 0.019947
#
#
# Mechanical properties :
#
#
# Convention : Reuss Voigt Hill
#
# Bulk Modulus (GPa) = 68.04105 68.04314 68.04210
# Shear Modulus (GPa) = 19.29090 28.12387 23.70739
#
# Velocity S-wave (km/s) = 2.92390 3.53040 3.24137
# Velocity P-wave (km/s) = 6.44616 6.83910 6.64553
#
# Compressibility (1/GPa) = 0.01469701
#
# Stress axis : x y z
#
# Youngs Moduli (GPa) = 29.98402 29.98402 100.50642
#
# Poissons Ratio (x) = 0.77922 0.25073
# Poissons Ratio (y) = 0.77922 0.25073
# Poissons Ratio (z) = 0.07480 0.07480
#
# Static dielectric constant tensor:
#      x y z
#    x 1.836730 0.000000 0.000000 
#    y 0.000000 1.836730 0.000000 
#    z 0.000000 0.000000 1.810040 
# 
# From -- ./inp_files/2441.got.cif
#   From: 2010.05.17/outbox.cif.g08.bks.cpg/sg96_2_cif.got.tgz:2441.got - 2010.06.03 19:52:08.
