data_PCOD9551278
_publ_section_title
;
Structure prediction by ZEFSAII (Michael W. Deem and Ramdas Pophale) SiO2 
 PCOD9551278
Probable space group: I 4 2 2 
;
_chemical_formula_sum "Si O2"
_cell_formula_units_Z 96
_cell_length_a 20.418441
_cell_length_b 20.418441
_cell_length_c 11.902341
_cell_angle_alpha 90.000000
_cell_angle_beta 90.000000
_cell_angle_gamma 90.000000
_cell_volume 4962.237514
_symmetry_space_group_name_H-M "I 4 2 2 "
_symmetry_group_IT_number 97
_symmetry_cell_setting 'tetragonal'
loop_
_space_group_symop_operation_xyz
x,y,z
-y,x,z
-x,-y,z
y,-x,z
x,-y,-z
-x,y,-z
y,x,-z
-y,-x,-z
1/2+x,1/2+y,1/2+z
1/2-y,1/2+x,1/2+z
1/2-x,1/2-y,1/2+z
1/2+y,1/2-x,1/2+z
1/2+x,1/2-y,1/2-z
1/2-x,1/2+y,1/2-z
1/2+y,1/2+x,1/2-z
1/2-y,1/2-x,1/2-z
loop_
_atom_site_type_symbol
_atom_site_label
_atom_site_fract_x
_atom_site_fract_y
_atom_site_fract_z
Si Si1 0.396171 0.508880 0.635179
Si Si2 0.675783 0.918097 0.699512
Si Si3 0.733452 0.159897 0.517641
Si Si4 0.631316 0.269190 0.600917
Si Si5 0.602175 0.704118 0.647076
Si Si6 0.681480 0.072795 0.718111
O O1 0.431451 0.443470 0.670930
O O2 0.395807 0.500000 0.500000
O O3 0.329109 0.534310 0.684441
O O4 0.607593 0.892408 0.750000
O O5 0.703617 0.878502 0.590610
O O6 0.726353 0.896828 0.796659
O O7 0.672098 0.996730 0.686857
O O8 0.804869 0.195131 0.500000
O O9 0.687457 0.220465 0.555930
O O10 0.722190 0.109409 0.619790
O O11 0.664906 0.329810 0.666295
O O12 0.598285 0.294908 0.487810
O O13 0.581735 0.227112 0.673244
O O14 0.615588 0.115588 0.750000
#
# Coordination Sequence:
#
# PCOD9551278 Si02
#       6
#    16  16  16  16  16  16
#     4   9  18  31  48  77 125 162 179 221 299 387
#     4  12  24  40  61  90 123 165 210 261 309 370
#     4  11  20  42  64  86 121 158 203 258 318 368
#     4  10  19  37  58  91 118 150 186 260 312 364
#     4  11  21  33  60  93 122 147 202 247 315 362
#     4  10  25  41  62  88 122 164 214 253 308 370
#
# _framework density 19.346112000000002
#
# number of rings (size 3 to 8) (size 9 to 14) (size 15 to 20)
#    0.000    1.500    3.333    4.000    4.667    1.667 
#    0.000    0.000    0.000    2.000    0.000    0.000 
#    0.000    2.667    0.000    0.000    0.000    0.000 
#
# Total GULP energy -267263.978124 kJ/mol
# GULP energy per Si atom -5567.999544 kJ/mol
# Density = 1.930208 g / cm^3
# Si number density = 19.346112 Si / 1000 Ang^3
#
#
#
# Elastic Constant Matrix: (Units=GPa)
#
#
# Indices 1 2 3 4 5 6 
#
# 1 118.1878 29.0739 20.9275 0.0000 0.0000 0.0000
# 2 29.0739 118.1779 20.9270 0.0000 0.0000 0.0000
# 3 20.9275 20.9270 47.9704 0.0000 0.0000 0.0000
# 4 0.0000 0.0000 0.0000 13.8694 0.0000 0.0000
# 5 0.0000 0.0000 0.0000 0.0000 13.8699 0.0000
# 6 0.0000 0.0000 0.0000 0.0000 0.0000 27.5110
#
#
#
# Elastic Compliance Matrix: (Units=1/GPa)
#
#
# Indices 1 2 3 4 5 6 
#
# 1 0.009487 -0.001735 -0.003382 0.000000 0.000000 0.000000
# 2 -0.001735 0.009488 -0.003382 0.000000 0.000000 0.000000
# 3 -0.003382 -0.003382 0.023797 0.000000 0.000000 0.000000
# 4 0.000000 0.000000 0.000000 0.072101 0.000000 0.000000
# 5 0.000000 0.000000 0.000000 0.000000 0.072098 0.000000
# 6 0.000000 0.000000 0.000000 0.000000 0.000000 0.036349
#
#
# Mechanical properties :
#
#
# Convention : Reuss Voigt Hill
#
# Bulk Modulus (GPa) = 38.79944 47.35476 43.07710
# Shear Modulus (GPa) = 20.08769 25.27725 22.68247
#
# Velocity S-wave (km/s) = 3.22581 3.61859 3.42783
# Velocity P-wave (km/s) = 5.82867 6.47995 6.16292
#
# Compressibility (1/GPa) = 0.02577357
#
# Stress axis : x y z
#
# Youngs Moduli (GPa) = 105.41029 105.40118 42.02231
#
# Poissons Ratio (x) = 0.18288 0.14211
# Poissons Ratio (y) = 0.18289 0.14212
# Poissons Ratio (z) = 0.35647 0.35647
#
# Static dielectric constant tensor:
#      x y z
#    x 1.722920 0.000000 0.000000 
#    y 0.000000 1.722920 0.000000 
#    z 0.000000 0.000000 1.678100 
# 
# From -- ./inp_files/3879.got.cif
#   From: 2010.05.17/outbox.cif.g08.bks.cpg/sg97_2_cif.got.tgz:3879.got - 2010.06.03 19:55:32.
