data_PCOD9551970
_publ_section_title
;
Structure prediction by ZEFSAII (Michael W. Deem and Ramdas Pophale) SiO2 
 PCOD9551970
Probable space group: I 41 2 2
;
_chemical_formula_sum "Si O2"
_cell_formula_units_Z 48
_cell_length_a 12.861047
_cell_length_b 12.861047
_cell_length_c 14.201166
_cell_angle_alpha 90.000000
_cell_angle_beta 90.000000
_cell_angle_gamma 90.000000
_cell_volume 2348.965589
_symmetry_space_group_name_H-M "I 41 2 2"
_symmetry_group_IT_number 98
_symmetry_cell_setting 'tetragonal'
loop_
_space_group_symop_operation_xyz
x,y,z
-y,1/2+x,1/4+z
-x,-y,z
y,1/2-x,1/4+z
x,1/2-y,1/4-z
-x,1/2+y,1/4-z
y,x,-z
-y,-x,-z
1/2+x,1/2+y,1/2+z
1/2-y,x,3/4+z
1/2-x,1/2-y,1/2+z
1/2+y,-x,3/4+z
1/2+x,-y,3/4-z
1/2-x,y,3/4-z
1/2+y,1/2+x,1/2-z
1/2-y,1/2-x,1/2-z
loop_
_atom_site_type_symbol
_atom_site_label
_atom_site_fract_x
_atom_site_fract_y
_atom_site_fract_z
Si Si1 0.721720 0.992824 0.977125
Si Si2 0.202255 0.873843 0.278138
Si Si3 0.959715 0.880855 0.863627
O O1 0.818481 0.957092 0.038900
O O2 0.667349 0.084201 0.035862
O O3 0.750000 0.042311 0.875000
O O4 0.646237 0.899747 0.944740
O O5 0.250000 0.915311 0.375000
O O6 0.278451 0.778451 0.250000
O O7 0.186168 0.962525 0.200882
O O8 0.000000 0.000000 0.876726
#
# Coordination Sequence:
#
# PCOD9551970 Si02
#       3
#    16  16  16
#     4  11  23  40  66 100 136 174 216 280 338 393
#     4  11  21  39  68 100 129 170 227 278 324 396
#     4  10  24  42  67 101 137 170 225 278 335 398
#
# _framework density 20.434526999999999
#
# number of rings (size 3 to 8) (size 9 to 14) (size 15 to 20)
#    0.000    1.333    3.333    2.000    4.667    4.000 
#    0.000    6.667    0.000    0.000    0.000    0.000 
#    0.000    0.000    0.000    0.000    0.000    0.000 
#
# Total GULP energy -133871.058600 kJ/mol
# GULP energy per Si atom -5577.960775 kJ/mol
# Density = 2.038802 g / cm^3
# Si number density = 20.434527 Si / 1000 Ang^3
#
#
#
# Elastic Constant Matrix: (Units=GPa)
#
#
# Indices 1 2 3 4 5 6 
#
# 1 89.0634 41.2603 75.8705 0.0000 0.0000 0.0000
# 2 41.2603 89.0634 75.8705 0.0000 0.0000 0.0000
# 3 75.8705 75.8705 159.2582 0.0000 0.0000 0.0000
# 4 0.0000 0.0000 0.0000 41.5137 0.0000 0.0000
# 5 0.0000 0.0000 0.0000 0.0000 41.5137 0.0000
# 6 0.0000 0.0000 0.0000 0.0000 0.0000 29.3430
#
#
#
# Elastic Compliance Matrix: (Units=1/GPa)
#
#
# Indices 1 2 3 4 5 6 
#
# 1 0.019075 -0.001844 -0.008209 0.000000 0.000000 0.000000
# 2 -0.001844 0.019075 -0.008209 0.000000 0.000000 0.000000
# 3 -0.008209 -0.008209 0.014101 0.000000 0.000000 0.000000
# 4 0.000000 0.000000 0.000000 0.024088 0.000000 0.000000
# 5 0.000000 0.000000 0.000000 0.000000 0.024088 0.000000
# 6 0.000000 0.000000 0.000000 0.000000 0.000000 0.034080
#
#
# Mechanical properties :
#
#
# Convention : Reuss Voigt Hill
#
# Bulk Modulus (GPa) = 63.58399 80.37636 71.98018
# Shear Modulus (GPa) = 28.36502 32.09966 30.23234
#
# Velocity S-wave (km/s) = 3.72975 3.96770 3.85057
# Velocity P-wave (km/s) = 7.05206 7.77233 7.42094
#
# Compressibility (1/GPa) = 0.01572723
#
# Stress axis : x y z
#
# Youngs Moduli (GPa) = 52.42421 52.42420 70.91923
#
# Poissons Ratio (x) = 0.09667 0.58217
# Poissons Ratio (y) = 0.09667 0.58217
# Poissons Ratio (z) = 0.43035 0.43035
#
# Static dielectric constant tensor:
#      x y z
#    x 1.764090 0.000000 0.000000 
#    y 0.000000 1.764090 0.000000 
#    z 0.000000 0.000000 1.748280 
# 
# From -- ./inp_files/4458.got.cif
#   From: 2010.05.17/outbox.cif.g08.bks.cpg/sg98_3_cif.got.tgz:4458.got - 2010.06.03 20:00:51.
