data_PCOD9551388
_publ_section_title
;
Structure prediction by ZEFSAII (Michael W. Deem and Ramdas Pophale) SiO2 
 PCOD9551388
Probable space group: I 4 2 2 
;
_chemical_formula_sum "Si O2"
_cell_formula_units_Z 84
_cell_length_a 13.947904
_cell_length_b 13.947904
_cell_length_c 22.203995
_cell_angle_alpha 90.000000
_cell_angle_beta 90.000000
_cell_angle_gamma 90.000000
_cell_volume 4319.654580
_symmetry_space_group_name_H-M "I 4 2 2 "
_symmetry_group_IT_number 97
_symmetry_cell_setting 'tetragonal'
loop_
_space_group_symop_operation_xyz
x,y,z
-y,x,z
-x,-y,z
y,-x,z
x,-y,-z
-x,y,-z
y,x,-z
-y,-x,-z
1/2+x,1/2+y,1/2+z
1/2-y,1/2+x,1/2+z
1/2-x,1/2-y,1/2+z
1/2+y,1/2-x,1/2+z
1/2+x,1/2-y,1/2-z
1/2-x,1/2+y,1/2-z
1/2+y,1/2+x,1/2-z
1/2-y,1/2-x,1/2-z
loop_
_atom_site_type_symbol
_atom_site_label
_atom_site_fract_x
_atom_site_fract_y
_atom_site_fract_z
Si Si1 0.738917 0.893523 0.520249
Si Si2 0.239498 0.110280 0.273791
Si Si3 0.000000 0.000000 0.380502
Si Si4 0.250613 0.897570 0.969795
Si Si5 0.212503 0.923296 0.349952
Si Si6 0.352614 0.438924 0.647437
O O1 0.826311 0.826311 0.500000
O O2 0.647053 0.852810 0.485542
O O3 0.726945 0.890436 0.592244
O O4 0.760148 0.000000 0.500000
O O5 0.332290 0.167711 0.250000
O O6 0.168328 0.183350 0.309271
O O7 0.180666 0.075079 0.215482
O O8 0.256209 0.014006 0.313518
O O9 0.037353 0.111817 0.376028
O O10 0.227050 0.905228 0.899563
O O11 0.173875 0.826126 0.000000
O O12 0.238858 0.000000 0.000000
O O13 0.450163 0.379551 0.636991
#
# Coordination Sequence:
#
# PCOD9551388 Si02
#       6
#    16  16   4  16  16  16
#     4  11  25  42  65  93 131 174 222 271 324 386
#     4  11  23  37  65  92 128 171 207 269 329 385
#     4   8  16  32  65  84 124 152 193 276 320 366
#     4  11  24  41  64  94 131 167 214 265 327 400
#     4  10  21  39  59  96 127 160 219 263 318 393
#     4  11  22  38  65 101 132 164 213 272 342 398
#
# _framework density 19.446000000000002
#
# number of rings (size 3 to 8) (size 9 to 14) (size 15 to 20)
#    0.000    1.333    3.810    2.286    8.000    0.762 
#    0.000    0.000    0.000    0.571    0.000    0.000 
#    0.000    0.000    0.000    0.000    0.000    0.000 
#
# Total GULP energy -234065.436149 kJ/mol
# GULP energy per Si atom -5572.986575 kJ/mol
# Density = 1.940174 g / cm^3
# Si number density = 19.446000 Si / 1000 Ang^3
#
#
#
# Elastic Constant Matrix: (Units=GPa)
#
#
# Indices 1 2 3 4 5 6 
#
# 1 72.9136 10.1892 25.5064 0.0000 0.0000 0.0000
# 2 10.1892 72.9210 25.5076 0.0000 0.0000 0.0000
# 3 25.5064 25.5076 137.3458 0.0000 0.0000 0.0000
# 4 0.0000 0.0000 0.0000 104.4660 0.0000 0.0000
# 5 0.0000 0.0000 0.0000 0.0000 104.4978 0.0000
# 6 0.0000 0.0000 0.0000 0.0000 0.0000 24.8070
#
#
#
# Elastic Compliance Matrix: (Units=1/GPa)
#
#
# Indices 1 2 3 4 5 6 
#
# 1 0.014762 -0.001180 -0.002522 0.000000 0.000000 0.000000
# 2 -0.001180 0.014761 -0.002522 0.000000 0.000000 0.000000
# 3 -0.002522 -0.002522 0.008218 0.000000 0.000000 0.000000
# 4 0.000000 0.000000 0.000000 0.009572 0.000000 0.000000
# 5 0.000000 0.000000 0.000000 0.000000 0.009570 0.000000
# 6 0.000000 0.000000 0.000000 0.000000 0.000000 0.040311
#
#
# Mechanical properties :
#
#
# Convention : Reuss Voigt Hill
#
# Bulk Modulus (GPa) = 39.53984 45.06518 42.30251
# Shear Modulus (GPa) = 42.34647 61.55264 51.94956
#
# Velocity S-wave (km/s) = 4.67159 5.63221 5.17424
# Velocity P-wave (km/s) = 7.03389 8.09448 7.58275
#
# Compressibility (1/GPa) = 0.02529095
#
# Stress axis : x y z
#
# Youngs Moduli (GPa) = 67.74081 67.74782 121.68866
#
# Poissons Ratio (x) = 0.07997 0.30693
# Poissons Ratio (y) = 0.07996 0.30691
# Poissons Ratio (z) = 0.17086 0.17087
#
# Static dielectric constant tensor:
#      x y z
#    x 1.609560 0.000000 0.000000 
#    y 0.000000 1.609540 0.000000 
#    z 0.000000 0.000000 1.704840 
# 
# From -- ./inp_files/6526.got.cif
#   From: 2010.05.17/outbox.cif.g08.bks.cpg/sg97_4_cif.got.tgz:6526.got - 2010.06.03 19:55:32.
