data_PCOD9551785
_publ_section_title
;
Structure prediction by ZEFSAII (Michael W. Deem and Ramdas Pophale) SiO2 
 PCOD9551785
Probable space group: I 41 2 2
;
_chemical_formula_sum "Si O2"
_cell_formula_units_Z 72
_cell_length_a 17.970683
_cell_length_b 17.970683
_cell_length_c 9.990855
_cell_angle_alpha 90.000000
_cell_angle_beta 90.000000
_cell_angle_gamma 90.000000
_cell_volume 3226.501139
_symmetry_space_group_name_H-M "I 41 2 2"
_symmetry_group_IT_number 98
_symmetry_cell_setting 'tetragonal'
loop_
_space_group_symop_operation_xyz
x,y,z
-y,1/2+x,1/4+z
-x,-y,z
y,1/2-x,1/4+z
x,1/2-y,1/4-z
-x,1/2+y,1/4-z
y,x,-z
-y,-x,-z
1/2+x,1/2+y,1/2+z
1/2-y,x,3/4+z
1/2-x,1/2-y,1/2+z
1/2+y,-x,3/4+z
1/2+x,-y,3/4-z
1/2-x,y,3/4-z
1/2+y,1/2+x,1/2-z
1/2-y,1/2-x,1/2-z
loop_
_atom_site_type_symbol
_atom_site_label
_atom_site_fract_x
_atom_site_fract_y
_atom_site_fract_z
Si Si1 0.833770 0.413955 0.372314
Si Si2 0.930363 0.191289 0.503815
Si Si3 0.301106 0.301106 0.500000
Si Si4 0.529526 0.801434 0.826964
Si Si5 0.584936 0.023074 0.455011
O O1 0.750000 0.383472 0.375000
O O2 0.872261 0.372261 0.250000
O O3 0.827007 0.497295 0.316265
O O4 0.890216 0.409265 0.495734
O O5 0.925485 0.250000 0.625000
O O6 0.849052 0.150949 0.500000
O O7 0.982681 0.125738 0.562667
O O8 0.973768 0.236481 0.385592
O O9 0.284821 0.250000 0.625000
O O10 0.385078 0.285681 0.449018
O O11 0.521379 0.868058 0.934072
O O12 0.500000 0.000000 0.453773
#
# Coordination Sequence:
#
# PCOD9551785 Si02
#       5
#    16  16   8  16  16
#     4  10  20  37  60  88 122 165 215 269 333 412
#     4  10  22  41  63  95 138 181 227 286 355 429
#     4  12  28  48  73 102 135 184 238 298 364 422
#     4  10  22  42  66  93 133 177 227 291 350 425
#     4  10  21  38  63  94 128 174 232 291 354 421
#
# _framework density 22.315192
#
# number of rings (size 3 to 8) (size 9 to 14) (size 15 to 20)
#    0.000    1.778    0.000    3.333    0.000    8.000 
#    0.000   33.333    0.000    0.000    0.000    0.000 
#    0.000    0.000    0.000    0.000    0.000    0.000 
#
# Total GULP energy -200892.972239 kJ/mol
# GULP energy per Si atom -5580.360340 kJ/mol
# Density = 2.226440 g / cm^3
# Si number density = 22.315192 Si / 1000 Ang^3
#
#
#
# Elastic Constant Matrix: (Units=GPa)
#
#
# Indices 1 2 3 4 5 6 
#
# 1 132.2165 26.0337 38.5249 0.0000 0.0000 0.0000
# 2 26.0337 132.2157 38.5249 0.0000 0.0000 0.0000
# 3 38.5249 38.5249 80.1268 0.0000 0.0000 0.0000
# 4 0.0000 0.0000 0.0000 28.4439 0.0000 0.0000
# 5 0.0000 0.0000 0.0000 0.0000 28.4444 0.0000
# 6 0.0000 0.0000 0.0000 0.0000 0.0000 30.6251
#
#
#
# Elastic Compliance Matrix: (Units=1/GPa)
#
#
# Indices 1 2 3 4 5 6 
#
# 1 0.008834 -0.000584 -0.003967 0.000000 0.000000 0.000000
# 2 -0.000584 0.008834 -0.003967 0.000000 0.000000 0.000000
# 3 -0.003967 -0.003967 0.016295 0.000000 0.000000 0.000000
# 4 0.000000 0.000000 0.000000 0.035157 0.000000 0.000000
# 5 0.000000 0.000000 0.000000 0.000000 0.035156 0.000000
# 6 0.000000 0.000000 0.000000 0.000000 0.000000 0.032653
#
#
# Mechanical properties :
#
#
# Convention : Reuss Voigt Hill
#
# Bulk Modulus (GPa) = 59.07233 61.19178 60.13206
# Shear Modulus (GPa) = 31.32702 33.60105 32.46403
#
# Velocity S-wave (km/s) = 3.75085 3.88461 3.81832
# Velocity P-wave (km/s) = 6.72962 6.89937 6.81503
#
# Compressibility (1/GPa) = 0.01692840
#
# Stress axis : x y z
#
# Youngs Moduli (GPa) = 113.19751 113.19684 61.36955
#
# Poissons Ratio (x) = 0.06606 0.24344
# Poissons Ratio (y) = 0.06606 0.24344
# Poissons Ratio (z) = 0.44904 0.44904
#
# Static dielectric constant tensor:
#      x y z
#    x 1.857320 0.000000 0.000000 
#    y 0.000000 1.857320 0.000000 
#    z 0.000000 0.000000 1.931320 
# 
# From -- ./inp_files/4978.got.cif
#   From: 2010.05.17/outbox.cif.g08.bks.cpg/sg98_3_cif.got.tgz:4978.got - 2010.06.03 20:00:51.
