data_PCOD9551141
_publ_section_title
;
Structure prediction by ZEFSAII (Michael W. Deem and Ramdas Pophale) SiO2 
 PCOD9551141
Probable space group: P 43 21 2
;
_chemical_formula_sum "Si O2"
_cell_formula_units_Z 40
_cell_length_a 8.368776
_cell_length_b 8.368776
_cell_length_c 26.105881
_cell_angle_alpha 90.000000
_cell_angle_beta 90.000000
_cell_angle_gamma 90.000000
_cell_volume 1828.362231
_symmetry_space_group_name_H-M "P 43 21 2"
_symmetry_group_IT_number 96
_symmetry_cell_setting 'tetragonal'
loop_
_space_group_symop_operation_xyz
x,y,z
1/2-y,1/2+x,3/4+z
-x,-y,1/2+z
1/2+y,1/2-x,1/4+z
1/2+x,1/2-y,1/4-z
1/2-x,1/2+y,3/4-z
y,x,-z
-y,-x,1/2-z
loop_
_atom_site_type_symbol
_atom_site_label
_atom_site_fract_x
_atom_site_fract_y
_atom_site_fract_z
Si Si1 0.478024 0.725242 0.002792
Si Si2 0.706251 0.780830 0.162336
Si Si3 0.515403 0.238610 0.753151
Si Si4 0.277694 0.059832 0.134026
Si Si5 0.104624 0.644125 0.893307
O O1 0.438808 0.780229 0.945573
O O2 0.546222 0.546222 0.000000
O O3 0.344495 0.736479 0.045534
O O4 0.622381 0.840765 0.019208
O O5 0.548192 0.800358 0.196872
O O6 0.704309 0.612633 0.132020
O O7 0.725136 0.945727 0.131196
O O8 0.582892 0.417109 0.750000
O O9 0.391187 0.205327 0.798151
O O10 0.184889 0.223134 0.118513
O O11 0.454996 0.075588 0.110982
#
# Coordination Sequence:
#
# PCOD9551141 Si02
#       5
#     8   8   8   8   8
#     4  11  24  45  72 102 142 192 248 302 375 455
#     4  12  26  46  75 106 150 193 246 316 380 440
#     4  11  24  45  72 102 142 192 248 302 375 455
#     4  12  28  46  73 110 150 196 253 310 380 462
#     4  12  28  46  73 110 150 196 253 310 380 462
#
# _framework density 21.877500000000001
#
# number of rings (size 3 to 8) (size 9 to 14) (size 15 to 20)
#    0.000    0.400    6.000    2.400    5.600    0.000 
#    0.000    2.000    0.000    0.000    0.000    0.000 
#    0.000    0.000    0.000    0.000    0.000    0.000 
#
# Total GULP energy -223430.897876 kJ/mol
# GULP energy per Si atom -5585.772447 kJ/mol
# Density = 2.182771 g / cm^3
# Si number density = 21.877500 Si / 1000 Ang^3
#
#
#
# Elastic Constant Matrix: (Units=GPa)
#
#
# Indices 1 2 3 4 5 6 
#
# 1 65.3284 45.2249 15.0436 0.0000 0.0000 0.0000
# 2 45.2249 65.3260 15.0423 0.0000 0.0000 0.0000
# 3 15.0436 15.0423 81.5211 0.0000 0.0000 0.0000
# 4 0.0000 0.0000 0.0000 27.4086 0.0000 0.0000
# 5 0.0000 0.0000 0.0000 0.0000 27.4092 0.0000
# 6 0.0000 0.0000 0.0000 0.0000 0.0000 33.7964
#
#
#
# Elastic Compliance Matrix: (Units=1/GPa)
#
#
# Indices 1 2 3 4 5 6 
#
# 1 0.029634 -0.020111 -0.001758 0.000000 0.000000 0.000000
# 2 -0.020111 0.029635 -0.001757 0.000000 0.000000 0.000000
# 3 -0.001758 -0.001757 0.012915 0.000000 0.000000 0.000000
# 4 0.000000 0.000000 0.000000 0.036485 0.000000 0.000000
# 5 0.000000 0.000000 0.000000 0.000000 0.036484 0.000000
# 6 0.000000 0.000000 0.000000 0.000000 0.000000 0.029589
#
#
# Mechanical properties :
#
#
# Convention : Reuss Voigt Hill
#
# Bulk Modulus (GPa) = 40.10705 40.31078 40.20892
# Shear Modulus (GPa) = 21.71032 26.84714 24.27873
#
# Velocity S-wave (km/s) = 3.15359 3.50688 3.33492
# Velocity P-wave (km/s) = 5.62428 5.90452 5.76610
#
# Compressibility (1/GPa) = 0.02493327
#
# Stress axis : x y z
#
# Youngs Moduli (GPa) = 33.74478 33.74377 77.42726
#
# Poissons Ratio (x) = 0.67862 0.13610
# Poissons Ratio (y) = 0.67864 0.13605
# Poissons Ratio (z) = 0.05931 0.05929
#
# Static dielectric constant tensor:
#      x y z
#    x 1.848580 0.000000 0.000000 
#    y 0.000000 1.848580 0.000000 
#    z 0.000000 0.000000 1.790580 
# 
# From -- ./inp_files/3781.got.cif
#   From: 2010.05.17/outbox.cif.g08.bks.cpg/sg96_2_cif.got.tgz:3781.got - 2010.06.03 19:52:08.
