data_PCOD9551165
_publ_section_title
;
Structure prediction by ZEFSAII (Michael W. Deem and Ramdas Pophale) SiO2 
 PCOD9551165
Probable space group: P 43 21 2
;
_chemical_formula_sum "Si O2"
_cell_formula_units_Z 32
_cell_length_a 9.690184
_cell_length_b 9.690184
_cell_length_c 12.174871
_cell_angle_alpha 90.000000
_cell_angle_beta 90.000000
_cell_angle_gamma 90.000000
_cell_volume 1143.216320
_symmetry_space_group_name_H-M "P 43 21 2"
_symmetry_group_IT_number 96
_symmetry_cell_setting 'tetragonal'
loop_
_space_group_symop_operation_xyz
x,y,z
1/2-y,1/2+x,3/4+z
-x,-y,1/2+z
1/2+y,1/2-x,1/4+z
1/2+x,1/2-y,1/4-z
1/2-x,1/2+y,3/4-z
y,x,-z
-y,-x,1/2-z
loop_
_atom_site_type_symbol
_atom_site_label
_atom_site_fract_x
_atom_site_fract_y
_atom_site_fract_z
Si Si1 0.834696 0.466431 0.015749
Si Si2 0.650359 0.309872 0.867481
Si Si3 0.765364 0.983546 0.495127
Si Si4 0.908721 0.337383 0.437437
O O1 0.719268 0.442276 0.923078
O O2 0.883496 0.312220 0.055332
O O3 0.967055 0.551926 0.969603
O O4 0.771240 0.519137 0.128352
O O5 0.720620 0.279380 0.750000
O O6 0.489652 0.305344 0.833736
O O7 0.657868 0.192136 0.959381
O O8 0.915175 0.915175 0.500000
O O9 0.676649 0.874469 0.421660
#
# Coordination Sequence:
#
# PCOD9551165 Si02
#       4
#     8   8   8   8
#     4  12  24  42  76 105 143 206 250 303 387 457
#     4  12  25  42  75 112 144 205 256 307 387 458
#     4  12  23  44  74 108 149 196 256 315 382 452
#     4  12  24  47  72 106 155 196 249 325 375 453
#
# _framework density 27.991205000000001
#
# number of rings (size 3 to 8) (size 9 to 14) (size 15 to 20)
#    0.000    0.000    7.500    3.000    3.500    0.000 
#    0.000    3.750    0.000    0.000    0.000    0.000 
#    0.000    0.000    0.000    0.000    0.000    0.000 
#
# Total GULP energy -178649.335086 kJ/mol
# GULP energy per Si atom -5582.791721 kJ/mol
# Density = 2.792750 g / cm^3
# Si number density = 27.991205 Si / 1000 Ang^3
#
#
#
# Elastic Constant Matrix: (Units=GPa)
#
#
# Indices 1 2 3 4 5 6 
#
# 1 68.2604 -10.4505 22.4875 0.0000 0.0000 0.0000
# 2 -10.4505 68.2604 22.4875 0.0000 0.0000 0.0000
# 3 22.4875 22.4875 220.4403 0.0000 0.0000 0.0000
# 4 0.0000 0.0000 0.0000 52.3413 0.0000 0.0000
# 5 0.0000 0.0000 0.0000 0.0000 52.3413 0.0000
# 6 0.0000 0.0000 0.0000 0.0000 0.0000 64.3465
#
#
#
# Elastic Compliance Matrix: (Units=1/GPa)
#
#
# Indices 1 2 3 4 5 6 
#
# 1 0.015747 0.003042 -0.001917 0.000000 0.000000 0.000000
# 2 0.003042 0.015747 -0.001917 0.000000 0.000000 0.000000
# 3 -0.001917 -0.001917 0.004927 0.000000 0.000000 0.000000
# 4 0.000000 0.000000 0.000000 0.019105 0.000000 0.000000
# 5 0.000000 0.000000 0.000000 0.000000 0.019105 0.000000
# 6 0.000000 0.000000 0.000000 0.000000 0.000000 0.015541
#
#
# Mechanical properties :
#
#
# Convention : Reuss Voigt Hill
#
# Bulk Modulus (GPa) = 28.70345 47.33447 38.01896
# Shear Modulus (GPa) = 48.37069 55.30159 51.83614
#
# Velocity S-wave (km/s) = 4.16151 4.44968 4.30801
# Velocity P-wave (km/s) = 5.77647 6.58382 6.19332
#
# Compressibility (1/GPa) = 0.03483902
#
# Stress axis : x y z
#
# Youngs Moduli (GPa) = 63.50425 63.50425 202.94543
#
# Poissons Ratio (x) = -0.19320 0.38899
# Poissons Ratio (y) = -0.19320 0.38899
# Poissons Ratio (z) = 0.12172 0.12172
#
# Static dielectric constant tensor:
#      x y z
#    x 2.419830 0.000000 0.000000 
#    y 0.000000 2.419830 0.000000 
#    z 0.000000 0.000000 2.138250 
# 
# From -- ./inp_files/1917.got.cif
#   From: 2010.05.17/outbox.cif.g08.bks.cpg/sg96_1_cif.got.tgz:1917.got - 2010.06.03 19:52:08.
