data_PCOD9551752
_publ_section_title
;
Structure prediction by ZEFSAII (Michael W. Deem and Ramdas Pophale) SiO2 
 PCOD9551752
Probable space group: I 41 2 2
;
_chemical_formula_sum "Si O2"
_cell_formula_units_Z 64
_cell_length_a 10.855931
_cell_length_b 10.855931
_cell_length_c 25.483216
_cell_angle_alpha 90.000000
_cell_angle_beta 90.000000
_cell_angle_gamma 90.000000
_cell_volume 3003.228551
_symmetry_space_group_name_H-M "I 41 2 2"
_symmetry_group_IT_number 98
_symmetry_cell_setting 'tetragonal'
loop_
_space_group_symop_operation_xyz
x,y,z
-y,1/2+x,1/4+z
-x,-y,z
y,1/2-x,1/4+z
x,1/2-y,1/4-z
-x,1/2+y,1/4-z
y,x,-z
-y,-x,-z
1/2+x,1/2+y,1/2+z
1/2-y,x,3/4+z
1/2-x,1/2-y,1/2+z
1/2+y,-x,3/4+z
1/2+x,-y,3/4-z
1/2-x,y,3/4-z
1/2+y,1/2+x,1/2-z
1/2-y,1/2-x,1/2-z
loop_
_atom_site_type_symbol
_atom_site_label
_atom_site_fract_x
_atom_site_fract_y
_atom_site_fract_z
Si Si1 0.150074 0.250763 0.698013
Si Si2 0.670913 0.342063 0.325217
Si Si3 0.794223 0.544750 0.624187
Si Si4 0.122167 0.648982 0.541028
O O1 0.219744 0.280257 0.750000
O O2 0.130409 0.379623 0.667471
O O3 0.234670 0.156319 0.665271
O O4 0.016883 0.195061 0.709459
O O5 0.750000 0.394084 0.375000
O O6 0.535390 0.310684 0.347517
O O7 0.741496 0.214749 0.309003
O O8 0.658557 0.401958 0.267134
O O9 0.863820 0.449421 0.587082
#
# Coordination Sequence:
#
# PCOD9551752 Si02
#       4
#    16  16  16  16
#     4  11  22  35  54  85 120 156 190 236 297 356
#     4   9  19  35  56  84 110 146 198 246 291 337
#     4  10  22  35  55  81 119 154 195 236 292 351
#     4  10  20  34  54  85 118 150 190 241 295 343
#
# _framework density 21.310400000000001
#
# number of rings (size 3 to 8) (size 9 to 14) (size 15 to 20)
#    0.000    2.000    2.500    0.750   14.000    0.000 
#    0.000    0.000    5.500    0.000    0.000    0.000 
#    0.000    0.000    0.000    0.000    0.000    0.000 
#
# Total GULP energy -178292.724964 kJ/mol
# GULP energy per Si atom -5571.647655 kJ/mol
# Density = 2.126190 g / cm^3
# Si number density = 21.310400 Si / 1000 Ang^3
#
#
#
# Elastic Constant Matrix: (Units=GPa)
#
#
# Indices 1 2 3 4 5 6 
#
# 1 30.9918 3.6197 7.0108 0.0000 0.0000 0.0000
# 2 3.6197 30.9947 7.0145 0.0000 0.0000 0.0000
# 3 7.0108 7.0145 122.3319 0.0000 0.0000 0.0000
# 4 0.0000 0.0000 0.0000 14.0518 0.0000 0.0000
# 5 0.0000 0.0000 0.0000 0.0000 14.0523 0.0000
# 6 0.0000 0.0000 0.0000 0.0000 0.0000 8.7691
#
#
#
# Elastic Compliance Matrix: (Units=1/GPa)
#
#
# Indices 1 2 3 4 5 6 
#
# 1 0.033056 -0.003477 -0.001695 0.000000 0.000000 0.000000
# 2 -0.003477 0.033053 -0.001696 0.000000 0.000000 0.000000
# 3 -0.001695 -0.001696 0.008369 0.000000 0.000000 0.000000
# 4 0.000000 0.000000 0.000000 0.071165 0.000000 0.000000
# 5 0.000000 0.000000 0.000000 0.000000 0.071163 0.000000
# 6 0.000000 0.000000 0.000000 0.000000 0.000000 0.114037
#
#
# Mechanical properties :
#
#
# Convention : Reuss Voigt Hill
#
# Bulk Modulus (GPa) = 16.46291 24.40093 20.43192
# Shear Modulus (GPa) = 13.70515 18.48622 16.09568
#
# Velocity S-wave (km/s) = 2.53873 2.94849 2.75125
# Velocity P-wave (km/s) = 4.04173 4.80276 4.43859
#
# Compressibility (1/GPa) = 0.06074259
#
# Stress axis : x y z
#
# Youngs Moduli (GPa) = 30.25162 30.25405 119.49041
#
# Poissons Ratio (x) = 0.10519 0.20254
# Poissons Ratio (y) = 0.10518 0.20266
# Poissons Ratio (z) = 0.05128 0.05131
#
# Static dielectric constant tensor:
#      x y z
#    x 1.785710 0.000000 0.000000 
#    y 0.000000 1.785710 0.000000 
#    z 0.000000 0.000000 1.666860 
# 
# From -- ./inp_files/10683.got.cif
#   From: 2010.05.17/outbox.cif.g08.bks.cpg/sg98_6_cif.got.tgz:10683.got - 2010.06.03 20:00:51.
