data_PCOD9551119
_publ_section_title
;
Structure prediction by ZEFSAII (Michael W. Deem and Ramdas Pophale) SiO2 
 PCOD9551119
Probable space group: P 43 21 2
;
_chemical_formula_sum "Si O2"
_cell_formula_units_Z 48
_cell_length_a 7.971163
_cell_length_b 7.971163
_cell_length_c 30.121885
_cell_angle_alpha 90.000000
_cell_angle_beta 90.000000
_cell_angle_gamma 90.000000
_cell_volume 1913.927692
_symmetry_space_group_name_H-M "P 43 21 2"
_symmetry_group_IT_number 96
_symmetry_cell_setting 'tetragonal'
loop_
_space_group_symop_operation_xyz
x,y,z
1/2-y,1/2+x,3/4+z
-x,-y,1/2+z
1/2+y,1/2-x,1/4+z
1/2+x,1/2-y,1/4-z
1/2-x,1/2+y,3/4-z
y,x,-z
-y,-x,1/2-z
loop_
_atom_site_type_symbol
_atom_site_label
_atom_site_fract_x
_atom_site_fract_y
_atom_site_fract_z
Si Si1 0.404536 0.046983 0.096185
Si Si2 0.683496 0.950127 0.261177
Si Si3 0.840648 0.921497 0.864470
Si Si4 0.675733 0.530263 0.044860
Si Si5 0.233875 0.034403 0.463016
Si Si6 0.366368 0.176174 0.918865
O O1 0.510253 0.119710 0.138196
O O2 0.256427 0.182547 0.088786
O O3 0.369723 0.851361 0.104771
O O4 0.505909 0.051377 0.049490
O O5 0.642616 0.784010 0.232941
O O6 0.843931 0.896283 0.290425
O O7 0.686064 0.090926 0.222052
O O8 0.880086 0.084010 0.835245
O O9 0.854539 0.962482 0.916217
O O10 0.981251 0.787271 0.851407
O O11 0.868097 0.588054 0.043950
O O12 0.607943 0.607943 0.000000
O O13 0.128812 0.128812 0.500000
#
# Coordination Sequence:
#
# PCOD9551119 Si02
#       6
#     8   8   8   8   8   8
#     4  12  27  47  82 111 159 206 273 330 416 495
#     4  12  24  49  78 111 158 207 269 339 411 493
#     4  12  24  48  79 115 158 211 271 338 418 494
#     4  11  22  44  76 105 149 209 260 324 416 490
#     4  11  26  46  77 114 152 211 274 334 415 508
#     4  12  27  50  75 119 158 212 267 348 413 493
#
# _framework density 25.079318000000001
#
# number of rings (size 3 to 8) (size 9 to 14) (size 15 to 20)
#    0.000    0.333    5.000    4.500    2.333    1.333 
#    0.000    0.000    0.000    0.000    0.000    0.000 
#    0.000    0.000    0.000    0.000    0.000    0.000 
#
# Total GULP energy -268546.126085 kJ/mol
# GULP energy per Si atom -5594.710960 kJ/mol
# Density = 2.502224 g / cm^3
# Si number density = 25.079318 Si / 1000 Ang^3
#
#
#
# Elastic Constant Matrix: (Units=GPa)
#
#
# Indices 1 2 3 4 5 6 
#
# 1 85.1800 18.1940 37.0544 0.0000 0.0000 0.0000
# 2 18.1940 85.1800 37.0544 0.0000 0.0000 0.0000
# 3 37.0544 37.0544 218.6259 0.0000 0.0000 0.0000
# 4 0.0000 0.0000 0.0000 48.9054 0.0000 0.0000
# 5 0.0000 0.0000 0.0000 0.0000 48.9054 0.0000
# 6 0.0000 0.0000 0.0000 0.0000 0.0000 38.3748
#
#
#
# Elastic Compliance Matrix: (Units=1/GPa)
#
#
# Indices 1 2 3 4 5 6 
#
# 1 0.012970 -0.001958 -0.001866 0.000000 0.000000 0.000000
# 2 -0.001958 0.012970 -0.001866 0.000000 0.000000 0.000000
# 3 -0.001866 -0.001866 0.005207 0.000000 0.000000 0.000000
# 4 0.000000 0.000000 0.000000 0.020448 0.000000 0.000000
# 5 0.000000 0.000000 0.000000 0.000000 0.020448 0.000000
# 6 0.000000 0.000000 0.000000 0.000000 0.000000 0.026059
#
#
# Mechanical properties :
#
#
# Convention : Reuss Voigt Hill
#
# Bulk Modulus (GPa) = 50.59573 63.73237 57.16405
# Shear Modulus (GPa) = 43.07703 47.01601 45.04652
#
# Velocity S-wave (km/s) = 4.14893 4.33447 4.24271
# Velocity P-wave (km/s) = 6.57035 7.10758 6.84424
#
# Compressibility (1/GPa) = 0.01976451
#
# Stress axis : x y z
#
# Youngs Moduli (GPa) = 77.10078 77.10078 192.06167
#
# Poissons Ratio (x) = 0.15100 0.35845
# Poissons Ratio (y) = 0.15100 0.35845
# Poissons Ratio (z) = 0.14390 0.14390
#
# Static dielectric constant tensor:
#      x y z
#    x 1.755320 0.000000 0.000000 
#    y 0.000000 1.755320 0.000000 
#    z 0.000000 0.000000 1.959310 
# 
# From -- ./inp_files/4467.got.cif
#   From: 2010.05.17/outbox.cif.g08.bks.cpg/sg96_3_cif.got.tgz:4467.got - 2010.06.03 19:52:08.
