data_PCOD9551957
_publ_section_title
;
Structure prediction by ZEFSAII (Michael W. Deem and Ramdas Pophale) SiO2 
 PCOD9551957
Probable space group: I 41 2 2
;
_chemical_formula_sum "Si O2"
_cell_formula_units_Z 40
_cell_length_a 7.336627
_cell_length_b 7.336627
_cell_length_c 30.548833
_cell_angle_alpha 90.000000
_cell_angle_beta 90.000000
_cell_angle_gamma 90.000000
_cell_volume 1644.324410
_symmetry_space_group_name_H-M "I 41 2 2"
_symmetry_group_IT_number 98
_symmetry_cell_setting 'tetragonal'
loop_
_space_group_symop_operation_xyz
x,y,z
-y,1/2+x,1/4+z
-x,-y,z
y,1/2-x,1/4+z
x,1/2-y,1/4-z
-x,1/2+y,1/4-z
y,x,-z
-y,-x,-z
1/2+x,1/2+y,1/2+z
1/2-y,x,3/4+z
1/2-x,1/2-y,1/2+z
1/2+y,-x,3/4+z
1/2+x,-y,3/4-z
1/2-x,y,3/4-z
1/2+y,1/2+x,1/2-z
1/2-y,1/2-x,1/2-z
loop_
_atom_site_type_symbol
_atom_site_label
_atom_site_fract_x
_atom_site_fract_y
_atom_site_fract_z
Si Si1 0.210289 0.943361 0.326397
Si Si2 0.441334 0.696901 0.546529
Si Si3 0.194800 0.305201 0.750000
O O1 0.250000 0.014443 0.375000
O O2 0.263201 0.729152 0.324630
O O3 0.304749 0.037521 0.285406
O O4 0.000000 0.000000 0.318793
O O5 0.500000 0.500000 0.565864
O O6 0.350524 0.649477 0.500000
O O7 0.621852 0.802526 0.530892
#
# Coordination Sequence:
#
# PCOD9551957 Si02
#       3
#    16  16   8
#     4  12  25  43  69 111 144 183 262 308 368 460
#     4   9  18  40  73  89 134 185 236 293 367 446
#     4  10  23  48  75  96 150 203 234 313 386 438
#
# _framework density 24.326101000000001
#
# number of rings (size 3 to 8) (size 9 to 14) (size 15 to 20)
#    0.000    2.000    8.000    0.000    0.000    4.800 
#    0.000    0.000    0.000    0.000    0.000    0.000 
#    0.000    0.000    0.000    0.000    0.000    0.000 
#
# Total GULP energy -111639.079981 kJ/mol
# GULP energy per Si atom -5581.953999 kJ/mol
# Density = 2.427073 g / cm^3
# Si number density = 24.326101 Si / 1000 Ang^3
#
#
#
# Elastic Constant Matrix: (Units=GPa)
#
#
# Indices 1 2 3 4 5 6 
#
# 1 118.7918 41.7296 61.4312 0.0000 0.0000 0.0000
# 2 41.7296 118.7912 61.4326 0.0000 0.0000 0.0000
# 3 61.4312 61.4326 151.6346 0.0000 0.0000 0.0000
# 4 0.0000 0.0000 0.0000 60.0001 0.0000 0.0000
# 5 0.0000 0.0000 0.0000 0.0000 60.0184 0.0000
# 6 0.0000 0.0000 0.0000 0.0000 0.0000 14.8373
#
#
#
# Elastic Compliance Matrix: (Units=1/GPa)
#
#
# Indices 1 2 3 4 5 6 
#
# 1 0.011003 -0.001973 -0.003658 0.000000 0.000000 0.000000
# 2 -0.001973 0.011003 -0.003658 0.000000 0.000000 0.000000
# 3 -0.003658 -0.003658 0.009559 0.000000 0.000000 0.000000
# 4 0.000000 0.000000 0.000000 0.016667 0.000000 0.000000
# 5 0.000000 0.000000 0.000000 0.000000 0.016662 0.000000
# 6 0.000000 0.000000 0.000000 0.000000 0.000000 0.067398
#
#
# Mechanical properties :
#
#
# Convention : Reuss Voigt Hill
#
# Bulk Modulus (GPa) = 77.00902 79.82270 78.41586
# Shear Modulus (GPa) = 32.21660 41.94609 37.08135
#
# Velocity S-wave (km/s) = 3.64313 4.15700 3.90852
# Velocity P-wave (km/s) = 7.03009 7.47835 7.25768
#
# Compressibility (1/GPa) = 0.01298549
#
# Stress axis : x y z
#
# Youngs Moduli (GPa) = 90.88381 90.88212 104.61432
#
# Poissons Ratio (x) = 0.17935 0.38269
# Poissons Ratio (y) = 0.17935 0.38271
# Poissons Ratio (z) = 0.33246 0.33248
#
# Static dielectric constant tensor:
#      x y z
#    x 2.045460 0.000000 0.000000 
#    y 0.000000 2.045430 0.000000 
#    z 0.000000 0.000000 1.858650 
# 
# From -- ./inp_files/11203.got.cif
#   From: 2010.05.17/outbox.cif.g08.bks.cpg/sg98_6_cif.got.tgz:11203.got - 2010.06.03 20:00:51.
