data_PCOD9551623
_publ_section_title
;
Structure prediction by ZEFSAII (Michael W. Deem and Ramdas Pophale) SiO2 
 PCOD9551623
Probable space group: I 4 2 2 
;
_chemical_formula_sum "Si O2"
_cell_formula_units_Z 64
_cell_length_a 24.000000
_cell_length_b 24.000000
_cell_length_c 12.000000
_cell_angle_alpha 90.000000
_cell_angle_beta 90.000000
_cell_angle_gamma 90.000000
_cell_volume 6912.000000
_symmetry_space_group_name_H-M "I 4 2 2 "
_symmetry_group_IT_number 97
_symmetry_cell_setting 'tetragonal'
loop_
_space_group_symop_operation_xyz
x,y,z
-y,x,z
-x,-y,z
y,-x,z
x,-y,-z
-x,y,-z
y,x,-z
-y,-x,-z
1/2+x,1/2+y,1/2+z
1/2-y,1/2+x,1/2+z
1/2-x,1/2-y,1/2+z
1/2+y,1/2-x,1/2+z
1/2+x,1/2-y,1/2-z
1/2-x,1/2+y,1/2-z
1/2+y,1/2+x,1/2-z
1/2-y,1/2-x,1/2-z
loop_
_atom_site_type_symbol
_atom_site_label
_atom_site_fract_x
_atom_site_fract_y
_atom_site_fract_z
Si Si1 0.116627 0.709283 0.746165
Si Si2 0.952205 0.787003 0.086391
Si Si3 0.768119 0.847028 0.054113
Si Si4 0.337591 0.196789 0.128740
Si Si5 0.436757 0.765271 0.012073
Si Si6 0.906575 0.981030 0.796131
Si Si7 0.360809 0.423077 0.087916
Si Si8 0.183146 0.186677 0.712508
O O1 0.150212 0.650212 0.750000
O O2 0.068572 0.737866 0.827391
O O3 0.089427 0.711894 0.625080
O O4 0.163954 0.757197 0.749945
O O5 0.969801 0.848231 0.135957
O O6 0.897162 0.794394 0.013057
O O7 0.000000 0.768405 0.000000
O O8 0.701311 0.841722 0.051300
O O9 0.789595 0.849209 0.180626
O O10 0.791566 0.791566 0.000000
O O11 0.330947 0.169054 0.250000
O O12 0.311000 0.259097 0.135164
O O13 0.398860 0.210184 0.086250
O O14 0.434951 0.697855 0.026245
O O15 0.500000 0.782268 0.000000
O O16 0.883466 0.970211 0.670928
O O17 0.957778 0.935716 0.814212
O O18 0.347666 0.366088 0.157807
O O19 0.407515 0.407515 0.000000
#
# Coordination Sequence:
#
# PCOD9551623 Si02
#       8
#    16  16  16  16  16  16  16  16
#     4  11  22  40  62  92 126 162 208 258 331 410
#     4  12  27  40  65  91 123 174 223 282 342 405
#     4  11  21  35  59  88 120 158 202 261 331 387
#     4  10  22  36  59  92 126 160 204 258 323 412
#     4  11  24  38  59  93 128 168 202 252 323 395
#     4  11  27  46  60  82 118 174 247 301 325 369
#     4  11  22  37  64  80 115 160 220 272 330 382
#     4  10  20  34  56  89 115 154 197 263 321 403
#
# _framework density 9.2592590000000001
#
# number of rings (size 3 to 8) (size 9 to 14) (size 15 to 20)
#    0.000    1.125    5.000    1.875    8.750    2.000 
#    0.000    1.250    0.000    0.000    0.000    0.000 
#    0.000   21.500    0.000    0.000    0.000    0.000 
#
# Total GULP energy -356741.252131 kJ/mol
# GULP energy per Si atom -5574.082065 kJ/mol
# Density = 0.923818 g / cm^3
# Si number density = 9.259259 Si / 1000 Ang^3
#
#
#
# Elastic Constant Matrix: (Units=GPa)
#
#
# Indices 1 2 3 4 5 6 
#
# 1 76.2855 41.0278 33.0368 0.0000 0.0000 0.0000
# 2 41.0278 76.2856 33.0360 0.0000 0.0000 0.0000
# 3 33.0368 33.0360 60.8508 0.0000 0.0000 0.0000
# 4 0.0000 0.0000 0.0000 27.9444 0.0000 0.0000
# 5 0.0000 0.0000 0.0000 0.0000 27.9441 0.0000
# 6 0.0000 0.0000 0.0000 0.0000 0.0000 25.9085
#
#
#
# Elastic Compliance Matrix: (Units=1/GPa)
#
#
# Indices 1 2 3 4 5 6 
#
# 1 0.020321 -0.008042 -0.006666 0.000000 0.000000 0.000000
# 2 -0.008042 0.020320 -0.006666 0.000000 0.000000 0.000000
# 3 -0.006666 -0.006666 0.023672 0.000000 0.000000 0.000000
# 4 0.000000 0.000000 0.000000 0.035785 0.000000 0.000000
# 5 0.000000 0.000000 0.000000 0.000000 0.035786 0.000000
# 6 0.000000 0.000000 0.000000 0.000000 0.000000 0.038597
#
#
# Mechanical properties :
#
#
# Convention : Reuss Voigt Hill
#
# Bulk Modulus (GPa) = 46.37254 47.51367 46.94310
# Shear Modulus (GPa) = 22.27981 23.44749 22.86365
#
# Velocity S-wave (km/s) = 3.47235 3.56218 3.51755
# Velocity P-wave (km/s) = 6.41653 6.52931 6.47317
#
# Compressibility (1/GPa) = 0.02156449
#
# Stress axis : x y z
#
# Youngs Moduli (GPa) = 49.21070 49.21145 42.24419
#
# Poissons Ratio (x) = 0.39576 0.28162
# Poissons Ratio (y) = 0.39575 0.28160
# Poissons Ratio (z) = 0.32806 0.32804
#
# Static dielectric constant tensor:
#      x y z
#    x 1.669010 0.000000 0.000000 
#    y 0.000000 1.669010 0.000000 
#    z 0.000000 0.000000 1.744930 
# 
# From -- ./inp_files/4066.got.cif
#   From: 2010.05.17/outbox.ucp.g08.bks.cvg/sg97_3_cif.got.tgz:4066.got - 2010.06.11 10:37:40.
