data_PCOD9551461
_publ_section_title
;
Structure prediction by ZEFSAII (Michael W. Deem and Ramdas Pophale) SiO2 
 PCOD9551461
Probable space group: I 4 2 2 
;
_chemical_formula_sum "Si O2"
_cell_formula_units_Z 112
_cell_length_a 14.658540
_cell_length_b 14.658540
_cell_length_c 23.715819
_cell_angle_alpha 90.000000
_cell_angle_beta 90.000000
_cell_angle_gamma 90.000000
_cell_volume 5095.884313
_symmetry_space_group_name_H-M "I 4 2 2 "
_symmetry_group_IT_number 97
_symmetry_cell_setting 'tetragonal'
loop_
_space_group_symop_operation_xyz
x,y,z
-y,x,z
-x,-y,z
y,-x,z
x,-y,-z
-x,y,-z
y,x,-z
-y,-x,-z
1/2+x,1/2+y,1/2+z
1/2-y,1/2+x,1/2+z
1/2-x,1/2-y,1/2+z
1/2+y,1/2-x,1/2+z
1/2+x,1/2-y,1/2-z
1/2-x,1/2+y,1/2-z
1/2+y,1/2+x,1/2-z
1/2-y,1/2-x,1/2-z
loop_
_atom_site_type_symbol
_atom_site_label
_atom_site_fract_x
_atom_site_fract_y
_atom_site_fract_z
Si Si1 0.922526 0.581797 0.445224
Si Si2 0.413969 0.631094 0.885777
Si Si3 0.507780 0.893235 0.169121
Si Si4 0.807165 0.556222 0.612729
Si Si5 0.833117 0.289708 0.462762
Si Si6 0.256087 0.996736 0.771159
Si Si7 0.318459 0.325546 0.231988
O O1 0.946052 0.631735 0.385552
O O2 0.836142 0.518584 0.433179
O O3 0.900824 0.648749 0.497304
O O4 0.000000 0.500000 0.447048
O O5 0.378292 0.525153 0.887774
O O6 0.387078 0.706480 0.932601
O O7 0.362760 0.672099 0.830323
O O8 0.609205 0.891339 0.144692
O O9 0.491116 0.836250 0.225067
O O10 0.500000 0.000000 0.181861
O O11 0.774756 0.642944 0.577754
O O12 0.770152 0.493342 0.662736
O O13 0.760180 0.239821 0.500000
O O14 0.228504 0.892282 0.767408
O O15 0.183594 0.069710 0.750621
O O16 0.222641 0.277360 0.250000
#
# Coordination Sequence:
#
# PCOD9551461 Si02
#       7
#    16  16  16  16  16  16  16
#     4   9  23  43  67 100 140 195 245 301 395 455
#     4  11  26  49  72 100 151 206 256 311 380 456
#     4   9  21  39  69 100 143 189 238 310 383 457
#     4  10  23  41  64 100 143 184 237 311 384 453
#     4  12  27  43  72 104 147 195 260 323 375 469
#     4  12  25  44  69 105 148 187 252 304 378 463
#     4  12  27  44  72 105 145 198 247 308 380 459
#
# _framework density 21.978521000000001
#
# number of rings (size 3 to 8) (size 9 to 14) (size 15 to 20)
#    0.000    1.571    1.429    3.429    6.000   12.286 
#    0.000    2.143    0.000    0.000    0.000    0.000 
#    0.000    1.143    0.000    0.000    0.000    0.000 
#
# Total GULP energy -311788.975817 kJ/mol
# GULP energy per Si atom -5567.660282 kJ/mol
# Density = 2.192850 g / cm^3
# Si number density = 21.978521 Si / 1000 Ang^3
#
#
#
# Elastic Constant Matrix: (Units=GPa)
#
#
# Indices 1 2 3 4 5 6 
#
# 1 84.0004 0.0192 40.9854 0.0000 0.0000 0.0000
# 2 0.0192 83.9961 40.9840 0.0000 0.0000 0.0000
# 3 40.9854 40.9840 134.8443 0.0000 0.0000 0.0000
# 4 0.0000 0.0000 0.0000 24.4414 0.0000 0.0000
# 5 0.0000 0.0000 0.0000 0.0000 24.4439 0.0000
# 6 0.0000 0.0000 0.0000 0.0000 0.0000 27.9972
#
#
#
# Elastic Compliance Matrix: (Units=1/GPa)
#
#
# Indices 1 2 3 4 5 6 
#
# 1 0.014413 0.002506 -0.005142 0.000000 0.000000 0.000000
# 2 0.002506 0.014414 -0.005143 0.000000 0.000000 0.000000
# 3 -0.005142 -0.005143 0.010542 0.000000 0.000000 0.000000
# 4 0.000000 0.000000 0.000000 0.040914 0.000000 0.000000
# 5 0.000000 0.000000 0.000000 0.000000 0.040910 0.000000
# 6 0.000000 0.000000 0.000000 0.000000 0.000000 0.035718
#
#
# Mechanical properties :
#
#
# Convention : Reuss Voigt Hill
#
# Bulk Modulus (GPa) = 41.99767 51.86867 46.93317
# Shear Modulus (GPa) = 27.71520 30.09999 28.90759
#
# Velocity S-wave (km/s) = 3.55493 3.70472 3.63059
# Velocity P-wave (km/s) = 6.00000 6.47695 6.24303
#
# Compressibility (1/GPa) = 0.02381085
#
# Stress axis : x y z
#
# Youngs Moduli (GPa) = 69.38066 69.37730 94.85862
#
# Poissons Ratio (x) = -0.17385 0.48781
# Poissons Ratio (y) = -0.17386 0.48782
# Poissons Ratio (z) = 0.35679 0.35678
#
# Static dielectric constant tensor:
#      x y z
#    x 1.930180 0.000000 0.000000 
#    y 0.000000 1.930200 0.000000 
#    z 0.000000 0.000000 2.063810 
# 
# From -- ./inp_files/7290.got.cif
#   From: 2010.05.17/outbox.cif.g08.bks.cpg/sg97_4_cif.got.tgz:7290.got - 2010.06.03 19:55:32.
