data_PCOD9551427
_publ_section_title
;
Structure prediction by ZEFSAII (Michael W. Deem and Ramdas Pophale) SiO2 
 PCOD9551427
Probable space group: I 4 2 2 
;
_chemical_formula_sum "Si O2"
_cell_formula_units_Z 88
_cell_length_a 11.558297
_cell_length_b 11.558297
_cell_length_c 31.783730
_cell_angle_alpha 90.000000
_cell_angle_beta 90.000000
_cell_angle_gamma 90.000000
_cell_volume 4246.122921
_symmetry_space_group_name_H-M "I 4 2 2 "
_symmetry_group_IT_number 97
_symmetry_cell_setting 'tetragonal'
loop_
_space_group_symop_operation_xyz
x,y,z
-y,x,z
-x,-y,z
y,-x,z
x,-y,-z
-x,y,-z
y,x,-z
-y,-x,-z
1/2+x,1/2+y,1/2+z
1/2-y,1/2+x,1/2+z
1/2-x,1/2-y,1/2+z
1/2+y,1/2-x,1/2+z
1/2+x,1/2-y,1/2-z
1/2-x,1/2+y,1/2-z
1/2+y,1/2+x,1/2-z
1/2-y,1/2-x,1/2-z
loop_
_atom_site_type_symbol
_atom_site_label
_atom_site_fract_x
_atom_site_fract_y
_atom_site_fract_z
Si Si1 0.133901 0.139971 0.375277
Si Si2 0.451240 0.311157 0.255859
Si Si3 0.514914 0.832856 0.548335
Si Si4 0.745992 0.241472 0.952206
Si Si5 0.000000 0.500000 0.380640
Si Si6 0.336194 0.853454 0.680520
O O1 0.170431 0.184390 0.420919
O O2 0.224889 0.199529 0.343635
O O3 0.997602 0.156497 0.368980
O O4 0.579515 0.363791 0.253180
O O5 0.418481 0.241992 0.298128
O O6 0.427779 0.221972 0.217959
O O7 0.500000 0.875465 0.500000
O O8 0.614463 0.737528 0.548030
O O9 0.385717 0.797182 0.559605
O O10 0.560372 0.916862 0.585037
O O11 0.720895 0.279106 0.000000
O O12 0.930369 0.411941 0.351250
#
# Coordination Sequence:
#
# PCOD9551427 Si02
#       6
#    16  16  16  16   8  16
#     4  11  23  41  63  93 133 175 222 277 336 401
#     4  10  24  46  67  95 133 170 213 270 338 400
#     4  10  22  41  64  91 133 177 224 280 336 393
#     4  10  22  40  63  93 126 177 229 278 339 394
#     4  12  23  41  62 100 132 170 222 275 333 392
#     4  11  24  41  70  98 127 174 217 274 330 407
#
# _framework density 20.724789999999999
#
# number of rings (size 3 to 8) (size 9 to 14) (size 15 to 20)
#    0.000    1.455    1.818    2.455    0.000    9.818 
#    0.000    2.727    0.000    0.000    0.000    0.000 
#    0.000    0.000    0.000    0.000    0.000    0.000 
#
# Total GULP energy -245467.589060 kJ/mol
# GULP energy per Si atom -5578.808842 kJ/mol
# Density = 2.067762 g / cm^3
# Si number density = 20.724790 Si / 1000 Ang^3
#
#
#
# Elastic Constant Matrix: (Units=GPa)
#
#
# Indices 1 2 3 4 5 6 
#
# 1 62.3273 25.9346 31.1408 0.0000 0.0000 0.0000
# 2 25.9346 62.3271 31.1408 0.0000 0.0000 0.0000
# 3 31.1408 31.1408 118.1282 0.0000 0.0000 0.0000
# 4 0.0000 0.0000 0.0000 391.5779 -0.0001 0.0000
# 5 0.0000 0.0000 0.0000 -0.0001 391.8264 0.0000
# 6 0.0000 0.0000 0.0000 0.0000 0.0000 9.5923
#
#
#
# Elastic Compliance Matrix: (Units=1/GPa)
#
#
# Indices 1 2 3 4 5 6 
#
# 1 0.020699 -0.006779 -0.003669 0.000000 0.000000 0.000000
# 2 -0.006779 0.020699 -0.003669 0.000000 0.000000 0.000000
# 3 -0.003669 -0.003669 0.010400 0.000000 0.000000 0.000000
# 4 0.000000 0.000000 0.000000 0.002554 0.000000 0.000000
# 5 0.000000 0.000000 0.000000 0.000000 0.002552 0.000000
# 6 0.000000 0.000000 0.000000 0.000000 0.000000 0.104251
#
#
# Mechanical properties :
#
#
# Convention : Reuss Voigt Hill
#
# Bulk Modulus (GPa) = 42.44311 46.57946 44.51129
# Shear Modulus (GPa) = 25.34934 168.90373 97.12653
#
# Velocity S-wave (km/s) = 3.50114 9.03744 6.85322
# Velocity P-wave (km/s) = 6.07189 11.46405 9.17312
#
# Compressibility (1/GPa) = 0.02356095
#
# Stress axis : x y z
#
# Youngs Moduli (GPa) = 48.31237 48.31225 96.15382
#
# Poissons Ratio (x) = 0.32753 0.35282
# Poissons Ratio (y) = 0.32753 0.35282
# Poissons Ratio (z) = 0.17728 0.17728
#
# Static dielectric constant tensor:
#      x y z
#    x -5.594330 0.000000 0.000000 
#    y 0.000000 -5.599620 0.000000 
#    z 0.000000 0.000000 1.769140 
# 
# From -- ./inp_files/8091.got.cif
#   From: 2010.05.17/outbox.cif.g08.bks.cpg/sg97_5_cif.got.tgz:8091.got - 2010.06.03 19:55:32.
