data_PCOD9551482
_publ_section_title
;
Structure prediction by ZEFSAII (Michael W. Deem and Ramdas Pophale) SiO2 
 PCOD9551482
Probable space group: I 4 2 2 
;
_chemical_formula_sum "Si O2"
_cell_formula_units_Z 40
_cell_length_a 18.513361
_cell_length_b 18.513361
_cell_length_c 4.830175
_cell_angle_alpha 90.000000
_cell_angle_beta 90.000000
_cell_angle_gamma 90.000000
_cell_volume 1655.516087
_symmetry_space_group_name_H-M "I 4 2 2 "
_symmetry_group_IT_number 97
_symmetry_cell_setting 'tetragonal'
loop_
_space_group_symop_operation_xyz
x,y,z
-y,x,z
-x,-y,z
y,-x,z
x,-y,-z
-x,y,-z
y,x,-z
-y,-x,-z
1/2+x,1/2+y,1/2+z
1/2-y,1/2+x,1/2+z
1/2-x,1/2-y,1/2+z
1/2+y,1/2-x,1/2+z
1/2+x,1/2-y,1/2-z
1/2-x,1/2+y,1/2-z
1/2+y,1/2+x,1/2-z
1/2-y,1/2-x,1/2-z
loop_
_atom_site_type_symbol
_atom_site_label
_atom_site_fract_x
_atom_site_fract_y
_atom_site_fract_z
Si Si1 0.771110 0.864475 0.346485
Si Si2 0.686236 0.922897 0.849911
Si Si3 0.414230 0.585771 0.000000
O O1 0.610081 0.889920 0.750000
O O2 0.736952 0.916852 0.580923
O O3 0.721555 0.870311 0.079437
O O4 0.852242 0.892080 0.278775
O O5 0.710746 0.710746 0.000000
O O6 0.681538 0.000000 0.000000
O O7 0.404689 0.500000 0.000000
#
# Coordination Sequence:
#
# PCOD9551482 Si02
#       3
#    16  16   8
#     4  10  24  43  69 105 149 195 249 303 377 461
#     4  12  25  46  75 107 146 195 253 321 392 458
#     4   9  18  36  64 102 150 202 252 300 355 444
#
# _framework density 24.161649000000001
#
# number of rings (size 3 to 8) (size 9 to 14) (size 15 to 20)
#    1.200    0.200    0.000    6.000    0.000    3.200 
#    0.000    2.000    0.000   28.800    0.000    0.000 
#    0.000    0.000    0.000    0.000    0.000    0.000 
#
# Total GULP energy -111448.664812 kJ/mol
# GULP energy per Si atom -5572.433241 kJ/mol
# Density = 2.410666 g / cm^3
# Si number density = 24.161649 Si / 1000 Ang^3
#
#
#
# Elastic Constant Matrix: (Units=GPa)
#
#
# Indices 1 2 3 4 5 6 
#
# 1 142.0227 44.6773 48.9987 0.0000 0.0000 0.0000
# 2 44.6773 142.0092 48.9955 0.0000 0.0000 0.0000
# 3 48.9987 48.9955 160.5630 0.0000 0.0000 0.0000
# 4 0.0000 0.0000 0.0000 32.9960 0.0000 0.0000
# 5 0.0000 0.0000 0.0000 0.0000 32.9972 0.0000
# 6 0.0000 0.0000 0.0000 0.0000 0.0000 33.3772
#
#
#
# Elastic Compliance Matrix: (Units=1/GPa)
#
#
# Indices 1 2 3 4 5 6 
#
# 1 0.008325 -0.001948 -0.001946 0.000000 0.000000 0.000000
# 2 -0.001948 0.008326 -0.001946 0.000000 0.000000 0.000000
# 3 -0.001946 -0.001946 0.007416 0.000000 0.000000 0.000000
# 4 0.000000 0.000000 0.000000 0.030307 0.000000 0.000000
# 5 0.000000 0.000000 0.000000 0.000000 0.030306 0.000000
# 6 0.000000 0.000000 0.000000 0.000000 0.000000 0.029961
#
#
# Mechanical properties :
#
#
# Convention : Reuss Voigt Hill
#
# Bulk Modulus (GPa) = 80.73159 81.10422 80.91791
# Shear Modulus (GPa) = 38.32894 40.00230 39.16562
#
# Velocity S-wave (km/s) = 3.98723 4.07333 4.03051
# Velocity P-wave (km/s) = 7.39479 7.46746 7.43121
#
# Compressibility (1/GPa) = 0.01238672
#
# Stress axis : x y z
#
# Youngs Moduli (GPa) = 120.11557 120.10458 134.84465
#
# Poissons Ratio (x) = 0.23393 0.26245
# Poissons Ratio (y) = 0.23395 0.26245
# Poissons Ratio (z) = 0.23378 0.23376
#
# Static dielectric constant tensor:
#      x y z
#    x 2.008950 0.000000 0.000000 
#    y 0.000000 2.008950 0.000000 
#    z 0.000000 0.000000 1.933710 
# 
# From -- ./inp_files/1445.got.cif
#   From: 2010.05.17/outbox.cif.g08.bks.cpg/sg97_1_cif.got.tgz:1445.got - 2010.06.03 19:55:32.
