data_PCOD9551895
_publ_section_title
;
Structure prediction by ZEFSAII (Michael W. Deem and Ramdas Pophale) SiO2 
 PCOD9551895
Probable space group: I 41 2 2
;
_chemical_formula_sum "Si O2"
_cell_formula_units_Z 108
_cell_length_a 15.897683
_cell_length_b 15.897683
_cell_length_c 22.155016
_cell_angle_alpha 90.000000
_cell_angle_beta 90.000000
_cell_angle_gamma 90.000000
_cell_volume 5599.377319
_symmetry_space_group_name_H-M "I 41 2 2"
_symmetry_group_IT_number 98
_symmetry_cell_setting 'tetragonal'
loop_
_space_group_symop_operation_xyz
x,y,z
-y,1/2+x,1/4+z
-x,-y,z
y,1/2-x,1/4+z
x,1/2-y,1/4-z
-x,1/2+y,1/4-z
y,x,-z
-y,-x,-z
1/2+x,1/2+y,1/2+z
1/2-y,x,3/4+z
1/2-x,1/2-y,1/2+z
1/2+y,-x,3/4+z
1/2+x,-y,3/4-z
1/2-x,y,3/4-z
1/2+y,1/2+x,1/2-z
1/2-y,1/2-x,1/2-z
loop_
_atom_site_type_symbol
_atom_site_label
_atom_site_fract_x
_atom_site_fract_y
_atom_site_fract_z
Si Si1 0.689683 0.761877 0.318346
Si Si2 0.928454 0.149916 0.124535
Si Si3 0.155676 0.955664 0.229364
Si Si4 0.639686 0.139686 0.750000
Si Si5 0.361026 0.078655 0.960099
Si Si6 0.675549 0.997285 0.180684
Si Si7 0.500000 0.500000 0.000000
Si Si8 0.930328 0.314445 0.950768
O O1 0.750000 0.783456 0.375000
O O2 0.705824 0.794177 0.250000
O O3 0.689162 0.661643 0.307659
O O4 0.597600 0.796250 0.334767
O O5 0.908215 0.250000 0.125000
O O6 0.869019 0.096452 0.168911
O O7 0.020063 0.135543 0.151513
O O8 0.919671 0.122146 0.056303
O O9 0.121636 0.897704 0.282458
O O10 0.108506 0.045357 0.228371
O O11 0.254859 0.970946 0.228450
O O12 0.733549 0.120966 0.725059
O O13 0.321577 0.018057 0.011340
O O14 0.583209 0.999732 0.208586
O O15 0.685708 0.050066 0.119575
#
# Coordination Sequence:
#
# PCOD9551895 Si02
#       8
#    16  16  16   8  16  16   4  16
#     4  11  23  44  70  97 135 175 230 285 333 402
#     4  11  19  37  58  92 135 170 209 265 328 391
#     4  10  22  41  64  93 128 171 225 275 328 415
#     4  12  22  33  65  96 136 174 214 276 320 420
#     4  10  22  39  65  93 130 176 224 271 330 408
#     4  11  25  46  66  98 130 172 225 285 347 407
#     4  12  28  50  68  92 140 166 224 308 350 392
#     4  11  22  40  68  97 132 178 223 264 352 405
#
# _framework density 19.287859000000001
#
# number of rings (size 3 to 8) (size 9 to 14) (size 15 to 20)
#    0.000    1.185    5.185    3.111    2.074    0.593 
#    0.000    3.704    0.000    0.000    0.000    0.000 
#    0.000    0.000    0.000    0.000    0.000    0.000 
#
# Total GULP energy -301396.201403 kJ/mol
# GULP energy per Si atom -5581.411137 kJ/mol
# Density = 1.924396 g / cm^3
# Si number density = 19.287859 Si / 1000 Ang^3
#
#
#
# Elastic Constant Matrix: (Units=GPa)
#
#
# Indices 1 2 3 4 5 6 
#
# 1 51.2176 16.1551 16.1629 0.0000 0.0000 0.0000
# 2 16.1551 51.2145 16.1625 0.0000 0.0000 0.0000
# 3 16.1629 16.1625 83.3942 0.0000 0.0000 0.0000
# 4 0.0000 0.0000 0.0000 16.0099 0.0000 0.0000
# 5 0.0000 0.0000 0.0000 0.0000 16.0099 0.0000
# 6 0.0000 0.0000 0.0000 0.0000 0.0000 22.3206
#
#
#
# Elastic Compliance Matrix: (Units=1/GPa)
#
#
# Indices 1 2 3 4 5 6 
#
# 1 0.022443 -0.006078 -0.003172 0.000000 0.000000 0.000000
# 2 -0.006078 0.022444 -0.003172 0.000000 0.000000 0.000000
# 3 -0.003172 -0.003172 0.013221 0.000000 0.000000 0.000000
# 4 0.000000 0.000000 0.000000 0.062461 0.000000 0.000000
# 5 0.000000 0.000000 0.000000 0.000000 0.062461 0.000000
# 6 0.000000 0.000000 0.000000 0.000000 0.000000 0.044802
#
#
# Mechanical properties :
#
#
# Convention : Reuss Voigt Hill
#
# Bulk Modulus (GPa) = 30.06275 31.42081 30.74178
# Shear Modulus (GPa) = 18.95640 20.02448 19.49044
#
# Velocity S-wave (km/s) = 3.13839 3.22559 3.18229
# Velocity P-wave (km/s) = 5.36217 5.49531 5.42915
#
# Compressibility (1/GPa) = 0.03326376
#
# Stress axis : x y z
#
# Youngs Moduli (GPa) = 44.55798 44.55527 75.63911
#
# Poissons Ratio (x) = 0.27082 0.23990
# Poissons Ratio (y) = 0.27084 0.23991
# Poissons Ratio (z) = 0.14132 0.14132
#
# Static dielectric constant tensor:
#      x y z
#    x 1.683260 0.000000 0.000000 
#    y 0.000000 1.683260 0.000000 
#    z 0.000000 0.000000 1.648840 
# 
# From -- ./inp_files/10134.got.cif
#   From: 2010.05.17/outbox.cif.g08.bks.cpg/sg98_6_cif.got.tgz:10134.got - 2010.06.03 20:00:51.
