data_PCOD9551602
_publ_section_title
;
Structure prediction by ZEFSAII (Michael W. Deem and Ramdas Pophale) SiO2 
 PCOD9551602
Probable space group: I 4 2 2 
;
_chemical_formula_sum "Si O2"
_cell_formula_units_Z 56
_cell_length_a 11.308417
_cell_length_b 11.308417
_cell_length_c 18.969453
_cell_angle_alpha 90.000000
_cell_angle_beta 90.000000
_cell_angle_gamma 90.000000
_cell_volume 2425.819246
_symmetry_space_group_name_H-M "I 4 2 2 "
_symmetry_group_IT_number 97
_symmetry_cell_setting 'tetragonal'
loop_
_space_group_symop_operation_xyz
x,y,z
-y,x,z
-x,-y,z
y,-x,z
x,-y,-z
-x,y,-z
y,x,-z
-y,-x,-z
1/2+x,1/2+y,1/2+z
1/2-y,1/2+x,1/2+z
1/2-x,1/2-y,1/2+z
1/2+y,1/2-x,1/2+z
1/2+x,1/2-y,1/2-z
1/2-x,1/2+y,1/2-z
1/2+y,1/2+x,1/2-z
1/2-y,1/2-x,1/2-z
loop_
_atom_site_type_symbol
_atom_site_label
_atom_site_fract_x
_atom_site_fract_y
_atom_site_fract_z
Si Si1 0.500000 0.698931 0.000000
Si Si2 0.817170 0.942478 0.901274
Si Si3 0.124700 0.563744 0.884103
Si Si4 0.050408 0.185981 0.269319
O O1 0.386700 0.613301 0.000000
O O2 0.493851 0.784850 0.933311
O O3 0.688434 0.900543 0.922634
O O4 0.808079 0.946135 0.815439
O O5 0.925105 0.856534 0.921750
O O6 0.196169 0.578438 0.811484
O O7 0.000000 0.500000 0.873337
O O8 0.919079 0.140530 0.289043
#
# Coordination Sequence:
#
# PCOD9551602 Si02
#       4
#     8  16  16  16
#     4  11  27  50  72  90 117 167 226 282 336 383
#     4   9  21  40  63  95 135 176 209 254 327 404
#     4  12  25  39  64  99 128 167 217 279 326 384
#     4   9  19  38  63  94 133 175 216 260 322 386
#
# _framework density 23.084986000000001
#
# number of rings (size 3 to 8) (size 9 to 14) (size 15 to 20)
#    0.000    1.857    0.000    4.714    8.000    4.571 
#    0.000    0.000    0.000    0.000    0.000    0.000 
#    0.000    0.000    0.000    0.000    0.000    0.000 
#
# Total GULP energy -156708.754795 kJ/mol
# GULP energy per Si atom -5596.741243 kJ/mol
# Density = 2.303244 g / cm^3
# Si number density = 23.084986 Si / 1000 Ang^3
#
#
#
# Elastic Constant Matrix: (Units=GPa)
#
#
# Indices 1 2 3 4 5 6 
#
# 1 121.7670 71.0285 12.8013 0.0000 0.0000 0.0000
# 2 71.0285 121.7674 12.8016 0.0000 0.0000 0.0000
# 3 12.8013 12.8016 71.2272 0.0000 0.0000 0.0000
# 4 0.0000 0.0000 0.0000 29.0419 0.0000 0.0000
# 5 0.0000 0.0000 0.0000 0.0000 29.0421 0.0000
# 6 0.0000 0.0000 0.0000 0.0000 0.0000 13.3315
#
#
#
# Elastic Compliance Matrix: (Units=1/GPa)
#
#
# Indices 1 2 3 4 5 6 
#
# 1 0.012511 -0.007198 -0.000955 0.000000 0.000000 0.000000
# 2 -0.007198 0.012511 -0.000955 0.000000 0.000000 0.000000
# 3 -0.000955 -0.000955 0.014383 0.000000 0.000000 0.000000
# 4 0.000000 0.000000 0.000000 0.034433 0.000000 0.000000
# 5 0.000000 0.000000 0.000000 0.000000 0.034433 0.000000
# 6 0.000000 0.000000 0.000000 0.000000 0.000000 0.075010
#
#
# Mechanical properties :
#
#
# Convention : Reuss Voigt Hill
#
# Bulk Modulus (GPa) = 47.19177 56.44719 51.81948
# Shear Modulus (GPa) = 23.97389 28.82510 26.39949
#
# Velocity S-wave (km/s) = 3.22608 3.53746 3.38535
# Velocity P-wave (km/s) = 5.86207 6.41793 6.14628
#
# Compressibility (1/GPa) = 0.02119014
#
# Stress axis : x y z
#
# Youngs Moduli (GPa) = 79.92799 79.92820 69.52722
#
# Poissons Ratio (x) = 0.57529 0.06640
# Poissons Ratio (y) = 0.57529 0.06640
# Poissons Ratio (z) = 0.07633 0.07634
#
# Static dielectric constant tensor:
#      x y z
#    x 1.837780 0.000000 0.000000 
#    y 0.000000 1.837780 0.000000 
#    z 0.000000 0.000000 1.886280 
# 
# From -- ./inp_files/6228.got.cif
#   From: 2010.05.17/outbox.cif.g08.bks.cpg/sg97_4_cif.got.tgz:6228.got - 2010.06.03 19:55:32.
