data_PCOD9551082
_publ_section_title
;
Structure prediction by ZEFSAII (Michael W. Deem and Ramdas Pophale) SiO2 
 PCOD9551082
Probable space group: P 43 21 2
;
_chemical_formula_sum "Si O2"
_cell_formula_units_Z 24
_cell_length_a 7.539772
_cell_length_b 7.539772
_cell_length_c 16.985972
_cell_angle_alpha 90.000000
_cell_angle_beta 90.000000
_cell_angle_gamma 90.000000
_cell_volume 965.621285
_symmetry_space_group_name_H-M "P 43 21 2"
_symmetry_group_IT_number 96
_symmetry_cell_setting 'tetragonal'
loop_
_space_group_symop_operation_xyz
x,y,z
1/2-y,1/2+x,3/4+z
-x,-y,1/2+z
1/2+y,1/2-x,1/4+z
1/2+x,1/2-y,1/4-z
1/2-x,1/2+y,3/4-z
y,x,-z
-y,-x,1/2-z
loop_
_atom_site_type_symbol
_atom_site_label
_atom_site_fract_x
_atom_site_fract_y
_atom_site_fract_z
Si Si1 0.554986 0.183127 0.206780
Si Si2 0.408741 0.886218 0.119680
Si Si3 0.000611 0.981172 0.341106
O O1 0.716819 0.283182 0.250000
O O2 0.430835 0.125123 0.278674
O O3 0.481834 0.331141 0.146079
O O4 0.569512 0.004358 0.155066
O O5 0.437538 0.678520 0.128468
O O6 0.228723 0.956514 0.158699
O O7 0.972674 0.027327 0.250000
#
# Coordination Sequence:
#
# PCOD9551082 Si02
#       3
#     8   8   8
#     4  10  25  48  77 111 154 207 258 320 395 467
#     4  11  24  49  76 111 154 200 265 321 395 469
#     4  11  25  46  77 112 155 204 260 327 398 470
#
# _framework density 24.854465000000001
#
# number of rings (size 3 to 8) (size 9 to 14) (size 15 to 20)
#    0.000    1.333    3.333    0.000    0.000   16.000 
#    6.000    0.000    0.000    0.000    0.000    0.000 
#    0.000    0.000    0.000    0.000    0.000    0.000 
#
# Total GULP energy -134270.433618 kJ/mol
# GULP energy per Si atom -5594.601401 kJ/mol
# Density = 2.479790 g / cm^3
# Si number density = 24.854465 Si / 1000 Ang^3
#
#
#
# Elastic Constant Matrix: (Units=GPa)
#
#
# Indices 1 2 3 4 5 6 
#
# 1 49.2719 71.0846 49.0914 0.0000 0.0000 0.0000
# 2 71.0846 49.2690 49.0904 0.0000 0.0000 0.0000
# 3 49.0914 49.0904 168.0914 0.0000 0.0000 0.0000
# 4 0.0000 0.0000 0.0000 5.6976 0.0000 0.0000
# 5 0.0000 0.0000 0.0000 0.0000 5.6981 0.0000
# 6 0.0000 0.0000 0.0000 0.0000 0.0000 35.5577
#
#
#
# Elastic Compliance Matrix: (Units=1/GPa)
#
#
# Indices 1 2 3 4 5 6 
#
# 1 -0.017467 0.028375 -0.003186 0.000000 0.000000 0.000000
# 2 0.028375 -0.017468 -0.003185 0.000000 0.000000 0.000000
# 3 -0.003186 -0.003185 0.007810 0.000000 0.000000 0.000000
# 4 0.000000 0.000000 0.000000 0.175514 0.000000 0.000000
# 5 0.000000 0.000000 0.000000 0.000000 0.175498 0.000000
# 6 0.000000 0.000000 0.000000 0.000000 0.000000 0.028123
#
#
# Mechanical properties :
#
#
# Convention : Reuss Voigt Hill
#
# Bulk Modulus (GPa) = 59.23265 67.24056 63.23661
# Shear Modulus (GPa) = 15.94228 15.88172 15.91200
#
# Velocity S-wave (km/s) = 2.53539 2.53056 2.53298
# Velocity P-wave (km/s) = 5.69688 5.97083 5.83546
#
# Compressibility (1/GPa) = 0.01688258
#
# Stress axis : x y z
#
# Youngs Moduli (GPa) = -57.25208 -57.24826 128.04461
#
# Poissons Ratio (x) = 1.62439 0.40789
# Poissons Ratio (y) = 1.62450 0.40788
# Poissons Ratio (z) = -0.18238 -0.18236
#
# Static dielectric constant tensor:
#      x y z
#    x 2.022410 0.000000 0.000000 
#    y 0.000000 2.022410 0.000000 
#    z 0.000000 0.000000 1.936830 
# 
# From -- ./inp_files/2445.got.cif
#   From: 2010.05.17/outbox.cif.g08.bks.cpg/sg96_2_cif.got.tgz:2445.got - 2010.06.03 19:52:08.
