data_PCOD9551022
_publ_section_title
;
Structure prediction by ZEFSAII (Michael W. Deem and Ramdas Pophale) SiO2 
 PCOD9551022
Probable space group: P 43 21 2
;
_chemical_formula_sum "Si O2"
_cell_formula_units_Z 40
_cell_length_a 7.742965
_cell_length_b 7.742965
_cell_length_c 24.933993
_cell_angle_alpha 90.000000
_cell_angle_beta 90.000000
_cell_angle_gamma 90.000000
_cell_volume 1494.880324
_symmetry_space_group_name_H-M "P 43 21 2"
_symmetry_group_IT_number 96
_symmetry_cell_setting 'tetragonal'
loop_
_space_group_symop_operation_xyz
x,y,z
1/2-y,1/2+x,3/4+z
-x,-y,1/2+z
1/2+y,1/2-x,1/4+z
1/2+x,1/2-y,1/4-z
1/2-x,1/2+y,3/4-z
y,x,-z
-y,-x,1/2-z
loop_
_atom_site_type_symbol
_atom_site_label
_atom_site_fract_x
_atom_site_fract_y
_atom_site_fract_z
Si Si1 0.396373 0.902406 0.012683
Si Si2 0.297072 0.238861 0.586800
Si Si3 0.281326 0.825404 0.906828
Si Si4 0.042159 0.635842 0.831375
Si Si5 0.564322 0.543686 0.827624
O O1 0.560177 0.838806 0.046707
O O2 0.214330 0.930872 0.041835
O O3 0.446542 0.077859 0.979807
O O4 0.353869 0.764526 0.964480
O O5 0.383434 0.409257 0.611900
O O6 0.102396 0.212663 0.564902
O O7 0.283162 0.124957 0.642116
O O8 0.430852 0.953857 0.887871
O O9 0.111800 0.935484 0.925780
O O10 0.206680 0.734703 0.854923
#
# Coordination Sequence:
#
# PCOD9551022 Si02
#       5
#     8   8   8   8   8
#     4  10  23  42  72  95 148 189 234 306 385 424
#     4  11  23  42  72 105 143 187 246 310 366 461
#     4   9  22  41  65  96 136 184 240 291 363 450
#     4   9  23  41  65  96 139 179 240 298 365 446
#     4  11  22  41  72 104 141 187 246 300 374 448
#
# _framework density 26.757992000000002
#
# number of rings (size 3 to 8) (size 9 to 14) (size 15 to 20)
#    1.200    0.800    2.000    0.600    2.800    4.800 
#    0.000    0.000    0.000    0.000    0.000    0.000 
#    0.000    0.000    0.000    0.000    0.000    0.000 
#
# Total GULP energy -222958.312800 kJ/mol
# GULP energy per Si atom -5573.957820 kJ/mol
# Density = 2.669709 g / cm^3
# Si number density = 26.757992 Si / 1000 Ang^3
#
#
#
# Elastic Constant Matrix: (Units=GPa)
#
#
# Indices 1 2 3 4 5 6 
#
# 1 102.7996 -0.5493 48.6540 0.0000 0.0000 0.0000
# 2 -0.5493 102.7996 48.6540 0.0000 0.0000 0.0000
# 3 48.6540 48.6540 133.2877 0.0000 0.0000 0.0000
# 4 0.0000 0.0000 0.0000 52.6586 0.0000 0.0000
# 5 0.0000 0.0000 0.0000 0.0000 52.6586 0.0000
# 6 0.0000 0.0000 0.0000 0.0000 0.0000 40.0448
#
#
#
# Elastic Compliance Matrix: (Units=1/GPa)
#
#
# Indices 1 2 3 4 5 6 
#
# 1 0.012331 0.002655 -0.005470 0.000000 0.000000 0.000000
# 2 0.002655 0.012331 -0.005470 0.000000 0.000000 0.000000
# 3 -0.005470 -0.005470 0.011496 0.000000 0.000000 0.000000
# 4 0.000000 0.000000 0.000000 0.018990 0.000000 0.000000
# 5 0.000000 0.000000 0.000000 0.000000 0.018990 0.000000
# 6 0.000000 0.000000 0.000000 0.000000 0.000000 0.024972
#
#
# Mechanical properties :
#
#
# Convention : Reuss Voigt Hill
#
# Bulk Modulus (GPa) = 51.05504 59.15602 55.10553
# Shear Modulus (GPa) = 40.91301 45.21430 43.06365
#
# Velocity S-wave (km/s) = 3.91449 4.11512 4.01605
# Velocity P-wave (km/s) = 6.28909 6.68840 6.49182
#
# Compressibility (1/GPa) = 0.01958670
#
# Stress axis : x y z
#
# Youngs Moduli (GPa) = 81.09732 81.09732 86.98546
#
# Poissons Ratio (x) = -0.21531 0.47583
# Poissons Ratio (y) = -0.21531 0.47583
# Poissons Ratio (z) = 0.44362 0.44362
#
# Static dielectric constant tensor:
#      x y z
#    x 2.268760 0.000000 0.000000 
#    y 0.000000 2.268760 0.000000 
#    z 0.000000 0.000000 2.133790 
# 
# From -- ./inp_files/4099.got.cif
#   From: 2010.05.17/outbox.cif.g08.bks.cpg/sg96_3_cif.got.tgz:4099.got - 2010.06.03 19:52:08.
