data_PCOD9551667
_publ_section_title
;
Structure prediction by ZEFSAII (Michael W. Deem and Ramdas Pophale) SiO2 
 PCOD9551667
Probable space group: I 41 2 2
;
_chemical_formula_sum "Si O2"
_cell_formula_units_Z 64
_cell_length_a 12.942388
_cell_length_b 12.942388
_cell_length_c 20.677938
_cell_angle_alpha 90.000000
_cell_angle_beta 90.000000
_cell_angle_gamma 90.000000
_cell_volume 3463.666424
_symmetry_space_group_name_H-M "I 41 2 2"
_symmetry_group_IT_number 98
_symmetry_cell_setting 'tetragonal'
loop_
_space_group_symop_operation_xyz
x,y,z
-y,1/2+x,1/4+z
-x,-y,z
y,1/2-x,1/4+z
x,1/2-y,1/4-z
-x,1/2+y,1/4-z
y,x,-z
-y,-x,-z
1/2+x,1/2+y,1/2+z
1/2-y,x,3/4+z
1/2-x,1/2-y,1/2+z
1/2+y,-x,3/4+z
1/2+x,-y,3/4-z
1/2-x,y,3/4-z
1/2+y,1/2+x,1/2-z
1/2-y,1/2-x,1/2-z
loop_
_atom_site_type_symbol
_atom_site_label
_atom_site_fract_x
_atom_site_fract_y
_atom_site_fract_z
Si Si1 0.840070 0.250000 0.125000
Si Si2 0.254581 0.319904 0.684133
Si Si3 0.201765 0.010014 0.782500
Si Si4 0.000000 0.000000 0.869555
Si Si5 0.475597 0.776135 0.856782
O O1 0.775373 0.143886 0.129712
O O2 0.919205 0.231104 0.065118
O O3 0.214686 0.250000 0.625000
O O4 0.193185 0.306816 0.750000
O O5 0.370786 0.277101 0.699669
O O6 0.254133 0.438605 0.661221
O O7 0.095024 0.991173 0.820066
O O8 0.206634 0.994440 0.706086
O O9 0.003487 0.104380 0.910333
#
# Coordination Sequence:
#
# PCOD9551667 Si02
#       5
#     8  16  16   8  16
#     4  10  20  34  50  84 116 154 198 232 300 366
#     4  11  20  33  53  85 120 149 192 242 301 353
#     4  10  18  33  52  78 115 148 181 241 293 346
#     4   8  20  34  51  82 113 142 194 234 296 354
#     4  10  20  34  54  78 115 154 189 243 290 353
#
# _framework density 18.477532
#
# number of rings (size 3 to 8) (size 9 to 14) (size 15 to 20)
#    0.000    2.000    3.750    0.750    0.000    0.000 
#    4.500    0.000    0.000   15.000    3.250    0.000 
#    0.000    0.000    0.000    0.000    0.000    0.000 
#
# Total GULP energy -178204.963402 kJ/mol
# GULP energy per Si atom -5568.905106 kJ/mol
# Density = 1.843548 g / cm^3
# Si number density = 18.477532 Si / 1000 Ang^3
#
#
#
# Elastic Constant Matrix: (Units=GPa)
#
#
# Indices 1 2 3 4 5 6 
#
# 1 70.1237 13.6753 23.6041 0.0000 0.0000 0.0000
# 2 13.6753 70.1236 23.6034 0.0000 0.0000 0.0000
# 3 23.6041 23.6034 83.3046 0.0000 0.0000 0.0000
# 4 0.0000 0.0000 0.0000 19.3402 0.0000 0.0000
# 5 0.0000 0.0000 0.0000 0.0000 19.3408 0.0000
# 6 0.0000 0.0000 0.0000 0.0000 0.0000 16.5307
#
#
#
# Elastic Compliance Matrix: (Units=1/GPa)
#
#
# Indices 1 2 3 4 5 6 
#
# 1 0.015958 -0.001758 -0.004024 0.000000 0.000000 0.000000
# 2 -0.001758 0.015958 -0.004023 0.000000 0.000000 0.000000
# 3 -0.004024 -0.004023 0.014284 0.000000 0.000000 0.000000
# 4 0.000000 0.000000 0.000000 0.051706 0.000000 0.000000
# 5 0.000000 0.000000 0.000000 0.000000 0.051704 0.000000
# 6 0.000000 0.000000 0.000000 0.000000 0.000000 0.060494
#
#
# Mechanical properties :
#
#
# Convention : Reuss Voigt Hill
#
# Bulk Modulus (GPa) = 37.60782 38.36860 37.98821
# Shear Modulus (GPa) = 20.95772 21.88693 21.42233
#
# Velocity S-wave (km/s) = 3.37148 3.44541 3.40865
# Velocity P-wave (km/s) = 5.96266 6.05293 6.00796
#
# Compressibility (1/GPa) = 0.02659022
#
# Stress axis : x y z
#
# Youngs Moduli (GPa) = 62.66587 62.66615 70.00752
#
# Poissons Ratio (x) = 0.11015 0.28168
# Poissons Ratio (y) = 0.11015 0.28167
# Poissons Ratio (z) = 0.25214 0.25213
#
# Static dielectric constant tensor:
#      x y z
#    x 1.691660 0.000000 0.000000 
#    y 0.000000 1.691660 0.000000 
#    z 0.000000 0.000000 1.631300 
# 
# From -- ./inp_files/7405.got.cif
#   From: 2010.05.17/outbox.cif.g08.bks.cpg/sg98_4_cif.got.tgz:7405.got - 2010.06.03 20:00:51.
