data_PCOD9551120
_publ_section_title
;
Structure prediction by ZEFSAII (Michael W. Deem and Ramdas Pophale) SiO2 
 PCOD9551120
Probable space group: P 43 21 2
;
_chemical_formula_sum "Si O2"
_cell_formula_units_Z 48
_cell_length_a 9.471036
_cell_length_b 9.471036
_cell_length_c 25.584545
_cell_angle_alpha 90.000000
_cell_angle_beta 90.000000
_cell_angle_gamma 90.000000
_cell_volume 2294.947065
_symmetry_space_group_name_H-M "P 43 21 2"
_symmetry_group_IT_number 96
_symmetry_cell_setting 'tetragonal'
loop_
_space_group_symop_operation_xyz
x,y,z
1/2-y,1/2+x,3/4+z
-x,-y,1/2+z
1/2+y,1/2-x,1/4+z
1/2+x,1/2-y,1/4-z
1/2-x,1/2+y,3/4-z
y,x,-z
-y,-x,1/2-z
loop_
_atom_site_type_symbol
_atom_site_label
_atom_site_fract_x
_atom_site_fract_y
_atom_site_fract_z
Si Si1 0.466041 0.825075 0.039561
Si Si2 0.362568 0.688773 0.932051
Si Si3 0.508486 0.491515 0.250000
Si Si4 0.161870 0.838131 0.750000
Si Si5 0.227925 0.468358 0.190820
Si Si6 0.925112 0.736251 0.430379
Si Si7 0.033066 0.097440 0.335798
O O1 0.608287 0.916434 0.046162
O O2 0.455102 0.692786 0.078921
O O3 0.342331 0.934304 0.052340
O O4 0.436944 0.759578 0.982218
O O5 0.396895 0.779701 0.880620
O O6 0.432673 0.538856 0.918610
O O7 0.193474 0.676238 0.936824
O O8 0.346652 0.469071 0.235578
O O9 0.603416 0.442496 0.201013
O O10 0.175263 0.708861 0.710516
O O11 0.018275 0.822726 0.783154
O O12 0.306806 0.508752 0.136440
#
# Coordination Sequence:
#
# PCOD9551120 Si02
#       7
#     8   8   4   4   8   8   8
#     4  12  29  45  74 113 146 190 248 316 370 447
#     4  12  25  50  73 104 150 197 244 306 375 459
#     4  11  24  45  72 110 150 185 248 313 362 446
#     4  11  22  45  78 104 144 189 248 301 370 450
#     4  12  28  47  80 106 145 204 246 307 382 449
#     4  11  25  44  76 112 141 192 249 303 371 452
#     4  12  26  47  73 107 154 190 241 311 377 445
#
# _framework density 20.915514999999999
#
# number of rings (size 3 to 8) (size 9 to 14) (size 15 to 20)
#    0.000    0.333    6.667    1.000    4.667    1.333 
#    0.000    0.000    0.000    0.000    0.000    0.000 
#    0.000    0.000    0.000    0.000    0.000    0.000 
#
# Total GULP energy -268428.254978 kJ/mol
# GULP energy per Si atom -5592.255312 kJ/mol
# Density = 2.086791 g / cm^3
# Si number density = 20.915515 Si / 1000 Ang^3
#
#
#
# Elastic Constant Matrix: (Units=GPa)
#
#
# Indices 1 2 3 4 5 6 
#
# 1 126.3813 66.7519 41.3147 0.0000 0.0000 0.0000
# 2 66.7519 126.3833 41.3150 0.0000 0.0000 0.0000
# 3 41.3147 41.3150 125.5673 0.0000 0.0000 0.0000
# 4 0.0000 0.0000 0.0000 25.7113 0.0000 0.0000
# 5 0.0000 0.0000 0.0000 0.0000 25.7111 0.0000
# 6 0.0000 0.0000 0.0000 0.0000 0.0000 31.8458
#
#
#
# Elastic Compliance Matrix: (Units=1/GPa)
#
#
# Indices 1 2 3 4 5 6 
#
# 1 0.011398 -0.005372 -0.001983 0.000000 0.000000 0.000000
# 2 -0.005372 0.011398 -0.001983 0.000000 0.000000 0.000000
# 3 -0.001983 -0.001983 0.009269 0.000000 0.000000 0.000000
# 4 0.000000 0.000000 0.000000 0.038893 0.000000 0.000000
# 5 0.000000 0.000000 0.000000 0.000000 0.038894 0.000000
# 6 0.000000 0.000000 0.000000 0.000000 0.000000 0.031401
#
#
# Mechanical properties :
#
#
# Convention : Reuss Voigt Hill
#
# Bulk Modulus (GPa) = 74.68387 75.23277 74.95832
# Shear Modulus (GPa) = 30.41528 31.91700 31.16614
#
# Velocity S-wave (km/s) = 3.81753 3.91064 3.86437
# Velocity P-wave (km/s) = 7.43077 7.51257 7.47178
#
# Compressibility (1/GPa) = 0.01338977
#
# Stress axis : x y z
#
# Youngs Moduli (GPa) = 87.73409 87.73543 107.89134
#
# Poissons Ratio (x) = 0.47131 0.21392
# Poissons Ratio (y) = 0.47130 0.21392
# Poissons Ratio (z) = 0.17395 0.17395
#
# Static dielectric constant tensor:
#      x y z
#    x 1.818990 0.000000 0.000000 
#    y 0.000000 1.818990 0.000000 
#    z 0.000000 0.000000 1.827430 
# 
# From -- ./inp_files/4516.got.cif
#   From: 2010.05.17/outbox.cif.g08.bks.cpg/sg96_3_cif.got.tgz:4516.got - 2010.06.03 19:52:08.
