data_PCOD9551459
_publ_section_title
;
Structure prediction by ZEFSAII (Michael W. Deem and Ramdas Pophale) SiO2 
 PCOD9551459
Probable space group: I 4 2 2 
;
_chemical_formula_sum "Si O2"
_cell_formula_units_Z 80
_cell_length_a 16.590651
_cell_length_b 16.590651
_cell_length_c 14.688644
_cell_angle_alpha 90.000000
_cell_angle_beta 90.000000
_cell_angle_gamma 90.000000
_cell_volume 4043.044863
_symmetry_space_group_name_H-M "I 4 2 2 "
_symmetry_group_IT_number 97
_symmetry_cell_setting 'tetragonal'
loop_
_space_group_symop_operation_xyz
x,y,z
-y,x,z
-x,-y,z
y,-x,z
x,-y,-z
-x,y,-z
y,x,-z
-y,-x,-z
1/2+x,1/2+y,1/2+z
1/2-y,1/2+x,1/2+z
1/2-x,1/2-y,1/2+z
1/2+y,1/2-x,1/2+z
1/2+x,1/2-y,1/2-z
1/2-x,1/2+y,1/2-z
1/2+y,1/2+x,1/2-z
1/2-y,1/2-x,1/2-z
loop_
_atom_site_type_symbol
_atom_site_label
_atom_site_fract_x
_atom_site_fract_y
_atom_site_fract_z
Si Si1 0.998388 0.871417 0.301493
Si Si2 0.312288 0.816045 0.388087
Si Si3 0.310973 0.500000 0.000000
Si Si4 0.296362 0.047544 0.750568
Si Si5 0.398181 0.898181 0.750000
Si Si6 0.153332 0.287212 0.581793
O O1 0.983389 0.862792 0.410072
O O2 0.004221 0.783813 0.258526
O O3 0.076701 0.921178 0.273805
O O4 0.304660 0.905508 0.345339
O O5 0.382553 0.781608 0.324371
O O6 0.335227 0.814311 0.493785
O O7 0.225189 0.771822 0.384211
O O8 0.260940 0.577923 0.036521
O O9 0.372568 0.990483 0.768892
O O10 0.344682 0.873661 0.662733
#
# Coordination Sequence:
#
# PCOD9551459 Si02
#       6
#    16  16   8  16   8  16
#     4  11  23  36  60  98 135 167 204 268 347 412
#     4  10  23  40  62  88 126 165 212 267 328 385
#     4  12  20  37  64  97 132 160 210 276 338 406
#     4  11  23  40  62  91 128 171 215 271 318 404
#     4  12  24  37  62  90 122 169 220 264 324 384
#     4  11  22  39  64  95 121 169 214 267 329 395
#
# _framework density 19.787068000000001
#
# number of rings (size 3 to 8) (size 9 to 14) (size 15 to 20)
#    0.000    1.000    4.000    3.000    5.600    3.200 
#    0.000    0.000    0.000    6.000    0.000    0.000 
#    0.000    0.000    0.000    0.000    0.000    0.000 
#
# Total GULP energy -223128.797524 kJ/mol
# GULP energy per Si atom -5578.219938 kJ/mol
# Density = 1.974203 g / cm^3
# Si number density = 19.787068 Si / 1000 Ang^3
#
#
#
# Elastic Constant Matrix: (Units=GPa)
#
#
# Indices 1 2 3 4 5 6 
#
# 1 81.4685 45.8398 27.0585 0.0000 0.0000 0.0000
# 2 45.8398 81.4685 27.0585 0.0000 0.0000 0.0000
# 3 27.0585 27.0585 73.4012 0.0000 0.0000 0.0000
# 4 0.0000 0.0000 0.0000 31.2974 0.0000 0.0000
# 5 0.0000 0.0000 0.0000 0.0000 31.2974 0.0000
# 6 0.0000 0.0000 0.0000 0.0000 0.0000 -2.4833
#
#
#
# Elastic Compliance Matrix: (Units=1/GPa)
#
#
# Indices 1 2 3 4 5 6 
#
# 1 0.018691 -0.009376 -0.003434 0.000000 0.000000 0.000000
# 2 -0.009376 0.018691 -0.003434 0.000000 0.000000 0.000000
# 3 -0.003434 -0.003434 0.016155 0.000000 0.000000 0.000000
# 4 0.000000 0.000000 0.000000 0.031952 0.000000 0.000000
# 5 0.000000 0.000000 0.000000 0.000000 0.031952 0.000000
# 6 0.000000 0.000000 0.000000 0.000000 0.000000 -0.402689
#
#
# Mechanical properties :
#
#
# Convention : Reuss Voigt Hill
#
# Bulk Modulus (GPa) = 47.50672 48.47242 47.98957
# Shear Modulus (GPa) = -20.34633 21.11439 0.38403
#
# Velocity S-wave (km/s) = -3.21013 3.27016 0.44102
# Velocity P-wave (km/s) = 3.21265 6.22967 4.95631
#
# Compressibility (1/GPa) = 0.02104965
#
# Stress axis : x y z
#
# Youngs Moduli (GPa) = 53.50189 53.50189 61.89899
#
# Poissons Ratio (x) = 0.50165 0.21254
# Poissons Ratio (y) = 0.50165 0.21254
# Poissons Ratio (z) = 0.18371 0.18371
#
# Static dielectric constant tensor:
#      x y z
#    x 1.758650 0.000000 0.000000 
#    y 0.000000 1.758650 0.000000 
#    z 0.000000 0.000000 1.697940 
# 
# From -- ./inp_files/4769.got.cif
#   From: 2010.05.17/outbox.cif.g08.bks.cpg/sg97_3_cif.got.tgz:4769.got - 2010.06.03 19:55:32.
