data_PCOD9551291
_publ_section_title
;
Structure prediction by ZEFSAII (Michael W. Deem and Ramdas Pophale) SiO2 
 PCOD9551291
Probable space group: I 4 2 2 
;
_chemical_formula_sum "Si O2"
_cell_formula_units_Z 112
_cell_length_a 14.380055
_cell_length_b 14.380055
_cell_length_c 23.650948
_cell_angle_alpha 90.000000
_cell_angle_beta 90.000000
_cell_angle_gamma 90.000000
_cell_volume 4890.684503
_symmetry_space_group_name_H-M "I 4 2 2 "
_symmetry_group_IT_number 97
_symmetry_cell_setting 'tetragonal'
loop_
_space_group_symop_operation_xyz
x,y,z
-y,x,z
-x,-y,z
y,-x,z
x,-y,-z
-x,y,-z
y,x,-z
-y,-x,-z
1/2+x,1/2+y,1/2+z
1/2-y,1/2+x,1/2+z
1/2-x,1/2-y,1/2+z
1/2+y,1/2-x,1/2+z
1/2+x,1/2-y,1/2-z
1/2-x,1/2+y,1/2-z
1/2+y,1/2+x,1/2-z
1/2-y,1/2-x,1/2-z
loop_
_atom_site_type_symbol
_atom_site_label
_atom_site_fract_x
_atom_site_fract_y
_atom_site_fract_z
Si Si1 0.095887 0.452537 0.601912
Si Si2 0.023439 0.279472 0.792669
Si Si3 0.394409 0.261736 0.986216
Si Si4 0.728646 0.048588 0.667191
Si Si5 0.261213 0.639931 0.452431
Si Si6 0.644254 0.275873 0.143650
Si Si7 0.196760 0.161112 0.829353
O O1 0.139087 0.489057 0.661194
O O2 0.058836 0.351467 0.620914
O O3 0.191995 0.447440 0.564046
O O4 0.000000 0.500000 0.580410
O O5 0.030097 0.314375 0.728728
O O6 0.122232 0.225834 0.798448
O O7 0.944095 0.202878 0.807766
O O8 0.367378 0.245397 0.921405
O O9 0.500000 0.239975 0.000000
O O10 0.368674 0.368674 0.000000
O O11 0.323140 0.204124 0.024710
O O12 0.790836 0.137747 0.656156
O O13 0.793911 0.959858 0.661030
O O14 0.341760 0.658241 0.500000
O O15 0.313617 0.669785 0.394657
O O16 0.697275 0.195482 0.177190
#
# Coordination Sequence:
#
# PCOD9551291 Si02
#       7
#    16  16  16  16  16  16  16
#     4  11  23  41  66 105 143 178 244 302 367 444
#     4  11  25  41  69  97 137 189 243 299 370 427
#     4  11  20  36  64  95 131 180 222 277 356 426
#     4  12  24  41  66  99 139 192 236 297 365 444
#     4  10  19  43  70  90 133 184 223 282 365 431
#     4  12  23  41  69  96 143 183 240 289 363 458
#     4  11  23  45  67  98 134 185 242 299 362 439
#
# _framework density 22.900680999999999
#
# number of rings (size 3 to 8) (size 9 to 14) (size 15 to 20)
#    0.000    0.857    5.714    3.857    0.000    4.714 
#    0.000    5.714    3.143    0.000    0.000    4.000 
#    0.000    0.000    0.000    0.000    0.000    0.000 
#
# Total GULP energy -311897.926703 kJ/mol
# GULP energy per Si atom -5569.605834 kJ/mol
# Density = 2.284856 g / cm^3
# Si number density = 22.900681 Si / 1000 Ang^3
#
#
#
# Elastic Constant Matrix: (Units=GPa)
#
#
# Indices 1 2 3 4 5 6 
#
# 1 -7.6501 97.3176 8.7305 0.0000 0.0000 0.0000
# 2 97.3176 -7.6497 8.7308 0.0000 0.0000 0.0000
# 3 8.7305 8.7308 96.6898 0.0000 0.0000 0.0000
# 4 0.0000 0.0000 0.0000 13.6395 0.0000 0.0000
# 5 0.0000 0.0000 0.0000 0.0000 13.6394 0.0000
# 6 0.0000 0.0000 0.0000 0.0000 0.0000 31.4923
#
#
#
# Elastic Compliance Matrix: (Units=1/GPa)
#
#
# Indices 1 2 3 4 5 6 
#
# 1 0.000913 0.010439 -0.001025 0.000000 0.000000 0.000000
# 2 0.010439 0.000913 -0.001025 0.000000 0.000000 0.000000
# 3 -0.001025 -0.001025 0.010527 0.000000 0.000000 0.000000
# 4 0.000000 0.000000 0.000000 0.073316 0.000000 0.000000
# 5 0.000000 0.000000 0.000000 0.000000 0.073317 0.000000
# 6 0.000000 0.000000 0.000000 0.000000 0.000000 0.031754
#
#
# Mechanical properties :
#
#
# Convention : Reuss Voigt Hill
#
# Bulk Modulus (GPa) = 34.32752 34.54976 34.43864
# Shear Modulus (GPa) = 27.22247 9.52831 18.37539
#
# Velocity S-wave (km/s) = 3.45152 2.04199 2.83573
# Velocity P-wave (km/s) = 5.55934 4.54744 5.07865
#
# Compressibility (1/GPa) = 0.02913115
#
# Stress axis : x y z
#
# Youngs Moduli (GPa) = 1095.83433 1095.78762 94.98964
#
# Poissons Ratio (x) = -11.43928 0.09737
# Poissons Ratio (y) = -11.43977 0.09737
# Poissons Ratio (z) = 1.12327 1.12319
#
# Static dielectric constant tensor:
#      x y z
#    x 1.906750 0.000000 0.000000 
#    y 0.000000 1.906750 0.000000 
#    z 0.000000 0.000000 1.954830 
# 
# From -- ./inp_files/7249.got.cif
#   From: 2010.05.17/outbox.cif.g08.bks.cpg/sg97_4_cif.got.tgz:7249.got - 2010.06.03 19:55:32.
