data_PCOD9551292
_publ_section_title
;
Structure prediction by ZEFSAII (Michael W. Deem and Ramdas Pophale) SiO2 
 PCOD9551292
Probable space group: I 4 2 2 
;
_chemical_formula_sum "Si O2"
_cell_formula_units_Z 128
_cell_length_a 18.111623
_cell_length_b 18.111623
_cell_length_c 24.171956
_cell_angle_alpha 90.000000
_cell_angle_beta 90.000000
_cell_angle_gamma 90.000000
_cell_volume 7929.148184
_symmetry_space_group_name_H-M "I 4 2 2 "
_symmetry_group_IT_number 97
_symmetry_cell_setting 'tetragonal'
loop_
_space_group_symop_operation_xyz
x,y,z
-y,x,z
-x,-y,z
y,-x,z
x,-y,-z
-x,y,-z
y,x,-z
-y,-x,-z
1/2+x,1/2+y,1/2+z
1/2-y,1/2+x,1/2+z
1/2-x,1/2-y,1/2+z
1/2+y,1/2-x,1/2+z
1/2+x,1/2-y,1/2-z
1/2-x,1/2+y,1/2-z
1/2+y,1/2+x,1/2-z
1/2-y,1/2-x,1/2-z
loop_
_atom_site_type_symbol
_atom_site_label
_atom_site_fract_x
_atom_site_fract_y
_atom_site_fract_z
Si Si1 0.222378 0.999159 0.561128
Si Si2 0.616418 0.765852 0.242420
Si Si3 0.964301 0.743695 0.322379
Si Si4 0.346488 0.338816 0.670611
Si Si5 0.344314 0.661081 0.061360
Si Si6 0.087303 0.911207 0.063660
Si Si7 0.805206 0.249621 0.669834
Si Si8 0.384994 0.545298 0.761181
O O1 0.184790 0.920828 0.572564
O O2 0.258196 0.000000 0.500000
O O3 0.272604 0.016388 0.614081
O O4 0.164681 0.066873 0.558280
O O5 0.654643 0.845358 0.250000
O O6 0.536299 0.771330 0.214440
O O7 0.613694 0.717694 0.298491
O O8 0.678550 0.721540 0.205956
O O9 0.882322 0.715542 0.308970
O O10 0.948980 0.831892 0.313832
O O11 0.366957 0.369708 0.610652
O O12 0.310580 0.258143 0.669479
O O13 0.420151 0.342565 0.708679
O O14 0.318466 0.716892 0.108668
O O15 0.317168 0.682833 0.000000
O O16 0.999200 0.899832 0.070716
O O17 0.107063 0.892938 0.000000
O O18 0.408928 0.460475 0.760476
#
# Coordination Sequence:
#
# PCOD9551292 Si02
#       8
#    16  16  16  16  16  16  16  16
#     4   9  18  28  42  61  90 133 168 198 240 288
#     4  10  20  33  48  71 105 136 172 207 262 304
#     4  11  18  33  49  68 104 134 169 215 250 294
#     4  11  20  32  48  72 105 131 169 208 248 312
#     4   9  17  30  43  61  89 127 170 205 240 289
#     4   9  19  35  54  77 108 139 162 196 254 325
#     4  10  20  31  47  71  99 135 170 211 259 300
#     4  11  21  30  47  76 102 130 162 194 245 309
#
# _framework density 16.142969999999998
#
# number of rings (size 3 to 8) (size 9 to 14) (size 15 to 20)
#    0.000    2.000    3.750    1.125    1.750    1.750 
#    0.000    1.250    0.000    0.000    0.000    1.750 
#    0.000    0.000    0.000   11.000    0.000    0.250 
#
# Total GULP energy -356285.300179 kJ/mol
# GULP energy per Si atom -5566.957815 kJ/mol
# Density = 1.610623 g / cm^3
# Si number density = 16.142970 Si / 1000 Ang^3
#
#
#
# Elastic Constant Matrix: (Units=GPa)
#
#
# Indices 1 2 3 4 5 6 
#
# 1 61.4125 31.7155 37.7087 0.0000 0.0000 0.0000
# 2 31.7155 61.4122 37.7089 0.0000 0.0000 0.0000
# 3 37.7087 37.7089 110.3013 0.0000 0.0000 0.0000
# 4 0.0000 0.0000 0.0000 20.9682 0.0000 0.0000
# 5 0.0000 0.0000 0.0000 0.0000 20.9683 0.0000
# 6 0.0000 0.0000 0.0000 0.0000 0.0000 18.5598
#
#
#
# Elastic Compliance Matrix: (Units=1/GPa)
#
#
# Indices 1 2 3 4 5 6 
#
# 1 0.024261 -0.009412 -0.005076 0.000000 0.000000 0.000000
# 2 -0.009412 0.024261 -0.005076 0.000000 0.000000 0.000000
# 3 -0.005076 -0.005076 0.012537 0.000000 0.000000 0.000000
# 4 0.000000 0.000000 0.000000 0.047691 0.000000 0.000000
# 5 0.000000 0.000000 0.000000 0.000000 0.047691 0.000000
# 6 0.000000 0.000000 0.000000 0.000000 0.000000 0.053880
#
#
# Mechanical properties :
#
#
# Convention : Reuss Voigt Hill
#
# Bulk Modulus (GPa) = 45.60120 49.71026 47.65573
# Shear Modulus (GPa) = 19.47329 20.49878 19.98604
#
# Velocity S-wave (km/s) = 3.47695 3.56733 3.52243
# Velocity P-wave (km/s) = 6.66548 6.91581 6.79180
#
# Compressibility (1/GPa) = 0.02192925
#
# Stress axis : x y z
#
# Youngs Moduli (GPa) = 41.21809 41.21778 79.76367
#
# Poissons Ratio (x) = 0.38796 0.40491
# Poissons Ratio (y) = 0.38796 0.40492
# Poissons Ratio (z) = 0.20924 0.20924
#
# Static dielectric constant tensor:
#      x y z
#    x 1.547830 0.000000 0.000000 
#    y 0.000000 1.547830 0.000000 
#    z 0.000000 0.000000 1.603890 
# 
# From -- ./inp_files/7402.got.cif
#   From: 2010.05.17/outbox.cif.g08.bks.cpg/sg97_4_cif.got.tgz:7402.got - 2010.06.03 19:55:32.
