data_PCOD9551845
_publ_section_title
;
Structure prediction by ZEFSAII (Michael W. Deem and Ramdas Pophale) SiO2 
 PCOD9551845
Probable space group: I 41 2 2
;
_chemical_formula_sum "Si O2"
_cell_formula_units_Z 72
_cell_length_a 20.997307
_cell_length_b 20.997307
_cell_length_c 8.530923
_cell_angle_alpha 90.000000
_cell_angle_beta 90.000000
_cell_angle_gamma 90.000000
_cell_volume 3761.172206
_symmetry_space_group_name_H-M "I 41 2 2"
_symmetry_group_IT_number 98
_symmetry_cell_setting 'tetragonal'
loop_
_space_group_symop_operation_xyz
x,y,z
-y,1/2+x,1/4+z
-x,-y,z
y,1/2-x,1/4+z
x,1/2-y,1/4-z
-x,1/2+y,1/4-z
y,x,-z
-y,-x,-z
1/2+x,1/2+y,1/2+z
1/2-y,x,3/4+z
1/2-x,1/2-y,1/2+z
1/2+y,-x,3/4+z
1/2+x,-y,3/4-z
1/2-x,y,3/4-z
1/2+y,1/2+x,1/2-z
1/2-y,1/2-x,1/2-z
loop_
_atom_site_type_symbol
_atom_site_label
_atom_site_fract_x
_atom_site_fract_y
_atom_site_fract_z
Si Si1 0.806629 0.193371 0.000000
Si Si2 0.048692 0.690652 0.245537
Si Si3 0.073152 0.482415 0.399960
Si Si4 0.884903 0.651060 0.924643
Si Si5 0.429471 0.277584 0.302126
O O1 0.799897 0.250000 0.125000
O O2 0.879649 0.196747 0.939052
O O3 0.040445 0.750000 0.125000
O O4 0.036096 0.623733 0.154291
O O5 0.995029 0.694843 0.379499
O O6 0.063680 0.436321 0.250000
O O7 0.106531 0.444714 0.538255
O O8 0.000000 0.500000 0.437328
O O9 0.860880 0.639121 0.750000
O O10 0.907056 0.723376 0.922797
O O11 0.829113 0.626597 0.036361
O O12 0.439780 0.250000 0.125000
#
# Coordination Sequence:
#
# PCOD9551845 Si02
#       5
#     8  16  16  16  16
#     4  10  24  42  63  88 122 152 197 254 308 372
#     4  11  21  38  64  90 117 158 205 251 307 366
#     4  11  21  34  60  92 123 153 198 251 306 360
#     4  10  21  38  61  86 127 163 203 248 297 361
#     4  10  21  38  62  86 124 164 203 248 299 360
#
# _framework density 19.142969000000001
#
# number of rings (size 3 to 8) (size 9 to 14) (size 15 to 20)
#    0.000    1.556    4.444    1.333    0.000    1.333 
#    0.000    0.000   39.111    0.000    0.000    0.000 
#    0.000    0.000    0.000    0.000    0.000    0.000 
#
# Total GULP energy -200599.393692 kJ/mol
# GULP energy per Si atom -5572.205380 kJ/mol
# Density = 1.909940 g / cm^3
# Si number density = 19.142969 Si / 1000 Ang^3
#
#
#
# Elastic Constant Matrix: (Units=GPa)
#
#
# Indices 1 2 3 4 5 6 
#
# 1 134.8844 72.8894 29.3236 0.0000 0.0000 0.0000
# 2 72.8894 134.8842 29.3233 0.0000 0.0000 0.0000
# 3 29.3236 29.3233 12.2749 0.0000 0.0000 0.0000
# 4 0.0000 0.0000 0.0000 32.6463 0.0000 0.0000
# 5 0.0000 0.0000 0.0000 0.0000 32.6457 0.0000
# 6 0.0000 0.0000 0.0000 0.0000 0.0000 31.4253
#
#
#
# Elastic Compliance Matrix: (Units=1/GPa)
#
#
# Indices 1 2 3 4 5 6 
#
# 1 0.015454 -0.000677 -0.035302 0.000000 0.000000 0.000000
# 2 -0.000677 0.015454 -0.035301 0.000000 0.000000 0.000000
# 3 -0.035302 -0.035301 0.250131 0.000000 0.000000 0.000000
# 4 0.000000 0.000000 0.000000 0.030631 0.000000 0.000000
# 5 0.000000 0.000000 0.000000 0.000000 0.030632 0.000000
# 6 0.000000 0.000000 0.000000 0.000000 0.000000 0.031821
#
#
# Mechanical properties :
#
#
# Convention : Reuss Voigt Hill
#
# Bulk Modulus (GPa) = 7.22128 60.56845 33.89487
# Shear Modulus (GPa) = 8.88350 29.37728 19.13039
#
# Velocity S-wave (km/s) = 2.15654 3.92168 3.16467
# Velocity P-wave (km/s) = 3.15933 7.22598 5.57657
#
# Compressibility (1/GPa) = 0.13847952
#
# Stress axis : x y z
#
# Youngs Moduli (GPa) = 64.70864 64.70956 3.99791
#
# Poissons Ratio (x) = 0.04378 0.14113
# Poissons Ratio (y) = 0.04378 0.14113
# Poissons Ratio (z) = 2.28433 2.28431
#
# Static dielectric constant tensor:
#      x y z
#    x 1.695510 0.000000 0.000000 
#    y 0.000000 1.695520 0.000000 
#    z 0.000000 0.000000 1.653070 
# 
# From -- ./inp_files/3426.got.cif
#   From: 2010.05.17/outbox.cif.g08.bks.cpg/sg98_2_cif.got.tgz:3426.got - 2010.06.03 20:00:51.
