data_PCOD9551044
_publ_section_title
;
Structure prediction by ZEFSAII (Michael W. Deem and Ramdas Pophale) SiO2 
 PCOD9551044
Probable space group: P 43 21 2
;
_chemical_formula_sum "Si O2"
_cell_formula_units_Z 24
_cell_length_a 7.280249
_cell_length_b 7.280249
_cell_length_c 19.506681
_cell_angle_alpha 90.000000
_cell_angle_beta 90.000000
_cell_angle_gamma 90.000000
_cell_volume 1033.893604
_symmetry_space_group_name_H-M "P 43 21 2"
_symmetry_group_IT_number 96
_symmetry_cell_setting 'tetragonal'
loop_
_space_group_symop_operation_xyz
x,y,z
1/2-y,1/2+x,3/4+z
-x,-y,1/2+z
1/2+y,1/2-x,1/4+z
1/2+x,1/2-y,1/4-z
1/2-x,1/2+y,3/4-z
y,x,-z
-y,-x,1/2-z
loop_
_atom_site_type_symbol
_atom_site_label
_atom_site_fract_x
_atom_site_fract_y
_atom_site_fract_z
Si Si1 0.262502 0.533676 0.611320
Si Si2 0.760305 0.760305 0.000000
Si Si3 0.617636 0.934296 0.293858
Si Si4 0.674382 0.325619 0.250000
O O1 0.297693 0.354157 0.567574
O O2 0.320378 0.702822 0.563239
O O3 0.375632 0.563394 0.681852
O O4 0.055008 0.549928 0.640475
O O5 0.966059 0.700584 0.984928
O O6 0.653441 0.104900 0.242315
#
# Coordination Sequence:
#
# PCOD9551044 Si02
#       4
#     8   4   8   4
#     4  10  23  46  71 111 150 204 262 328 394 469
#     4  12  25  46  77 118 148 205 273 322 400 477
#     4  10  23  47  72 105 151 202 257 328 392 475
#     4   8  21  44  75  98 158 205 251 336 398 459
#
# _framework density 23.21322
#
# number of rings (size 3 to 8) (size 9 to 14) (size 15 to 20)
#    2.000    0.000    0.000    3.000    0.000    2.667 
#   12.000    1.667    0.000    0.000    0.000    0.000 
#    0.000    0.000    0.000    0.000    0.000    0.000 
#
# Total GULP energy -133919.209675 kJ/mol
# GULP energy per Si atom -5579.967070 kJ/mol
# Density = 2.316039 g / cm^3
# Si number density = 23.213220 Si / 1000 Ang^3
#
#
#
# Elastic Constant Matrix: (Units=GPa)
#
#
# Indices 1 2 3 4 5 6 
#
# 1 39.3075 48.6275 11.7423 0.0000 0.0000 0.0000
# 2 48.6275 39.3064 11.7420 0.0000 0.0000 0.0000
# 3 11.7423 11.7420 82.3610 0.0000 0.0000 0.0000
# 4 0.0000 0.0000 0.0000 4.8851 0.0000 0.0000
# 5 0.0000 0.0000 0.0000 0.0000 4.8852 0.0000
# 6 0.0000 0.0000 0.0000 0.0000 0.0000 35.9053
#
#
#
# Elastic Compliance Matrix: (Units=1/GPa)
#
#
# Indices 1 2 3 4 5 6 
#
# 1 -0.047733 0.059556 -0.001685 0.000000 0.000000 0.000000
# 2 0.059556 -0.047734 -0.001686 0.000000 0.000000 0.000000
# 3 -0.001685 -0.001686 0.012622 0.000000 0.000000 0.000000
# 4 0.000000 0.000000 0.000000 0.204705 0.000000 0.000000
# 5 0.000000 0.000000 0.000000 0.000000 0.204699 0.000000
# 6 0.000000 0.000000 0.000000 0.000000 0.000000 0.027851
#
#
# Mechanical properties :
#
#
# Convention : Reuss Voigt Hill
#
# Bulk Modulus (GPa) = 33.86981 33.91092 33.89037
# Shear Modulus (GPa) = 19.85066 15.05934 17.45500
#
# Velocity S-wave (km/s) = 2.92746 2.54980 2.74513
# Velocity P-wave (km/s) = 5.10383 4.82792 4.96779
#
# Compressibility (1/GPa) = 0.02952482
#
# Stress axis : x y z
#
# Youngs Moduli (GPa) = -20.94980 -20.94921 79.22506
#
# Poissons Ratio (x) = 1.24765 0.13353
# Poissons Ratio (y) = 1.24769 0.13354
# Poissons Ratio (z) = -0.03531 -0.03531
#
# Static dielectric constant tensor:
#      x y z
#    x 1.849350 0.000000 0.000000 
#    y 0.000000 1.849350 0.000000 
#    z 0.000000 0.000000 1.909070 
# 
# From -- ./inp_files/2897.got.cif
#   From: 2010.05.17/outbox.cif.g08.bks.cpg/sg96_2_cif.got.tgz:2897.got - 2010.06.03 19:52:08.
