data_PCOD9551498
_publ_section_title
;
Structure prediction by ZEFSAII (Michael W. Deem and Ramdas Pophale) SiO2 
 PCOD9551498
Probable space group: I 4 2 2 
;
_chemical_formula_sum "Si O2"
_cell_formula_units_Z 128
_cell_length_a 21.994159
_cell_length_b 21.994159
_cell_length_c 13.717941
_cell_angle_alpha 90.000000
_cell_angle_beta 90.000000
_cell_angle_gamma 90.000000
_cell_volume 6635.958346
_symmetry_space_group_name_H-M "I 4 2 2 "
_symmetry_group_IT_number 97
_symmetry_cell_setting 'tetragonal'
loop_
_space_group_symop_operation_xyz
x,y,z
-y,x,z
-x,-y,z
y,-x,z
x,-y,-z
-x,y,-z
y,x,-z
-y,-x,-z
1/2+x,1/2+y,1/2+z
1/2-y,1/2+x,1/2+z
1/2-x,1/2-y,1/2+z
1/2+y,1/2-x,1/2+z
1/2+x,1/2-y,1/2-z
1/2-x,1/2+y,1/2-z
1/2+y,1/2+x,1/2-z
1/2-y,1/2-x,1/2-z
loop_
_atom_site_type_symbol
_atom_site_label
_atom_site_fract_x
_atom_site_fract_y
_atom_site_fract_z
Si Si1 0.109596 0.713655 0.750204
Si Si2 0.955403 0.771693 0.092631
Si Si3 0.784147 0.862135 0.059511
Si Si4 0.315686 0.239993 0.074574
Si Si5 0.434953 0.760975 0.038238
Si Si6 0.901436 0.981445 0.800174
Si Si7 0.380403 0.429523 0.095889
Si Si8 0.155813 0.175066 0.740104
O O1 0.159564 0.659564 0.750000
O O2 0.051968 0.720853 0.823443
O O3 0.081915 0.714033 0.643335
O O4 0.143794 0.779312 0.767336
O O5 0.965000 0.837409 0.147084
O O6 0.897937 0.752397 0.026289
O O7 0.000000 0.774194 0.000000
O O8 0.739002 0.807031 0.080094
O O9 0.806788 0.883048 0.165175
O O10 0.843982 0.843982 0.000000
O O11 0.326930 0.266008 0.180331
O O12 0.292209 0.292209 0.000000
O O13 0.379962 0.219843 0.031903
O O14 0.436799 0.687608 0.052971
O O15 0.500000 0.780846 0.000000
O O16 0.893530 0.978355 0.681491
O O17 0.953477 0.931362 0.825632
O O18 0.377408 0.368386 0.162481
O O19 0.422378 0.422378 0.000000
#
# Coordination Sequence:
#
# PCOD9551498 Si02
#       8
#    16  16  16  16  16  16  16  16
#     4  11  21  40  62  87 120 157 195 244 312 387
#     4  12  27  40  62  87 119 166 217 262 316 379
#     4  11  22  34  57  85 113 154 197 252 311 369
#     4  11  19  35  56  86 119 147 194 247 311 390
#     4  11  22  34  55  89 117 154 189 237 311 374
#     4  11  27  45  59  78 112 168 234 282 310 349
#     4  11  21  37  60  78 110 148 206 266 318 366
#     4  11  19  33  57  86 109 147 189 247 316 379
#
# _framework density 19.288848999999999
#
# number of rings (size 3 to 8) (size 9 to 14) (size 15 to 20)
#    0.000    0.875    7.500    1.875    5.250    1.000 
#    0.000    1.250    0.000    0.000    0.000    0.000 
#    0.000   12.000    0.000    0.000    0.000    0.000 
#
# Total GULP energy -356382.169865 kJ/mol
# GULP energy per Si atom -5568.471404 kJ/mol
# Density = 1.924495 g / cm^3
# Si number density = 19.288849 Si / 1000 Ang^3
#
#
#
# Elastic Constant Matrix: (Units=GPa)
#
#
# Indices 1 2 3 4 5 6 
#
# 1 38.0522 32.4136 30.2882 0.0000 0.0000 0.0000
# 2 32.4136 38.0522 30.2882 0.0000 0.0000 0.0000
# 3 30.2882 30.2882 127.8608 0.0000 0.0000 0.0000
# 4 0.0000 0.0000 0.0000 27.6861 0.0000 0.0000
# 5 0.0000 0.0000 0.0000 0.0000 27.6861 0.0000
# 6 0.0000 0.0000 0.0000 0.0000 0.0000 19.1695
#
#
#
# Elastic Compliance Matrix: (Units=1/GPa)
#
#
# Indices 1 2 3 4 5 6 
#
# 1 0.097584 -0.079764 -0.004221 0.000000 0.000000 0.000000
# 2 -0.079764 0.097584 -0.004221 0.000000 0.000000 0.000000
# 3 -0.004221 -0.004221 0.009821 0.000000 0.000000 0.000000
# 4 0.000000 0.000000 0.000000 0.036119 0.000000 0.000000
# 5 0.000000 0.000000 0.000000 0.000000 0.036119 0.000000
# 6 0.000000 0.000000 0.000000 0.000000 0.000000 0.052166
#
#
# Mechanical properties :
#
#
# Convention : Reuss Voigt Hill
#
# Bulk Modulus (GPa) = 34.99439 43.32724 39.16081
# Shear Modulus (GPa) = 9.70248 22.30671 16.00460
#
# Velocity S-wave (km/s) = 2.24522 3.40436 2.88363
# Velocity P-wave (km/s) = 4.99029 6.16149 5.60656
#
# Compressibility (1/GPa) = 0.02857601
#
# Stress axis : x y z
#
# Youngs Moduli (GPa) = 10.24757 10.24757 101.82332
#
# Poissons Ratio (x) = 0.81739 0.42983
# Poissons Ratio (y) = 0.81739 0.42983
# Poissons Ratio (z) = 0.04326 0.04326
#
# Static dielectric constant tensor:
#      x y z
#    x 1.707010 0.000000 0.000000 
#    y 0.000000 1.707010 0.000000 
#    z 0.000000 0.000000 1.745780 
# 
# From -- ./inp_files/4065.got.cif
#   From: 2010.05.17/outbox.cif.g08.bks.cpg/sg97_3_cif.got.tgz:4065.got - 2010.06.03 19:55:32.
