data_PCOD9551192
_publ_section_title
;
Structure prediction by ZEFSAII (Michael W. Deem and Ramdas Pophale) SiO2 
 PCOD9551192
Probable space group: P 43 21 2
;
_chemical_formula_sum "Si O2"
_cell_formula_units_Z 40
_cell_length_a 9.000000
_cell_length_b 9.000000
_cell_length_c 24.000000
_cell_angle_alpha 90.000000
_cell_angle_beta 90.000000
_cell_angle_gamma 90.000000
_cell_volume 1944.000000
_symmetry_space_group_name_H-M "P 43 21 2"
_symmetry_group_IT_number 96
_symmetry_cell_setting 'tetragonal'
loop_
_space_group_symop_operation_xyz
x,y,z
1/2-y,1/2+x,3/4+z
-x,-y,1/2+z
1/2+y,1/2-x,1/4+z
1/2+x,1/2-y,1/4-z
1/2-x,1/2+y,3/4-z
y,x,-z
-y,-x,1/2-z
loop_
_atom_site_type_symbol
_atom_site_label
_atom_site_fract_x
_atom_site_fract_y
_atom_site_fract_z
Si Si1 0.925128 0.591029 0.405261
Si Si2 0.359045 0.152541 0.646171
Si Si3 0.893580 0.916498 0.934039
Si Si4 0.591689 0.809209 0.481209
Si Si5 0.589379 0.332772 0.141300
O O1 0.934772 0.605553 0.471483
O O2 0.909846 0.752821 0.376463
O O3 0.772969 0.494629 0.401649
O O4 0.053548 0.491436 0.380001
O O5 0.438441 0.300169 0.666698
O O6 0.225718 0.159443 0.601751
O O7 0.303521 0.063945 0.700449
O O8 0.886661 0.886661 0.000000
O O9 0.058276 0.965205 0.915778
O O10 0.648046 0.648046 0.500000
O O11 0.716718 0.856905 0.437454
#
# Coordination Sequence:
#
# PCOD9551192 Si02
#       5
#     8   8   8   8   8
#     4  10  19  37  59  87 117 153 202 252 295 354
#     4  11  24  39  59  86 120 156 201 251 308 374
#     4  12  24  41  60  87 123 161 198 251 315 367
#     4   9  18  36  61  85 111 151 202 245 285 354
#     4  10  20  35  61  87 116 157 203 245 296 361
#
# _framework density 20.576132000000001
#
# number of rings (size 3 to 8) (size 9 to 14) (size 15 to 20)
#    0.000    1.600    0.000    7.800    0.000    0.000 
#    0.000    7.000    0.000    0.000    0.000    0.000 
#    0.000    0.000    0.000    0.000    0.000    0.000 
#
# Total GULP energy -222977.350857 kJ/mol
# GULP energy per Si atom -5574.433771 kJ/mol
# Density = 2.052930 g / cm^3
# Si number density = 20.576132 Si / 1000 Ang^3
#
#
#
# Elastic Constant Matrix: (Units=GPa)
#
#
# Indices 1 2 3 4 5 6 
#
# 1 71.9812 3.5346 -8.9196 0.0000 0.0000 0.0000
# 2 3.5346 71.9812 -8.9196 0.0000 0.0000 0.0000
# 3 -8.9196 -8.9196 -45.3097 0.0000 0.0000 0.0000
# 4 0.0000 0.0000 0.0000 -2.2237 0.0000 0.0000
# 5 0.0000 0.0000 0.0000 0.0000 -2.2237 0.0000
# 6 0.0000 0.0000 0.0000 0.0000 0.0000 7.5340
#
#
#
# Elastic Compliance Matrix: (Units=1/GPa)
#
#
# Indices 1 2 3 4 5 6 
#
# 1 0.013632 -0.000978 -0.002491 0.000000 0.000000 0.000000
# 2 -0.000978 0.013632 -0.002491 0.000000 0.000000 0.000000
# 3 -0.002491 -0.002491 -0.021090 0.000000 0.000000 0.000000
# 4 0.000000 0.000000 0.000000 -0.449693 0.000000 0.000000
# 5 0.000000 0.000000 0.000000 0.000000 -0.449693 0.000000
# 6 0.000000 0.000000 0.000000 0.000000 0.000000 0.132731
#
#
# Mechanical properties :
#
#
# Convention : Reuss Voigt Hill
#
# Bulk Modulus (GPa) = -174.03421 7.78263 -83.12579
# Shear Modulus (GPa) = -6.66244 8.14780 0.74268
#
# Velocity S-wave (km/s) = -1.80138 1.99209 0.60144
# Velocity P-wave (km/s) = 9.43880 3.01360 6.32491
#
# Compressibility (1/GPa) = -0.00574600
#
# Stress axis : x y z
#
# Youngs Moduli (GPa) = 73.35754 73.35754 -47.41679
#
# Poissons Ratio (x) = 0.07175 -0.11812
# Poissons Ratio (y) = 0.07175 -0.11812
# Poissons Ratio (z) = 0.18273 0.18273
#
# Static dielectric constant tensor:
#      x y z
#    x 1.833300 0.000000 0.000000 
#    y 0.000000 1.833300 0.000000 
#    z 0.000000 0.000000 1.829090 
# 
# From -- ./inp_files/3791.got.cif
#   From: 2010.05.17/outbox.ucp.g08.bks.cvg/sg96_2_cif.got.tgz:3791.got - 2010.06.11 10:37:29.
