data_PCOD9551616
_publ_section_title
;
Structure prediction by ZEFSAII (Michael W. Deem and Ramdas Pophale) SiO2 
 PCOD9551616
Probable space group: I 4 2 2 
;
_chemical_formula_sum "Si O2"
_cell_formula_units_Z 56
_cell_length_a 12.529084
_cell_length_b 12.529084
_cell_length_c 17.330591
_cell_angle_alpha 90.000000
_cell_angle_beta 90.000000
_cell_angle_gamma 90.000000
_cell_volume 2720.520576
_symmetry_space_group_name_H-M "I 4 2 2 "
_symmetry_group_IT_number 97
_symmetry_cell_setting 'tetragonal'
loop_
_space_group_symop_operation_xyz
x,y,z
-y,x,z
-x,-y,z
y,-x,z
x,-y,-z
-x,y,-z
y,x,-z
-y,-x,-z
1/2+x,1/2+y,1/2+z
1/2-y,1/2+x,1/2+z
1/2-x,1/2-y,1/2+z
1/2+y,1/2-x,1/2+z
1/2+x,1/2-y,1/2-z
1/2-x,1/2+y,1/2-z
1/2+y,1/2+x,1/2-z
1/2-y,1/2-x,1/2-z
loop_
_atom_site_type_symbol
_atom_site_label
_atom_site_fract_x
_atom_site_fract_y
_atom_site_fract_z
Si Si1 0.049348 0.825377 0.681611
Si Si2 0.393344 0.227640 0.970848
Si Si3 0.500000 0.170015 0.500000
Si Si4 0.176805 0.028858 0.856595
O O1 0.090688 0.738021 0.621009
O O2 0.046907 0.783386 0.769490
O O3 0.929074 0.873137 0.671700
O O4 0.391024 0.111194 0.009720
O O5 0.500000 0.286468 0.000000
O O6 0.290089 0.290089 0.000000
O O7 0.528809 0.239599 0.424998
O O8 0.084699 0.117280 0.864709
#
# Coordination Sequence:
#
# PCOD9551616 Si02
#       4
#    16  16   8  16
#     4   9  18  36  65  98 120 153 221 285 319 355
#     4  12  24  40  65  93 126 169 215 273 324 385
#     4  12  25  39  54  92 140 177 204 248 333 412
#     4   9  18  36  63  90 122 169 224 269 307 370
#
# _framework density 20.584296999999999
#
# number of rings (size 3 to 8) (size 9 to 14) (size 15 to 20)
#    0.000    1.714    2.857    4.714    0.000    2.571 
#    0.000    1.429    0.000    3.429    0.000    0.000 
#    0.000    0.000    0.000    0.000    0.000    0.000 
#
# Total GULP energy -156062.624355 kJ/mol
# GULP energy per Si atom -5573.665156 kJ/mol
# Density = 2.053745 g / cm^3
# Si number density = 20.584297 Si / 1000 Ang^3
#
#
#
# Elastic Constant Matrix: (Units=GPa)
#
#
# Indices 1 2 3 4 5 6 
#
# 1 43.7429 22.3579 17.1316 0.0000 0.0000 0.0000
# 2 22.3579 43.7429 17.1316 0.0000 0.0000 0.0000
# 3 17.1316 17.1316 110.1866 0.0000 0.0000 0.0000
# 4 0.0000 0.0000 0.0000 17.4131 0.0000 0.0000
# 5 0.0000 0.0000 0.0000 0.0000 17.4131 0.0000
# 6 0.0000 0.0000 0.0000 0.0000 0.0000 38.5284
#
#
#
# Elastic Compliance Matrix: (Units=1/GPa)
#
#
# Indices 1 2 3 4 5 6 
#
# 1 0.031608 -0.015154 -0.002558 0.000000 0.000000 0.000000
# 2 -0.015154 0.031608 -0.002558 0.000000 0.000000 0.000000
# 3 -0.002558 -0.002558 0.009871 0.000000 0.000000 0.000000
# 4 0.000000 0.000000 0.000000 0.057428 0.000000 0.000000
# 5 0.000000 0.000000 0.000000 0.000000 0.057428 0.000000
# 6 0.000000 0.000000 0.000000 0.000000 0.000000 0.025955
#
#
# Mechanical properties :
#
#
# Convention : Reuss Voigt Hill
#
# Bulk Modulus (GPa) = 30.72501 34.54608 32.63554
# Shear Modulus (GPa) = 18.84748 24.07434 21.46091
#
# Velocity S-wave (km/s) = 3.02921 3.42358 3.23241
# Velocity P-wave (km/s) = 5.21475 5.69623 5.46080
#
# Compressibility (1/GPa) = 0.03254678
#
# Stress axis : x y z
#
# Youngs Moduli (GPa) = 31.63752 31.63751 101.30642
#
# Poissons Ratio (x) = 0.47942 0.25917
# Poissons Ratio (y) = 0.47942 0.25917
# Poissons Ratio (z) = 0.08094 0.08094
#
# Static dielectric constant tensor:
#      x y z
#    x 1.777530 0.000000 0.000000 
#    y 0.000000 1.777530 0.000000 
#    z 0.000000 0.000000 1.793010 
# 
# From -- ./inp_files/4434.got.cif
#   From: 2010.05.17/outbox.cif.g08.bks.cpg/sg97_3_cif.got.tgz:4434.got - 2010.06.03 19:55:32.
