data_PCOD9551690
_publ_section_title
;
Structure prediction by ZEFSAII (Michael W. Deem and Ramdas Pophale) SiO2 
 PCOD9551690
Probable space group: I 41 2 2
;
_chemical_formula_sum "Si O2"
_cell_formula_units_Z 64
_cell_length_a 28.442159
_cell_length_b 28.442159
_cell_length_c 5.293761
_cell_angle_alpha 90.000000
_cell_angle_beta 90.000000
_cell_angle_gamma 90.000000
_cell_volume 4282.421886
_symmetry_space_group_name_H-M "I 41 2 2"
_symmetry_group_IT_number 98
_symmetry_cell_setting 'tetragonal'
loop_
_space_group_symop_operation_xyz
x,y,z
-y,1/2+x,1/4+z
-x,-y,z
y,1/2-x,1/4+z
x,1/2-y,1/4-z
-x,1/2+y,1/4-z
y,x,-z
-y,-x,-z
1/2+x,1/2+y,1/2+z
1/2-y,x,3/4+z
1/2-x,1/2-y,1/2+z
1/2+y,-x,3/4+z
1/2+x,-y,3/4-z
1/2-x,y,3/4-z
1/2+y,1/2+x,1/2-z
1/2-y,1/2-x,1/2-z
loop_
_atom_site_type_symbol
_atom_site_label
_atom_site_fract_x
_atom_site_fract_y
_atom_site_fract_z
Si Si1 0.422027 0.502294 0.485916
Si Si2 0.538156 0.618513 0.011995
Si Si3 0.750000 0.659196 0.875000
Si Si4 0.583030 0.794783 0.493171
Si Si5 0.171031 0.171031 0.000000
O O1 0.463769 0.463769 0.500000
O O2 0.447312 0.552689 0.500000
O O3 0.388639 0.487486 0.719676
O O4 0.398852 0.495247 0.214274
O O5 0.584498 0.584498 0.000000
O O6 0.553429 0.670602 0.930600
O O7 0.773116 0.624128 0.675484
O O8 0.707719 0.683946 0.723746
O O9 0.558497 0.750000 0.625000
O O10 0.615426 0.823085 0.693667
#
# Coordination Sequence:
#
# PCOD9551690 Si02
#       5
#    16  16   8  16   8
#     4   9  18  30  45  68  94 112 134 169 211 275
#     4  10  19  29  49  69  86 116 143 170 225 279
#     4  10  20  34  50  60  80 100 140 184 238 284
#     4  10  22  33  50  62  85 108 147 189 226 282
#     4  10  20  34  50  60  79 104 134 190 238 286
#
# _framework density 14.944813
#
# number of rings (size 3 to 8) (size 9 to 14) (size 15 to 20)
#    0.000    2.250    0.000    3.000   12.250    3.000 
#    0.000    0.000   99.000    0.000    0.000    0.000 
#    0.000    0.000    0.000    0.000    0.000    0.000 
#
# Total GULP energy -178326.054528 kJ/mol
# GULP energy per Si atom -5572.689204 kJ/mol
# Density = 1.491080 g / cm^3
# Si number density = 14.944813 Si / 1000 Ang^3
#
#
#
# Elastic Constant Matrix: (Units=GPa)
#
#
# Indices 1 2 3 4 5 6 
#
# 1 39.8265 35.8825 15.5605 0.0000 0.0000 0.0000
# 2 35.8825 39.8225 15.5583 0.0000 0.0000 0.0000
# 3 15.5605 15.5583 67.8114 0.0000 0.0000 0.0000
# 4 0.0000 0.0000 0.0000 17.5471 0.0000 0.0000
# 5 0.0000 0.0000 0.0000 0.0000 17.5469 0.0000
# 6 0.0000 0.0000 0.0000 0.0000 0.0000 8.8092
#
#
#
# Elastic Compliance Matrix: (Units=1/GPa)
#
#
# Indices 1 2 3 4 5 6 
#
# 1 0.134127 -0.119548 -0.003349 0.000000 0.000000 0.000000
# 2 -0.119548 0.134138 -0.003344 0.000000 0.000000 0.000000
# 3 -0.003349 -0.003344 0.016282 0.000000 0.000000 0.000000
# 4 0.000000 0.000000 0.000000 0.056989 0.000000 0.000000
# 5 0.000000 0.000000 0.000000 0.000000 0.056990 0.000000
# 6 0.000000 0.000000 0.000000 0.000000 0.000000 0.113518
#
#
# Mechanical properties :
#
#
# Convention : Reuss Voigt Hill
#
# Bulk Modulus (GPa) = 31.18613 31.27367 31.22990
# Shear Modulus (GPa) = 6.44982 14.14459 10.29721
#
# Velocity S-wave (km/s) = 2.07969 3.07979 2.62776
# Velocity P-wave (km/s) = 5.16524 5.79813 5.49081
#
# Compressibility (1/GPa) = 0.03206554
#
# Stress axis : x y z
#
# Youngs Moduli (GPa) = 7.45562 7.45501 61.41584
#
# Poissons Ratio (x) = 0.89123 0.20570
# Poissons Ratio (y) = 0.89131 0.20534
# Poissons Ratio (z) = 0.02497 0.02493
#
# Static dielectric constant tensor:
#      x y z
#    x 1.512660 0.000000 0.000000 
#    y 0.000000 1.512660 0.000000 
#    z 0.000000 0.000000 1.630750 
# 
# From -- ./inp_files/1597.got.cif
#   From: 2010.05.17/outbox.cif.g08.bks.cpg/sg98_1_cif.got.tgz:1597.got - 2010.06.03 20:00:51.
