data_PCOD9551713
_publ_section_title
;
Structure prediction by ZEFSAII (Michael W. Deem and Ramdas Pophale) SiO2 
 PCOD9551713
Probable space group: I 41 2 2
;
_chemical_formula_sum "Si O2"
_cell_formula_units_Z 64
_cell_length_a 23.206866
_cell_length_b 23.206866
_cell_length_c 5.870673
_cell_angle_alpha 90.000000
_cell_angle_beta 90.000000
_cell_angle_gamma 90.000000
_cell_volume 3161.701605
_symmetry_space_group_name_H-M "I 41 2 2"
_symmetry_group_IT_number 98
_symmetry_cell_setting 'tetragonal'
loop_
_space_group_symop_operation_xyz
x,y,z
-y,1/2+x,1/4+z
-x,-y,z
y,1/2-x,1/4+z
x,1/2-y,1/4-z
-x,1/2+y,1/4-z
y,x,-z
-y,-x,-z
1/2+x,1/2+y,1/2+z
1/2-y,x,3/4+z
1/2-x,1/2-y,1/2+z
1/2+y,-x,3/4+z
1/2+x,-y,3/4-z
1/2-x,y,3/4-z
1/2+y,1/2+x,1/2-z
1/2-y,1/2-x,1/2-z
loop_
_atom_site_type_symbol
_atom_site_label
_atom_site_fract_x
_atom_site_fract_y
_atom_site_fract_z
Si Si1 0.868981 0.750000 0.125000
Si Si2 0.333640 0.833640 0.250000
Si Si3 0.450075 0.193446 0.994805
Si Si4 0.663136 0.663136 0.000000
Si Si5 0.352479 0.568830 0.628813
Si Si6 0.627223 0.250000 0.625000
O O1 0.912486 0.711573 0.275855
O O2 0.832223 0.790268 0.296057
O O3 0.338120 0.890817 0.405054
O O4 0.336743 0.778526 0.418017
O O5 0.502252 0.151745 0.937763
O O6 0.474526 0.250000 0.125000
O O7 0.401290 0.169891 0.160950
O O8 0.409686 0.590315 0.500000
O O9 0.301051 0.586563 0.459459
#
# Coordination Sequence:
#
# PCOD9551713 Si02
#       6
#     8   8  16   8  16   8
#     4  10  21  40  68  92 122 164 209 246 306 372
#     4  10  20  34  56  79 118 154 208 254 322 360
#     4  10  20  37  64  91 120 164 211 251 307 375
#     4  10  22  38  66  93 130 158 212 248 306 377
#     4  10  21  36  61  88 118 156 212 263 310 361
#     4  10  19  34  56  80 112 160 205 262 302 376
#
# _framework density 20.242265
#
# number of rings (size 3 to 8) (size 9 to 14) (size 15 to 20)
#    0.000    2.000    0.000    3.750    0.000    6.000 
#    0.000    0.000  198.000   11.250    0.000    0.000 
#    0.000    0.000    0.000    0.000    0.000    0.000 
#
# Total GULP energy -178727.520639 kJ/mol
# GULP energy per Si atom -5585.235020 kJ/mol
# Density = 2.019619 g / cm^3
# Si number density = 20.242265 Si / 1000 Ang^3
#
#
#
# Elastic Constant Matrix: (Units=GPa)
#
#
# Indices 1 2 3 4 5 6 
#
# 1 92.8579 50.1147 38.2476 0.0000 0.0000 0.0000
# 2 50.1147 92.8592 38.2473 0.0000 0.0000 0.0000
# 3 38.2476 38.2473 99.3662 0.0000 0.0000 0.0000
# 4 0.0000 0.0000 0.0000 17.8454 0.0000 0.0000
# 5 0.0000 0.0000 0.0000 0.0000 17.8450 0.0000
# 6 0.0000 0.0000 0.0000 0.0000 0.0000 28.0538
#
#
#
# Elastic Compliance Matrix: (Units=1/GPa)
#
#
# Indices 1 2 3 4 5 6 
#
# 1 0.016102 -0.007293 -0.003391 0.000000 0.000000 0.000000
# 2 -0.007293 0.016102 -0.003390 0.000000 0.000000 0.000000
# 3 -0.003391 -0.003390 0.012674 0.000000 0.000000 0.000000
# 4 0.000000 0.000000 0.000000 0.056037 0.000000 0.000000
# 5 0.000000 0.000000 0.000000 0.000000 0.056038 0.000000
# 6 0.000000 0.000000 0.000000 0.000000 0.000000 0.035646
#
#
# Mechanical properties :
#
#
# Convention : Reuss Voigt Hill
#
# Bulk Modulus (GPa) = 59.77757 59.81139 59.79448
# Shear Modulus (GPa) = 22.09234 23.31376 22.70305
#
# Velocity S-wave (km/s) = 3.30721 3.39741 3.35261
# Velocity P-wave (km/s) = 6.64671 6.70833 6.67759
#
# Compressibility (1/GPa) = 0.01672868
#
# Stress axis : x y z
#
# Youngs Moduli (GPa) = 62.10449 62.10561 78.90274
#
# Poissons Ratio (x) = 0.45296 0.26752
# Poissons Ratio (y) = 0.45296 0.26751
# Poissons Ratio (z) = 0.21057 0.21056
#
# Static dielectric constant tensor:
#      x y z
#    x 1.705330 0.000000 0.000000 
#    y 0.000000 1.705330 0.000000 
#    z 0.000000 0.000000 1.804890 
# 
# From -- ./inp_files/1476.got.cif
#   From: 2010.05.17/outbox.cif.g08.bks.cpg/sg98_1_cif.got.tgz:1476.got - 2010.06.03 20:00:51.
