data_PCOD9551443
_publ_section_title
;
Structure prediction by ZEFSAII (Michael W. Deem and Ramdas Pophale) SiO2 
 PCOD9551443
Probable space group: I 4 2 2 
;
_chemical_formula_sum "Si O2"
_cell_formula_units_Z 112
_cell_length_a 14.884330
_cell_length_b 14.884330
_cell_length_c 24.504389
_cell_angle_alpha 90.000000
_cell_angle_beta 90.000000
_cell_angle_gamma 90.000000
_cell_volume 5428.782702
_symmetry_space_group_name_H-M "I 4 2 2 "
_symmetry_group_IT_number 97
_symmetry_cell_setting 'tetragonal'
loop_
_space_group_symop_operation_xyz
x,y,z
-y,x,z
-x,-y,z
y,-x,z
x,-y,-z
-x,y,-z
y,x,-z
-y,-x,-z
1/2+x,1/2+y,1/2+z
1/2-y,1/2+x,1/2+z
1/2-x,1/2-y,1/2+z
1/2+y,1/2-x,1/2+z
1/2+x,1/2-y,1/2-z
1/2-x,1/2+y,1/2-z
1/2+y,1/2+x,1/2-z
1/2-y,1/2-x,1/2-z
loop_
_atom_site_type_symbol
_atom_site_label
_atom_site_fract_x
_atom_site_fract_y
_atom_site_fract_z
Si Si1 0.930424 0.136575 0.822345
Si Si2 0.182170 0.603242 0.641071
Si Si3 0.096164 0.227071 0.527790
Si Si4 0.238390 0.074718 0.347725
Si Si5 0.094547 0.394368 0.019320
Si Si6 0.115960 0.221077 0.295170
Si Si7 0.412752 0.938344 0.813565
O O1 0.894111 0.209823 0.866216
O O2 0.905378 0.190167 0.766462
O O3 0.038072 0.116447 0.824466
O O4 0.126823 0.609390 0.583759
O O5 0.146498 0.679393 0.683888
O O6 0.164646 0.504915 0.667178
O O7 0.149753 0.149753 0.500000
O O8 0.086750 0.209608 0.590790
O O9 0.143184 0.321512 0.514068
O O10 0.000000 0.230896 0.500000
O O11 0.194377 0.154545 0.313769
O O12 0.346105 0.080326 0.345616
O O13 0.207356 0.978650 0.325614
O O14 0.090901 0.500000 0.000000
O O15 0.000000 0.355327 0.000000
O O16 0.411301 0.911301 0.750000
O O17 0.500000 0.000000 0.821907
#
# Coordination Sequence:
#
# PCOD9551443 Si02
#       7
#    16  16  16  16  16  16  16
#     4  11  26  48  68  98 142 192 241 293 352 431
#     4  12  25  42  70 101 135 184 231 296 359 432
#     4  11  23  41  60  92 129 168 220 276 333 401
#     4  12  24  42  67  95 134 183 226 284 349 425
#     4  10  22  42  68  96 131 173 222 282 353 415
#     4  12  24  42  68 101 138 184 239 280 353 428
#     4  11  25  40  61  98 135 168 216 280 354 414
#
# _framework density 20.630776999999998
#
# number of rings (size 3 to 8) (size 9 to 14) (size 15 to 20)
#    0.000    0.714    2.857    5.571    6.000    0.429 
#    2.571    1.429    0.000    0.000    0.000    1.000 
#    0.000    0.000    0.000    0.000    0.000    0.000 
#
# Total GULP energy -312641.982733 kJ/mol
# GULP energy per Si atom -5582.892549 kJ/mol
# Density = 2.058382 g / cm^3
# Si number density = 20.630777 Si / 1000 Ang^3
#
#
#
# Elastic Constant Matrix: (Units=GPa)
#
#
# Indices 1 2 3 4 5 6 
#
# 1 84.3838 15.7869 21.7757 0.0000 0.0000 0.0000
# 2 15.7869 84.3838 21.7757 0.0000 0.0000 0.0000
# 3 21.7757 21.7757 65.5666 0.0000 0.0000 0.0000
# 4 0.0000 0.0000 0.0000 -5.1393 0.0000 0.0000
# 5 0.0000 0.0000 0.0000 0.0000 -5.1393 0.0000
# 6 0.0000 0.0000 0.0000 0.0000 0.0000 -19.6332
#
#
#
# Elastic Compliance Matrix: (Units=1/GPa)
#
#
# Indices 1 2 3 4 5 6 
#
# 1 0.013123 -0.001455 -0.003875 0.000000 0.000000 0.000000
# 2 -0.001455 0.013123 -0.003875 0.000000 0.000000 0.000000
# 3 -0.003875 -0.003875 0.017826 0.000000 0.000000 0.000000
# 4 0.000000 0.000000 0.000000 -0.194578 0.000000 0.000000
# 5 0.000000 0.000000 0.000000 0.000000 -0.194578 0.000000
# 6 0.000000 0.000000 0.000000 0.000000 0.000000 -0.050934
#
#
# Mechanical properties :
#
#
# Convention : Reuss Voigt Hill
#
# Bulk Modulus (GPa) = 38.96980 39.22341 39.09660
# Shear Modulus (GPa) = -13.54813 5.68402 -3.93206
#
# Velocity S-wave (km/s) = -2.56539 1.66165 -1.38205
# Velocity P-wave (km/s) = 3.18673 4.76810 4.05525
#
# Compressibility (1/GPa) = 0.02566090
#
# Stress axis : x y z
#
# Youngs Moduli (GPa) = 76.20311 76.20311 56.09910
#
# Poissons Ratio (x) = 0.11088 0.21739
# Poissons Ratio (y) = 0.11088 0.21739
# Poissons Ratio (z) = 0.29529 0.29529
#
# Static dielectric constant tensor:
#      x y z
#    x 1.930300 0.000000 0.000000 
#    y 0.000000 1.930300 0.000000 
#    z 0.000000 0.000000 1.639680 
# 
# From -- ./inp_files/7245.got.cif
#   From: 2010.05.17/outbox.cif.g08.bks.cpg/sg97_4_cif.got.tgz:7245.got - 2010.06.03 19:55:32.
