data_PCOD9551991
_publ_section_title
;
Structure prediction by ZEFSAII (Michael W. Deem and Ramdas Pophale) SiO2 
 PCOD9551991
Probable space group: I 41 2 2
;
_chemical_formula_sum "Si O2"
_cell_formula_units_Z 96
_cell_length_a 14.614281
_cell_length_b 14.614281
_cell_length_c 19.300631
_cell_angle_alpha 90.000000
_cell_angle_beta 90.000000
_cell_angle_gamma 90.000000
_cell_volume 4122.174904
_symmetry_space_group_name_H-M "I 41 2 2"
_symmetry_group_IT_number 98
_symmetry_cell_setting 'tetragonal'
loop_
_space_group_symop_operation_xyz
x,y,z
-y,1/2+x,1/4+z
-x,-y,z
y,1/2-x,1/4+z
x,1/2-y,1/4-z
-x,1/2+y,1/4-z
y,x,-z
-y,-x,-z
1/2+x,1/2+y,1/2+z
1/2-y,x,3/4+z
1/2-x,1/2-y,1/2+z
1/2+y,-x,3/4+z
1/2+x,-y,3/4-z
1/2-x,y,3/4-z
1/2+y,1/2+x,1/2-z
1/2-y,1/2-x,1/2-z
loop_
_atom_site_type_symbol
_atom_site_label
_atom_site_fract_x
_atom_site_fract_y
_atom_site_fract_z
Si Si1 0.739144 0.109254 0.679955
Si Si2 0.894000 0.900489 0.418695
Si Si3 0.898564 0.392674 0.666280
Si Si4 0.919488 0.644108 0.319352
Si Si5 0.181799 0.585868 0.426117
Si Si6 0.500000 0.000000 0.926970
Si Si7 0.750000 0.748622 0.375000
O O1 0.821609 0.145664 0.633026
O O2 0.763923 0.130077 0.759870
O O3 0.654285 0.142993 0.632672
O O4 0.720077 0.999031 0.685887
O O5 0.906787 0.906787 0.500000
O O6 0.824809 0.817947 0.406911
O O7 0.999118 0.892249 0.396272
O O8 0.859142 0.000229 0.396592
O O9 0.882824 0.382824 0.750000
O O10 0.915381 0.584620 0.250000
O O11 0.818181 0.685507 0.330339
O O12 0.952328 0.578659 0.380935
O O13 0.250000 0.527604 0.375000
O O14 0.091052 0.541817 0.461147
#
# Coordination Sequence:
#
# PCOD9551991 Si02
#       7
#    16  16  16  16  16   8   8
#     4  11  24  46  70 105 141 192 244 304 377 444
#     4   9  19  39  61  90 137 187 225 289 366 432
#     4   9  19  41  66  89 136 188 235 285 359 443
#     4  11  24  41  68 102 146 190 243 305 378 454
#     4  11  25  47  73 103 148 187 249 310 366 451
#     4  10  25  46  70 104 137 198 244 296 390 450
#     4  12  22  38  64 108 140 176 254 304 372 436
#
# _framework density 23.288677
#
# number of rings (size 3 to 8) (size 9 to 14) (size 15 to 20)
#    0.000    1.667    1.667    3.250    3.500    5.333 
#    7.500    0.000    0.000    0.000    0.000    0.000 
#    0.000    0.000    0.000    0.000    0.000    0.000 
#
# Total GULP energy -267278.533510 kJ/mol
# GULP energy per Si atom -5568.302781 kJ/mol
# Density = 2.323567 g / cm^3
# Si number density = 23.288677 Si / 1000 Ang^3
#
#
#
# Elastic Constant Matrix: (Units=GPa)
#
#
# Indices 1 2 3 4 5 6 
#
# 1 90.0485 31.5685 26.8493 0.0000 0.0000 0.0000
# 2 31.5685 90.0496 26.8493 0.0000 0.0000 0.0000
# 3 26.8493 26.8493 82.4240 0.0000 0.0000 0.0000
# 4 0.0000 0.0000 0.0000 39.6046 0.0000 0.0000
# 5 0.0000 0.0000 0.0000 0.0000 39.6036 0.0000
# 6 0.0000 0.0000 0.0000 0.0000 0.0000 3.0558
#
#
#
# Elastic Compliance Matrix: (Units=1/GPa)
#
#
# Indices 1 2 3 4 5 6 
#
# 1 0.013352 -0.003748 -0.003128 0.000000 0.000000 0.000000
# 2 -0.003748 0.013352 -0.003128 0.000000 0.000000 0.000000
# 3 -0.003128 -0.003128 0.014171 0.000000 0.000000 0.000000
# 4 0.000000 0.000000 0.000000 0.025250 0.000000 0.000000
# 5 0.000000 0.000000 0.000000 0.000000 0.025250 0.000000
# 6 0.000000 0.000000 0.000000 0.000000 0.000000 0.327248
#
#
# Mechanical properties :
#
#
# Convention : Reuss Voigt Hill
#
# Bulk Modulus (GPa) = 47.92829 48.11739 48.02284
# Shear Modulus (GPa) = 11.22119 28.26980 19.74549
#
# Velocity S-wave (km/s) = 2.19744 3.48787 2.91496
# Velocity P-wave (km/s) = 5.20222 6.07671 5.65639
#
# Compressibility (1/GPa) = 0.02086451
#
# Stress axis : x y z
#
# Youngs Moduli (GPa) = 74.89608 74.89709 70.56905
#
# Poissons Ratio (x) = 0.28071 0.22077
# Poissons Ratio (y) = 0.28071 0.22077
# Poissons Ratio (z) = 0.23431 0.23431
#
# Static dielectric constant tensor:
#      x y z
#    x 1.981420 0.000000 0.000000 
#    y 0.000000 1.981420 0.000000 
#    z 0.000000 0.000000 1.903280 
# 
# From -- ./inp_files/8966.got.cif
#   From: 2010.05.17/outbox.cif.g08.bks.cpg/sg98_5_cif.got.tgz:8966.got - 2010.06.03 20:00:51.
