data_PCOD9551746
_publ_section_title
;
Structure prediction by ZEFSAII (Michael W. Deem and Ramdas Pophale) SiO2 
 PCOD9551746
Probable space group: I 41 2 2
;
_chemical_formula_sum "Si O2"
_cell_formula_units_Z 88
_cell_length_a 17.657634
_cell_length_b 17.657634
_cell_length_c 14.112537
_cell_angle_alpha 90.000000
_cell_angle_beta 90.000000
_cell_angle_gamma 90.000000
_cell_volume 4400.176679
_symmetry_space_group_name_H-M "I 41 2 2"
_symmetry_group_IT_number 98
_symmetry_cell_setting 'tetragonal'
loop_
_space_group_symop_operation_xyz
x,y,z
-y,1/2+x,1/4+z
-x,-y,z
y,1/2-x,1/4+z
x,1/2-y,1/4-z
-x,1/2+y,1/4-z
y,x,-z
-y,-x,-z
1/2+x,1/2+y,1/2+z
1/2-y,x,3/4+z
1/2-x,1/2-y,1/2+z
1/2+y,-x,3/4+z
1/2+x,-y,3/4-z
1/2-x,y,3/4-z
1/2+y,1/2+x,1/2-z
1/2-y,1/2-x,1/2-z
loop_
_atom_site_type_symbol
_atom_site_label
_atom_site_fract_x
_atom_site_fract_y
_atom_site_fract_z
Si Si1 0.049696 0.637462 0.062717
Si Si2 0.553899 0.295448 0.282872
Si Si3 0.877972 0.622029 0.750000
Si Si4 0.985462 0.088788 0.374418
Si Si5 0.302973 0.571588 0.500901
Si Si6 0.750000 0.932307 0.375000
Si Si7 0.645014 0.354987 0.000000
O O1 0.117683 0.580356 0.040385
O O2 0.025772 0.647148 0.172159
O O3 0.082734 0.719238 0.037418
O O4 0.991986 0.615809 0.980564
O O5 0.536851 0.286775 0.395654
O O6 0.487150 0.283626 0.207378
O O7 0.619610 0.233334 0.254707
O O8 0.872574 0.540613 0.699616
O O9 0.880181 0.686210 0.671649
O O10 0.900753 0.109659 0.410123
O O11 0.000000 0.000000 0.381291
O O12 0.349472 0.650529 0.500000
#
# Coordination Sequence:
#
# PCOD9551746 Si02
#       7
#    16  16   8  16  16   8   8
#     4  10  20  33  52  77 116 169 204 233 282 351
#     4  11  21  33  52  85 123 162 203 243 286 357
#     4  12  23  40  64  88 116 142 190 256 337 374
#     4  12  20  36  57  87 121 152 193 254 310 365
#     4   9  19  34  47  71 116 167 201 233 268 336
#     4  12  24  40  64  92 114 154 192 262 330 384
#     4  12  19  32  52  88 128 158 200 246 299 366
#
# _framework density 19.999196999999999
#
# number of rings (size 3 to 8) (size 9 to 14) (size 15 to 20)
#    0.000    1.091    5.455    2.182    1.273    0.000 
#    0.000    0.000    0.000   16.909    0.000    0.000 
#    0.000    0.000    0.000    0.000    0.000    0.000 
#
# Total GULP energy -244938.555568 kJ/mol
# GULP energy per Si atom -5566.785354 kJ/mol
# Density = 1.995368 g / cm^3
# Si number density = 19.999197 Si / 1000 Ang^3
#
#
#
# Elastic Constant Matrix: (Units=GPa)
#
#
# Indices 1 2 3 4 5 6 
#
# 1 33.6913 10.1935 20.0175 0.0000 0.0000 0.0000
# 2 10.1935 33.6901 20.0176 0.0000 0.0000 0.0000
# 3 20.0175 20.0176 151.6467 0.0000 0.0000 0.0000
# 4 0.0000 0.0000 0.0000 31.8531 0.0000 0.0000
# 5 0.0000 0.0000 0.0000 0.0000 31.8533 0.0000
# 6 0.0000 0.0000 0.0000 0.0000 0.0000 10.6105
#
#
#
# Elastic Compliance Matrix: (Units=1/GPa)
#
#
# Indices 1 2 3 4 5 6 
#
# 1 0.034232 -0.008326 -0.003420 0.000000 0.000000 0.000000
# 2 -0.008326 0.034233 -0.003420 0.000000 0.000000 0.000000
# 3 -0.003420 -0.003420 0.007497 0.000000 0.000000 0.000000
# 4 0.000000 0.000000 0.000000 0.031394 0.000000 0.000000
# 5 0.000000 0.000000 0.000000 0.000000 0.031394 0.000000
# 6 0.000000 0.000000 0.000000 0.000000 0.000000 0.094246
#
#
# Mechanical properties :
#
#
# Convention : Reuss Voigt Hill
#
# Bulk Modulus (GPa) = 21.91440 35.49839 28.70640
# Shear Modulus (GPa) = 17.95088 26.11667 22.03378
#
# Velocity S-wave (km/s) = 2.99921 3.61762 3.32284
# Velocity P-wave (km/s) = 4.79324 5.93616 5.39505
#
# Compressibility (1/GPa) = 0.04563209
#
# Stress axis : x y z
#
# Youngs Moduli (GPa) = 29.21248 29.21128 133.38493
#
# Poissons Ratio (x) = 0.24320 0.45613
# Poissons Ratio (y) = 0.24321 0.45616
# Poissons Ratio (z) = 0.09990 0.09990
#
# Static dielectric constant tensor:
#      x y z
#    x 1.732820 0.000000 0.000000 
#    y 0.000000 1.732830 0.000000 
#    z 0.000000 0.000000 1.895610 
# 
# From -- ./inp_files/6558.got.cif
#   From: 2010.05.17/outbox.cif.g08.bks.cpg/sg98_4_cif.got.tgz:6558.got - 2010.06.03 20:00:51.
