data_PCOD9551510
_publ_section_title
;
Structure prediction by ZEFSAII (Michael W. Deem and Ramdas Pophale) SiO2 
 PCOD9551510
Probable space group: I 4 2 2 
;
_chemical_formula_sum "Si O2"
_cell_formula_units_Z 88
_cell_length_a 15.995180
_cell_length_b 15.995180
_cell_length_c 19.389318
_cell_angle_alpha 90.000000
_cell_angle_beta 90.000000
_cell_angle_gamma 90.000000
_cell_volume 4960.675250
_symmetry_space_group_name_H-M "I 4 2 2 "
_symmetry_group_IT_number 97
_symmetry_cell_setting 'tetragonal'
loop_
_space_group_symop_operation_xyz
x,y,z
-y,x,z
-x,-y,z
y,-x,z
x,-y,-z
-x,y,-z
y,x,-z
-y,-x,-z
1/2+x,1/2+y,1/2+z
1/2-y,1/2+x,1/2+z
1/2-x,1/2-y,1/2+z
1/2+y,1/2-x,1/2+z
1/2+x,1/2-y,1/2-z
1/2-x,1/2+y,1/2-z
1/2+y,1/2+x,1/2-z
1/2-y,1/2-x,1/2-z
loop_
_atom_site_type_symbol
_atom_site_label
_atom_site_fract_x
_atom_site_fract_y
_atom_site_fract_z
Si Si1 0.773600 0.331065 0.442367
Si Si2 0.953563 0.869240 0.136392
Si Si3 0.696139 0.311245 0.706695
Si Si4 0.563455 0.374233 0.806964
Si Si5 0.285816 0.500000 0.500000
Si Si6 0.084399 0.205666 0.542850
O O1 0.718828 0.281173 0.500000
O O2 0.738594 0.316268 0.365068
O O3 0.766259 0.428430 0.461421
O O4 0.865382 0.291588 0.446710
O O5 0.907387 0.797537 0.179728
O O6 0.047972 0.898116 0.149317
O O7 0.954604 0.842750 0.056974
O O8 0.772304 0.272304 0.750000
O O9 0.616102 0.311663 0.758185
O O10 0.607482 0.465043 0.796666
O O11 0.570003 0.339258 0.884165
O O12 0.144378 0.144378 0.500000
O O13 0.000000 0.217127 0.500000
#
# Coordination Sequence:
#
# PCOD9551510 Si02
#       6
#    16  16  16  16   8  16
#     4  11  23  40  60  90 122 161 213 258 310 378
#     4  11  21  35  58  93 126 157 198 255 322 385
#     4  12  23  38  55  84 134 170 200 245 316 389
#     4  11  23  37  57  91 126 160 203 257 321 386
#     4  12  20  39  65  88 124 164 208 258 317 389
#     4  11  22  39  64  88 119 159 212 265 313 364
#
# _framework density 17.739521
#
# number of rings (size 3 to 8) (size 9 to 14) (size 15 to 20)
#    0.000    0.727    7.273    1.636    0.000    2.364 
#    0.000    0.455    0.000    0.000    0.000    0.000 
#    0.000    0.000    0.000    0.000    0.000    0.000 
#
# Total GULP energy -245362.505564 kJ/mol
# GULP energy per Si atom -5576.420581 kJ/mol
# Density = 1.769915 g / cm^3
# Si number density = 17.739521 Si / 1000 Ang^3
#
#
#
# Elastic Constant Matrix: (Units=GPa)
#
#
# Indices 1 2 3 4 5 6 
#
# 1 83.6678 58.9479 46.0513 0.0000 0.0000 0.0000
# 2 58.9479 83.6673 46.0512 0.0000 0.0000 0.0000
# 3 46.0513 46.0512 140.3422 0.0000 0.0000 0.0000
# 4 0.0000 0.0000 0.0000 37.0625 0.0000 0.0000
# 5 0.0000 0.0000 0.0000 0.0000 37.0625 0.0000
# 6 0.0000 0.0000 0.0000 0.0000 0.0000 28.9981
#
#
#
# Elastic Compliance Matrix: (Units=1/GPa)
#
#
# Indices 1 2 3 4 5 6 
#
# 1 0.024675 -0.015778 -0.002920 0.000000 0.000000 0.000000
# 2 -0.015778 0.024676 -0.002920 0.000000 0.000000 0.000000
# 3 -0.002920 -0.002920 0.009041 0.000000 0.000000 0.000000
# 4 0.000000 0.000000 0.000000 0.026981 0.000000 0.000000
# 5 0.000000 0.000000 0.000000 0.000000 0.026981 0.000000
# 6 0.000000 0.000000 0.000000 0.000000 0.000000 0.034485
#
#
# Mechanical properties :
#
#
# Convention : Reuss Voigt Hill
#
# Bulk Modulus (GPa) = 65.97188 67.75315 66.86251
# Shear Modulus (GPa) = 25.62427 31.06639 28.34533
#
# Velocity S-wave (km/s) = 3.80475 4.18934 4.00166
# Velocity P-wave (km/s) = 7.52140 7.85347 7.68923
#
# Compressibility (1/GPa) = 0.01515797
#
# Stress axis : x y z
#
# Youngs Moduli (GPa) = 40.52615 40.52590 110.60176
#
# Poissons Ratio (x) = 0.63942 0.32290
# Poissons Ratio (y) = 0.63943 0.32291
# Poissons Ratio (z) = 0.11832 0.11832
#
# Static dielectric constant tensor:
#      x y z
#    x 1.613780 0.000000 0.000000 
#    y 0.000000 1.613780 0.000000 
#    z 0.000000 0.000000 1.668120 
# 
# From -- ./inp_files/6528.got.cif
#   From: 2010.05.17/outbox.cif.g08.bks.cpg/sg97_4_cif.got.tgz:6528.got - 2010.06.03 19:55:32.
