data_PCOD9551755
_publ_section_title
;
Structure prediction by ZEFSAII (Michael W. Deem and Ramdas Pophale) SiO2 
 PCOD9551755
Probable space group: I 41 2 2
;
_chemical_formula_sum "Si O2"
_cell_formula_units_Z 104
_cell_length_a 16.080855
_cell_length_b 16.080855
_cell_length_c 23.832031
_cell_angle_alpha 90.000000
_cell_angle_beta 90.000000
_cell_angle_gamma 90.000000
_cell_volume 6162.817782
_symmetry_space_group_name_H-M "I 41 2 2"
_symmetry_group_IT_number 98
_symmetry_cell_setting 'tetragonal'
loop_
_space_group_symop_operation_xyz
x,y,z
-y,1/2+x,1/4+z
-x,-y,z
y,1/2-x,1/4+z
x,1/2-y,1/4-z
-x,1/2+y,1/4-z
y,x,-z
-y,-x,-z
1/2+x,1/2+y,1/2+z
1/2-y,x,3/4+z
1/2-x,1/2-y,1/2+z
1/2+y,-x,3/4+z
1/2+x,-y,3/4-z
1/2-x,y,3/4-z
1/2+y,1/2+x,1/2-z
1/2-y,1/2-x,1/2-z
loop_
_atom_site_type_symbol
_atom_site_label
_atom_site_fract_x
_atom_site_fract_y
_atom_site_fract_z
Si Si1 0.384233 0.662589 0.836397
Si Si2 0.524302 0.680489 0.172819
Si Si3 0.136706 0.233037 0.776822
Si Si4 0.787331 0.250000 0.125000
Si Si5 0.431601 0.323188 0.862960
Si Si6 0.280113 0.592976 0.479153
Si Si7 0.233812 0.095906 0.994261
O O1 0.350865 0.570414 0.823438
O O2 0.326222 0.723121 0.872794
O O3 0.471572 0.657822 0.867692
O O4 0.395604 0.712249 0.778175
O O5 0.524765 0.750000 0.125000
O O6 0.564269 0.712033 0.231680
O O7 0.589729 0.613135 0.149644
O O8 0.199468 0.300533 0.750000
O O9 0.102834 0.273379 0.833739
O O10 0.194023 0.150869 0.785626
O O11 0.848369 0.253188 0.178019
O O12 0.417849 0.267773 0.807373
O O13 0.367852 0.632149 0.500000
O O14 0.282939 0.494415 0.467591
O O15 0.151891 0.151891 0.000000
#
# Coordination Sequence:
#
# PCOD9551755 Si02
#       7
#    16  16  16   8  16  16  16
#     4  10  21  37  56  78 108 151 189 225 288 333
#     4  11  20  35  57  81 113 149 185 229 284 336
#     4  10  20  34  57  86 115 146 186 233 281 345
#     4  10  20  36  58  76 108 148 188 236 270 336
#     4  10  21  37  55  82 117 145 182 240 281 331
#     4   9  20  37  54  80 110 142 187 233 279 331
#     4   9  20  35  58  83 109 149 184 227 290 339
#
# _framework density 16.875398000000001
#
# number of rings (size 3 to 8) (size 9 to 14) (size 15 to 20)
#    0.000    2.154    2.308    0.462    2.154    1.538 
#    0.000    0.769    0.000    1.846    0.000    0.000 
#    0.000    0.000    0.000    0.000    0.000    0.000 
#
# Total GULP energy -289759.205550 kJ/mol
# GULP energy per Si atom -5572.292414 kJ/mol
# Density = 1.683699 g / cm^3
# Si number density = 16.875398 Si / 1000 Ang^3
#
#
#
# Elastic Constant Matrix: (Units=GPa)
#
#
# Indices 1 2 3 4 5 6 
#
# 1 128.8885 52.9600 24.6892 0.0000 0.0000 0.0000
# 2 52.9600 128.8928 24.6919 0.0000 0.0000 0.0000
# 3 24.6892 24.6919 39.4994 0.0000 0.0000 0.0000
# 4 0.0000 0.0000 0.0000 19.2325 0.0000 0.0000
# 5 0.0000 0.0000 0.0000 0.0000 19.2310 0.0000
# 6 0.0000 0.0000 0.0000 0.0000 0.0000 20.2353
#
#
#
# Elastic Compliance Matrix: (Units=1/GPa)
#
#
# Indices 1 2 3 4 5 6 
#
# 1 0.009897 -0.003273 -0.004140 0.000000 0.000000 0.000000
# 2 -0.003273 0.009897 -0.004141 0.000000 0.000000 0.000000
# 3 -0.004140 -0.004141 0.030493 0.000000 0.000000 0.000000
# 4 0.000000 0.000000 0.000000 0.051995 0.000000 0.000000
# 5 0.000000 0.000000 0.000000 0.000000 0.052000 0.000000
# 6 0.000000 0.000000 0.000000 0.000000 0.000000 0.049419
#
#
# Mechanical properties :
#
#
# Convention : Reuss Voigt Hill
#
# Bulk Modulus (GPa) = 36.79346 55.77366 46.28356
# Shear Modulus (GPa) = 21.19850 24.73574 22.96712
#
# Velocity S-wave (km/s) = 3.54810 3.83271 3.69315
# Velocity P-wave (km/s) = 6.21577 7.26005 6.75811
#
# Compressibility (1/GPa) = 0.02717875
#
# Stress axis : x y z
#
# Youngs Moduli (GPa) = 101.04463 101.04539 32.79478
#
# Poissons Ratio (x) = 0.33075 0.13576
# Poissons Ratio (y) = 0.33075 0.13579
# Poissons Ratio (z) = 0.41829 0.41838
#
# Static dielectric constant tensor:
#      x y z
#    x 1.583740 0.000000 0.000000 
#    y 0.000000 1.583740 0.000000 
#    z 0.000000 0.000000 1.561210 
# 
# From -- ./inp_files/10097.got.cif
#   From: 2010.05.17/outbox.cif.g08.bks.cpg/sg98_6_cif.got.tgz:10097.got - 2010.06.03 20:00:51.
