data_PCOD9551198
_publ_section_title
;
Structure prediction by ZEFSAII (Michael W. Deem and Ramdas Pophale) SiO2 
 PCOD9551198
Probable space group: I 4 2 2 
;
_chemical_formula_sum "Si O2"
_cell_formula_units_Z 72
_cell_length_a 15.943693
_cell_length_b 15.943693
_cell_length_c 16.696495
_cell_angle_alpha 90.000000
_cell_angle_beta 90.000000
_cell_angle_gamma 90.000000
_cell_volume 4244.271510
_symmetry_space_group_name_H-M "I 4 2 2 "
_symmetry_group_IT_number 97
_symmetry_cell_setting 'tetragonal'
loop_
_space_group_symop_operation_xyz
x,y,z
-y,x,z
-x,-y,z
y,-x,z
x,-y,-z
-x,y,-z
y,x,-z
-y,-x,-z
1/2+x,1/2+y,1/2+z
1/2-y,1/2+x,1/2+z
1/2-x,1/2-y,1/2+z
1/2+y,1/2-x,1/2+z
1/2+x,1/2-y,1/2-z
1/2-x,1/2+y,1/2-z
1/2+y,1/2+x,1/2-z
1/2-y,1/2-x,1/2-z
loop_
_atom_site_type_symbol
_atom_site_label
_atom_site_fract_x
_atom_site_fract_y
_atom_site_fract_z
Si Si1 0.131452 0.479294 0.620386
Si Si2 0.920503 0.717035 0.257537
Si Si3 0.000000 0.772023 0.000000
Si Si4 0.518742 0.860056 0.910940
Si Si5 0.870627 0.055134 0.144493
O O1 0.164167 0.511357 0.705722
O O2 0.209732 0.456823 0.564023
O O3 0.085495 0.562701 0.584743
O O4 0.064385 0.405665 0.622641
O O5 0.833139 0.666862 0.250000
O O6 0.948312 0.709149 0.349376
O O7 0.918582 0.806090 0.213715
O O8 0.940015 0.826976 0.056991
O O9 0.500000 0.829586 0.000000
O O10 0.956726 0.105733 0.150466
#
# Coordination Sequence:
#
# PCOD9551198 Si02
#       5
#    16  16   8  16  16
#     4   9  15  26  43  75 109 138 167 202 254 312
#     4   9  19  31  50  75 104 131 166 216 261 298
#     4  10  16  28  50  78 102 126 168 216 246 286
#     4  10  15  25  45  73 107 141 171 202 250 310
#     4  10  21  37  55  72  96 136 178 208 243 303
#
# _framework density 16.964041999999999
#
# number of rings (size 3 to 8) (size 9 to 14) (size 15 to 20)
#    0.000    2.444    2.222    2.000    0.000    3.556 
#    0.000    4.444    0.000    1.333    0.000    1.556 
#    0.000    0.000    0.000    0.000    0.000    0.000 
#
# Total GULP energy -200542.699029 kJ/mol
# GULP energy per Si atom -5570.630529 kJ/mol
# Density = 1.692543 g / cm^3
# Si number density = 16.964042 Si / 1000 Ang^3
#
#
#
# Elastic Constant Matrix: (Units=GPa)
#
#
# Indices 1 2 3 4 5 6 
#
# 1 74.3331 24.7392 32.7849 0.0000 0.0000 0.0000
# 2 24.7392 74.3336 32.7849 0.0000 0.0000 0.0000
# 3 32.7849 32.7849 113.0048 0.0000 0.0000 0.0000
# 4 0.0000 0.0000 0.0000 19.4377 0.0000 0.0000
# 5 0.0000 0.0000 0.0000 0.0000 19.4378 0.0000
# 6 0.0000 0.0000 0.0000 0.0000 0.0000 10.3332
#
#
#
# Elastic Compliance Matrix: (Units=1/GPa)
#
#
# Indices 1 2 3 4 5 6 
#
# 1 0.016328 -0.003836 -0.003624 0.000000 0.000000 0.000000
# 2 -0.003836 0.016328 -0.003624 0.000000 0.000000 0.000000
# 3 -0.003624 -0.003624 0.010952 0.000000 0.000000 0.000000
# 4 0.000000 0.000000 0.000000 0.051447 0.000000 0.000000
# 5 0.000000 0.000000 0.000000 0.000000 0.051446 0.000000
# 6 0.000000 0.000000 0.000000 0.000000 0.000000 0.096775
#
#
# Mechanical properties :
#
#
# Convention : Reuss Voigt Hill
#
# Bulk Modulus (GPa) = 46.64254 49.14327 47.89290
# Shear Modulus (GPa) = 18.34250 21.26590 19.80420
#
# Velocity S-wave (km/s) = 3.29182 3.54444 3.42046
# Velocity P-wave (km/s) = 6.48095 6.76630 6.62516
#
# Compressibility (1/GPa) = 0.02143966
#
# Stress axis : x y z
#
# Youngs Moduli (GPa) = 61.24433 61.24485 91.30655
#
# Poissons Ratio (x) = 0.23492 0.33092
# Poissons Ratio (y) = 0.23491 0.33092
# Poissons Ratio (z) = 0.22197 0.22197
#
# Static dielectric constant tensor:
#      x y z
#    x 1.572940 0.000000 0.000000 
#    y 0.000000 1.572940 0.000000 
#    z 0.000000 0.000000 1.603110 
# 
# From -- ./inp_files/5686.got.cif
#   From: 2010.05.17/outbox.cif.g08.bks.cpg/sg97_3_cif.got.tgz:5686.got - 2010.06.03 19:55:32.
