data_PCOD9551723
_publ_section_title
;
Structure prediction by ZEFSAII (Michael W. Deem and Ramdas Pophale) SiO2 
 PCOD9551723
Probable space group: I 41 2 2
;
_chemical_formula_sum "Si O2"
_cell_formula_units_Z 72
_cell_length_a 14.027045
_cell_length_b 14.027045
_cell_length_c 17.218359
_cell_angle_alpha 90.000000
_cell_angle_beta 90.000000
_cell_angle_gamma 90.000000
_cell_volume 3387.849733
_symmetry_space_group_name_H-M "I 41 2 2"
_symmetry_group_IT_number 98
_symmetry_cell_setting 'tetragonal'
loop_
_space_group_symop_operation_xyz
x,y,z
-y,1/2+x,1/4+z
-x,-y,z
y,1/2-x,1/4+z
x,1/2-y,1/4-z
-x,1/2+y,1/4-z
y,x,-z
-y,-x,-z
1/2+x,1/2+y,1/2+z
1/2-y,x,3/4+z
1/2-x,1/2-y,1/2+z
1/2+y,-x,3/4+z
1/2+x,-y,3/4-z
1/2-x,y,3/4-z
1/2+y,1/2+x,1/2-z
1/2-y,1/2-x,1/2-z
loop_
_atom_site_type_symbol
_atom_site_label
_atom_site_fract_x
_atom_site_fract_y
_atom_site_fract_z
Si Si1 0.250000 0.827113 0.375000
Si Si2 0.750000 0.008986 0.875000
Si Si3 0.446534 0.216412 0.338733
Si Si4 0.103618 0.603618 0.750000
Si Si5 0.335901 0.888856 0.667329
Si Si6 0.303376 0.352667 0.247744
O O1 0.187084 0.884946 0.435748
O O2 0.179274 0.756619 0.328750
O O3 0.725238 0.940789 0.947064
O O4 0.837813 0.082862 0.868126
O O5 0.506993 0.133558 0.295379
O O6 0.517040 0.293393 0.379734
O O7 0.382530 0.281191 0.282256
O O8 0.385791 0.174358 0.410303
O O9 0.388308 0.888308 0.750000
O O10 0.207925 0.292076 0.250000
#
# Coordination Sequence:
#
# PCOD9551723 Si02
#       6
#     8   8  16   8  16  16
#     4   9  18  36  63  98 144 186 223 270 368 409
#     4  11  22  38  69 108 140 178 239 288 356 415
#     4  11  25  44  77 102 141 190 238 294 357 439
#     4  10  22  42  73 106 140 187 236 292 338 432
#     4  10  19  35  66 105 140 175 226 298 340 400
#     4  12  24  48  72  97 139 196 238 292 377 429
#
# _framework density 21.252420000000001
#
# number of rings (size 3 to 8) (size 9 to 14) (size 15 to 20)
#    0.000    1.333    5.556    0.000    0.000    0.889 
#    4.000    2.778    4.889    0.000    0.000    0.000 
#    0.000    0.000    0.000    0.000    0.000    0.000 
#
# Total GULP energy -200754.072874 kJ/mol
# GULP energy per Si atom -5576.502024 kJ/mol
# Density = 2.120405 g / cm^3
# Si number density = 21.252420 Si / 1000 Ang^3
#
#
#
# Elastic Constant Matrix: (Units=GPa)
#
#
# Indices 1 2 3 4 5 6 
#
# 1 80.7421 -0.0092 47.9715 0.0000 0.0000 0.0000
# 2 -0.0092 80.7336 47.9711 0.0000 0.0000 0.0000
# 3 47.9715 47.9711 136.2620 0.0000 0.0000 0.0000
# 4 0.0000 0.0000 0.0000 39.5027 0.0000 0.0000
# 5 0.0000 0.0000 0.0000 0.0000 39.5038 0.0000
# 6 0.0000 0.0000 0.0000 0.0000 0.0000 255.7735
#
#
#
# Elastic Compliance Matrix: (Units=1/GPa)
#
#
# Indices 1 2 3 4 5 6 
#
# 1 0.016840 0.004457 -0.007498 0.000000 0.000000 0.000000
# 2 0.004457 0.016842 -0.007499 0.000000 0.000000 0.000000
# 3 -0.007498 -0.007499 0.012618 0.000000 0.000000 0.000000
# 4 0.000000 0.000000 0.000000 0.025315 0.000000 0.000000
# 5 0.000000 0.000000 0.000000 0.000000 0.025314 0.000000
# 6 0.000000 0.000000 0.000000 0.000000 0.000000 0.003910
#
#
# Mechanical properties :
#
#
# Convention : Reuss Voigt Hill
#
# Bulk Modulus (GPa) = 39.64710 54.40050 47.02380
# Shear Modulus (GPa) = 38.36546 80.40963 59.38754
#
# Velocity S-wave (km/s) = 4.25341 6.15773 5.29193
# Velocity P-wave (km/s) = 6.54353 8.72982 7.71452
#
# Compressibility (1/GPa) = 0.02522253
#
# Stress axis : x y z
#
# Youngs Moduli (GPa) = 59.38132 59.37365 79.25002
#
# Poissons Ratio (x) = -0.26463 0.59420
# Poissons Ratio (y) = -0.26466 0.59426
# Poissons Ratio (z) = 0.44523 0.44522
#
# Static dielectric constant tensor:
#      x y z
#    x 1.155650 0.000000 0.000000 
#    y 0.000000 1.155490 0.000000 
#    z 0.000000 0.000000 1.802150 
# 
# From -- ./inp_files/7527.got.cif
#   From: 2010.05.17/outbox.cif.g08.bks.cpg/sg98_4_cif.got.tgz:7527.got - 2010.06.03 20:00:51.
