data_PCOD9551317
_publ_section_title
;
Structure prediction by ZEFSAII (Michael W. Deem and Ramdas Pophale) SiO2 
 PCOD9551317
Probable space group: I 4 2 2 
;
_chemical_formula_sum "Si O2"
_cell_formula_units_Z 56
_cell_length_a 20.081144
_cell_length_b 20.081144
_cell_length_c 7.584880
_cell_angle_alpha 90.000000
_cell_angle_beta 90.000000
_cell_angle_gamma 90.000000
_cell_volume 3058.620642
_symmetry_space_group_name_H-M "I 4 2 2 "
_symmetry_group_IT_number 97
_symmetry_cell_setting 'tetragonal'
loop_
_space_group_symop_operation_xyz
x,y,z
-y,x,z
-x,-y,z
y,-x,z
x,-y,-z
-x,y,-z
y,x,-z
-y,-x,-z
1/2+x,1/2+y,1/2+z
1/2-y,1/2+x,1/2+z
1/2-x,1/2-y,1/2+z
1/2+y,1/2-x,1/2+z
1/2+x,1/2-y,1/2-z
1/2-x,1/2+y,1/2-z
1/2+y,1/2+x,1/2-z
1/2-y,1/2-x,1/2-z
loop_
_atom_site_type_symbol
_atom_site_label
_atom_site_fract_x
_atom_site_fract_y
_atom_site_fract_z
Si Si1 0.648788 0.954831 0.660970
Si Si2 0.853334 0.255273 0.473439
Si Si3 0.138363 0.759980 0.057353
Si Si4 0.209178 0.500000 0.500000
O O1 0.598334 0.901667 0.750000
O O2 0.714244 0.915706 0.581859
O O3 0.621914 0.000000 0.500000
O O4 0.666615 0.003482 0.822364
O O5 0.816034 0.183967 0.500000
O O6 0.867620 0.252078 0.265699
O O7 0.796623 0.310867 0.510519
O O8 0.171444 0.828557 0.000000
O O9 0.066139 0.751413 0.978838
#
# Coordination Sequence:
#
# PCOD9551317 Si02
#       4
#    16  16  16   8
#     4  12  25  42  62  86 125 169 211 255 302 363
#     4  10  20  36  61  90 119 150 197 260 319 359
#     4  10  20  35  61  90 117 153 195 249 314 367
#     4  12  22  38  63  87 124 154 204 258 302 370
#
# _framework density 18.308907999999999
#
# number of rings (size 3 to 8) (size 9 to 14) (size 15 to 20)
#    0.000    1.143    5.714    1.714    4.000    1.143 
#    0.000    2.143    0.000    0.429    0.000    0.000 
#    0.000    0.571    0.000    0.000    0.000    0.000 
#
# Total GULP energy -156011.589048 kJ/mol
# GULP energy per Si atom -5571.842466 kJ/mol
# Density = 1.826724 g / cm^3
# Si number density = 18.308908 Si / 1000 Ang^3
#
#
#
# Elastic Constant Matrix: (Units=GPa)
#
#
# Indices 1 2 3 4 5 6 
#
# 1 41.5175 28.9562 31.0988 0.0000 0.0000 0.0000
# 2 28.9562 41.5106 31.0959 0.0000 0.0000 0.0000
# 3 31.0988 31.0959 108.6554 0.0000 0.0000 0.0000
# 4 0.0000 0.0000 0.0000 27.3848 0.0000 0.0000
# 5 0.0000 0.0000 0.0000 0.0000 27.3844 0.0000
# 6 0.0000 0.0000 0.0000 0.0000 0.0000 19.1942
#
#
#
# Elastic Compliance Matrix: (Units=1/GPa)
#
#
# Indices 1 2 3 4 5 6 
#
# 1 0.049305 -0.030323 -0.005434 0.000000 0.000000 0.000000
# 2 -0.030323 0.049313 -0.005434 0.000000 0.000000 0.000000
# 3 -0.005434 -0.005434 0.012314 0.000000 0.000000 0.000000
# 4 0.000000 0.000000 0.000000 0.036517 0.000000 0.000000
# 5 0.000000 0.000000 0.000000 0.000000 0.036517 0.000000
# 6 0.000000 0.000000 0.000000 0.000000 0.000000 0.052099
#
#
# Mechanical properties :
#
#
# Convention : Reuss Voigt Hill
#
# Bulk Modulus (GPa) = 35.02556 41.55391 38.28974
# Shear Modulus (GPa) = 15.24566 21.49484 18.37025
#
# Velocity S-wave (km/s) = 2.88877 3.43010 3.17101
# Velocity P-wave (km/s) = 5.50441 6.19941 5.86222
#
# Compressibility (1/GPa) = 0.02855058
#
# Stress axis : x y z
#
# Youngs Moduli (GPa) = 20.28195 20.27869 81.20994
#
# Poissons Ratio (x) = 0.61491 0.44128
# Poissons Ratio (y) = 0.61500 0.44129
# Poissons Ratio (z) = 0.11021 0.11019
#
# Static dielectric constant tensor:
#      x y z
#    x 1.664640 0.000000 0.000000 
#    y 0.000000 1.664640 0.000000 
#    z 0.000000 0.000000 1.717820 
# 
# From -- ./inp_files/1852.got.cif
#   From: 2010.05.17/outbox.cif.g08.bks.cpg/sg97_1_cif.got.tgz:1852.got - 2010.06.03 19:55:32.
