data_PCOD9551766
_publ_section_title
;
Structure prediction by ZEFSAII (Michael W. Deem and Ramdas Pophale) SiO2 
 PCOD9551766
Probable space group: I 41 2 2
;
_chemical_formula_sum "Si O2"
_cell_formula_units_Z 56
_cell_length_a 17.526741
_cell_length_b 17.526741
_cell_length_c 9.198659
_cell_angle_alpha 90.000000
_cell_angle_beta 90.000000
_cell_angle_gamma 90.000000
_cell_volume 2825.705243
_symmetry_space_group_name_H-M "I 41 2 2"
_symmetry_group_IT_number 98
_symmetry_cell_setting 'tetragonal'
loop_
_space_group_symop_operation_xyz
x,y,z
-y,1/2+x,1/4+z
-x,-y,z
y,1/2-x,1/4+z
x,1/2-y,1/4-z
-x,1/2+y,1/4-z
y,x,-z
-y,-x,-z
1/2+x,1/2+y,1/2+z
1/2-y,x,3/4+z
1/2-x,1/2-y,1/2+z
1/2+y,-x,3/4+z
1/2+x,-y,3/4-z
1/2-x,y,3/4-z
1/2+y,1/2+x,1/2-z
1/2-y,1/2-x,1/2-z
loop_
_atom_site_type_symbol
_atom_site_label
_atom_site_fract_x
_atom_site_fract_y
_atom_site_fract_z
Si Si1 0.385022 0.409916 0.162473
Si Si2 0.336241 0.750000 0.625000
Si Si3 0.130591 0.535931 0.360231
Si Si4 0.593409 0.796632 0.835911
O O1 0.399822 0.484954 0.258614
O O2 0.413925 0.338999 0.259594
O O3 0.293374 0.399255 0.150614
O O4 0.415390 0.415390 0.000000
O O5 0.283215 0.783215 0.750000
O O6 0.393130 0.680709 0.666113
O O7 0.067504 0.567504 0.250000
O O8 0.182604 0.479580 0.262548
O O9 0.664387 0.835614 0.750000
#
# Coordination Sequence:
#
# PCOD9551766 Si02
#       4
#    16   8  16  16
#     4  11  22  36  57  90 126 157 207 252 294 344
#     4  10  20  40  70  94 116 144 192 242 306 368
#     4  10  20  40  65  87 118 160 195 243 302 369
#     4  10  20  36  57  88 122 164 208 238 295 354
#
# _framework density 19.818059999999999
#
# number of rings (size 3 to 8) (size 9 to 14) (size 15 to 20)
#    0.000    1.714    2.857    3.429    0.000    8.571 
#    0.000    8.571    0.000    0.000    0.000    0.000 
#    0.000    0.000    0.000    0.000    0.000    0.000 
#
# Total GULP energy -156488.840277 kJ/mol
# GULP energy per Si atom -5588.887153 kJ/mol
# Density = 1.977295 g / cm^3
# Si number density = 19.818060 Si / 1000 Ang^3
#
#
#
# Elastic Constant Matrix: (Units=GPa)
#
#
# Indices 1 2 3 4 5 6 
#
# 1 87.1259 45.4547 56.0161 0.0000 0.0000 0.0000
# 2 45.4547 87.1254 56.0153 0.0000 0.0000 0.0000
# 3 56.0161 56.0153 166.7231 0.0000 0.0000 0.0000
# 4 0.0000 0.0000 0.0000 23.0739 0.0000 0.0000
# 5 0.0000 0.0000 0.0000 0.0000 23.0724 0.0000
# 6 0.0000 0.0000 0.0000 0.0000 0.0000 20.8344
#
#
#
# Elastic Compliance Matrix: (Units=1/GPa)
#
#
# Indices 1 2 3 4 5 6 
#
# 1 0.017265 -0.006732 -0.003539 0.000000 0.000000 0.000000
# 2 -0.006732 0.017265 -0.003539 0.000000 0.000000 0.000000
# 3 -0.003539 -0.003539 0.008376 0.000000 0.000000 0.000000
# 4 0.000000 0.000000 0.000000 0.043339 0.000000 0.000000
# 5 0.000000 0.000000 0.000000 0.000000 0.043342 0.000000
# 6 0.000000 0.000000 0.000000 0.000000 0.000000 0.047998
#
#
# Mechanical properties :
#
#
# Convention : Reuss Voigt Hill
#
# Bulk Modulus (GPa) = 65.41762 72.88297 69.15029
# Shear Modulus (GPa) = 23.77553 25.62871 24.70212
#
# Velocity S-wave (km/s) = 3.46741 3.60001 3.53433
# Velocity P-wave (km/s) = 7.00795 7.35771 7.18496
#
# Compressibility (1/GPa) = 0.01528640
#
# Stress axis : x y z
#
# Youngs Moduli (GPa) = 57.91973 57.91983 119.38946
#
# Poissons Ratio (x) = 0.38993 0.42251
# Poissons Ratio (y) = 0.38993 0.42250
# Poissons Ratio (z) = 0.20497 0.20497
#
# Static dielectric constant tensor:
#      x y z
#    x 1.714700 0.000000 0.000000 
#    y 0.000000 1.714700 0.000000 
#    z 0.000000 0.000000 1.687530 
# 
# From -- ./inp_files/2963.got.cif
#   From: 2010.05.17/outbox.cif.g08.bks.cpg/sg98_2_cif.got.tgz:2963.got - 2010.06.03 20:00:51.
