data_PCOD9551897
_publ_section_title
;
Structure prediction by ZEFSAII (Michael W. Deem and Ramdas Pophale) SiO2 
 PCOD9551897
Probable space group: I 41 2 2
;
_chemical_formula_sum "Si O2"
_cell_formula_units_Z 96
_cell_length_a 20.684342
_cell_length_b 20.684342
_cell_length_c 11.565595
_cell_angle_alpha 90.000000
_cell_angle_beta 90.000000
_cell_angle_gamma 90.000000
_cell_volume 4948.247342
_symmetry_space_group_name_H-M "I 41 2 2"
_symmetry_group_IT_number 98
_symmetry_cell_setting 'tetragonal'
loop_
_space_group_symop_operation_xyz
x,y,z
-y,1/2+x,1/4+z
-x,-y,z
y,1/2-x,1/4+z
x,1/2-y,1/4-z
-x,1/2+y,1/4-z
y,x,-z
-y,-x,-z
1/2+x,1/2+y,1/2+z
1/2-y,x,3/4+z
1/2-x,1/2-y,1/2+z
1/2+y,-x,3/4+z
1/2+x,-y,3/4-z
1/2-x,y,3/4-z
1/2+y,1/2+x,1/2-z
1/2-y,1/2-x,1/2-z
loop_
_atom_site_type_symbol
_atom_site_label
_atom_site_fract_x
_atom_site_fract_y
_atom_site_fract_z
Si Si1 0.250000 0.498317 0.375000
Si Si2 0.358256 0.892837 0.877188
Si Si3 0.215901 0.750000 0.125000
Si Si4 0.926434 0.422569 0.884748
Si Si5 0.348967 0.197824 0.023398
Si Si6 0.276734 0.121951 0.721157
Si Si7 0.422122 0.423154 0.130896
O O1 0.311290 0.545165 0.363901
O O2 0.264552 0.448137 0.477412
O O3 0.393419 0.893419 0.750000
O O4 0.312856 0.829830 0.874866
O O5 0.396779 0.891540 0.999272
O O6 0.251298 0.751298 0.250000
O O7 0.906035 0.406035 0.750000
O O8 0.922312 0.500294 0.890371
O O9 0.002097 0.402885 0.898955
O O10 0.345409 0.250000 0.125000
O O11 0.278435 0.171895 0.989259
O O12 0.388783 0.132176 0.045463
O O13 0.380931 0.232285 0.915252
O O14 0.346179 0.153822 0.750000
O O15 0.405588 0.405588 0.000000
#
# Coordination Sequence:
#
# PCOD9551897 Si02
#       7
#     8  16   8  16  16  16  16
#     4  11  24  42  64  88 128 171 204 264 322 385
#     4  10  22  40  65  93 125 159 202 261 323 379
#     4   9  20  40  64  90 122 159 194 242 314 387
#     4   9  19  37  62  85 119 159 203 255 311 377
#     4  12  23  36  59  84 117 163 216 262 300 362
#     4  12  23  39  56  81 122 166 211 253 308 364
#     4   9  19  37  57  84 118 160 203 254 317 360
#
# _framework density 19.400808000000001
#
# number of rings (size 3 to 8) (size 9 to 14) (size 15 to 20)
#    0.000    1.667    1.667    4.500    2.333    2.000 
#    0.000    1.667    1.833    0.000    0.000    0.000 
#    0.000    0.000    0.000    0.000    0.000    0.000 
#
# Total GULP energy -267453.257597 kJ/mol
# GULP energy per Si atom -5571.942867 kJ/mol
# Density = 1.935665 g / cm^3
# Si number density = 19.400808 Si / 1000 Ang^3
#
#
#
# Elastic Constant Matrix: (Units=GPa)
#
#
# Indices 1 2 3 4 5 6 
#
# 1 56.1449 26.2586 41.7520 0.0000 0.0000 0.0000
# 2 26.2586 56.1454 41.7524 0.0000 0.0000 0.0000
# 3 41.7520 41.7524 170.7855 0.0000 0.0000 0.0000
# 4 0.0000 0.0000 0.0000 40.9334 0.0000 0.0000
# 5 0.0000 0.0000 0.0000 0.0000 40.9282 0.0000
# 6 0.0000 0.0000 0.0000 0.0000 0.0000 -5.2650
#
#
#
# Elastic Compliance Matrix: (Units=1/GPa)
#
#
# Indices 1 2 3 4 5 6 
#
# 1 0.024796 -0.008664 -0.003944 0.000000 0.000000 0.000000
# 2 -0.008664 0.024796 -0.003944 0.000000 0.000000 0.000000
# 3 -0.003944 -0.003944 0.007784 0.000000 0.000000 0.000000
# 4 0.000000 0.000000 0.000000 0.024430 0.000000 0.000000
# 5 0.000000 0.000000 0.000000 0.000000 0.024433 0.000000
# 6 0.000000 0.000000 0.000000 0.000000 0.000000 -0.189933
#
#
# Mechanical properties :
#
#
# Convention : Reuss Voigt Hill
#
# Bulk Modulus (GPa) = 41.19952 55.84464 48.52208
# Shear Modulus (GPa) = -117.64360 26.87351 -45.38505
#
# Velocity S-wave (km/s) = -7.79552 3.72583 -4.84192
# Velocity P-wave (km/s) = 7.72947 6.88159 2.48883
#
# Compressibility (1/GPa) = 0.02427213
#
# Stress axis : x y z
#
# Youngs Moduli (GPa) = 40.32920 40.32951 128.47566
#
# Poissons Ratio (x) = 0.34942 0.50668
# Poissons Ratio (y) = 0.34941 0.50668
# Poissons Ratio (z) = 0.15905 0.15905
#
# Static dielectric constant tensor:
#      x y z
#    x 1.667520 0.000000 0.000000 
#    y 0.000000 1.667520 0.000000 
#    z 0.000000 0.000000 1.754990 
# 
# From -- ./inp_files/5340.got.cif
#   From: 2010.05.17/outbox.cif.g08.bks.cpg/sg98_3_cif.got.tgz:5340.got - 2010.06.03 20:00:51.
