data_PCOD9551056
_publ_section_title
;
Structure prediction by ZEFSAII (Michael W. Deem and Ramdas Pophale) SiO2 
 PCOD9551056
Probable space group: P 43 21 2
;
_chemical_formula_sum "Si O2"
_cell_formula_units_Z 28
_cell_length_a 12.841717
_cell_length_b 12.841717
_cell_length_c 7.635483
_cell_angle_alpha 90.000000
_cell_angle_beta 90.000000
_cell_angle_gamma 90.000000
_cell_volume 1259.165177
_symmetry_space_group_name_H-M "P 43 21 2"
_symmetry_group_IT_number 96
_symmetry_cell_setting 'tetragonal'
loop_
_space_group_symop_operation_xyz
x,y,z
1/2-y,1/2+x,3/4+z
-x,-y,1/2+z
1/2+y,1/2-x,1/4+z
1/2+x,1/2-y,1/4-z
1/2-x,1/2+y,3/4-z
y,x,-z
-y,-x,1/2-z
loop_
_atom_site_type_symbol
_atom_site_label
_atom_site_fract_x
_atom_site_fract_y
_atom_site_fract_z
Si Si1 0.888623 0.111378 0.250000
Si Si2 0.131031 0.522482 0.802796
Si Si3 0.738367 0.172466 0.572515
Si Si4 0.836552 0.885373 0.312394
O O1 0.818435 0.147635 0.414213
O O2 0.011008 0.130180 0.289735
O O3 0.088145 0.456876 0.962564
O O4 0.175215 0.435785 0.667845
O O5 0.217722 0.598085 0.878751
O O6 0.797041 0.202960 0.750000
O O7 0.663549 0.271129 0.523766
O O8 0.893410 0.893410 0.500000
#
# Coordination Sequence:
#
# PCOD9551056 Si02
#       4
#     4   8   8   8
#     4  10  24  44  68  98 140 180 228 290 346 414
#     4  11  24  42  69  98 135 176 228 279 339 412
#     4  11  24  44  70  99 136 180 233 286 348 407
#     4  11  21  46  66  96 141 180 221 293 347 400
#
# _framework density 22.236957
#
# number of rings (size 3 to 8) (size 9 to 14) (size 15 to 20)
#    0.000    1.143    4.286    1.714    4.000    3.429 
#   10.286    0.000    0.000    0.000    0.000    0.000 
#    0.000    0.000    0.000    0.000    0.000    0.000 
#
# Total GULP energy -156471.392249 kJ/mol
# GULP energy per Si atom -5588.264009 kJ/mol
# Density = 2.218634 g / cm^3
# Si number density = 22.236957 Si / 1000 Ang^3
#
#
#
# Elastic Constant Matrix: (Units=GPa)
#
#
# Indices 1 2 3 4 5 6 
#
# 1 66.1291 -17.4522 -8.4332 0.0000 0.0000 0.0000
# 2 -17.4522 66.1287 -8.4329 0.0000 0.0000 0.0000
# 3 -8.4332 -8.4329 42.8447 0.0000 0.0000 0.0000
# 4 0.0000 0.0000 0.0000 21.2315 0.0000 0.0000
# 5 0.0000 0.0000 0.0000 0.0000 21.2313 0.0000
# 6 0.0000 0.0000 0.0000 0.0000 0.0000 34.5801
#
#
#
# Elastic Compliance Matrix: (Units=1/GPa)
#
#
# Indices 1 2 3 4 5 6 
#
# 1 0.017006 0.005041 0.004340 0.000000 0.000000 0.000000
# 2 0.005041 0.017006 0.004340 0.000000 0.000000 0.000000
# 3 0.004340 0.004340 0.025048 0.000000 0.000000 0.000000
# 4 0.000000 0.000000 0.000000 0.047100 0.000000 0.000000
# 5 0.000000 0.000000 0.000000 0.000000 0.047100 0.000000
# 6 0.000000 0.000000 0.000000 0.000000 0.000000 0.028918
#
#
# Mechanical properties :
#
#
# Convention : Reuss Voigt Hill
#
# Bulk Modulus (GPa) = 11.56053 11.82955 11.69504
# Shear Modulus (GPa) = 27.23737 29.36996 28.30367
#
# Velocity S-wave (km/s) = 3.50361 3.63819 3.57153
# Velocity P-wave (km/s) = 4.64512 4.79373 4.72001
#
# Compressibility (1/GPa) = 0.08650120
#
# Stress axis : x y z
#
# Youngs Moduli (GPa) = 58.80335 58.80307 39.92272
#
# Poissons Ratio (x) = -0.29645 -0.17325
# Poissons Ratio (y) = -0.29645 -0.17325
# Poissons Ratio (z) = -0.25518 -0.25518
#
# Static dielectric constant tensor:
#      x y z
#    x 1.819310 0.000000 0.000000 
#    y 0.000000 1.819310 0.000000 
#    z 0.000000 0.000000 1.808970 
# 
# From -- ./inp_files/1027.got.cif
#   From: 2010.05.17/outbox.cif.g08.bks.cpg/sg96_1_cif.got.tgz:1027.got - 2010.06.03 19:52:08.
