data_PCOD9551761
_publ_section_title
;
Structure prediction by ZEFSAII (Michael W. Deem and Ramdas Pophale) SiO2 
 PCOD9551761
Probable space group: I 41 2 2
;
_chemical_formula_sum "Si O2"
_cell_formula_units_Z 128
_cell_length_a 22.467971
_cell_length_b 22.467971
_cell_length_c 12.144276
_cell_angle_alpha 90.000000
_cell_angle_beta 90.000000
_cell_angle_gamma 90.000000
_cell_volume 6130.548578
_symmetry_space_group_name_H-M "I 41 2 2"
_symmetry_group_IT_number 98
_symmetry_cell_setting 'tetragonal'
loop_
_space_group_symop_operation_xyz
x,y,z
-y,1/2+x,1/4+z
-x,-y,z
y,1/2-x,1/4+z
x,1/2-y,1/4-z
-x,1/2+y,1/4-z
y,x,-z
-y,-x,-z
1/2+x,1/2+y,1/2+z
1/2-y,x,3/4+z
1/2-x,1/2-y,1/2+z
1/2+y,-x,3/4+z
1/2+x,-y,3/4-z
1/2-x,y,3/4-z
1/2+y,1/2+x,1/2-z
1/2-y,1/2-x,1/2-z
loop_
_atom_site_type_symbol
_atom_site_label
_atom_site_fract_x
_atom_site_fract_y
_atom_site_fract_z
Si Si1 0.185468 0.473953 0.820163
Si Si2 0.232782 0.577880 0.537638
Si Si3 0.831536 0.577202 0.221848
Si Si4 0.053402 0.303492 0.931208
Si Si5 0.663892 0.106364 0.850380
Si Si6 0.491122 0.924049 0.650693
Si Si7 0.899953 0.572211 0.004114
Si Si8 0.610462 0.291324 0.024525
O O1 0.250000 0.461358 0.875000
O O2 0.188450 0.443451 0.700525
O O3 0.183315 0.545376 0.805103
O O4 0.129091 0.454648 0.893974
O O5 0.194939 0.517420 0.543973
O O6 0.291266 0.563418 0.467456
O O7 0.197964 0.624998 0.460569
O O8 0.244323 0.600086 0.660159
O O9 0.857786 0.642215 0.250000
O O10 0.760741 0.573333 0.226241
O O11 0.873116 0.533207 0.294235
O O12 0.850535 0.561852 0.097274
O O13 0.088258 0.357976 0.983993
O O14 0.650406 0.150406 0.750000
O O15 0.606870 0.069570 0.889830
O O16 0.462949 0.962949 0.750000
O O17 0.537000 0.949247 0.558462
O O18 0.630102 0.250000 0.125000
O O19 0.656727 0.343274 0.000000
#
# Coordination Sequence:
#
# PCOD9551761 Si02
#       8
#    16  16  16  16  16  16  16  16
#     4  10  21  42  68  95 121 175 227 274 336 410
#     4  10  21  38  64  93 126 175 223 272 335 397
#     4  10  22  35  59  88 127 176 221 273 347 404
#     4  11  20  39  64  89 123 168 235 280 327 417
#     4  10  20  35  62  96 133 171 218 271 331 401
#     4  10  21  38  58  97 138 174 212 263 340 415
#     4  11  22  38  65  91 127 174 219 280 339 402
#     4  10  24  44  70  97 131 174 228 279 335 403
#
# _framework density 20.879045000000001
#
# number of rings (size 3 to 8) (size 9 to 14) (size 15 to 20)
#    0.000    1.750    3.750    0.375    1.750    4.250 
#    2.250    3.125    2.750    3.000    0.000    0.000 
#    0.000    0.000    0.000    0.000    0.000    0.000 
#
# Total GULP energy -356556.830866 kJ/mol
# GULP energy per Si atom -5571.200482 kJ/mol
# Density = 2.083152 g / cm^3
# Si number density = 20.879045 Si / 1000 Ang^3
#
#
#
# Elastic Constant Matrix: (Units=GPa)
#
#
# Indices 1 2 3 4 5 6 
#
# 1 66.0635 44.3326 34.9194 0.0000 0.0000 0.0000
# 2 44.3326 66.0575 34.9178 0.0000 0.0000 0.0000
# 3 34.9194 34.9178 122.9674 0.0000 0.0000 0.0000
# 4 0.0000 0.0000 0.0000 30.8962 0.0000 0.0000
# 5 0.0000 0.0000 0.0000 0.0000 30.8971 0.0000
# 6 0.0000 0.0000 0.0000 0.0000 0.0000 24.5974
#
#
#
# Elastic Compliance Matrix: (Units=1/GPa)
#
#
# Indices 1 2 3 4 5 6 
#
# 1 0.028532 -0.017491 -0.003136 0.000000 0.000000 0.000000
# 2 -0.017491 0.028534 -0.003136 0.000000 0.000000 0.000000
# 3 -0.003136 -0.003136 0.009913 0.000000 0.000000 0.000000
# 4 0.000000 0.000000 0.000000 0.032366 0.000000 0.000000
# 5 0.000000 0.000000 0.000000 0.000000 0.032366 0.000000
# 6 0.000000 0.000000 0.000000 0.000000 0.000000 0.040655
#
#
# Mechanical properties :
#
#
# Convention : Reuss Voigt Hill
#
# Bulk Modulus (GPa) = 51.40068 53.71423 52.55746
# Shear Modulus (GPa) = 22.08726 26.67269 24.37997
#
# Velocity S-wave (km/s) = 3.25602 3.57807 3.42084
# Velocity P-wave (km/s) = 6.22955 6.54617 6.38982
#
# Compressibility (1/GPa) = 0.01945500
#
# Stress axis : x y z
#
# Youngs Moduli (GPa) = 35.04875 35.04554 100.87705
#
# Poissons Ratio (x) = 0.61297 0.31631
# Poissons Ratio (y) = 0.61303 0.31632
# Poissons Ratio (z) = 0.10990 0.10989
#
# Static dielectric constant tensor:
#      x y z
#    x 1.829230 0.000000 0.000000 
#    y 0.000000 1.829240 0.000000 
#    z 0.000000 0.000000 1.756260 
# 
# From -- ./inp_files/5505.got.cif
#   From: 2010.05.17/outbox.cif.g08.bks.cpg/sg98_3_cif.got.tgz:5505.got - 2010.06.03 20:00:51.
