data_PCOD9551301
_publ_section_title
;
Structure prediction by ZEFSAII (Michael W. Deem and Ramdas Pophale) SiO2 
 PCOD9551301
Probable space group: I 4 2 2 
;
_chemical_formula_sum "Si O2"
_cell_formula_units_Z 80
_cell_length_a 11.882520
_cell_length_b 11.882520
_cell_length_c 30.664411
_cell_angle_alpha 90.000000
_cell_angle_beta 90.000000
_cell_angle_gamma 90.000000
_cell_volume 4329.639480
_symmetry_space_group_name_H-M "I 4 2 2 "
_symmetry_group_IT_number 97
_symmetry_cell_setting 'tetragonal'
loop_
_space_group_symop_operation_xyz
x,y,z
-y,x,z
-x,-y,z
y,-x,z
x,-y,-z
-x,y,-z
y,x,-z
-y,-x,-z
1/2+x,1/2+y,1/2+z
1/2-y,1/2+x,1/2+z
1/2-x,1/2-y,1/2+z
1/2+y,1/2-x,1/2+z
1/2+x,1/2-y,1/2-z
1/2-x,1/2+y,1/2-z
1/2+y,1/2+x,1/2-z
1/2-y,1/2-x,1/2-z
loop_
_atom_site_type_symbol
_atom_site_label
_atom_site_fract_x
_atom_site_fract_y
_atom_site_fract_z
Si Si1 0.444461 0.320241 0.802249
Si Si2 0.835562 0.096893 0.066736
Si Si3 0.346527 0.867900 0.135240
Si Si4 0.818558 0.500000 0.500000
Si Si5 0.968700 0.813267 0.201486
Si Si6 0.000000 0.500000 0.070320
O O1 0.571127 0.364845 0.808154
O O2 0.399612 0.229236 0.835704
O O3 0.446885 0.280521 0.751813
O O4 0.760070 0.154102 0.103729
O O5 0.760225 0.093273 0.022727
O O6 0.960819 0.146156 0.070371
O O7 0.291715 0.955340 0.169600
O O8 0.440787 0.912814 0.102432
O O9 0.901586 0.456088 0.461876
O O10 0.088236 0.875240 0.194291
#
# Coordination Sequence:
#
# PCOD9551301 Si02
#       6
#    16  16  16   8  16   8
#     4   9  20  37  53  71 102 148 196 230 259 311
#     4  10  20  33  54  85 113 138 174 219 272 341
#     4  11  20  33  54  80 111 141 174 224 282 324
#     4   9  18  37  54  68 106 147 166 201 262 324
#     4   9  18  34  54  77 108 144 181 224 276 332
#     4   9  22  36  49  76 108 136 173 216 266 337
#
# _framework density 18.477288000000001
#
# number of rings (size 3 to 8) (size 9 to 14) (size 15 to 20)
#    0.000    2.400    0.000    3.600    0.000    7.200 
#    0.000    4.000    0.000    0.000    0.000    0.000 
#    0.000   22.400    0.000    0.000    0.000    0.000 
#
# Total GULP energy -222683.421883 kJ/mol
# GULP energy per Si atom -5567.085547 kJ/mol
# Density = 1.843523 g / cm^3
# Si number density = 18.477288 Si / 1000 Ang^3
#
#
#
# Elastic Constant Matrix: (Units=GPa)
#
#
# Indices 1 2 3 4 5 6 
#
# 1 47.1095 13.2615 37.5432 0.0000 0.0000 0.0000
# 2 13.2615 47.1095 37.5432 0.0000 0.0000 0.0000
# 3 37.5432 37.5432 115.7224 0.0000 0.0000 0.0000
# 4 0.0000 0.0000 0.0000 24.3997 0.0000 0.0000
# 5 0.0000 0.0000 0.0000 0.0000 24.3997 0.0000
# 6 0.0000 0.0000 0.0000 0.0000 0.0000 12.7653
#
#
#
# Elastic Compliance Matrix: (Units=1/GPa)
#
#
# Indices 1 2 3 4 5 6 
#
# 1 0.028657 -0.000887 -0.009009 0.000000 0.000000 0.000000
# 2 -0.000887 0.028657 -0.009009 0.000000 0.000000 0.000000
# 3 -0.009009 -0.009009 0.014487 0.000000 0.000000 0.000000
# 4 0.000000 0.000000 0.000000 0.040984 0.000000 0.000000
# 5 0.000000 0.000000 0.000000 0.000000 0.040984 0.000000
# 6 0.000000 0.000000 0.000000 0.000000 0.000000 0.078337
#
#
# Mechanical properties :
#
#
# Convention : Reuss Voigt Hill
#
# Bulk Modulus (GPa) = 29.42105 42.95968 36.19037
# Shear Modulus (GPa) = 17.77803 20.41917 19.09860
#
# Velocity S-wave (km/s) = 3.10523 3.32790 3.21849
# Velocity P-wave (km/s) = 5.36787 6.16985 5.78278
#
# Compressibility (1/GPa) = 0.03398927
#
# Stress axis : x y z
#
# Youngs Moduli (GPa) = 34.89602 34.89603 69.02801
#
# Poissons Ratio (x) = 0.03096 0.62188
# Poissons Ratio (y) = 0.03096 0.62188
# Poissons Ratio (z) = 0.31438 0.31438
#
# Static dielectric constant tensor:
#      x y z
#    x 1.645550 0.000000 0.000000 
#    y 0.000000 1.645550 0.000000 
#    z 0.000000 0.000000 1.695360 
# 
# From -- ./inp_files/8013.got.cif
#   From: 2010.05.17/outbox.cif.g08.bks.cpg/sg97_5_cif.got.tgz:8013.got - 2010.06.03 19:55:32.
