data_PCOD9551242
_publ_section_title
;
Structure prediction by ZEFSAII (Michael W. Deem and Ramdas Pophale) SiO2 
 PCOD9551242
Probable space group: I 4 2 2 
;
_chemical_formula_sum "Si O2"
_cell_formula_units_Z 40
_cell_length_a 13.453174
_cell_length_b 13.453174
_cell_length_c 9.787397
_cell_angle_alpha 90.000000
_cell_angle_beta 90.000000
_cell_angle_gamma 90.000000
_cell_volume 1771.400338
_symmetry_space_group_name_H-M "I 4 2 2 "
_symmetry_group_IT_number 97
_symmetry_cell_setting 'tetragonal'
loop_
_space_group_symop_operation_xyz
x,y,z
-y,x,z
-x,-y,z
y,-x,z
x,-y,-z
-x,y,-z
y,x,-z
-y,-x,-z
1/2+x,1/2+y,1/2+z
1/2-y,1/2+x,1/2+z
1/2-x,1/2-y,1/2+z
1/2+y,1/2-x,1/2+z
1/2+x,1/2-y,1/2-z
1/2-x,1/2+y,1/2-z
1/2+y,1/2+x,1/2-z
1/2-y,1/2-x,1/2-z
loop_
_atom_site_type_symbol
_atom_site_label
_atom_site_fract_x
_atom_site_fract_y
_atom_site_fract_z
Si Si1 0.270609 0.000000 0.500000
Si Si2 0.336062 0.492067 0.286876
Si Si3 0.706610 0.844618 0.904910
O O1 0.199900 0.994650 0.632040
O O2 0.334166 0.099059 0.525395
O O3 0.410925 0.400375 0.314871
O O4 0.241752 0.456557 0.372572
O O5 0.701133 0.798868 0.750000
O O6 0.780597 0.780597 0.000000
#
# Coordination Sequence:
#
# PCOD9551242 Si02
#       3
#     8  16  16
#     4  10  18  35  62  95 134 184 230 274 340 422
#     4  10  20  35  61  98 135 174 227 289 346 404
#     4  10  21  37  61  96 138 179 226 286 349 412
#
# _framework density 22.581005000000001
#
# number of rings (size 3 to 8) (size 9 to 14) (size 15 to 20)
#    0.000    2.000    0.000    6.000    0.000    3.200 
#    0.000    2.000    0.000    4.800    0.000   64.400 
#    0.000    3.200    0.000    0.000    0.000    0.000 
#
# Total GULP energy -111658.474563 kJ/mol
# GULP energy per Si atom -5582.923728 kJ/mol
# Density = 2.252961 g / cm^3
# Si number density = 22.581005 Si / 1000 Ang^3
#
#
#
# Elastic Constant Matrix: (Units=GPa)
#
#
# Indices 1 2 3 4 5 6 
#
# 1 58.5872 75.3697 59.7900 0.0000 0.0000 0.0000
# 2 75.3697 58.5883 59.7898 0.0000 0.0000 0.0000
# 3 59.7900 59.7898 169.7302 0.0000 0.0000 0.0000
# 4 0.0000 0.0000 0.0000 13.1633 0.0000 0.0000
# 5 0.0000 0.0000 0.0000 0.0000 13.1637 0.0000
# 6 0.0000 0.0000 0.0000 0.0000 0.0000 -158.7134
#
#
#
# Elastic Compliance Matrix: (Units=1/GPa)
#
#
# Indices 1 2 3 4 5 6 
#
# 1 -0.024350 0.035238 -0.003836 0.000000 0.000000 0.000000
# 2 0.035238 -0.024349 -0.003836 0.000000 0.000000 0.000000
# 3 -0.003836 -0.003836 0.008594 0.000000 0.000000 0.000000
# 4 0.000000 0.000000 0.000000 0.075969 0.000000 0.000000
# 5 0.000000 0.000000 0.000000 0.000000 0.075967 0.000000
# 6 0.000000 0.000000 0.000000 0.000000 0.000000 -0.006301
#
#
# Mechanical properties :
#
#
# Convention : Reuss Voigt Hill
#
# Bulk Modulus (GPa) = 66.53751 75.20051 70.86901
# Shear Modulus (GPa) = 90.24174 -20.34687 34.94744
#
# Velocity S-wave (km/s) = 6.32853 -3.00502 3.93828
# Velocity P-wave (km/s) = 9.10662 4.61894 7.22029
#
# Compressibility (1/GPa) = 0.01502912
#
# Stress axis : x y z
#
# Youngs Moduli (GPa) = -41.06841 -41.06980 116.35763
#
# Poissons Ratio (x) = 1.44724 0.44631
# Poissons Ratio (y) = 1.44719 0.44636
# Poissons Ratio (z) = -0.15753 -0.15755
#
# Static dielectric constant tensor:
#      x y z
#    x 1.864360 0.000000 0.000000 
#    y 0.000000 1.864360 0.000000 
#    z 0.000000 0.000000 1.890600 
# 
# From -- ./inp_files/1392.got.cif
#   From: 2010.05.17/outbox.cif.g08.bks.cpg/sg97_1_cif.got.tgz:1392.got - 2010.06.03 19:55:32.
