data_PCOD9551431
_publ_section_title
;
Structure prediction by ZEFSAII (Michael W. Deem and Ramdas Pophale) SiO2 
 PCOD9551431
Probable space group: I 4 2 2 
;
_chemical_formula_sum "Si O2"
_cell_formula_units_Z 108
_cell_length_a 13.911802
_cell_length_b 13.911802
_cell_length_c 26.622294
_cell_angle_alpha 90.000000
_cell_angle_beta 90.000000
_cell_angle_gamma 90.000000
_cell_volume 5152.431789
_symmetry_space_group_name_H-M "I 4 2 2 "
_symmetry_group_IT_number 97
_symmetry_cell_setting 'tetragonal'
loop_
_space_group_symop_operation_xyz
x,y,z
-y,x,z
-x,-y,z
y,-x,z
x,-y,-z
-x,y,-z
y,x,-z
-y,-x,-z
1/2+x,1/2+y,1/2+z
1/2-y,1/2+x,1/2+z
1/2-x,1/2-y,1/2+z
1/2+y,1/2-x,1/2+z
1/2+x,1/2-y,1/2-z
1/2-x,1/2+y,1/2-z
1/2+y,1/2+x,1/2-z
1/2-y,1/2-x,1/2-z
loop_
_atom_site_type_symbol
_atom_site_label
_atom_site_fract_x
_atom_site_fract_y
_atom_site_fract_z
Si Si1 0.500000 0.000000 0.250000
Si Si2 0.539146 0.342511 0.243357
Si Si3 0.757353 0.500000 0.000000
Si Si4 0.733981 0.030067 0.052660
Si Si5 0.849931 0.279266 0.573841
Si Si6 0.672467 0.979969 0.668502
Si Si7 0.831496 0.639082 0.914255
Si Si8 0.051328 0.152105 0.149822
O O1 0.410892 0.989304 0.289428
O O2 0.611034 0.432732 0.240993
O O3 0.543408 0.268600 0.198897
O O4 0.561375 0.293187 0.297407
O O5 0.713794 0.579561 0.038812
O O6 0.812660 0.437836 0.041787
O O7 0.669794 0.123561 0.042130
O O8 0.799890 0.067819 0.097135
O O9 0.682264 0.936823 0.075748
O O10 0.780998 0.000000 0.000000
O O11 0.753449 0.218422 0.583905
O O12 0.899607 0.322750 0.624140
O O13 0.672877 0.080524 0.637915
O O14 0.941843 0.116494 0.151147
#
# Coordination Sequence:
#
# PCOD9551431 Si02
#       8
#     4  16   8  16  16  16  16  16
#     4  12  28  48  60  98 140 172 232 268 308 398
#     4   9  19  40  68  95 123 159 209 265 326 390
#     4  10  22  41  66  93 132 170 206 269 326 381
#     4  12  24  38  62  91 126 169 215 263 318 386
#     4  11  24  43  66  97 131 169 221 270 327 394
#     4  11  25  43  66  92 131 175 215 272 322 380
#     4  11  24  43  66  97 131 169 221 270 327 394
#     4   9  20  37  57  86 123 161 207 263 318 374
#
# _framework density 20.960975999999999
#
# number of rings (size 3 to 8) (size 9 to 14) (size 15 to 20)
#    0.000    1.481    1.481    4.000    4.148    4.148 
#    0.000    2.222    0.000   16.889    0.000    0.000 
#    0.000    0.000    0.000    0.000    0.000    0.000 
#
# Total GULP energy -300786.572542 kJ/mol
# GULP energy per Si atom -5570.121714 kJ/mol
# Density = 2.091327 g / cm^3
# Si number density = 20.960976 Si / 1000 Ang^3
#
#
#
# Elastic Constant Matrix: (Units=GPa)
#
#
# Indices 1 2 3 4 5 6 
#
# 1 63.6492 13.9585 19.5079 0.0000 0.0000 0.0000
# 2 13.9585 63.6492 19.5079 0.0000 0.0000 0.0000
# 3 19.5079 19.5079 132.8683 0.0000 0.0000 0.0000
# 4 0.0000 0.0000 0.0000 44.6421 0.0000 0.0000
# 5 0.0000 0.0000 0.0000 0.0000 44.6421 0.0000
# 6 0.0000 0.0000 0.0000 0.0000 0.0000 5.4410
#
#
#
# Elastic Compliance Matrix: (Units=1/GPa)
#
#
# Indices 1 2 3 4 5 6 
#
# 1 0.017018 -0.003106 -0.002043 0.000000 0.000000 0.000000
# 2 -0.003106 0.017018 -0.002043 0.000000 0.000000 0.000000
# 3 -0.002043 -0.002043 0.008126 0.000000 0.000000 0.000000
# 4 0.000000 0.000000 0.000000 0.022400 0.000000 0.000000
# 5 0.000000 0.000000 0.000000 0.000000 0.022400 0.000000
# 6 0.000000 0.000000 0.000000 0.000000 0.000000 0.183791
#
#
# Mechanical properties :
#
#
# Convention : Reuss Voigt Hill
#
# Bulk Modulus (GPa) = 35.99709 40.67946 38.33828
# Shear Modulus (GPa) = 16.98387 32.75787 24.87087
#
# Velocity S-wave (km/s) = 2.84960 3.95752 3.44834
# Velocity P-wave (km/s) = 5.29505 6.35075 5.84678
#
# Compressibility (1/GPa) = 0.02778002
#
# Stress axis : x y z
#
# Youngs Moduli (GPa) = 58.76017 58.76017 123.06110
#
# Poissons Ratio (x) = 0.18252 0.25136
# Poissons Ratio (y) = 0.18252 0.25136
# Poissons Ratio (z) = 0.12002 0.12002
#
# Static dielectric constant tensor:
#      x y z
#    x 1.760250 0.000000 0.000000 
#    y 0.000000 1.760250 0.000000 
#    z 0.000000 0.000000 1.789480 
# 
# From -- ./inp_files/7312.got.cif
#   From: 2010.05.17/outbox.cif.g08.bks.cpg/sg97_4_cif.got.tgz:7312.got - 2010.06.03 19:55:32.
