data_PCOD9551402
_publ_section_title
;
Structure prediction by ZEFSAII (Michael W. Deem and Ramdas Pophale) SiO2 
 PCOD9551402
Probable space group: I 4 2 2 
;
_chemical_formula_sum "Si O2"
_cell_formula_units_Z 40
_cell_length_a 13.678982
_cell_length_b 13.678982
_cell_length_c 8.822951
_cell_angle_alpha 90.000000
_cell_angle_beta 90.000000
_cell_angle_gamma 90.000000
_cell_volume 1650.902493
_symmetry_space_group_name_H-M "I 4 2 2 "
_symmetry_group_IT_number 97
_symmetry_cell_setting 'tetragonal'
loop_
_space_group_symop_operation_xyz
x,y,z
-y,x,z
-x,-y,z
y,-x,z
x,-y,-z
-x,y,-z
y,x,-z
-y,-x,-z
1/2+x,1/2+y,1/2+z
1/2-y,1/2+x,1/2+z
1/2-x,1/2-y,1/2+z
1/2+y,1/2-x,1/2+z
1/2+x,1/2-y,1/2-z
1/2-x,1/2+y,1/2-z
1/2+y,1/2+x,1/2-z
1/2-y,1/2-x,1/2-z
loop_
_atom_site_type_symbol
_atom_site_label
_atom_site_fract_x
_atom_site_fract_y
_atom_site_fract_z
Si Si1 0.648766 0.558144 0.681748
Si Si2 0.398335 0.138941 0.421826
Si Si3 0.000000 0.235309 0.500000
O O1 0.553977 0.621828 0.644964
O O2 0.745127 0.604004 0.608856
O O3 0.671989 0.541166 0.861074
O O4 0.500000 0.116874 0.500000
O O5 0.400664 0.099337 0.250000
O O6 0.311455 0.090846 0.520243
#
# Coordination Sequence:
#
# PCOD9551402 Si02
#       3
#    16  16   8
#     4  10  22  43  66  97 138 186 234 294 359 432
#     4  10  23  43  66  98 135 182 229 294 359 431
#     4  10  21  41  66  98 134 180 236 295 357 430
#
# _framework density 24.229172999999999
#
# number of rings (size 3 to 8) (size 9 to 14) (size 15 to 20)
#    0.000    2.000    0.000    1.800    0.000   14.400 
#   36.000    2.000    0.000    0.000    0.000    0.000 
#    0.000    0.000    0.000    0.000    0.000    0.000 
#
# Total GULP energy -111738.063977 kJ/mol
# GULP energy per Si atom -5586.903199 kJ/mol
# Density = 2.417403 g / cm^3
# Si number density = 24.229173 Si / 1000 Ang^3
#
#
#
# Elastic Constant Matrix: (Units=GPa)
#
#
# Indices 1 2 3 4 5 6 
#
# 1 106.8435 15.9733 13.9926 0.0000 0.0000 0.0000
# 2 15.9733 106.8456 13.9923 0.0000 0.0000 0.0000
# 3 13.9926 13.9923 72.3401 0.0000 0.0000 0.0000
# 4 0.0000 0.0000 0.0000 49.6469 0.0000 0.0000
# 5 0.0000 0.0000 0.0000 0.0000 49.6468 0.0000
# 6 0.0000 0.0000 0.0000 0.0000 0.0000 13.4833
#
#
#
# Elastic Compliance Matrix: (Units=1/GPa)
#
#
# Indices 1 2 3 4 5 6 
#
# 1 0.009761 -0.001244 -0.001648 0.000000 0.000000 0.000000
# 2 -0.001244 0.009761 -0.001647 0.000000 0.000000 0.000000
# 3 -0.001648 -0.001647 0.014461 0.000000 0.000000 0.000000
# 4 0.000000 0.000000 0.000000 0.020142 0.000000 0.000000
# 5 0.000000 0.000000 0.000000 0.000000 0.020142 0.000000
# 6 0.000000 0.000000 0.000000 0.000000 0.000000 0.074166
#
#
# Mechanical properties :
#
#
# Convention : Reuss Voigt Hill
#
# Bulk Modulus (GPa) = 40.15104 41.54952 40.85028
# Shear Modulus (GPa) = 30.15451 38.69345 34.42398
#
# Velocity S-wave (km/s) = 3.53165 4.00056 3.77339
# Velocity P-wave (km/s) = 5.76519 6.20685 5.99009
#
# Compressibility (1/GPa) = 0.02490595
#
# Stress axis : x y z
#
# Youngs Moduli (GPa) = 102.44683 102.44895 69.15177
#
# Poissons Ratio (x) = 0.12740 0.11393
# Poissons Ratio (y) = 0.12740 0.11393
# Poissons Ratio (z) = 0.16879 0.16878
#
# Static dielectric constant tensor:
#      x y z
#    x 1.913480 0.000000 0.000000 
#    y 0.000000 1.913480 0.000000 
#    z 0.000000 0.000000 2.079240 
# 
# From -- ./inp_files/1459.got.cif
#   From: 2010.05.17/outbox.cif.g08.bks.cpg/sg97_1_cif.got.tgz:1459.got - 2010.06.03 19:55:32.
