data_PCOD9551440
_publ_section_title
;
Structure prediction by ZEFSAII (Michael W. Deem and Ramdas Pophale) SiO2 
 PCOD9551440
Probable space group: I 4 2 2 
;
_chemical_formula_sum "Si O2"
_cell_formula_units_Z 64
_cell_length_a 13.014463
_cell_length_b 13.014463
_cell_length_c 16.736648
_cell_angle_alpha 90.000000
_cell_angle_beta 90.000000
_cell_angle_gamma 90.000000
_cell_volume 2834.790629
_symmetry_space_group_name_H-M "I 4 2 2 "
_symmetry_group_IT_number 97
_symmetry_cell_setting 'tetragonal'
loop_
_space_group_symop_operation_xyz
x,y,z
-y,x,z
-x,-y,z
y,-x,z
x,-y,-z
-x,y,-z
y,x,-z
-y,-x,-z
1/2+x,1/2+y,1/2+z
1/2-y,1/2+x,1/2+z
1/2-x,1/2-y,1/2+z
1/2+y,1/2-x,1/2+z
1/2+x,1/2-y,1/2-z
1/2-x,1/2+y,1/2-z
1/2+y,1/2+x,1/2-z
1/2-y,1/2-x,1/2-z
loop_
_atom_site_type_symbol
_atom_site_label
_atom_site_fract_x
_atom_site_fract_y
_atom_site_fract_z
Si Si1 0.249728 0.405173 0.211133
Si Si2 0.648063 0.424520 0.621293
Si Si3 0.753884 0.721582 0.915781
Si Si4 0.035742 0.615696 0.408333
O O1 0.152706 0.347295 0.250000
O O2 0.323542 0.433461 0.284389
O O3 0.305077 0.320432 0.156675
O O4 0.198942 0.486971 0.151645
O O5 0.631279 0.541596 0.598251
O O6 0.730758 0.345309 0.586287
O O7 0.858543 0.656980 0.906479
O O8 0.700574 0.700574 0.000000
O O9 0.000000 0.500000 0.386569
O O10 0.000000 0.631628 0.500000
#
# Coordination Sequence:
#
# PCOD9551440 Si02
#       4
#    16  16  16  16
#     4  10  22  42  63  94 131 173 224 275 340 402
#     4  10  23  41  64  90 127 172 220 276 339 405
#     4  11  23  40  66  95 133 174 221 276 337 404
#     4  11  24  40  66  99 137 177 225 284 339 405
#
# _framework density 22.576625
#
# number of rings (size 3 to 8) (size 9 to 14) (size 15 to 20)
#    0.000    1.500    2.500    1.500    7.000    1.500 
#    0.000    1.250    0.000    0.000    0.000    0.000 
#    0.000    0.000    0.000    0.000    0.000    0.000 
#
# Total GULP energy -178531.810796 kJ/mol
# GULP energy per Si atom -5579.119087 kJ/mol
# Density = 2.252524 g / cm^3
# Si number density = 22.576625 Si / 1000 Ang^3
#
#
#
# Elastic Constant Matrix: (Units=GPa)
#
#
# Indices 1 2 3 4 5 6 
#
# 1 70.0205 20.4219 5.4160 0.0000 0.0000 0.0000
# 2 20.4219 70.0206 5.4165 0.0000 0.0000 0.0000
# 3 5.4160 5.4165 69.6659 0.0000 0.0000 0.0000
# 4 0.0000 0.0000 0.0000 1.0474 0.0000 0.0000
# 5 0.0000 0.0000 0.0000 0.0000 1.0286 0.0000
# 6 0.0000 0.0000 0.0000 0.0000 0.0000 31.9227
#
#
#
# Elastic Compliance Matrix: (Units=1/GPa)
#
#
# Indices 1 2 3 4 5 6 
#
# 1 0.015661 -0.004501 -0.000868 0.000000 0.000000 0.000000
# 2 -0.004501 0.015661 -0.000868 0.000000 0.000000 0.000000
# 3 -0.000868 -0.000868 0.014489 0.000000 0.000000 0.000000
# 4 0.000000 0.000000 0.000000 0.954708 0.000001 0.000000
# 5 0.000000 0.000000 0.000000 0.000001 0.972241 0.000000
# 6 0.000000 0.000000 0.000000 0.000000 0.000000 0.031326
#
#
# Mechanical properties :
#
#
# Convention : Reuss Voigt Hill
#
# Bulk Modulus (GPa) = 29.99425 30.24618 30.12022
# Shear Modulus (GPa) = 2.46588 18.69658 10.58123
#
# Velocity S-wave (km/s) = 1.04623 2.88086 2.16725
# Velocity P-wave (km/s) = 3.84368 4.94894 4.43091
#
# Compressibility (1/GPa) = 0.03333973
#
# Stress axis : x y z
#
# Youngs Moduli (GPa) = 63.85179 63.85183 69.01720
#
# Poissons Ratio (x) = 0.28737 0.05988
# Poissons Ratio (y) = 0.28737 0.05989
# Poissons Ratio (z) = 0.05540 0.05541
#
# Static dielectric constant tensor:
#      x y z
#    x 1.851630 0.000000 0.000000 
#    y 0.000000 1.851650 0.000000 
#    z 0.000000 0.000000 1.843780 
# 
# From -- ./inp_files/4532.got.cif
#   From: 2010.05.17/outbox.cif.g08.bks.cpg/sg97_3_cif.got.tgz:4532.got - 2010.06.03 19:55:32.
