data_PCOD9551804
_publ_section_title
;
Structure prediction by ZEFSAII (Michael W. Deem and Ramdas Pophale) SiO2 
 PCOD9551804
Probable space group: I 41 2 2
;
_chemical_formula_sum "Si O2"
_cell_formula_units_Z 56
_cell_length_a 15.964185
_cell_length_b 15.964185
_cell_length_c 10.926489
_cell_angle_alpha 90.000000
_cell_angle_beta 90.000000
_cell_angle_gamma 90.000000
_cell_volume 2784.672569
_symmetry_space_group_name_H-M "I 41 2 2"
_symmetry_group_IT_number 98
_symmetry_cell_setting 'tetragonal'
loop_
_space_group_symop_operation_xyz
x,y,z
-y,1/2+x,1/4+z
-x,-y,z
y,1/2-x,1/4+z
x,1/2-y,1/4-z
-x,1/2+y,1/4-z
y,x,-z
-y,-x,-z
1/2+x,1/2+y,1/2+z
1/2-y,x,3/4+z
1/2-x,1/2-y,1/2+z
1/2+y,-x,3/4+z
1/2+x,-y,3/4-z
1/2-x,y,3/4-z
1/2+y,1/2+x,1/2-z
1/2-y,1/2-x,1/2-z
loop_
_atom_site_type_symbol
_atom_site_label
_atom_site_fract_x
_atom_site_fract_y
_atom_site_fract_z
Si Si1 0.191203 0.691203 0.250000
Si Si2 0.695596 0.554829 0.752382
Si Si3 0.633877 0.125692 0.997578
Si Si4 0.054838 0.197068 0.253664
O O1 0.175271 0.784987 0.299954
O O2 0.131415 0.661417 0.143072
O O3 0.750000 0.568345 0.875000
O O4 0.660321 0.459179 0.763782
O O5 0.744028 0.562685 0.623006
O O6 0.626745 0.627642 0.748174
O O7 0.645333 0.029919 0.030929
O O8 0.051781 0.250000 0.125000
#
# Coordination Sequence:
#
# PCOD9551804 Si02
#       4
#     8  16  16  16
#     4  10  20  38  73 100 137 166 220 284 340 412
#     4  12  28  44  68 101 143 183 224 278 345 411
#     4  11  21  42  68 105 133 171 223 286 351 397
#     4  12  25  47  72  99 134 183 237 286 328 397
#
# _framework density 20.110082999999999
#
# number of rings (size 3 to 8) (size 9 to 14) (size 15 to 20)
#    0.000    0.571    5.714    2.571    4.000    4.571 
#    0.000    7.143    0.000    0.000    0.000    0.000 
#    0.000    0.000    0.000    0.000    0.000    0.000 
#
# Total GULP energy -156014.503424 kJ/mol
# GULP energy per Si atom -5571.946551 kJ/mol
# Density = 2.006431 g / cm^3
# Si number density = 20.110083 Si / 1000 Ang^3
#
#
#
# Elastic Constant Matrix: (Units=GPa)
#
#
# Indices 1 2 3 4 5 6 
#
# 1 118.8676 124.2436 43.2961 0.0000 0.0000 0.0000
# 2 124.2436 118.8676 43.2961 0.0000 0.0000 0.0000
# 3 43.2961 43.2961 103.6862 0.0000 0.0000 0.0000
# 4 0.0000 0.0000 0.0000 26.8008 0.0000 0.0000
# 5 0.0000 0.0000 0.0000 0.0000 26.8008 0.0000
# 6 0.0000 0.0000 0.0000 0.0000 0.0000 57.7021
#
#
#
# Elastic Compliance Matrix: (Units=1/GPa)
#
#
# Indices 1 2 3 4 5 6 
#
# 1 -0.090590 0.095422 -0.002018 0.000000 0.000000 0.000000
# 2 0.095422 -0.090590 -0.002018 0.000000 0.000000 0.000000
# 3 -0.002018 -0.002018 0.011330 0.000000 0.000000 0.000000
# 4 0.000000 0.000000 0.000000 0.037312 0.000000 0.000000
# 5 0.000000 0.000000 0.000000 0.000000 0.037312 0.000000
# 6 0.000000 0.000000 0.000000 0.000000 0.000000 0.017330
#
#
# Mechanical properties :
#
#
# Convention : Reuss Voigt Hill
#
# Bulk Modulus (GPa) = 77.38271 84.78808 81.08539
# Shear Modulus (GPa) = -19.50367 30.96645 5.73139
#
# Velocity S-wave (km/s) = -3.11761 3.92835 1.69003
# Velocity P-wave (km/s) = 5.06001 7.92650 6.64955
#
# Compressibility (1/GPa) = 0.01292278
#
# Stress axis : x y z
#
# Youngs Moduli (GPa) = -11.03872 -11.03872 88.26482
#
# Poissons Ratio (x) = 1.05334 0.17809
# Poissons Ratio (y) = 1.05334 0.17809
# Poissons Ratio (z) = -0.02227 -0.02227
#
# Static dielectric constant tensor:
#      x y z
#    x 1.709940 0.000000 0.000000 
#    y 0.000000 1.709940 0.000000 
#    z 0.000000 0.000000 1.774630 
# 
# From -- ./inp_files/4629.got.cif
#   From: 2010.05.17/outbox.cif.g08.bks.cpg/sg98_3_cif.got.tgz:4629.got - 2010.06.03 20:00:51.
