data_PCOD9551081
_publ_section_title
;
Structure prediction by ZEFSAII (Michael W. Deem and Ramdas Pophale) SiO2 
 PCOD9551081
Probable space group: P 43 21 2
;
_chemical_formula_sum "Si O2"
_cell_formula_units_Z 28
_cell_length_a 11.744402
_cell_length_b 11.744402
_cell_length_c 8.705625
_cell_angle_alpha 90.000000
_cell_angle_beta 90.000000
_cell_angle_gamma 90.000000
_cell_volume 1200.775373
_symmetry_space_group_name_H-M "P 43 21 2"
_symmetry_group_IT_number 96
_symmetry_cell_setting 'tetragonal'
loop_
_space_group_symop_operation_xyz
x,y,z
1/2-y,1/2+x,3/4+z
-x,-y,1/2+z
1/2+y,1/2-x,1/4+z
1/2+x,1/2-y,1/4-z
1/2-x,1/2+y,3/4-z
y,x,-z
-y,-x,1/2-z
loop_
_atom_site_type_symbol
_atom_site_label
_atom_site_fract_x
_atom_site_fract_y
_atom_site_fract_z
Si Si1 0.901142 0.838552 0.836844
Si Si2 0.896613 0.278390 0.187179
Si Si3 0.284107 0.284107 0.500000
Si Si4 0.764034 0.983244 0.623705
O O1 0.782656 0.771240 0.858176
O O2 0.002485 0.749744 0.808653
O O3 0.872893 0.915287 0.688988
O O4 0.906834 0.906834 0.000000
O O5 0.789212 0.210789 0.250000
O O6 0.847034 0.403696 0.151843
O O7 0.948120 0.223453 0.033595
O O8 0.415727 0.252748 0.496748
#
# Coordination Sequence:
#
# PCOD9551081 Si02
#       4
#     8   8   4   8
#     4  10  25  48  73 114 155 207 259 329 406 477
#     4  12  27  46  76 115 154 206 270 329 395 488
#     4  10  26  50  74 116 158 202 264 330 402 480
#     4  12  26  49  78 113 159 208 267 331 402 480
#
# _framework density 23.318265
#
# number of rings (size 3 to 8) (size 9 to 14) (size 15 to 20)
#    0.857    0.000    2.857    2.571    6.000    2.286 
#    0.000    0.000    0.000    0.000    0.000    0.000 
#    0.000    0.000    0.000    0.000    0.000    0.000 
#
# Total GULP energy -156091.817833 kJ/mol
# GULP energy per Si atom -5574.707780 kJ/mol
# Density = 2.326519 g / cm^3
# Si number density = 23.318265 Si / 1000 Ang^3
#
#
#
# Elastic Constant Matrix: (Units=GPa)
#
#
# Indices 1 2 3 4 5 6 
#
# 1 61.1830 68.7902 19.3217 0.0000 0.0000 0.0000
# 2 68.7902 61.1812 19.3241 0.0000 0.0000 0.0000
# 3 19.3217 19.3241 106.3316 0.0000 0.0000 0.0000
# 4 0.0000 0.0000 0.0000 25.4085 0.0000 0.0000
# 5 0.0000 0.0000 0.0000 0.0000 25.4113 0.0000
# 6 0.0000 0.0000 0.0000 0.0000 0.0000 25.1552
#
#
#
# Elastic Compliance Matrix: (Units=1/GPa)
#
#
# Indices 1 2 3 4 5 6 
#
# 1 -0.061651 0.069786 -0.001480 0.000000 0.000000 0.000000
# 2 0.069786 -0.061654 -0.001476 0.000000 0.000000 0.000000
# 3 -0.001480 -0.001476 0.009942 0.000000 0.000000 0.000000
# 4 0.000000 0.000000 0.000000 0.039357 0.000000 0.000000
# 5 0.000000 0.000000 0.000000 0.000000 0.039353 0.000000
# 6 0.000000 0.000000 0.000000 0.000000 0.000000 0.039753
#
#
# Mechanical properties :
#
#
# Convention : Reuss Voigt Hill
#
# Bulk Modulus (GPa) = 49.26968 49.28529 49.27748
# Shear Modulus (GPa) = -41.05224 23.27900 -8.88662
#
# Velocity S-wave (km/s) = -4.20041 3.16304 -1.95430
# Velocity P-wave (km/s) = 1.53279 5.87551 4.01074
#
# Compressibility (1/GPa) = 0.02029646
#
# Stress axis : x y z
#
# Youngs Moduli (GPa) = -16.22023 -16.21950 100.58622
#
# Poissons Ratio (x) = 1.13190 0.14884
# Poissons Ratio (y) = 1.13195 0.14849
# Poissons Ratio (z) = -0.02400 -0.02394
#
# Static dielectric constant tensor:
#      x y z
#    x 1.900700 0.000000 0.000000 
#    y 0.000000 1.900700 0.000000 
#    z 0.000000 0.000000 1.971810 
# 
# From -- ./inp_files/1859.got.cif
#   From: 2010.05.17/outbox.cif.g08.bks.cpg/sg96_1_cif.got.tgz:1859.got - 2010.06.03 19:52:08.
