data_PCOD9551351
_publ_section_title
;
Structure prediction by ZEFSAII (Michael W. Deem and Ramdas Pophale) SiO2 
 PCOD9551351
Probable space group: I 4 2 2 
;
_chemical_formula_sum "Si O2"
_cell_formula_units_Z 116
_cell_length_a 18.124586
_cell_length_b 18.124586
_cell_length_c 16.668432
_cell_angle_alpha 90.000000
_cell_angle_beta 90.000000
_cell_angle_gamma 90.000000
_cell_volume 5475.590208
_symmetry_space_group_name_H-M "I 4 2 2 "
_symmetry_group_IT_number 97
_symmetry_cell_setting 'tetragonal'
loop_
_space_group_symop_operation_xyz
x,y,z
-y,x,z
-x,-y,z
y,-x,z
x,-y,-z
-x,y,-z
y,x,-z
-y,-x,-z
1/2+x,1/2+y,1/2+z
1/2-y,1/2+x,1/2+z
1/2-x,1/2-y,1/2+z
1/2+y,1/2-x,1/2+z
1/2+x,1/2-y,1/2-z
1/2-x,1/2+y,1/2-z
1/2+y,1/2+x,1/2-z
1/2-y,1/2-x,1/2-z
loop_
_atom_site_type_symbol
_atom_site_label
_atom_site_fract_x
_atom_site_fract_y
_atom_site_fract_z
Si Si1 0.153468 0.085859 0.733818
Si Si2 0.170298 0.243085 0.818861
Si Si3 0.514929 0.152681 0.881560
Si Si4 0.565381 0.875719 0.564250
Si Si5 0.164086 0.305302 0.536704
Si Si6 0.802470 0.062571 0.444171
Si Si7 0.500000 0.500000 0.256644
Si Si8 0.007867 0.293889 0.790282
O O1 0.168448 0.160615 0.783682
O O2 0.157060 0.092222 0.635722
O O3 0.219802 0.032215 0.759980
O O4 0.074090 0.053243 0.754562
O O5 0.210529 0.289472 0.750000
O O6 0.205948 0.266718 0.904383
O O7 0.086179 0.269403 0.824461
O O8 0.458682 0.092879 0.916520
O O9 0.597989 0.155190 0.912729
O O10 0.479979 0.230318 0.910499
O O11 0.516825 0.153684 0.786417
O O12 0.500000 0.876009 0.500000
O O13 0.634658 0.827211 0.533032
O O14 0.537682 0.837330 0.644234
O O15 0.125842 0.232970 0.499682
O O16 0.842021 0.000000 0.500000
#
# Coordination Sequence:
#
# PCOD9551351 Si02
#       8
#    16  16  16  16  16  16   4  16
#     4  11  25  45  75 103 140 183 251 304 371 441
#     4  12  24  42  69 101 136 184 238 288 365 439
#     4   9  19  36  63  91 135 185 224 269 344 427
#     4  11  21  34  60  96 135 176 235 283 341 421
#     4  10  20  39  64  96 141 185 223 288 360 426
#     4   8  18  39  69  99 138 180 221 294 363 428
#     4  12  24  48  77 104 133 196 244 314 368 432
#     4  11  22  43  65  94 137 182 227 296 349 430
#
# _framework density 21.184932
#
# number of rings (size 3 to 8) (size 9 to 14) (size 15 to 20)
#    0.000    1.655    4.138    1.655    0.000    4.414 
#    0.000    5.172    0.000    0.000    0.000    0.966 
#    0.000    0.000    0.000    0.000    0.000    0.000 
#
# Total GULP energy -323566.993349 kJ/mol
# GULP energy per Si atom -5578.741265 kJ/mol
# Density = 2.113671 g / cm^3
# Si number density = 21.184932 Si / 1000 Ang^3
#
#
#
# Elastic Constant Matrix: (Units=GPa)
#
#
# Indices 1 2 3 4 5 6 
#
# 1 77.9412 33.9302 16.0204 0.0000 0.0000 0.0000
# 2 33.9302 77.9363 16.0194 0.0000 0.0000 0.0000
# 3 16.0204 16.0194 88.9436 0.0000 0.0000 0.0000
# 4 0.0000 0.0000 0.0000 26.8012 0.0000 0.0000
# 5 0.0000 0.0000 0.0000 0.0000 26.8011 0.0000
# 6 0.0000 0.0000 0.0000 0.0000 0.0000 37.9404
#
#
#
# Elastic Compliance Matrix: (Units=1/GPa)
#
#
# Indices 1 2 3 4 5 6 
#
# 1 0.016074 -0.006649 -0.001698 0.000000 0.000000 0.000000
# 2 -0.006649 0.016075 -0.001698 0.000000 0.000000 0.000000
# 3 -0.001698 -0.001698 0.011855 0.000000 0.000000 0.000000
# 4 0.000000 0.000000 0.000000 0.037312 0.000000 0.000000
# 5 0.000000 0.000000 0.000000 0.000000 0.037312 0.000000
# 6 0.000000 0.000000 0.000000 0.000000 0.000000 0.026357
#
#
# Mechanical properties :
#
#
# Convention : Reuss Voigt Hill
#
# Bulk Modulus (GPa) = 41.81538 41.86233 41.83885
# Shear Modulus (GPa) = 28.89453 30.23195 29.56324
#
# Velocity S-wave (km/s) = 3.69713 3.78173 3.73967
# Velocity P-wave (km/s) = 6.16492 6.23474 6.19993
#
# Compressibility (1/GPa) = 0.02391465
#
# Stress axis : x y z
#
# Youngs Moduli (GPa) = 62.21390 62.21016 84.35546
#
# Poissons Ratio (x) = 0.41362 0.14321
# Poissons Ratio (y) = 0.41365 0.14320
# Poissons Ratio (z) = 0.10562 0.10561
#
# Static dielectric constant tensor:
#      x y z
#    x 1.779880 0.000000 0.000000 
#    y 0.000000 1.779880 0.000000 
#    z 0.000000 0.000000 1.957800 
# 
# From -- ./inp_files/5925.got.cif
#   From: 2010.05.17/outbox.cif.g08.bks.cpg/sg97_3_cif.got.tgz:5925.got - 2010.06.03 19:55:32.
