data_PCOD9551889
_publ_section_title
;
Structure prediction by ZEFSAII (Michael W. Deem and Ramdas Pophale) SiO2 
 PCOD9551889
Probable space group: I 41 2 2
;
_chemical_formula_sum "Si O2"
_cell_formula_units_Z 72
_cell_length_a 23.296257
_cell_length_b 23.296257
_cell_length_c 6.211509
_cell_angle_alpha 90.000000
_cell_angle_beta 90.000000
_cell_angle_gamma 90.000000
_cell_volume 3371.082773
_symmetry_space_group_name_H-M "I 41 2 2"
_symmetry_group_IT_number 98
_symmetry_cell_setting 'tetragonal'
loop_
_space_group_symop_operation_xyz
x,y,z
-y,1/2+x,1/4+z
-x,-y,z
y,1/2-x,1/4+z
x,1/2-y,1/4-z
-x,1/2+y,1/4-z
y,x,-z
-y,-x,-z
1/2+x,1/2+y,1/2+z
1/2-y,x,3/4+z
1/2-x,1/2-y,1/2+z
1/2+y,-x,3/4+z
1/2+x,-y,3/4-z
1/2-x,y,3/4-z
1/2+y,1/2+x,1/2-z
1/2-y,1/2-x,1/2-z
loop_
_atom_site_type_symbol
_atom_site_label
_atom_site_fract_x
_atom_site_fract_y
_atom_site_fract_z
Si Si1 0.148102 0.069794 0.120327
Si Si2 0.896608 0.032964 0.826949
Si Si3 0.055719 0.055719 0.500000
Si Si4 0.466197 0.250000 0.125000
Si Si5 0.564598 0.284117 0.833298
Si Si6 0.836567 0.250000 0.625000
O O1 0.106431 0.060176 0.324544
O O2 0.211953 0.069331 0.210773
O O3 0.126430 0.126430 0.000000
O O4 0.137207 0.016977 0.956779
O O5 0.849785 0.077532 0.731326
O O6 0.932926 0.000829 0.643730
O O7 0.936748 0.063253 0.000000
O O8 0.511136 0.210723 0.255818
O O9 0.545443 0.250000 0.625000
O O10 0.615775 0.245481 0.933198
O O11 0.794696 0.294696 0.750000
#
# Coordination Sequence:
#
# PCOD9551889 Si02
#       6
#    16  16   8   8  16   8
#     4  10  22  38  62  98 133 182 227 261 334 402
#     4  11  24  39  67  95 137 182 225 273 339 416
#     4  10  22  43  60  94 144 182 214 266 332 414
#     4  11  20  42  66  96 138 178 218 285 324 398
#     4  11  24  42  69  99 126 172 232 288 340 413
#     4  11  30  48  70  90 122 174 234 303 364 406
#
# _framework density 21.358122999999999
#
# number of rings (size 3 to 8) (size 9 to 14) (size 15 to 20)
#    0.000    1.333    4.444    0.000    4.667    5.778 
#    0.000    0.000    0.000    0.000    0.000    0.000 
#    3.333    0.444    0.000    0.000    0.000    0.000 
#
# Total GULP energy -200717.095512 kJ/mol
# GULP energy per Si atom -5575.474875 kJ/mol
# Density = 2.130951 g / cm^3
# Si number density = 21.358123 Si / 1000 Ang^3
#
#
#
# Elastic Constant Matrix: (Units=GPa)
#
#
# Indices 1 2 3 4 5 6 
#
# 1 85.4827 44.8437 42.6521 0.0000 0.0000 0.0000
# 2 44.8437 85.4843 42.6525 0.0000 0.0000 0.0000
# 3 42.6521 42.6525 114.7041 0.0000 0.0000 0.0000
# 4 0.0000 0.0000 0.0000 35.0650 0.0000 0.0000
# 5 0.0000 0.0000 0.0000 0.0000 35.0645 0.0000
# 6 0.0000 0.0000 0.0000 0.0000 0.0000 15.5237
#
#
#
# Elastic Compliance Matrix: (Units=1/GPa)
#
#
# Indices 1 2 3 4 5 6 
#
# 1 0.017374 -0.007233 -0.003771 0.000000 0.000000 0.000000
# 2 -0.007233 0.017374 -0.003771 0.000000 0.000000 0.000000
# 3 -0.003771 -0.003771 0.011523 0.000000 0.000000 0.000000
# 4 0.000000 0.000000 0.000000 0.028518 0.000000 0.000000
# 5 0.000000 0.000000 0.000000 0.000000 0.028519 0.000000
# 6 0.000000 0.000000 0.000000 0.000000 0.000000 0.064418
#
#
# Mechanical properties :
#
#
# Convention : Reuss Voigt Hill
#
# Bulk Modulus (GPa) = 59.80466 60.66309 60.23387
# Shear Modulus (GPa) = 24.64900 27.49883 26.07392
#
# Velocity S-wave (km/s) = 3.40086 3.59208 3.49778
# Velocity P-wave (km/s) = 6.59415 6.75785 6.67650
#
# Compressibility (1/GPa) = 0.01672110
#
# Stress axis : x y z
#
# Youngs Moduli (GPa) = 57.55718 57.55837 86.78638
#
# Poissons Ratio (x) = 0.41630 0.32727
# Poissons Ratio (y) = 0.41629 0.32727
# Poissons Ratio (z) = 0.21705 0.21705
#
# Static dielectric constant tensor:
#      x y z
#    x 1.806140 0.000000 0.000000 
#    y 0.000000 1.806140 0.000000 
#    z 0.000000 0.000000 1.797790 
# 
# From -- ./inp_files/1704.got.cif
#   From: 2010.05.17/outbox.cif.g08.bks.cpg/sg98_1_cif.got.tgz:1704.got - 2010.06.03 20:00:51.
