data_PCOD9551990
_publ_section_title
;
Structure prediction by ZEFSAII (Michael W. Deem and Ramdas Pophale) SiO2 
 PCOD9551990
Probable space group: I 41 2 2
;
_chemical_formula_sum "Si O2"
_cell_formula_units_Z 56
_cell_length_a 14.511884
_cell_length_b 14.511884
_cell_length_c 11.836065
_cell_angle_alpha 90.000000
_cell_angle_beta 90.000000
_cell_angle_gamma 90.000000
_cell_volume 2492.613472
_symmetry_space_group_name_H-M "I 41 2 2"
_symmetry_group_IT_number 98
_symmetry_cell_setting 'tetragonal'
loop_
_space_group_symop_operation_xyz
x,y,z
-y,1/2+x,1/4+z
-x,-y,z
y,1/2-x,1/4+z
x,1/2-y,1/4-z
-x,1/2+y,1/4-z
y,x,-z
-y,-x,-z
1/2+x,1/2+y,1/2+z
1/2-y,x,3/4+z
1/2-x,1/2-y,1/2+z
1/2+y,-x,3/4+z
1/2+x,-y,3/4-z
1/2-x,y,3/4-z
1/2+y,1/2+x,1/2-z
1/2-y,1/2-x,1/2-z
loop_
_atom_site_type_symbol
_atom_site_label
_atom_site_fract_x
_atom_site_fract_y
_atom_site_fract_z
Si Si1 0.772334 0.927121 0.005191
Si Si2 0.867226 0.132774 0.500000
Si Si3 0.472786 0.598259 0.786507
Si Si4 0.884367 0.177955 0.886617
O O1 0.669650 0.943636 0.060645
O O2 0.827281 0.010665 0.065416
O O3 0.833549 0.833549 0.000000
O O4 0.750000 0.941870 0.875000
O O5 0.907112 0.076842 0.393745
O O6 0.877594 0.234201 0.446339
O O7 0.500000 0.500000 0.740594
O O8 0.407299 0.640802 0.691655
O O9 0.822823 0.177178 0.000000
#
# Coordination Sequence:
#
# PCOD9551990 Si02
#       4
#    16   8  16  16
#     4  11  23  43  68 107 139 181 238 297 361 433
#     4  10  25  44  64 104 143 178 242 292 370 436
#     4  11  23  45  71 100 142 193 236 292 370 438
#     4  11  23  43  70 103 138 182 238 306 364 429
#
# _framework density 22.466377999999999
#
# number of rings (size 3 to 8) (size 9 to 14) (size 15 to 20)
#    0.000    1.143    2.857    3.000    0.000    0.000 
#   33.429    8.571    0.000    0.000    0.000    0.000 
#    0.000    0.000    0.000    0.000    0.000    0.000 
#
# Total GULP energy -155878.638152 kJ/mol
# GULP energy per Si atom -5567.094220 kJ/mol
# Density = 2.241524 g / cm^3
# Si number density = 22.466378 Si / 1000 Ang^3
#
#
#
# Elastic Constant Matrix: (Units=GPa)
#
#
# Indices 1 2 3 4 5 6 
#
# 1 -70.5969 207.7597 20.4234 0.0000 0.0000 0.0000
# 2 207.7597 -70.6208 20.5079 0.0000 0.0000 0.0000
# 3 20.4234 20.5079 139.1377 0.0000 0.0000 0.0000
# 4 0.0000 0.0000 0.0000 22.6934 0.0000 0.0000
# 5 0.0000 0.0000 0.0000 0.0000 22.6938 0.0000
# 6 0.0000 0.0000 0.0000 0.0000 0.0000 37.4860
#
#
#
# Elastic Compliance Matrix: (Units=1/GPa)
#
#
# Indices 1 2 3 4 5 6 
#
# 1 0.002017 0.005609 -0.001123 0.000000 0.000000 0.000000
# 2 0.005609 0.002016 -0.001121 0.000000 0.000000 0.000000
# 3 -0.001123 -0.001121 0.007517 0.000000 0.000000 0.000000
# 4 0.000000 0.000000 0.000000 0.044066 0.000000 0.000000
# 5 0.000000 0.000000 0.000000 0.000000 0.044065 0.000000
# 6 0.000000 0.000000 0.000000 0.000000 0.000000 0.026677
#
#
# Mechanical properties :
#
#
# Convention : Reuss Voigt Hill
#
# Bulk Modulus (GPa) = 54.69770 55.03355 54.86563
# Shear Modulus (GPa) = 39.77077 -0.14342 19.81367
#
# Velocity S-wave (km/s) = 4.21198 -0.25293 2.97295
# Velocity P-wave (km/s) = 6.93208 4.94609 6.02153
#
# Compressibility (1/GPa) = 0.01828230
#
# Stress axis : x y z
#
# Youngs Moduli (GPa) = 495.66577 495.99401 133.02998
#
# Poissons Ratio (x) = -2.78212 0.14938
# Poissons Ratio (y) = -2.78028 0.14906
# Poissons Ratio (z) = 0.55658 0.55577
#
# Static dielectric constant tensor:
#      x y z
#    x 1.981040 0.000000 0.000000 
#    y 0.000000 1.981040 0.000000 
#    z 0.000000 0.000000 2.011520 
# 
# From -- ./inp_files/4661.got.cif
#   From: 2010.05.17/outbox.cif.g08.bks.cpg/sg98_3_cif.got.tgz:4661.got - 2010.06.03 20:00:51.
