data_PCOD9551220
_publ_section_title
;
Structure prediction by ZEFSAII (Michael W. Deem and Ramdas Pophale) SiO2 
 PCOD9551220
Probable space group: I 4 2 2 
;
_chemical_formula_sum "Si O2"
_cell_formula_units_Z 84
_cell_length_a 24.666476
_cell_length_b 24.666476
_cell_length_c 8.889058
_cell_angle_alpha 90.000000
_cell_angle_beta 90.000000
_cell_angle_gamma 90.000000
_cell_volume 5408.414344
_symmetry_space_group_name_H-M "I 4 2 2 "
_symmetry_group_IT_number 97
_symmetry_cell_setting 'tetragonal'
loop_
_space_group_symop_operation_xyz
x,y,z
-y,x,z
-x,-y,z
y,-x,z
x,-y,-z
-x,y,-z
y,x,-z
-y,-x,-z
1/2+x,1/2+y,1/2+z
1/2-y,1/2+x,1/2+z
1/2-x,1/2-y,1/2+z
1/2+y,1/2-x,1/2+z
1/2+x,1/2-y,1/2-z
1/2-x,1/2+y,1/2-z
1/2+y,1/2+x,1/2-z
1/2-y,1/2-x,1/2-z
loop_
_atom_site_type_symbol
_atom_site_label
_atom_site_fract_x
_atom_site_fract_y
_atom_site_fract_z
Si Si1 0.908280 0.417671 0.081270
Si Si2 0.760306 0.839256 0.416613
Si Si3 0.247589 0.833675 0.930424
Si Si4 0.500000 0.000000 0.000000
Si Si5 0.322750 0.898854 0.146260
Si Si6 0.944868 0.292282 0.555259
O O1 0.897981 0.397981 0.250000
O O2 0.957737 0.460049 0.082464
O O3 0.920499 0.369341 0.964668
O O4 0.851625 0.441425 0.022090
O O5 0.811085 0.811085 0.500000
O O6 0.766041 0.851747 0.239160
O O7 0.712264 0.794618 0.422794
O O8 0.740630 0.892180 0.504308
O O9 0.195356 0.804645 0.000000
O O10 0.274217 0.876766 0.043555
O O11 0.351174 0.851174 0.250000
O O12 0.302584 0.942100 0.266985
O O13 0.000000 0.265750 0.500000
#
# Coordination Sequence:
#
# PCOD9551220 Si02
#       6
#    16  16  16   4  16  16
#     4  11  23  36  49  64  89 124 174 225 262 297
#     4  10  19  32  52  75 100 127 159 203 258 314
#     4  10  18  29  52  77  98 124 160 203 256 312
#     4  12  26  36  52  62  86 128 190 228 272 288
#     4  10  20  34  47  67  94 124 159 207 254 299
#     4  11  22  36  51  70  99 130 166 209 261 302
#
# _framework density 15.531355
#
# number of rings (size 3 to 8) (size 9 to 14) (size 15 to 20)
#    0.000    1.524    4.762    2.571    5.333    1.524 
#    0.000    0.000    0.000    0.000    0.000    0.000 
#    0.000    0.381    0.000    0.000    0.000    4.000 
#
# Total GULP energy -234226.992558 kJ/mol
# GULP energy per Si atom -5576.833156 kJ/mol
# Density = 1.549600 g / cm^3
# Si number density = 15.531355 Si / 1000 Ang^3
#
#
#
# Elastic Constant Matrix: (Units=GPa)
#
#
# Indices 1 2 3 4 5 6 
#
# 1 52.7145 43.0256 35.8357 0.0000 0.0000 0.0000
# 2 43.0256 52.7135 35.8356 0.0000 0.0000 0.0000
# 3 35.8357 35.8356 139.8085 0.0000 0.0000 0.0000
# 4 0.0000 0.0000 0.0000 -10.3659 0.0000 0.0000
# 5 0.0000 0.0000 0.0000 0.0000 -10.3675 0.0000
# 6 0.0000 0.0000 0.0000 0.0000 0.0000 22.5208
#
#
#
# Elastic Compliance Matrix: (Units=1/GPa)
#
#
# Indices 1 2 3 4 5 6 
#
# 1 0.058070 -0.045146 -0.003313 0.000000 0.000000 0.000000
# 2 -0.045146 0.058072 -0.003313 0.000000 0.000000 0.000000
# 3 -0.003313 -0.003313 0.008851 0.000000 0.000000 0.000000
# 4 0.000000 0.000000 0.000000 -0.096471 0.000000 0.000000
# 5 0.000000 0.000000 0.000000 0.000000 -0.096455 0.000000
# 6 0.000000 0.000000 0.000000 0.000000 0.000000 0.044403
#
#
# Mechanical properties :
#
#
# Convention : Reuss Voigt Hill
#
# Bulk Modulus (GPa) = 46.62142 52.73670 49.67906
# Shear Modulus (GPa) = 57.36313 9.06012 33.21162
#
# Velocity S-wave (km/s) = 6.08391 2.41787 4.62926
# Velocity P-wave (km/s) = 8.91261 6.46711 7.78647
#
# Compressibility (1/GPa) = 0.02144937
#
# Stress axis : x y z
#
# Youngs Moduli (GPa) = 17.22047 17.22011 112.98163
#
# Poissons Ratio (x) = 0.77742 0.37429
# Poissons Ratio (y) = 0.77743 0.37432
# Poissons Ratio (z) = 0.05705 0.05705
#
# Static dielectric constant tensor:
#      x y z
#    x 1.520600 0.000000 0.000000 
#    y 0.000000 1.520600 0.000000 
#    z 0.000000 0.000000 1.553850 
# 
# From -- ./inp_files/2406.got.cif
#   From: 2010.05.17/outbox.cif.g08.bks.cpg/sg97_2_cif.got.tgz:2406.got - 2010.06.03 19:55:32.
