data_PCOD9551337
_publ_section_title
;
Structure prediction by ZEFSAII (Michael W. Deem and Ramdas Pophale) SiO2 
 PCOD9551337
Probable space group: I 4 2 2 
;
_chemical_formula_sum "Si O2"
_cell_formula_units_Z 80
_cell_length_a 15.996298
_cell_length_b 15.996298
_cell_length_c 15.251331
_cell_angle_alpha 90.000000
_cell_angle_beta 90.000000
_cell_angle_gamma 90.000000
_cell_volume 3902.534211
_symmetry_space_group_name_H-M "I 4 2 2 "
_symmetry_group_IT_number 97
_symmetry_cell_setting 'tetragonal'
loop_
_space_group_symop_operation_xyz
x,y,z
-y,x,z
-x,-y,z
y,-x,z
x,-y,-z
-x,y,-z
y,x,-z
-y,-x,-z
1/2+x,1/2+y,1/2+z
1/2-y,1/2+x,1/2+z
1/2-x,1/2-y,1/2+z
1/2+y,1/2-x,1/2+z
1/2+x,1/2-y,1/2-z
1/2-x,1/2+y,1/2-z
1/2+y,1/2+x,1/2-z
1/2-y,1/2-x,1/2-z
loop_
_atom_site_type_symbol
_atom_site_label
_atom_site_fract_x
_atom_site_fract_y
_atom_site_fract_z
Si Si1 0.662632 0.818742 0.149869
Si Si2 0.080479 0.824071 0.436275
Si Si3 0.399699 0.410737 0.248037
Si Si4 0.666334 0.767196 0.672836
Si Si5 0.262232 0.405013 0.502758
O O1 0.651557 0.848444 0.250000
O O2 0.585820 0.767234 0.108403
O O3 0.736248 0.748550 0.152449
O O4 0.702484 0.886940 0.085379
O O5 0.158412 0.841589 0.500000
O O6 0.091819 0.890046 0.356009
O O7 0.000000 0.834535 0.500000
O O8 0.493201 0.386417 0.275320
O O9 0.323076 0.363197 0.291153
O O10 0.665300 0.834701 0.750000
O O11 0.616505 0.787756 0.585996
O O12 0.291336 0.500000 0.500000
O O13 0.339780 0.339780 0.500000
#
# Coordination Sequence:
#
# PCOD9551337 Si02
#       5
#    16  16  16  16  16
#     4  10  21  40  59  83 118 161 209 264 300 362
#     4  12  22  34  58  86 122 160 208 250 308 366
#     4  11  23  35  54  90 135 170 199 247 312 377
#     4  10  20  37  61  83 122 168 215 252 295 368
#     4  10  23  39  61  91 125 161 203 254 313 375
#
# _framework density 20.499500000000001
#
# number of rings (size 3 to 8) (size 9 to 14) (size 15 to 20)
#    0.000    1.400    6.000    1.800    5.600    0.400 
#    0.000    0.000    0.000    0.600    0.000    1.400 
#    0.000    0.800    0.000    0.000    0.000    0.000 
#
# Total GULP energy -222926.599075 kJ/mol
# GULP energy per Si atom -5573.164977 kJ/mol
# Density = 2.045284 g / cm^3
# Si number density = 20.499500 Si / 1000 Ang^3
#
#
#
# Elastic Constant Matrix: (Units=GPa)
#
#
# Indices 1 2 3 4 5 6 
#
# 1 32.3397 32.8556 40.4725 0.0000 0.0000 0.0000
# 2 32.8556 32.3351 40.4720 0.0000 0.0000 0.0000
# 3 40.4725 40.4720 152.1591 0.0000 0.0000 0.0000
# 4 0.0000 0.0000 0.0000 25.6480 0.0000 0.0000
# 5 0.0000 0.0000 0.0000 0.0000 25.6483 0.0000
# 6 0.0000 0.0000 0.0000 0.0000 0.0000 13.3211
#
#
#
# Elastic Compliance Matrix: (Units=1/GPa)
#
#
# Indices 1 2 3 4 5 6 
#
# 1 -0.953258 0.976254 -0.006114 0.000000 0.000000 0.000000
# 2 0.976254 -0.953446 -0.006070 0.000000 0.000000 0.000000
# 3 -0.006114 -0.006070 0.009813 0.000000 0.000000 0.000000
# 4 0.000000 0.000000 0.000000 0.038989 0.000000 0.000000
# 5 0.000000 0.000000 0.000000 0.000000 0.038989 0.000000
# 6 0.000000 0.000000 0.000000 0.000000 0.000000 0.075069
#
#
# Mechanical properties :
#
#
# Convention : Reuss Voigt Hill
#
# Bulk Modulus (GPa) = 31.99903 49.38157 40.69030
# Shear Modulus (GPa) = -1.36553 19.79242 9.21344
#
# Velocity S-wave (km/s) = -0.81705 3.11063 2.12232
# Velocity P-wave (km/s) = 3.84102 6.08628 5.08902
#
# Compressibility (1/GPa) = 0.03125094
#
# Stress axis : x y z
#
# Youngs Moduli (GPa) = -1.04903 -1.04883 101.90829
#
# Poissons Ratio (x) = 1.02392 0.62303
# Poissons Ratio (y) = 1.02412 0.61858
# Poissons Ratio (z) = -0.00641 -0.00637
#
# Static dielectric constant tensor:
#      x y z
#    x 1.726140 0.000000 0.000000 
#    y 0.000000 1.726140 0.000000 
#    z 0.000000 0.000000 1.851390 
# 
# From -- ./inp_files/4751.got.cif
#   From: 2010.05.17/outbox.cif.g08.bks.cpg/sg97_3_cif.got.tgz:4751.got - 2010.06.03 19:55:32.
