data_PCOD9551339
_publ_section_title
;
Structure prediction by ZEFSAII (Michael W. Deem and Ramdas Pophale) SiO2 
 PCOD9551339
Probable space group: I 4 2 2 
;
_chemical_formula_sum "Si O2"
_cell_formula_units_Z 72
_cell_length_a 17.638451
_cell_length_b 17.638451
_cell_length_c 10.993490
_cell_angle_alpha 90.000000
_cell_angle_beta 90.000000
_cell_angle_gamma 90.000000
_cell_volume 3420.239132
_symmetry_space_group_name_H-M "I 4 2 2 "
_symmetry_group_IT_number 97
_symmetry_cell_setting 'tetragonal'
loop_
_space_group_symop_operation_xyz
x,y,z
-y,x,z
-x,-y,z
y,-x,z
x,-y,-z
-x,y,-z
y,x,-z
-y,-x,-z
1/2+x,1/2+y,1/2+z
1/2-y,1/2+x,1/2+z
1/2-x,1/2-y,1/2+z
1/2+y,1/2-x,1/2+z
1/2+x,1/2-y,1/2-z
1/2-x,1/2+y,1/2-z
1/2+y,1/2+x,1/2-z
1/2-y,1/2-x,1/2-z
loop_
_atom_site_type_symbol
_atom_site_label
_atom_site_fract_x
_atom_site_fract_y
_atom_site_fract_z
Si Si1 0.457444 0.294666 0.878663
Si Si2 0.218640 0.779424 0.631679
Si Si3 0.074363 0.694726 0.247285
Si Si4 0.752030 0.500000 0.500000
Si Si5 0.382693 0.460047 0.357807
O O1 0.369416 0.283206 0.900011
O O2 0.500559 0.220932 0.822853
O O3 0.461027 0.362218 0.782625
O O4 0.500000 0.315556 0.000000
O O5 0.249829 0.750172 0.500000
O O6 0.226749 0.726749 0.750000
O O7 0.253527 0.858421 0.688772
O O8 0.111168 0.611168 0.250000
O O9 0.049995 0.709164 0.106172
O O10 0.696110 0.555454 0.424318
O O11 0.453657 0.407601 0.384857
#
# Coordination Sequence:
#
# PCOD9551339 Si02
#       5
#    16  16  16   8  16
#     4  11  21  38  61  87 126 175 214 269 336 395
#     4  11  24  42  68 100 135 176 227 288 339 415
#     4  10  23  42  66  98 136 170 227 282 338 416
#     4  10  20  37  62  90 127 178 214 282 336 394
#     4  10  21  33  53  89 134 175 214 258 317 409
#
# _framework density 21.051161
#
# number of rings (size 3 to 8) (size 9 to 14) (size 15 to 20)
#    0.000    1.556    2.222    3.333    0.000    9.778 
#    0.000    1.111    0.000    0.667    0.000    1.556 
#    0.000    0.000    0.000    0.000    0.000    0.000 
#
# Total GULP energy -200468.954100 kJ/mol
# GULP energy per Si atom -5568.582058 kJ/mol
# Density = 2.100325 g / cm^3
# Si number density = 21.051161 Si / 1000 Ang^3
#
#
#
# Elastic Constant Matrix: (Units=GPa)
#
#
# Indices 1 2 3 4 5 6 
#
# 1 39.3877 20.6160 20.6194 0.0000 0.0000 0.0000
# 2 20.6160 39.3870 20.6191 0.0000 0.0000 0.0000
# 3 20.6194 20.6191 175.9441 0.0000 0.0000 0.0000
# 4 0.0000 0.0000 0.0000 36.9856 0.0000 0.0000
# 5 0.0000 0.0000 0.0000 0.0000 36.9853 0.0000
# 6 0.0000 0.0000 0.0000 0.0000 0.0000 22.6065
#
#
#
# Elastic Compliance Matrix: (Units=1/GPa)
#
#
# Indices 1 2 3 4 5 6 
#
# 1 0.035699 -0.017574 -0.002124 0.000000 0.000000 0.000000
# 2 -0.017574 0.035699 -0.002124 0.000000 0.000000 0.000000
# 3 -0.002124 -0.002124 0.006181 0.000000 0.000000 0.000000
# 4 0.000000 0.000000 0.000000 0.027038 0.000000 0.000000
# 5 0.000000 0.000000 0.000000 0.000000 0.027038 0.000000
# 6 0.000000 0.000000 0.000000 0.000000 0.000000 0.044235
#
#
# Mechanical properties :
#
#
# Convention : Reuss Voigt Hill
#
# Bulk Modulus (GPa) = 29.46721 42.04754 35.75738
# Shear Modulus (GPa) = 21.65946 32.17309 26.91628
#
# Velocity S-wave (km/s) = 3.21112 3.91363 3.57965
# Velocity P-wave (km/s) = 5.27036 6.35919 5.84020
#
# Compressibility (1/GPa) = 0.03393602
#
# Stress axis : x y z
#
# Youngs Moduli (GPa) = 28.01208 28.01164 161.77304
#
# Poissons Ratio (x) = 0.49226 0.34364
# Poissons Ratio (y) = 0.49227 0.34363
# Poissons Ratio (z) = 0.05950 0.05950
#
# Static dielectric constant tensor:
#      x y z
#    x 1.777020 0.000000 0.000000 
#    y 0.000000 1.777020 0.000000 
#    z 0.000000 0.000000 1.831900 
# 
# From -- ./inp_files/3627.got.cif
#   From: 2010.05.17/outbox.cif.g08.bks.cpg/sg97_2_cif.got.tgz:3627.got - 2010.06.03 19:55:32.
