data_PCOD9551909
_publ_section_title
;
Structure prediction by ZEFSAII (Michael W. Deem and Ramdas Pophale) SiO2 
 PCOD9551909
Probable space group: I 41 2 2
;
_chemical_formula_sum "Si O2"
_cell_formula_units_Z 48
_cell_length_a 11.329159
_cell_length_b 11.329159
_cell_length_c 15.197890
_cell_angle_alpha 90.000000
_cell_angle_beta 90.000000
_cell_angle_gamma 90.000000
_cell_volume 1950.646805
_symmetry_space_group_name_H-M "I 41 2 2"
_symmetry_group_IT_number 98
_symmetry_cell_setting 'tetragonal'
loop_
_space_group_symop_operation_xyz
x,y,z
-y,1/2+x,1/4+z
-x,-y,z
y,1/2-x,1/4+z
x,1/2-y,1/4-z
-x,1/2+y,1/4-z
y,x,-z
-y,-x,-z
1/2+x,1/2+y,1/2+z
1/2-y,x,3/4+z
1/2-x,1/2-y,1/2+z
1/2+y,-x,3/4+z
1/2+x,-y,3/4-z
1/2-x,y,3/4-z
1/2+y,1/2+x,1/2-z
1/2-y,1/2-x,1/2-z
loop_
_atom_site_type_symbol
_atom_site_label
_atom_site_fract_x
_atom_site_fract_y
_atom_site_fract_z
Si Si1 0.318866 0.837626 0.542796
Si Si2 0.060542 0.235728 0.019206
Si Si3 0.571487 0.744870 0.223627
O O1 0.322875 0.750000 0.625000
O O2 0.194807 0.805194 0.500000
O O3 0.433139 0.786220 0.491729
O O4 0.313982 0.978330 0.541460
O O5 0.070453 0.250000 0.125000
O O6 0.102157 0.102157 0.000000
O O7 0.154003 0.319361 0.970835
O O8 0.520055 0.750000 0.125000
O O9 0.630095 0.869906 0.250000
#
# Coordination Sequence:
#
# PCOD9551909 Si02
#       3
#    16  16  16
#     4  11  26  43  67 101 144 181 238 298 362 439
#     4  10  22  42  71 100 138 183 236 295 357 435
#     4  11  24  45  73 103 146 193 248 305 372 443
#
# _framework density 24.607220999999999
#
# number of rings (size 3 to 8) (size 9 to 14) (size 15 to 20)
#    0.000    1.333    0.000    6.000    9.333    1.333 
#    6.000    0.000    0.000    0.000    0.000    0.000 
#    0.000    0.000    0.000    0.000    0.000    0.000 
#
# Total GULP energy -133803.697402 kJ/mol
# GULP energy per Si atom -5575.154058 kJ/mol
# Density = 2.455121 g / cm^3
# Si number density = 24.607221 Si / 1000 Ang^3
#
#
#
# Elastic Constant Matrix: (Units=GPa)
#
#
# Indices 1 2 3 4 5 6 
#
# 1 113.2106 53.0035 12.0630 0.0000 0.0000 0.0000
# 2 53.0035 113.2042 12.0621 0.0000 0.0000 0.0000
# 3 12.0630 12.0621 82.2302 0.0000 0.0000 0.0000
# 4 0.0000 0.0000 0.0000 29.8588 0.0000 0.0000
# 5 0.0000 0.0000 0.0000 0.0000 29.8596 0.0000
# 6 0.0000 0.0000 0.0000 0.0000 0.0000 36.7791
#
#
#
# Elastic Compliance Matrix: (Units=1/GPa)
#
#
# Indices 1 2 3 4 5 6 
#
# 1 0.011378 -0.005231 -0.000902 0.000000 0.000000 0.000000
# 2 -0.005231 0.011379 -0.000902 0.000000 0.000000 0.000000
# 3 -0.000902 -0.000902 0.012426 0.000000 0.000000 0.000000
# 4 0.000000 0.000000 0.000000 0.033491 0.000000 0.000000
# 5 0.000000 0.000000 0.000000 0.000000 0.033490 0.000000
# 6 0.000000 0.000000 0.000000 0.000000 0.000000 0.027189
#
#
# Mechanical properties :
#
#
# Convention : Reuss Voigt Hill
#
# Bulk Modulus (GPa) = 47.36383 51.43358 49.39870
# Shear Modulus (GPa) = 33.23114 34.73390 33.98252
#
# Velocity S-wave (km/s) = 3.67885 3.76111 3.72021
# Velocity P-wave (km/s) = 6.11024 6.30940 6.21062
#
# Compressibility (1/GPa) = 0.02111316
#
# Stress axis : x y z
#
# Youngs Moduli (GPa) = 87.88532 87.88049 80.47930
#
# Poissons Ratio (x) = 0.45974 0.07258
# Poissons Ratio (y) = 0.45977 0.07257
# Poissons Ratio (z) = 0.07926 0.07924
#
# Static dielectric constant tensor:
#      x y z
#    x 1.953600 0.000000 0.000000 
#    y 0.000000 1.953610 0.000000 
#    z 0.000000 0.000000 2.093840 
# 
# From -- ./inp_files/7178.got.cif
#   From: 2010.05.17/outbox.cif.g08.bks.cpg/sg98_4_cif.got.tgz:7178.got - 2010.06.03 20:00:51.
