data_PCOD9551789
_publ_section_title
;
Structure prediction by ZEFSAII (Michael W. Deem and Ramdas Pophale) SiO2 
 PCOD9551789
Probable space group: I 41 2 2
;
_chemical_formula_sum "Si O2"
_cell_formula_units_Z 120
_cell_length_a 13.871505
_cell_length_b 13.871505
_cell_length_c 32.008963
_cell_angle_alpha 90.000000
_cell_angle_beta 90.000000
_cell_angle_gamma 90.000000
_cell_volume 6159.121479
_symmetry_space_group_name_H-M "I 41 2 2"
_symmetry_group_IT_number 98
_symmetry_cell_setting 'tetragonal'
loop_
_space_group_symop_operation_xyz
x,y,z
-y,1/2+x,1/4+z
-x,-y,z
y,1/2-x,1/4+z
x,1/2-y,1/4-z
-x,1/2+y,1/4-z
y,x,-z
-y,-x,-z
1/2+x,1/2+y,1/2+z
1/2-y,x,3/4+z
1/2-x,1/2-y,1/2+z
1/2+y,-x,3/4+z
1/2+x,-y,3/4-z
1/2-x,y,3/4-z
1/2+y,1/2+x,1/2-z
1/2-y,1/2-x,1/2-z
loop_
_atom_site_type_symbol
_atom_site_label
_atom_site_fract_x
_atom_site_fract_y
_atom_site_fract_z
Si Si1 0.670817 0.329184 0.500000
Si Si2 0.168804 0.359061 0.568707
Si Si3 0.203628 0.332471 0.418573
Si Si4 0.715904 0.027007 0.419191
Si Si5 0.074612 0.582287 0.799829
Si Si6 0.333697 0.760791 0.409284
Si Si7 0.947165 0.712818 0.244634
Si Si8 0.014594 0.259220 0.857931
O O1 0.692474 0.274640 0.455986
O O2 0.690133 0.441256 0.491493
O O3 0.231986 0.260501 0.571242
O O4 0.221162 0.424278 0.534507
O O5 0.176338 0.415920 0.612390
O O6 0.059285 0.335678 0.557284
O O7 0.250000 0.365798 0.375000
O O8 0.231368 0.405669 0.454724
O O9 0.090455 0.314731 0.412238
O O10 0.750000 0.983817 0.375000
O O11 0.815717 0.062150 0.438277
O O12 0.653380 0.122728 0.411723
O O13 0.077381 0.577381 0.750000
O O14 0.000000 0.500000 0.814540
O O15 0.037560 0.679383 0.821880
O O16 0.250000 0.743783 0.375000
O O17 0.431836 0.719099 0.389007
O O18 0.884207 0.615794 0.250000
#
# Coordination Sequence:
#
# PCOD9551789 Si02
#       8
#     8  16  16  16  16  16  16  16
#     4  12  25  48  70  94 125 176 222 276 326 408
#     4  10  20  37  63  97 126 169 212 270 327 387
#     4   9  20  37  66  98 133 161 206 277 344 386
#     4  11  21  38  57  89 129 175 218 263 315 382
#     4  11  23  34  54  89 127 173 219 263 319 389
#     4  11  25  43  66  90 129 185 226 268 329 392
#     4  10  22  42  70 100 125 160 214 274 339 401
#     4  11  20  40  63  90 129 176 211 267 325 394
#
# _framework density 19.483297
#
# number of rings (size 3 to 8) (size 9 to 14) (size 15 to 20)
#    0.000    1.467    4.000    3.000    2.800    0.533 
#    0.000    0.000    0.000    0.000    0.000    0.000 
#    0.000    0.000    0.000    0.000    0.000    0.000 
#
# Total GULP energy -334845.182628 kJ/mol
# GULP energy per Si atom -5580.753044 kJ/mol
# Density = 1.943895 g / cm^3
# Si number density = 19.483297 Si / 1000 Ang^3
#
#
#
# Elastic Constant Matrix: (Units=GPa)
#
#
# Indices 1 2 3 4 5 6 
#
# 1 84.0913 34.0662 34.9594 0.0000 0.0000 0.0000
# 2 34.0662 84.0930 34.9597 0.0000 0.0000 0.0000
# 3 34.9594 34.9597 108.6721 0.0000 0.0000 0.0000
# 4 0.0000 0.0000 0.0000 27.7320 0.0000 0.0000
# 5 0.0000 0.0000 0.0000 0.0000 27.7316 0.0000
# 6 0.0000 0.0000 0.0000 0.0000 0.0000 15.4480
#
#
#
# Elastic Compliance Matrix: (Units=1/GPa)
#
#
# Indices 1 2 3 4 5 6 
#
# 1 0.015221 -0.004768 -0.003363 0.000000 0.000000 0.000000
# 2 -0.004768 0.015221 -0.003363 0.000000 0.000000 0.000000
# 3 -0.003363 -0.003363 0.011366 0.000000 0.000000 0.000000
# 4 0.000000 0.000000 0.000000 0.036059 0.000000 0.000000
# 5 0.000000 0.000000 0.000000 0.000000 0.036060 0.000000
# 6 0.000000 0.000000 0.000000 0.000000 0.000000 0.064733
#
#
# Mechanical properties :
#
#
# Convention : Reuss Voigt Hill
#
# Bulk Modulus (GPa) = 53.13270 53.86967 53.50118
# Shear Modulus (GPa) = 24.04747 25.70706 24.87726
#
# Velocity S-wave (km/s) = 3.51702 3.63635 3.57718
# Velocity P-wave (km/s) = 6.61987 6.73349 6.67692
#
# Compressibility (1/GPa) = 0.01882080
#
# Stress axis : x y z
#
# Youngs Moduli (GPa) = 65.69655 65.69790 87.98514
#
# Poissons Ratio (x) = 0.31326 0.29587
# Poissons Ratio (y) = 0.31326 0.29587
# Poissons Ratio (z) = 0.22092 0.22092
#
# Static dielectric constant tensor:
#      x y z
#    x 1.691810 0.000000 0.000000 
#    y 0.000000 1.691810 0.000000 
#    z 0.000000 0.000000 1.647650 
# 
# From -- ./inp_files/12154.got.cif
#   From: 2010.05.17/outbox.cif.g08.bks.cpg/sg98_7_cif.got.tgz:12154.got - 2010.06.03 20:00:51.
