data_PCOD9551777
_publ_section_title
;
Structure prediction by ZEFSAII (Michael W. Deem and Ramdas Pophale) SiO2 
 PCOD9551777
Probable space group: I 41 2 2
;
_chemical_formula_sum "Si O2"
_cell_formula_units_Z 72
_cell_length_a 10.397742
_cell_length_b 10.397742
_cell_length_c 31.510807
_cell_angle_alpha 90.000000
_cell_angle_beta 90.000000
_cell_angle_gamma 90.000000
_cell_volume 3406.729097
_symmetry_space_group_name_H-M "I 41 2 2"
_symmetry_group_IT_number 98
_symmetry_cell_setting 'tetragonal'
loop_
_space_group_symop_operation_xyz
x,y,z
-y,1/2+x,1/4+z
-x,-y,z
y,1/2-x,1/4+z
x,1/2-y,1/4-z
-x,1/2+y,1/4-z
y,x,-z
-y,-x,-z
1/2+x,1/2+y,1/2+z
1/2-y,x,3/4+z
1/2-x,1/2-y,1/2+z
1/2+y,-x,3/4+z
1/2+x,-y,3/4-z
1/2-x,y,3/4-z
1/2+y,1/2+x,1/2-z
1/2-y,1/2-x,1/2-z
loop_
_atom_site_type_symbol
_atom_site_label
_atom_site_fract_x
_atom_site_fract_y
_atom_site_fract_z
Si Si1 0.034263 0.151149 0.735277
Si Si2 0.306880 0.597435 0.330897
Si Si3 0.416843 0.373383 0.140457
Si Si4 0.745620 0.245620 0.250000
Si Si5 0.317426 0.396318 0.674942
O O1 0.898594 0.227417 0.732578
O O2 0.107772 0.145703 0.690537
O O3 0.109165 0.211503 0.774895
O O4 0.000000 0.000000 0.745102
O O5 0.250000 0.644599 0.375000
O O6 0.239387 0.657124 0.289471
O O7 0.307953 0.442558 0.330992
O O8 0.454868 0.640942 0.329949
O O9 0.500000 0.500000 0.135649
O O10 0.496302 0.250000 0.125000
O O11 0.294974 0.376559 0.109026
#
# Coordination Sequence:
#
# PCOD9551777 Si02
#       5
#    16  16  16   8  16
#     4  10  21  41  65 101 139 180 236 296 352 422
#     4  10  21  35  68  95 128 180 231 278 355 421
#     4  11  27  42  66  99 139 182 235 291 356 416
#     4  10  20  36  66 100 134 180 236 284 352 420
#     4  10  21  43  61  95 137 179 224 292 351 415
#
# _framework density 21.134640999999998
#
# number of rings (size 3 to 8) (size 9 to 14) (size 15 to 20)
#    0.000    1.778    4.444    0.667   12.444    0.889 
#    0.000    1.111    0.000    2.667    0.000    0.000 
#    0.000    0.000    0.000    0.000    0.000    0.000 
#
# Total GULP energy -200857.509851 kJ/mol
# GULP energy per Si atom -5579.375274 kJ/mol
# Density = 2.108654 g / cm^3
# Si number density = 21.134641 Si / 1000 Ang^3
#
#
#
# Elastic Constant Matrix: (Units=GPa)
#
#
# Indices 1 2 3 4 5 6 
#
# 1 95.1432 36.3265 74.4561 0.0000 0.0000 0.0000
# 2 36.3265 95.1432 74.4561 -0.0001 0.0000 0.0000
# 3 74.4561 74.4561 242.2181 0.0000 0.0000 0.0000
# 4 0.0000 -0.0001 0.0000 -186.7860 0.0001 0.0000
# 5 0.0000 0.0000 0.0000 0.0001 -186.7856 0.0000
# 6 0.0000 0.0000 0.0000 0.0000 0.0000 24.0141
#
#
#
# Elastic Compliance Matrix: (Units=1/GPa)
#
#
# Indices 1 2 3 4 5 6 
#
# 1 0.014336 -0.002666 -0.003587 0.000000 0.000000 0.000000
# 2 -0.002666 0.014336 -0.003587 0.000000 0.000000 0.000000
# 3 -0.003587 -0.003587 0.006334 0.000000 0.000000 0.000000
# 4 0.000000 0.000000 0.000000 -0.005354 0.000000 0.000000
# 5 0.000000 0.000000 0.000000 0.000000 -0.005354 0.000000
# 6 0.000000 0.000000 0.000000 0.000000 0.000000 0.041642
#
#
# Mechanical properties :
#
#
# Convention : Reuss Voigt Hill
#
# Bulk Modulus (GPa) = 65.25661 89.22019 77.23840
# Shear Modulus (GPa) = 55.10938 -53.42709 0.84115
#
# Velocity S-wave (km/s) = 5.11195 -5.03332 0.63155
# Velocity P-wave (km/s) = 8.11088 2.92023 6.09566
#
# Compressibility (1/GPa) = 0.01532412
#
# Stress axis : x y z
#
# Youngs Moduli (GPa) = 69.75632 69.75631 157.88372
#
# Poissons Ratio (x) = 0.18599 0.56634
# Poissons Ratio (y) = 0.18600 0.56634
# Poissons Ratio (z) = 0.25022 0.25022
#
# Static dielectric constant tensor:
#      x y z
#    x 1.832770 0.000000 0.000000 
#    y 0.000000 1.832770 0.000000 
#    z 0.000000 0.000000 1.817010 
# 
# From -- ./inp_files/11673.got.cif
#   From: 2010.05.17/outbox.cif.g08.bks.cpg/sg98_6_cif.got.tgz:11673.got - 2010.06.03 20:00:51.
