data_PCOD9551164
_publ_section_title
;
Structure prediction by ZEFSAII (Michael W. Deem and Ramdas Pophale) SiO2 
 PCOD9551164
Probable space group: P 43 21 2
;
_chemical_formula_sum "Si O2"
_cell_formula_units_Z 60
_cell_length_a 18.207775
_cell_length_b 18.207775
_cell_length_c 8.659923
_cell_angle_alpha 90.000000
_cell_angle_beta 90.000000
_cell_angle_gamma 90.000000
_cell_volume 2870.964263
_symmetry_space_group_name_H-M "P 43 21 2"
_symmetry_group_IT_number 96
_symmetry_cell_setting 'tetragonal'
loop_
_space_group_symop_operation_xyz
x,y,z
1/2-y,1/2+x,3/4+z
-x,-y,1/2+z
1/2+y,1/2-x,1/4+z
1/2+x,1/2-y,1/4-z
1/2-x,1/2+y,3/4-z
y,x,-z
-y,-x,1/2-z
loop_
_atom_site_type_symbol
_atom_site_label
_atom_site_fract_x
_atom_site_fract_y
_atom_site_fract_z
Si Si1 0.338422 0.113778 0.038604
Si Si2 0.646000 0.536811 0.464742
Si Si3 0.636127 0.209922 0.948785
Si Si4 0.691652 0.370395 0.028646
Si Si5 0.071375 0.071375 0.000000
Si Si6 0.977596 0.776522 0.000005
Si Si7 0.121331 0.761647 0.215171
Si Si8 0.548106 0.795631 0.726820
O O1 0.266950 0.143985 0.129604
O O2 0.408449 0.147045 0.121741
O O3 0.334497 0.132590 0.857960
O O4 0.329842 0.026375 0.042528
O O5 0.618908 0.618908 0.500000
O O6 0.584262 0.498736 0.357622
O O7 0.660148 0.496091 0.626283
O O8 0.722739 0.533214 0.374293
O O9 0.560338 0.211172 0.850752
O O10 0.704772 0.180379 0.852829
O O11 0.651594 0.294020 0.996511
O O12 0.640983 0.420967 0.136658
O O13 0.704499 0.414365 0.871989
O O14 0.052087 0.763748 0.097555
O O15 0.160456 0.839545 0.250000
O O16 0.095094 0.729998 0.377760
#
# Coordination Sequence:
#
# PCOD9551164 Si02
#       8
#     8   8   8   8   4   8   8   8
#     4  12  24  46  76 102 141 190 232 306 363 434
#     4  12  26  45  68 104 149 195 242 295 364 432
#     4  12  24  42  73 105 135 185 246 285 350 435
#     4  12  21  43  72 100 136 186 234 287 347 426
#     4  12  22  44  66 100 148 194 238 280 360 436
#     4  12  23  41  69 101 141 178 228 297 347 418
#     4  12  26  43  70 110 140 177 235 300 366 427
#     4  12  25  49  71 104 148 186 241 301 374 436
#
# _framework density 20.898903000000001
#
# number of rings (size 3 to 8) (size 9 to 14) (size 15 to 20)
#    0.000    0.000    6.667    4.400    0.000    2.133 
#    0.000    2.000    0.000    0.000    0.000    0.000 
#    0.000    0.000    0.000    0.000    0.000    0.000 
#
# Total GULP energy -335628.853245 kJ/mol
# GULP energy per Si atom -5593.814221 kJ/mol
# Density = 2.085134 g / cm^3
# Si number density = 20.898903 Si / 1000 Ang^3
#
#
#
# Elastic Constant Matrix: (Units=GPa)
#
#
# Indices 1 2 3 4 5 6 
#
# 1 58.5470 39.0067 27.4860 0.0000 0.0000 0.0000
# 2 39.0067 58.5444 27.4851 0.0000 0.0000 0.0000
# 3 27.4860 27.4851 135.8446 0.0000 0.0000 0.0000
# 4 0.0000 0.0000 0.0000 33.4995 0.0000 0.0000
# 5 0.0000 0.0000 0.0000 0.0000 33.5047 0.0000
# 6 0.0000 0.0000 0.0000 0.0000 0.0000 32.0290
#
#
#
# Elastic Compliance Matrix: (Units=1/GPa)
#
#
# Indices 1 2 3 4 5 6 
#
# 1 0.031374 -0.019805 -0.002341 0.000000 0.000000 0.000000
# 2 -0.019805 0.031375 -0.002341 0.000000 0.000000 0.000000
# 3 -0.002341 -0.002341 0.008309 0.000000 0.000000 0.000000
# 4 0.000000 0.000000 0.000000 0.029851 0.000000 0.000000
# 5 0.000000 0.000000 0.000000 0.000000 0.029847 0.000000
# 6 0.000000 0.000000 0.000000 0.000000 0.000000 0.031222
#
#
# Mechanical properties :
#
#
# Convention : Reuss Voigt Hill
#
# Bulk Modulus (GPa) = 45.27991 48.98794 47.13392
# Shear Modulus (GPa) = 22.90292 30.40385 26.65339
#
# Velocity S-wave (km/s) = 3.31402 3.81833 3.57508
# Velocity P-wave (km/s) = 6.02966 6.55216 6.29633
#
# Compressibility (1/GPa) = 0.02208485
#
# Stress axis : x y z
#
# Youngs Moduli (GPa) = 31.87339 31.87205 120.35640
#
# Poissons Ratio (x) = 0.63122 0.28176
# Poissons Ratio (y) = 0.63124 0.28175
# Poissons Ratio (z) = 0.07462 0.07461
#
# Static dielectric constant tensor:
#      x y z
#    x 1.753300 0.000000 0.000000 
#    y 0.000000 1.753300 0.000000 
#    z 0.000000 0.000000 1.771370 
# 
# From -- ./inp_files/1612.got.cif
#   From: 2010.05.17/outbox.cif.g08.bks.cpg/sg96_1_cif.got.tgz:1612.got - 2010.06.03 19:52:08.
