data_PCOD9551313
_publ_section_title
;
Structure prediction by ZEFSAII (Michael W. Deem and Ramdas Pophale) SiO2 
 PCOD9551313
Probable space group: I 4 2 2 
;
_chemical_formula_sum "Si O2"
_cell_formula_units_Z 64
_cell_length_a 12.296065
_cell_length_b 12.296065
_cell_length_c 21.695067
_cell_angle_alpha 90.000000
_cell_angle_beta 90.000000
_cell_angle_gamma 90.000000
_cell_volume 3280.146918
_symmetry_space_group_name_H-M "I 4 2 2 "
_symmetry_group_IT_number 97
_symmetry_cell_setting 'tetragonal'
loop_
_space_group_symop_operation_xyz
x,y,z
-y,x,z
-x,-y,z
y,-x,z
x,-y,-z
-x,y,-z
y,x,-z
-y,-x,-z
1/2+x,1/2+y,1/2+z
1/2-y,1/2+x,1/2+z
1/2-x,1/2-y,1/2+z
1/2+y,1/2-x,1/2+z
1/2+x,1/2-y,1/2-z
1/2-x,1/2+y,1/2-z
1/2+y,1/2+x,1/2-z
1/2-y,1/2-x,1/2-z
loop_
_atom_site_type_symbol
_atom_site_label
_atom_site_fract_x
_atom_site_fract_y
_atom_site_fract_z
Si Si1 0.621356 0.631265 0.265145
Si Si2 0.741610 0.288366 0.849993
Si Si3 0.065391 0.388270 0.080638
Si Si4 0.786703 0.641429 0.538103
O O1 0.494544 0.648320 0.275941
O O2 0.654925 0.657236 0.194816
O O3 0.691406 0.705270 0.310405
O O4 0.842534 0.365660 0.869040
O O5 0.694093 0.235519 0.912161
O O6 0.000000 0.500000 0.089809
O O7 0.973423 0.293090 0.074121
O O8 0.125742 0.377425 0.014651
O O9 0.679065 0.679065 0.500000
#
# Coordination Sequence:
#
# PCOD9551313 Si02
#       4
#    16  16  16  16
#     4  10  22  40  57  82 119 158 203 243 292 353
#     4  10  21  37  61  85 116 159 194 247 298 346
#     4  10  20  35  58  89 118 150 197 245 294 356
#     4   9  18  33  54  83 117 147 183 237 298 349
#
# _framework density 19.511322
#
# number of rings (size 3 to 8) (size 9 to 14) (size 15 to 20)
#    0.000    2.250    0.000    3.000    3.500    0.000 
#    0.000    1.250    0.000   60.000    0.000   12.250 
#    0.000    0.000    0.000    0.000    0.000    0.000 
#
# Total GULP energy -178293.437193 kJ/mol
# GULP energy per Si atom -5571.669912 kJ/mol
# Density = 1.946691 g / cm^3
# Si number density = 19.511322 Si / 1000 Ang^3
#
#
#
# Elastic Constant Matrix: (Units=GPa)
#
#
# Indices 1 2 3 4 5 6 
#
# 1 26.3549 40.2114 -1.0408 0.0000 0.0000 0.0000
# 2 40.2114 26.3549 -1.0408 0.0000 0.0000 0.0000
# 3 -1.0408 -1.0408 52.2383 0.0000 0.0000 0.0000
# 4 0.0000 0.0000 0.0000 30.0985 0.0000 0.0000
# 5 0.0000 0.0000 0.0000 0.0000 30.0985 0.0000
# 6 0.0000 0.0000 0.0000 0.0000 0.0000 20.3231
#
#
#
# Elastic Compliance Matrix: (Units=1/GPa)
#
#
# Indices 1 2 3 4 5 6 
#
# 1 -0.028568 0.043600 0.000299 0.000000 0.000000 0.000000
# 2 0.043600 -0.028568 0.000299 0.000000 0.000000 0.000000
# 3 0.000299 0.000299 0.019155 0.000000 0.000000 0.000000
# 4 0.000000 0.000000 0.000000 0.033224 0.000000 0.000000
# 5 0.000000 0.000000 0.000000 0.000000 0.033224 0.000000
# 6 0.000000 0.000000 0.000000 0.000000 0.000000 0.049205
#
#
# Mechanical properties :
#
#
# Convention : Reuss Voigt Hill
#
# Bulk Modulus (GPa) = 19.83460 20.13419 19.98440
# Shear Modulus (GPa) = 822.40214 20.55859 421.48036
#
# Velocity S-wave (km/s) = 20.55274 3.24956 14.71351
# Velocity P-wave (km/s) = 23.94593 4.94177 17.28914
#
# Compressibility (1/GPa) = 0.05041694
#
# Stress axis : x y z
#
# Youngs Moduli (GPa) = -35.00408 -35.00408 52.20577
#
# Poissons Ratio (x) = 1.52618 -0.01564
# Poissons Ratio (y) = 1.52618 -0.01564
# Poissons Ratio (z) = 0.01048 0.01048
#
# Static dielectric constant tensor:
#      x y z
#    x 1.696240 0.000000 0.000000 
#    y 0.000000 1.696240 0.000000 
#    z 0.000000 0.000000 1.712320 
# 
# From -- ./inp_files/6322.got.cif
#   From: 2010.05.17/outbox.cif.g08.bks.cpg/sg97_4_cif.got.tgz:6322.got - 2010.06.03 19:55:32.
