data_PCOD9551057
_publ_section_title
;
Structure prediction by ZEFSAII (Michael W. Deem and Ramdas Pophale) SiO2 
 PCOD9551057
Probable space group: P 43 21 2
;
_chemical_formula_sum "Si O2"
_cell_formula_units_Z 40
_cell_length_a 15.092457
_cell_length_b 15.092457
_cell_length_c 7.191521
_cell_angle_alpha 90.000000
_cell_angle_beta 90.000000
_cell_angle_gamma 90.000000
_cell_volume 1638.100894
_symmetry_space_group_name_H-M "P 43 21 2"
_symmetry_group_IT_number 96
_symmetry_cell_setting 'tetragonal'
loop_
_space_group_symop_operation_xyz
x,y,z
1/2-y,1/2+x,3/4+z
-x,-y,1/2+z
1/2+y,1/2-x,1/4+z
1/2+x,1/2-y,1/4-z
1/2-x,1/2+y,3/4-z
y,x,-z
-y,-x,1/2-z
loop_
_atom_site_type_symbol
_atom_site_label
_atom_site_fract_x
_atom_site_fract_y
_atom_site_fract_z
Si Si1 0.182989 0.363347 0.026314
Si Si2 0.157695 0.706214 0.333598
Si Si3 0.334256 0.665744 0.750000
Si Si4 0.381023 0.381023 0.000000
Si Si5 0.528934 0.103116 0.770138
Si Si6 0.141352 0.979130 0.132765
O O1 0.188806 0.350872 0.804218
O O2 0.157224 0.264083 0.087958
O O3 0.283067 0.383903 0.092377
O O4 0.125658 0.446362 0.095716
O O5 0.235221 0.764780 0.250000
O O6 0.168837 0.609989 0.242354
O O7 0.071208 0.769061 0.301948
O O8 0.416297 0.655363 0.890090
O O9 0.450983 0.379161 0.167500
O O10 0.485105 0.080821 0.576966
O O11 0.060924 0.939077 0.250000
#
# Coordination Sequence:
#
# PCOD9551057 Si02
#       6
#     8   8   4   4   8   8
#     4  10  25  45  71 107 144 191 243 313 372 459
#     4  10  25  47  74 106 149 189 241 309 384 452
#     4  11  26  42  72 100 150 192 247 306 384 431
#     4   9  22  44  72  98 146 190 239 304 372 455
#     4  12  28  43  74 108 148 195 248 307 376 458
#     4  10  24  44  71 101 144 194 249 310 372 456
#
# _framework density 24.418519
#
# number of rings (size 3 to 8) (size 9 to 14) (size 15 to 20)
#    0.000    1.600    0.000    1.200   23.800    0.000 
#    0.000    0.000    2.200    0.000    0.000    0.000 
#    0.000    0.000    0.000    0.000    0.000    0.000 
#
# Total GULP energy -223477.447219 kJ/mol
# GULP energy per Si atom -5586.936180 kJ/mol
# Density = 2.436294 g / cm^3
# Si number density = 24.418519 Si / 1000 Ang^3
#
#
#
# Elastic Constant Matrix: (Units=GPa)
#
#
# Indices 1 2 3 4 5 6 
#
# 1 97.0927 118.2851 26.1073 0.0000 0.0000 0.0000
# 2 118.2851 97.0960 26.1089 0.0000 0.0000 0.0000
# 3 26.1073 26.1089 72.8866 0.0000 0.0000 0.0000
# 4 0.0000 0.0000 0.0000 23.7344 0.0000 0.0000
# 5 0.0000 0.0000 0.0000 0.0000 23.7344 0.0000
# 6 0.0000 0.0000 0.0000 0.0000 0.0000 12.1317
#
#
#
# Elastic Compliance Matrix: (Units=1/GPa)
#
#
# Indices 1 2 3 4 5 6 
#
# 1 -0.021053 0.026137 -0.001822 0.000000 0.000000 0.000000
# 2 0.026137 -0.021053 -0.001821 0.000000 0.000000 0.000000
# 3 -0.001822 -0.001821 0.015025 0.000000 0.000000 0.000000
# 4 0.000000 0.000000 0.000000 0.042133 0.000000 0.000000
# 5 0.000000 0.000000 0.000000 0.000000 0.042133 0.000000
# 6 0.000000 0.000000 0.000000 0.000000 0.000000 0.082429
#
#
# Mechanical properties :
#
#
# Convention : Reuss Voigt Hill
#
# Bulk Modulus (GPa) = 55.83905 67.56423 61.70164
# Shear Modulus (GPa) = 49.70526 18.35839 34.03182
#
# Velocity S-wave (km/s) = 4.51661 2.74491 3.73726
# Velocity P-wave (km/s) = 7.07932 6.14617 6.62919
#
# Compressibility (1/GPa) = 0.01790861
#
# Stress axis : x y z
#
# Youngs Moduli (GPa) = -47.49877 -47.49994 66.55704
#
# Poissons Ratio (x) = 1.24153 0.12125
# Poissons Ratio (y) = 1.24150 0.12119
# Poissons Ratio (z) = -0.08653 -0.08649
#
# Static dielectric constant tensor:
#      x y z
#    x 1.982810 0.000000 0.000000 
#    y 0.000000 1.982810 0.000000 
#    z 0.000000 0.000000 2.008060 
# 
# From -- ./inp_files/1383.got.cif
#   From: 2010.05.17/outbox.cif.g08.bks.cpg/sg96_1_cif.got.tgz:1383.got - 2010.06.03 19:52:08.
