data_PCOD9551485
_publ_section_title
;
Structure prediction by ZEFSAII (Michael W. Deem and Ramdas Pophale) SiO2 
 PCOD9551485
Probable space group: I 4 2 2 
;
_chemical_formula_sum "Si O2"
_cell_formula_units_Z 40
_cell_length_a 18.404499
_cell_length_b 18.404499
_cell_length_c 5.358849
_cell_angle_alpha 90.000000
_cell_angle_beta 90.000000
_cell_angle_gamma 90.000000
_cell_volume 1815.179254
_symmetry_space_group_name_H-M "I 4 2 2 "
_symmetry_group_IT_number 97
_symmetry_cell_setting 'tetragonal'
loop_
_space_group_symop_operation_xyz
x,y,z
-y,x,z
-x,-y,z
y,-x,z
x,-y,-z
-x,y,-z
y,x,-z
-y,-x,-z
1/2+x,1/2+y,1/2+z
1/2-y,1/2+x,1/2+z
1/2-x,1/2-y,1/2+z
1/2+y,1/2-x,1/2+z
1/2+x,1/2-y,1/2-z
1/2-x,1/2+y,1/2-z
1/2+y,1/2+x,1/2-z
1/2-y,1/2-x,1/2-z
loop_
_atom_site_type_symbol
_atom_site_label
_atom_site_fract_x
_atom_site_fract_y
_atom_site_fract_z
Si Si1 0.206412 0.086827 0.499844
Si Si2 0.715603 0.215603 0.250000
Si Si3 0.167408 0.547098 0.255417
O O1 0.133761 0.133761 0.500000
O O2 0.131499 0.260170 0.306888
O O3 0.256166 0.089269 0.253733
O O4 0.189327 0.000000 0.500000
O O5 0.744508 0.255493 0.500000
O O6 0.161860 0.500000 0.500000
O O7 0.103267 0.603267 0.250000
O O8 0.164279 0.500000 0.000000
#
# Coordination Sequence:
#
# PCOD9551485 Si02
#       3
#    16   8  16
#     4  10  25  43  72 106 145 193 247 309 374 448
#     4  10  24  44  74 108 145 195 252 312 376 454
#     4  11  26  44  70 105 146 193 247 309 380 456
#
# _framework density 22.036389
#
# number of rings (size 3 to 8) (size 9 to 14) (size 15 to 20)
#    0.000    1.600    0.000    1.200   22.400    2.800 
#    0.000    0.000    0.000    0.000    0.000   22.400 
#    0.000    0.000    0.000    0.000    0.000    0.000 
#
# Total GULP energy -111389.837192 kJ/mol
# GULP energy per Si atom -5569.491860 kJ/mol
# Density = 2.198623 g / cm^3
# Si number density = 22.036389 Si / 1000 Ang^3
#
#
#
# Elastic Constant Matrix: (Units=GPa)
#
#
# Indices 1 2 3 4 5 6 
#
# 1 176.5270 128.7975 80.1311 0.0000 0.0000 0.0000
# 2 128.7975 176.5277 80.1317 0.0000 0.0000 0.0000
# 3 80.1311 80.1317 142.0234 0.0000 0.0000 0.0000
# 4 0.0000 0.0000 0.0000 17.9774 0.0000 0.0000
# 5 0.0000 0.0000 0.0000 0.0000 17.9777 0.0000
# 6 0.0000 0.0000 0.0000 0.0000 0.0000 248.5991
#
#
#
# Elastic Compliance Matrix: (Units=1/GPa)
#
#
# Indices 1 2 3 4 5 6 
#
# 1 0.012802 -0.008149 -0.002625 0.000000 0.000000 0.000000
# 2 -0.008149 0.012802 -0.002625 0.000000 0.000000 0.000000
# 3 -0.002625 -0.002625 0.010004 0.000000 0.000000 0.000000
# 4 0.000000 0.000000 0.000000 0.055625 0.000000 0.000000
# 5 0.000000 0.000000 0.000000 0.000000 0.055624 0.000000
# 6 0.000000 0.000000 0.000000 0.000000 0.000000 0.004023
#
#
# Mechanical properties :
#
#
# Convention : Reuss Voigt Hill
#
# Bulk Modulus (GPa) = 113.52662 119.24428 116.38545
# Shear Modulus (GPa) = 27.68299 70.64538 49.16419
#
# Velocity S-wave (km/s) = 3.54819 5.66817 4.72852
# Velocity P-wave (km/s) = 8.27139 9.85228 9.09624
#
# Compressibility (1/GPa) = 0.00880851
#
# Stress axis : x y z
#
# Youngs Moduli (GPa) = 78.11123 78.11129 99.96299
#
# Poissons Ratio (x) = 0.63653 0.26244
# Poissons Ratio (y) = 0.63653 0.26245
# Poissons Ratio (z) = 0.20507 0.20508
#
# Static dielectric constant tensor:
#      x y z
#    x 1.910520 0.000000 0.000000 
#    y 0.000000 1.910520 0.000000 
#    z 0.000000 0.000000 1.842760 
# 
# From -- ./inp_files/294.got.cif
#   From: 2010.05.17/outbox.cif.g08.bks.cpg/sg97_1_cif.got.tgz:294.got - 2010.06.03 19:55:32.
