data_PCOD9551213
_publ_section_title
;
Structure prediction by ZEFSAII (Michael W. Deem and Ramdas Pophale) SiO2 
 PCOD9551213
Probable space group: I 4 2 2 
;
_chemical_formula_sum "Si O2"
_cell_formula_units_Z 104
_cell_length_a 24.797124
_cell_length_b 24.797124
_cell_length_c 8.476226
_cell_angle_alpha 90.000000
_cell_angle_beta 90.000000
_cell_angle_gamma 90.000000
_cell_volume 5212.008979
_symmetry_space_group_name_H-M "I 4 2 2 "
_symmetry_group_IT_number 97
_symmetry_cell_setting 'tetragonal'
loop_
_space_group_symop_operation_xyz
x,y,z
-y,x,z
-x,-y,z
y,-x,z
x,-y,-z
-x,y,-z
y,x,-z
-y,-x,-z
1/2+x,1/2+y,1/2+z
1/2-y,1/2+x,1/2+z
1/2-x,1/2-y,1/2+z
1/2+y,1/2-x,1/2+z
1/2+x,1/2-y,1/2-z
1/2-x,1/2+y,1/2-z
1/2+y,1/2+x,1/2-z
1/2-y,1/2-x,1/2-z
loop_
_atom_site_type_symbol
_atom_site_label
_atom_site_fract_x
_atom_site_fract_y
_atom_site_fract_z
Si Si1 0.980332 0.716215 0.680771
Si Si2 0.266650 0.690233 0.263013
Si Si3 0.852814 0.852814 0.000000
Si Si4 0.109206 0.459586 0.640213
Si Si5 0.863007 0.680259 0.999345
Si Si6 0.425886 0.277015 0.672626
Si Si7 0.878714 0.257864 0.507161
O O1 0.985981 0.657495 0.757453
O O2 0.919373 0.731526 0.640690
O O3 0.000000 0.714637 0.500000
O O4 0.012206 0.758628 0.791780
O O5 0.254039 0.754039 0.250000
O O6 0.317699 0.669335 0.355351
O O7 0.217122 0.667366 0.369318
O O8 0.269129 0.668126 0.089445
O O9 0.829191 0.911033 0.937451
O O10 0.093735 0.500000 0.500000
O O11 0.060659 0.439342 0.750000
O O12 0.138257 0.406144 0.570601
O O13 0.815409 0.643084 0.070429
O O14 0.896341 0.724930 0.096072
O O15 0.402792 0.277467 0.852201
#
# Coordination Sequence:
#
# PCOD9551213 Si02
#       7
#    16  16   8  16  16  16  16
#     4  10  20  34  55  83 105 133 184 240 292 352
#     4   9  18  30  48  69 103 134 171 221 274 337
#     4  10  22  34  44  70 108 142 188 221 284 342
#     4  12  21  36  59  85 106 137 179 238 310 370
#     4  10  17  31  52  79 103 132 171 227 289 352
#     4  10  21  33  49  77 105 146 180 233 285 353
#     4  10  18  32  52  78 105 130 183 229 291 341
#
# _framework density 19.953917000000001
#
# number of rings (size 3 to 8) (size 9 to 14) (size 15 to 20)
#    0.000    1.846    4.615    0.923    0.000    4.308 
#    0.000    0.769    0.000    1.385    0.000    0.000 
#    0.000    0.000    0.000    0.000    0.000    6.154 
#
# Total GULP energy -289490.217634 kJ/mol
# GULP energy per Si atom -5567.119570 kJ/mol
# Density = 1.990850 g / cm^3
# Si number density = 19.953917 Si / 1000 Ang^3
#
#
#
# Elastic Constant Matrix: (Units=GPa)
#
#
# Indices 1 2 3 4 5 6 
#
# 1 38.3691 55.9743 28.8870 0.0000 0.0000 0.0000
# 2 55.9743 38.3667 28.8865 0.0000 0.0000 0.0000
# 3 28.8870 28.8865 67.1720 0.0000 0.0000 0.0000
# 4 0.0000 0.0000 0.0000 31.1421 0.0000 0.0000
# 5 0.0000 0.0000 0.0000 0.0000 31.1421 0.0000
# 6 0.0000 0.0000 0.0000 0.0000 0.0000 27.3055
#
#
#
# Elastic Compliance Matrix: (Units=1/GPa)
#
#
# Indices 1 2 3 4 5 6 
#
# 1 -0.021203 0.035593 -0.006188 0.000000 0.000000 0.000000
# 2 0.035593 -0.021205 -0.006188 0.000000 0.000000 0.000000
# 3 -0.006188 -0.006188 0.020209 0.000000 0.000000 0.000000
# 4 0.000000 0.000000 0.000000 0.032111 0.000000 0.000000
# 5 0.000000 0.000000 0.000000 0.000000 0.032111 0.000000
# 6 0.000000 0.000000 0.000000 0.000000 0.000000 0.036623
#
#
# Mechanical properties :
#
#
# Convention : Reuss Voigt Hill
#
# Bulk Modulus (GPa) = 41.26126 41.26705 41.26416
# Shear Modulus (GPa) = 124.10446 19.92860 72.01653
#
# Velocity S-wave (km/s) = 7.89497 3.16370 6.01413
# Velocity P-wave (km/s) = 10.18973 5.83707 8.30367
#
# Compressibility (1/GPa) = 0.02423581
#
# Stress axis : x y z
#
# Youngs Moduli (GPa) = -47.16215 -47.15842 49.48229
#
# Poissons Ratio (x) = 1.67853 0.30620
# Poissons Ratio (y) = 1.67866 0.30618
# Poissons Ratio (z) = -0.29184 -0.29180
#
# Static dielectric constant tensor:
#      x y z
#    x 1.906750 0.000000 0.000000 
#    y 0.000000 1.906750 0.000000 
#    z 0.000000 0.000000 1.687990 
# 
# From -- ./inp_files/2623.got.cif
#   From: 2010.05.17/outbox.cif.g08.bks.cpg/sg97_2_cif.got.tgz:2623.got - 2010.06.03 19:55:32.
