data_PCOD9551375
_publ_section_title
;
Structure prediction by ZEFSAII (Michael W. Deem and Ramdas Pophale) SiO2 
 PCOD9551375
Probable space group: I 4 2 2 
;
_chemical_formula_sum "Si O2"
_cell_formula_units_Z 120
_cell_length_a 25.169736
_cell_length_b 25.169736
_cell_length_c 9.911736
_cell_angle_alpha 90.000000
_cell_angle_beta 90.000000
_cell_angle_gamma 90.000000
_cell_volume 6279.239481
_symmetry_space_group_name_H-M "I 4 2 2 "
_symmetry_group_IT_number 97
_symmetry_cell_setting 'tetragonal'
loop_
_space_group_symop_operation_xyz
x,y,z
-y,x,z
-x,-y,z
y,-x,z
x,-y,-z
-x,y,-z
y,x,-z
-y,-x,-z
1/2+x,1/2+y,1/2+z
1/2-y,1/2+x,1/2+z
1/2-x,1/2-y,1/2+z
1/2+y,1/2-x,1/2+z
1/2+x,1/2-y,1/2-z
1/2-x,1/2+y,1/2-z
1/2+y,1/2+x,1/2-z
1/2-y,1/2-x,1/2-z
loop_
_atom_site_type_symbol
_atom_site_label
_atom_site_fract_x
_atom_site_fract_y
_atom_site_fract_z
Si Si1 0.670568 0.124973 0.986570
Si Si2 0.500000 0.410311 0.000000
Si Si3 0.819755 0.104272 0.349238
Si Si4 0.262533 0.199050 0.604900
Si Si5 0.433599 0.227055 0.256839
Si Si6 0.843643 0.440445 0.990752
Si Si7 0.570576 0.656107 0.155027
Si Si8 0.222298 0.553253 0.714994
O O1 0.674396 0.185886 0.033788
O O2 0.607364 0.115161 0.987660
O O3 0.701148 0.090619 0.097813
O O4 0.698838 0.111296 0.845932
O O5 0.550862 0.449139 0.000000
O O6 0.514718 0.374850 0.867819
O O7 0.784511 0.157312 0.369332
O O8 0.826793 0.081333 0.499482
O O9 0.878976 0.120208 0.301955
O O10 0.782769 0.067553 0.256271
O O11 0.242426 0.242426 0.500000
O O12 0.278492 0.221509 0.750000
O O13 0.428652 0.290252 0.240457
O O14 0.491507 0.216923 0.320389
O O15 0.435422 0.200168 0.109467
O O16 0.813514 0.436387 0.847868
O O17 0.866399 0.500000 0.000000
#
# Coordination Sequence:
#
# PCOD9551375 Si02
#       8
#    16   8  16  16  16  16  16  16
#     4  12  23  39  59  91 125 163 208 260 310 397
#     4  11  22  36  60  94 128 164 208 271 312 348
#     4  11  20  36  58  85 121 164 197 245 315 373
#     4  12  24  37  58  86 126 167 206 251 314 391
#     4  11  24  36  62  89 125 159 211 261 312 373
#     4  10  21  37  60  86 117 164 207 258 309 373
#     4  11  21  37  58  90 125 162 201 258 306 369
#     4  11  21  40  60  85 122 169 207 248 315 375
#
# _framework density 19.110593999999999
#
# number of rings (size 3 to 8) (size 9 to 14) (size 15 to 20)
#    0.000    0.867    6.667    2.000    2.800    0.000 
#    0.000    0.000    0.000    1.600    0.000    7.467 
#    0.000    0.000    0.800    0.000    0.000    0.000 
#
# Total GULP energy -334872.198156 kJ/mol
# GULP energy per Si atom -5581.203303 kJ/mol
# Density = 1.906710 g / cm^3
# Si number density = 19.110594 Si / 1000 Ang^3
#
#
#
# Elastic Constant Matrix: (Units=GPa)
#
#
# Indices 1 2 3 4 5 6 
#
# 1 81.5248 24.2322 8.6395 0.0000 0.0000 0.0000
# 2 24.2322 81.5251 8.6401 0.0000 0.0000 0.0000
# 3 8.6395 8.6401 36.3384 0.0000 0.0000 0.0000
# 4 0.0000 0.0000 0.0000 1.3167 0.0000 0.0000
# 5 0.0000 0.0000 0.0000 0.0000 1.3131 0.0000
# 6 0.0000 0.0000 0.0000 0.0000 0.0000 28.5260
#
#
#
# Elastic Compliance Matrix: (Units=1/GPa)
#
#
# Indices 1 2 3 4 5 6 
#
# 1 0.013646 -0.003808 -0.002339 0.000000 0.000000 0.000000
# 2 -0.003808 0.013646 -0.002339 0.000000 0.000000 0.000000
# 3 -0.002339 -0.002339 0.028631 0.000000 0.000000 0.000000
# 4 0.000000 0.000000 0.000000 0.759468 0.000000 0.000000
# 5 0.000000 0.000000 0.000000 0.000000 0.761568 0.000000
# 6 0.000000 0.000000 0.000000 0.000000 0.000000 0.035056
#
#
# Mechanical properties :
#
#
# Convention : Reuss Voigt Hill
#
# Bulk Modulus (GPa) = 25.67339 31.37911 28.52625
# Shear Modulus (GPa) = 3.04512 16.75624 9.90068
#
# Velocity S-wave (km/s) = 1.26368 2.96430 2.27859
# Velocity P-wave (km/s) = 3.94873 5.30768 4.67782
#
# Compressibility (1/GPa) = 0.03895083
#
# Stress axis : x y z
#
# Youngs Moduli (GPa) = 73.28145 73.28148 34.92672
#
# Poissons Ratio (x) = 0.27907 0.08169
# Poissons Ratio (y) = 0.27907 0.08170
# Poissons Ratio (z) = 0.17140 0.17142
#
# Static dielectric constant tensor:
#      x y z
#    x 1.715170 0.000000 0.000000 
#    y 0.000000 1.715170 0.000000 
#    z 0.000000 0.000000 1.636870 
# 
# From -- ./inp_files/2654.got.cif
#   From: 2010.05.17/outbox.cif.g08.bks.cpg/sg97_2_cif.got.tgz:2654.got - 2010.06.03 19:55:32.
