data_PCOD9551471
_publ_section_title
;
Structure prediction by ZEFSAII (Michael W. Deem and Ramdas Pophale) SiO2 
 PCOD9551471
Probable space group: I 4 2 2 
;
_chemical_formula_sum "Si O2"
_cell_formula_units_Z 56
_cell_length_a 19.042831
_cell_length_b 19.042831
_cell_length_c 7.591616
_cell_angle_alpha 90.000000
_cell_angle_beta 90.000000
_cell_angle_gamma 90.000000
_cell_volume 2752.943250
_symmetry_space_group_name_H-M "I 4 2 2 "
_symmetry_group_IT_number 97
_symmetry_cell_setting 'tetragonal'
loop_
_space_group_symop_operation_xyz
x,y,z
-y,x,z
-x,-y,z
y,-x,z
x,-y,-z
-x,y,-z
y,x,-z
-y,-x,-z
1/2+x,1/2+y,1/2+z
1/2-y,1/2+x,1/2+z
1/2-x,1/2-y,1/2+z
1/2+y,1/2-x,1/2+z
1/2+x,1/2-y,1/2-z
1/2-x,1/2+y,1/2-z
1/2+y,1/2+x,1/2-z
1/2-y,1/2-x,1/2-z
loop_
_atom_site_type_symbol
_atom_site_label
_atom_site_fract_x
_atom_site_fract_y
_atom_site_fract_z
Si Si1 0.730039 0.448519 0.229990
Si Si2 0.163228 0.275359 0.017815
Si Si3 0.000000 0.117537 0.000000
Si Si4 0.733198 0.909150 0.629498
O O1 0.758150 0.387334 0.356010
O O2 0.667013 0.487061 0.331325
O O3 0.784800 0.512303 0.194483
O O4 0.714543 0.419016 0.035398
O O5 0.130583 0.242137 0.195291
O O6 0.173399 0.357981 0.051468
O O7 0.238818 0.238818 0.000000
O O8 0.932396 0.067605 0.000000
#
# Coordination Sequence:
#
# PCOD9551471 Si02
#       4
#    16  16   8  16
#     4  11  22  42  62  92 136 174 211 279 333 398
#     4  11  23  39  64  98 133 173 223 283 336 393
#     4  11  24  42  62  86 130 185 224 266 326 395
#     4  10  24  37  61  98 125 172 215 268 341 398
#
# _framework density 20.341864000000001
#
# number of rings (size 3 to 8) (size 9 to 14) (size 15 to 20)
#    0.000    1.286    2.857    1.714    8.000    0.000 
#    5.143    0.000    0.000    6.857    0.000  160.000 
#    0.000    0.000    0.000    0.000    0.000    0.000 
#
# Total GULP energy -156043.276577 kJ/mol
# GULP energy per Si atom -5572.974163 kJ/mol
# Density = 2.029556 g / cm^3
# Si number density = 20.341864 Si / 1000 Ang^3
#
#
#
# Elastic Constant Matrix: (Units=GPa)
#
#
# Indices 1 2 3 4 5 6 
#
# 1 88.0697 45.2958 24.9117 0.0000 0.0000 0.0000
# 2 45.2958 88.0688 24.9119 0.0000 0.0000 0.0000
# 3 24.9117 24.9119 146.7788 0.0000 0.0000 0.0000
# 4 0.0000 0.0000 0.0000 20.4933 0.0000 0.0000
# 5 0.0000 0.0000 0.0000 0.0000 20.4917 0.0000
# 6 0.0000 0.0000 0.0000 0.0000 0.0000 7.2654
#
#
#
# Elastic Compliance Matrix: (Units=1/GPa)
#
#
# Indices 1 2 3 4 5 6 
#
# 1 0.015692 -0.007687 -0.001359 0.000000 0.000000 0.000000
# 2 -0.007687 0.015692 -0.001359 0.000000 0.000000 0.000000
# 3 -0.001359 -0.001359 0.007274 0.000000 0.000000 0.000000
# 4 0.000000 0.000000 0.000000 0.048797 0.000000 0.000000
# 5 0.000000 0.000000 0.000000 0.000000 0.048800 0.000000
# 6 0.000000 0.000000 0.000000 0.000000 0.000000 0.137638
#
#
# Mechanical properties :
#
#
# Convention : Reuss Voigt Hill
#
# Bulk Modulus (GPa) = 56.01997 57.01733 56.51865
# Shear Modulus (GPa) = 16.63049 24.83660 20.73355
#
# Velocity S-wave (km/s) = 2.86239 3.49801 3.19604
# Velocity P-wave (km/s) = 6.20672 6.66372 6.43928
#
# Compressibility (1/GPa) = 0.01785078
#
# Stress axis : x y z
#
# Youngs Moduli (GPa) = 63.72544 63.72474 137.47211
#
# Poissons Ratio (x) = 0.48982 0.18679
# Poissons Ratio (y) = 0.48983 0.18680
# Poissons Ratio (z) = 0.08659 0.08659
#
# Static dielectric constant tensor:
#      x y z
#    x 1.743740 0.000000 0.000000 
#    y 0.000000 1.743740 0.000000 
#    z 0.000000 0.000000 1.774940 
# 
# From -- ./inp_files/1894.got.cif
#   From: 2010.05.17/outbox.cif.g08.bks.cpg/sg97_1_cif.got.tgz:1894.got - 2010.06.03 19:55:32.
