data_PCOD9551912
_publ_section_title
;
Structure prediction by ZEFSAII (Michael W. Deem and Ramdas Pophale) SiO2 
 PCOD9551912
Probable space group: I 41 2 2
;
_chemical_formula_sum "Si O2"
_cell_formula_units_Z 108
_cell_length_a 14.380858
_cell_length_b 14.380858
_cell_length_c 24.855696
_cell_angle_alpha 90.000000
_cell_angle_beta 90.000000
_cell_angle_gamma 90.000000
_cell_volume 5140.383543
_symmetry_space_group_name_H-M "I 41 2 2"
_symmetry_group_IT_number 98
_symmetry_cell_setting 'tetragonal'
loop_
_space_group_symop_operation_xyz
x,y,z
-y,1/2+x,1/4+z
-x,-y,z
y,1/2-x,1/4+z
x,1/2-y,1/4-z
-x,1/2+y,1/4-z
y,x,-z
-y,-x,-z
1/2+x,1/2+y,1/2+z
1/2-y,x,3/4+z
1/2-x,1/2-y,1/2+z
1/2+y,-x,3/4+z
1/2+x,-y,3/4-z
1/2-x,y,3/4-z
1/2+y,1/2+x,1/2-z
1/2-y,1/2-x,1/2-z
loop_
_atom_site_type_symbol
_atom_site_label
_atom_site_fract_x
_atom_site_fract_y
_atom_site_fract_z
Si Si1 0.953473 0.807267 0.993284
Si Si2 0.824176 0.164555 0.661359
Si Si3 0.187325 0.986873 0.568715
Si Si4 0.825465 0.174536 0.000000
Si Si5 0.949190 0.871313 0.193442
Si Si6 0.000000 0.000000 0.500000
Si Si7 0.860122 0.711810 0.369756
Si Si8 0.446607 0.872167 0.988281
O O1 0.908493 0.772079 0.937545
O O2 0.907248 0.907248 0.000000
O O3 0.924525 0.731684 0.037609
O O4 0.063815 0.810667 0.999146
O O5 0.858556 0.250000 0.625000
O O6 0.807337 0.080790 0.620158
O O7 0.735761 0.200675 0.697209
O O8 0.897302 0.125373 0.704620
O O9 0.089971 0.994786 0.538547
O O10 0.265943 0.946675 0.529342
O O11 0.221982 0.087602 0.588107
O O12 0.894179 0.885655 0.138211
O O13 0.059151 0.891632 0.196950
O O14 0.908153 0.947692 0.234884
O O15 0.750000 0.725881 0.375000
#
# Coordination Sequence:
#
# PCOD9551912 Si02
#       8
#    16  16  16   8  16   4  16  16
#     4  12  24  44  66 104 140 182 229 288 349 428
#     4  12  24  42  72 104 141 184 235 294 363 440
#     4  11  25  46  70 103 142 184 247 307 362 438
#     4  12  25  45  66 103 142 183 224 296 356 433
#     4  10  22  42  72  95 139 187 227 291 350 428
#     4  12  28  50  72 102 140 196 254 318 364 422
#     4  11  23  43  70 103 138 181 237 287 359 432
#     4  10  22  45  69 100 137 184 236 290 360 427
#
# _framework density 21.010103999999998
#
# number of rings (size 3 to 8) (size 9 to 14) (size 15 to 20)
#    0.000    0.889    4.444    2.000    0.000    5.926 
#    5.333    1.481    0.000    0.000    0.000    0.000 
#    0.000    0.000    0.000    0.000    0.000    0.000 
#
# Total GULP energy -301382.389706 kJ/mol
# GULP energy per Si atom -5581.155365 kJ/mol
# Density = 2.096228 g / cm^3
# Si number density = 21.010104 Si / 1000 Ang^3
#
#
#
# Elastic Constant Matrix: (Units=GPa)
#
#
# Indices 1 2 3 4 5 6 
#
# 1 102.4460 13.7637 20.0304 0.0000 0.0000 0.0000
# 2 13.7637 102.4455 20.0304 0.0000 0.0000 0.0000
# 3 20.0304 20.0304 62.9086 0.0000 0.0000 0.0000
# 4 0.0000 0.0000 0.0000 25.8968 0.0000 0.0000
# 5 0.0000 0.0000 0.0000 0.0000 25.8971 0.0000
# 6 0.0000 0.0000 0.0000 0.0000 0.0000 12.8609
#
#
#
# Elastic Compliance Matrix: (Units=1/GPa)
#
#
# Indices 1 2 3 4 5 6 
#
# 1 0.010471 -0.000805 -0.003078 0.000000 0.000000 0.000000
# 2 -0.000805 0.010471 -0.003078 0.000000 0.000000 0.000000
# 3 -0.003078 -0.003078 0.017856 0.000000 0.000000 0.000000
# 4 0.000000 0.000000 0.000000 0.038615 0.000000 0.000000
# 5 0.000000 0.000000 0.000000 0.000000 0.038614 0.000000
# 6 0.000000 0.000000 0.000000 0.000000 0.000000 0.077755
#
#
# Mechanical properties :
#
#
# Convention : Reuss Voigt Hill
#
# Bulk Modulus (GPa) = 40.19728 41.71658 40.95693
# Shear Modulus (GPa) = 23.14857 27.19600 25.17229
#
# Velocity S-wave (km/s) = 3.32291 3.60172 3.46512
# Velocity P-wave (km/s) = 5.82205 6.09877 5.96202
#
# Compressibility (1/GPa) = 0.02487731
#
# Stress axis : x y z
#
# Youngs Moduli (GPa) = 95.50033 95.49991 56.00357
#
# Poissons Ratio (x) = 0.07688 0.17236
# Poissons Ratio (y) = 0.07688 0.17236
# Poissons Ratio (z) = 0.29393 0.29392
#
# Static dielectric constant tensor:
#      x y z
#    x 1.774210 0.000000 0.000000 
#    y 0.000000 1.774220 0.000000 
#    z 0.000000 0.000000 1.795490 
# 
# From -- ./inp_files/10124.got.cif
#   From: 2010.05.17/outbox.cif.g08.bks.cpg/sg98_6_cif.got.tgz:10124.got - 2010.06.03 20:00:51.
