data_PCOD9551436
_publ_section_title
;
Structure prediction by ZEFSAII (Michael W. Deem and Ramdas Pophale) SiO2 
 PCOD9551436
Probable space group: I 4 2 2 
;
_chemical_formula_sum "Si O2"
_cell_formula_units_Z 44
_cell_length_a 14.232830
_cell_length_b 14.232830
_cell_length_c 8.980645
_cell_angle_alpha 90.000000
_cell_angle_beta 90.000000
_cell_angle_gamma 90.000000
_cell_volume 1819.240239
_symmetry_space_group_name_H-M "I 4 2 2 "
_symmetry_group_IT_number 97
_symmetry_cell_setting 'tetragonal'
loop_
_space_group_symop_operation_xyz
x,y,z
-y,x,z
-x,-y,z
y,-x,z
x,-y,-z
-x,y,-z
y,x,-z
-y,-x,-z
1/2+x,1/2+y,1/2+z
1/2-y,1/2+x,1/2+z
1/2-x,1/2-y,1/2+z
1/2+y,1/2-x,1/2+z
1/2+x,1/2-y,1/2-z
1/2-x,1/2+y,1/2-z
1/2+y,1/2+x,1/2-z
1/2-y,1/2-x,1/2-z
loop_
_atom_site_type_symbol
_atom_site_label
_atom_site_fract_x
_atom_site_fract_y
_atom_site_fract_z
Si Si1 0.564965 0.359054 0.810083
Si Si2 0.832694 0.167307 0.000000
Si Si3 0.000000 0.500000 0.000000
Si Si4 0.864506 0.668120 0.582666
O O1 0.618866 0.456239 0.833640
O O2 0.593707 0.343314 0.634810
O O3 0.589482 0.270357 0.913056
O O4 0.720537 0.158559 0.035226
O O5 0.076381 0.430638 0.923825
O O6 0.826333 0.673668 0.750000
#
# Coordination Sequence:
#
# PCOD9551436 Si02
#       4
#    16   8   4  16
#     4  10  22  42  69 100 138 181 236 296 353 426
#     4  10  22  41  68 101 136 184 234 296 362 420
#     4  12  26  44  72  96 142 192 234 300 376 430
#     4  10  25  43  65 103 138 185 238 296 353 432
#
# _framework density 24.185922000000001
#
# number of rings (size 3 to 8) (size 9 to 14) (size 15 to 20)
#    0.000    1.818    0.000    1.636   15.273    1.455 
#    0.000    0.000    0.000    0.000    0.000    0.000 
#    0.000    0.000    0.000    0.000    0.000    0.000 
#
# Total GULP energy -122500.340957 kJ/mol
# GULP energy per Si atom -5568.197316 kJ/mol
# Density = 2.413087 g / cm^3
# Si number density = 24.185922 Si / 1000 Ang^3
#
#
#
# Elastic Constant Matrix: (Units=GPa)
#
#
# Indices 1 2 3 4 5 6 
#
# 1 131.0145 115.0824 38.5672 0.0000 0.0000 0.0000
# 2 115.0824 131.0161 38.5672 0.0000 0.0000 0.0000
# 3 38.5672 38.5672 75.6231 0.0000 0.0000 0.0000
# 4 0.0000 0.0000 0.0000 14.4492 0.0000 0.0000
# 5 0.0000 0.0000 0.0000 0.0000 14.4527 0.0000
# 6 0.0000 0.0000 0.0000 0.0000 0.0000 44.7295
#
#
#
# Elastic Compliance Matrix: (Units=1/GPa)
#
#
# Indices 1 2 3 4 5 6 
#
# 1 0.033800 -0.028963 -0.002467 0.000000 0.000000 0.000000
# 2 -0.028963 0.033800 -0.002466 0.000000 0.000000 0.000000
# 3 -0.002467 -0.002466 0.015739 0.000000 0.000000 0.000000
# 4 0.000000 0.000000 0.000000 0.069208 0.000000 0.000000
# 5 0.000000 0.000000 0.000000 0.000000 0.069191 0.000000
# 6 0.000000 0.000000 0.000000 0.000000 0.000000 0.022357
#
#
# Mechanical properties :
#
#
# Convention : Reuss Voigt Hill
#
# Bulk Modulus (GPa) = 64.32504 80.23192 72.27848
# Shear Modulus (GPa) = 15.76935 24.42207 20.09571
#
# Velocity S-wave (km/s) = 2.55621 3.18113 2.88563
# Velocity P-wave (km/s) = 5.94694 6.83650 6.40718
#
# Compressibility (1/GPa) = 0.01554605
#
# Stress axis : x y z
#
# Youngs Moduli (GPa) = 29.58559 29.58602 63.53503
#
# Poissons Ratio (x) = 0.85691 0.15672
# Poissons Ratio (y) = 0.85690 0.15671
# Poissons Ratio (z) = 0.07298 0.07297
#
# Static dielectric constant tensor:
#      x y z
#    x 1.985250 0.000000 0.000000 
#    y 0.000000 1.985250 0.000000 
#    z 0.000000 0.000000 2.087580 
# 
# From -- ./inp_files/3096.got.cif
#   From: 2010.05.17/outbox.cif.g08.bks.cpg/sg97_2_cif.got.tgz:3096.got - 2010.06.03 19:55:32.
