data_PCOD9551302
_publ_section_title
;
Structure prediction by ZEFSAII (Michael W. Deem and Ramdas Pophale) SiO2 
 PCOD9551302
Probable space group: I 4 2 2 
;
_chemical_formula_sum "Si O2"
_cell_formula_units_Z 88
_cell_length_a 31.089593
_cell_length_b 31.089593
_cell_length_c 5.226101
_cell_angle_alpha 90.000000
_cell_angle_beta 90.000000
_cell_angle_gamma 90.000000
_cell_volume 5051.354779
_symmetry_space_group_name_H-M "I 4 2 2 "
_symmetry_group_IT_number 97
_symmetry_cell_setting 'tetragonal'
loop_
_space_group_symop_operation_xyz
x,y,z
-y,x,z
-x,-y,z
y,-x,z
x,-y,-z
-x,y,-z
y,x,-z
-y,-x,-z
1/2+x,1/2+y,1/2+z
1/2-y,1/2+x,1/2+z
1/2-x,1/2-y,1/2+z
1/2+y,1/2-x,1/2+z
1/2+x,1/2-y,1/2-z
1/2-x,1/2+y,1/2-z
1/2+y,1/2+x,1/2-z
1/2-y,1/2-x,1/2-z
loop_
_atom_site_type_symbol
_atom_site_label
_atom_site_fract_x
_atom_site_fract_y
_atom_site_fract_z
Si Si1 0.781551 0.148412 0.922751
Si Si2 0.898940 0.245481 0.566834
Si Si3 0.395352 0.828347 0.792097
Si Si4 0.545653 0.889383 0.898731
Si Si5 0.296536 0.957167 0.140632
Si Si6 0.769931 0.730070 0.750000
O O1 0.782038 0.115742 0.679640
O O2 0.744411 0.182998 0.845689
O O3 0.822856 0.177145 0.000000
O O4 0.771980 0.123527 0.182445
O O5 0.885141 0.294642 0.513222
O O6 0.947124 0.259649 0.649407
O O7 0.351023 0.851023 0.750000
O O8 0.418463 0.802722 0.564377
O O9 0.427248 0.866802 0.875565
O O10 0.575995 0.924005 0.750000
O O11 0.535839 0.845492 0.740617
O O12 0.500000 0.907284 0.000000
O O13 0.283419 0.000000 0.000000
O O14 0.759492 0.759492 0.500000
#
# Coordination Sequence:
#
# PCOD9551302 Si02
#       6
#    16  16  16  16  16   8
#     4  11  22  38  53  73 109 141 174 208 256 310
#     4  11  24  37  54  83 102 139 177 214 259 325
#     4  11  22  37  56  80 102 128 171 218 268 332
#     4  11  22  36  61  80 101 131 167 216 282 354
#     4  11  22  39  59  78 106 133 169 220 281 334
#     4  10  20  34  50  70  98 142 172 196 247 302
#
# _framework density 17.421068000000002
#
# number of rings (size 3 to 8) (size 9 to 14) (size 15 to 20)
#    0.000    1.091    5.455    2.727    1.273    1.455 
#    0.000    0.000    0.000    9.818    0.000    0.000 
#    0.000    0.000    0.000    0.000    0.000    0.000 
#
# Total GULP energy -244955.077097 kJ/mol
# GULP energy per Si atom -5567.160843 kJ/mol
# Density = 1.738142 g / cm^3
# Si number density = 17.421068 Si / 1000 Ang^3
#
#
#
# Elastic Constant Matrix: (Units=GPa)
#
#
# Indices 1 2 3 4 5 6 
#
# 1 46.7195 43.9848 32.6978 0.0000 0.0000 0.0000
# 2 43.9848 46.7217 32.6980 0.0000 0.0000 0.0000
# 3 32.6978 32.6980 115.4679 0.0000 0.0000 0.0000
# 4 0.0000 0.0000 0.0000 -273.5525 0.0000 0.0000
# 5 0.0000 0.0000 0.0000 0.0000 -273.7908 0.0000
# 6 0.0000 0.0000 0.0000 0.0000 0.0000 10.7878
#
#
#
# Elastic Compliance Matrix: (Units=1/GPa)
#
#
# Indices 1 2 3 4 5 6 
#
# 1 0.189693 -0.175835 -0.003924 0.000000 0.000000 0.000000
# 2 -0.175835 0.189683 -0.003922 0.000000 0.000000 0.000000
# 3 -0.003924 -0.003922 0.010882 0.000000 0.000000 0.000000
# 4 0.000000 0.000000 0.000000 -0.003656 0.000000 0.000000
# 5 0.000000 0.000000 0.000000 0.000000 -0.003652 0.000000
# 6 0.000000 0.000000 0.000000 0.000000 0.000000 0.092697
#
#
# Mechanical properties :
#
#
# Convention : Reuss Voigt Hill
#
# Bulk Modulus (GPa) = 43.67447 47.51891 45.59669
# Shear Modulus (GPa) = 5.87793 -100.67586 -47.39897
#
# Velocity S-wave (km/s) = 1.83885 -7.61020 -5.22177
# Velocity P-wave (km/s) = 5.44360 7.06288 3.18210
#
# Compressibility (1/GPa) = 0.02289667
#
# Stress axis : x y z
#
# Youngs Moduli (GPa) = 5.27168 5.27196 91.89378
#
# Poissons Ratio (x) = 0.92699 0.36058
# Poissons Ratio (y) = 0.92694 0.36038
# Poissons Ratio (z) = 0.02069 0.02068
#
# Static dielectric constant tensor:
#      x y z
#    x 1.757870 0.000000 0.000000 
#    y 0.000000 1.757940 0.000000 
#    z 0.000000 0.000000 1.671850 
# 
# From -- ./inp_files/1084.got.cif
#   From: 2010.05.17/outbox.cif.g08.bks.cpg/sg97_1_cif.got.tgz:1084.got - 2010.06.03 19:55:32.
