data_PCOD9551835
_publ_section_title
;
Structure prediction by ZEFSAII (Michael W. Deem and Ramdas Pophale) SiO2 
 PCOD9551835
Probable space group: I 41 2 2
;
_chemical_formula_sum "Si O2"
_cell_formula_units_Z 72
_cell_length_a 12.400700
_cell_length_b 12.400700
_cell_length_c 26.720105
_cell_angle_alpha 90.000000
_cell_angle_beta 90.000000
_cell_angle_gamma 90.000000
_cell_volume 4108.947219
_symmetry_space_group_name_H-M "I 41 2 2"
_symmetry_group_IT_number 98
_symmetry_cell_setting 'tetragonal'
loop_
_space_group_symop_operation_xyz
x,y,z
-y,1/2+x,1/4+z
-x,-y,z
y,1/2-x,1/4+z
x,1/2-y,1/4-z
-x,1/2+y,1/4-z
y,x,-z
-y,-x,-z
1/2+x,1/2+y,1/2+z
1/2-y,x,3/4+z
1/2-x,1/2-y,1/2+z
1/2+y,-x,3/4+z
1/2+x,-y,3/4-z
1/2-x,y,3/4-z
1/2+y,1/2+x,1/2-z
1/2-y,1/2-x,1/2-z
loop_
_atom_site_type_symbol
_atom_site_label
_atom_site_fract_x
_atom_site_fract_y
_atom_site_fract_z
Si Si1 0.022433 0.375057 0.832243
Si Si2 0.622676 0.892378 0.057470
Si Si3 0.625778 0.375168 0.771378
Si Si4 0.262812 0.810166 0.576790
Si Si5 0.311940 0.311940 0.000000
O O1 0.093136 0.373907 0.882816
O O2 0.084990 0.319743 0.786609
O O3 0.000000 0.500000 0.819822
O O4 0.909829 0.314331 0.841490
O O5 0.498901 0.874051 0.039871
O O6 0.685676 0.792035 0.035107
O O7 0.663094 0.005674 0.034812
O O8 0.719738 0.311005 0.799988
O O9 0.652434 0.356798 0.713138
O O10 0.310561 0.750000 0.625000
#
# Coordination Sequence:
#
# PCOD9551835 Si02
#       5
#    16  16  16  16   8
#     4  12  22  35  59  91 123 155 193 251 309 362
#     4  11  21  41  56  85 124 164 192 242 310 356
#     4  10  21  37  60  83 122 154 197 248 293 356
#     4  11  20  37  60  90 112 153 205 247 294 350
#     4  12  25  36  58  89 128 158 196 236 304 377
#
# _framework density 17.522738
#
# number of rings (size 3 to 8) (size 9 to 14) (size 15 to 20)
#    0.000    0.889    6.667    2.333    3.111    0.000 
#    0.000    2.222    0.000    2.667    0.000    0.000 
#    0.000    0.000    0.000    0.000    0.000    0.000 
#
# Total GULP energy -200991.796366 kJ/mol
# GULP energy per Si atom -5583.105455 kJ/mol
# Density = 1.748286 g / cm^3
# Si number density = 17.522738 Si / 1000 Ang^3
#
#
#
# Elastic Constant Matrix: (Units=GPa)
#
#
# Indices 1 2 3 4 5 6 
#
# 1 58.5735 16.3772 23.9672 0.0000 0.0000 0.0000
# 2 16.3772 58.5735 23.9672 0.0000 0.0000 0.0000
# 3 23.9672 23.9672 115.6739 0.0000 0.0000 0.0000
# 4 0.0000 0.0000 0.0000 23.3472 0.0000 0.0000
# 5 0.0000 0.0000 0.0000 0.0000 23.3472 0.0000
# 6 0.0000 0.0000 0.0000 0.0000 0.0000 10.1836
#
#
#
# Elastic Compliance Matrix: (Units=1/GPa)
#
#
# Indices 1 2 3 4 5 6 
#
# 1 0.019539 -0.004159 -0.003187 0.000000 0.000000 0.000000
# 2 -0.004159 0.019539 -0.003187 0.000000 0.000000 0.000000
# 3 -0.003187 -0.003187 0.009966 0.000000 0.000000 0.000000
# 4 0.000000 0.000000 0.000000 0.042832 0.000000 0.000000
# 5 0.000000 0.000000 0.000000 0.000000 0.042832 0.000000
# 6 0.000000 0.000000 0.000000 0.000000 0.000000 0.098197
#
#
# Mechanical properties :
#
#
# Convention : Reuss Voigt Hill
#
# Bulk Modulus (GPa) = 35.74108 40.16044 37.95076
# Shear Modulus (GPa) = 18.98997 22.60954 20.79975
#
# Velocity S-wave (km/s) = 3.29558 3.59597 3.44905
# Velocity P-wave (km/s) = 5.90952 6.34114 6.12913
#
# Compressibility (1/GPa) = 0.02797901
#
# Stress axis : x y z
#
# Youngs Moduli (GPa) = 51.17845 51.17845 100.34581
#
# Poissons Ratio (x) = 0.21287 0.31977
# Poissons Ratio (y) = 0.21287 0.31977
# Poissons Ratio (z) = 0.16309 0.16309
#
# Static dielectric constant tensor:
#      x y z
#    x 1.586890 0.000000 0.000000 
#    y 0.000000 1.586890 0.000000 
#    z 0.000000 0.000000 1.625670 
# 
# From -- ./inp_files/10784.got.cif
#   From: 2010.05.17/outbox.cif.g08.bks.cpg/sg98_6_cif.got.tgz:10784.got - 2010.06.03 20:00:51.
