data_PCOD9551463
_publ_section_title
;
Structure prediction by ZEFSAII (Michael W. Deem and Ramdas Pophale) SiO2 
 PCOD9551463
Probable space group: I 4 2 2 
;
_chemical_formula_sum "Si O2"
_cell_formula_units_Z 64
_cell_length_a 18.701293
_cell_length_b 18.701293
_cell_length_c 8.442536
_cell_angle_alpha 90.000000
_cell_angle_beta 90.000000
_cell_angle_gamma 90.000000
_cell_volume 2952.678694
_symmetry_space_group_name_H-M "I 4 2 2 "
_symmetry_group_IT_number 97
_symmetry_cell_setting 'tetragonal'
loop_
_space_group_symop_operation_xyz
x,y,z
-y,x,z
-x,-y,z
y,-x,z
x,-y,-z
-x,y,-z
y,x,-z
-y,-x,-z
1/2+x,1/2+y,1/2+z
1/2-y,1/2+x,1/2+z
1/2-x,1/2-y,1/2+z
1/2+y,1/2-x,1/2+z
1/2+x,1/2-y,1/2-z
1/2-x,1/2+y,1/2-z
1/2+y,1/2+x,1/2-z
1/2-y,1/2-x,1/2-z
loop_
_atom_site_type_symbol
_atom_site_label
_atom_site_fract_x
_atom_site_fract_y
_atom_site_fract_z
Si Si1 0.576746 0.232268 0.810426
Si Si2 0.610237 0.483156 0.187688
Si Si3 0.357581 0.043172 0.835061
Si Si4 0.297348 0.175741 0.008878
O O1 0.542367 0.309833 0.794512
O O2 0.511908 0.178405 0.785435
O O3 0.626396 0.215353 0.961570
O O4 0.629963 0.221669 0.663743
O O5 0.578858 0.557663 0.252319
O O6 0.603507 0.500000 0.000000
O O7 0.427490 0.072511 0.750000
O O8 0.308977 0.113360 0.878169
O O9 0.369071 0.000000 0.000000
O O10 0.236067 0.236067 0.000000
#
# Coordination Sequence:
#
# PCOD9551463 Si02
#       4
#    16  16  16  16
#     4  10  23  41  64  96 130 171 231 272 346 408
#     4   9  20  35  57  92 127 164 216 277 343 412
#     4  10  24  45  67  97 137 177 228 287 346 409
#     4  10  24  41  64  98 130 176 230 280 338 410
#
# _framework density 21.675234
#
# number of rings (size 3 to 8) (size 9 to 14) (size 15 to 20)
#    0.000    2.250    0.000    0.750   14.000    0.000 
#    0.000   18.750    0.000    0.000    0.000    0.000 
#    0.000    0.000    0.000    0.000    0.000    0.000 
#
# Total GULP energy -178406.407760 kJ/mol
# GULP energy per Si atom -5575.200243 kJ/mol
# Density = 2.162590 g / cm^3
# Si number density = 21.675234 Si / 1000 Ang^3
#
#
#
# Elastic Constant Matrix: (Units=GPa)
#
#
# Indices 1 2 3 4 5 6 
#
# 1 161.8218 99.2438 21.1355 0.0000 0.0000 0.0000
# 2 99.2438 161.8248 21.1371 0.0000 0.0000 0.0000
# 3 21.1355 21.1371 27.4370 0.0000 0.0000 0.0000
# 4 0.0000 0.0000 0.0000 11.9518 0.0000 0.0000
# 5 0.0000 0.0000 0.0000 0.0000 11.9489 0.0000
# 6 0.0000 0.0000 0.0000 0.0000 0.0000 30.3844
#
#
#
# Elastic Compliance Matrix: (Units=1/GPa)
#
#
# Indices 1 2 3 4 5 6 
#
# 1 0.010178 -0.005802 -0.003371 0.000000 0.000000 0.000000
# 2 -0.005802 0.010178 -0.003372 0.000000 0.000000 0.000000
# 3 -0.003371 -0.003372 0.041641 0.000000 0.000000 0.000000
# 4 0.000000 0.000000 0.000000 0.083669 0.000000 0.000000
# 5 0.000000 0.000000 0.000000 0.000000 0.083690 0.000000
# 6 0.000000 0.000000 0.000000 0.000000 0.000000 0.032912
#
#
# Mechanical properties :
#
#
# Convention : Reuss Voigt Hill
#
# Bulk Modulus (GPa) = 27.09386 70.45738 48.77562
# Shear Modulus (GPa) = 16.68561 24.82817 20.75689
#
# Velocity S-wave (km/s) = 2.77754 3.38814 3.09792
# Velocity P-wave (km/s) = 4.77633 6.91972 5.94541
#
# Compressibility (1/GPa) = 0.03690873
#
# Stress axis : x y z
#
# Youngs Moduli (GPa) = 98.25096 98.25136 24.01453
#
# Poissons Ratio (x) = 0.57002 0.08095
# Poissons Ratio (y) = 0.57002 0.08097
# Poissons Ratio (z) = 0.33119 0.33128
#
# Static dielectric constant tensor:
#      x y z
#    x 1.837450 0.000000 0.000000 
#    y 0.000000 1.837460 0.000000 
#    z 0.000000 0.000000 1.719610 
# 
# From -- ./inp_files/2076.got.cif
#   From: 2010.05.17/outbox.cif.g08.bks.cpg/sg97_2_cif.got.tgz:2076.got - 2010.06.03 19:55:32.
