data_PCOD9551374
_publ_section_title
;
Structure prediction by ZEFSAII (Michael W. Deem and Ramdas Pophale) SiO2 
 PCOD9551374
Probable space group: I 4 2 2 
;
_chemical_formula_sum "Si O2"
_cell_formula_units_Z 80
_cell_length_a 12.101000
_cell_length_b 12.101000
_cell_length_c 27.293177
_cell_angle_alpha 90.000000
_cell_angle_beta 90.000000
_cell_angle_gamma 90.000000
_cell_volume 3996.654567
_symmetry_space_group_name_H-M "I 4 2 2 "
_symmetry_group_IT_number 97
_symmetry_cell_setting 'tetragonal'
loop_
_space_group_symop_operation_xyz
x,y,z
-y,x,z
-x,-y,z
y,-x,z
x,-y,-z
-x,y,-z
y,x,-z
-y,-x,-z
1/2+x,1/2+y,1/2+z
1/2-y,1/2+x,1/2+z
1/2-x,1/2-y,1/2+z
1/2+y,1/2-x,1/2+z
1/2+x,1/2-y,1/2-z
1/2-x,1/2+y,1/2-z
1/2+y,1/2+x,1/2-z
1/2-y,1/2-x,1/2-z
loop_
_atom_site_type_symbol
_atom_site_label
_atom_site_fract_x
_atom_site_fract_y
_atom_site_fract_z
Si Si1 0.736117 0.068483 0.047732
Si Si2 0.221972 0.651593 0.406125
Si Si3 0.667581 0.422481 0.733115
Si Si4 0.174432 0.277086 0.328504
Si Si5 0.877793 0.478640 0.911281
O O1 0.799678 0.179205 0.061080
O O2 0.607707 0.102048 0.045083
O O3 0.744835 0.979957 0.092397
O O4 0.770081 0.000000 0.000000
O O5 0.222436 0.720229 0.355899
O O6 0.097936 0.666809 0.426141
O O7 0.641614 0.551431 0.725128
O O8 0.766905 0.379693 0.698899
O O9 0.704691 0.388030 0.787965
O O10 0.087219 0.308989 0.370568
O O11 0.000000 0.500000 0.889577
#
# Coordination Sequence:
#
# PCOD9551374 Si02
#       5
#    16  16  16  16  16
#     4  10  21  38  60  90 123 160 201 258 310 370
#     4  10  21  36  60  85 121 160 204 248 302 381
#     4  10  22  37  56  83 119 159 203 260 321 375
#     4  10  21  38  58  84 117 156 207 257 306 371
#     4   9  20  36  57  85 116 159 204 243 304 370
#
# _framework density 20.016742000000001
#
# number of rings (size 3 to 8) (size 9 to 14) (size 15 to 20)
#    0.000    2.200    0.000    1.800    8.400    4.000 
#    0.000    2.000    0.000    5.400    0.000    0.000 
#    0.000   64.000    0.000    0.000    0.000    0.000 
#
# Total GULP energy -222853.707689 kJ/mol
# GULP energy per Si atom -5571.342692 kJ/mol
# Density = 1.997118 g / cm^3
# Si number density = 20.016742 Si / 1000 Ang^3
#
#
#
# Elastic Constant Matrix: (Units=GPa)
#
#
# Indices 1 2 3 4 5 6 
#
# 1 84.6962 64.5398 15.1147 0.0000 0.0000 0.0000
# 2 64.5398 84.6962 15.1147 0.0000 0.0000 0.0000
# 3 15.1147 15.1147 51.7751 0.0000 0.0000 0.0000
# 4 0.0000 0.0000 0.0000 24.7617 0.0000 0.0000
# 5 0.0000 0.0000 0.0000 0.0000 24.7617 0.0000
# 6 0.0000 0.0000 0.0000 0.0000 0.0000 21.5921
#
#
#
# Elastic Compliance Matrix: (Units=1/GPa)
#
#
# Indices 1 2 3 4 5 6 
#
# 1 0.028367 -0.021245 -0.002079 0.000000 0.000000 0.000000
# 2 -0.021245 0.028367 -0.002079 0.000000 0.000000 0.000000
# 3 -0.002079 -0.002079 0.020528 0.000000 0.000000 0.000000
# 4 0.000000 0.000000 0.000000 0.040385 0.000000 0.000000
# 5 0.000000 0.000000 0.000000 0.000000 0.040385 0.000000
# 6 0.000000 0.000000 0.000000 0.000000 0.000000 0.046313
#
#
# Mechanical properties :
#
#
# Convention : Reuss Voigt Hill
#
# Bulk Modulus (GPa) = 37.79911 45.63399 41.71655
# Shear Modulus (GPa) = 18.94151 22.64966 20.79559
#
# Velocity S-wave (km/s) = 3.07951 3.36748 3.22671
# Velocity P-wave (km/s) = 5.61865 6.16176 5.89646
#
# Compressibility (1/GPa) = 0.02645565
#
# Stress axis : x y z
#
# Youngs Moduli (GPa) = 35.25219 35.25219 48.71347
#
# Poissons Ratio (x) = 0.74894 0.10128
# Poissons Ratio (y) = 0.74894 0.10128
# Poissons Ratio (z) = 0.07329 0.07329
#
# Static dielectric constant tensor:
#      x y z
#    x 1.718340 0.000000 0.000000 
#    y 0.000000 1.718340 0.000000 
#    z 0.000000 0.000000 1.764110 
# 
# From -- ./inp_files/7944.got.cif
#   From: 2010.05.17/outbox.cif.g08.bks.cpg/sg97_4_cif.got.tgz:7944.got - 2010.06.03 19:55:32.
