data_PCOD9551555
_publ_section_title
;
Structure prediction by ZEFSAII (Michael W. Deem and Ramdas Pophale) SiO2 
 PCOD9551555
Probable space group: I 4 2 2 
;
_chemical_formula_sum "Si O2"
_cell_formula_units_Z 32
_cell_length_a 13.534024
_cell_length_b 13.534024
_cell_length_c 7.635712
_cell_angle_alpha 90.000000
_cell_angle_beta 90.000000
_cell_angle_gamma 90.000000
_cell_volume 1398.631883
_symmetry_space_group_name_H-M "I 4 2 2 "
_symmetry_group_IT_number 97
_symmetry_cell_setting 'tetragonal'
loop_
_space_group_symop_operation_xyz
x,y,z
-y,x,z
-x,-y,z
y,-x,z
x,-y,-z
-x,y,-z
y,x,-z
-y,-x,-z
1/2+x,1/2+y,1/2+z
1/2-y,1/2+x,1/2+z
1/2-x,1/2-y,1/2+z
1/2+y,1/2-x,1/2+z
1/2+x,1/2-y,1/2-z
1/2-x,1/2+y,1/2-z
1/2+y,1/2+x,1/2-z
1/2-y,1/2-x,1/2-z
loop_
_atom_site_type_symbol
_atom_site_label
_atom_site_fract_x
_atom_site_fract_y
_atom_site_fract_z
Si Si1 0.361003 0.713632 0.311970
Si Si2 0.718727 0.059743 0.680527
O O1 0.320947 0.679054 0.500000
O O2 0.316981 0.816981 0.250000
O O3 0.308919 0.637669 0.178071
O O4 0.476232 0.733856 0.305038
O O5 0.623658 0.123658 0.750000
O O6 0.698958 0.000000 0.500000
#
# Coordination Sequence:
#
# PCOD9551555 Si02
#       2
#    16  16
#     4  11  23  43  67 100 141 182 227 286 348 411
#     4  11  24  45  72 102 138 184 234 286 345 415
#
# _framework density 22.879503
#
# number of rings (size 3 to 8) (size 9 to 14) (size 15 to 20)
#    0.000    1.000    0.000    9.000    0.000    2.000 
#    0.000   15.000    0.000    0.000    0.000    0.000 
#    0.000    0.000    0.000    0.000    0.000    0.000 
#
# Total GULP energy -89184.634078 kJ/mol
# GULP energy per Si atom -5574.039630 kJ/mol
# Density = 2.282743 g / cm^3
# Si number density = 22.879503 Si / 1000 Ang^3
#
#
#
# Elastic Constant Matrix: (Units=GPa)
#
#
# Indices 1 2 3 4 5 6 
#
# 1 139.1374 50.2132 54.8966 0.0000 0.0000 0.0000
# 2 50.2132 139.1374 54.8967 0.0000 0.0000 0.0000
# 3 54.8966 54.8967 188.9758 0.0000 0.0000 0.0000
# 4 0.0000 0.0000 0.0000 39.0847 0.0000 0.0000
# 5 0.0000 0.0000 0.0000 0.0000 39.0867 0.0000
# 6 0.0000 0.0000 0.0000 0.0000 0.0000 21.3184
#
#
#
# Elastic Compliance Matrix: (Units=1/GPa)
#
#
# Indices 1 2 3 4 5 6 
#
# 1 0.008798 -0.002447 -0.001845 0.000000 0.000000 0.000000
# 2 -0.002447 0.008798 -0.001845 0.000000 0.000000 0.000000
# 3 -0.001845 -0.001845 0.006364 0.000000 0.000000 0.000000
# 4 0.000000 0.000000 0.000000 0.025585 0.000000 0.000000
# 5 0.000000 0.000000 0.000000 0.000000 0.025584 0.000000
# 6 0.000000 0.000000 0.000000 0.000000 0.000000 0.046908
#
#
# Mechanical properties :
#
#
# Convention : Reuss Voigt Hill
#
# Bulk Modulus (GPa) = 85.57393 87.47371 86.52382
# Shear Modulus (GPa) = 36.17760 40.38090 38.27925
#
# Velocity S-wave (km/s) = 3.98077 4.20567 4.09477
# Velocity P-wave (km/s) = 7.65584 7.86759 7.76244
#
# Compressibility (1/GPa) = 0.01168580
#
# Stress axis : x y z
#
# Youngs Moduli (GPa) = 113.65894 113.65888 157.14446
#
# Poissons Ratio (x) = 0.27816 0.28992
# Poissons Ratio (y) = 0.27816 0.28992
# Poissons Ratio (z) = 0.20969 0.20969
#
# Static dielectric constant tensor:
#      x y z
#    x 1.745220 0.000000 0.000000 
#    y 0.000000 1.745220 0.000000 
#    z 0.000000 0.000000 2.059540 
# 
# From -- ./inp_files/1312.got.cif
#   From: 2010.05.17/outbox.cif.g08.bks.cpg/sg97_1_cif.got.tgz:1312.got - 2010.06.03 19:55:32.
