data_PCOD9551253
_publ_section_title
;
Structure prediction by ZEFSAII (Michael W. Deem and Ramdas Pophale) SiO2 
 PCOD9551253
Probable space group: I 4 2 2 
;
_chemical_formula_sum "Si O2"
_cell_formula_units_Z 80
_cell_length_a 24.249495
_cell_length_b 24.249495
_cell_length_c 8.294970
_cell_angle_alpha 90.000000
_cell_angle_beta 90.000000
_cell_angle_gamma 90.000000
_cell_volume 4877.757633
_symmetry_space_group_name_H-M "I 4 2 2 "
_symmetry_group_IT_number 97
_symmetry_cell_setting 'tetragonal'
loop_
_space_group_symop_operation_xyz
x,y,z
-y,x,z
-x,-y,z
y,-x,z
x,-y,-z
-x,y,-z
y,x,-z
-y,-x,-z
1/2+x,1/2+y,1/2+z
1/2-y,1/2+x,1/2+z
1/2-x,1/2-y,1/2+z
1/2+y,1/2-x,1/2+z
1/2+x,1/2-y,1/2-z
1/2-x,1/2+y,1/2-z
1/2+y,1/2+x,1/2-z
1/2-y,1/2-x,1/2-z
loop_
_atom_site_type_symbol
_atom_site_label
_atom_site_fract_x
_atom_site_fract_y
_atom_site_fract_z
Si Si1 0.719718 0.405445 0.189626
Si Si2 0.636282 0.729384 0.539947
Si Si3 0.565187 0.434814 0.500000
Si Si4 0.675785 0.500000 0.000000
Si Si5 0.600723 0.356191 0.214769
Si Si6 0.307707 0.221709 0.064500
O O1 0.730987 0.401155 0.380110
O O2 0.711384 0.466951 0.130045
O O3 0.662117 0.372643 0.159907
O O4 0.764208 0.371743 0.084616
O O5 0.684208 0.684208 0.500000
O O6 0.606301 0.703119 0.694254
O O7 0.670216 0.786582 0.542398
O O8 0.575062 0.500000 0.500000
O O9 0.588625 0.403101 0.346895
O O10 0.643608 0.548925 0.093328
O O11 0.288644 0.211357 0.250000
O O12 0.274237 0.274237 0.000000
#
# Coordination Sequence:
#
# PCOD9551253 Si02
#       6
#    16  16   8   8  16  16
#     4  10  19  33  44  68  93 118 152 194 240 288
#     4   8  16  31  52  67  84 115 152 189 240 297
#     4  11  22  34  50  62  80 124 176 214 248 288
#     4  12  24  28  48  67  92 120 148 207 246 278
#     4  11  20  36  50  66  87 121 165 207 249 292
#     4   9  16  27  47  69  91 112 143 189 236 291
#
# _framework density 16.400980000000001
#
# number of rings (size 3 to 8) (size 9 to 14) (size 15 to 20)
#    0.000    2.100    3.000    4.200    0.000    0.000 
#    0.000    0.000    0.000    1.200    0.000    0.000 
#    0.000    0.000    0.000    0.000    0.000  108.000 
#
# Total GULP energy -222829.327648 kJ/mol
# GULP energy per Si atom -5570.733191 kJ/mol
# Density = 1.636365 g / cm^3
# Si number density = 16.400980 Si / 1000 Ang^3
#
#
#
# Elastic Constant Matrix: (Units=GPa)
#
#
# Indices 1 2 3 4 5 6 
#
# 1 43.3561 33.6898 18.1619 0.0000 0.0000 0.0000
# 2 33.6898 43.3570 18.1622 0.0000 0.0000 0.0000
# 3 18.1619 18.1622 43.9054 0.0000 0.0000 0.0000
# 4 0.0000 0.0000 0.0000 21.5141 0.0000 0.0000
# 5 0.0000 0.0000 0.0000 0.0000 21.5133 0.0000
# 6 0.0000 0.0000 0.0000 0.0000 0.0000 20.9730
#
#
#
# Elastic Compliance Matrix: (Units=1/GPa)
#
#
# Indices 1 2 3 4 5 6 
#
# 1 0.059786 -0.043662 -0.006670 0.000000 0.000000 0.000000
# 2 -0.043662 0.059785 -0.006670 0.000000 0.000000 0.000000
# 3 -0.006670 -0.006670 0.028294 0.000000 0.000000 0.000000
# 4 0.000000 0.000000 0.000000 0.046481 0.000000 0.000000
# 5 0.000000 0.000000 0.000000 0.000000 0.046483 0.000000
# 6 0.000000 0.000000 0.000000 0.000000 0.000000 0.047680
#
#
# Mechanical properties :
#
#
# Convention : Reuss Voigt Hill
#
# Bulk Modulus (GPa) = 29.53108 30.07181 29.80144
# Shear Modulus (GPa) = 12.08311 16.84038 14.46175
#
# Velocity S-wave (km/s) = 2.71722 3.20783 2.97267
# Velocity P-wave (km/s) = 5.28102 5.66528 5.47652
#
# Compressibility (1/GPa) = 0.03386263
#
# Stress axis : x y z
#
# Youngs Moduli (GPa) = 16.72627 16.72653 35.34276
#
# Poissons Ratio (x) = 0.73031 0.23572
# Poissons Ratio (y) = 0.73030 0.23574
# Poissons Ratio (z) = 0.11156 0.11157
#
# Static dielectric constant tensor:
#      x y z
#    x 1.564200 0.000000 0.000000 
#    y 0.000000 1.564200 0.000000 
#    z 0.000000 0.000000 1.650280 
# 
# From -- ./inp_files/2419.got.cif
#   From: 2010.05.17/outbox.cif.g08.bks.cpg/sg97_2_cif.got.tgz:2419.got - 2010.06.03 19:55:32.
