data_PCOD9551239
_publ_section_title
;
Structure prediction by ZEFSAII (Michael W. Deem and Ramdas Pophale) SiO2 
 PCOD9551239
Probable space group: I 4 2 2 
;
_chemical_formula_sum "Si O2"
_cell_formula_units_Z 92
_cell_length_a 24.053829
_cell_length_b 24.053829
_cell_length_c 8.227829
_cell_angle_alpha 90.000000
_cell_angle_beta 90.000000
_cell_angle_gamma 90.000000
_cell_volume 4760.512343
_symmetry_space_group_name_H-M "I 4 2 2 "
_symmetry_group_IT_number 97
_symmetry_cell_setting 'tetragonal'
loop_
_space_group_symop_operation_xyz
x,y,z
-y,x,z
-x,-y,z
y,-x,z
x,-y,-z
-x,y,-z
y,x,-z
-y,-x,-z
1/2+x,1/2+y,1/2+z
1/2-y,1/2+x,1/2+z
1/2-x,1/2-y,1/2+z
1/2+y,1/2-x,1/2+z
1/2+x,1/2-y,1/2-z
1/2-x,1/2+y,1/2-z
1/2+y,1/2+x,1/2-z
1/2-y,1/2-x,1/2-z
loop_
_atom_site_type_symbol
_atom_site_label
_atom_site_fract_x
_atom_site_fract_y
_atom_site_fract_z
Si Si1 0.333365 0.788428 0.076634
Si Si2 0.338858 0.355740 0.169445
Si Si3 0.312356 0.954470 0.364310
Si Si4 0.262980 0.347024 0.590114
Si Si5 0.449020 0.713564 0.381159
Si Si6 0.500000 0.000000 0.000000
Si Si7 0.930676 0.430676 0.750000
O O1 0.314049 0.814049 0.250000
O O2 0.337791 0.723550 0.117921
O O3 0.395884 0.806013 0.043563
O O4 0.292103 0.809769 0.935880
O O5 0.361795 0.298716 0.250053
O O6 0.332223 0.409371 0.288791
O O7 0.369077 0.369077 0.000000
O O8 0.257571 0.966956 0.257086
O O9 0.365747 0.944805 0.251388
O O10 0.321984 0.000000 0.500000
O O11 0.308389 0.308389 0.500000
O O12 0.254584 0.403942 0.493408
O O13 0.500000 0.695961 0.500000
O O14 0.460398 0.959722 0.100044
#
# Coordination Sequence:
#
# PCOD9551239 Si02
#       7
#    16  16  16  16  16   4   8
#     4  11  18  34  57  86 113 147 202 258 297 365
#     4  10  22  35  60  88 121 153 198 248 296 352
#     4  11  22  38  58  75 112 152 197 255 316 364
#     4  10  18  35  59  84 115 157 190 244 304 339
#     4  10  22  38  56  82 118 156 192 232 291 372
#     4  10  24  34  56  74  88 126 212 270 328 346
#     4  11  20  40  54  74  94 136 202 270 316 358
#
# _framework density 19.325648999999999
#
# number of rings (size 3 to 8) (size 9 to 14) (size 15 to 20)
#    0.000    1.565    6.957    0.522    1.217    2.783 
#    0.000    1.739    3.826    0.000    0.000    0.000 
#    0.000   28.174    0.000   76.696    0.000    2.087 
#
# Total GULP energy -256215.676655 kJ/mol
# GULP energy per Si atom -5569.906014 kJ/mol
# Density = 1.928166 g / cm^3
# Si number density = 19.325649 Si / 1000 Ang^3
#
#
#
# Elastic Constant Matrix: (Units=GPa)
#
#
# Indices 1 2 3 4 5 6 
#
# 1 59.7041 20.7871 23.8226 0.0000 0.0000 0.0000
# 2 20.7871 59.7041 23.8226 0.0000 0.0000 0.0000
# 3 23.8226 23.8226 87.4630 0.0000 0.0000 0.0000
# 4 0.0000 0.0000 0.0000 31.4290 0.0000 0.0000
# 5 0.0000 0.0000 0.0000 0.0000 31.4290 0.0000
# 6 0.0000 0.0000 0.0000 0.0000 0.0000 15.5412
#
#
#
# Elastic Compliance Matrix: (Units=1/GPa)
#
#
# Indices 1 2 3 4 5 6 
#
# 1 0.020254 -0.005442 -0.004034 0.000000 0.000000 0.000000
# 2 -0.005442 0.020254 -0.004034 0.000000 0.000000 0.000000
# 3 -0.004034 -0.004034 0.013631 0.000000 0.000000 0.000000
# 4 0.000000 0.000000 0.000000 0.031818 0.000000 0.000000
# 5 0.000000 0.000000 0.000000 0.000000 0.031818 0.000000
# 6 0.000000 0.000000 0.000000 0.000000 0.000000 0.064345
#
#
# Mechanical properties :
#
#
# Convention : Reuss Voigt Hill
#
# Bulk Modulus (GPa) = 36.87683 38.19286 37.53484
# Shear Modulus (GPa) = 22.91692 24.90912 23.91302
#
# Velocity S-wave (km/s) = 3.44732 3.59404 3.52145
# Velocity P-wave (km/s) = 5.91343 6.08511 5.99988
#
# Compressibility (1/GPa) = 0.02711730
#
# Stress axis : x y z
#
# Youngs Moduli (GPa) = 49.37368 49.37368 73.36173
#
# Poissons Ratio (x) = 0.26869 0.29596
# Poissons Ratio (y) = 0.26869 0.29596
# Poissons Ratio (z) = 0.19919 0.19919
#
# Static dielectric constant tensor:
#      x y z
#    x 1.686750 0.000000 0.000000 
#    y 0.000000 1.686750 0.000000 
#    z 0.000000 0.000000 1.815600 
# 
# From -- ./inp_files/2497.got.cif
#   From: 2010.05.17/outbox.cif.g08.bks.cpg/sg97_2_cif.got.tgz:2497.got - 2010.06.03 19:55:32.
