data_PCOD9551780
_publ_section_title
;
Structure prediction by ZEFSAII (Michael W. Deem and Ramdas Pophale) SiO2 
 PCOD9551780
Probable space group: I 41 2 2
;
_chemical_formula_sum "Si O2"
_cell_formula_units_Z 128
_cell_length_a 19.046813
_cell_length_b 19.046813
_cell_length_c 19.012952
_cell_angle_alpha 90.000000
_cell_angle_beta 90.000000
_cell_angle_gamma 90.000000
_cell_volume 6897.539364
_symmetry_space_group_name_H-M "I 41 2 2"
_symmetry_group_IT_number 98
_symmetry_cell_setting 'tetragonal'
loop_
_space_group_symop_operation_xyz
x,y,z
-y,1/2+x,1/4+z
-x,-y,z
y,1/2-x,1/4+z
x,1/2-y,1/4-z
-x,1/2+y,1/4-z
y,x,-z
-y,-x,-z
1/2+x,1/2+y,1/2+z
1/2-y,x,3/4+z
1/2-x,1/2-y,1/2+z
1/2+y,-x,3/4+z
1/2+x,-y,3/4-z
1/2-x,y,3/4-z
1/2+y,1/2+x,1/2-z
1/2-y,1/2-x,1/2-z
loop_
_atom_site_type_symbol
_atom_site_label
_atom_site_fract_x
_atom_site_fract_y
_atom_site_fract_z
Si Si1 0.018274 0.574816 0.938691
Si Si2 0.299728 0.777410 0.939348
Si Si3 0.781430 0.969144 0.171026
Si Si4 0.495319 0.170081 0.651210
Si Si5 0.337806 0.580002 0.061508
Si Si6 0.892030 0.865859 0.222196
Si Si7 0.590038 0.110000 0.926520
Si Si8 0.212339 0.402219 0.229506
O O1 0.058978 0.620490 0.881594
O O2 0.000000 0.500000 0.906070
O O3 0.063799 0.561820 0.009035
O O4 0.948380 0.611128 0.968983
O O5 0.250000 0.794352 0.875000
O O6 0.355095 0.714895 0.923947
O O7 0.345937 0.844620 0.957692
O O8 0.250084 0.749917 0.000000
O O9 0.824840 0.916414 0.221370
O O10 0.770725 0.923835 0.100311
O O11 0.713533 0.011530 0.201372
O O12 0.836913 0.030475 0.152381
O O13 0.508479 0.250000 0.625000
O O14 0.432941 0.136011 0.603207
O O15 0.561490 0.121540 0.634495
O O16 0.470456 0.181601 0.730284
O O17 0.390576 0.609424 0.000000
O O18 0.876746 0.784919 0.236318
O O19 0.156798 0.343203 0.250000
#
# Coordination Sequence:
#
# PCOD9551780 Si02
#       8
#    16  16  16  16  16  16  16  16
#     4  11  20  37  65  88 115 157 201 249 316 366
#     4  10  20  37  57  83 121 162 204 247 297 355
#     4  11  21  38  60  89 123 161 213 255 306 375
#     4   9  19  33  51  84 125 164 206 247 290 360
#     4  10  23  41  63  91 119 154 201 265 317 373
#     4  10  20  37  60  87 122 157 205 248 302 372
#     4  10  21  34  55  87 122 166 207 249 296 358
#     4  11  21  36  61  89 122 169 204 252 310 365
#
# _framework density 18.557342999999999
#
# number of rings (size 3 to 8) (size 9 to 14) (size 15 to 20)
#    0.000    1.750    3.750    1.125    0.000    0.750 
#    4.500    0.625    2.750    0.000    0.000    0.000 
#    0.000    0.000    0.000    0.000    0.000    0.000 
#
# Total GULP energy -356610.656977 kJ/mol
# GULP energy per Si atom -5572.041515 kJ/mol
# Density = 1.851511 g / cm^3
# Si number density = 18.557343 Si / 1000 Ang^3
#
#
#
# Elastic Constant Matrix: (Units=GPa)
#
#
# Indices 1 2 3 4 5 6 
#
# 1 65.8340 27.5980 16.4414 0.0000 0.0000 0.0000
# 2 27.5980 65.8317 16.4417 0.0000 0.0000 0.0000
# 3 16.4414 16.4417 44.4458 0.0000 0.0000 0.0000
# 4 0.0000 0.0000 0.0000 22.7561 0.0000 0.0000
# 5 0.0000 0.0000 0.0000 0.0000 22.7564 0.0000
# 6 0.0000 0.0000 0.0000 0.0000 0.0000 20.9649
#
#
#
# Elastic Compliance Matrix: (Units=1/GPa)
#
#
# Indices 1 2 3 4 5 6 
#
# 1 0.019229 -0.006924 -0.004552 0.000000 0.000000 0.000000
# 2 -0.006924 0.019230 -0.004552 0.000000 0.000000 0.000000
# 3 -0.004552 -0.004552 0.025867 0.000000 0.000000 0.000000
# 4 0.000000 0.000000 0.000000 0.043944 0.000000 0.000000
# 5 0.000000 0.000000 0.000000 0.000000 0.043944 0.000000
# 6 0.000000 0.000000 0.000000 0.000000 0.000000 0.047699
#
#
# Mechanical properties :
#
#
# Convention : Reuss Voigt Hill
#
# Bulk Modulus (GPa) = 30.98898 33.00818 31.99858
# Shear Modulus (GPa) = 20.59931 21.00417 20.80174
#
# Velocity S-wave (km/s) = 3.33533 3.36795 3.35168
# Velocity P-wave (km/s) = 5.61853 5.74020 5.67969
#
# Compressibility (1/GPa) = 0.03226954
#
# Stress axis : x y z
#
# Youngs Moduli (GPa) = 52.00409 52.00187 38.65918
#
# Poissons Ratio (x) = 0.36009 0.17597
# Poissons Ratio (y) = 0.36010 0.17599
# Poissons Ratio (z) = 0.23671 0.23672
#
# Static dielectric constant tensor:
#      x y z
#    x 1.652340 0.000000 0.000000 
#    y 0.000000 1.652340 0.000000 
#    z 0.000000 0.000000 1.618480 
# 
# From -- ./inp_files/7922.got.cif
#   From: 2010.05.17/outbox.cif.g08.bks.cpg/sg98_4_cif.got.tgz:7922.got - 2010.06.03 20:00:51.
