data_PCOD9551228
_publ_section_title
;
Structure prediction by ZEFSAII (Michael W. Deem and Ramdas Pophale) SiO2 
 PCOD9551228
Probable space group: I 4 2 2 
;
_chemical_formula_sum "Si O2"
_cell_formula_units_Z 88
_cell_length_a 30.960727
_cell_length_b 30.960727
_cell_length_c 5.360997
_cell_angle_alpha 90.000000
_cell_angle_beta 90.000000
_cell_angle_gamma 90.000000
_cell_volume 5138.872755
_symmetry_space_group_name_H-M "I 4 2 2 "
_symmetry_group_IT_number 97
_symmetry_cell_setting 'tetragonal'
loop_
_space_group_symop_operation_xyz
x,y,z
-y,x,z
-x,-y,z
y,-x,z
x,-y,-z
-x,y,-z
y,x,-z
-y,-x,-z
1/2+x,1/2+y,1/2+z
1/2-y,1/2+x,1/2+z
1/2-x,1/2-y,1/2+z
1/2+y,1/2-x,1/2+z
1/2+x,1/2-y,1/2-z
1/2-x,1/2+y,1/2-z
1/2+y,1/2+x,1/2-z
1/2-y,1/2-x,1/2-z
loop_
_atom_site_type_symbol
_atom_site_label
_atom_site_fract_x
_atom_site_fract_y
_atom_site_fract_z
Si Si1 0.269066 0.730935 0.500000
Si Si2 0.251776 0.118566 0.622920
Si Si3 0.368325 0.418464 0.689808
Si Si4 0.782181 0.650764 0.628186
Si Si5 0.162113 0.162113 0.500000
Si Si6 0.363144 0.500000 0.000000
Si Si7 0.205481 0.040442 0.874709
O O1 0.259833 0.759833 0.250000
O O2 0.316084 0.742016 0.600087
O O3 0.271451 0.116987 0.345807
O O4 0.210339 0.150970 0.593968
O O5 0.233540 0.073162 0.716206
O O6 0.284380 0.133653 0.844478
O O7 0.406401 0.406401 0.500000
O O8 0.383981 0.457382 0.872043
O O9 0.322926 0.434414 0.576385
O O10 0.353214 0.372460 0.795289
O O11 0.820319 0.679682 0.750000
O O12 0.331938 0.520714 0.795786
O O13 0.229475 0.000000 0.000000
#
# Coordination Sequence:
#
# PCOD9551228 Si02
#       7
#     8  16  16  16   8   8  16
#     4  10  18  33  48  62  92 132 166 205 243 280
#     4  12  22  35  54  74  99 142 165 213 258 301
#     4  11  19  34  51  74 107 129 158 202 256 324
#     4  11  23  36  49  70 100 135 179 209 245 297
#     4  12  22  31  50  80 102 125 176 199 246 322
#     4  10  20  36  50  72 106 131 148 210 264 318
#     4  10  22  34  52  73 104 127 161 206 262 319
#
# _framework density 17.124378
#
# number of rings (size 3 to 8) (size 9 to 14) (size 15 to 20)
#    0.000    1.091    3.636    4.909    2.545    0.727 
#    0.000    0.000    0.000    0.000    0.000    0.000 
#    0.000  424.727    0.000    0.000    0.000    0.000 
#
# Total GULP energy -245168.052900 kJ/mol
# GULP energy per Si atom -5572.001202 kJ/mol
# Density = 1.708540 g / cm^3
# Si number density = 17.124378 Si / 1000 Ang^3
#
#
#
# Elastic Constant Matrix: (Units=GPa)
#
#
# Indices 1 2 3 4 5 6 
#
# 1 -5.1432 51.4193 17.9417 0.0000 0.0000 0.0000
# 2 51.4193 -5.1447 17.9419 0.0000 0.0000 0.0000
# 3 17.9417 17.9419 98.9640 0.0000 0.0000 0.0000
# 4 0.0000 0.0000 0.0000 19.1730 0.0000 0.0000
# 5 0.0000 0.0000 0.0000 0.0000 19.1740 0.0000
# 6 0.0000 0.0000 0.0000 0.0000 0.0000 14.9081
#
#
#
# Elastic Compliance Matrix: (Units=1/GPa)
#
#
# Indices 1 2 3 4 5 6 
#
# 1 0.003733 0.021412 -0.004559 0.000000 0.000000 0.000000
# 2 0.021412 0.003732 -0.004559 0.000000 0.000000 0.000000
# 3 -0.004559 -0.004559 0.011758 0.000000 0.000000 0.000000
# 4 0.000000 0.000000 0.000000 0.052157 0.000000 0.000000
# 5 0.000000 0.000000 0.000000 0.000000 0.052154 0.000000
# 6 0.000000 0.000000 0.000000 0.000000 0.000000 0.067077
#
#
# Mechanical properties :
#
#
# Convention : Reuss Voigt Hill
#
# Bulk Modulus (GPa) = 22.82457 29.25355 26.03906
# Shear Modulus (GPa) = 27.68154 10.74257 19.21205
#
# Velocity S-wave (km/s) = 4.02493 2.50737 3.35313
# Velocity P-wave (km/s) = 5.91251 5.05001 5.49820
#
# Compressibility (1/GPa) = 0.04381244
#
# Stress axis : x y z
#
# Youngs Moduli (GPa) = 267.87767 267.92956 85.05126
#
# Poissons Ratio (x) = -5.73691 0.38773
# Poissons Ratio (y) = -5.73580 0.38771
# Poissons Ratio (z) = 1.22118 1.22137
#
# Static dielectric constant tensor:
#      x y z
#    x 1.613840 0.000000 0.000000 
#    y 0.000000 1.613840 0.000000 
#    z 0.000000 0.000000 1.678730 
# 
# From -- ./inp_files/1104.got.cif
#   From: 2010.05.17/outbox.cif.g08.bks.cpg/sg97_1_cif.got.tgz:1104.got - 2010.06.03 19:55:32.
