data_PCOD9551974
_publ_section_title
;
Structure prediction by ZEFSAII (Michael W. Deem and Ramdas Pophale) SiO2 
 PCOD9551974
Probable space group: I 41 2 2
;
_chemical_formula_sum "Si O2"
_cell_formula_units_Z 88
_cell_length_a 15.009649
_cell_length_b 15.009649
_cell_length_c 18.908191
_cell_angle_alpha 90.000000
_cell_angle_beta 90.000000
_cell_angle_gamma 90.000000
_cell_volume 4259.818089
_symmetry_space_group_name_H-M "I 41 2 2"
_symmetry_group_IT_number 98
_symmetry_cell_setting 'tetragonal'
loop_
_space_group_symop_operation_xyz
x,y,z
-y,1/2+x,1/4+z
-x,-y,z
y,1/2-x,1/4+z
x,1/2-y,1/4-z
-x,1/2+y,1/4-z
y,x,-z
-y,-x,-z
1/2+x,1/2+y,1/2+z
1/2-y,x,3/4+z
1/2-x,1/2-y,1/2+z
1/2+y,-x,3/4+z
1/2+x,-y,3/4-z
1/2-x,y,3/4-z
1/2+y,1/2+x,1/2-z
1/2-y,1/2-x,1/2-z
loop_
_atom_site_type_symbol
_atom_site_label
_atom_site_fract_x
_atom_site_fract_y
_atom_site_fract_z
Si Si1 0.843368 0.136242 0.915119
Si Si2 0.353065 0.291489 0.773961
Si Si3 0.921492 0.750000 0.625000
Si Si4 0.503529 0.354888 0.014239
Si Si5 0.509393 0.725475 0.364521
Si Si6 0.910626 0.540153 0.414107
O O1 0.750000 0.148337 0.875000
O O2 0.908523 0.213062 0.887109
O O3 0.874615 0.037446 0.887371
O O4 0.852134 0.147867 0.000000
O O5 0.295497 0.204504 0.750000
O O6 0.282784 0.357933 0.811451
O O7 0.425953 0.278760 0.834773
O O8 0.412579 0.335126 0.711777
O O9 0.985850 0.825008 0.594020
O O10 0.426803 0.426803 0.000000
O O11 0.596572 0.403429 0.000000
O O12 0.491304 0.271537 0.961625
O O13 0.548809 0.626317 0.373193
O O14 0.000000 0.500000 0.452651
#
# Coordination Sequence:
#
# PCOD9551974 Si02
#       6
#    16  16   8  16  16  16
#     4  11  26  48  72 102 146 195 248 300 372 462
#     4  12  24  39  72 110 146 184 243 312 384 451
#     4  12  22  44  68 100 146 186 242 308 376 444
#     4  11  24  46  68 100 140 185 243 299 365 441
#     4  11  24  43  67 103 140 183 238 297 370 439
#     4  10  24  43  67  99 146 186 240 296 378 452
#
# _framework density 20.658159999999999
#
# number of rings (size 3 to 8) (size 9 to 14) (size 15 to 20)
#    0.000    0.909    3.636    2.727    5.091    4.727 
#    4.909    0.000    0.000    0.000    0.000    0.000 
#    0.000    0.000    0.000    0.000    0.000    0.000 
#
# Total GULP energy -245136.875681 kJ/mol
# GULP energy per Si atom -5571.292629 kJ/mol
# Density = 2.061114 g / cm^3
# Si number density = 20.658160 Si / 1000 Ang^3
#
#
#
# Elastic Constant Matrix: (Units=GPa)
#
#
# Indices 1 2 3 4 5 6 
#
# 1 117.3504 -5.1953 32.2352 0.0000 0.0000 0.0000
# 2 -5.1953 117.3564 32.2376 0.0000 0.0000 0.0000
# 3 32.2352 32.2376 81.4492 0.0000 0.0000 0.0000
# 4 0.0000 0.0000 0.0000 26.3366 0.0000 0.0000
# 5 0.0000 0.0000 0.0000 0.0000 26.3326 0.0000
# 6 0.0000 0.0000 0.0000 0.0000 0.0000 42.1385
#
#
#
# Elastic Compliance Matrix: (Units=1/GPa)
#
#
# Indices 1 2 3 4 5 6 
#
# 1 0.009851 0.001691 -0.004568 0.000000 0.000000 0.000000
# 2 0.001691 0.009851 -0.004568 0.000000 0.000000 0.000000
# 3 -0.004568 -0.004568 0.015894 0.000000 0.000000 0.000000
# 4 0.000000 0.000000 0.000000 0.037970 0.000000 0.000000
# 5 0.000000 0.000000 0.000000 0.000000 0.037976 0.000000
# 6 0.000000 0.000000 0.000000 0.000000 0.000000 0.023731
#
#
# Mechanical properties :
#
#
# Convention : Reuss Voigt Hill
#
# Bulk Modulus (GPa) = 48.29767 48.30121 48.29944
# Shear Modulus (GPa) = 31.83401 36.08678 33.96039
#
# Velocity S-wave (km/s) = 3.92980 4.18407 4.05893
# Velocity P-wave (km/s) = 6.63486 6.83914 6.73778
#
# Compressibility (1/GPa) = 0.02070493
#
# Stress axis : x y z
#
# Youngs Moduli (GPa) = 101.51087 101.51489 62.91849
#
# Poissons Ratio (x) = -0.17166 0.28742
# Poissons Ratio (y) = -0.17165 0.28742
# Poissons Ratio (z) = 0.46371 0.46374
#
# Static dielectric constant tensor:
#      x y z
#    x 1.795790 0.000000 0.000000 
#    y 0.000000 1.795790 0.000000 
#    z 0.000000 0.000000 2.038690 
# 
# From -- ./inp_files/8807.got.cif
#   From: 2010.05.17/outbox.cif.g08.bks.cpg/sg98_5_cif.got.tgz:8807.got - 2010.06.03 20:00:51.
