data_PCOD9551274
_publ_section_title
;
Structure prediction by ZEFSAII (Michael W. Deem and Ramdas Pophale) SiO2 
 PCOD9551274
Probable space group: I 4 2 2 
;
_chemical_formula_sum "Si O2"
_cell_formula_units_Z 80
_cell_length_a 11.501300
_cell_length_b 11.501300
_cell_length_c 27.958421
_cell_angle_alpha 90.000000
_cell_angle_beta 90.000000
_cell_angle_gamma 90.000000
_cell_volume 3698.337181
_symmetry_space_group_name_H-M "I 4 2 2 "
_symmetry_group_IT_number 97
_symmetry_cell_setting 'tetragonal'
loop_
_space_group_symop_operation_xyz
x,y,z
-y,x,z
-x,-y,z
y,-x,z
x,-y,-z
-x,y,-z
y,x,-z
-y,-x,-z
1/2+x,1/2+y,1/2+z
1/2-y,1/2+x,1/2+z
1/2-x,1/2-y,1/2+z
1/2+y,1/2-x,1/2+z
1/2+x,1/2-y,1/2-z
1/2-x,1/2+y,1/2-z
1/2+y,1/2+x,1/2-z
1/2-y,1/2-x,1/2-z
loop_
_atom_site_type_symbol
_atom_site_label
_atom_site_fract_x
_atom_site_fract_y
_atom_site_fract_z
Si Si1 0.187964 0.972526 0.741087
Si Si2 0.182010 0.940996 0.073508
Si Si3 0.995146 0.313930 0.834936
Si Si4 0.185181 0.483903 0.855103
Si Si5 0.060148 0.373778 0.451222
O O1 0.285816 0.967868 0.781205
O O2 0.095432 0.872739 0.750554
O O3 0.221756 0.965036 0.685797
O O4 0.301919 0.899445 0.048975
O O5 0.072568 0.858860 0.061870
O O6 0.212087 0.946674 0.130770
O O7 0.109453 0.367123 0.859742
O O8 0.898734 0.414461 0.834818
O O9 0.212573 0.528398 0.908005
O O10 0.000000 0.500000 0.440431
O O11 0.000000 0.335383 0.500000
#
# Coordination Sequence:
#
# PCOD9551274 Si02
#       5
#    16  16  16  16  16
#     4  11  24  37  53  82 123 163 203 252 305 366
#     4  10  20  36  65 103 136 160 194 257 327 377
#     4  10  19  36  59  90 123 160 200 242 304 380
#     4  10  20  37  59  88 113 158 206 258 293 367
#     4  10  20  42  67  86 121 164 210 249 300 377
#
# _framework density 21.631343999999999
#
# number of rings (size 3 to 8) (size 9 to 14) (size 15 to 20)
#    0.000    1.800    4.000    2.400    0.000    9.600 
#    0.000    4.000    0.000    4.800    0.000    1.400 
#    0.000    1.600    0.000    0.000    0.000    0.000 
#
# Total GULP energy -223308.395529 kJ/mol
# GULP energy per Si atom -5582.709888 kJ/mol
# Density = 2.158211 g / cm^3
# Si number density = 21.631344 Si / 1000 Ang^3
#
#
#
# Elastic Constant Matrix: (Units=GPa)
#
#
# Indices 1 2 3 4 5 6 
#
# 1 64.2174 12.8122 32.1105 0.0000 0.0000 0.0000
# 2 12.8122 64.2174 32.1105 0.0000 0.0000 0.0000
# 3 32.1105 32.1105 128.8859 0.0000 0.0000 0.0000
# 4 0.0000 0.0000 0.0000 8.4011 0.0000 0.0000
# 5 0.0000 0.0000 0.0000 0.0000 8.4011 0.0000
# 6 0.0000 0.0000 0.0000 0.0000 0.0000 3.0279
#
#
#
# Elastic Compliance Matrix: (Units=1/GPa)
#
#
# Indices 1 2 3 4 5 6 
#
# 1 0.017919 -0.001534 -0.004082 0.000000 0.000000 0.000000
# 2 -0.001534 0.017919 -0.004082 0.000000 0.000000 0.000000
# 3 -0.004082 -0.004082 0.009793 0.000000 0.000000 0.000000
# 4 0.000000 0.000000 0.000000 0.119031 0.000000 0.000000
# 5 0.000000 0.000000 0.000000 0.000000 0.119031 0.000000
# 6 0.000000 0.000000 0.000000 0.000000 0.000000 0.330264
#
#
# Mechanical properties :
#
#
# Convention : Reuss Voigt Hill
#
# Bulk Modulus (GPa) = 38.11726 45.70965 41.91345
# Shear Modulus (GPa) = 7.78695 15.98521 11.88608
#
# Velocity S-wave (km/s) = 1.89938 2.72137 2.34665
# Velocity P-wave (km/s) = 4.74023 5.57240 5.17307
#
# Compressibility (1/GPa) = 0.02623483
#
# Stress axis : x y z
#
# Youngs Moduli (GPa) = 55.80550 55.80550 102.11486
#
# Poissons Ratio (x) = 0.08560 0.41686
# Poissons Ratio (y) = 0.08560 0.41686
# Poissons Ratio (z) = 0.22781 0.22781
#
# Static dielectric constant tensor:
#      x y z
#    x 1.772780 0.000000 0.000000 
#    y 0.000000 1.772780 0.000000 
#    z 0.000000 0.000000 1.812830 
# 
# From -- ./inp_files/7934.got.cif
#   From: 2010.05.17/outbox.cif.g08.bks.cpg/sg97_4_cif.got.tgz:7934.got - 2010.06.03 19:55:32.
