data_PCOD9551437
_publ_section_title
;
Structure prediction by ZEFSAII (Michael W. Deem and Ramdas Pophale) SiO2 
 PCOD9551437
Probable space group: I 4 2 2 
;
_chemical_formula_sum "Si O2"
_cell_formula_units_Z 96
_cell_length_a 15.509771
_cell_length_b 15.509771
_cell_length_c 19.720174
_cell_angle_alpha 90.000000
_cell_angle_beta 90.000000
_cell_angle_gamma 90.000000
_cell_volume 4743.746947
_symmetry_space_group_name_H-M "I 4 2 2 "
_symmetry_group_IT_number 97
_symmetry_cell_setting 'tetragonal'
loop_
_space_group_symop_operation_xyz
x,y,z
-y,x,z
-x,-y,z
y,-x,z
x,-y,-z
-x,y,-z
y,x,-z
-y,-x,-z
1/2+x,1/2+y,1/2+z
1/2-y,1/2+x,1/2+z
1/2-x,1/2-y,1/2+z
1/2+y,1/2-x,1/2+z
1/2+x,1/2-y,1/2-z
1/2-x,1/2+y,1/2-z
1/2+y,1/2+x,1/2-z
1/2-y,1/2-x,1/2-z
loop_
_atom_site_type_symbol
_atom_site_label
_atom_site_fract_x
_atom_site_fract_y
_atom_site_fract_z
Si Si1 0.174660 0.313285 0.855769
Si Si2 0.048826 0.408566 0.365002
Si Si3 0.259317 0.871085 0.110666
Si Si4 0.395724 0.878898 0.502743
Si Si5 0.219157 0.454781 0.766697
Si Si6 0.471753 0.360193 0.692139
O O1 0.218067 0.220249 0.868217
O O2 0.241756 0.375507 0.816743
O O3 0.093814 0.302605 0.803879
O O4 0.140988 0.364217 0.922221
O O5 0.051131 0.371531 0.443124
O O6 0.001035 0.357618 0.306029
O O7 0.000000 0.500000 0.368294
O O8 0.289828 0.867961 0.033795
O O9 0.348187 0.900503 0.148796
O O10 0.192214 0.946866 0.125322
O O11 0.500000 0.883088 0.500000
O O12 0.292183 0.525059 0.752869
O O13 0.564634 0.402896 0.695347
#
# Coordination Sequence:
#
# PCOD9551437 Si02
#       6
#    16  16  16  16  16  16
#     4  11  23  43  65 100 135 180 224 282 341 424
#     4  10  25  42  65 102 137 177 225 279 347 418
#     4  10  24  43  70  93 140 179 227 276 352 410
#     4  10  22  41  68  95 137 179 220 277 340 417
#     4  11  25  40  68  96 135 175 226 282 344 406
#     4  11  24  43  66  95 132 178 229 281 337 404
#
# _framework density 20.237166999999999
#
# number of rings (size 3 to 8) (size 9 to 14) (size 15 to 20)
#    1.000    0.500    1.667    2.500    7.000    3.000 
#    0.000    0.833    0.000    0.000    0.000    0.000 
#    0.000    2.667    0.000    0.000    0.000    0.000 
#
# Total GULP energy -267264.425217 kJ/mol
# GULP energy per Si atom -5568.008859 kJ/mol
# Density = 2.019111 g / cm^3
# Si number density = 20.237167 Si / 1000 Ang^3
#
#
#
# Elastic Constant Matrix: (Units=GPa)
#
#
# Indices 1 2 3 4 5 6 
#
# 1 96.2801 41.5331 53.0478 0.0000 0.0000 0.0000
# 2 41.5331 96.2801 53.0478 0.0000 0.0000 0.0000
# 3 53.0478 53.0478 136.0850 0.0000 0.0000 0.0000
# 4 0.0000 0.0000 0.0000 27.5900 0.0000 0.0000
# 5 0.0000 0.0000 0.0000 0.0000 27.5899 0.0000
# 6 0.0000 0.0000 0.0000 0.0000 0.0000 36.9389
#
#
#
# Elastic Compliance Matrix: (Units=1/GPa)
#
#
# Indices 1 2 3 4 5 6 
#
# 1 0.014317 -0.003949 -0.004041 0.000000 0.000000 0.000000
# 2 -0.003949 0.014317 -0.004041 0.000000 0.000000 0.000000
# 3 -0.004041 -0.004041 0.010499 0.000000 0.000000 0.000000
# 4 0.000000 0.000000 0.000000 0.036245 0.000000 0.000000
# 5 0.000000 0.000000 0.000000 0.000000 0.036245 0.000000
# 6 0.000000 0.000000 0.000000 0.000000 0.000000 0.027072
#
#
# Mechanical properties :
#
#
# Convention : Reuss Voigt Hill
#
# Bulk Modulus (GPa) = 66.36353 69.32253 67.84303
# Shear Modulus (GPa) = 29.80074 30.49152 30.14613
#
# Velocity S-wave (km/s) = 3.84158 3.88585 3.86377
# Velocity P-wave (km/s) = 7.24852 7.37987 7.31449
#
# Compressibility (1/GPa) = 0.01506852
#
# Stress axis : x y z
#
# Youngs Moduli (GPa) = 69.84870 69.84871 95.24602
#
# Poissons Ratio (x) = 0.27585 0.38493
# Poissons Ratio (y) = 0.27585 0.38493
# Poissons Ratio (z) = 0.28229 0.28229
#
# Static dielectric constant tensor:
#      x y z
#    x 1.792480 0.000000 0.000000 
#    y 0.000000 1.792480 0.000000 
#    z 0.000000 0.000000 1.766170 
# 
# From -- ./inp_files/6629.got.cif
#   From: 2010.05.17/outbox.cif.g08.bks.cpg/sg97_4_cif.got.tgz:6629.got - 2010.06.03 19:55:32.
