data_PCOD9551277
_publ_section_title
;
Structure prediction by ZEFSAII (Michael W. Deem and Ramdas Pophale) SiO2 
 PCOD9551277
Probable space group: I 4 2 2 
;
_chemical_formula_sum "Si O2"
_cell_formula_units_Z 68
_cell_length_a 11.321538
_cell_length_b 11.321538
_cell_length_c 26.201783
_cell_angle_alpha 90.000000
_cell_angle_beta 90.000000
_cell_angle_gamma 90.000000
_cell_volume 3358.471774
_symmetry_space_group_name_H-M "I 4 2 2 "
_symmetry_group_IT_number 97
_symmetry_cell_setting 'tetragonal'
loop_
_space_group_symop_operation_xyz
x,y,z
-y,x,z
-x,-y,z
y,-x,z
x,-y,-z
-x,y,-z
y,x,-z
-y,-x,-z
1/2+x,1/2+y,1/2+z
1/2-y,1/2+x,1/2+z
1/2-x,1/2-y,1/2+z
1/2+y,1/2-x,1/2+z
1/2+x,1/2-y,1/2-z
1/2-x,1/2+y,1/2-z
1/2+y,1/2+x,1/2-z
1/2-y,1/2-x,1/2-z
loop_
_atom_site_type_symbol
_atom_site_label
_atom_site_fract_x
_atom_site_fract_y
_atom_site_fract_z
Si Si1 0.500000 0.500000 0.708039
Si Si2 0.764420 0.464228 0.326966
Si Si3 0.111183 0.388818 0.250000
Si Si4 0.358163 0.641838 0.500000
Si Si5 0.919031 0.179935 0.670590
Si Si6 0.700582 0.249093 0.392512
O O1 0.640300 0.537672 0.702918
O O2 0.867456 0.501161 0.288164
O O3 0.772559 0.342229 0.357286
O O4 0.753405 0.568272 0.369169
O O5 0.114462 0.274955 0.286716
O O6 0.339672 0.500000 0.500000
O O7 0.306772 0.702001 0.449341
O O8 0.877030 0.239608 0.617662
O O9 0.055698 0.147653 0.675472
#
# Coordination Sequence:
#
# PCOD9551277 Si02
#       6
#     4  16   8   8  16  16
#     4   8  16  24  52  73 108 152 188 233 280 344
#     4   9  18  31  52  86 121 155 188 240 307 363
#     4  10  22  34  59  89 120 162 202 252 308 357
#     4  11  20  32  66 101 126 156 196 251 330 388
#     4  10  24  42  61  82 116 167 217 248 292 366
#     4  10  19  37  58  90 127 151 195 259 308 368
#
# _framework density 20.247302999999999
#
# number of rings (size 3 to 8) (size 9 to 14) (size 15 to 20)
#    0.000    2.235    2.353    0.000    9.882    0.000 
#    0.000    7.059    0.000    2.824    0.000    0.000 
#    0.000    0.000    0.000    0.000    0.000    0.000 
#
# Total GULP energy -189348.327563 kJ/mol
# GULP energy per Si atom -5569.068458 kJ/mol
# Density = 2.020122 g / cm^3
# Si number density = 20.247303 Si / 1000 Ang^3
#
#
#
# Elastic Constant Matrix: (Units=GPa)
#
#
# Indices 1 2 3 4 5 6 
#
# 1 49.1082 22.8080 22.5648 0.0000 0.0000 0.0000
# 2 22.8080 49.1071 22.5647 0.0000 0.0000 0.0000
# 3 22.5648 22.5647 120.5551 0.0000 0.0000 0.0000
# 4 0.0000 0.0000 0.0000 24.5463 0.0000 0.0000
# 5 0.0000 0.0000 0.0000 0.0000 24.5466 0.0000
# 6 0.0000 0.0000 0.0000 0.0000 0.0000 43.0387
#
#
#
# Elastic Compliance Matrix: (Units=1/GPa)
#
#
# Indices 1 2 3 4 5 6 
#
# 1 0.026889 -0.011134 -0.002949 0.000000 0.000000 0.000000
# 2 -0.011134 0.026890 -0.002949 0.000000 0.000000 0.000000
# 3 -0.002949 -0.002949 0.009399 0.000000 0.000000 0.000000
# 4 0.000000 0.000000 0.000000 0.040739 0.000000 0.000000
# 5 0.000000 0.000000 0.000000 0.000000 0.040739 0.000000
# 6 0.000000 0.000000 0.000000 0.000000 0.000000 0.023235
#
#
# Mechanical properties :
#
#
# Convention : Reuss Voigt Hill
#
# Bulk Modulus (GPa) = 34.34740 39.40504 36.87622
# Shear Modulus (GPa) = 23.62282 28.48186 26.05234
#
# Velocity S-wave (km/s) = 3.41943 3.75467 3.59096
# Velocity P-wave (km/s) = 5.70883 6.18877 5.95364
#
# Compressibility (1/GPa) = 0.02911428
#
# Stress axis : x y z
#
# Youngs Moduli (GPa) = 37.18955 37.18866 106.39493
#
# Poissons Ratio (x) = 0.41405 0.31376
# Poissons Ratio (y) = 0.41406 0.31377
# Poissons Ratio (z) = 0.10967 0.10967
#
# Static dielectric constant tensor:
#      x y z
#    x 1.737210 0.000000 0.000000 
#    y 0.000000 1.737210 0.000000 
#    z 0.000000 0.000000 1.724570 
# 
# From -- ./inp_files/7606.got.cif
#   From: 2010.05.17/outbox.cif.g08.bks.cpg/sg97_4_cif.got.tgz:7606.got - 2010.06.03 19:55:32.
