data_PCOD9551197
_publ_section_title
;
Structure prediction by ZEFSAII (Michael W. Deem and Ramdas Pophale) SiO2 
 PCOD9551197
Probable space group: P 43 21 2
;
_chemical_formula_sum "Si O2"
_cell_formula_units_Z 56
_cell_length_a 15.000000
_cell_length_b 15.000000
_cell_length_c 12.000000
_cell_angle_alpha 90.000000
_cell_angle_beta 90.000000
_cell_angle_gamma 90.000000
_cell_volume 2700.000000
_symmetry_space_group_name_H-M "P 43 21 2"
_symmetry_group_IT_number 96
_symmetry_cell_setting 'tetragonal'
loop_
_space_group_symop_operation_xyz
x,y,z
1/2-y,1/2+x,3/4+z
-x,-y,1/2+z
1/2+y,1/2-x,1/4+z
1/2+x,1/2-y,1/4-z
1/2-x,1/2+y,3/4-z
y,x,-z
-y,-x,1/2-z
loop_
_atom_site_type_symbol
_atom_site_label
_atom_site_fract_x
_atom_site_fract_y
_atom_site_fract_z
Si Si1 0.829021 0.653362 0.737900
Si Si2 0.112180 0.844284 0.131982
Si Si3 0.173491 0.253857 0.832162
Si Si4 0.278444 0.416887 0.946500
Si Si5 0.017109 0.314210 0.397315
Si Si6 0.799709 0.913436 0.905719
Si Si7 0.523989 0.334274 0.266539
O O1 0.731357 0.635074 0.790899
O O2 0.813488 0.741592 0.665312
O O3 0.870763 0.571667 0.668675
O O4 0.892432 0.656436 0.842979
O O5 0.163291 0.836710 0.250000
O O6 0.003755 0.847335 0.140773
O O7 0.148928 0.936134 0.086561
O O8 0.210931 0.347485 0.882739
O O9 0.140646 0.239338 0.701838
O O10 0.093606 0.224689 0.913137
O O11 0.302020 0.488459 0.852315
O O12 0.355982 0.355982 0.000000
O O13 0.250220 0.475302 0.053525
O O14 0.046320 0.277784 0.517135
O O15 0.858779 0.858779 0.000000
O O16 0.572436 0.427565 0.250000
#
# Coordination Sequence:
#
# PCOD9551197 Si02
#       7
#     8   8   8   8   8   8   8
#     4  11  24  46  70 104 145 196 243 303 372 452
#     4  11  23  43  66 104 149 183 242 314 377 437
#     4  12  24  46  75 108 147 196 250 303 379 456
#     4  12  25  47  74 108 155 199 246 315 378 454
#     4  11  25  44  73 105 141 194 249 299 377 437
#     4  11  23  42  72 109 147 193 241 301 382 456
#     4  12  26  42  73 110 147 198 249 310 383 459
#
# _framework density 20.740741
#
# number of rings (size 3 to 8) (size 9 to 14) (size 15 to 20)
#    0.000    0.571    5.714    2.571    4.000    0.571 
#    0.000    2.857    0.000    0.000    0.000    0.000 
#    0.000    0.000    0.000    0.000    0.000    0.000 
#
# Total GULP energy -311830.762799 kJ/mol
# GULP energy per Si atom -5568.406479 kJ/mol
# Density = 2.069353 g / cm^3
# Si number density = 20.740741 Si / 1000 Ang^3
#
#
#
# Elastic Constant Matrix: (Units=GPa)
#
#
# Indices 1 2 3 4 5 6 
#
# 1 110.8407 2.7616 21.6919 0.0000 0.0000 0.0000
# 2 2.7616 110.8199 21.6842 0.0000 0.0000 0.0000
# 3 21.6919 21.6842 107.4674 0.0000 0.0000 0.0000
# 4 0.0000 0.0000 0.0000 31.4473 0.0000 0.0000
# 5 0.0000 0.0000 0.0000 0.0000 31.4480 0.0000
# 6 0.0000 0.0000 0.0000 0.0000 0.0000 19.4426
#
#
#
# Elastic Compliance Matrix: (Units=1/GPa)
#
#
# Indices 1 2 3 4 5 6 
#
# 1 0.009395 0.000143 -0.001925 0.000000 0.000000 0.000000
# 2 0.000143 0.009397 -0.001925 0.000000 0.000000 0.000000
# 3 -0.001925 -0.001925 0.010082 0.000000 0.000000 0.000000
# 4 0.000000 0.000000 0.000000 0.031799 0.000000 0.000000
# 5 0.000000 0.000000 0.000000 0.000000 0.031799 0.000000
# 6 0.000000 0.000000 0.000000 0.000000 0.000000 0.051433
#
#
# Mechanical properties :
#
#
# Convention : Reuss Voigt Hill
#
# Bulk Modulus (GPa) = 46.59996 46.82260 46.71128
# Shear Modulus (GPa) = 31.55112 35.33360 33.44236
#
# Velocity S-wave (km/s) = 3.90451 4.13193 4.01983
# Velocity P-wave (km/s) = 6.54550 6.73706 6.64197
#
# Compressibility (1/GPa) = 0.02145925
#
# Stress axis : x y z
#
# Youngs Moduli (GPa) = 106.43775 106.42010 99.18563
#
# Poissons Ratio (x) = -0.01517 0.19095
# Poissons Ratio (y) = -0.01517 0.19091
# Poissons Ratio (z) = 0.20491 0.20484
#
# Static dielectric constant tensor:
#      x y z
#    x 1.839050 0.000000 0.000000 
#    y 0.000000 1.839060 0.000000 
#    z 0.000000 0.000000 1.857270 
# 
# From -- ./inp_files/2290.got.cif
#   From: 2010.05.17/outbox.ucp.g08.bks.cvg/sg96_2_cif.got.tgz:2290.got - 2010.06.11 10:37:29.
