data_PCOD9551773
_publ_section_title
;
Structure prediction by ZEFSAII (Michael W. Deem and Ramdas Pophale) SiO2 
 PCOD9551773
Probable space group: I 41 2 2
;
_chemical_formula_sum "Si O2"
_cell_formula_units_Z 44
_cell_length_a 10.549090
_cell_length_b 10.549090
_cell_length_c 18.866303
_cell_angle_alpha 90.000000
_cell_angle_beta 90.000000
_cell_angle_gamma 90.000000
_cell_volume 2099.504453
_symmetry_space_group_name_H-M "I 41 2 2"
_symmetry_group_IT_number 98
_symmetry_cell_setting 'tetragonal'
loop_
_space_group_symop_operation_xyz
x,y,z
-y,1/2+x,1/4+z
-x,-y,z
y,1/2-x,1/4+z
x,1/2-y,1/4-z
-x,1/2+y,1/4-z
y,x,-z
-y,-x,-z
1/2+x,1/2+y,1/2+z
1/2-y,x,3/4+z
1/2-x,1/2-y,1/2+z
1/2+y,-x,3/4+z
1/2+x,-y,3/4-z
1/2-x,y,3/4-z
1/2+y,1/2+x,1/2-z
1/2-y,1/2-x,1/2-z
loop_
_atom_site_type_symbol
_atom_site_label
_atom_site_fract_x
_atom_site_fract_y
_atom_site_fract_z
Si Si1 0.000000 0.500000 0.750000
Si Si2 0.778892 0.641687 0.066032
Si Si3 0.613457 0.141609 0.368765
Si Si4 0.000000 0.000000 0.252821
O O1 0.967271 0.389164 0.692408
O O2 0.780444 0.750000 0.125000
O O3 0.721302 0.510365 0.097164
O O4 0.917973 0.599831 0.040835
O O5 0.699650 0.699650 0.000000
O O6 0.750000 0.206846 0.375000
O O7 0.590755 0.076073 0.443889
#
# Coordination Sequence:
#
# PCOD9551773 Si02
#       4
#     4  16  16   8
#     4  10  20  36  60  96 154 188 242 308 382 436
#     4  12  25  49  76 110 158 209 257 317 392 467
#     4  11  23  39  70 111 147 194 254 324 368 454
#     4  11  26  43  71 112 145 204 258 312 389 458
#
# _framework density 20.957325999999998
#
# number of rings (size 3 to 8) (size 9 to 14) (size 15 to 20)
#    0.000    0.727    5.455    2.182    5.091    1.455 
#    0.000    0.909    0.000    0.000    0.000    0.000 
#    0.000    0.000    0.000    0.000    0.000    0.000 
#
# Total GULP energy -122679.220158 kJ/mol
# GULP energy per Si atom -5576.328189 kJ/mol
# Density = 2.090963 g / cm^3
# Si number density = 20.957326 Si / 1000 Ang^3
#
#
#
# Elastic Constant Matrix: (Units=GPa)
#
#
# Indices 1 2 3 4 5 6 
#
# 1 143.7654 54.6890 69.5921 0.0000 0.0000 0.0000
# 2 54.6890 143.7654 69.5921 0.0000 0.0000 0.0000
# 3 69.5921 69.5921 136.7105 0.0000 0.0000 0.0000
# 4 0.0000 0.0000 0.0000 22.0723 0.0000 0.0000
# 5 0.0000 0.0000 0.0000 0.0000 22.0723 0.0000
# 6 0.0000 0.0000 0.0000 0.0000 0.0000 39.1397
#
#
#
# Elastic Compliance Matrix: (Units=1/GPa)
#
#
# Indices 1 2 3 4 5 6 
#
# 1 0.009532 -0.001695 -0.003989 0.000000 0.000000 0.000000
# 2 -0.001695 0.009532 -0.003989 0.000000 0.000000 0.000000
# 3 -0.003989 -0.003989 0.011376 0.000000 0.000000 0.000000
# 4 0.000000 0.000000 0.000000 0.045306 0.000000 0.000000
# 5 0.000000 0.000000 0.000000 0.000000 0.045306 0.000000
# 6 0.000000 0.000000 0.000000 0.000000 0.000000 0.025550
#
#
# Mechanical properties :
#
#
# Convention : Reuss Voigt Hill
#
# Bulk Modulus (GPa) = 90.15012 90.22085 90.18548
# Shear Modulus (GPa) = 29.47340 32.01472 30.74406
#
# Velocity S-wave (km/s) = 3.75421 3.91271 3.83428
# Velocity P-wave (km/s) = 7.86775 7.97218 7.92014
#
# Compressibility (1/GPa) = 0.01109261
#
# Stress axis : x y z
#
# Youngs Moduli (GPa) = 104.91463 104.91463 87.90270
#
# Poissons Ratio (x) = 0.17780 0.35067
# Poissons Ratio (y) = 0.17780 0.35067
# Poissons Ratio (z) = 0.41854 0.41854
#
# Static dielectric constant tensor:
#      x y z
#    x 1.877570 0.000000 0.000000 
#    y 0.000000 1.877570 0.000000 
#    z 0.000000 0.000000 1.734100 
# 
# From -- ./inp_files/7111.got.cif
#   From: 2010.05.17/outbox.cif.g08.bks.cpg/sg98_4_cif.got.tgz:7111.got - 2010.06.03 20:00:51.
