data_PCOD9551769
_publ_section_title
;
Structure prediction by ZEFSAII (Michael W. Deem and Ramdas Pophale) SiO2 
 PCOD9551769
Probable space group: I 41 2 2
;
_chemical_formula_sum "Si O2"
_cell_formula_units_Z 64
_cell_length_a 24.221311
_cell_length_b 24.221311
_cell_length_c 5.577042
_cell_angle_alpha 90.000000
_cell_angle_beta 90.000000
_cell_angle_gamma 90.000000
_cell_volume 3271.893863
_symmetry_space_group_name_H-M "I 41 2 2"
_symmetry_group_IT_number 98
_symmetry_cell_setting 'tetragonal'
loop_
_space_group_symop_operation_xyz
x,y,z
-y,1/2+x,1/4+z
-x,-y,z
y,1/2-x,1/4+z
x,1/2-y,1/4-z
-x,1/2+y,1/4-z
y,x,-z
-y,-x,-z
1/2+x,1/2+y,1/2+z
1/2-y,x,3/4+z
1/2-x,1/2-y,1/2+z
1/2+y,-x,3/4+z
1/2+x,-y,3/4-z
1/2-x,y,3/4-z
1/2+y,1/2+x,1/2-z
1/2-y,1/2-x,1/2-z
loop_
_atom_site_type_symbol
_atom_site_label
_atom_site_fract_x
_atom_site_fract_y
_atom_site_fract_z
Si Si1 0.750000 0.039279 0.875000
Si Si2 0.955119 0.694169 0.491422
Si Si3 0.516535 0.597143 0.888613
Si Si4 0.887732 0.887732 0.000000
Si Si5 0.097858 0.859058 0.254587
O O1 0.796194 0.076073 0.746765
O O2 0.713682 0.000377 0.701660
O O3 0.941737 0.750000 0.625000
O O4 0.979500 0.646082 0.662874
O O5 0.899378 0.668434 0.385747
O O6 0.560879 0.609662 0.681742
O O7 0.455589 0.600477 0.780319
O O8 0.541103 0.541103 0.000000
O O9 0.131420 0.868581 0.500000
O O10 0.127111 0.872889 0.000000
#
# Coordination Sequence:
#
# PCOD9551769 Si02
#       5
#     8  16  16   8  16
#     4  12  24  44  68  94 140 178 234 292 352 406
#     4  11  19  36  66  92 135 186 230 285 334 410
#     4  10  22  38  59  94 144 177 213 272 347 417
#     4  10  20  36  59 100 134 176 232 272 346 410
#     4  12  27  44  67 102 134 183 237 285 348 420
#
# _framework density 19.560535999999999
#
# number of rings (size 3 to 8) (size 9 to 14) (size 15 to 20)
#    0.000    1.000    5.000    1.500    3.500    0.500 
#    0.000    0.000    0.000    1.500    0.000    0.000 
#  423.750    0.000    0.000    0.000    0.000    0.000 
#
# Total GULP energy -178634.667297 kJ/mol
# GULP energy per Si atom -5582.333353 kJ/mol
# Density = 1.951602 g / cm^3
# Si number density = 19.560536 Si / 1000 Ang^3
#
#
#
# Elastic Constant Matrix: (Units=GPa)
#
#
# Indices 1 2 3 4 5 6 
#
# 1 90.3137 49.3106 52.2510 0.0000 0.0000 0.0000
# 2 49.3106 90.3176 52.2520 0.0000 0.0000 0.0000
# 3 52.2510 52.2520 123.9086 0.0000 0.0000 0.0000
# 4 0.0000 0.0000 0.0000 11.3878 0.0000 0.0000
# 5 0.0000 0.0000 0.0000 0.0000 11.3873 0.0000
# 6 0.0000 0.0000 0.0000 0.0000 0.0000 34.0298
#
#
#
# Elastic Compliance Matrix: (Units=1/GPa)
#
#
# Indices 1 2 3 4 5 6 
#
# 1 0.017426 -0.006961 -0.004413 0.000000 0.000000 0.000000
# 2 -0.006961 0.017426 -0.004413 0.000000 0.000000 0.000000
# 3 -0.004413 -0.004413 0.011792 0.000000 0.000000 0.000000
# 4 0.000000 0.000000 0.000000 0.087813 0.000000 0.000000
# 5 0.000000 0.000000 0.000000 0.000000 0.087817 0.000000
# 6 0.000000 0.000000 0.000000 0.000000 0.000000 0.029386
#
#
# Mechanical properties :
#
#
# Convention : Reuss Voigt Hill
#
# Bulk Modulus (GPa) = 66.35634 68.01857 67.18746
# Shear Modulus (GPa) = 17.34552 21.40939 19.37746
#
# Velocity S-wave (km/s) = 2.98108 3.31194 3.15086
# Velocity P-wave (km/s) = 6.77100 7.03379 6.90364
#
# Compressibility (1/GPa) = 0.01507015
#
# Stress axis : x y z
#
# Youngs Moduli (GPa) = 57.38399 57.38661 84.80101
#
# Poissons Ratio (x) = 0.39948 0.37423
# Poissons Ratio (y) = 0.39946 0.37422
# Poissons Ratio (z) = 0.25324 0.25324
#
# Static dielectric constant tensor:
#      x y z
#    x 1.683570 0.000000 0.000000 
#    y 0.000000 1.683570 0.000000 
#    z 0.000000 0.000000 1.705180 
# 
# From -- ./inp_files/1406.got.cif
#   From: 2010.05.17/outbox.cif.g08.bks.cpg/sg98_1_cif.got.tgz:1406.got - 2010.06.03 20:00:51.
