data_PCOD9551404
_publ_section_title
;
Structure prediction by ZEFSAII (Michael W. Deem and Ramdas Pophale) SiO2 
 PCOD9551404
Probable space group: I 4 2 2 
;
_chemical_formula_sum "Si O2"
_cell_formula_units_Z 80
_cell_length_a 17.197436
_cell_length_b 17.197436
_cell_length_c 13.907471
_cell_angle_alpha 90.000000
_cell_angle_beta 90.000000
_cell_angle_gamma 90.000000
_cell_volume 4113.159651
_symmetry_space_group_name_H-M "I 4 2 2 "
_symmetry_group_IT_number 97
_symmetry_cell_setting 'tetragonal'
loop_
_space_group_symop_operation_xyz
x,y,z
-y,x,z
-x,-y,z
y,-x,z
x,-y,-z
-x,y,-z
y,x,-z
-y,-x,-z
1/2+x,1/2+y,1/2+z
1/2-y,1/2+x,1/2+z
1/2-x,1/2-y,1/2+z
1/2+y,1/2-x,1/2+z
1/2+x,1/2-y,1/2-z
1/2-x,1/2+y,1/2-z
1/2+y,1/2+x,1/2-z
1/2-y,1/2-x,1/2-z
loop_
_atom_site_type_symbol
_atom_site_label
_atom_site_fract_x
_atom_site_fract_y
_atom_site_fract_z
Si Si1 0.620835 0.449984 0.255389
Si Si2 0.691216 0.419633 0.051118
Si Si3 0.528562 0.085316 0.144216
Si Si4 0.620821 0.142824 0.957464
Si Si5 0.204617 0.915738 0.950767
O O1 0.597511 0.540408 0.257857
O O2 0.667847 0.434217 0.159435
O O3 0.671891 0.425191 0.344544
O O4 0.765311 0.364987 0.041027
O O5 0.712633 0.500000 0.000000
O O6 0.617082 0.382919 0.000000
O O7 0.570592 0.070592 0.250000
O O8 0.445942 0.130644 0.125985
O O9 0.500000 0.000000 0.116812
O O10 0.585075 0.117057 0.060949
O O11 0.703188 0.100890 0.946145
O O12 0.152934 0.847066 0.000000
O O13 0.191411 0.000000 0.000000
#
# Coordination Sequence:
#
# PCOD9551404 Si02
#       5
#    16  16  16  16  16
#     4  11  24  42  69  98 131 182 237 279 336 413
#     4  12  24  44  71  99 135 178 228 287 352 413
#     4  10  21  41  69  98 130 186 235 268 330 418
#     4  11  24  45  65 103 146 174 223 297 346 408
#     4  12  25  45  71 101 140 184 229 284 351 413
#
# _framework density 19.449767999999999
#
# number of rings (size 3 to 8) (size 9 to 14) (size 15 to 20)
#    0.000    0.800    6.000    3.000    0.000    6.000 
#    3.600    0.000    0.000    0.000    0.000    0.000 
#    0.000    0.000    0.000    0.000    0.000    0.000 
#
# Total GULP energy -223118.765061 kJ/mol
# GULP energy per Si atom -5577.969127 kJ/mol
# Density = 1.940550 g / cm^3
# Si number density = 19.449768 Si / 1000 Ang^3
#
#
#
# Elastic Constant Matrix: (Units=GPa)
#
#
# Indices 1 2 3 4 5 6 
#
# 1 97.0627 41.2592 60.0401 0.0000 0.0000 0.0000
# 2 41.2592 97.0611 60.0400 0.0000 0.0000 0.0000
# 3 60.0401 60.0400 185.0613 0.0000 0.0000 0.0000
# 4 0.0000 0.0000 0.0000 26.9524 0.0000 0.0000
# 5 0.0000 0.0000 0.0000 0.0000 26.9531 0.0000
# 6 0.0000 0.0000 0.0000 0.0000 0.0000 37.4511
#
#
#
# Elastic Compliance Matrix: (Units=1/GPa)
#
#
# Indices 1 2 3 4 5 6 
#
# 1 0.013992 -0.003928 -0.003265 0.000000 0.000000 0.000000
# 2 -0.003928 0.013992 -0.003265 0.000000 0.000000 0.000000
# 3 -0.003265 -0.003265 0.007522 0.000000 0.000000 0.000000
# 4 0.000000 0.000000 0.000000 0.037102 0.000000 0.000000
# 5 0.000000 0.000000 0.000000 0.000000 0.037102 0.000000
# 6 0.000000 0.000000 0.000000 0.000000 0.000000 0.026701
#
#
# Mechanical properties :
#
#
# Convention : Reuss Voigt Hill
#
# Bulk Modulus (GPa) = 68.54043 77.98485 73.26264
# Shear Modulus (GPa) = 30.82763 32.79435 31.81099
#
# Velocity S-wave (km/s) = 3.98551 4.11068 4.04858
# Velocity P-wave (km/s) = 7.51633 7.91914 7.72036
#
# Compressibility (1/GPa) = 0.01458993
#
# Stress axis : x y z
#
# Youngs Moduli (GPa) = 71.46917 71.46769 132.93895
#
# Poissons Ratio (x) = 0.28073 0.43406
# Poissons Ratio (y) = 0.28074 0.43407
# Poissons Ratio (z) = 0.23335 0.23335
#
# Static dielectric constant tensor:
#      x y z
#    x 1.730510 0.000000 0.000000 
#    y 0.000000 1.730500 0.000000 
#    z 0.000000 0.000000 1.658640 
# 
# From -- ./inp_files/4708.got.cif
#   From: 2010.05.17/outbox.cif.g08.bks.cpg/sg97_3_cif.got.tgz:4708.got - 2010.06.03 19:55:32.
