data_PCOD9551180
_publ_section_title
;
Structure prediction by ZEFSAII (Michael W. Deem and Ramdas Pophale) SiO2 
 PCOD9551180
Probable space group: P 43 21 2
;
_chemical_formula_sum "Si O2"
_cell_formula_units_Z 40
_cell_length_a 8.851358
_cell_length_b 8.851358
_cell_length_c 19.755481
_cell_angle_alpha 90.000000
_cell_angle_beta 90.000000
_cell_angle_gamma 90.000000
_cell_volume 1547.773552
_symmetry_space_group_name_H-M "P 43 21 2"
_symmetry_group_IT_number 96
_symmetry_cell_setting 'tetragonal'
loop_
_space_group_symop_operation_xyz
x,y,z
1/2-y,1/2+x,3/4+z
-x,-y,1/2+z
1/2+y,1/2-x,1/4+z
1/2+x,1/2-y,1/4-z
1/2-x,1/2+y,3/4-z
y,x,-z
-y,-x,1/2-z
loop_
_atom_site_type_symbol
_atom_site_label
_atom_site_fract_x
_atom_site_fract_y
_atom_site_fract_z
Si Si1 0.435985 0.352548 0.115576
Si Si2 0.120258 0.363013 0.051056
Si Si3 0.563453 0.563453 0.000000
Si Si4 0.564647 0.435354 0.750000
Si Si5 0.595640 0.141346 0.551839
Si Si6 0.685774 0.102910 0.925806
O O1 0.284650 0.304289 0.075090
O O2 0.525011 0.203164 0.135840
O O3 0.512091 0.473783 0.066560
O O4 0.431288 0.443298 0.187844
O O5 0.157596 0.537741 0.036426
O O6 0.999777 0.340969 0.990312
O O7 0.501061 0.735034 0.008552
O O8 0.525976 0.279087 0.713680
O O9 0.474750 0.114994 0.610335
O O10 0.747960 0.214850 0.583247
#
# Coordination Sequence:
#
# PCOD9551180 Si02
#       6
#     8   8   4   4   8   8
#     4  12  28  52  83 120 171 217 287 356 430 515
#     4  12  29  49  85 120 162 220 283 351 424 511
#     4  12  26  52  78 120 168 220 274 358 422 512
#     4  12  26  56  82 114 172 222 284 352 436 520
#     4  12  29  51  81 117 166 218 281 344 433 502
#     4  12  28  52  76 120 159 219 277 354 421 518
#
# _framework density 25.843571000000001
#
# number of rings (size 3 to 8) (size 9 to 14) (size 15 to 20)
#    0.000    0.000    6.000    1.200   11.200    2.400 
#    0.000    0.000    0.000    0.000    0.000    0.000 
#    0.000    0.000    0.000    0.000    0.000    0.000 
#
# Total GULP energy -223180.289535 kJ/mol
# GULP energy per Si atom -5579.507238 kJ/mol
# Density = 2.578475 g / cm^3
# Si number density = 25.843571 Si / 1000 Ang^3
#
#
#
# Elastic Constant Matrix: (Units=GPa)
#
#
# Indices 1 2 3 4 5 6 
#
# 1 135.5264 13.6125 22.3595 0.0000 0.0000 0.0000
# 2 13.6125 135.5272 22.3603 0.0000 0.0000 0.0000
# 3 22.3595 22.3603 116.0249 0.0000 0.0000 0.0000
# 4 0.0000 0.0000 0.0000 30.1150 0.0000 0.0000
# 5 0.0000 0.0000 0.0000 0.0000 30.1152 0.0000
# 6 0.0000 0.0000 0.0000 0.0000 0.0000 24.2273
#
#
#
# Elastic Compliance Matrix: (Units=1/GPa)
#
#
# Indices 1 2 3 4 5 6 
#
# 1 0.007659 -0.000543 -0.001371 0.000000 0.000000 0.000000
# 2 -0.000543 0.007659 -0.001371 0.000000 0.000000 0.000000
# 3 -0.001371 -0.001371 0.009147 0.000000 0.000000 0.000000
# 4 0.000000 0.000000 0.000000 0.033206 0.000000 0.000000
# 5 0.000000 0.000000 0.000000 0.000000 0.033206 0.000000
# 6 0.000000 0.000000 0.000000 0.000000 0.000000 0.041276
#
#
# Mechanical properties :
#
#
# Convention : Reuss Voigt Hill
#
# Bulk Modulus (GPa) = 55.88337 55.97147 55.92742
# Shear Modulus (GPa) = 34.55650 38.80792 36.68221
#
# Velocity S-wave (km/s) = 3.66066 3.87931 3.77157
# Velocity P-wave (km/s) = 6.28792 6.46299 6.37605
#
# Compressibility (1/GPa) = 0.01789441
#
# Stress axis : x y z
#
# Youngs Moduli (GPa) = 130.55787 130.55831 109.32022
#
# Poissons Ratio (x) = 0.07090 0.14992
# Poissons Ratio (y) = 0.07090 0.14993
# Poissons Ratio (z) = 0.17905 0.17906
#
# Static dielectric constant tensor:
#      x y z
#    x 2.085110 0.000000 0.000000 
#    y 0.000000 2.085110 0.000000 
#    z 0.000000 0.000000 2.147680 
# 
# From -- ./inp_files/3853.got.cif
#   From: 2010.05.17/outbox.cif.g08.bks.cpg/sg96_2_cif.got.tgz:3853.got - 2010.06.03 19:52:08.
