data_PCOD9551373
_publ_section_title
;
Structure prediction by ZEFSAII (Michael W. Deem and Ramdas Pophale) SiO2 
 PCOD9551373
Probable space group: I 4 2 2 
;
_chemical_formula_sum "Si O2"
_cell_formula_units_Z 120
_cell_length_a 20.791288
_cell_length_b 20.791288
_cell_length_c 14.298960
_cell_angle_alpha 90.000000
_cell_angle_beta 90.000000
_cell_angle_gamma 90.000000
_cell_volume 6181.120922
_symmetry_space_group_name_H-M "I 4 2 2 "
_symmetry_group_IT_number 97
_symmetry_cell_setting 'tetragonal'
loop_
_space_group_symop_operation_xyz
x,y,z
-y,x,z
-x,-y,z
y,-x,z
x,-y,-z
-x,y,-z
y,x,-z
-y,-x,-z
1/2+x,1/2+y,1/2+z
1/2-y,1/2+x,1/2+z
1/2-x,1/2-y,1/2+z
1/2+y,1/2-x,1/2+z
1/2+x,1/2-y,1/2-z
1/2-x,1/2+y,1/2-z
1/2+y,1/2+x,1/2-z
1/2-y,1/2-x,1/2-z
loop_
_atom_site_type_symbol
_atom_site_label
_atom_site_fract_x
_atom_site_fract_y
_atom_site_fract_z
Si Si1 0.218582 0.955513 0.312078
Si Si2 0.957018 0.367335 0.191827
Si Si3 0.684597 0.689385 0.888527
Si Si4 0.204367 0.500000 0.000000
Si Si5 0.306146 0.261918 0.402275
Si Si6 0.826425 0.594738 0.316469
Si Si7 0.628978 0.865635 0.476863
Si Si8 0.276168 0.412978 0.748876
O O1 0.190405 0.888879 0.352507
O O2 0.258811 0.928789 0.223231
O O3 0.256669 0.983940 0.403752
O O4 0.186214 0.019720 0.266937
O O5 0.920640 0.420640 0.250000
O O6 0.934685 0.372333 0.085095
O O7 0.933917 0.297552 0.229890
O O8 0.032633 0.370923 0.200402
O O9 0.733219 0.749082 0.865281
O O10 0.715984 0.627348 0.842343
O O11 0.685036 0.685036 0.000000
O O12 0.162969 0.434872 0.984344
O O13 0.299802 0.299802 0.500000
O O14 0.329561 0.189341 0.425423
O O15 0.359729 0.290880 0.332256
O O16 0.849497 0.650503 0.250000
O O17 0.835668 0.614083 0.422612
#
# Coordination Sequence:
#
# PCOD9551373 Si02
#       8
#    16  16  16   8  16  16  16  16
#     4  11  23  38  61  84 128 157 200 254 312 385
#     4  10  21  39  56  74 111 157 208 250 294 361
#     4  11  22  35  60  97 117 157 207 257 303 366
#     4  12  20  36  53  78 114 169 198 242 308 360
#     4  10  21  36  59  88 116 155 206 258 305 365
#     4  11  23  36  51  83 110 157 196 253 309 343
#     4  11  22  37  57  79 114 157 202 249 306 359
#     4  10  21  39  60  84 118 164 196 246 325 372
#
# _framework density 19.413952999999999
#
# number of rings (size 3 to 8) (size 9 to 14) (size 15 to 20)
#    0.000    1.333    1.333    7.200    1.867    0.267 
#    0.000    0.667    0.000    0.400    0.000    0.933 
#    0.000    0.000    3.200    0.000    0.000    0.000 
#
# Total GULP energy -334402.690968 kJ/mol
# GULP energy per Si atom -5573.378183 kJ/mol
# Density = 1.936977 g / cm^3
# Si number density = 19.413953 Si / 1000 Ang^3
#
#
#
# Elastic Constant Matrix: (Units=GPa)
#
#
# Indices 1 2 3 4 5 6 
#
# 1 64.9674 26.6564 33.6392 0.0000 0.0000 0.0000
# 2 26.6564 64.9654 33.6376 0.0000 0.0000 0.0000
# 3 33.6392 33.6376 103.6294 0.0000 0.0000 0.0000
# 4 0.0000 0.0000 0.0000 48.4139 0.0000 0.0000
# 5 0.0000 0.0000 0.0000 0.0000 48.4009 0.0000
# 6 0.0000 0.0000 0.0000 0.0000 0.0000 14.2124
#
#
#
# Elastic Compliance Matrix: (Units=1/GPa)
#
#
# Indices 1 2 3 4 5 6 
#
# 1 0.020216 -0.005887 -0.004652 0.000000 0.000000 0.000000
# 2 -0.005887 0.020217 -0.004651 0.000000 0.000000 0.000000
# 3 -0.004652 -0.004651 0.012670 0.000000 0.000000 0.000000
# 4 0.000000 0.000000 0.000000 0.020655 0.000000 0.000000
# 5 0.000000 0.000000 0.000000 0.000000 0.020661 0.000000
# 6 0.000000 0.000000 0.000000 0.000000 0.000000 0.070361
#
#
# Mechanical properties :
#
#
# Convention : Reuss Voigt Hill
#
# Bulk Modulus (GPa) = 44.00790 46.82538 45.41664
# Shear Modulus (GPa) = 24.66304 31.51404 28.08854
#
# Velocity S-wave (km/s) = 3.56810 4.03335 3.80784
# Velocity P-wave (km/s) = 6.30020 6.77218 6.54045
#
# Compressibility (1/GPa) = 0.02272319
#
# Stress axis : x y z
#
# Youngs Moduli (GPa) = 49.46537 49.46452 78.92936
#
# Poissons Ratio (x) = 0.29117 0.36715
# Poissons Ratio (y) = 0.29118 0.36713
# Poissons Ratio (z) = 0.23010 0.23008
#
# Static dielectric constant tensor:
#      x y z
#    x 1.713010 0.000000 0.000000 
#    y 0.000000 1.713030 0.000000 
#    z 0.000000 0.000000 1.677230 
# 
# From -- ./inp_files/5059.got.cif
#   From: 2010.05.17/outbox.cif.g08.bks.cpg/sg97_3_cif.got.tgz:5059.got - 2010.06.03 19:55:32.
