data_PCOD9551698
_publ_section_title
;
Structure prediction by ZEFSAII (Michael W. Deem and Ramdas Pophale) SiO2 
 PCOD9551698
Probable space group: I 41 2 2
;
_chemical_formula_sum "Si O2"
_cell_formula_units_Z 88
_cell_length_a 17.736512
_cell_length_b 17.736512
_cell_length_c 15.824104
_cell_angle_alpha 90.000000
_cell_angle_beta 90.000000
_cell_angle_gamma 90.000000
_cell_volume 4978.007685
_symmetry_space_group_name_H-M "I 41 2 2"
_symmetry_group_IT_number 98
_symmetry_cell_setting 'tetragonal'
loop_
_space_group_symop_operation_xyz
x,y,z
-y,1/2+x,1/4+z
-x,-y,z
y,1/2-x,1/4+z
x,1/2-y,1/4-z
-x,1/2+y,1/4-z
y,x,-z
-y,-x,-z
1/2+x,1/2+y,1/2+z
1/2-y,x,3/4+z
1/2-x,1/2-y,1/2+z
1/2+y,-x,3/4+z
1/2+x,-y,3/4-z
1/2-x,y,3/4-z
1/2+y,1/2+x,1/2-z
1/2-y,1/2-x,1/2-z
loop_
_atom_site_type_symbol
_atom_site_label
_atom_site_fract_x
_atom_site_fract_y
_atom_site_fract_z
Si Si1 0.666878 0.517191 0.401489
Si Si2 0.628454 0.317331 0.829572
Si Si3 0.697572 0.993719 0.654077
Si Si4 0.216754 0.716754 0.750000
Si Si5 0.930718 0.053259 0.217914
Si Si6 0.309063 0.170056 0.651195
O O1 0.750000 0.490587 0.375000
O O2 0.658703 0.513112 0.502946
O O3 0.607880 0.466334 0.353177
O O4 0.662452 0.604112 0.369330
O O5 0.559050 0.259242 0.836076
O O6 0.693938 0.294846 0.763013
O O7 0.671403 0.313419 0.918995
O O8 0.598061 0.397038 0.796223
O O9 0.638238 0.013126 0.580649
O O10 0.730156 0.909917 0.635440
O O11 0.000000 0.000000 0.243255
O O12 0.274458 0.250000 0.625000
O O13 0.319778 0.180223 0.750000
#
# Coordination Sequence:
#
# PCOD9551698 Si02
#       6
#    16  16  16   8  16  16
#     4  10  19  31  49  80 122 158 192 238 302 368
#     4  11  23  40  62  92 124 164 209 261 319 385
#     4  11  21  33  56  85 121 164 200 249 307 373
#     4  10  24  42  63  90 127 168 208 264 326 380
#     4  12  23  35  56  90 122 162 209 253 304 378
#     4   9  19  34  53  78 115 156 194 243 298 364
#
# _framework density 17.677755000000001
#
# number of rings (size 3 to 8) (size 9 to 14) (size 15 to 20)
#    0.000    1.455    5.455    0.545    2.545    0.727 
#    0.000    0.455    0.000    4.364    0.000    0.000 
#    0.000    0.000    0.000    0.000    0.000    0.000 
#
# Total GULP energy -245235.476367 kJ/mol
# GULP energy per Si atom -5573.533554 kJ/mol
# Density = 1.763752 g / cm^3
# Si number density = 17.677755 Si / 1000 Ang^3
#
#
#
# Elastic Constant Matrix: (Units=GPa)
#
#
# Indices 1 2 3 4 5 6 
#
# 1 109.3518 49.6033 34.1584 0.0000 0.0000 0.0000
# 2 49.6033 109.3518 34.1585 0.0000 0.0000 0.0000
# 3 34.1584 34.1585 55.2877 0.0000 0.0000 0.0000
# 4 0.0000 0.0000 0.0000 21.1855 0.0000 0.0000
# 5 0.0000 0.0000 0.0000 0.0000 21.1856 0.0000
# 6 0.0000 0.0000 0.0000 0.0000 0.0000 32.4536
#
#
#
# Elastic Compliance Matrix: (Units=1/GPa)
#
#
# Indices 1 2 3 4 5 6 
#
# 1 0.012651 -0.004086 -0.005292 0.000000 0.000000 0.000000
# 2 -0.004086 0.012651 -0.005292 0.000000 0.000000 0.000000
# 3 -0.005292 -0.005292 0.024626 0.000000 0.000000 0.000000
# 4 0.000000 0.000000 0.000000 0.047202 0.000000 0.000000
# 5 0.000000 0.000000 0.000000 0.000000 0.047202 0.000000
# 6 0.000000 0.000000 0.000000 0.000000 0.000000 0.030813
#
#
# Mechanical properties :
#
#
# Convention : Reuss Voigt Hill
#
# Bulk Modulus (GPa) = 48.56901 56.64797 52.60849
# Shear Modulus (GPa) = 23.65759 25.36966 24.51362
#
# Velocity S-wave (km/s) = 3.66220 3.79240 3.72787
# Velocity P-wave (km/s) = 6.73918 7.16176 6.95368
#
# Compressibility (1/GPa) = 0.02058926
#
# Stress axis : x y z
#
# Youngs Moduli (GPa) = 79.04403 79.04389 40.60680
#
# Poissons Ratio (x) = 0.32295 0.21489
# Poissons Ratio (y) = 0.32295 0.21489
# Poissons Ratio (z) = 0.41830 0.41831
#
# Static dielectric constant tensor:
#      x y z
#    x 1.652890 0.000000 0.000000 
#    y 0.000000 1.652890 0.000000 
#    z 0.000000 0.000000 1.600730 
# 
# From -- ./inp_files/6556.got.cif
#   From: 2010.05.17/outbox.cif.g08.bks.cpg/sg98_4_cif.got.tgz:6556.got - 2010.06.03 20:00:51.
