data_PCOD9551965
_publ_section_title
;
Structure prediction by ZEFSAII (Michael W. Deem and Ramdas Pophale) SiO2 
 PCOD9551965
Probable space group: I 41 2 2
;
_chemical_formula_sum "Si O2"
_cell_formula_units_Z 76
_cell_length_a 10.928837
_cell_length_b 10.928837
_cell_length_c 31.583108
_cell_angle_alpha 90.000000
_cell_angle_beta 90.000000
_cell_angle_gamma 90.000000
_cell_volume 3772.269939
_symmetry_space_group_name_H-M "I 41 2 2"
_symmetry_group_IT_number 98
_symmetry_cell_setting 'tetragonal'
loop_
_space_group_symop_operation_xyz
x,y,z
-y,1/2+x,1/4+z
-x,-y,z
y,1/2-x,1/4+z
x,1/2-y,1/4-z
-x,1/2+y,1/4-z
y,x,-z
-y,-x,-z
1/2+x,1/2+y,1/2+z
1/2-y,x,3/4+z
1/2-x,1/2-y,1/2+z
1/2+y,-x,3/4+z
1/2+x,-y,3/4-z
1/2-x,y,3/4-z
1/2+y,1/2+x,1/2-z
1/2-y,1/2-x,1/2-z
loop_
_atom_site_type_symbol
_atom_site_label
_atom_site_fract_x
_atom_site_fract_y
_atom_site_fract_z
Si Si1 0.001347 0.773469 0.935459
Si Si2 0.121404 0.298598 0.526018
Si Si3 0.740069 0.355224 0.954511
Si Si4 0.500000 0.000000 0.750000
Si Si5 0.000000 0.000000 0.784446
Si Si6 0.874013 0.338332 0.397452
O O1 0.120613 0.689839 0.945895
O O2 0.024130 0.825883 0.888605
O O3 0.876087 0.699277 0.940329
O O4 0.999996 0.881651 0.969897
O O5 0.204843 0.204843 0.500000
O O6 0.001202 0.235685 0.545105
O O7 0.069931 0.401601 0.493905
O O8 0.657492 0.291926 0.918741
O O9 0.695887 0.304114 0.000000
O O10 0.091364 0.927570 0.814845
O O11 0.750000 0.381872 0.375000
#
# Coordination Sequence:
#
# PCOD9551965 Si02
#       6
#    16  16  16   4   8  16
#     4  11  22  41  67 104 135 174 229 291 354 408
#     4  12  25  41  72 101 134 184 234 282 340 426
#     4  11  20  44  67  91 133 188 231 268 342 419
#     4  12  22  36  76 104 136 176 232 284 364 438
#     4  12  23  46  66  99 140 168 225 296 342 409
#     4  10  24  40  70  99 133 183 225 287 358 406
#
# _framework density 20.147022
#
# number of rings (size 3 to 8) (size 9 to 14) (size 15 to 20)
#    0.000    0.842    6.316    0.632    2.947    2.105 
#    0.000   10.526    0.000    0.000    0.000    0.000 
#    0.000    0.000    0.000    0.000    0.000    0.000 
#
# Total GULP energy -212539.018822 kJ/mol
# GULP energy per Si atom -5593.132074 kJ/mol
# Density = 2.010117 g / cm^3
# Si number density = 20.147022 Si / 1000 Ang^3
#
#
#
# Elastic Constant Matrix: (Units=GPa)
#
#
# Indices 1 2 3 4 5 6 
#
# 1 70.7919 26.6572 13.1186 0.0000 0.0000 0.0000
# 2 26.6572 70.7925 13.1184 0.0000 0.0000 0.0000
# 3 13.1186 13.1184 73.7448 0.0000 0.0000 0.0000
# 4 0.0000 0.0000 0.0000 -40.4670 0.0000 0.0000
# 5 0.0000 0.0000 0.0000 0.0000 -40.4692 0.0000
# 6 0.0000 0.0000 0.0000 0.0000 0.0000 38.4374
#
#
#
# Elastic Compliance Matrix: (Units=1/GPa)
#
#
# Indices 1 2 3 4 5 6 
#
# 1 0.016718 -0.005940 -0.001917 0.000000 0.000000 0.000000
# 2 -0.005940 0.016718 -0.001917 0.000000 0.000000 0.000000
# 3 -0.001917 -0.001917 0.014242 0.000000 0.000000 0.000000
# 4 0.000000 0.000000 0.000000 -0.024712 0.000000 0.000000
# 5 0.000000 0.000000 0.000000 0.000000 -0.024710 0.000000
# 6 0.000000 0.000000 0.000000 0.000000 0.000000 0.026016
#
#
# Mechanical properties :
#
#
# Convention : Reuss Voigt Hill
#
# Bulk Modulus (GPa) = 35.55034 35.67973 35.61503
# Shear Modulus (GPa) = 93.98840 2.32925 48.15883
#
# Velocity S-wave (km/s) = 6.83758 1.07640 4.89444
# Velocity P-wave (km/s) = 8.94542 4.39238 7.04675
#
# Compressibility (1/GPa) = 0.02812913
#
# Stress axis : x y z
#
# Youngs Moduli (GPa) = 59.81610 59.81666 70.21284
#
# Poissons Ratio (x) = 0.35530 0.13462
# Poissons Ratio (y) = 0.35530 0.13462
# Poissons Ratio (z) = 0.11469 0.11468
#
# Static dielectric constant tensor:
#      x y z
#    x 1.720380 0.000000 0.000000 
#    y 0.000000 1.720380 0.000000 
#    z 0.000000 0.000000 1.703570 
# 
# From -- ./inp_files/11830.got.cif
#   From: 2010.05.17/outbox.cif.g08.bks.cpg/sg98_6_cif.got.tgz:11830.got - 2010.06.03 20:00:51.
