data_PCOD9551004
_publ_section_title
;
Structure prediction by ZEFSAII (Michael W. Deem and Ramdas Pophale) SiO2 
 PCOD9551004
Probable space group: P 43 21 2
;
_chemical_formula_sum "Si O2"
_cell_formula_units_Z 32
_cell_length_a 13.505015
_cell_length_b 13.505015
_cell_length_c 9.012319
_cell_angle_alpha 90.000000
_cell_angle_beta 90.000000
_cell_angle_gamma 90.000000
_cell_volume 1643.715677
_symmetry_space_group_name_H-M "P 43 21 2"
_symmetry_group_IT_number 96
_symmetry_cell_setting 'tetragonal'
loop_
_space_group_symop_operation_xyz
x,y,z
1/2-y,1/2+x,3/4+z
-x,-y,1/2+z
1/2+y,1/2-x,1/4+z
1/2+x,1/2-y,1/4-z
1/2-x,1/2+y,3/4-z
y,x,-z
-y,-x,1/2-z
loop_
_atom_site_type_symbol
_atom_site_label
_atom_site_fract_x
_atom_site_fract_y
_atom_site_fract_z
Si Si1 0.112998 0.503605 0.887960
Si Si2 0.376643 0.762155 0.167928
Si Si3 0.755449 0.678956 0.344422
Si Si4 0.797931 0.607609 0.828036
O O1 0.061087 0.536389 0.735875
O O2 0.208075 0.433448 0.866379
O O3 0.133100 0.604748 0.978677
O O4 0.335760 0.664241 0.250000
O O5 0.322767 0.850053 0.260072
O O6 0.491943 0.780445 0.177313
O O7 0.342283 0.767308 0.998149
O O8 0.729404 0.729404 0.500000
O O9 0.661679 0.702726 0.240880
#
# Coordination Sequence:
#
# PCOD9551004 Si02
#       4
#     8   8   8   8
#     4  12  23  37  67  96 127 169 218 270 314 384
#     4  10  23  37  63  89 129 170 211 268 324 386
#     4  11  23  38  60  97 132 163 211 271 322 380
#     4  11  21  41  61  94 131 165 214 265 326 381
#
# _framework density 19.468087000000001
#
# number of rings (size 3 to 8) (size 9 to 14) (size 15 to 20)
#    0.000    1.000    5.000    1.500    3.500    0.000 
#    0.000    0.000    5.500    4.500    0.000    0.000 
#    0.000    0.000    0.000    0.000    0.000    0.000 
#
# Total GULP energy -178725.464021 kJ/mol
# GULP energy per Si atom -5585.170751 kJ/mol
# Density = 1.942378 g / cm^3
# Si number density = 19.468087 Si / 1000 Ang^3
#
#
#
# Elastic Constant Matrix: (Units=GPa)
#
#
# Indices 1 2 3 4 5 6 
#
# 1 62.6640 64.4882 17.6966 0.0000 0.0000 0.0000
# 2 64.4882 62.6722 17.6959 0.0000 0.0000 0.0000
# 3 17.6966 17.6959 54.2869 0.0000 0.0000 0.0000
# 4 0.0000 0.0000 0.0000 20.9730 0.0000 0.0000
# 5 0.0000 0.0000 0.0000 0.0000 20.9731 0.0000
# 6 0.0000 0.0000 0.0000 0.0000 0.0000 36.6653
#
#
#
# Elastic Compliance Matrix: (Units=1/GPa)
#
#
# Indices 1 2 3 4 5 6 
#
# 1 -0.270409 0.279038 -0.002809 0.000000 0.000000 0.000000
# 2 0.279038 -0.270368 -0.002830 0.000000 0.000000 0.000000
# 3 -0.002809 -0.002830 0.020259 0.000000 0.000000 0.000000
# 4 0.000000 0.000000 0.000000 0.047680 0.000000 0.000000
# 5 0.000000 0.000000 0.000000 0.000000 0.047680 0.000000
# 6 0.000000 0.000000 0.000000 0.000000 0.000000 0.027274
#
#
# Mechanical properties :
#
#
# Convention : Reuss Voigt Hill
#
# Bulk Modulus (GPa) = 38.05271 42.15383 40.10327
# Shear Modulus (GPa) = -5.34232 21.03843 7.84805
#
# Velocity S-wave (km/s) = -1.65834 3.29091 2.00997
# Velocity P-wave (km/s) = 3.99022 6.01165 5.10205
#
# Compressibility (1/GPa) = 0.02627934
#
# Stress axis : x y z
#
# Youngs Moduli (GPa) = -3.69810 -3.69866 49.36136
#
# Poissons Ratio (x) = 1.03207 0.13867
# Poissons Ratio (y) = 1.03191 0.13967
# Poissons Ratio (z) = -0.01039 -0.01047
#
# Static dielectric constant tensor:
#      x y z
#    x 1.686800 0.000000 0.000000 
#    y 0.000000 1.686790 0.000000 
#    z 0.000000 0.000000 1.743760 
# 
# From -- ./inp_files/1119.got.cif
#   From: 2010.05.17/outbox.cif.g08.bks.cpg/sg96_1_cif.got.tgz:1119.got - 2010.06.03 19:52:08.
