data_PCOD9551254
_publ_section_title
;
Structure prediction by ZEFSAII (Michael W. Deem and Ramdas Pophale) SiO2 
 PCOD9551254
Probable space group: I 4 2 2 
;
_chemical_formula_sum "Si O2"
_cell_formula_units_Z 88
_cell_length_a 17.755285
_cell_length_b 17.755285
_cell_length_c 14.895951
_cell_angle_alpha 90.000000
_cell_angle_beta 90.000000
_cell_angle_gamma 90.000000
_cell_volume 4695.950719
_symmetry_space_group_name_H-M "I 4 2 2 "
_symmetry_group_IT_number 97
_symmetry_cell_setting 'tetragonal'
loop_
_space_group_symop_operation_xyz
x,y,z
-y,x,z
-x,-y,z
y,-x,z
x,-y,-z
-x,y,-z
y,x,-z
-y,-x,-z
1/2+x,1/2+y,1/2+z
1/2-y,1/2+x,1/2+z
1/2-x,1/2-y,1/2+z
1/2+y,1/2-x,1/2+z
1/2+x,1/2-y,1/2-z
1/2-x,1/2+y,1/2-z
1/2+y,1/2+x,1/2-z
1/2-y,1/2-x,1/2-z
loop_
_atom_site_type_symbol
_atom_site_label
_atom_site_fract_x
_atom_site_fract_y
_atom_site_fract_z
Si Si1 0.594037 0.584885 0.892774
Si Si2 0.590256 0.853314 0.838572
Si Si3 0.685842 0.916360 0.004822
Si Si4 0.715424 0.691509 0.179833
Si Si5 0.074458 0.551278 0.145519
Si Si6 0.730159 0.730159 0.500000
O O1 0.505055 0.603144 0.876866
O O2 0.652799 0.633800 0.833215
O O3 0.603197 0.603197 0.000000
O O4 0.595109 0.904891 0.750000
O O5 0.621980 0.773420 0.807806
O O6 0.504939 0.855807 0.871162
O O7 0.642281 0.890074 0.914754
O O8 0.623311 0.918583 0.082953
O O9 0.750797 0.856063 0.017049
O O10 0.716442 0.000000 0.000000
O O11 0.743407 0.756594 0.250000
O O12 0.737728 0.725988 0.084780
O O13 0.073087 0.573087 0.250000
O O14 0.000000 0.500000 0.124007
#
# Coordination Sequence:
#
# PCOD9551254 Si02
#       6
#    16  16  16  16  16   8
#     4   9  18  36  64  93 124 163 210 262 314 376
#     4  10  19  33  51  82 118 154 186 238 292 355
#     4  11  21  35  57  76 110 155 193 241 298 357
#     4  10  21  38  58  84 127 162 198 249 314 372
#     4  11  19  32  55  86 118 145 193 240 289 370
#     4  10  24  40  52  84 116 152 208 248 304 380
#
# _framework density 18.739549
#
# number of rings (size 3 to 8) (size 9 to 14) (size 15 to 20)
#    0.000    1.818    4.545    1.091    0.000    2.182 
#    3.273    5.455    0.000    0.273    0.000    0.000 
#    0.000    0.000    0.000    0.000    0.000    0.000 
#
# Total GULP energy -245188.828882 kJ/mol
# GULP energy per Si atom -5572.473384 kJ/mol
# Density = 1.869690 g / cm^3
# Si number density = 18.739549 Si / 1000 Ang^3
#
#
#
# Elastic Constant Matrix: (Units=GPa)
#
#
# Indices 1 2 3 4 5 6 
#
# 1 91.6141 63.8913 24.3673 0.0000 0.0000 0.0000
# 2 63.8913 91.6144 24.3686 0.0000 0.0000 0.0000
# 3 24.3673 24.3686 81.8720 0.0000 0.0000 0.0000
# 4 0.0000 0.0000 0.0000 20.6864 0.0000 0.0000
# 5 0.0000 0.0000 0.0000 0.0000 20.6864 0.0000
# 6 0.0000 0.0000 0.0000 0.0000 0.0000 37.3804
#
#
#
# Elastic Compliance Matrix: (Units=1/GPa)
#
#
# Indices 1 2 3 4 5 6 
#
# 1 0.021582 -0.014489 -0.002111 0.000000 0.000000 0.000000
# 2 -0.014489 0.021582 -0.002111 0.000000 0.000000 0.000000
# 3 -0.002111 -0.002111 0.013471 0.000000 0.000000 0.000000
# 4 0.000000 0.000000 0.000000 0.048341 0.000000 0.000000
# 5 0.000000 0.000000 0.000000 0.000000 0.048341 0.000000
# 6 0.000000 0.000000 0.000000 0.000000 0.000000 0.026752
#
#
# Mechanical properties :
#
#
# Convention : Reuss Voigt Hill
#
# Bulk Modulus (GPa) = 52.05190 54.48387 53.26788
# Shear Modulus (GPa) = 22.33196 25.91553 24.12374
#
# Velocity S-wave (km/s) = 3.45585 3.72281 3.59181
# Velocity P-wave (km/s) = 6.61518 6.90047 6.75933
#
# Compressibility (1/GPa) = 0.01921159
#
# Stress axis : x y z
#
# Youngs Moduli (GPa) = 46.33573 46.33545 74.23497
#
# Poissons Ratio (x) = 0.67138 0.15668
# Poissons Ratio (y) = 0.67138 0.15672
# Poissons Ratio (z) = 0.09780 0.09782
#
# Static dielectric constant tensor:
#      x y z
#    x 1.716200 0.000000 0.000000 
#    y 0.000000 1.716200 0.000000 
#    z 0.000000 0.000000 1.705310 
# 
# From -- ./inp_files/4883.got.cif
#   From: 2010.05.17/outbox.cif.g08.bks.cpg/sg97_3_cif.got.tgz:4883.got - 2010.06.03 19:55:32.
