data_PCOD9551307
_publ_section_title
;
Structure prediction by ZEFSAII (Michael W. Deem and Ramdas Pophale) SiO2 
 PCOD9551307
Probable space group: I 4 2 2 
;
_chemical_formula_sum "Si O2"
_cell_formula_units_Z 80
_cell_length_a 14.034605
_cell_length_b 14.034605
_cell_length_c 20.179559
_cell_angle_alpha 90.000000
_cell_angle_beta 90.000000
_cell_angle_gamma 90.000000
_cell_volume 3974.770511
_symmetry_space_group_name_H-M "I 4 2 2 "
_symmetry_group_IT_number 97
_symmetry_cell_setting 'tetragonal'
loop_
_space_group_symop_operation_xyz
x,y,z
-y,x,z
-x,-y,z
y,-x,z
x,-y,-z
-x,y,-z
y,x,-z
-y,-x,-z
1/2+x,1/2+y,1/2+z
1/2-y,1/2+x,1/2+z
1/2-x,1/2-y,1/2+z
1/2+y,1/2-x,1/2+z
1/2+x,1/2-y,1/2-z
1/2-x,1/2+y,1/2-z
1/2+y,1/2+x,1/2-z
1/2-y,1/2-x,1/2-z
loop_
_atom_site_type_symbol
_atom_site_label
_atom_site_fract_x
_atom_site_fract_y
_atom_site_fract_z
Si Si1 0.936200 0.595493 0.823415
Si Si2 0.613978 0.611445 0.248683
Si Si3 0.122558 0.704155 0.819510
Si Si4 0.221052 0.548147 0.066269
Si Si5 0.799779 0.855724 0.606778
O O1 0.891985 0.608016 0.750000
O O2 0.857215 0.574620 0.878704
O O3 0.000000 0.500000 0.821799
O O4 0.012898 0.679447 0.834712
O O5 0.502559 0.629446 0.252516
O O6 0.686117 0.647807 0.304558
O O7 0.650107 0.650059 0.178555
O O8 0.148965 0.648965 0.750000
O O9 0.190156 0.669314 0.878193
O O10 0.296310 0.466061 0.087217
O O11 0.283911 0.643192 0.060307
O O12 0.177997 0.500000 0.000000
#
# Coordination Sequence:
#
# PCOD9551307 Si02
#       5
#    16  16  16  16  16
#     4  11  20  39  63  89 120 155 207 262 324 369
#     4  10  20  34  56  89 126 162 209 263 323 383
#     4  10  20  35  58  89 124 161 209 267 316 381
#     4  12  26  41  62  87 123 169 212 260 312 388
#     4  11  22  40  56  85 121 170 216 251 316 381
#
# _framework density 20.126947000000001
#
# number of rings (size 3 to 8) (size 9 to 14) (size 15 to 20)
#    0.000    1.200    6.000    1.800    2.800    1.600 
#    0.000    1.000    0.000    0.000    0.000    0.000 
#    0.000    0.000    0.000    0.000    0.000    0.000 
#
# Total GULP energy -223189.914878 kJ/mol
# GULP energy per Si atom -5579.747872 kJ/mol
# Density = 2.008114 g / cm^3
# Si number density = 20.126947 Si / 1000 Ang^3
#
#
#
# Elastic Constant Matrix: (Units=GPa)
#
#
# Indices 1 2 3 4 5 6 
#
# 1 57.6737 41.3530 40.2025 0.0000 0.0000 0.0000
# 2 41.3530 57.6732 40.2023 0.0000 0.0000 0.0000
# 3 40.2025 40.2023 95.2860 0.0000 0.0000 0.0000
# 4 0.0000 0.0000 0.0000 22.2376 0.0000 0.0000
# 5 0.0000 0.0000 0.0000 0.0000 22.2376 0.0000
# 6 0.0000 0.0000 0.0000 0.0000 0.0000 28.5257
#
#
#
# Elastic Compliance Matrix: (Units=1/GPa)
#
#
# Indices 1 2 3 4 5 6 
#
# 1 0.038316 -0.022956 -0.006481 0.000000 0.000000 0.000000
# 2 -0.022956 0.038317 -0.006481 0.000000 0.000000 0.000000
# 3 -0.006481 -0.006481 0.015963 0.000000 0.000000 0.000000
# 4 0.000000 0.000000 0.000000 0.044969 0.000000 0.000000
# 5 0.000000 0.000000 0.000000 0.000000 0.044969 0.000000
# 6 0.000000 0.000000 0.000000 0.000000 0.000000 0.035056
#
#
# Mechanical properties :
#
#
# Convention : Reuss Voigt Hill
#
# Bulk Modulus (GPa) = 48.16697 50.46094 49.31395
# Shear Modulus (GPa) = 16.87215 20.52519 18.69867
#
# Velocity S-wave (km/s) = 2.89846 3.19687 3.05132
# Velocity P-wave (km/s) = 5.93169 6.22515 6.08019
#
# Compressibility (1/GPa) = 0.02076112
#
# Stress axis : x y z
#
# Youngs Moduli (GPa) = 26.09842 26.09819 62.64354
#
# Poissons Ratio (x) = 0.59912 0.40598
# Poissons Ratio (y) = 0.59912 0.40598
# Poissons Ratio (z) = 0.16914 0.16914
#
# Static dielectric constant tensor:
#      x y z
#    x 1.734520 0.000000 0.000000 
#    y 0.000000 1.734520 0.000000 
#    z 0.000000 0.000000 1.745940 
# 
# From -- ./inp_files/6422.got.cif
#   From: 2010.05.17/outbox.cif.g08.bks.cpg/sg97_4_cif.got.tgz:6422.got - 2010.06.03 19:55:32.
