data_PCOD9551790
_publ_section_title
;
Structure prediction by ZEFSAII (Michael W. Deem and Ramdas Pophale) SiO2 
 PCOD9551790
Probable space group: I 41 2 2
;
_chemical_formula_sum "Si O2"
_cell_formula_units_Z 76
_cell_length_a 19.106623
_cell_length_b 19.106623
_cell_length_c 10.516036
_cell_angle_alpha 90.000000
_cell_angle_beta 90.000000
_cell_angle_gamma 90.000000
_cell_volume 3839.016097
_symmetry_space_group_name_H-M "I 41 2 2"
_symmetry_group_IT_number 98
_symmetry_cell_setting 'tetragonal'
loop_
_space_group_symop_operation_xyz
x,y,z
-y,1/2+x,1/4+z
-x,-y,z
y,1/2-x,1/4+z
x,1/2-y,1/4-z
-x,1/2+y,1/4-z
y,x,-z
-y,-x,-z
1/2+x,1/2+y,1/2+z
1/2-y,x,3/4+z
1/2-x,1/2-y,1/2+z
1/2+y,-x,3/4+z
1/2+x,-y,3/4-z
1/2-x,y,3/4-z
1/2+y,1/2+x,1/2-z
1/2-y,1/2-x,1/2-z
loop_
_atom_site_type_symbol
_atom_site_label
_atom_site_fract_x
_atom_site_fract_y
_atom_site_fract_z
Si Si1 0.432639 0.048845 0.099479
Si Si2 0.997790 0.137943 0.830217
Si Si3 0.088772 0.823057 0.599930
Si Si4 0.000000 0.500000 0.250000
Si Si5 0.962799 0.711897 0.836222
Si Si6 0.699949 0.699949 0.000000
O O1 0.437990 0.062010 0.250000
O O2 0.355056 0.021757 0.074765
O O3 0.500000 0.000000 0.071291
O O4 0.440949 0.118843 0.019466
O O5 0.930874 0.143519 0.735738
O O6 0.015103 0.212757 0.889551
O O7 0.997471 0.072440 0.922699
O O8 0.127890 0.750000 0.625000
O O9 0.127244 0.872757 0.500000
O O10 0.016389 0.801286 0.530241
O O11 0.881440 0.710043 0.794387
O O12 0.712787 0.750000 0.125000
#
# Coordination Sequence:
#
# PCOD9551790 Si02
#       6
#    16  16  16   4  16   8
#     4  11  19  32  64  94 113 145 201 271 316 362
#     4  11  23  39  58  89 126 166 213 257 320 371
#     4  10  20  37  69  97 119 148 204 277 317 372
#     4  12  28  42  58  80 140 184 214 266 304 398
#     4  11  21  37  63  96 117 152 211 270 313 373
#     4  12  24  39  57  84 130 167 205 258 318 378
#
# _framework density 19.796738999999999
#
# number of rings (size 3 to 8) (size 9 to 14) (size 15 to 20)
#    0.000    1.053    4.211    4.421    0.000    0.842 
#    0.000    1.053    9.263    0.000    0.000    0.000 
#    0.000    0.000    0.000    0.000    0.000    0.000 
#
# Total GULP energy -211677.864314 kJ/mol
# GULP energy per Si atom -5570.470114 kJ/mol
# Density = 1.975168 g / cm^3
# Si number density = 19.796739 Si / 1000 Ang^3
#
#
#
# Elastic Constant Matrix: (Units=GPa)
#
#
# Indices 1 2 3 4 5 6 
#
# 1 138.5919 58.8977 45.4750 0.0000 0.0000 0.0000
# 2 58.8977 138.5901 45.4737 0.0000 0.0000 0.0000
# 3 45.4750 45.4737 56.4768 0.0000 0.0000 0.0000
# 4 0.0000 0.0000 0.0000 14.7353 0.0000 0.0000
# 5 0.0000 0.0000 0.0000 0.0000 14.7351 0.0000
# 6 0.0000 0.0000 0.0000 0.0000 0.0000 23.1206
#
#
#
# Elastic Compliance Matrix: (Units=1/GPa)
#
#
# Indices 1 2 3 4 5 6 
#
# 1 0.010298 -0.002250 -0.006480 0.000000 0.000000 0.000000
# 2 -0.002250 0.010298 -0.006480 0.000000 0.000000 0.000000
# 3 -0.006480 -0.006480 0.028142 0.000000 0.000000 0.000000
# 4 0.000000 0.000000 0.000000 0.067864 0.000000 0.000000
# 5 0.000000 0.000000 0.000000 0.000000 0.067865 0.000000
# 6 0.000000 0.000000 0.000000 0.000000 0.000000 0.043251
#
#
# Mechanical properties :
#
#
# Convention : Reuss Voigt Hill
#
# Bulk Modulus (GPa) = 54.59333 70.37238 62.48285
# Shear Modulus (GPa) = 18.92188 22.77236 20.84712
#
# Velocity S-wave (km/s) = 3.09497 3.39530 3.24861
# Velocity P-wave (km/s) = 6.35677 7.14110 6.76032
#
# Compressibility (1/GPa) = 0.01831726
#
# Stress axis : x y z
#
# Youngs Moduli (GPa) = 97.10671 97.10694 35.53468
#
# Poissons Ratio (x) = 0.21851 0.23027
# Poissons Ratio (y) = 0.21851 0.23026
# Poissons Ratio (z) = 0.62926 0.62923
#
# Static dielectric constant tensor:
#      x y z
#    x 1.782840 0.000000 0.000000 
#    y 0.000000 1.782840 0.000000 
#    z 0.000000 0.000000 1.736100 
# 
# From -- ./inp_files/5186.got.cif
#   From: 2010.05.17/outbox.cif.g08.bks.cpg/sg98_3_cif.got.tgz:5186.got - 2010.06.03 20:00:51.
