data_PCOD9551504
_publ_section_title
;
Structure prediction by ZEFSAII (Michael W. Deem and Ramdas Pophale) SiO2 
 PCOD9551504
Probable space group: I 4 2 2 
;
_chemical_formula_sum "Si O2"
_cell_formula_units_Z 64
_cell_length_a 12.721044
_cell_length_b 12.721044
_cell_length_c 19.480696
_cell_angle_alpha 90.000000
_cell_angle_beta 90.000000
_cell_angle_gamma 90.000000
_cell_volume 3152.462860
_symmetry_space_group_name_H-M "I 4 2 2 "
_symmetry_group_IT_number 97
_symmetry_cell_setting 'tetragonal'
loop_
_space_group_symop_operation_xyz
x,y,z
-y,x,z
-x,-y,z
y,-x,z
x,-y,-z
-x,y,-z
y,x,-z
-y,-x,-z
1/2+x,1/2+y,1/2+z
1/2-y,1/2+x,1/2+z
1/2-x,1/2-y,1/2+z
1/2+y,1/2-x,1/2+z
1/2+x,1/2-y,1/2-z
1/2-x,1/2+y,1/2-z
1/2+y,1/2+x,1/2-z
1/2-y,1/2-x,1/2-z
loop_
_atom_site_type_symbol
_atom_site_label
_atom_site_fract_x
_atom_site_fract_y
_atom_site_fract_z
Si Si1 0.046273 0.165563 0.363038
Si Si2 0.298019 0.126424 0.175506
Si Si3 0.248453 0.596591 0.716863
Si Si4 0.878086 0.488345 0.081514
O O1 0.059512 0.180704 0.281233
O O2 0.929744 0.123727 0.381897
O O3 0.062551 0.282138 0.393389
O O4 0.353747 0.146254 0.250000
O O5 0.194037 0.196700 0.179501
O O6 0.376473 0.152941 0.114489
O O7 0.269258 0.004484 0.171166
O O8 0.141142 0.641142 0.750000
O O9 0.000000 0.500000 0.105323
O O10 0.879396 0.500000 0.000000
#
# Coordination Sequence:
#
# PCOD9551504 Si02
#       4
#    16  16  16  16
#     4  11  21  39  65 100 139 173 218 282 347 415
#     4  11  22  37  62  97 131 176 218 277 345 391
#     4  11  20  34  61  95 138 166 217 276 335 402
#     4  11  25  44  63  90 134 187 232 278 339 411
#
# _framework density 20.301589
#
# number of rings (size 3 to 8) (size 9 to 14) (size 15 to 20)
#    0.000    1.000    5.000    3.000    0.000    1.500 
#    0.000    3.750    0.000    0.000    0.000    0.000 
#    0.000   24.000    0.000    0.000    0.000    0.000 
#
# Total GULP energy -178591.543261 kJ/mol
# GULP energy per Si atom -5580.985727 kJ/mol
# Density = 2.025538 g / cm^3
# Si number density = 20.301589 Si / 1000 Ang^3
#
#
#
# Elastic Constant Matrix: (Units=GPa)
#
#
# Indices 1 2 3 4 5 6 
#
# 1 124.4798 39.5765 31.8669 0.0000 0.0000 0.0000
# 2 39.5765 124.4792 31.8670 0.0000 0.0000 0.0000
# 3 31.8669 31.8670 67.7993 0.0000 0.0000 0.0000
# 4 0.0000 0.0000 0.0000 12.6254 0.0000 0.0000
# 5 0.0000 0.0000 0.0000 0.0000 12.6260 0.0000
# 6 0.0000 0.0000 0.0000 0.0000 0.0000 19.3515
#
#
#
# Elastic Compliance Matrix: (Units=1/GPa)
#
#
# Indices 1 2 3 4 5 6 
#
# 1 0.009618 -0.002161 -0.003505 0.000000 0.000000 0.000000
# 2 -0.002161 0.009618 -0.003505 0.000000 0.000000 0.000000
# 3 -0.003505 -0.003505 0.018044 0.000000 0.000000 0.000000
# 4 0.000000 0.000000 0.000000 0.079205 0.000000 0.000000
# 5 0.000000 0.000000 0.000000 0.000000 0.079202 0.000000
# 6 0.000000 0.000000 0.000000 0.000000 0.000000 0.051676
#
#
# Mechanical properties :
#
#
# Convention : Reuss Voigt Hill
#
# Bulk Modulus (GPa) = 52.80241 58.15323 55.47782
# Shear Modulus (GPa) = 18.38127 23.15044 20.76585
#
# Velocity S-wave (km/s) = 3.01227 3.38054 3.20170
# Velocity P-wave (km/s) = 6.17769 6.62904 6.40734
#
# Compressibility (1/GPa) = 0.01893853
#
# Stress axis : x y z
#
# Youngs Moduli (GPa) = 103.97590 103.97532 55.41936
#
# Poissons Ratio (x) = 0.22464 0.19424
# Poissons Ratio (y) = 0.22464 0.19425
# Poissons Ratio (z) = 0.36443 0.36443
#
# Static dielectric constant tensor:
#      x y z
#    x 1.765450 0.000000 0.000000 
#    y 0.000000 1.765450 0.000000 
#    z 0.000000 0.000000 1.736160 
# 
# From -- ./inp_files/6327.got.cif
#   From: 2010.05.17/outbox.cif.g08.bks.cpg/sg97_4_cif.got.tgz:6327.got - 2010.06.03 19:55:32.
