data_PCOD9551705
_publ_section_title
;
Structure prediction by ZEFSAII (Michael W. Deem and Ramdas Pophale) SiO2 
 PCOD9551705
Probable space group: I 41 2 2
;
_chemical_formula_sum "Si O2"
_cell_formula_units_Z 80
_cell_length_a 31.102756
_cell_length_b 31.102756
_cell_length_c 5.276530
_cell_angle_alpha 90.000000
_cell_angle_beta 90.000000
_cell_angle_gamma 90.000000
_cell_volume 5104.417141
_symmetry_space_group_name_H-M "I 41 2 2"
_symmetry_group_IT_number 98
_symmetry_cell_setting 'tetragonal'
loop_
_space_group_symop_operation_xyz
x,y,z
-y,1/2+x,1/4+z
-x,-y,z
y,1/2-x,1/4+z
x,1/2-y,1/4-z
-x,1/2+y,1/4-z
y,x,-z
-y,-x,-z
1/2+x,1/2+y,1/2+z
1/2-y,x,3/4+z
1/2-x,1/2-y,1/2+z
1/2+y,-x,3/4+z
1/2+x,-y,3/4-z
1/2-x,y,3/4-z
1/2+y,1/2+x,1/2-z
1/2-y,1/2-x,1/2-z
loop_
_atom_site_type_symbol
_atom_site_label
_atom_site_fract_x
_atom_site_fract_y
_atom_site_fract_z
Si Si1 0.892458 0.642560 0.511464
Si Si2 0.384342 0.239427 0.876474
Si Si3 0.480160 0.224715 0.372962
Si Si4 0.985297 0.873580 0.520714
Si Si5 0.999781 0.072681 0.014264
O O1 0.859344 0.640657 0.750000
O O2 0.898525 0.690463 0.403684
O O3 0.935373 0.627205 0.650377
O O4 0.882671 0.617330 0.250000
O O5 0.359780 0.250000 0.625000
O O6 0.427725 0.269184 0.871360
O O7 0.358645 0.250000 0.125000
O O8 0.494975 0.250000 0.625000
O O9 0.493013 0.175347 0.327490
O O10 0.494911 0.250000 0.125000
O O11 0.996597 0.903542 0.283650
O O12 0.004581 0.893439 0.781081
O O13 0.959588 0.040413 0.000000
O O14 0.042226 0.042226 0.000000
#
# Coordination Sequence:
#
# PCOD9551705 Si02
#       5
#    16  16  16  16  16
#     4  12  23  32  49  78 104 126 161 197 243 324
#     4  10  19  34  48  65 101 134 139 189 258 309
#     4  10  19  32  51  70  98 127 150 196 266 320
#     4  12  21  36  54  73  95 136 167 204 259 314
#     4  11  24  39  51  69 100 136 177 219 250 285
#
# _framework density 15.672700000000001
#
# number of rings (size 3 to 8) (size 9 to 14) (size 15 to 20)
#    0.000    1.000    4.000    6.600    5.600    1.600 
#    0.000    0.000    0.000    0.000    0.000    0.000 
#    0.000   22.400    0.000    0.000    0.000    0.000 
#
# Total GULP energy -222761.726882 kJ/mol
# GULP energy per Si atom -5569.043172 kJ/mol
# Density = 1.563703 g / cm^3
# Si number density = 15.672700 Si / 1000 Ang^3
#
#
#
# Elastic Constant Matrix: (Units=GPa)
#
#
# Indices 1 2 3 4 5 6 
#
# 1 55.4805 28.0802 39.5702 0.0000 0.0000 0.0000
# 2 28.0802 55.4778 39.5688 0.0000 0.0000 0.0000
# 3 39.5702 39.5688 184.2715 0.0000 0.0000 0.0000
# 4 0.0000 0.0000 0.0000 10.0687 0.0000 0.0000
# 5 0.0000 0.0000 0.0000 0.0000 10.0644 0.0000
# 6 0.0000 0.0000 0.0000 0.0000 0.0000 4.3714
#
#
#
# Elastic Compliance Matrix: (Units=1/GPa)
#
#
# Indices 1 2 3 4 5 6 
#
# 1 0.025760 -0.010737 -0.003226 0.000000 0.000000 0.000000
# 2 -0.010737 0.025761 -0.003226 0.000000 0.000000 0.000000
# 3 -0.003226 -0.003226 0.006812 0.000000 0.000000 0.000000
# 4 0.000000 0.000000 0.000000 0.099318 0.000000 0.000000
# 5 0.000000 0.000000 0.000000 0.000000 0.099360 0.000000
# 6 0.000000 0.000000 0.000000 0.000000 0.000000 0.228758
#
#
# Mechanical properties :
#
#
# Convention : Reuss Voigt Hill
#
# Bulk Modulus (GPa) = 41.74641 56.62979 49.18810
# Shear Modulus (GPa) = 9.46732 17.43493 13.45112
#
# Velocity S-wave (km/s) = 2.46044 3.33894 2.93277
# Velocity P-wave (km/s) = 5.89626 7.14674 6.55140
#
# Compressibility (1/GPa) = 0.02395415
#
# Stress axis : x y z
#
# Youngs Moduli (GPa) = 38.82031 38.81855 146.79522
#
# Poissons Ratio (x) = 0.41681 0.47355
# Poissons Ratio (y) = 0.41683 0.47355
# Poissons Ratio (z) = 0.12523 0.12522
#
# Static dielectric constant tensor:
#      x y z
#    x 1.548630 0.000000 0.000000 
#    y 0.000000 1.548620 0.000000 
#    z 0.000000 0.000000 1.645570 
# 
# From -- ./inp_files/1739.got.cif
#   From: 2010.05.17/outbox.cif.g08.bks.cpg/sg98_1_cif.got.tgz:1739.got - 2010.06.03 20:00:51.
