data_PCOD9551784
_publ_section_title
;
Structure prediction by ZEFSAII (Michael W. Deem and Ramdas Pophale) SiO2 
 PCOD9551784
Probable space group: I 41 2 2
;
_chemical_formula_sum "Si O2"
_cell_formula_units_Z 116
_cell_length_a 18.435627
_cell_length_b 18.435627
_cell_length_c 16.472126
_cell_angle_alpha 90.000000
_cell_angle_beta 90.000000
_cell_angle_gamma 90.000000
_cell_volume 5598.420056
_symmetry_space_group_name_H-M "I 41 2 2"
_symmetry_group_IT_number 98
_symmetry_cell_setting 'tetragonal'
loop_
_space_group_symop_operation_xyz
x,y,z
-y,1/2+x,1/4+z
-x,-y,z
y,1/2-x,1/4+z
x,1/2-y,1/4-z
-x,1/2+y,1/4-z
y,x,-z
-y,-x,-z
1/2+x,1/2+y,1/2+z
1/2-y,x,3/4+z
1/2-x,1/2-y,1/2+z
1/2+y,-x,3/4+z
1/2+x,-y,3/4-z
1/2-x,y,3/4-z
1/2+y,1/2+x,1/2-z
1/2-y,1/2-x,1/2-z
loop_
_atom_site_type_symbol
_atom_site_label
_atom_site_fract_x
_atom_site_fract_y
_atom_site_fract_z
Si Si1 0.820379 0.461128 0.432018
Si Si2 0.830206 0.699780 0.343405
Si Si3 0.666416 0.373891 0.792721
Si Si4 0.568553 0.928729 0.885533
Si Si5 0.000000 0.500000 0.250000
Si Si6 0.418198 0.482193 0.816997
Si Si7 0.052559 0.323645 0.900692
Si Si8 0.186019 0.596787 0.695826
O O1 0.750000 0.457866 0.375000
O O2 0.845379 0.385488 0.470596
O O3 0.886357 0.496755 0.382934
O O4 0.812983 0.514213 0.510867
O O5 0.750000 0.714180 0.375000
O O6 0.820881 0.679120 0.250000
O O7 0.870172 0.631878 0.383301
O O8 0.885190 0.764975 0.357795
O O9 0.635750 0.450783 0.827723
O O10 0.744816 0.386526 0.753095
O O11 0.650578 0.318741 0.867339
O O12 0.513535 0.931960 0.810441
O O13 0.527488 0.921160 0.969716
O O14 0.500000 0.500000 0.843866
O O15 0.408257 0.402028 0.852492
O O16 0.985472 0.315480 0.837974
O O17 0.116156 0.616156 0.750000
#
# Coordination Sequence:
#
# PCOD9551784 Si02
#       8
#    16  16  16  16   4  16  16  16
#     4  10  20  37  58  88 126 169 213 263 328 394
#     4  12  24  41  64  95 139 177 211 270 346 413
#     4  11  23  43  67  97 130 175 224 277 348 406
#     4  11  20  34  56  91 129 172 214 258 312 393
#     4  12  20  28  48  88 120 164 222 248 290 364
#     4  11  18  42  69  88 129 169 217 275 334 387
#     4  10  23  42  69  95 126 177 225 272 343 412
#     4  11  24  44  70  97 131 177 231 287 346 404
#
# _framework density 20.720132
#
# number of rings (size 3 to 8) (size 9 to 14) (size 15 to 20)
#    0.000    1.103    5.517    4.138    0.000    1.103 
#    2.483    4.138    0.000    0.000    0.000    0.000 
#    0.000    0.000    0.000    0.000    0.000    0.000 
#
# Total GULP energy -323602.656976 kJ/mol
# GULP energy per Si atom -5579.356155 kJ/mol
# Density = 2.067297 g / cm^3
# Si number density = 20.720132 Si / 1000 Ang^3
#
#
#
# Elastic Constant Matrix: (Units=GPa)
#
#
# Indices 1 2 3 4 5 6 
#
# 1 119.3280 54.5580 36.9839 0.0000 0.0000 0.0000
# 2 54.5580 119.3279 36.9847 0.0000 0.0000 0.0000
# 3 36.9839 36.9847 42.4417 0.0000 0.0000 0.0000
# 4 0.0000 0.0000 0.0000 18.9413 0.0000 0.0000
# 5 0.0000 0.0000 0.0000 0.0000 18.9416 0.0000
# 6 0.0000 0.0000 0.0000 0.0000 0.0000 35.5496
#
#
#
# Elastic Compliance Matrix: (Units=1/GPa)
#
#
# Indices 1 2 3 4 5 6 
#
# 1 0.012289 -0.003150 -0.007963 0.000000 0.000000 0.000000
# 2 -0.003150 0.012289 -0.007964 0.000000 0.000000 0.000000
# 3 -0.007963 -0.007964 0.037440 0.000000 0.000000 0.000000
# 4 0.000000 0.000000 0.000000 0.052795 0.000000 0.000000
# 5 0.000000 0.000000 0.000000 0.000000 0.052794 0.000000
# 6 0.000000 0.000000 0.000000 0.000000 0.000000 0.028130
#
#
# Mechanical properties :
#
#
# Convention : Reuss Voigt Hill
#
# Bulk Modulus (GPa) = 41.90427 59.79453 50.84940
# Shear Modulus (GPa) = 20.67439 24.85790 22.76614
#
# Velocity S-wave (km/s) = 3.16221 3.46742 3.31833
# Velocity P-wave (km/s) = 5.79660 6.70459 6.26706
#
# Compressibility (1/GPa) = 0.02386392
#
# Stress axis : x y z
#
# Youngs Moduli (GPa) = 81.37548 81.37405 26.70913
#
# Poissons Ratio (x) = 0.25636 0.21269
# Poissons Ratio (y) = 0.25637 0.21270
# Poissons Ratio (z) = 0.64800 0.64803
#
# Static dielectric constant tensor:
#      x y z
#    x 1.766880 0.000000 0.000000 
#    y 0.000000 1.766880 0.000000 
#    z 0.000000 0.000000 1.776660 
# 
# From -- ./inp_files/7836.got.cif
#   From: 2010.05.17/outbox.cif.g08.bks.cpg/sg98_4_cif.got.tgz:7836.got - 2010.06.03 20:00:51.
