data_PCOD9551580
_publ_section_title
;
Structure prediction by ZEFSAII (Michael W. Deem and Ramdas Pophale) SiO2 
 PCOD9551580
Probable space group: I 4 2 2 
;
_chemical_formula_sum "Si O2"
_cell_formula_units_Z 64
_cell_length_a 18.655617
_cell_length_b 18.655617
_cell_length_c 6.943929
_cell_angle_alpha 90.000000
_cell_angle_beta 90.000000
_cell_angle_gamma 90.000000
_cell_volume 2416.709815
_symmetry_space_group_name_H-M "I 4 2 2 "
_symmetry_group_IT_number 97
_symmetry_cell_setting 'tetragonal'
loop_
_space_group_symop_operation_xyz
x,y,z
-y,x,z
-x,-y,z
y,-x,z
x,-y,-z
-x,y,-z
y,x,-z
-y,-x,-z
1/2+x,1/2+y,1/2+z
1/2-y,1/2+x,1/2+z
1/2-x,1/2-y,1/2+z
1/2+y,1/2-x,1/2+z
1/2+x,1/2-y,1/2-z
1/2-x,1/2+y,1/2-z
1/2+y,1/2+x,1/2-z
1/2-y,1/2-x,1/2-z
loop_
_atom_site_type_symbol
_atom_site_label
_atom_site_fract_x
_atom_site_fract_y
_atom_site_fract_z
Si Si1 0.924423 0.721563 0.477447
Si Si2 0.479247 0.866982 0.719118
Si Si3 0.407753 0.569134 0.269281
Si Si4 0.692696 0.307333 0.270376
O O1 0.919574 0.687799 0.691169
O O2 0.860969 0.756251 0.355387
O O3 0.000000 0.763374 0.500000
O O4 0.951738 0.653320 0.347660
O O5 0.500000 0.853383 0.500000
O O6 0.444257 0.944257 0.750000
O O7 0.403554 0.486476 0.210085
O O8 0.418562 0.581439 0.500000
O O9 0.339079 0.615354 0.206636
O O10 0.687063 0.312938 0.500000
O O11 0.769173 0.269173 0.250000
#
# Coordination Sequence:
#
# PCOD9551580 Si02
#       4
#    16  16  16  16
#     4   8  23  42  68 104 150 205 269 336 420 524
#     4   9  20  41  71 109 143 210 269 350 421 511
#     4   8  16  38  74 108 140 190 266 349 426 509
#     4  11  24  48  69 111 163 214 279 358 445 539
#
# _framework density 26.482285999999998
#
# number of rings (size 3 to 8) (size 9 to 14) (size 15 to 20)
#    1.500    1.250    0.000    0.750    3.500    3.000 
#   18.000    7.500    0.000    0.000    0.000    0.000 
#    0.000    0.000    0.000    0.250    0.000    0.250 
#
# Total GULP energy -178139.275440 kJ/mol
# GULP energy per Si atom -5566.852358 kJ/mol
# Density = 2.642201 g / cm^3
# Si number density = 26.482286 Si / 1000 Ang^3
#
#
#
# Elastic Constant Matrix: (Units=GPa)
#
#
# Indices 1 2 3 4 5 6 
#
# 1 152.7220 131.5214 39.8047 0.0000 0.0000 0.0000
# 2 131.5214 152.7210 39.8048 0.0000 0.0000 0.0000
# 3 39.8047 39.8048 216.3872 0.0000 0.0000 0.0000
# 4 0.0000 0.0000 0.0000 15.8969 0.0000 0.0000
# 5 0.0000 0.0000 0.0000 0.0000 15.8976 0.0000
# 6 0.0000 0.0000 0.0000 0.0000 0.0000 64.8248
#
#
#
# Elastic Compliance Matrix: (Units=1/GPa)
#
#
# Indices 1 2 3 4 5 6 
#
# 1 0.025439 -0.021730 -0.000682 0.000000 0.000000 0.000000
# 2 -0.021730 0.025439 -0.000682 0.000000 0.000000 0.000000
# 3 -0.000682 -0.000682 0.004872 0.000000 0.000000 0.000000
# 4 0.000000 0.000000 0.000000 0.062905 0.000000 0.000000
# 5 0.000000 0.000000 0.000000 0.000000 0.062903 0.000000
# 6 0.000000 0.000000 0.000000 0.000000 0.000000 0.015426
#
#
# Mechanical properties :
#
#
# Convention : Reuss Voigt Hill
#
# Bulk Modulus (GPa) = 104.58562 104.89910 104.74236
# Shear Modulus (GPa) = 20.29534 40.03715 30.16625
#
# Velocity S-wave (km/s) = 2.77135 3.89247 3.37873
# Velocity P-wave (km/s) = 7.05825 7.73943 7.40667
#
# Compressibility (1/GPa) = 0.00956154
#
# Stress axis : x y z
#
# Youngs Moduli (GPa) = 39.30932 39.30904 205.23890
#
# Poissons Ratio (x) = 0.85419 0.14003
# Poissons Ratio (y) = 0.85420 0.14004
# Poissons Ratio (z) = 0.02682 0.02682
#
# Static dielectric constant tensor:
#      x y z
#    x 2.162170 0.000000 0.000000 
#    y 0.000000 2.162170 0.000000 
#    z 0.000000 0.000000 2.134910 
# 
# From -- ./inp_files/2108.got.cif
#   From: 2010.05.17/outbox.cif.g08.bks.cpg/sg97_2_cif.got.tgz:2108.got - 2010.06.03 19:55:32.
