data_PCOD9551340
_publ_section_title
;
Structure prediction by ZEFSAII (Michael W. Deem and Ramdas Pophale) SiO2 
 PCOD9551340
Probable space group: I 4 2 2 
;
_chemical_formula_sum "Si O2"
_cell_formula_units_Z 112
_cell_length_a 14.947755
_cell_length_b 14.947755
_cell_length_c 24.654324
_cell_angle_alpha 90.000000
_cell_angle_beta 90.000000
_cell_angle_gamma 90.000000
_cell_volume 5508.648240
_symmetry_space_group_name_H-M "I 4 2 2 "
_symmetry_group_IT_number 97
_symmetry_cell_setting 'tetragonal'
loop_
_space_group_symop_operation_xyz
x,y,z
-y,x,z
-x,-y,z
y,-x,z
x,-y,-z
-x,y,-z
y,x,-z
-y,-x,-z
1/2+x,1/2+y,1/2+z
1/2-y,1/2+x,1/2+z
1/2-x,1/2-y,1/2+z
1/2+y,1/2-x,1/2+z
1/2+x,1/2-y,1/2-z
1/2-x,1/2+y,1/2-z
1/2+y,1/2+x,1/2-z
1/2-y,1/2-x,1/2-z
loop_
_atom_site_type_symbol
_atom_site_label
_atom_site_fract_x
_atom_site_fract_y
_atom_site_fract_z
Si Si1 0.088740 0.552217 0.367830
Si Si2 0.269044 0.830985 0.808955
Si Si3 0.628505 0.576624 0.130664
Si Si4 0.574536 0.819421 0.035480
Si Si5 0.095072 0.113884 0.242442
Si Si6 0.566519 0.184352 0.457922
Si Si7 0.760565 0.218586 0.417978
O O1 0.161252 0.589824 0.325096
O O2 0.054639 0.634354 0.406560
O O3 0.146360 0.487800 0.407160
O O4 0.000000 0.500000 0.347777
O O5 0.299722 0.799722 0.750000
O O6 0.162828 0.841348 0.798684
O O7 0.274329 0.766663 0.860290
O O8 0.529568 0.618684 0.120999
O O9 0.642774 0.601050 0.194334
O O10 0.706232 0.618399 0.094549
O O11 0.664393 0.762748 0.044068
O O12 0.500000 0.770030 0.000000
O O13 0.602304 0.899203 0.994763
O O14 0.989821 0.120861 0.234321
O O15 0.500000 0.235597 0.500000
O O16 0.658949 0.228848 0.437862
#
# Coordination Sequence:
#
# PCOD9551340 Si02
#       7
#    16  16  16  16  16  16  16
#     4  10  21  38  62  88 123 175 211 256 336 400
#     4  11  23  39  59  96 137 161 216 283 327 403
#     4   9  19  36  58  86 122 171 216 263 322 398
#     4  10  20  37  63  89 123 162 215 268 322 400
#     4   9  19  39  64  81 118 174 218 260 325 394
#     4  10  22  40  63  88 124 164 221 272 322 401
#     4  11  23  36  62  96 126 170 214 269 344 397
#
# _framework density 20.331665999999998
#
# number of rings (size 3 to 8) (size 9 to 14) (size 15 to 20)
#    0.000    2.000    2.857    1.286    4.000    0.286 
#    0.000    0.000    0.000    0.000    0.000    0.000 
#    0.000    0.000    0.000    0.000    0.000    0.000 
#
# Total GULP energy -311855.183107 kJ/mol
# GULP energy per Si atom -5568.842555 kJ/mol
# Density = 2.028539 g / cm^3
# Si number density = 20.331666 Si / 1000 Ang^3
#
#
#
# Elastic Constant Matrix: (Units=GPa)
#
#
# Indices 1 2 3 4 5 6 
#
# 1 58.5863 13.6985 30.1738 0.0000 0.0000 0.0000
# 2 13.6985 58.5863 30.1738 0.0000 0.0000 0.0000
# 3 30.1738 30.1738 78.9116 0.0000 0.0000 0.0000
# 4 0.0000 0.0000 0.0000 26.3929 0.0000 0.0000
# 5 0.0000 0.0000 0.0000 0.0000 26.3929 0.0000
# 6 0.0000 0.0000 0.0000 0.0000 0.0000 25.2006
#
#
#
# Elastic Compliance Matrix: (Units=1/GPa)
#
#
# Indices 1 2 3 4 5 6 
#
# 1 0.021300 -0.000978 -0.007770 0.000000 0.000000 0.000000
# 2 -0.000978 0.021300 -0.007770 0.000000 0.000000 0.000000
# 3 -0.007770 -0.007770 0.018615 0.000000 0.000000 0.000000
# 4 0.000000 0.000000 0.000000 0.037889 0.000000 0.000000
# 5 0.000000 0.000000 0.000000 0.000000 0.037889 0.000000
# 6 0.000000 0.000000 0.000000 0.000000 0.000000 0.039682
#
#
# Mechanical properties :
#
#
# Convention : Reuss Voigt Hill
#
# Bulk Modulus (GPa) = 35.49123 38.24184 36.86653
# Shear Modulus (GPa) = 22.82029 23.73315 23.27672
#
# Velocity S-wave (km/s) = 3.35386 3.42028 3.38723
# Velocity P-wave (km/s) = 5.70016 5.86921 5.78530
#
# Compressibility (1/GPa) = 0.02817598
#
# Stress axis : x y z
#
# Youngs Moduli (GPa) = 46.94940 46.94940 53.72078
#
# Poissons Ratio (x) = 0.04593 0.41743
# Poissons Ratio (y) = 0.04593 0.41743
# Poissons Ratio (z) = 0.36481 0.36481
#
# Static dielectric constant tensor:
#      x y z
#    x 1.784450 0.000000 0.000000 
#    y 0.000000 1.784450 0.000000 
#    z 0.000000 0.000000 1.771850 
# 
# From -- ./inp_files/7699.got.cif
#   From: 2010.05.17/outbox.cif.g08.bks.cpg/sg97_4_cif.got.tgz:7699.got - 2010.06.03 19:55:32.
