data_PCOD9551470
_publ_section_title
;
Structure prediction by ZEFSAII (Michael W. Deem and Ramdas Pophale) SiO2 
 PCOD9551470
Probable space group: I 4 2 2 
;
_chemical_formula_sum "Si O2"
_cell_formula_units_Z 112
_cell_length_a 14.772798
_cell_length_b 14.772798
_cell_length_c 24.607417
_cell_angle_alpha 90.000000
_cell_angle_beta 90.000000
_cell_angle_gamma 90.000000
_cell_volume 5370.213448
_symmetry_space_group_name_H-M "I 4 2 2 "
_symmetry_group_IT_number 97
_symmetry_cell_setting 'tetragonal'
loop_
_space_group_symop_operation_xyz
x,y,z
-y,x,z
-x,-y,z
y,-x,z
x,-y,-z
-x,y,-z
y,x,-z
-y,-x,-z
1/2+x,1/2+y,1/2+z
1/2-y,1/2+x,1/2+z
1/2-x,1/2-y,1/2+z
1/2+y,1/2-x,1/2+z
1/2+x,1/2-y,1/2-z
1/2-x,1/2+y,1/2-z
1/2+y,1/2+x,1/2-z
1/2-y,1/2-x,1/2-z
loop_
_atom_site_type_symbol
_atom_site_label
_atom_site_fract_x
_atom_site_fract_y
_atom_site_fract_z
Si Si1 0.862434 0.059757 0.225577
Si Si2 0.697930 0.813485 0.428467
Si Si3 0.630844 0.093412 0.032110
Si Si4 0.693420 0.103820 0.298050
Si Si5 0.518924 0.105648 0.883096
Si Si6 0.389440 0.404527 0.934473
Si Si7 0.237369 0.133906 0.875871
O O1 0.789035 0.091505 0.269367
O O2 0.823415 0.077052 0.165130
O O3 0.954657 0.115026 0.232425
O O4 0.668211 0.831680 0.490595
O O5 0.801765 0.845953 0.419815
O O6 0.686125 0.711247 0.409387
O O7 0.632627 0.878996 0.394276
O O8 0.539690 0.125495 0.062287
O O9 0.703258 0.079222 0.080373
O O10 0.615821 0.000000 0.000000
O O11 0.621563 0.121563 0.250000
O O12 0.664460 0.019855 0.334380
O O13 0.685548 0.190720 0.336969
O O14 0.500000 0.000000 0.872327
O O15 0.490615 0.375640 0.916084
O O16 0.398442 0.398442 0.000000
#
# Coordination Sequence:
#
# PCOD9551470 Si02
#       7
#    16  16  16  16  16  16  16
#     4  10  23  45  74  97 127 168 213 281 350 401
#     4  12  24  36  64  95 131 184 222 266 324 394
#     4  11  23  41  62  92 138 183 221 266 320 392
#     4   9  22  44  66  94 130 160 210 279 330 404
#     4  11  24  40  63  96 134 176 219 264 330 396
#     4   9  20  35  52  79 120 171 226 267 313 370
#     4  10  24  41  66  99 128 168 224 274 326 392
#
# _framework density 20.855782999999999
#
# number of rings (size 3 to 8) (size 9 to 14) (size 15 to 20)
#    0.000    1.714    1.429    2.143   12.000    1.429 
#    0.000    0.000    0.000    0.000    0.000    0.000 
#    0.000    0.000    0.000    0.000    0.000    0.000 
#
# Total GULP energy -313113.827718 kJ/mol
# GULP energy per Si atom -5591.318352 kJ/mol
# Density = 2.080831 g / cm^3
# Si number density = 20.855783 Si / 1000 Ang^3
#
#
#
# Elastic Constant Matrix: (Units=GPa)
#
#
# Indices 1 2 3 4 5 6 
#
# 1 70.9110 29.2754 35.2609 0.0000 0.0000 0.0000
# 2 29.2754 70.9110 35.2609 0.0000 0.0000 0.0000
# 3 35.2609 35.2609 83.9999 0.0000 0.0000 0.0000
# 4 0.0000 0.0000 0.0000 28.6067 0.0000 0.0000
# 5 0.0000 0.0000 0.0000 0.0000 28.6067 0.0000
# 6 0.0000 0.0000 0.0000 0.0000 0.0000 23.1958
#
#
#
# Elastic Compliance Matrix: (Units=1/GPa)
#
#
# Indices 1 2 3 4 5 6 
#
# 1 0.019093 -0.004925 -0.005947 0.000000 0.000000 0.000000
# 2 -0.004925 0.019093 -0.005947 0.000000 0.000000 0.000000
# 3 -0.005947 -0.005947 0.016898 0.000000 0.000000 0.000000
# 4 0.000000 0.000000 0.000000 0.034957 0.000000 0.000000
# 5 0.000000 0.000000 0.000000 0.000000 0.034957 0.000000
# 6 0.000000 0.000000 0.000000 0.000000 0.000000 0.043111
#
#
# Mechanical properties :
#
#
# Convention : Reuss Voigt Hill
#
# Bulk Modulus (GPa) = 46.63256 47.26846 46.95051
# Shear Modulus (GPa) = 23.93542 24.48348 24.20945
#
# Velocity S-wave (km/s) = 3.39139 3.43000 3.41075
# Velocity P-wave (km/s) = 6.14357 6.19679 6.17024
#
# Compressibility (1/GPa) = 0.02144425
#
# Stress axis : x y z
#
# Youngs Moduli (GPa) = 52.37583 52.37583 59.17958
#
# Poissons Ratio (x) = 0.25796 0.35195
# Poissons Ratio (y) = 0.25796 0.35195
# Poissons Ratio (z) = 0.31149 0.31149
#
# Static dielectric constant tensor:
#      x y z
#    x 1.750770 0.000000 0.000000 
#    y 0.000000 1.750770 0.000000 
#    z 0.000000 0.000000 1.754680 
# 
# From -- ./inp_files/7288.got.cif
#   From: 2010.05.17/outbox.cif.g08.bks.cpg/sg97_4_cif.got.tgz:7288.got - 2010.06.03 19:55:32.
