data_PCOD9551860
_publ_section_title
;
Structure prediction by ZEFSAII (Michael W. Deem and Ramdas Pophale) SiO2 
 PCOD9551860
Probable space group: I 41 2 2
;
_chemical_formula_sum "Si O2"
_cell_formula_units_Z 56
_cell_length_a 19.193917
_cell_length_b 19.193917
_cell_length_c 7.721529
_cell_angle_alpha 90.000000
_cell_angle_beta 90.000000
_cell_angle_gamma 90.000000
_cell_volume 2844.661086
_symmetry_space_group_name_H-M "I 41 2 2"
_symmetry_group_IT_number 98
_symmetry_cell_setting 'tetragonal'
loop_
_space_group_symop_operation_xyz
x,y,z
-y,1/2+x,1/4+z
-x,-y,z
y,1/2-x,1/4+z
x,1/2-y,1/4-z
-x,1/2+y,1/4-z
y,x,-z
-y,-x,-z
1/2+x,1/2+y,1/2+z
1/2-y,x,3/4+z
1/2-x,1/2-y,1/2+z
1/2+y,-x,3/4+z
1/2+x,-y,3/4-z
1/2-x,y,3/4-z
1/2+y,1/2+x,1/2-z
1/2-y,1/2-x,1/2-z
loop_
_atom_site_type_symbol
_atom_site_label
_atom_site_fract_x
_atom_site_fract_y
_atom_site_fract_z
Si Si1 0.369813 0.410358 0.185221
Si Si2 0.343462 0.750000 0.625000
Si Si3 0.145098 0.543228 0.341040
Si Si4 0.551233 0.778214 0.935319
O O1 0.380911 0.481532 0.287531
O O2 0.397655 0.343202 0.285211
O O3 0.287114 0.409386 0.149588
O O4 0.407883 0.407883 0.000000
O O5 0.292728 0.792728 0.750000
O O6 0.397273 0.690042 0.689340
O O7 0.081555 0.581555 0.250000
O O8 0.194097 0.508693 0.192550
O O9 0.526962 0.750000 0.125000
#
# Coordination Sequence:
#
# PCOD9551860 Si02
#       4
#    16   8  16  16
#     4  10  21  40  64  90 129 166 218 263 317 383
#     4  10  22  44  68  96 124 158 210 258 328 392
#     4  11  22  42  67  91 127 169 206 263 334 382
#     4  10  21  40  62  91 128 170 217 265 315 382
#
# _framework density 19.686001000000001
#
# number of rings (size 3 to 8) (size 9 to 14) (size 15 to 20)
#    0.000    1.714    2.857    0.857    0.000    2.286 
#   10.286   32.857    0.000    0.000    0.000    0.000 
#    0.000    0.000    0.000    0.000    0.000    0.000 
#
# Total GULP energy -156176.020239 kJ/mol
# GULP energy per Si atom -5577.715009 kJ/mol
# Density = 1.964119 g / cm^3
# Si number density = 19.686001 Si / 1000 Ang^3
#
#
#
# Elastic Constant Matrix: (Units=GPa)
#
#
# Indices 1 2 3 4 5 6 
#
# 1 126.3218 92.6101 72.6904 0.0000 0.0000 0.0000
# 2 92.6101 126.3218 72.6904 0.0000 0.0000 0.0000
# 3 72.6904 72.6904 79.9616 0.0000 0.0000 0.0000
# 4 0.0000 0.0000 0.0000 35.3989 0.0000 0.0000
# 5 0.0000 0.0000 0.0000 0.0000 35.3989 0.0000
# 6 0.0000 0.0000 0.0000 0.0000 0.0000 43.1773
#
#
#
# Elastic Compliance Matrix: (Units=1/GPa)
#
#
# Indices 1 2 3 4 5 6 
#
# 1 0.020594 -0.009069 -0.010477 0.000000 0.000000 0.000000
# 2 -0.009069 0.020594 -0.010477 0.000000 0.000000 0.000000
# 3 -0.010477 -0.010477 0.031554 0.000000 0.000000 0.000000
# 4 0.000000 0.000000 0.000000 0.028249 0.000000 0.000000
# 5 0.000000 0.000000 0.000000 0.000000 0.028249 0.000000
# 6 0.000000 0.000000 0.000000 0.000000 0.000000 0.023160
#
#
# Mechanical properties :
#
#
# Convention : Reuss Voigt Hill
#
# Bulk Modulus (GPa) = 78.76126 89.84300 84.30213
# Shear Modulus (GPa) = 23.07567 29.10265 26.08916
#
# Velocity S-wave (km/s) = 3.42744 3.84909 3.64437
# Velocity P-wave (km/s) = 7.46718 8.09266 7.78620
#
# Compressibility (1/GPa) = 0.01269660
#
# Stress axis : x y z
#
# Youngs Moduli (GPa) = 48.55799 48.55799 31.69177
#
# Poissons Ratio (x) = 0.44039 0.33202
# Poissons Ratio (y) = 0.44039 0.33202
# Poissons Ratio (z) = 0.50872 0.50872
#
# Static dielectric constant tensor:
#      x y z
#    x 1.675520 0.000000 0.000000 
#    y 0.000000 1.675520 0.000000 
#    z 0.000000 0.000000 1.726130 
# 
# From -- ./inp_files/2977.got.cif
#   From: 2010.05.17/outbox.cif.g08.bks.cpg/sg98_2_cif.got.tgz:2977.got - 2010.06.03 20:00:51.
