data_PCOD9551268
_publ_section_title
;
Structure prediction by ZEFSAII (Michael W. Deem and Ramdas Pophale) SiO2 
 PCOD9551268
Probable space group: I 4 2 2 
;
_chemical_formula_sum "Si O2"
_cell_formula_units_Z 120
_cell_length_a 25.902233
_cell_length_b 25.902233
_cell_length_c 9.680632
_cell_angle_alpha 90.000000
_cell_angle_beta 90.000000
_cell_angle_gamma 90.000000
_cell_volume 6494.984553
_symmetry_space_group_name_H-M "I 4 2 2 "
_symmetry_group_IT_number 97
_symmetry_cell_setting 'tetragonal'
loop_
_space_group_symop_operation_xyz
x,y,z
-y,x,z
-x,-y,z
y,-x,z
x,-y,-z
-x,y,-z
y,x,-z
-y,-x,-z
1/2+x,1/2+y,1/2+z
1/2-y,1/2+x,1/2+z
1/2-x,1/2-y,1/2+z
1/2+y,1/2-x,1/2+z
1/2+x,1/2-y,1/2-z
1/2-x,1/2+y,1/2-z
1/2+y,1/2+x,1/2-z
1/2-y,1/2-x,1/2-z
loop_
_atom_site_type_symbol
_atom_site_label
_atom_site_fract_x
_atom_site_fract_y
_atom_site_fract_z
Si Si1 0.668873 0.113834 0.957187
Si Si2 0.438495 0.438495 0.000000
Si Si3 0.795958 0.120781 0.363313
Si Si4 0.280116 0.209764 0.584734
Si Si5 0.439092 0.233197 0.228632
Si Si6 0.845814 0.440661 0.988986
Si Si7 0.595707 0.658068 0.149819
Si Si8 0.211419 0.556511 0.711117
O O1 0.691579 0.166125 0.022450
O O2 0.606657 0.119625 0.955125
O O3 0.687184 0.071223 0.066247
O O4 0.698097 0.100685 0.815546
O O5 0.500000 0.430350 0.000000
O O6 0.423230 0.401001 0.129992
O O7 0.758593 0.162147 0.433654
O O8 0.820862 0.090104 0.491550
O O9 0.844796 0.151994 0.304173
O O10 0.762795 0.088359 0.254635
O O11 0.257802 0.257802 0.500000
O O12 0.282039 0.217962 0.750000
O O13 0.428176 0.294313 0.233213
O O14 0.496481 0.223779 0.282702
O O15 0.439276 0.207702 0.076050
O O16 0.830181 0.430614 0.830914
O O17 0.865821 0.500000 0.000000
#
# Coordination Sequence:
#
# PCOD9551268 Si02
#       8
#    16   8  16  16  16  16  16  16
#     4  12  23  38  57  88 122 158 197 252 308 375
#     4   9  20  34  56  90 122 156 204 262 306 338
#     4  10  19  35  54  81 113 150 194 226 291 359
#     4  12  23  35  56  82 121 159 193 238 295 366
#     4  11  24  36  59  87 121 155 203 254 303 366
#     4  10  21  37  60  84 114 159 205 248 300 366
#     4  10  21  34  57  84 122 155 195 249 299 356
#     4  11  21  39  59  82 117 162 202 241 303 373
#
# _framework density 18.475794
#
# number of rings (size 3 to 8) (size 9 to 14) (size 15 to 20)
#    0.000    1.400    5.333    1.200    5.600    0.000 
#    0.000    0.000    0.000    1.600    0.000    7.467 
#    0.000    0.000    0.267    0.000    0.000    0.000 
#
# Total GULP energy -334262.903824 kJ/mol
# GULP energy per Si atom -5571.048397 kJ/mol
# Density = 1.843374 g / cm^3
# Si number density = 18.475794 Si / 1000 Ang^3
#
#
#
# Elastic Constant Matrix: (Units=GPa)
#
#
# Indices 1 2 3 4 5 6 
#
# 1 72.1705 50.1008 5.5402 0.0000 0.0000 0.0000
# 2 50.1008 72.1684 5.5405 0.0000 0.0000 0.0000
# 3 5.5402 5.5405 48.6199 0.0000 0.0000 0.0000
# 4 0.0000 0.0000 0.0000 21.5419 0.0000 0.0000
# 5 0.0000 0.0000 0.0000 0.0000 21.5417 0.0000
# 6 0.0000 0.0000 0.0000 0.0000 0.0000 23.5535
#
#
#
# Elastic Compliance Matrix: (Units=1/GPa)
#
#
# Indices 1 2 3 4 5 6 
#
# 1 0.026788 -0.018525 -0.000942 0.000000 0.000000 0.000000
# 2 -0.018525 0.026789 -0.000942 0.000000 0.000000 0.000000
# 3 -0.000942 -0.000942 0.020782 0.000000 0.000000 0.000000
# 4 0.000000 0.000000 0.000000 0.046421 0.000000 0.000000
# 5 0.000000 0.000000 0.000000 0.000000 0.046422 0.000000
# 6 0.000000 0.000000 0.000000 0.000000 0.000000 0.042457
#
#
# Mechanical properties :
#
#
# Convention : Reuss Voigt Hill
#
# Bulk Modulus (GPa) = 29.81209 35.03575 32.42392
# Shear Modulus (GPa) = 19.10908 22.11257 20.61082
#
# Velocity S-wave (km/s) = 3.21951 3.46329 3.34362
# Velocity P-wave (km/s) = 5.47641 5.91580 5.70034
#
# Compressibility (1/GPa) = 0.03354344
#
# Stress axis : x y z
#
# Youngs Moduli (GPa) = 37.32997 37.32885 48.11780
#
# Poissons Ratio (x) = 0.69150 0.04530
# Poissons Ratio (y) = 0.69152 0.04532
# Poissons Ratio (z) = 0.03515 0.03516
#
# Static dielectric constant tensor:
#      x y z
#    x 1.680770 0.000000 0.000000 
#    y 0.000000 1.680770 0.000000 
#    z 0.000000 0.000000 1.663110 
# 
# From -- ./inp_files/2653.got.cif
#   From: 2010.05.17/outbox.cif.g08.bks.cpg/sg97_2_cif.got.tgz:2653.got - 2010.06.03 19:55:32.
