data_PCOD9551453
_publ_section_title
;
Structure prediction by ZEFSAII (Michael W. Deem and Ramdas Pophale) SiO2 
 PCOD9551453
Probable space group: I 4 2 2 
;
_chemical_formula_sum "Si O2"
_cell_formula_units_Z 112
_cell_length_a 14.353215
_cell_length_b 14.353215
_cell_length_c 26.183267
_cell_angle_alpha 90.000000
_cell_angle_beta 90.000000
_cell_angle_gamma 90.000000
_cell_volume 5394.140013
_symmetry_space_group_name_H-M "I 4 2 2 "
_symmetry_group_IT_number 97
_symmetry_cell_setting 'tetragonal'
loop_
_space_group_symop_operation_xyz
x,y,z
-y,x,z
-x,-y,z
y,-x,z
x,-y,-z
-x,y,-z
y,x,-z
-y,-x,-z
1/2+x,1/2+y,1/2+z
1/2-y,1/2+x,1/2+z
1/2-x,1/2-y,1/2+z
1/2+y,1/2-x,1/2+z
1/2+x,1/2-y,1/2-z
1/2-x,1/2+y,1/2-z
1/2+y,1/2+x,1/2-z
1/2-y,1/2-x,1/2-z
loop_
_atom_site_type_symbol
_atom_site_label
_atom_site_fract_x
_atom_site_fract_y
_atom_site_fract_z
Si Si1 0.651054 0.461746 0.644301
Si Si2 0.790843 0.681730 0.896671
Si Si3 0.393197 0.603772 0.061351
Si Si4 0.792156 0.129983 0.049656
Si Si5 0.612474 0.238944 0.783314
Si Si6 0.602311 0.109837 0.990208
Si Si7 0.747779 0.596218 0.254100
O O1 0.607662 0.563625 0.652179
O O2 0.690118 0.457705 0.586086
O O3 0.725595 0.433869 0.687448
O O4 0.686812 0.666295 0.917276
O O5 0.809365 0.788439 0.909509
O O6 0.787876 0.645793 0.839793
O O7 0.862122 0.626617 0.932719
O O8 0.373016 0.497583 0.077630
O O9 0.392251 0.607750 0.000000
O O10 0.857844 0.142157 0.000000
O O11 0.688661 0.140452 0.025854
O O12 0.655435 0.155435 0.750000
O O13 0.665795 0.334309 0.766053
O O14 0.501388 0.248118 0.776524
O O15 0.500000 0.151891 0.000000
O O16 0.597563 0.000000 0.000000
O O17 0.841605 0.658396 0.250000
#
# Coordination Sequence:
#
# PCOD9551453 Si02
#       7
#    16  16  16  16  16  16  16
#     4  11  24  43  72  99 131 182 226 292 375 428
#     4  11  24  39  65  94 130 173 216 274 337 398
#     4   9  19  34  56  90 129 166 205 253 317 392
#     4  10  23  39  65  96 131 175 224 283 343 416
#     4  11  26  45  69 102 141 177 240 295 347 424
#     4  10  24  42  63  93 133 181 225 269 331 409
#     4  11  24  46  73 101 137 184 234 296 361 426
#
# _framework density 20.763272000000001
#
# number of rings (size 3 to 8) (size 9 to 14) (size 15 to 20)
#    0.000    1.571    1.429    3.429   10.000    1.714 
#    0.000    2.143    0.000    0.000    0.000    0.000 
#    0.000    0.000    0.000    0.000    0.000    0.000 
#
# Total GULP energy -312706.994063 kJ/mol
# GULP energy per Si atom -5584.053465 kJ/mol
# Density = 2.071601 g / cm^3
# Si number density = 20.763272 Si / 1000 Ang^3
#
#
#
# Elastic Constant Matrix: (Units=GPa)
#
#
# Indices 1 2 3 4 5 6 
#
# 1 66.5375 46.2447 39.3742 0.0000 0.0000 0.0000
# 2 46.2447 66.5409 39.3721 0.0000 0.0000 0.0000
# 3 39.3742 39.3721 129.6529 0.0000 0.0000 0.0000
# 4 0.0000 0.0000 0.0000 29.0417 0.0000 0.0000
# 5 0.0000 0.0000 0.0000 0.0000 29.0431 0.0000
# 6 0.0000 0.0000 0.0000 0.0000 0.0000 35.0897
#
#
#
# Elastic Compliance Matrix: (Units=1/GPa)
#
#
# Indices 1 2 3 4 5 6 
#
# 1 0.030265 -0.019011 -0.003418 0.000000 0.000000 0.000000
# 2 -0.019011 0.030262 -0.003416 0.000000 0.000000 0.000000
# 3 -0.003418 -0.003416 0.009788 0.000000 0.000000 0.000000
# 4 0.000000 0.000000 0.000000 0.034433 0.000000 0.000000
# 5 0.000000 0.000000 0.000000 0.000000 0.034432 0.000000
# 6 0.000000 0.000000 0.000000 0.000000 0.000000 0.028498
#
#
# Mechanical properties :
#
#
# Convention : Reuss Voigt Hill
#
# Bulk Modulus (GPa) = 53.69257 56.96815 55.33036
# Shear Modulus (GPa) = 22.16536 27.81757 24.99146
#
# Velocity S-wave (km/s) = 3.27085 3.66423 3.47311
# Velocity P-wave (km/s) = 6.33878 6.73785 6.54136
#
# Compressibility (1/GPa) = 0.01862455
#
# Stress axis : x y z
#
# Youngs Moduli (GPa) = 33.04179 33.04463 102.16241
#
# Poissons Ratio (x) = 0.62821 0.34919
# Poissons Ratio (y) = 0.62816 0.34902
# Poissons Ratio (z) = 0.11293 0.11289
#
# Static dielectric constant tensor:
#      x y z
#    x 1.766760 0.000000 0.000000 
#    y 0.000000 1.766760 0.000000 
#    z 0.000000 0.000000 1.715870 
# 
# From -- ./inp_files/7243.got.cif
#   From: 2010.05.17/outbox.cif.g08.bks.cpg/sg97_4_cif.got.tgz:7243.got - 2010.06.03 19:55:32.
