data_PCOD9551462
_publ_section_title
;
Structure prediction by ZEFSAII (Michael W. Deem and Ramdas Pophale) SiO2 
 PCOD9551462
Probable space group: I 4 2 2 
;
_chemical_formula_sum "Si O2"
_cell_formula_units_Z 112
_cell_length_a 15.558571
_cell_length_b 15.558571
_cell_length_c 21.288204
_cell_angle_alpha 90.000000
_cell_angle_beta 90.000000
_cell_angle_gamma 90.000000
_cell_volume 5153.217055
_symmetry_space_group_name_H-M "I 4 2 2 "
_symmetry_group_IT_number 97
_symmetry_cell_setting 'tetragonal'
loop_
_space_group_symop_operation_xyz
x,y,z
-y,x,z
-x,-y,z
y,-x,z
x,-y,-z
-x,y,-z
y,x,-z
-y,-x,-z
1/2+x,1/2+y,1/2+z
1/2-y,1/2+x,1/2+z
1/2-x,1/2-y,1/2+z
1/2+y,1/2-x,1/2+z
1/2+x,1/2-y,1/2-z
1/2-x,1/2+y,1/2-z
1/2+y,1/2+x,1/2-z
1/2-y,1/2-x,1/2-z
loop_
_atom_site_type_symbol
_atom_site_label
_atom_site_fract_x
_atom_site_fract_y
_atom_site_fract_z
Si Si1 0.124040 0.599577 0.824731
Si Si2 0.886439 0.089010 0.203824
Si Si3 0.504822 0.636678 0.074858
Si Si4 0.099486 0.107785 0.067575
Si Si5 0.209741 0.805806 0.304777
Si Si6 0.427610 0.808756 0.875262
Si Si7 0.103069 0.515513 0.430231
O O1 0.110842 0.610842 0.750000
O O2 0.210392 0.652322 0.841076
O O3 0.142131 0.498193 0.833391
O O4 0.047615 0.628412 0.872297
O O5 0.854508 0.124434 0.135701
O O6 0.838275 0.121096 0.264867
O O7 0.986055 0.115980 0.205438
O O8 0.419934 0.586486 0.098110
O O9 0.517254 0.735904 0.089446
O O10 0.500000 0.629714 0.000000
O O11 0.995350 0.116168 0.067774
O O12 0.136711 0.136711 0.000000
O O13 0.247621 0.747621 0.250000
O O14 0.144694 0.746331 0.341758
O O15 0.384575 0.884577 0.914869
O O16 0.140329 0.500000 0.500000
O O17 0.000000 0.500000 0.434793
#
# Coordination Sequence:
#
# PCOD9551462 Si02
#       7
#    16  16  16  16  16  16  16
#     4  10  23  41  64  92 134 171 212 280 347 406
#     4   9  17  32  57  89 126 167 209 263 328 403
#     4   9  19  35  58  97 146 182 210 254 322 408
#     4   7  10  19  41  77 115 155 203 246 291 355
#     4  11  24  39  56  92 126 171 211 268 335 402
#     4  11  22  37  67  94 124 171 228 270 326 406
#     4   9  21  40  65  95 125 164 223 282 332 384
#
# _framework density 21.733995
#
# number of rings (size 3 to 8) (size 9 to 14) (size 15 to 20)
#    0.000    2.571    0.000    3.429    6.000    2.000 
#    0.000    1.429    0.000    3.429    0.000    0.000 
#    0.000    0.000    0.000    1.286    0.000    0.286 
#
# Total GULP energy -312243.166168 kJ/mol
# GULP energy per Si atom -5575.770824 kJ/mol
# Density = 2.168453 g / cm^3
# Si number density = 21.733995 Si / 1000 Ang^3
#
#
#
# Elastic Constant Matrix: (Units=GPa)
#
#
# Indices 1 2 3 4 5 6 
#
# 1 102.0443 5.5241 46.7841 0.0000 0.0000 0.0000
# 2 5.5241 102.0443 46.7841 0.0000 0.0000 0.0000
# 3 46.7841 46.7841 105.3977 0.0000 0.0000 0.0000
# 4 0.0000 0.0000 0.0000 16.2315 0.0000 0.0000
# 5 0.0000 0.0000 0.0000 0.0000 16.2315 0.0000
# 6 0.0000 0.0000 0.0000 0.0000 0.0000 19.3377
#
#
#
# Elastic Compliance Matrix: (Units=1/GPa)
#
#
# Indices 1 2 3 4 5 6 
#
# 1 0.012752 0.002391 -0.006722 0.000000 0.000000 0.000000
# 2 0.002391 0.012752 -0.006722 0.000000 0.000000 0.000000
# 3 -0.006722 -0.006722 0.015455 0.000000 0.000000 0.000000
# 4 0.000000 0.000000 0.000000 0.061609 0.000000 0.000000
# 5 0.000000 0.000000 0.000000 0.000000 0.061609 0.000000
# 6 0.000000 0.000000 0.000000 0.000000 0.000000 0.051712
#
#
# Mechanical properties :
#
#
# Convention : Reuss Voigt Hill
#
# Bulk Modulus (GPa) = 53.03740 56.40790 54.72265
# Shear Modulus (GPa) = 20.46845 24.38641 22.42743
#
# Velocity S-wave (km/s) = 3.07216 3.35332 3.21581
# Velocity P-wave (km/s) = 6.08606 6.40337 6.24673
#
# Compressibility (1/GPa) = 0.01885462
#
# Stress axis : x y z
#
# Youngs Moduli (GPa) = 78.41913 78.41914 64.70253
#
# Poissons Ratio (x) = -0.18754 0.43492
# Poissons Ratio (y) = -0.18754 0.43492
# Poissons Ratio (z) = 0.52713 0.52713
#
# Static dielectric constant tensor:
#      x y z
#    x 1.795110 0.000000 0.000000 
#    y 0.000000 1.795110 0.000000 
#    z 0.000000 0.000000 1.845260 
# 
# From -- ./inp_files/7266.got.cif
#   From: 2010.05.17/outbox.cif.g08.bks.cpg/sg97_4_cif.got.tgz:7266.got - 2010.06.03 19:55:32.
