data_PCOD9551807
_publ_section_title
;
Structure prediction by ZEFSAII (Michael W. Deem and Ramdas Pophale) SiO2 
 PCOD9551807
Probable space group: I 41 2 2
;
_chemical_formula_sum "Si O2"
_cell_formula_units_Z 116
_cell_length_a 17.741197
_cell_length_b 17.741197
_cell_length_c 17.687876
_cell_angle_alpha 90.000000
_cell_angle_beta 90.000000
_cell_angle_gamma 90.000000
_cell_volume 5567.260227
_symmetry_space_group_name_H-M "I 41 2 2"
_symmetry_group_IT_number 98
_symmetry_cell_setting 'tetragonal'
loop_
_space_group_symop_operation_xyz
x,y,z
-y,1/2+x,1/4+z
-x,-y,z
y,1/2-x,1/4+z
x,1/2-y,1/4-z
-x,1/2+y,1/4-z
y,x,-z
-y,-x,-z
1/2+x,1/2+y,1/2+z
1/2-y,x,3/4+z
1/2-x,1/2-y,1/2+z
1/2+y,-x,3/4+z
1/2+x,-y,3/4-z
1/2-x,y,3/4-z
1/2+y,1/2+x,1/2-z
1/2-y,1/2-x,1/2-z
loop_
_atom_site_type_symbol
_atom_site_label
_atom_site_fract_x
_atom_site_fract_y
_atom_site_fract_z
Si Si1 0.879580 0.687240 0.673685
Si Si2 0.826924 0.944539 0.668648
Si Si3 0.096190 0.721346 0.960229
Si Si4 0.000000 0.000000 0.000000
Si Si5 0.875490 0.326243 0.428591
Si Si6 0.155829 0.527740 0.327739
Si Si7 0.119421 0.188874 0.177668
Si Si8 0.961265 0.788210 0.782777
O O1 0.836220 0.750000 0.625000
O O2 0.837059 0.662942 0.750000
O O3 0.887110 0.613042 0.620394
O O4 0.947831 0.737464 0.707907
O O5 0.785693 0.901727 0.737604
O O6 0.769550 0.960572 0.601904
O O7 0.841780 0.029729 0.698041
O O8 0.123234 0.757609 0.881262
O O9 0.165974 0.686245 0.005759
O O10 0.055443 0.786419 0.011883
O O11 0.997720 0.076941 0.044805
O O12 0.857823 0.399404 0.378593
O O13 0.958846 0.329171 0.464883
O O14 0.176522 0.457509 0.380856
O O15 0.161262 0.250000 0.125000
O O16 0.159262 0.109778 0.196605
#
# Coordination Sequence:
#
# PCOD9551807 Si02
#       8
#    16  16  16   4  16  16  16  16
#     4  10  20  39  59  84 125 173 224 274 337 400
#     4  10  21  39  56  88 132 176 220 276 342 415
#     4  11  22  42  65 100 139 183 224 294 355 438
#     4  12  24  36  60  96 140 188 222 276 334 436
#     4  11  22  42  66  99 136 177 237 286 358 421
#     4  12  22  36  60  94 143 181 223 272 358 424
#     4  12  22  35  56  90 139 181 226 278 337 424
#     4  10  24  38  60  93 129 183 235 280 335 409
#
# _framework density 20.836102
#
# number of rings (size 3 to 8) (size 9 to 14) (size 15 to 20)
#    0.000    1.103    5.517    1.241    1.931    2.759 
#    0.000    0.000    0.000    4.966    0.000   12.552 
#    0.000    0.000    0.000    0.000    0.000    0.000 
#
# Total GULP energy -322975.342041 kJ/mol
# GULP energy per Si atom -5568.540380 kJ/mol
# Density = 2.078868 g / cm^3
# Si number density = 20.836102 Si / 1000 Ang^3
#
#
#
# Elastic Constant Matrix: (Units=GPa)
#
#
# Indices 1 2 3 4 5 6 
#
# 1 82.1756 32.3441 36.4359 0.0000 0.0000 0.0000
# 2 32.3441 82.1753 36.4359 0.0000 0.0000 0.0000
# 3 36.4359 36.4359 126.6271 0.0000 0.0000 0.0000
# 4 0.0000 0.0000 0.0000 26.1739 0.0000 0.0000
# 5 0.0000 0.0000 0.0000 0.0000 26.1737 0.0000
# 6 0.0000 0.0000 0.0000 0.0000 0.0000 67.7716
#
#
#
# Elastic Compliance Matrix: (Units=1/GPa)
#
#
# Indices 1 2 3 4 5 6 
#
# 1 0.015378 -0.004689 -0.003076 0.000000 0.000000 0.000000
# 2 -0.004689 0.015379 -0.003076 0.000000 0.000000 0.000000
# 3 -0.003076 -0.003076 0.009667 0.000000 0.000000 0.000000
# 4 0.000000 0.000000 0.000000 0.038206 0.000000 0.000000
# 5 0.000000 0.000000 0.000000 0.000000 0.038206 0.000000
# 6 0.000000 0.000000 0.000000 0.000000 0.000000 0.014755
#
#
# Mechanical properties :
#
#
# Convention : Reuss Voigt Hill
#
# Bulk Modulus (GPa) = 53.35370 55.71220 54.53295
# Shear Modulus (GPa) = 31.34385 36.40800 33.87592
#
# Velocity S-wave (km/s) = 3.88274 4.18467 4.03653
# Velocity P-wave (km/s) = 6.76483 7.08131 6.92488
#
# Compressibility (1/GPa) = 0.01874284
#
# Stress axis : x y z
#
# Youngs Moduli (GPa) = 65.02598 65.02571 103.44205
#
# Poissons Ratio (x) = 0.30492 0.31816
# Poissons Ratio (y) = 0.30492 0.31816
# Poissons Ratio (z) = 0.20000 0.20000
#
# Static dielectric constant tensor:
#      x y z
#    x 1.764180 0.000000 0.000000 
#    y 0.000000 1.764180 0.000000 
#    z 0.000000 0.000000 1.815140 
# 
# From -- ./inp_files/7833.got.cif
#   From: 2010.05.17/outbox.cif.g08.bks.cpg/sg98_4_cif.got.tgz:7833.got - 2010.06.03 20:00:51.
