data_PCOD9551569
_publ_section_title
;
Structure prediction by ZEFSAII (Michael W. Deem and Ramdas Pophale) SiO2 
 PCOD9551569
Probable space group: I 4 2 2 
;
_chemical_formula_sum "Si O2"
_cell_formula_units_Z 48
_cell_length_a 7.398339
_cell_length_b 7.398339
_cell_length_c 34.050184
_cell_angle_alpha 90.000000
_cell_angle_beta 90.000000
_cell_angle_gamma 90.000000
_cell_volume 1863.751121
_symmetry_space_group_name_H-M "I 4 2 2 "
_symmetry_group_IT_number 97
_symmetry_cell_setting 'tetragonal'
loop_
_space_group_symop_operation_xyz
x,y,z
-y,x,z
-x,-y,z
y,-x,z
x,-y,-z
-x,y,-z
y,x,-z
-y,-x,-z
1/2+x,1/2+y,1/2+z
1/2-y,1/2+x,1/2+z
1/2-x,1/2-y,1/2+z
1/2+y,1/2-x,1/2+z
1/2+x,1/2-y,1/2-z
1/2-x,1/2+y,1/2-z
1/2+y,1/2+x,1/2-z
1/2-y,1/2-x,1/2-z
loop_
_atom_site_type_symbol
_atom_site_label
_atom_site_fract_x
_atom_site_fract_y
_atom_site_fract_z
Si Si1 0.384515 0.222669 0.293386
Si Si2 0.500000 0.000000 0.141308
Si Si3 0.717878 0.717878 0.000000
Si Si4 0.239224 0.665215 0.916535
O O1 0.594212 0.274256 0.296585
O O2 0.352522 0.147479 0.250000
O O3 0.351442 0.086272 0.329139
O O4 0.667312 0.083503 0.116052
O O5 0.500000 0.742727 0.000000
O O6 0.814604 0.752034 0.041405
O O7 0.264980 0.445109 0.914299
#
# Coordination Sequence:
#
# PCOD9551569 Si02
#       4
#    16   8   8  16
#     4  11  24  42  63  88 125 169 210 258 318 387
#     4  12  21  34  57  92 124 154 204 258 316 372
#     4   7  12  28  50  70 100 141 186 235 290 345
#     4   9  18  33  54  79 113 153 194 246 301 363
#
# _framework density 25.754515000000001
#
# number of rings (size 3 to 8) (size 9 to 14) (size 15 to 20)
#    0.000    2.167    0.000    6.500    0.000    0.000 
#    0.000   10.833    0.000    0.000    0.000    0.000 
#    0.000   32.000    0.000    0.000    0.000    0.000 
#
# Total GULP energy -133740.313068 kJ/mol
# GULP energy per Si atom -5572.513044 kJ/mol
# Density = 2.569590 g / cm^3
# Si number density = 25.754515 Si / 1000 Ang^3
#
#
#
# Elastic Constant Matrix: (Units=GPa)
#
#
# Indices 1 2 3 4 5 6 
#
# 1 75.6915 14.3572 35.0179 0.0000 0.0000 0.0000
# 2 14.3572 75.6916 35.0180 0.0000 0.0000 0.0000
# 3 35.0179 35.0180 230.9556 0.0000 0.0000 0.0000
# 4 0.0000 0.0000 0.0000 20.6904 0.0000 0.0000
# 5 0.0000 0.0000 0.0000 0.0000 20.6904 0.0000
# 6 0.0000 0.0000 0.0000 0.0000 0.0000 29.5750
#
#
#
# Elastic Compliance Matrix: (Units=1/GPa)
#
#
# Indices 1 2 3 4 5 6 
#
# 1 0.014447 -0.001857 -0.001909 0.000000 0.000000 0.000000
# 2 -0.001857 0.014447 -0.001909 0.000000 0.000000 0.000000
# 3 -0.001909 -0.001909 0.004909 0.000000 0.000000 0.000000
# 4 0.000000 0.000000 0.000000 0.048332 0.000000 0.000000
# 5 0.000000 0.000000 0.000000 0.000000 0.048332 0.000000
# 6 0.000000 0.000000 0.000000 0.000000 0.000000 0.033812
#
#
# Mechanical properties :
#
#
# Convention : Reuss Voigt Hill
#
# Bulk Modulus (GPa) = 44.53818 61.23609 52.88713
# Shear Modulus (GPa) = 27.30567 34.05420 30.67994
#
# Velocity S-wave (km/s) = 3.25965 3.64024 3.45519
# Velocity P-wave (km/s) = 5.61230 6.44181 6.04131
#
# Compressibility (1/GPa) = 0.02245265
#
# Stress axis : x y z
#
# Youngs Moduli (GPa) = 69.21895 69.21904 203.72029
#
# Poissons Ratio (x) = 0.12855 0.38888
# Poissons Ratio (y) = 0.12855 0.38888
# Poissons Ratio (z) = 0.13213 0.13213
#
# Static dielectric constant tensor:
#      x y z
#    x 2.069970 0.000000 0.000000 
#    y 0.000000 2.069970 0.000000 
#    z 0.000000 0.000000 2.231290 
# 
# From -- ./inp_files/7827.got.cif
#   From: 2010.05.17/outbox.cif.g08.bks.cpg/sg97_4_cif.got.tgz:7827.got - 2010.06.03 19:55:32.
