data_PCOD9551792
_publ_section_title
;
Structure prediction by ZEFSAII (Michael W. Deem and Ramdas Pophale) SiO2 
 PCOD9551792
Probable space group: I 41 2 2
;
_chemical_formula_sum "Si O2"
_cell_formula_units_Z 88
_cell_length_a 11.877914
_cell_length_b 11.877914
_cell_length_c 32.175317
_cell_angle_alpha 90.000000
_cell_angle_beta 90.000000
_cell_angle_gamma 90.000000
_cell_volume 4539.449483
_symmetry_space_group_name_H-M "I 41 2 2"
_symmetry_group_IT_number 98
_symmetry_cell_setting 'tetragonal'
loop_
_space_group_symop_operation_xyz
x,y,z
-y,1/2+x,1/4+z
-x,-y,z
y,1/2-x,1/4+z
x,1/2-y,1/4-z
-x,1/2+y,1/4-z
y,x,-z
-y,-x,-z
1/2+x,1/2+y,1/2+z
1/2-y,x,3/4+z
1/2-x,1/2-y,1/2+z
1/2+y,-x,3/4+z
1/2+x,-y,3/4-z
1/2-x,y,3/4-z
1/2+y,1/2+x,1/2-z
1/2-y,1/2-x,1/2-z
loop_
_atom_site_type_symbol
_atom_site_label
_atom_site_fract_x
_atom_site_fract_y
_atom_site_fract_z
Si Si1 0.198889 0.282895 0.918612
Si Si2 0.166116 0.637776 0.600587
Si Si3 0.500000 0.000000 0.161877
Si Si4 0.507425 0.627649 0.220516
Si Si5 0.767191 0.933495 0.548823
Si Si6 0.014462 0.365784 0.367839
O O1 0.250000 0.329661 0.875000
O O2 0.131061 0.382333 0.940716
O O3 0.300076 0.249198 0.948356
O O4 0.128860 0.174818 0.904452
O O5 0.192175 0.750000 0.625000
O O6 0.075268 0.575259 0.630622
O O7 0.285276 0.575752 0.595204
O O8 0.100472 0.653766 0.557713
O O9 0.600343 0.949853 0.190480
O O10 0.500000 0.500000 0.237345
O O11 0.519707 0.721061 0.255919
O O12 0.689086 0.982500 0.585951
O O13 0.000000 0.500000 0.367687
#
# Coordination Sequence:
#
# PCOD9551792 Si02
#       6
#    16  16   8  16  16  16
#     4  10  20  38  60  86 118 165 212 251 315 388
#     4  11  21  36  62  90 122 167 212 259 320 386
#     4  10  20  42  59  90 132 160 202 256 328 386
#     4  12  20  36  60  93 125 165 209 264 324 385
#     4  10  22  36  64  93 124 160 204 268 321 377
#     4  10  21  41  62  89 120 167 219 261 306 381
#
# _framework density 19.385611000000001
#
# number of rings (size 3 to 8) (size 9 to 14) (size 15 to 20)
#    0.000    1.455    2.727    4.909    0.000    2.182 
#    0.000   15.455    0.000    2.182    0.000    0.000 
#    0.000    0.000    0.000    0.000    0.000    0.000 
#
# Total GULP energy -245439.037344 kJ/mol
# GULP energy per Si atom -5578.159940 kJ/mol
# Density = 1.934149 g / cm^3
# Si number density = 19.385611 Si / 1000 Ang^3
#
#
#
# Elastic Constant Matrix: (Units=GPa)
#
#
# Indices 1 2 3 4 5 6 
#
# 1 129.6503 47.5528 50.7442 0.0000 0.0000 0.0000
# 2 47.5528 129.6503 50.7442 0.0000 0.0000 0.0000
# 3 50.7442 50.7442 95.4075 0.0000 0.0000 0.0000
# 4 0.0000 0.0000 0.0000 17.0934 0.0000 0.0000
# 5 0.0000 0.0000 0.0000 0.0000 17.0934 0.0000
# 6 0.0000 0.0000 0.0000 0.0000 0.0000 17.0482
#
#
#
# Elastic Compliance Matrix: (Units=1/GPa)
#
#
# Indices 1 2 3 4 5 6 
#
# 1 0.010148 -0.002033 -0.004316 0.000000 0.000000 0.000000
# 2 -0.002033 0.010148 -0.004316 0.000000 0.000000 0.000000
# 3 -0.004316 -0.004316 0.015073 0.000000 0.000000 0.000000
# 4 0.000000 0.000000 0.000000 0.058502 0.000000 0.000000
# 5 0.000000 0.000000 0.000000 0.000000 0.058502 0.000000
# 6 0.000000 0.000000 0.000000 0.000000 0.000000 0.058657
#
#
# Mechanical properties :
#
#
# Convention : Reuss Voigt Hill
#
# Bulk Modulus (GPa) = 71.23402 72.53228 71.88315
# Shear Modulus (GPa) = 21.09351 23.95813 22.52582
#
# Velocity S-wave (km/s) = 3.30222 3.51931 3.41249
# Velocity P-wave (km/s) = 7.16695 7.34921 7.25865
#
# Compressibility (1/GPa) = 0.01403824
#
# Stress axis : x y z
#
# Youngs Moduli (GPa) = 98.54207 98.54208 66.34506
#
# Poissons Ratio (x) = 0.20031 0.28636
# Poissons Ratio (y) = 0.20031 0.28636
# Poissons Ratio (z) = 0.42533 0.42533
#
# Static dielectric constant tensor:
#      x y z
#    x 1.711560 0.000000 0.000000 
#    y 0.000000 1.711560 0.000000 
#    z 0.000000 0.000000 1.698340 
# 
# From -- ./inp_files/11949.got.cif
#   From: 2010.05.17/outbox.cif.g08.bks.cpg/sg98_6_cif.got.tgz:11949.got - 2010.06.03 20:00:51.
