data_PCOD9551552
_publ_section_title
;
Structure prediction by ZEFSAII (Michael W. Deem and Ramdas Pophale) SiO2 
 PCOD9551552
Probable space group: I 4 2 2 
;
_chemical_formula_sum "Si O2"
_cell_formula_units_Z 64
_cell_length_a 13.533205
_cell_length_b 13.533205
_cell_length_c 16.225574
_cell_angle_alpha 90.000000
_cell_angle_beta 90.000000
_cell_angle_gamma 90.000000
_cell_volume 2971.675546
_symmetry_space_group_name_H-M "I 4 2 2 "
_symmetry_group_IT_number 97
_symmetry_cell_setting 'tetragonal'
loop_
_space_group_symop_operation_xyz
x,y,z
-y,x,z
-x,-y,z
y,-x,z
x,-y,-z
-x,y,-z
y,x,-z
-y,-x,-z
1/2+x,1/2+y,1/2+z
1/2-y,1/2+x,1/2+z
1/2-x,1/2-y,1/2+z
1/2+y,1/2-x,1/2+z
1/2+x,1/2-y,1/2-z
1/2-x,1/2+y,1/2-z
1/2+y,1/2+x,1/2-z
1/2-y,1/2-x,1/2-z
loop_
_atom_site_type_symbol
_atom_site_label
_atom_site_fract_x
_atom_site_fract_y
_atom_site_fract_z
Si Si1 0.197766 0.591210 0.458652
Si Si2 0.611230 0.615303 0.900029
Si Si3 0.261747 0.797384 0.122078
Si Si4 0.000000 0.500000 0.376235
Si Si5 0.382419 0.882419 0.250000
O O1 0.253842 0.500000 0.500000
O O2 0.187580 0.664104 0.537017
O O3 0.264327 0.650212 0.394307
O O4 0.094246 0.547463 0.424043
O O5 0.497425 0.635574 0.878214
O O6 0.681701 0.695377 0.859910
O O7 0.619793 0.619793 0.000000
O O8 0.284823 0.875633 0.193362
O O9 0.963141 0.590668 0.319007
#
# Coordination Sequence:
#
# PCOD9551552 Si02
#       5
#    16  16  16   8   8
#     4  11  23  42  70  99 131 178 241 291 341 435
#     4   9  18  32  55  87 121 160 213 274 339 409
#     4  11  24  41  65 100 134 184 232 289 357 430
#     4  11  25  42  72 104 138 184 240 306 370 416
#     4  11  26  40  60 107 140 182 222 297 368 418
#
# _framework density 21.536673
#
# number of rings (size 3 to 8) (size 9 to 14) (size 15 to 20)
#    0.000    1.500    5.000    1.125    3.500    2.000 
#    0.000    0.000    0.000    6.000    0.000    0.000 
#    0.000    0.000    0.000    0.000    0.000    0.000 
#
# Total GULP energy -178180.079569 kJ/mol
# GULP energy per Si atom -5568.127487 kJ/mol
# Density = 2.148765 g / cm^3
# Si number density = 21.536673 Si / 1000 Ang^3
#
#
#
# Elastic Constant Matrix: (Units=GPa)
#
#
# Indices 1 2 3 4 5 6 
#
# 1 94.6985 62.2934 32.7034 0.0000 0.0000 0.0000
# 2 62.2934 94.6985 32.7034 0.0000 0.0000 0.0000
# 3 32.7034 32.7034 82.8270 0.0000 0.0000 0.0000
# 4 0.0000 0.0000 0.0000 26.6550 0.0000 0.0000
# 5 0.0000 0.0000 0.0000 0.0000 26.6550 0.0000
# 6 0.0000 0.0000 0.0000 0.0000 0.0000 46.4630
#
#
#
# Elastic Compliance Matrix: (Units=1/GPa)
#
#
# Indices 1 2 3 4 5 6 
#
# 1 0.019242 -0.011618 -0.003010 0.000000 0.000000 0.000000
# 2 -0.011618 0.019242 -0.003010 0.000000 0.000000 0.000000
# 3 -0.003010 -0.003010 0.014450 0.000000 0.000000 0.000000
# 4 0.000000 0.000000 0.000000 0.037516 0.000000 0.000000
# 5 0.000000 0.000000 0.000000 0.000000 0.037516 0.000000
# 6 0.000000 0.000000 0.000000 0.000000 0.000000 0.021522
#
#
# Mechanical properties :
#
#
# Convention : Reuss Voigt Hill
#
# Bulk Modulus (GPa) = 56.63354 58.62493 57.62923
# Shear Modulus (GPa) = 26.22590 29.58951 27.90771
#
# Velocity S-wave (km/s) = 3.49339 3.71065 3.60366
# Velocity P-wave (km/s) = 6.52879 6.75564 6.64318
#
# Compressibility (1/GPa) = 0.01765738
#
# Stress axis : x y z
#
# Youngs Moduli (GPa) = 51.97069 51.97070 69.20194
#
# Poissons Ratio (x) = 0.60378 0.20831
# Poissons Ratio (y) = 0.60378 0.20831
# Poissons Ratio (z) = 0.15644 0.15644
#
# Static dielectric constant tensor:
#      x y z
#    x 1.866560 0.000000 0.000000 
#    y 0.000000 1.866560 0.000000 
#    z 0.000000 0.000000 1.830660 
# 
# From -- ./inp_files/5530.got.cif
#   From: 2010.05.17/outbox.cif.g08.bks.cpg/sg97_3_cif.got.tgz:5530.got - 2010.06.03 19:55:32.
