data_PCOD9551491
_publ_section_title
;
Structure prediction by ZEFSAII (Michael W. Deem and Ramdas Pophale) SiO2 
 PCOD9551491
Probable space group: I 4 2 2 
;
_chemical_formula_sum "Si O2"
_cell_formula_units_Z 88
_cell_length_a 14.943159
_cell_length_b 14.943159
_cell_length_c 19.802288
_cell_angle_alpha 90.000000
_cell_angle_beta 90.000000
_cell_angle_gamma 90.000000
_cell_volume 4421.811324
_symmetry_space_group_name_H-M "I 4 2 2 "
_symmetry_group_IT_number 97
_symmetry_cell_setting 'tetragonal'
loop_
_space_group_symop_operation_xyz
x,y,z
-y,x,z
-x,-y,z
y,-x,z
x,-y,-z
-x,y,-z
y,x,-z
-y,-x,-z
1/2+x,1/2+y,1/2+z
1/2-y,1/2+x,1/2+z
1/2-x,1/2-y,1/2+z
1/2+y,1/2-x,1/2+z
1/2+x,1/2-y,1/2-z
1/2-x,1/2+y,1/2-z
1/2+y,1/2+x,1/2-z
1/2-y,1/2-x,1/2-z
loop_
_atom_site_type_symbol
_atom_site_label
_atom_site_fract_x
_atom_site_fract_y
_atom_site_fract_z
Si Si1 0.907681 0.884025 0.241937
Si Si2 0.999029 0.271937 0.428416
Si Si3 0.920654 0.427151 0.831160
Si Si4 0.757594 0.856696 0.875762
Si Si5 0.392278 0.392278 0.500000
Si Si6 0.169189 0.158612 0.610828
O O1 0.862155 0.815214 0.191908
O O2 0.882950 0.861011 0.318143
O O3 0.013889 0.879099 0.229514
O O4 0.905758 0.225487 0.414377
O O5 0.000000 0.322882 0.500000
O O6 0.027058 0.334361 0.365922
O O7 0.073791 0.194517 0.434717
O O8 0.912279 0.412279 0.750000
O O9 0.924352 0.328304 0.866757
O O10 0.000000 0.500000 0.841244
O O11 0.713125 0.760291 0.881731
O O12 0.828093 0.867126 0.936981
O O13 0.500000 0.379775 0.500000
#
# Coordination Sequence:
#
# PCOD9551491 Si02
#       6
#    16  16  16  16   8  16
#     4  11  22  40  66  98 130 174 232 292 355 423
#     4  11  24  41  67  95 137 179 228 281 348 421
#     4  10  24  47  70 102 144 185 236 292 350 434
#     4  11  24  42  69  97 135 180 231 291 356 433
#     4  11  26  48  70 100 136 177 234 300 364 427
#     4  11  23  42  62  96 133 176 225 285 349 421
#
# _framework density 19.901347000000001
#
# number of rings (size 3 to 8) (size 9 to 14) (size 15 to 20)
#    0.000    1.182    1.818    4.364    5.091    5.091 
#    3.273    0.909    0.000    0.000    0.000    0.000 
#    0.000    0.000    0.000    0.000    0.000    0.000 
#
# Total GULP energy -245475.679376 kJ/mol
# GULP energy per Si atom -5578.992713 kJ/mol
# Density = 1.985605 g / cm^3
# Si number density = 19.901347 Si / 1000 Ang^3
#
#
#
# Elastic Constant Matrix: (Units=GPa)
#
#
# Indices 1 2 3 4 5 6 
#
# 1 96.7442 53.0896 30.2257 0.0000 0.0000 0.0000
# 2 53.0896 96.7442 30.2257 0.0000 0.0000 0.0000
# 3 30.2257 30.2257 89.4684 0.0000 0.0000 0.0000
# 4 0.0000 0.0000 0.0000 84.6799 0.0000 0.0000
# 5 0.0000 0.0000 0.0000 0.0000 84.6799 0.0000
# 6 0.0000 0.0000 0.0000 0.0000 0.0000 27.6282
#
#
#
# Elastic Compliance Matrix: (Units=1/GPa)
#
#
# Indices 1 2 3 4 5 6 
#
# 1 0.015317 -0.007590 -0.002611 0.000000 0.000000 0.000000
# 2 -0.007590 0.015317 -0.002611 0.000000 0.000000 0.000000
# 3 -0.002611 -0.002611 0.012941 0.000000 0.000000 0.000000
# 4 0.000000 0.000000 0.000000 0.011809 0.000000 0.000000
# 5 0.000000 0.000000 0.000000 0.000000 0.011809 0.000000
# 6 0.000000 0.000000 0.000000 0.000000 0.000000 0.036195
#
#
# Mechanical properties :
#
#
# Convention : Reuss Voigt Hill
#
# Bulk Modulus (GPa) = 55.69985 56.67098 56.18541
# Shear Modulus (GPa) = 37.03834 50.69197 43.86515
#
# Velocity S-wave (km/s) = 4.31872 5.05242 4.69991
# Velocity P-wave (km/s) = 7.27442 7.91035 7.59904
#
# Compressibility (1/GPa) = 0.01795337
#
# Stress axis : x y z
#
# Youngs Moduli (GPa) = 65.28607 65.28607 77.27373
#
# Poissons Ratio (x) = 0.49551 0.20173
# Poissons Ratio (y) = 0.49551 0.20173
# Poissons Ratio (z) = 0.17043 0.17043
#
# Static dielectric constant tensor:
#      x y z
#    x 1.694650 0.000000 0.000000 
#    y 0.000000 1.694650 0.000000 
#    z 0.000000 0.000000 1.729580 
# 
# From -- ./inp_files/6547.got.cif
#   From: 2010.05.17/outbox.cif.g08.bks.cpg/sg97_4_cif.got.tgz:6547.got - 2010.06.03 19:55:32.
