data_PCOD9551263
_publ_section_title
;
Structure prediction by ZEFSAII (Michael W. Deem and Ramdas Pophale) SiO2 
 PCOD9551263
Probable space group: I 4 2 2 
;
_chemical_formula_sum "Si O2"
_cell_formula_units_Z 80
_cell_length_a 18.027355
_cell_length_b 18.027355
_cell_length_c 13.899722
_cell_angle_alpha 90.000000
_cell_angle_beta 90.000000
_cell_angle_gamma 90.000000
_cell_volume 4517.208497
_symmetry_space_group_name_H-M "I 4 2 2 "
_symmetry_group_IT_number 97
_symmetry_cell_setting 'tetragonal'
loop_
_space_group_symop_operation_xyz
x,y,z
-y,x,z
-x,-y,z
y,-x,z
x,-y,-z
-x,y,-z
y,x,-z
-y,-x,-z
1/2+x,1/2+y,1/2+z
1/2-y,1/2+x,1/2+z
1/2-x,1/2-y,1/2+z
1/2+y,1/2-x,1/2+z
1/2+x,1/2-y,1/2-z
1/2-x,1/2+y,1/2-z
1/2+y,1/2+x,1/2-z
1/2-y,1/2-x,1/2-z
loop_
_atom_site_type_symbol
_atom_site_label
_atom_site_fract_x
_atom_site_fract_y
_atom_site_fract_z
Si Si1 0.883528 0.735511 0.761381
Si Si2 0.759316 0.808679 0.896570
Si Si3 0.236010 0.973159 0.109412
Si Si4 0.114230 0.955026 0.248610
Si Si5 0.167595 0.157207 0.609166
O O1 0.845072 0.654929 0.750000
O O2 0.822369 0.783719 0.820982
O O3 0.883085 0.778968 0.659913
O O4 0.961028 0.737054 0.819149
O O5 0.728641 0.891435 0.882457
O O6 0.693575 0.749067 0.891978
O O7 0.798442 0.798442 0.000000
O O8 0.152681 0.953551 0.144868
O O9 0.239649 0.000000 0.000000
O O10 0.166469 0.917305 0.327646
O O11 0.039626 0.908422 0.260409
O O12 0.143410 0.143410 0.500000
#
# Coordination Sequence:
#
# PCOD9551263 Si02
#       5
#    16  16  16  16  16
#     4  10  20  36  54  79 121 159 199 245 290 349
#     4  10  19  34  57  86 116 152 199 242 290 356
#     4  12  21  34  59  89 123 154 190 248 308 355
#     4  11  23  37  52  82 123 157 193 233 291 361
#     4  10  21  37  56  76 112 163 209 244 275 339
#
# _framework density 17.710052000000001
#
# number of rings (size 3 to 8) (size 9 to 14) (size 15 to 20)
#    0.000    1.400    6.000    0.000    0.000    0.800 
#    0.000    2.000    0.000    0.000    0.000    2.800 
#    0.000    6.400    0.000    0.000    0.000    0.000 
#
# Total GULP energy -222858.825178 kJ/mol
# GULP energy per Si atom -5571.470629 kJ/mol
# Density = 1.766974 g / cm^3
# Si number density = 17.710052 Si / 1000 Ang^3
#
#
#
# Elastic Constant Matrix: (Units=GPa)
#
#
# Indices 1 2 3 4 5 6 
#
# 1 77.4967 27.5069 18.3579 0.0000 0.0000 0.0000
# 2 27.5069 77.4979 18.3577 0.0000 0.0000 0.0000
# 3 18.3579 18.3577 91.4697 0.0000 0.0000 0.0000
# 4 0.0000 0.0000 0.0000 21.6885 0.0000 0.0000
# 5 0.0000 0.0000 0.0000 0.0000 21.6883 0.0000
# 6 0.0000 0.0000 0.0000 0.0000 0.0000 16.4647
#
#
#
# Elastic Compliance Matrix: (Units=1/GPa)
#
#
# Indices 1 2 3 4 5 6 
#
# 1 0.015123 -0.004881 -0.002056 0.000000 0.000000 0.000000
# 2 -0.004881 0.015123 -0.002056 0.000000 0.000000 0.000000
# 3 -0.002056 -0.002056 0.011758 0.000000 0.000000 0.000000
# 4 0.000000 0.000000 0.000000 0.046107 0.000000 0.000000
# 5 0.000000 0.000000 0.000000 0.000000 0.046108 0.000000
# 6 0.000000 0.000000 0.000000 0.000000 0.000000 0.060736
#
#
# Mechanical properties :
#
#
# Convention : Reuss Voigt Hill
#
# Bulk Modulus (GPa) = 41.63248 41.65658 41.64453
# Shear Modulus (GPa) = 22.63003 24.11777 23.37390
#
# Velocity S-wave (km/s) = 3.57852 3.69428 3.63686
# Velocity P-wave (km/s) = 6.37442 6.46293 6.41883
#
# Compressibility (1/GPa) = 0.02401971
#
# Stress axis : x y z
#
# Youngs Moduli (GPa) = 66.12380 66.12497 85.05079
#
# Poissons Ratio (x) = 0.32274 0.17483
# Poissons Ratio (y) = 0.32274 0.17482
# Poissons Ratio (z) = 0.13593 0.13592
#
# Static dielectric constant tensor:
#      x y z
#    x 1.646720 0.000000 0.000000 
#    y 0.000000 1.646720 0.000000 
#    z 0.000000 0.000000 1.674220 
# 
# From -- ./inp_files/4707.got.cif
#   From: 2010.05.17/outbox.cif.g08.bks.cpg/sg97_3_cif.got.tgz:4707.got - 2010.06.03 19:55:32.
