data_PCOD9551858
_publ_section_title
;
Structure prediction by ZEFSAII (Michael W. Deem and Ramdas Pophale) SiO2 
 PCOD9551858
Probable space group: I 41 2 2
;
_chemical_formula_sum "Si O2"
_cell_formula_units_Z 112
_cell_length_a 28.953661
_cell_length_b 28.953661
_cell_length_c 5.649911
_cell_angle_alpha 90.000000
_cell_angle_beta 90.000000
_cell_angle_gamma 90.000000
_cell_volume 4736.402232
_symmetry_space_group_name_H-M "I 41 2 2"
_symmetry_group_IT_number 98
_symmetry_cell_setting 'tetragonal'
loop_
_space_group_symop_operation_xyz
x,y,z
-y,1/2+x,1/4+z
-x,-y,z
y,1/2-x,1/4+z
x,1/2-y,1/4-z
-x,1/2+y,1/4-z
y,x,-z
-y,-x,-z
1/2+x,1/2+y,1/2+z
1/2-y,x,3/4+z
1/2-x,1/2-y,1/2+z
1/2+y,-x,3/4+z
1/2+x,-y,3/4-z
1/2-x,y,3/4-z
1/2+y,1/2+x,1/2-z
1/2-y,1/2-x,1/2-z
loop_
_atom_site_type_symbol
_atom_site_label
_atom_site_fract_x
_atom_site_fract_y
_atom_site_fract_z
Si Si1 0.877432 0.798725 0.532527
Si Si2 0.927587 0.390695 0.494216
Si Si3 0.583143 0.976700 0.377202
Si Si4 0.420016 0.356283 0.409472
Si Si5 0.434627 0.702797 0.997820
Si Si6 0.824358 0.970316 0.688825
Si Si7 0.339659 0.800790 0.510681
O O1 0.858108 0.750000 0.625000
O O2 0.837258 0.837258 0.500000
O O3 0.911063 0.813848 0.742675
O O4 0.918173 0.801992 0.333055
O O5 0.902047 0.402047 0.250000
O O6 0.934231 0.336770 0.551172
O O7 0.976486 0.416947 0.480876
O O8 0.907279 0.407279 0.750000
O O9 0.536424 0.963577 0.250000
O O10 0.596232 0.931262 0.524656
O O11 0.628732 0.978089 0.211303
O O12 0.369209 0.369209 0.500000
O O13 0.465860 0.343599 0.548716
O O14 0.423363 0.750000 0.125000
O O15 0.485149 0.705218 0.875622
O O16 0.393212 0.694377 0.813357
O O17 0.329493 0.750000 0.625000
O O18 0.330239 0.830239 0.750000
O O19 0.313688 0.813688 0.250000
#
# Coordination Sequence:
#
# PCOD9551858 Si02
#       7
#    16  16  16  16  16  16  16
#     4  11  23  42  64  96 141 182 246 311 382 453
#     4  11  28  48  71 104 153 202 250 311 382 450
#     4  10  21  39  68 100 140 184 244 297 355 435
#     4  11  19  39  71  97 133 183 237 302 370 446
#     4  11  26  49  76 111 155 199 253 315 395 471
#     4  10  21  43  69 104 137 188 234 305 379 457
#     4  12  28  55  85 118 161 207 262 324 386 461
#
# _framework density 23.646640999999999
#
# number of rings (size 3 to 8) (size 9 to 14) (size 15 to 20)
#    0.000    1.143    2.857    3.000    4.000    6.000 
#   12.857    2.143    0.000    0.000    0.000    0.000 
#    0.000    0.000    0.000    0.000    0.000    0.000 
#
# Total GULP energy -311785.638679 kJ/mol
# GULP energy per Si atom -5567.600691 kJ/mol
# Density = 2.359282 g / cm^3
# Si number density = 23.646641 Si / 1000 Ang^3
#
#
#
# Elastic Constant Matrix: (Units=GPa)
#
#
# Indices 1 2 3 4 5 6 
#
# 1 173.5771 -19.1731 38.8667 0.0000 0.0000 0.0000
# 2 -19.1731 173.5702 38.8694 0.0000 0.0000 0.0000
# 3 38.8667 38.8694 112.7552 0.0000 0.0000 0.0000
# 4 0.0000 0.0000 0.0000 10.3305 0.0000 0.0000
# 5 0.0000 0.0000 0.0000 0.0000 10.3312 0.0000
# 6 0.0000 0.0000 0.0000 0.0000 0.0000 28.0290
#
#
#
# Elastic Compliance Matrix: (Units=1/GPa)
#
#
# Indices 1 2 3 4 5 6 
#
# 1 0.006512 0.001324 -0.002701 0.000000 0.000000 0.000000
# 2 0.001324 0.006513 -0.002702 0.000000 0.000000 0.000000
# 3 -0.002701 -0.002702 0.010731 0.000000 0.000000 0.000000
# 4 0.000000 0.000000 0.000000 0.096801 0.000000 0.000000
# 5 0.000000 0.000000 0.000000 0.000000 0.096794 0.000000
# 6 0.000000 0.000000 0.000000 0.000000 0.000000 0.035677
#
#
# Mechanical properties :
#
#
# Convention : Reuss Voigt Hill
#
# Bulk Modulus (GPa) = 64.10661 64.11425 64.11043
# Shear Modulus (GPa) = 18.76980 36.49410 27.63195
#
# Velocity S-wave (km/s) = 2.82043 3.93276 3.42209
# Velocity P-wave (km/s) = 6.14618 6.91335 6.54103
#
# Compressibility (1/GPa) = 0.01559901
#
# Stress axis : x y z
#
# Youngs Moduli (GPa) = 153.55620 153.54783 93.18626
#
# Poissons Ratio (x) = -0.20334 0.25172
# Poissons Ratio (y) = -0.20335 0.25175
# Poissons Ratio (z) = 0.41480 0.41482
#
# Static dielectric constant tensor:
#      x y z
#    x 1.943770 0.000000 0.000000 
#    y 0.000000 1.943770 0.000000 
#    z 0.000000 0.000000 2.137940 
# 
# From -- ./inp_files/2043.got.cif
#   From: 2010.05.17/outbox.cif.g08.bks.cpg/sg98_2_cif.got.tgz:2043.got - 2010.06.03 20:00:51.
