data_PCOD9551859
_publ_section_title
;
Structure prediction by ZEFSAII (Michael W. Deem and Ramdas Pophale) SiO2 
 PCOD9551859
Probable space group: I 41 2 2
;
_chemical_formula_sum "Si O2"
_cell_formula_units_Z 88
_cell_length_a 12.474140
_cell_length_b 12.474140
_cell_length_c 28.216082
_cell_angle_alpha 90.000000
_cell_angle_beta 90.000000
_cell_angle_gamma 90.000000
_cell_volume 4390.539985
_symmetry_space_group_name_H-M "I 41 2 2"
_symmetry_group_IT_number 98
_symmetry_cell_setting 'tetragonal'
loop_
_space_group_symop_operation_xyz
x,y,z
-y,1/2+x,1/4+z
-x,-y,z
y,1/2-x,1/4+z
x,1/2-y,1/4-z
-x,1/2+y,1/4-z
y,x,-z
-y,-x,-z
1/2+x,1/2+y,1/2+z
1/2-y,x,3/4+z
1/2-x,1/2-y,1/2+z
1/2+y,-x,3/4+z
1/2+x,-y,3/4-z
1/2-x,y,3/4-z
1/2+y,1/2+x,1/2-z
1/2-y,1/2-x,1/2-z
loop_
_atom_site_type_symbol
_atom_site_label
_atom_site_fract_x
_atom_site_fract_y
_atom_site_fract_z
Si Si1 0.273670 0.550649 0.429236
Si Si2 0.856460 0.834984 0.583455
Si Si3 0.500000 0.500000 0.862919
Si Si4 0.590121 0.874579 0.942713
Si Si5 0.972747 0.181243 0.713689
Si Si6 0.247748 0.747748 0.250000
Si Si7 0.000000 0.500000 0.357251
O O1 0.250000 0.582272 0.375000
O O2 0.189141 0.457978 0.443297
O O3 0.260948 0.649948 0.463597
O O4 0.396127 0.511927 0.425417
O O5 0.831238 0.750000 0.625000
O O6 0.745165 0.865069 0.559796
O O7 0.941182 0.771156 0.551344
O O8 0.911002 0.941507 0.605101
O O9 0.594866 0.459532 0.828387
O O10 0.523856 0.903625 0.894810
O O11 0.516402 0.877481 0.989156
O O12 0.860582 0.236712 0.724068
#
# Coordination Sequence:
#
# PCOD9551859 Si02
#       7
#    16  16   8  16  16   8   8
#     4  10  23  43  67 100 134 179 222 283 351 414
#     4  10  23  41  66  97 126 177 220 274 332 401
#     4  10  23  42  65  92 133 171 224 269 343 394
#     4  11  22  45  68  94 133 178 225 275 345 409
#     4  11  24  42  63  98 130 179 221 278 333 396
#     4  12  26  41  65 100 142 172 230 282 344 398
#     4  10  21  39  70 100 129 173 224 276 354 412
#
# _framework density 20.043092000000001
#
# number of rings (size 3 to 8) (size 9 to 14) (size 15 to 20)
#    0.000    1.455    0.000    6.000    5.091    2.545 
#    6.545    0.000    0.000    0.000    0.000    0.000 
#    0.000    0.000    0.000    0.000    0.000    0.000 
#
# Total GULP energy -245926.370816 kJ/mol
# GULP energy per Si atom -5589.235700 kJ/mol
# Density = 1.999747 g / cm^3
# Si number density = 20.043092 Si / 1000 Ang^3
#
#
#
# Elastic Constant Matrix: (Units=GPa)
#
#
# Indices 1 2 3 4 5 6 
#
# 1 133.1461 66.3953 44.2566 0.0000 0.0000 0.0000
# 2 66.3953 133.1461 44.2566 0.0000 0.0000 0.0000
# 3 44.2566 44.2566 55.4765 0.0000 0.0000 0.0000
# 4 0.0000 0.0000 0.0000 17.7546 0.0000 0.0000
# 5 0.0000 0.0000 0.0000 0.0000 17.7546 0.0000
# 6 0.0000 0.0000 0.0000 0.0000 0.0000 25.7408
#
#
#
# Elastic Compliance Matrix: (Units=1/GPa)
#
#
# Indices 1 2 3 4 5 6 
#
# 1 0.011369 -0.003612 -0.006188 0.000000 0.000000 0.000000
# 2 -0.003612 0.011369 -0.006188 0.000000 0.000000 0.000000
# 3 -0.006188 -0.006188 0.027898 0.000000 0.000000 0.000000
# 4 0.000000 0.000000 0.000000 0.056324 0.000000 0.000000
# 5 0.000000 0.000000 0.000000 0.000000 0.056324 0.000000
# 6 0.000000 0.000000 0.000000 0.000000 0.000000 0.038849
#
#
# Mechanical properties :
#
#
# Convention : Reuss Voigt Hill
#
# Bulk Modulus (GPa) = 53.59014 70.17620 61.88317
# Shear Modulus (GPa) = 20.80506 23.37399 22.08952
#
# Velocity S-wave (km/s) = 3.22532 3.41865 3.32339
# Velocity P-wave (km/s) = 6.37697 7.11840 6.75786
#
# Compressibility (1/GPa) = 0.01866015
#
# Stress axis : x y z
#
# Youngs Moduli (GPa) = 87.96130 87.96131 35.84505
#
# Poissons Ratio (x) = 0.31776 0.22179
# Poissons Ratio (y) = 0.31776 0.22179
# Poissons Ratio (z) = 0.54426 0.54426
#
# Static dielectric constant tensor:
#      x y z
#    x 1.704560 0.000000 0.000000 
#    y 0.000000 1.704560 0.000000 
#    z 0.000000 0.000000 1.711510 
# 
# From -- ./inp_files/11991.got.cif
#   From: 2010.05.17/outbox.cif.g08.bks.cpg/sg98_6_cif.got.tgz:11991.got - 2010.06.03 20:00:51.
