data_PCOD9551607
_publ_section_title
;
Structure prediction by ZEFSAII (Michael W. Deem and Ramdas Pophale) SiO2 
 PCOD9551607
Probable space group: I 4 2 2 
;
_chemical_formula_sum "Si O2"
_cell_formula_units_Z 60
_cell_length_a 11.862927
_cell_length_b 11.862927
_cell_length_c 18.001520
_cell_angle_alpha 90.000000
_cell_angle_beta 90.000000
_cell_angle_gamma 90.000000
_cell_volume 2533.336574
_symmetry_space_group_name_H-M "I 4 2 2 "
_symmetry_group_IT_number 97
_symmetry_cell_setting 'tetragonal'
loop_
_space_group_symop_operation_xyz
x,y,z
-y,x,z
-x,-y,z
y,-x,z
x,-y,-z
-x,y,-z
y,x,-z
-y,-x,-z
1/2+x,1/2+y,1/2+z
1/2-y,1/2+x,1/2+z
1/2-x,1/2-y,1/2+z
1/2+y,1/2-x,1/2+z
1/2+x,1/2-y,1/2-z
1/2-x,1/2+y,1/2-z
1/2+y,1/2+x,1/2-z
1/2-y,1/2-x,1/2-z
loop_
_atom_site_type_symbol
_atom_site_label
_atom_site_fract_x
_atom_site_fract_y
_atom_site_fract_z
Si Si1 0.836820 0.596837 0.126922
Si Si2 0.933795 0.172076 0.904194
Si Si3 0.650933 0.599311 0.226523
Si Si4 0.500000 0.000000 0.750000
Si Si5 0.000000 0.191277 0.500000
O O1 0.902720 0.696918 0.083473
O O2 0.743792 0.659423 0.177802
O O3 0.902199 0.524045 0.189437
O O4 0.774298 0.517574 0.068944
O O5 0.915066 0.164238 0.814545
O O6 0.063106 0.142481 0.927306
O O7 0.531635 0.648726 0.204493
O O8 0.891493 0.108508 0.500000
#
# Coordination Sequence:
#
# PCOD9551607 Si02
#       5
#    16  16  16   4   8
#     4  12  23  44  67 107 148 190 245 313 374 438
#     4   9  19  37  64 104 144 184 241 303 376 444
#     4   9  17  33  59  94 136 181 231 292 356 428
#     4  12  28  42  68 116 148 188 252 322 380 446
#     4  11  28  53  76 104 148 207 256 295 376 478
#
# _framework density 23.684179
#
# number of rings (size 3 to 8) (size 9 to 14) (size 15 to 20)
#    0.000    1.733    2.667    3.200    0.000    6.933 
#    0.000    0.000    0.000    0.000    0.000    1.867 
#    0.000    0.000    0.000    0.000    0.000    0.000 
#
# Total GULP energy -167151.446969 kJ/mol
# GULP energy per Si atom -5571.714899 kJ/mol
# Density = 2.363027 g / cm^3
# Si number density = 23.684179 Si / 1000 Ang^3
#
#
#
# Elastic Constant Matrix: (Units=GPa)
#
#
# Indices 1 2 3 4 5 6 
#
# 1 116.0720 59.4371 53.8462 0.0000 0.0000 0.0000
# 2 59.4371 116.0717 53.8462 0.0000 0.0000 0.0000
# 3 53.8462 53.8462 132.4424 0.0000 0.0000 0.0000
# 4 0.0000 0.0000 0.0000 29.0833 0.0000 0.0000
# 5 0.0000 0.0000 0.0000 0.0000 29.0830 0.0000
# 6 0.0000 0.0000 0.0000 0.0000 0.0000 31.4198
#
#
#
# Elastic Compliance Matrix: (Units=1/GPa)
#
#
# Indices 1 2 3 4 5 6 
#
# 1 0.012624 -0.005033 -0.003086 0.000000 0.000000 0.000000
# 2 -0.005033 0.012624 -0.003086 0.000000 0.000000 0.000000
# 3 -0.003086 -0.003086 0.010060 0.000000 0.000000 0.000000
# 4 0.000000 0.000000 0.000000 0.034384 0.000000 0.000000
# 5 0.000000 0.000000 0.000000 0.000000 0.034384 0.000000
# 6 0.000000 0.000000 0.000000 0.000000 0.000000 0.031827
#
#
# Mechanical properties :
#
#
# Convention : Reuss Voigt Hill
#
# Bulk Modulus (GPa) = 77.53470 77.64946 77.59208
# Shear Modulus (GPa) = 30.74755 31.08098 30.91426
#
# Velocity S-wave (km/s) = 3.60701 3.62651 3.61677
# Velocity P-wave (km/s) = 7.08204 7.09873 7.09039
#
# Compressibility (1/GPa) = 0.01289745
#
# Stress axis : x y z
#
# Youngs Moduli (GPa) = 79.21255 79.21228 99.40230
#
# Poissons Ratio (x) = 0.39865 0.30680
# Poissons Ratio (y) = 0.39865 0.30680
# Poissons Ratio (z) = 0.24448 0.24449
#
# Static dielectric constant tensor:
#      x y z
#    x 1.995330 0.000000 0.000000 
#    y 0.000000 1.995330 0.000000 
#    z 0.000000 0.000000 1.139020 
# 
# From -- ./inp_files/6336.got.cif
#   From: 2010.05.17/outbox.cif.g08.bks.cpg/sg97_4_cif.got.tgz:6336.got - 2010.06.03 19:55:32.
