data_PCOD9551331
_publ_section_title
;
Structure prediction by ZEFSAII (Michael W. Deem and Ramdas Pophale) SiO2 
 PCOD9551331
Probable space group: I 4 2 2 
;
_chemical_formula_sum "Si O2"
_cell_formula_units_Z 112
_cell_length_a 14.471849
_cell_length_b 14.471849
_cell_length_c 27.416853
_cell_angle_alpha 90.000000
_cell_angle_beta 90.000000
_cell_angle_gamma 90.000000
_cell_volume 5742.032527
_symmetry_space_group_name_H-M "I 4 2 2 "
_symmetry_group_IT_number 97
_symmetry_cell_setting 'tetragonal'
loop_
_space_group_symop_operation_xyz
x,y,z
-y,x,z
-x,-y,z
y,-x,z
x,-y,-z
-x,y,-z
y,x,-z
-y,-x,-z
1/2+x,1/2+y,1/2+z
1/2-y,1/2+x,1/2+z
1/2-x,1/2-y,1/2+z
1/2+y,1/2-x,1/2+z
1/2+x,1/2-y,1/2-z
1/2-x,1/2+y,1/2-z
1/2+y,1/2+x,1/2-z
1/2-y,1/2-x,1/2-z
loop_
_atom_site_type_symbol
_atom_site_label
_atom_site_fract_x
_atom_site_fract_y
_atom_site_fract_z
Si Si1 0.486757 0.760528 0.446018
Si Si2 0.900312 0.883732 0.722642
Si Si3 0.808437 0.195090 0.369464
Si Si4 0.016359 0.152834 0.152047
Si Si5 0.242025 0.349146 0.291038
Si Si6 0.601544 0.159455 0.940145
Si Si7 0.812774 0.609296 0.050714
O O1 0.500000 0.719491 0.500000
O O2 0.491484 0.686981 0.403241
O O3 0.565726 0.839184 0.441582
O O4 0.389038 0.811714 0.441973
O O5 0.876689 0.855951 0.667574
O O6 0.832605 0.827058 0.758037
O O7 0.008864 0.874987 0.730946
O O8 0.722519 0.226677 0.335173
O O9 0.858602 0.279171 0.396581
O O10 0.769517 0.129875 0.412206
O O11 0.051188 0.239719 0.184148
O O12 0.922209 0.097465 0.160953
O O13 0.161843 0.338158 0.250000
O O14 0.491495 0.145480 0.937154
O O15 0.613479 0.209034 0.993015
#
# Coordination Sequence:
#
# PCOD9551331 Si02
#       7
#    16  16  16  16  16  16  16
#     4  10  21  36  57  83 117 159 206 248 295 366
#     4  10  21  37  58  83 112 145 186 239 296 359
#     4  11  20  36  57  86 114 146 193 244 299 350
#     4  11  22  37  58  88 124 161 199 248 314 376
#     4  10  21  36  57  82 114 152 198 242 297 359
#     4  10  21  35  58  84 116 156 198 242 295 363
#     4  10  20  37  56  83 117 156 197 242 296 357
#
# _framework density 19.505289000000001
#
# number of rings (size 3 to 8) (size 9 to 14) (size 15 to 20)
#    0.000    1.714    1.429    3.429    0.000    3.429 
#    0.000    0.714    0.000    0.000    0.000    9.000 
#    0.000    0.000    0.000    0.000    0.000    0.000 
#
# Total GULP energy -312378.415274 kJ/mol
# GULP energy per Si atom -5578.185987 kJ/mol
# Density = 1.946089 g / cm^3
# Si number density = 19.505289 Si / 1000 Ang^3
#
#
#
# Elastic Constant Matrix: (Units=GPa)
#
#
# Indices 1 2 3 4 5 6 
#
# 1 32.0110 -1.3687 14.3844 0.0000 0.0000 0.0000
# 2 -1.3687 32.0102 14.3843 0.0000 0.0000 0.0000
# 3 14.3844 14.3843 102.6251 0.0000 0.0000 0.0000
# 4 0.0000 0.0000 0.0000 36.5146 0.0000 0.0000
# 5 0.0000 0.0000 0.0000 0.0000 36.5147 0.0000
# 6 0.0000 0.0000 0.0000 0.0000 0.0000 22.2469
#
#
#
# Elastic Compliance Matrix: (Units=1/GPa)
#
#
# Indices 1 2 3 4 5 6 
#
# 1 0.033769 0.003811 -0.005267 0.000000 0.000000 0.000000
# 2 0.003811 0.033770 -0.005267 0.000000 0.000000 0.000000
# 3 -0.005267 -0.005267 0.011221 0.000000 0.000000 0.000000
# 4 0.000000 0.000000 0.000000 0.027386 0.000000 0.000000
# 5 0.000000 0.000000 0.000000 0.000000 0.027386 0.000000
# 6 0.000000 0.000000 0.000000 0.000000 0.000000 0.044950
#
#
# Mechanical properties :
#
#
# Convention : Reuss Voigt Hill
#
# Bulk Modulus (GPa) = 15.31113 24.60516 19.95814
# Shear Modulus (GPa) = 23.39716 28.33833 25.86775
#
# Velocity S-wave (km/s) = 3.46718 3.81577 3.64564
# Velocity P-wave (km/s) = 4.88827 5.66175 5.28917
#
# Compressibility (1/GPa) = 0.06531196
#
# Stress axis : x y z
#
# Youngs Moduli (GPa) = 29.61284 29.61207 89.12009
#
# Poissons Ratio (x) = -0.11285 0.46943
# Poissons Ratio (y) = -0.11285 0.46944
# Poissons Ratio (z) = 0.15598 0.15598
#
# Static dielectric constant tensor:
#      x y z
#    x 1.679100 0.000000 0.000000 
#    y 0.000000 1.679100 0.000000 
#    z 0.000000 0.000000 1.719740 
# 
# From -- ./inp_files/7268.got.cif
#   From: 2010.05.17/outbox.cif.g08.bks.cpg/sg97_4_cif.got.tgz:7268.got - 2010.06.03 19:55:32.
