data_PCOD9551514
_publ_section_title
;
Structure prediction by ZEFSAII (Michael W. Deem and Ramdas Pophale) SiO2 
 PCOD9551514
Probable space group: I 4 2 2 
;
_chemical_formula_sum "Si O2"
_cell_formula_units_Z 68
_cell_length_a 11.895637
_cell_length_b 11.895637
_cell_length_c 25.799429
_cell_angle_alpha 90.000000
_cell_angle_beta 90.000000
_cell_angle_gamma 90.000000
_cell_volume 3650.778635
_symmetry_space_group_name_H-M "I 4 2 2 "
_symmetry_group_IT_number 97
_symmetry_cell_setting 'tetragonal'
loop_
_space_group_symop_operation_xyz
x,y,z
-y,x,z
-x,-y,z
y,-x,z
x,-y,-z
-x,y,-z
y,x,-z
-y,-x,-z
1/2+x,1/2+y,1/2+z
1/2-y,1/2+x,1/2+z
1/2-x,1/2-y,1/2+z
1/2+y,1/2-x,1/2+z
1/2+x,1/2-y,1/2-z
1/2-x,1/2+y,1/2-z
1/2+y,1/2+x,1/2-z
1/2-y,1/2-x,1/2-z
loop_
_atom_site_type_symbol
_atom_site_label
_atom_site_fract_x
_atom_site_fract_y
_atom_site_fract_z
Si Si1 0.000000 0.500000 0.750000
Si Si2 0.010971 0.727164 0.183859
Si Si3 0.430632 0.667347 0.212325
Si Si4 0.711103 0.759121 0.644526
Si Si5 0.368150 0.367865 0.061548
O O1 0.009169 0.391724 0.786873
O O2 0.954750 0.810152 0.227063
O O3 0.922855 0.735185 0.136873
O O4 0.137540 0.753687 0.166775
O O5 0.358932 0.557873 0.196089
O O6 0.358491 0.764811 0.186643
O O7 0.785874 0.792213 0.595415
O O8 0.499962 0.346592 0.073087
O O9 0.352443 0.352443 0.000000
#
# Coordination Sequence:
#
# PCOD9551514 Si02
#       5
#     4  16  16  16  16
#     4  12  24  36  52  88 134 156 196 268 288 348
#     4  12  25  37  55  84 127 166 207 240 300 360
#     4  11  21  38  58  79 114 162 210 244 285 350
#     4  12  24  40  58  88 120 167 202 252 305 364
#     4   9  20  42  70  95 116 146 199 260 312 367
#
# _framework density 18.626163999999999
#
# number of rings (size 3 to 8) (size 9 to 14) (size 15 to 20)
#    0.000    0.941    4.706    3.529    3.294    2.353 
#    0.000    1.176    0.000    2.824    0.000    1.647 
#    0.000    0.000    0.000    0.000    0.000    0.000 
#
# Total GULP energy -189625.429706 kJ/mol
# GULP energy per Si atom -5577.218521 kJ/mol
# Density = 1.858377 g / cm^3
# Si number density = 18.626164 Si / 1000 Ang^3
#
#
#
# Elastic Constant Matrix: (Units=GPa)
#
#
# Indices 1 2 3 4 5 6 
#
# 1 63.2596 97.9991 41.4568 0.0000 0.0000 0.0000
# 2 97.9991 63.2596 41.4568 0.0000 0.0000 0.0000
# 3 41.4568 41.4568 85.8278 0.0000 0.0000 0.0000
# 4 0.0000 0.0000 0.0000 29.4491 0.0000 0.0000
# 5 0.0000 0.0000 0.0000 0.0000 29.4491 0.0000
# 6 0.0000 0.0000 0.0000 0.0000 0.0000 17.9123
#
#
#
# Elastic Compliance Matrix: (Units=1/GPa)
#
#
# Indices 1 2 3 4 5 6 
#
# 1 -0.010268 0.018518 -0.003985 0.000000 0.000000 0.000000
# 2 0.018518 -0.010268 -0.003985 0.000000 0.000000 0.000000
# 3 -0.003985 -0.003985 0.015501 0.000000 0.000000 0.000000
# 4 0.000000 0.000000 0.000000 0.033957 0.000000 0.000000
# 5 0.000000 0.000000 0.000000 0.000000 0.033957 0.000000
# 6 0.000000 0.000000 0.000000 0.000000 0.000000 0.055828
#
#
# Mechanical properties :
#
#
# Convention : Reuss Voigt Hill
#
# Bulk Modulus (GPa) = 62.26182 63.79694 63.02938
# Shear Modulus (GPa) = 48.56030 17.45772 33.00901
#
# Velocity S-wave (km/s) = 5.11152 3.06481 4.21430
# Velocity P-wave (km/s) = 8.26659 6.84468 7.58901
#
# Compressibility (1/GPa) = 0.01606121
#
# Stress axis : x y z
#
# Youngs Moduli (GPa) = -97.39227 -97.39227 64.51212
#
# Poissons Ratio (x) = 1.80350 0.25708
# Poissons Ratio (y) = 1.80350 0.25708
# Poissons Ratio (z) = -0.38811 -0.38811
#
# Static dielectric constant tensor:
#      x y z
#    x 1.674030 0.000000 0.000000 
#    y 0.000000 1.674030 0.000000 
#    z 0.000000 0.000000 1.675670 
# 
# From -- ./inp_files/7541.got.cif
#   From: 2010.05.17/outbox.cif.g08.bks.cpg/sg97_4_cif.got.tgz:7541.got - 2010.06.03 19:55:32.
