data_PCOD9551760
_publ_section_title
;
Structure prediction by ZEFSAII (Michael W. Deem and Ramdas Pophale) SiO2 
 PCOD9551760
Probable space group: I 41 2 2
;
_chemical_formula_sum "Si O2"
_cell_formula_units_Z 56
_cell_length_a 11.901150
_cell_length_b 11.901150
_cell_length_c 16.211963
_cell_angle_alpha 90.000000
_cell_angle_beta 90.000000
_cell_angle_gamma 90.000000
_cell_volume 2296.219823
_symmetry_space_group_name_H-M "I 41 2 2"
_symmetry_group_IT_number 98
_symmetry_cell_setting 'tetragonal'
loop_
_space_group_symop_operation_xyz
x,y,z
-y,1/2+x,1/4+z
-x,-y,z
y,1/2-x,1/4+z
x,1/2-y,1/4-z
-x,1/2+y,1/4-z
y,x,-z
-y,-x,-z
1/2+x,1/2+y,1/2+z
1/2-y,x,3/4+z
1/2-x,1/2-y,1/2+z
1/2+y,-x,3/4+z
1/2+x,-y,3/4-z
1/2-x,y,3/4-z
1/2+y,1/2+x,1/2-z
1/2-y,1/2-x,1/2-z
loop_
_atom_site_type_symbol
_atom_site_label
_atom_site_fract_x
_atom_site_fract_y
_atom_site_fract_z
Si Si1 0.873051 0.528799 0.140327
Si Si2 0.868006 0.191682 0.756659
Si Si3 0.250000 0.466324 0.875000
Si Si4 0.341904 0.432721 0.227071
O O1 0.790050 0.562532 0.212303
O O2 0.000000 0.500000 0.161983
O O3 0.817025 0.418496 0.097839
O O4 0.882218 0.618378 0.064659
O O5 0.745941 0.245941 0.750000
O O6 0.949982 0.268819 0.701660
O O7 0.879830 0.063019 0.725630
O O8 0.355070 0.392033 0.845477
#
# Coordination Sequence:
#
# PCOD9551760 Si02
#       4
#    16  16   8  16
#     4   9  20  39  62  89 127 171 218 277 336 402
#     4  10  20  35  59  90 126 170 218 272 340 411
#     4  10  20  36  60  88 126 166 214 278 338 398
#     4  10  21  39  60  91 130 171 225 280 338 408
#
# _framework density 24.387906999999998
#
# number of rings (size 3 to 8) (size 9 to 14) (size 15 to 20)
#    0.000    2.286    0.000    4.286    0.000    4.571 
#    0.000   10.000    0.000    0.000    0.000    0.000 
#    0.000    0.000    0.000    0.000    0.000    0.000 
#
# Total GULP energy -156608.745381 kJ/mol
# GULP energy per Si atom -5593.169478 kJ/mol
# Density = 2.433240 g / cm^3
# Si number density = 24.387907 Si / 1000 Ang^3
#
#
#
# Elastic Constant Matrix: (Units=GPa)
#
#
# Indices 1 2 3 4 5 6 
#
# 1 107.0128 30.4121 24.2192 0.0000 0.0000 0.0000
# 2 30.4121 107.0128 24.2192 0.0000 0.0000 0.0000
# 3 24.2192 24.2192 51.6305 0.0000 0.0000 0.0000
# 4 0.0000 0.0000 0.0000 23.7949 0.0000 0.0000
# 5 0.0000 0.0000 0.0000 0.0000 23.7949 0.0000
# 6 0.0000 0.0000 0.0000 0.0000 0.0000 51.9231
#
#
#
# Elastic Compliance Matrix: (Units=1/GPa)
#
#
# Indices 1 2 3 4 5 6 
#
# 1 0.010886 -0.002168 -0.004090 0.000000 0.000000 0.000000
# 2 -0.002168 0.010886 -0.004090 0.000000 0.000000 0.000000
# 3 -0.004090 -0.004090 0.023205 0.000000 0.000000 0.000000
# 4 0.000000 0.000000 0.000000 0.042026 0.000000 0.000000
# 5 0.000000 0.000000 0.000000 0.000000 0.042026 0.000000
# 6 0.000000 0.000000 0.000000 0.000000 0.000000 0.019259
#
#
# Mechanical properties :
#
#
# Convention : Reuss Voigt Hill
#
# Bulk Modulus (GPa) = 41.18079 47.03964 44.11021
# Shear Modulus (GPa) = 28.23613 32.35629 30.29621
#
# Velocity S-wave (km/s) = 3.40633 3.64639 3.52840
# Velocity P-wave (km/s) = 5.69150 6.08754 5.89285
#
# Compressibility (1/GPa) = 0.02428317
#
# Stress axis : x y z
#
# Youngs Moduli (GPa) = 91.85740 91.85740 43.09391
#
# Poissons Ratio (x) = 0.19917 0.17624
# Poissons Ratio (y) = 0.19917 0.17624
# Poissons Ratio (z) = 0.37566 0.37566
#
# Static dielectric constant tensor:
#      x y z
#    x 1.969200 0.000000 0.000000 
#    y 0.000000 1.969200 0.000000 
#    z 0.000000 0.000000 1.925530 
# 
# From -- ./inp_files/8406.got.cif
#   From: 2010.05.17/outbox.cif.g08.bks.cpg/sg98_5_cif.got.tgz:8406.got - 2010.06.03 20:00:51.
