data_PCOD9551914
_publ_section_title
;
Structure prediction by ZEFSAII (Michael W. Deem and Ramdas Pophale) SiO2 
 PCOD9551914
Probable space group: I 41 2 2
;
_chemical_formula_sum "Si O2"
_cell_formula_units_Z 48
_cell_length_a 10.679066
_cell_length_b 10.679066
_cell_length_c 17.777583
_cell_angle_alpha 90.000000
_cell_angle_beta 90.000000
_cell_angle_gamma 90.000000
_cell_volume 2027.399132
_symmetry_space_group_name_H-M "I 41 2 2"
_symmetry_group_IT_number 98
_symmetry_cell_setting 'tetragonal'
loop_
_space_group_symop_operation_xyz
x,y,z
-y,1/2+x,1/4+z
-x,-y,z
y,1/2-x,1/4+z
x,1/2-y,1/4-z
-x,1/2+y,1/4-z
y,x,-z
-y,-x,-z
1/2+x,1/2+y,1/2+z
1/2-y,x,3/4+z
1/2-x,1/2-y,1/2+z
1/2+y,-x,3/4+z
1/2+x,-y,3/4-z
1/2-x,y,3/4-z
1/2+y,1/2+x,1/2-z
1/2-y,1/2-x,1/2-z
loop_
_atom_site_type_symbol
_atom_site_label
_atom_site_fract_x
_atom_site_fract_y
_atom_site_fract_z
Si Si1 0.217532 0.980968 0.521821
Si Si2 0.094418 0.115694 0.334078
Si Si3 0.855053 0.038876 0.814046
O O1 0.092566 0.907435 0.500000
O O2 0.314912 0.874352 0.547244
O O3 0.198176 0.076427 0.591449
O O4 0.280654 0.053521 0.451592
O O5 0.033726 0.183599 0.261734
O O6 0.000000 0.000000 0.346849
O O7 0.750000 0.015571 0.875000
O O8 0.000000 0.000000 0.832437
#
# Coordination Sequence:
#
# PCOD9551914 Si02
#       3
#    16  16  16
#     4  10  22  42  77  99 144 190 248 305 378 457
#     4   9  22  42  68 108 140 183 248 302 373 451
#     4   9  21  39  70 110 146 194 250 303 377 460
#
# _framework density 23.675651999999999
#
# number of rings (size 3 to 8) (size 9 to 14) (size 15 to 20)
#    0.000    3.333    0.000    0.000    9.333    0.667 
#    0.000   13.333  102.667    0.000    0.000    0.000 
#    0.000    0.000    0.000    0.000    0.000    0.000 
#
# Total GULP energy -133986.780539 kJ/mol
# GULP energy per Si atom -5582.782522 kJ/mol
# Density = 2.362177 g / cm^3
# Si number density = 23.675652 Si / 1000 Ang^3
#
#
#
# Elastic Constant Matrix: (Units=GPa)
#
#
# Indices 1 2 3 4 5 6 
#
# 1 71.1548 73.0783 74.0229 0.0000 0.0000 0.0000
# 2 73.0783 71.1532 74.0240 0.0000 0.0000 0.0000
# 3 74.0229 74.0240 227.6737 0.0000 0.0000 0.0000
# 4 0.0000 0.0000 0.0000 34.1121 0.0000 0.0000
# 5 0.0000 0.0000 0.0000 0.0000 34.1109 0.0000
# 6 0.0000 0.0000 0.0000 0.0000 0.0000 3.8601
#
#
#
# Elastic Compliance Matrix: (Units=1/GPa)
#
#
# Indices 1 2 3 4 5 6 
#
# 1 -0.254628 0.265041 -0.003387 0.000000 0.000000 0.000000
# 2 0.265041 -0.254641 -0.003380 0.000000 0.000000 0.000000
# 3 -0.003387 -0.003380 0.006592 0.000000 0.000000 0.000000
# 4 0.000000 0.000000 0.000000 0.029315 0.000000 0.000000
# 5 0.000000 0.000000 0.000000 0.000000 0.029316 0.000000
# 6 0.000000 0.000000 0.000000 0.000000 0.000000 0.259063
#
#
# Mechanical properties :
#
#
# Convention : Reuss Voigt Hill
#
# Bulk Modulus (GPa) = 72.09216 90.24800 81.17008
# Shear Modulus (GPa) = -7.17456 24.34037 8.58291
#
# Velocity S-wave (km/s) = -1.74268 3.20984 1.90606
# Velocity P-wave (km/s) = 5.14459 7.20685 6.26121
#
# Compressibility (1/GPa) = 0.01387113
#
# Stress axis : x y z
#
# Youngs Moduli (GPa) = -3.92729 -3.92710 151.69246
#
# Poissons Ratio (x) = 1.04084 0.51371
# Poissons Ratio (y) = 1.04089 0.51274
# Poissons Ratio (z) = -0.01330 -0.01327
#
# Static dielectric constant tensor:
#      x y z
#    x 1.967240 0.000000 0.000000 
#    y 0.000000 1.967240 0.000000 
#    z 0.000000 0.000000 1.952970 
# 
# From -- ./inp_files/7167.got.cif
#   From: 2010.05.17/outbox.cif.g08.bks.cpg/sg98_4_cif.got.tgz:7167.got - 2010.06.03 20:00:51.
