data_PCOD9551345
_publ_section_title
;
Structure prediction by ZEFSAII (Michael W. Deem and Ramdas Pophale) SiO2 
 PCOD9551345
Probable space group: I 4 2 2 
;
_chemical_formula_sum "Si O2"
_cell_formula_units_Z 64
_cell_length_a 20.306620
_cell_length_b 20.306620
_cell_length_c 7.839526
_cell_angle_alpha 90.000000
_cell_angle_beta 90.000000
_cell_angle_gamma 90.000000
_cell_volume 3232.697658
_symmetry_space_group_name_H-M "I 4 2 2 "
_symmetry_group_IT_number 97
_symmetry_cell_setting 'tetragonal'
loop_
_space_group_symop_operation_xyz
x,y,z
-y,x,z
-x,-y,z
y,-x,z
x,-y,-z
-x,y,-z
y,x,-z
-y,-x,-z
1/2+x,1/2+y,1/2+z
1/2-y,1/2+x,1/2+z
1/2-x,1/2-y,1/2+z
1/2+y,1/2-x,1/2+z
1/2+x,1/2-y,1/2-z
1/2-x,1/2+y,1/2-z
1/2+y,1/2+x,1/2-z
1/2-y,1/2-x,1/2-z
loop_
_atom_site_type_symbol
_atom_site_label
_atom_site_fract_x
_atom_site_fract_y
_atom_site_fract_z
Si Si1 0.280909 0.682755 0.315497
Si Si2 0.593113 0.255932 0.137995
Si Si3 0.635658 0.000000 0.000000
Si Si4 0.105389 0.605389 0.750000
Si Si5 0.955105 0.751463 0.753326
O O1 0.285913 0.714088 0.500000
O O2 0.210544 0.710544 0.250000
O O3 0.340413 0.707286 0.193883
O O4 0.286098 0.604933 0.347631
O O5 0.598465 0.180872 0.197343
O O6 0.527302 0.283016 0.232023
O O7 0.575424 0.250359 0.938059
O O8 0.683422 0.967034 0.143652
O O9 0.594258 0.055777 0.094632
#
# Coordination Sequence:
#
# PCOD9551345 Si02
#       5
#    16  16   8   8  16
#     4  12  23  35  59  94 121 154 205 253 300 363
#     4  10  21  39  60  86 122 155 203 248 308 365
#     4  10  22  38  62  83 122 159 204 252 308 362
#     4  10  20  38  58  87 112 160 200 251 306 356
#     4  10  22  37  58  87 121 161 190 255 311 357
#
# _framework density 19.797706000000002
#
# number of rings (size 3 to 8) (size 9 to 14) (size 15 to 20)
#    0.000    1.500    1.250    5.250    3.500    0.000 
#    0.000    0.000    0.000   38.250    0.000    5.250 
#    0.000    0.000    0.000    0.000    0.000    0.000 
#
# Total GULP energy -178365.485019 kJ/mol
# GULP energy per Si atom -5573.921407 kJ/mol
# Density = 1.975265 g / cm^3
# Si number density = 19.797706 Si / 1000 Ang^3
#
#
#
# Elastic Constant Matrix: (Units=GPa)
#
#
# Indices 1 2 3 4 5 6 
#
# 1 59.5314 45.9794 2.1340 0.0000 0.0000 0.0000
# 2 45.9794 59.5372 2.1383 0.0000 0.0000 0.0000
# 3 2.1340 2.1383 49.3782 0.0000 0.0000 0.0000
# 4 0.0000 0.0000 0.0000 20.4007 0.0000 0.0000
# 5 0.0000 0.0000 0.0000 0.0000 20.4008 0.0000
# 6 0.0000 0.0000 0.0000 0.0000 0.0000 1.6968
#
#
#
# Elastic Compliance Matrix: (Units=1/GPa)
#
#
# Indices 1 2 3 4 5 6 
#
# 1 0.041636 -0.032140 -0.000408 0.000000 0.000000 0.000000
# 2 -0.032140 0.041632 -0.000414 0.000000 0.000000 0.000000
# 3 -0.000408 -0.000414 0.020287 0.000000 0.000000 0.000000
# 4 0.000000 0.000000 0.000000 0.049018 0.000000 0.000000
# 5 0.000000 0.000000 0.000000 0.000000 0.049018 0.000000
# 6 0.000000 0.000000 0.000000 0.000000 0.000000 0.589353
#
#
# Mechanical properties :
#
#
# Convention : Reuss Voigt Hill
#
# Bulk Modulus (GPa) = 26.57268 29.88336 28.22802
# Shear Modulus (GPa) = 5.75102 16.37933 11.06517
#
# Velocity S-wave (km/s) = 1.70622 2.87946 2.36670
# Velocity P-wave (km/s) = 4.16327 5.11685 4.66450
#
# Compressibility (1/GPa) = 0.03763264
#
# Stress axis : x y z
#
# Youngs Moduli (GPa) = 24.01759 24.01980 49.29171
#
# Poissons Ratio (x) = 0.77200 0.02009
# Poissons Ratio (y) = 0.77193 0.02040
# Poissons Ratio (z) = 0.00979 0.00994
#
# Static dielectric constant tensor:
#      x y z
#    x 1.729760 0.000000 0.000000 
#    y 0.000000 1.729750 0.000000 
#    z 0.000000 0.000000 1.543210 
# 
# From -- ./inp_files/2161.got.cif
#   From: 2010.05.17/outbox.cif.g08.bks.cpg/sg97_2_cif.got.tgz:2161.got - 2010.06.03 19:55:32.
