data_PCOD9551500
_publ_section_title
;
Structure prediction by ZEFSAII (Michael W. Deem and Ramdas Pophale) SiO2 
 PCOD9551500
Probable space group: I 4 2 2 
;
_chemical_formula_sum "Si O2"
_cell_formula_units_Z 72
_cell_length_a 18.740627
_cell_length_b 18.740627
_cell_length_c 11.501932
_cell_angle_alpha 90.000000
_cell_angle_beta 90.000000
_cell_angle_gamma 90.000000
_cell_volume 4039.606194
_symmetry_space_group_name_H-M "I 4 2 2 "
_symmetry_group_IT_number 97
_symmetry_cell_setting 'tetragonal'
loop_
_space_group_symop_operation_xyz
x,y,z
-y,x,z
-x,-y,z
y,-x,z
x,-y,-z
-x,y,-z
y,x,-z
-y,-x,-z
1/2+x,1/2+y,1/2+z
1/2-y,1/2+x,1/2+z
1/2-x,1/2-y,1/2+z
1/2+y,1/2-x,1/2+z
1/2+x,1/2-y,1/2-z
1/2-x,1/2+y,1/2-z
1/2+y,1/2+x,1/2-z
1/2-y,1/2-x,1/2-z
loop_
_atom_site_type_symbol
_atom_site_label
_atom_site_fract_x
_atom_site_fract_y
_atom_site_fract_z
Si Si1 0.335310 0.693766 0.626028
Si Si2 0.842373 0.732310 0.536816
Si Si3 0.460727 0.722015 0.792359
Si Si4 0.108207 0.285355 0.276888
Si Si5 0.619103 0.500000 0.000000
O O1 0.342059 0.657942 0.500000
O O2 0.311349 0.774921 0.589798
O O3 0.409864 0.690087 0.693325
O O4 0.272890 0.657870 0.706435
O O5 0.808312 0.808312 0.500000
O O6 0.903574 0.734638 0.631585
O O7 0.878201 0.714143 0.414822
O O8 0.527210 0.767209 0.747060
O O9 0.494902 0.666047 0.883499
O O10 0.136265 0.363736 0.250000
O O11 0.568706 0.568706 0.000000
#
# Coordination Sequence:
#
# PCOD9551500 Si02
#       5
#    16  16  16  16   8
#     4  11  23  38  63  88 126 165 201 259 319 370
#     4  11  19  38  64  88 114 156 210 258 306 348
#     4  12  22  36  61  92 121 155 204 263 309 360
#     4  12  21  37  59  89 122 158 208 256 298 373
#     4  11  22  36  56  86 120 159 202 250 300 359
#
# _framework density 17.823519000000001
#
# number of rings (size 3 to 8) (size 9 to 14) (size 15 to 20)
#    0.000    0.556    8.889    2.667    0.000    0.889 
#    0.000    0.000    0.000    2.667    0.000    7.778 
#    0.000    0.000    0.000    0.000    0.000    0.000 
#
# Total GULP energy -200556.653603 kJ/mol
# GULP energy per Si atom -5571.018156 kJ/mol
# Density = 1.778295 g / cm^3
# Si number density = 17.823519 Si / 1000 Ang^3
#
#
#
# Elastic Constant Matrix: (Units=GPa)
#
#
# Indices 1 2 3 4 5 6 
#
# 1 95.3061 33.3372 32.6268 0.0000 0.0000 0.0000
# 2 33.3372 95.3029 32.6269 0.0000 0.0000 0.0000
# 3 32.6268 32.6269 123.1962 0.0000 0.0000 0.0000
# 4 0.0000 0.0000 0.0000 27.2648 0.0000 0.0000
# 5 0.0000 0.0000 0.0000 0.0000 27.2652 0.0000
# 6 0.0000 0.0000 0.0000 0.0000 0.0000 2.8724
#
#
#
# Elastic Compliance Matrix: (Units=1/GPa)
#
#
# Indices 1 2 3 4 5 6 
#
# 1 0.012558 -0.003579 -0.002378 0.000000 0.000000 0.000000
# 2 -0.003579 0.012559 -0.002378 0.000000 0.000000 0.000000
# 3 -0.002378 -0.002378 0.009377 0.000000 0.000000 0.000000
# 4 0.000000 0.000000 0.000000 0.036677 0.000000 0.000000
# 5 0.000000 0.000000 0.000000 0.000000 0.036677 0.000000
# 6 0.000000 0.000000 0.000000 0.000000 0.000000 0.348145
#
#
# Mechanical properties :
#
#
# Convention : Reuss Voigt Hill
#
# Bulk Modulus (GPa) = 56.10489 56.77632 56.44061
# Shear Modulus (GPa) = 10.44703 25.82810 18.13756
#
# Velocity S-wave (km/s) = 2.42365 3.81084 3.19348
# Velocity P-wave (km/s) = 6.27523 7.16151 6.73297
#
# Compressibility (1/GPa) = 0.01782376
#
# Stress axis : x y z
#
# Youngs Moduli (GPa) = 79.62750 79.62458 106.64622
#
# Poissons Ratio (x) = 0.28496 0.25362
# Poissons Ratio (y) = 0.28497 0.25363
# Poissons Ratio (z) = 0.18936 0.18937
#
# Static dielectric constant tensor:
#      x y z
#    x 1.644110 0.000000 0.000000 
#    y 0.000000 1.644120 0.000000 
#    z 0.000000 0.000000 1.772950 
# 
# From -- ./inp_files/3577.got.cif
#   From: 2010.05.17/outbox.cif.g08.bks.cpg/sg97_2_cif.got.tgz:3577.got - 2010.06.03 19:55:32.
