data_PCOD9551308
_publ_section_title
;
Structure prediction by ZEFSAII (Michael W. Deem and Ramdas Pophale) SiO2 
 PCOD9551308
Probable space group: I 4 2 2 
;
_chemical_formula_sum "Si O2"
_cell_formula_units_Z 128
_cell_length_a 23.196723
_cell_length_b 23.196723
_cell_length_c 12.735285
_cell_angle_alpha 90.000000
_cell_angle_beta 90.000000
_cell_angle_gamma 90.000000
_cell_volume 6852.703499
_symmetry_space_group_name_H-M "I 4 2 2 "
_symmetry_group_IT_number 97
_symmetry_cell_setting 'tetragonal'
loop_
_space_group_symop_operation_xyz
x,y,z
-y,x,z
-x,-y,z
y,-x,z
x,-y,-z
-x,y,-z
y,x,-z
-y,-x,-z
1/2+x,1/2+y,1/2+z
1/2-y,1/2+x,1/2+z
1/2-x,1/2-y,1/2+z
1/2+y,1/2-x,1/2+z
1/2+x,1/2-y,1/2-z
1/2-x,1/2+y,1/2-z
1/2+y,1/2+x,1/2-z
1/2-y,1/2-x,1/2-z
loop_
_atom_site_type_symbol
_atom_site_label
_atom_site_fract_x
_atom_site_fract_y
_atom_site_fract_z
Si Si1 0.657482 0.544282 0.074965
Si Si2 0.263539 0.357325 0.998936
Si Si3 0.441280 0.573473 0.236831
Si Si4 0.758290 0.999533 0.253098
Si Si5 0.652208 0.549176 0.414806
Si Si6 0.377614 0.792367 0.224357
Si Si7 0.771341 0.632430 0.759475
Si Si8 0.700084 0.322983 0.613216
O O1 0.692119 0.590210 0.009620
O O2 0.619763 0.581946 0.155883
O O3 0.703341 0.506901 0.141633
O O4 0.624098 0.500000 0.000000
O O5 0.224949 0.362900 0.104104
O O6 0.298887 0.298887 0.000000
O O7 0.238188 0.362379 0.883891
O O8 0.422364 0.509584 0.217829
O O9 0.433788 0.593443 0.354966
O O10 0.804157 0.015593 0.162917
O O11 0.715921 0.054395 0.257567
O O12 0.731005 0.936629 0.237455
O O13 0.641085 0.500000 0.500000
O O14 0.679373 0.612938 0.427781
O O15 0.355670 0.855670 0.250000
O O16 0.341935 0.750879 0.305535
O O17 0.830035 0.669966 0.750000
O O18 0.719826 0.660349 0.686076
O O19 0.708616 0.291385 0.500000
#
# Coordination Sequence:
#
# PCOD9551308 Si02
#       8
#    16  16  16  16  16  16  16  16
#     4  10  20  34  58  76 107 149 188 245 294 356
#     4  11  23  36  59  91 118 151 197 239 309 366
#     4  10  24  36  48  75 111 151 209 262 296 334
#     4   9  21  41  57  86 115 150 201 234 303 366
#     4  10  22  38  58  79 109 164 208 252 294 356
#     4  10  22  40  63  89 123 160 198 248 301 370
#     4  12  25  39  63  92 126 157 193 257 315 371
#     4  11  24  37  61  90 121 158 202 252 306 362
#
# _framework density 18.678758999999999
#
# number of rings (size 3 to 8) (size 9 to 14) (size 15 to 20)
#    0.000    1.625    2.500    1.875    8.750    0.000 
#    0.000    1.250    0.000    0.375    0.000    0.000 
#    0.000    2.250    0.000    0.000    0.000    0.000 
#
# Total GULP energy -356459.019874 kJ/mol
# GULP energy per Si atom -5569.672186 kJ/mol
# Density = 1.863624 g / cm^3
# Si number density = 18.678759 Si / 1000 Ang^3
#
#
#
# Elastic Constant Matrix: (Units=GPa)
#
#
# Indices 1 2 3 4 5 6 
#
# 1 59.9734 46.0984 19.7509 0.0000 0.0000 0.0000
# 2 46.0984 59.9740 19.7513 0.0000 0.0000 0.0000
# 3 19.7509 19.7513 106.5840 0.0000 0.0000 0.0000
# 4 0.0000 0.0000 0.0000 17.6580 0.0000 0.0000
# 5 0.0000 0.0000 0.0000 0.0000 17.6574 0.0000
# 6 0.0000 0.0000 0.0000 0.0000 0.0000 8.5283
#
#
#
# Elastic Compliance Matrix: (Units=1/GPa)
#
#
# Indices 1 2 3 4 5 6 
#
# 1 0.041099 -0.030972 -0.001876 0.000000 0.000000 0.000000
# 2 -0.030972 0.041098 -0.001877 0.000000 0.000000 0.000000
# 3 -0.001876 -0.001877 0.010078 0.000000 0.000000 0.000000
# 4 0.000000 0.000000 0.000000 0.056632 0.000000 0.000000
# 5 0.000000 0.000000 0.000000 0.000000 0.056634 0.000000
# 6 0.000000 0.000000 0.000000 0.000000 0.000000 0.117257
#
#
# Mechanical properties :
#
#
# Convention : Reuss Voigt Hill
#
# Bulk Modulus (GPa) = 43.81270 44.19250 44.00260
# Shear Modulus (GPa) = 12.50455 18.16413 15.33434
#
# Velocity S-wave (km/s) = 2.59019 3.12179 2.86833
# Velocity P-wave (km/s) = 5.69669 6.05844 5.88035
#
# Compressibility (1/GPa) = 0.02282443
#
# Stress axis : x y z
#
# Youngs Moduli (GPa) = 24.33178 24.33198 99.22856
#
# Poissons Ratio (x) = 0.75361 0.18620
# Poissons Ratio (y) = 0.75360 0.18621
# Poissons Ratio (z) = 0.04566 0.04566
#
# Static dielectric constant tensor:
#      x y z
#    x 1.667410 0.000000 0.000000 
#    y 0.000000 1.667410 0.000000 
#    z 0.000000 0.000000 1.570480 
# 
# From -- ./inp_files/4060.got.cif
#   From: 2010.05.17/outbox.cif.g08.bks.cpg/sg97_3_cif.got.tgz:4060.got - 2010.06.03 19:55:32.
