data_PCOD9551145
_publ_section_title
;
Structure prediction by ZEFSAII (Michael W. Deem and Ramdas Pophale) SiO2 
 PCOD9551145
Probable space group: P 43 21 2
;
_chemical_formula_sum "Si O2"
_cell_formula_units_Z 48
_cell_length_a 8.044461
_cell_length_b 8.044461
_cell_length_c 28.652003
_cell_angle_alpha 90.000000
_cell_angle_beta 90.000000
_cell_angle_gamma 90.000000
_cell_volume 1854.167178
_symmetry_space_group_name_H-M "P 43 21 2"
_symmetry_group_IT_number 96
_symmetry_cell_setting 'tetragonal'
loop_
_space_group_symop_operation_xyz
x,y,z
1/2-y,1/2+x,3/4+z
-x,-y,1/2+z
1/2+y,1/2-x,1/4+z
1/2+x,1/2-y,1/4-z
1/2-x,1/2+y,3/4-z
y,x,-z
-y,-x,1/2-z
loop_
_atom_site_type_symbol
_atom_site_label
_atom_site_fract_x
_atom_site_fract_y
_atom_site_fract_z
Si Si1 0.627223 0.039607 0.791712
Si Si2 0.798944 0.928835 0.698089
Si Si3 0.735720 0.106731 0.291931
Si Si4 0.985703 0.612198 0.105662
Si Si5 0.416374 0.561912 0.300966
Si Si6 0.718906 0.639499 0.633096
O O1 0.439198 0.980044 0.782565
O O2 0.626212 0.240246 0.794826
O O3 0.734345 0.974324 0.749103
O O4 0.683434 0.969967 0.842005
O O5 0.995988 0.903877 0.701579
O O6 0.759100 0.744906 0.679120
O O7 0.689504 0.042942 0.663662
O O8 0.729064 0.186180 0.342749
O O9 0.770250 0.229751 0.250000
O O10 0.033139 0.751077 0.067355
O O11 0.130325 0.474535 0.113614
O O12 0.485800 0.514201 0.250000
O O13 0.533009 0.565383 0.346724
#
# Coordination Sequence:
#
# PCOD9551145 Si02
#       6
#     8   8   8   8   8   8
#     4  11  25  49  72 107 145 194 244 306 370 439
#     4  12  23  47  76 107 145 191 249 305 373 448
#     4  12  27  44  75 107 146 191 246 302 374 446
#     4  11  24  46  77 104 154 187 246 304 373 441
#     4  11  24  46  75 106 149 194 248 309 365 448
#     4  11  25  50  73 109 148 195 241 311 375 449
#
# _framework density 25.887633000000001
#
# number of rings (size 3 to 8) (size 9 to 14) (size 15 to 20)
#    0.000    0.667    6.667    1.000    4.667    1.333 
#    6.000    0.000    0.000    0.000    0.000    0.000 
#    0.000    0.000    0.000    0.000    0.000    0.000 
#
# Total GULP energy -268285.265295 kJ/mol
# GULP energy per Si atom -5589.276360 kJ/mol
# Density = 2.582871 g / cm^3
# Si number density = 25.887633 Si / 1000 Ang^3
#
#
#
# Elastic Constant Matrix: (Units=GPa)
#
#
# Indices 1 2 3 4 5 6 
#
# 1 63.1055 19.7679 17.0904 0.0000 0.0000 0.0000
# 2 19.7679 63.1056 17.0904 0.0000 0.0000 0.0000
# 3 17.0904 17.0904 154.9510 0.0000 0.0000 0.0000
# 4 0.0000 0.0000 0.0000 26.1250 0.0000 0.0000
# 5 0.0000 0.0000 0.0000 0.0000 26.1249 0.0000
# 6 0.0000 0.0000 0.0000 0.0000 0.0000 36.8050
#
#
#
# Elastic Compliance Matrix: (Units=1/GPa)
#
#
# Indices 1 2 3 4 5 6 
#
# 1 0.017858 -0.005216 -0.001394 0.000000 0.000000 0.000000
# 2 -0.005216 0.017858 -0.001394 0.000000 0.000000 0.000000
# 3 -0.001394 -0.001394 0.006761 0.000000 0.000000 0.000000
# 4 0.000000 0.000000 0.000000 0.038277 0.000000 0.000000
# 5 0.000000 0.000000 0.000000 0.000000 0.038278 0.000000
# 6 0.000000 0.000000 0.000000 0.000000 0.000000 0.027170
#
#
# Mechanical properties :
#
#
# Convention : Reuss Voigt Hill
#
# Bulk Modulus (GPa) = 37.78249 43.22883 40.50566
# Shear Modulus (GPa) = 29.23368 32.95854 31.09611
#
# Velocity S-wave (km/s) = 3.36408 3.57198 3.46959
# Velocity P-wave (km/s) = 5.45123 5.80921 5.63306
#
# Compressibility (1/GPa) = 0.02646729
#
# Stress axis : x y z
#
# Youngs Moduli (GPa) = 55.99681 55.99687 147.90212
#
# Poissons Ratio (x) = 0.29211 0.20622
# Poissons Ratio (y) = 0.29211 0.20622
# Poissons Ratio (z) = 0.07808 0.07808
#
# Static dielectric constant tensor:
#      x y z
#    x 2.080900 0.000000 0.000000 
#    y 0.000000 2.080900 0.000000 
#    z 0.000000 0.000000 2.011760 
# 
# From -- ./inp_files/4486.got.cif
#   From: 2010.05.17/outbox.cif.g08.bks.cpg/sg96_3_cif.got.tgz:4486.got - 2010.06.03 19:52:08.
