data_PCOD9551716
_publ_section_title
;
Structure prediction by ZEFSAII (Michael W. Deem and Ramdas Pophale) SiO2 
 PCOD9551716
Probable space group: I 41 2 2
;
_chemical_formula_sum "Si O2"
_cell_formula_units_Z 48
_cell_length_a 13.899897
_cell_length_b 13.899897
_cell_length_c 13.068945
_cell_angle_alpha 90.000000
_cell_angle_beta 90.000000
_cell_angle_gamma 90.000000
_cell_volume 2525.013442
_symmetry_space_group_name_H-M "I 41 2 2"
_symmetry_group_IT_number 98
_symmetry_cell_setting 'tetragonal'
loop_
_space_group_symop_operation_xyz
x,y,z
-y,1/2+x,1/4+z
-x,-y,z
y,1/2-x,1/4+z
x,1/2-y,1/4-z
-x,1/2+y,1/4-z
y,x,-z
-y,-x,-z
1/2+x,1/2+y,1/2+z
1/2-y,x,3/4+z
1/2-x,1/2-y,1/2+z
1/2+y,-x,3/4+z
1/2+x,-y,3/4-z
1/2-x,y,3/4-z
1/2+y,1/2+x,1/2-z
1/2-y,1/2-x,1/2-z
loop_
_atom_site_type_symbol
_atom_site_label
_atom_site_fract_x
_atom_site_fract_y
_atom_site_fract_z
Si Si1 0.863125 0.059375 0.392687
Si Si2 0.327304 0.360644 0.613982
Si Si3 0.950731 0.867187 0.317183
O O1 0.895377 0.104624 0.500000
O O2 0.750000 0.069356 0.375000
O O3 0.936080 0.110736 0.313151
O O4 0.896373 0.948661 0.383112
O O5 0.291544 0.250000 0.625000
O O6 0.370205 0.370205 0.500000
O O7 0.235863 0.429930 0.617490
O O8 0.402312 0.372549 0.705413
#
# Coordination Sequence:
#
# PCOD9551716 Si02
#       3
#    16  16  16
#     4  11  23  38  55  80 111 148 191 234 283 343
#     4   9  18  33  58  90 118 143 181 236 290 331
#     4  10  19  34  58  86 113 146 185 236 286 336
#
# _framework density 19.009799999999998
#
# number of rings (size 3 to 8) (size 9 to 14) (size 15 to 20)
#    0.000    2.000    0.000    5.000    0.000    5.333 
#    0.000    8.333    0.000    0.000    0.000    0.000 
#    0.000    0.000    0.000    0.000    0.000    0.000 
#
# Total GULP energy -133927.043970 kJ/mol
# GULP energy per Si atom -5580.293499 kJ/mol
# Density = 1.896653 g / cm^3
# Si number density = 19.009800 Si / 1000 Ang^3
#
#
#
# Elastic Constant Matrix: (Units=GPa)
#
#
# Indices 1 2 3 4 5 6 
#
# 1 121.3256 49.5049 26.8894 0.0000 0.0000 0.0000
# 2 49.5049 121.3255 26.8893 0.0000 0.0000 0.0000
# 3 26.8894 26.8893 85.0550 0.0000 0.0000 0.0000
# 4 0.0000 0.0000 0.0000 18.2593 0.0000 0.0000
# 5 0.0000 0.0000 0.0000 0.0000 18.2592 0.0000
# 6 0.0000 0.0000 0.0000 0.0000 0.0000 23.8711
#
#
#
# Elastic Compliance Matrix: (Units=1/GPa)
#
#
# Indices 1 2 3 4 5 6 
#
# 1 0.010212 -0.003711 -0.002055 0.000000 0.000000 0.000000
# 2 -0.003711 0.010212 -0.002055 0.000000 0.000000 0.000000
# 3 -0.002055 -0.002055 0.013057 0.000000 0.000000 0.000000
# 4 0.000000 0.000000 0.000000 0.054767 0.000000 0.000000
# 5 0.000000 0.000000 0.000000 0.000000 0.054767 0.000000
# 6 0.000000 0.000000 0.000000 0.000000 0.000000 0.041892
#
#
# Mechanical properties :
#
#
# Convention : Reuss Voigt Hill
#
# Bulk Modulus (GPa) = 56.06196 59.36371 57.71284
# Shear Modulus (GPa) = 24.21361 27.03940 25.62651
#
# Velocity S-wave (km/s) = 3.57283 3.77555 3.67559
# Velocity P-wave (km/s) = 6.82460 7.09240 6.95979
#
# Compressibility (1/GPa) = 0.01783741
#
# Stress axis : x y z
#
# Youngs Moduli (GPa) = 97.92256 97.92246 76.59005
#
# Poissons Ratio (x) = 0.36343 0.15740
# Poissons Ratio (y) = 0.36343 0.15740
# Poissons Ratio (z) = 0.20125 0.20124
#
# Static dielectric constant tensor:
#      x y z
#    x 1.663690 0.000000 0.000000 
#    y 0.000000 1.663690 0.000000 
#    z 0.000000 0.000000 1.708260 
# 
# From -- ./inp_files/4448.got.cif
#   From: 2010.05.17/outbox.cif.g08.bks.cpg/sg98_3_cif.got.tgz:4448.got - 2010.06.03 20:00:51.
