data_PCOD9551281
_publ_section_title
;
Structure prediction by ZEFSAII (Michael W. Deem and Ramdas Pophale) SiO2 
 PCOD9551281
Probable space group: I 4 2 2 
;
_chemical_formula_sum "Si O2"
_cell_formula_units_Z 80
_cell_length_a 27.763566
_cell_length_b 27.763566
_cell_length_c 6.034317
_cell_angle_alpha 90.000000
_cell_angle_beta 90.000000
_cell_angle_gamma 90.000000
_cell_volume 4651.345661
_symmetry_space_group_name_H-M "I 4 2 2 "
_symmetry_group_IT_number 97
_symmetry_cell_setting 'tetragonal'
loop_
_space_group_symop_operation_xyz
x,y,z
-y,x,z
-x,-y,z
y,-x,z
x,-y,-z
-x,y,-z
y,x,-z
-y,-x,-z
1/2+x,1/2+y,1/2+z
1/2-y,1/2+x,1/2+z
1/2-x,1/2-y,1/2+z
1/2+y,1/2-x,1/2+z
1/2+x,1/2-y,1/2-z
1/2-x,1/2+y,1/2-z
1/2+y,1/2+x,1/2-z
1/2-y,1/2-x,1/2-z
loop_
_atom_site_type_symbol
_atom_site_label
_atom_site_fract_x
_atom_site_fract_y
_atom_site_fract_z
Si Si1 0.553169 0.248789 0.496793
Si Si2 0.613633 0.705258 0.879581
Si Si3 0.162914 0.961848 0.677579
Si Si4 0.724134 0.146523 0.758113
Si Si5 0.500000 0.581619 0.500000
Si Si6 0.687333 0.687333 0.500000
O O1 0.500000 0.226589 0.500000
O O2 0.574593 0.263953 0.260518
O O3 0.547559 0.299316 0.627866
O O4 0.594047 0.220265 0.630066
O O5 0.649171 0.681551 0.699515
O O6 0.586925 0.665678 0.032358
O O7 0.640265 0.744657 0.033595
O O8 0.181455 0.000000 0.500000
O O9 0.116315 0.986460 0.791791
O O10 0.674124 0.174124 0.750000
O O11 0.759413 0.178203 0.912194
O O12 0.453885 0.546116 0.500000
#
# Coordination Sequence:
#
# PCOD9551281 Si02
#       6
#    16  16  16  16   8   8
#     4  10  19  38  58  83 113 140 192 241 292 343
#     4  10  21  38  56  80 115 144 185 242 294 350
#     4  11  20  41  60  81 102 134 185 247 306 362
#     4  10  23  36  56  82 119 163 194 235 289 360
#     4  11  26  46  56  74 102 138 186 250 326 395
#     4  10  22  36  52  82 116 149 194 236 292 369
#
# _framework density 17.199324000000001
#
# number of rings (size 3 to 8) (size 9 to 14) (size 15 to 20)
#    0.000    1.700    3.000    0.600    2.800    3.200 
#   43.200    1.000    0.000    0.000    0.000    0.000 
#    0.000    0.000    0.000   12.600    0.000    0.000 
#
# Total GULP energy -222886.402296 kJ/mol
# GULP energy per Si atom -5572.160057 kJ/mol
# Density = 1.716018 g / cm^3
# Si number density = 17.199324 Si / 1000 Ang^3
#
#
#
# Elastic Constant Matrix: (Units=GPa)
#
#
# Indices 1 2 3 4 5 6 
#
# 1 92.5995 57.1555 37.3509 0.0000 0.0000 0.0000
# 2 57.1555 92.5982 37.3508 0.0000 0.0000 0.0000
# 3 37.3509 37.3508 88.5238 0.0000 0.0000 0.0000
# 4 0.0000 0.0000 0.0000 14.4046 0.0000 0.0000
# 5 0.0000 0.0000 0.0000 0.0000 14.4047 0.0000
# 6 0.0000 0.0000 0.0000 0.0000 0.0000 27.4207
#
#
#
# Elastic Compliance Matrix: (Units=1/GPa)
#
#
# Indices 1 2 3 4 5 6 
#
# 1 0.018336 -0.009878 -0.003569 0.000000 0.000000 0.000000
# 2 -0.009878 0.018336 -0.003569 0.000000 0.000000 0.000000
# 3 -0.003569 -0.003569 0.014308 0.000000 0.000000 0.000000
# 4 0.000000 0.000000 0.000000 0.069422 0.000000 0.000000
# 5 0.000000 0.000000 0.000000 0.000000 0.069422 0.000000
# 6 0.000000 0.000000 0.000000 0.000000 0.000000 0.036469
#
#
# Mechanical properties :
#
#
# Convention : Reuss Voigt Hill
#
# Bulk Modulus (GPa) = 59.00078 59.71510 59.35794
# Shear Modulus (GPa) = 18.79892 20.70362 19.75127
#
# Velocity S-wave (km/s) = 3.30965 3.47327 3.39244
# Velocity P-wave (km/s) = 6.99883 7.13299 7.06623
#
# Compressibility (1/GPa) = 0.01694893
#
# Stress axis : x y z
#
# Youngs Moduli (GPa) = 54.53835 54.53751 69.89219
#
# Poissons Ratio (x) = 0.53873 0.24941
# Poissons Ratio (y) = 0.53874 0.24942
# Poissons Ratio (z) = 0.19462 0.19462
#
# Static dielectric constant tensor:
#      x y z
#    x 1.604810 0.000000 0.000000 
#    y 0.000000 1.604820 0.000000 
#    z 0.000000 0.000000 1.647880 
# 
# From -- ./inp_files/994.got.cif
#   From: 2010.05.17/outbox.cif.g08.bks.cpg/sg97_1_cif.got.tgz:994.got - 2010.06.03 19:55:32.
