data_PCOD9551474
_publ_section_title
;
Structure prediction by ZEFSAII (Michael W. Deem and Ramdas Pophale) SiO2 
 PCOD9551474
Probable space group: I 4 2 2 
;
_chemical_formula_sum "Si O2"
_cell_formula_units_Z 112
_cell_length_a 15.121073
_cell_length_b 15.121073
_cell_length_c 24.951569
_cell_angle_alpha 90.000000
_cell_angle_beta 90.000000
_cell_angle_gamma 90.000000
_cell_volume 5705.097621
_symmetry_space_group_name_H-M "I 4 2 2 "
_symmetry_group_IT_number 97
_symmetry_cell_setting 'tetragonal'
loop_
_space_group_symop_operation_xyz
x,y,z
-y,x,z
-x,-y,z
y,-x,z
x,-y,-z
-x,y,-z
y,x,-z
-y,-x,-z
1/2+x,1/2+y,1/2+z
1/2-y,1/2+x,1/2+z
1/2-x,1/2-y,1/2+z
1/2+y,1/2-x,1/2+z
1/2+x,1/2-y,1/2-z
1/2-x,1/2+y,1/2-z
1/2+y,1/2+x,1/2-z
1/2-y,1/2-x,1/2-z
loop_
_atom_site_type_symbol
_atom_site_label
_atom_site_fract_x
_atom_site_fract_y
_atom_site_fract_z
Si Si1 0.396262 0.105163 0.005939
Si Si2 0.045536 0.768464 0.768251
Si Si3 0.598217 0.024717 0.805627
Si Si4 0.762791 0.160132 0.054223
Si Si5 0.216291 0.849595 0.718902
Si Si6 0.673535 0.175119 0.618698
Si Si7 0.359621 0.462430 0.381947
O O1 0.370207 0.147191 0.062993
O O2 0.500000 0.114893 0.000000
O O3 0.339544 0.158307 0.961768
O O4 0.375954 0.000000 0.000000
O O5 0.122055 0.803042 0.729192
O O6 0.049640 0.826554 0.821868
O O7 0.051895 0.666371 0.788171
O O8 0.947991 0.781038 0.743381
O O9 0.573696 0.073696 0.750000
O O10 0.655370 0.087231 0.844628
O O11 0.500000 0.000000 0.827980
O O12 0.794211 0.227655 0.100316
O O13 0.785859 0.063415 0.075747
O O14 0.815031 0.184970 0.000000
O O15 0.286042 0.786042 0.750000
O O16 0.247814 0.857331 0.657480
O O17 0.440754 0.396328 0.390857
#
# Coordination Sequence:
#
# PCOD9551474 Si02
#       7
#    16  16  16  16  16  16  16
#     4  10  25  43  69  99 128 167 225 292 349 417
#     4  12  23  42  64  93 142 179 232 278 339 411
#     4  11  24  41  65  99 139 182 223 282 335 409
#     4  10  24  41  64  91 130 175 220 279 342 401
#     4  12  25  41  65  98 135 183 229 286 335 417
#     4  11  22  45  63  93 138 171 224 274 344 409
#     4  11  23  37  61  92 128 181 224 269 329 399
#
# _framework density 19.631565999999999
#
# number of rings (size 3 to 8) (size 9 to 14) (size 15 to 20)
#    0.000    1.000    4.286    1.714   10.000    1.429 
#    0.000    0.714    0.000    0.000    0.000    0.000 
#    0.000   14.000    0.000    0.000    0.000    0.000 
#
# Total GULP energy -312528.666916 kJ/mol
# GULP energy per Si atom -5580.869052 kJ/mol
# Density = 1.958688 g / cm^3
# Si number density = 19.631566 Si / 1000 Ang^3
#
#
#
# Elastic Constant Matrix: (Units=GPa)
#
#
# Indices 1 2 3 4 5 6 
#
# 1 106.8577 69.1998 44.9128 0.0000 0.0000 0.0000
# 2 69.1998 106.8579 44.9128 0.0000 0.0000 0.0000
# 3 44.9128 44.9128 71.1772 0.0000 0.0000 0.0000
# 4 0.0000 0.0000 0.0000 20.5039 0.0000 0.0000
# 5 0.0000 0.0000 0.0000 0.0000 20.5045 0.0000
# 6 0.0000 0.0000 0.0000 0.0000 0.0000 21.0966
#
#
#
# Elastic Compliance Matrix: (Units=1/GPa)
#
#
# Indices 1 2 3 4 5 6 
#
# 1 0.017466 -0.009089 -0.005286 0.000000 0.000000 0.000000
# 2 -0.009089 0.017466 -0.005286 0.000000 0.000000 0.000000
# 3 -0.005286 -0.005286 0.020720 0.000000 0.000000 0.000000
# 4 0.000000 0.000000 0.000000 0.048771 0.000000 0.000000
# 5 0.000000 0.000000 0.000000 0.000000 0.048770 0.000000
# 6 0.000000 0.000000 0.000000 0.000000 0.000000 0.047401
#
#
# Mechanical properties :
#
#
# Convention : Reuss Voigt Hill
#
# Bulk Modulus (GPa) = 61.23464 66.99375 64.11419
# Shear Modulus (GPa) = 20.37835 20.81214 20.59525
#
# Velocity S-wave (km/s) = 3.22536 3.25951 3.24248
# Velocity P-wave (km/s) = 6.71790 6.95453 6.83724
#
# Compressibility (1/GPa) = 0.01633063
#
# Stress axis : x y z
#
# Youngs Moduli (GPa) = 57.25469 57.25486 48.26239
#
# Poissons Ratio (x) = 0.52039 0.25510
# Poissons Ratio (y) = 0.52039 0.25510
# Poissons Ratio (z) = 0.30264 0.30263
#
# Static dielectric constant tensor:
#      x y z
#    x 1.727860 0.000000 0.000000 
#    y 0.000000 1.727860 0.000000 
#    z 0.000000 0.000000 1.693520 
# 
# From -- ./inp_files/7286.got.cif
#   From: 2010.05.17/outbox.cif.g08.bks.cpg/sg97_4_cif.got.tgz:7286.got - 2010.06.03 19:55:32.
