data_PCOD9551636
_publ_section_title
;
Structure prediction by ZEFSAII (Michael W. Deem and Ramdas Pophale) SiO2 
 PCOD9551636
Probable space group: I 41 2 2
;
_chemical_formula_sum "Si O2"
_cell_formula_units_Z 96
_cell_length_a 24.505002
_cell_length_b 24.505002
_cell_length_c 10.134286
_cell_angle_alpha 90.000000
_cell_angle_beta 90.000000
_cell_angle_gamma 90.000000
_cell_volume 6085.589318
_symmetry_space_group_name_H-M "I 41 2 2"
_symmetry_group_IT_number 98
_symmetry_cell_setting 'tetragonal'
loop_
_space_group_symop_operation_xyz
x,y,z
-y,1/2+x,1/4+z
-x,-y,z
y,1/2-x,1/4+z
x,1/2-y,1/4-z
-x,1/2+y,1/4-z
y,x,-z
-y,-x,-z
1/2+x,1/2+y,1/2+z
1/2-y,x,3/4+z
1/2-x,1/2-y,1/2+z
1/2+y,-x,3/4+z
1/2+x,-y,3/4-z
1/2-x,y,3/4-z
1/2+y,1/2+x,1/2-z
1/2-y,1/2-x,1/2-z
loop_
_atom_site_type_symbol
_atom_site_label
_atom_site_fract_x
_atom_site_fract_y
_atom_site_fract_z
Si Si1 0.536630 0.686080 0.658488
Si Si2 0.162162 0.272360 0.839061
Si Si3 0.148532 0.345245 0.416938
Si Si4 0.959978 0.792699 0.463598
Si Si5 0.475540 0.332432 0.246349
Si Si6 0.408050 0.998732 0.727636
O O1 0.527971 0.750000 0.625000
O O2 0.597386 0.668344 0.610475
O O3 0.533664 0.681972 0.817819
O O4 0.500269 0.642045 0.582028
O O5 0.213831 0.286170 0.750000
O O6 0.158503 0.212897 0.899098
O O7 0.104904 0.282614 0.763186
O O8 0.161754 0.315853 0.952989
O O9 0.086247 0.346800 0.461903
O O10 0.980637 0.828688 0.587129
O O11 0.984927 0.731220 0.462431
O O12 0.505887 0.377783 0.334734
O O13 0.447105 0.052896 0.750000
O O14 0.448246 0.948246 0.750000
#
# Coordination Sequence:
#
# PCOD9551636 Si02
#       6
#    16  16  16  16  16  16
#     4  11  21  35  51  75  99 133 181 230 270 321
#     4  10  17  28  39  61  94 131 171 223 270 303
#     4  10  20  28  44  60  95 132 181 221 265 309
#     4   9  19  30  54  74  94 135 172 222 267 310
#     4  10  17  35  52  72 101 133 178 215 265 321
#     4  11  23  38  55  75 106 146 181 224 276 326
#
# _framework density 15.774972
#
# number of rings (size 3 to 8) (size 9 to 14) (size 15 to 20)
#    0.000    1.833    5.000    0.500    0.000    1.333 
#    0.000    0.833    0.000    2.000    0.000    0.000 
#    0.000    0.000    5.667    0.000    0.000    0.000 
#
# Total GULP energy -267358.995425 kJ/mol
# GULP energy per Si atom -5569.979071 kJ/mol
# Density = 1.573907 g / cm^3
# Si number density = 15.774972 Si / 1000 Ang^3
#
#
#
# Elastic Constant Matrix: (Units=GPa)
#
#
# Indices 1 2 3 4 5 6 
#
# 1 68.6658 44.0428 38.8564 0.0000 0.0000 0.0000
# 2 44.0428 68.6662 38.8560 0.0000 0.0000 0.0000
# 3 38.8564 38.8560 109.6846 0.0000 0.0000 0.0000
# 4 0.0000 0.0000 0.0000 20.4477 0.0000 0.0000
# 5 0.0000 0.0000 0.0000 0.0000 20.4474 0.0000
# 6 0.0000 0.0000 0.0000 0.0000 0.0000 14.3106
#
#
#
# Elastic Compliance Matrix: (Units=1/GPa)
#
#
# Indices 1 2 3 4 5 6 
#
# 1 0.026176 -0.014436 -0.004159 0.000000 0.000000 0.000000
# 2 -0.014436 0.026176 -0.004159 0.000000 0.000000 0.000000
# 3 -0.004159 -0.004159 0.012064 0.000000 0.000000 0.000000
# 4 0.000000 0.000000 0.000000 0.048905 0.000000 0.000000
# 5 0.000000 0.000000 0.000000 0.000000 0.048906 0.000000
# 6 0.000000 0.000000 0.000000 0.000000 0.000000 0.069878
#
#
# Mechanical properties :
#
#
# Convention : Reuss Voigt Hill
#
# Bulk Modulus (GPa) = 52.88786 54.50300 53.69543
# Shear Modulus (GPa) = 17.61084 19.39190 18.50137
#
# Velocity S-wave (km/s) = 3.34485 3.50992 3.42838
# Velocity P-wave (km/s) = 6.96538 7.14502 7.05577
#
# Compressibility (1/GPa) = 0.01890793
#
# Stress axis : x y z
#
# Youngs Moduli (GPa) = 38.20252 38.20299 82.89338
#
# Poissons Ratio (x) = 0.55150 0.34476
# Poissons Ratio (y) = 0.55150 0.34474
# Poissons Ratio (z) = 0.15889 0.15888
#
# Static dielectric constant tensor:
#      x y z
#    x 1.532770 0.000000 0.000000 
#    y 0.000000 1.532770 0.000000 
#    z 0.000000 0.000000 1.600690 
# 
# From -- ./inp_files/5425.got.cif
#   From: 2010.05.17/outbox.cif.g08.bks.cpg/sg98_3_cif.got.tgz:5425.got - 2010.06.03 20:00:51.
