data_PCOD9551998
_publ_section_title
;
Structure prediction by ZEFSAII (Michael W. Deem and Ramdas Pophale) SiO2 
 PCOD9551998
Probable space group: I 41 2 2
;
_chemical_formula_sum "Si O2"
_cell_formula_units_Z 88
_cell_length_a 11.143556
_cell_length_b 11.143556
_cell_length_c 31.750372
_cell_angle_alpha 90.000000
_cell_angle_beta 90.000000
_cell_angle_gamma 90.000000
_cell_volume 3942.724375
_symmetry_space_group_name_H-M "I 41 2 2"
_symmetry_group_IT_number 98
_symmetry_cell_setting 'tetragonal'
loop_
_space_group_symop_operation_xyz
x,y,z
-y,1/2+x,1/4+z
-x,-y,z
y,1/2-x,1/4+z
x,1/2-y,1/4-z
-x,1/2+y,1/4-z
y,x,-z
-y,-x,-z
1/2+x,1/2+y,1/2+z
1/2-y,x,3/4+z
1/2-x,1/2-y,1/2+z
1/2+y,-x,3/4+z
1/2+x,-y,3/4-z
1/2-x,y,3/4-z
1/2+y,1/2+x,1/2-z
1/2-y,1/2-x,1/2-z
loop_
_atom_site_type_symbol
_atom_site_label
_atom_site_fract_x
_atom_site_fract_y
_atom_site_fract_z
Si Si1 0.787593 0.653982 0.826535
Si Si2 0.000000 0.000000 0.893620
Si Si3 0.184403 0.099291 0.958785
Si Si4 0.886107 0.286865 0.707387
Si Si5 0.781707 0.458912 0.080393
Si Si6 0.387440 0.938304 0.999047
O O1 0.750000 0.639593 0.875000
O O2 0.714507 0.764024 0.805096
O O3 0.776979 0.526534 0.803210
O O4 0.923416 0.700862 0.827464
O O5 0.029126 0.881980 0.866174
O O6 0.884490 0.967179 0.921603
O O7 0.300985 0.028988 0.975047
O O8 0.102984 0.102984 0.000000
O O9 0.865752 0.365752 0.750000
O O10 0.810298 0.348013 0.670299
O O11 0.830916 0.156487 0.718782
O O12 0.857357 0.444292 0.037665
O O13 0.500000 0.000000 0.021318
#
# Coordination Sequence:
#
# PCOD9551998 Si02
#       6
#    16   8  16  16  16  16
#     4  12  24  48  76 116 152 199 254 314 394 467
#     4  12  25  48  74 108 152 204 260 322 384 472
#     4  12  27  46  76 106 147 197 255 316 382 458
#     4  10  26  46  76 115 154 200 253 317 392 471
#     4  11  23  44  73 109 147 200 251 313 390 454
#     4  11  22  46  74 106 144 195 255 306 373 458
#
# _framework density 22.319590000000002
#
# number of rings (size 3 to 8) (size 9 to 14) (size 15 to 20)
#    0.000    0.727    4.545    1.909    2.545    6.545 
#    9.818    0.000    0.000    0.000    0.000    0.000 
#    0.000    0.000    0.000    0.000    0.000    0.000 
#
# Total GULP energy -246052.171009 kJ/mol
# GULP energy per Si atom -5592.094796 kJ/mol
# Density = 2.226879 g / cm^3
# Si number density = 22.319590 Si / 1000 Ang^3
#
#
#
# Elastic Constant Matrix: (Units=GPa)
#
#
# Indices 1 2 3 4 5 6 
#
# 1 91.3762 61.4466 32.4549 0.0000 0.0000 0.0000
# 2 61.4466 91.3762 32.4549 0.0000 0.0000 0.0000
# 3 32.4549 32.4549 74.7345 0.0000 0.0000 0.0000
# 4 0.0000 0.0000 0.0000 31.8510 0.0000 0.0000
# 5 0.0000 0.0000 0.0000 0.0000 31.8510 0.0000
# 6 0.0000 0.0000 0.0000 0.0000 0.0000 32.8971
#
#
#
# Elastic Compliance Matrix: (Units=1/GPa)
#
#
# Indices 1 2 3 4 5 6 
#
# 1 0.020718 -0.012694 -0.003484 0.000000 0.000000 0.000000
# 2 -0.012694 0.020718 -0.003484 0.000000 0.000000 0.000000
# 3 -0.003484 -0.003484 0.016407 0.000000 0.000000 0.000000
# 4 0.000000 0.000000 0.000000 0.031396 0.000000 0.000000
# 5 0.000000 0.000000 0.000000 0.000000 0.031396 0.000000
# 6 0.000000 0.000000 0.000000 0.000000 0.000000 0.030398
#
#
# Mechanical properties :
#
#
# Convention : Reuss Voigt Hill
#
# Bulk Modulus (GPa) = 54.00581 56.68889 55.34735
# Shear Modulus (GPa) = 25.44137 28.06184 26.75161
#
# Velocity S-wave (km/s) = 3.37985 3.54965 3.46579
# Velocity P-wave (km/s) = 6.28334 6.50030 6.39274
#
# Compressibility (1/GPa) = 0.01851653
#
# Stress axis : x y z
#
# Youngs Moduli (GPa) = 48.26813 48.26813 60.94963
#
# Poissons Ratio (x) = 0.61272 0.21237
# Poissons Ratio (y) = 0.61272 0.21237
# Poissons Ratio (z) = 0.16818 0.16818
#
# Static dielectric constant tensor:
#      x y z
#    x 1.926040 0.000000 0.000000 
#    y 0.000000 1.926040 0.000000 
#    z 0.000000 0.000000 1.818250 
# 
# From -- ./inp_files/11929.got.cif
#   From: 2010.05.17/outbox.cif.g08.bks.cpg/sg98_6_cif.got.tgz:11929.got - 2010.06.03 20:00:51.
