data_PCOD9551487
_publ_section_title
;
Structure prediction by ZEFSAII (Michael W. Deem and Ramdas Pophale) SiO2 
 PCOD9551487
Probable space group: I 4 2 2 
;
_chemical_formula_sum "Si O2"
_cell_formula_units_Z 96
_cell_length_a 14.395864
_cell_length_b 14.395864
_cell_length_c 21.916373
_cell_angle_alpha 90.000000
_cell_angle_beta 90.000000
_cell_angle_gamma 90.000000
_cell_volume 4541.968872
_symmetry_space_group_name_H-M "I 4 2 2 "
_symmetry_group_IT_number 97
_symmetry_cell_setting 'tetragonal'
loop_
_space_group_symop_operation_xyz
x,y,z
-y,x,z
-x,-y,z
y,-x,z
x,-y,-z
-x,y,-z
y,x,-z
-y,-x,-z
1/2+x,1/2+y,1/2+z
1/2-y,1/2+x,1/2+z
1/2-x,1/2-y,1/2+z
1/2+y,1/2-x,1/2+z
1/2+x,1/2-y,1/2-z
1/2-x,1/2+y,1/2-z
1/2+y,1/2+x,1/2-z
1/2-y,1/2-x,1/2-z
loop_
_atom_site_type_symbol
_atom_site_label
_atom_site_fract_x
_atom_site_fract_y
_atom_site_fract_z
Si Si1 0.220482 0.617153 0.869865
Si Si2 0.603481 0.108725 0.487381
Si Si3 0.388748 0.611253 0.500000
Si Si4 0.605886 0.105886 0.250000
Si Si5 0.073543 0.300871 0.788610
Si Si6 0.763141 0.318113 0.411278
Si Si7 0.008126 0.844253 0.308852
O O1 0.138180 0.616612 0.918675
O O2 0.180419 0.623475 0.802354
O O3 0.271325 0.713305 0.886337
O O4 0.275288 0.518445 0.865085
O O5 0.500000 0.144575 0.500000
O O6 0.668047 0.164359 0.533942
O O7 0.604892 0.000000 0.500000
O O8 0.373266 0.500000 0.500000
O O9 0.336893 0.657365 0.441708
O O10 0.507273 0.122235 0.282482
O O11 0.160242 0.339759 0.750000
O O12 0.110033 0.281524 0.856176
O O13 0.029200 0.213872 0.752513
O O14 0.093045 0.915458 0.310806
#
# Coordination Sequence:
#
# PCOD9551487 Si02
#       7
#    16  16   8   8  16  16  16
#     4  11  24  43  70 102 138 187 239 293 359 436
#     4  11  25  44  70 103 142 187 235 302 366 430
#     4  11  26  46  68 100 144 191 244 304 368 453
#     4  10  25  42  66 104 140 179 228 300 364 429
#     4  11  25  41  71 102 142 181 236 296 365 431
#     4  12  25  43  73 101 143 191 243 303 365 440
#     4  10  24  45  68  99 141 186 237 296 357 430
#
# _framework density 21.136209000000001
#
# number of rings (size 3 to 8) (size 9 to 14) (size 15 to 20)
#    0.000    1.083    1.667    2.750   15.167    0.000 
#    0.000    1.667    0.000    0.000    0.000    0.000 
#    0.000    0.000    0.000    0.000    0.000    0.000 
#
# Total GULP energy -267888.933418 kJ/mol
# GULP energy per Si atom -5581.019446 kJ/mol
# Density = 2.108810 g / cm^3
# Si number density = 21.136209 Si / 1000 Ang^3
#
#
#
# Elastic Constant Matrix: (Units=GPa)
#
#
# Indices 1 2 3 4 5 6 
#
# 1 75.0281 19.0795 30.7835 0.0000 0.0000 0.0000
# 2 19.0795 75.0244 30.7830 0.0000 0.0000 0.0000
# 3 30.7835 30.7830 124.5663 0.0000 0.0000 0.0000
# 4 0.0000 0.0000 0.0000 34.9558 0.0000 0.0000
# 5 0.0000 0.0000 0.0000 0.0000 34.9556 0.0000
# 6 0.0000 0.0000 0.0000 0.0000 0.0000 22.8296
#
#
#
# Elastic Compliance Matrix: (Units=1/GPa)
#
#
# Indices 1 2 3 4 5 6 
#
# 1 0.015275 -0.002599 -0.003132 0.000000 0.000000 0.000000
# 2 -0.002599 0.015275 -0.003133 0.000000 0.000000 0.000000
# 3 -0.003132 -0.003133 0.009576 0.000000 0.000000 0.000000
# 4 0.000000 0.000000 0.000000 0.028608 0.000000 0.000000
# 5 0.000000 0.000000 0.000000 0.000000 0.028608 0.000000
# 6 0.000000 0.000000 0.000000 0.000000 0.000000 0.043803
#
#
# Mechanical properties :
#
#
# Convention : Reuss Voigt Hill
#
# Bulk Modulus (GPa) = 44.64763 48.43451 46.54107
# Shear Modulus (GPa) = 30.05925 31.47971 30.76948
#
# Velocity S-wave (km/s) = 3.77526 3.86343 3.81960
# Velocity P-wave (km/s) = 6.33822 6.54726 6.44359
#
# Compressibility (1/GPa) = 0.02239760
#
# Stress axis : x y z
#
# Youngs Moduli (GPa) = 65.46850 65.46515 104.42713
#
# Poissons Ratio (x) = 0.17016 0.32711
# Poissons Ratio (y) = 0.17017 0.32712
# Poissons Ratio (z) = 0.20507 0.20507
#
# Static dielectric constant tensor:
#      x y z
#    x 1.826750 0.000000 0.000000 
#    y 0.000000 1.826750 0.000000 
#    z 0.000000 0.000000 1.972800 
# 
# From -- ./inp_files/6654.got.cif
#   From: 2010.05.17/outbox.cif.g08.bks.cpg/sg97_4_cif.got.tgz:6654.got - 2010.06.03 19:55:32.
