data_PCOD9551352
_publ_section_title
;
Structure prediction by ZEFSAII (Michael W. Deem and Ramdas Pophale) SiO2 
 PCOD9551352
Probable space group: I 4 2 2 
;
_chemical_formula_sum "Si O2"
_cell_formula_units_Z 96
_cell_length_a 14.425247
_cell_length_b 14.425247
_cell_length_c 22.098866
_cell_angle_alpha 90.000000
_cell_angle_beta 90.000000
_cell_angle_gamma 90.000000
_cell_volume 4598.503326
_symmetry_space_group_name_H-M "I 4 2 2 "
_symmetry_group_IT_number 97
_symmetry_cell_setting 'tetragonal'
loop_
_space_group_symop_operation_xyz
x,y,z
-y,x,z
-x,-y,z
y,-x,z
x,-y,-z
-x,y,-z
y,x,-z
-y,-x,-z
1/2+x,1/2+y,1/2+z
1/2-y,1/2+x,1/2+z
1/2-x,1/2-y,1/2+z
1/2+y,1/2-x,1/2+z
1/2+x,1/2-y,1/2-z
1/2-x,1/2+y,1/2-z
1/2+y,1/2+x,1/2-z
1/2-y,1/2-x,1/2-z
loop_
_atom_site_type_symbol
_atom_site_label
_atom_site_fract_x
_atom_site_fract_y
_atom_site_fract_z
Si Si1 0.387061 0.202732 0.629160
Si Si2 0.877659 0.091036 0.208782
Si Si3 0.712097 0.257944 0.937763
Si Si4 0.002262 0.607585 0.666286
Si Si5 0.629507 0.940423 0.060435
Si Si6 0.760356 0.855389 0.300003
O O1 0.373664 0.294093 0.668232
O O2 0.318572 0.216691 0.573694
O O3 0.362273 0.108800 0.664655
O O4 0.490705 0.183657 0.605945
O O5 0.866585 0.135426 0.275001
O O6 0.981834 0.123797 0.196325
O O7 0.691434 0.149980 0.949129
O O8 0.669789 0.272172 0.870693
O O9 0.687472 0.312529 0.000000
O O10 0.000000 0.500000 0.688014
O O11 0.960450 0.596423 0.597733
O O12 0.941196 0.686148 0.699132
O O13 0.610602 0.000000 0.000000
O O14 0.712714 0.787287 0.250000
#
# Coordination Sequence:
#
# PCOD9551352 Si02
#       6
#    16  16  16  16  16  16
#     4  11  21  40  67  95 134 178 226 285 341 404
#     4  11  26  45  68  93 130 183 232 272 337 413
#     4  11  22  40  61  98 132 181 223 271 341 407
#     4   9  23  39  63 103 133 176 220 288 359 406
#     4  10  20  39  64  98 142 180 226 279 347 423
#     4  11  24  43  66  99 138 170 229 286 340 421
#
# _framework density 20.876356999999999
#
# number of rings (size 3 to 8) (size 9 to 14) (size 15 to 20)
#    0.000    1.500    3.333    1.000    7.000    3.333 
#    0.000    0.000    0.000    0.000    0.000    1.167 
#    0.000    0.000    0.000    0.000    0.000    0.000 
#
# Total GULP energy -267226.830926 kJ/mol
# GULP energy per Si atom -5567.225644 kJ/mol
# Density = 2.082884 g / cm^3
# Si number density = 20.876357 Si / 1000 Ang^3
#
#
#
# Elastic Constant Matrix: (Units=GPa)
#
#
# Indices 1 2 3 4 5 6 
#
# 1 90.5213 6.4366 28.4393 0.0000 0.0000 0.0000
# 2 6.4366 90.5204 28.4389 0.0000 0.0000 0.0000
# 3 28.4393 28.4389 118.2621 0.0000 0.0000 0.0000
# 4 0.0000 0.0000 0.0000 31.0325 0.0000 0.0000
# 5 0.0000 0.0000 0.0000 0.0000 31.0299 0.0000
# 6 0.0000 0.0000 0.0000 0.0000 0.0000 63.9960
#
#
#
# Elastic Compliance Matrix: (Units=1/GPa)
#
#
# Indices 1 2 3 4 5 6 
#
# 1 0.011950 0.000057 -0.002888 0.000000 0.000000 0.000000
# 2 0.000057 0.011950 -0.002888 0.000000 0.000000 0.000000
# 3 -0.002888 -0.002888 0.009845 0.000000 0.000000 0.000000
# 4 0.000000 0.000000 0.000000 0.032224 0.000000 0.000000
# 5 0.000000 0.000000 0.000000 0.000000 0.032227 0.000000
# 6 0.000000 0.000000 0.000000 0.000000 0.000000 0.015626
#
#
# Mechanical properties :
#
#
# Convention : Reuss Voigt Hill
#
# Bulk Modulus (GPa) = 44.82336 47.32593 46.07465
# Shear Modulus (GPa) = 37.68058 40.94428 39.31243
#
# Velocity S-wave (km/s) = 4.25307 4.43343 4.34419
# Velocity P-wave (km/s) = 6.75541 6.99471 6.87610
#
# Compressibility (1/GPa) = 0.02230979
#
# Stress axis : x y z
#
# Youngs Moduli (GPa) = 83.68032 83.67962 101.57885
#
# Poissons Ratio (x) = -0.00481 0.29332
# Poissons Ratio (y) = -0.00481 0.29331
# Poissons Ratio (z) = 0.24163 0.24163
#
# Static dielectric constant tensor:
#      x y z
#    x 1.733790 0.000000 0.000000 
#    y 0.000000 1.733790 0.000000 
#    z 0.000000 0.000000 1.813980 
# 
# From -- ./inp_files/6605.got.cif
#   From: 2010.05.17/outbox.cif.g08.bks.cpg/sg97_4_cif.got.tgz:6605.got - 2010.06.03 19:55:32.
