data_PCOD9551531
_publ_section_title
;
Structure prediction by ZEFSAII (Michael W. Deem and Ramdas Pophale) SiO2 
 PCOD9551531
Probable space group: I 4 2 2 
;
_chemical_formula_sum "Si O2"
_cell_formula_units_Z 72
_cell_length_a 14.538734
_cell_length_b 14.538734
_cell_length_c 18.198229
_cell_angle_alpha 90.000000
_cell_angle_beta 90.000000
_cell_angle_gamma 90.000000
_cell_volume 3846.646766
_symmetry_space_group_name_H-M "I 4 2 2 "
_symmetry_group_IT_number 97
_symmetry_cell_setting 'tetragonal'
loop_
_space_group_symop_operation_xyz
x,y,z
-y,x,z
-x,-y,z
y,-x,z
x,-y,-z
-x,y,-z
y,x,-z
-y,-x,-z
1/2+x,1/2+y,1/2+z
1/2-y,1/2+x,1/2+z
1/2-x,1/2-y,1/2+z
1/2+y,1/2-x,1/2+z
1/2+x,1/2-y,1/2-z
1/2-x,1/2+y,1/2-z
1/2+y,1/2+x,1/2-z
1/2-y,1/2-x,1/2-z
loop_
_atom_site_type_symbol
_atom_site_label
_atom_site_fract_x
_atom_site_fract_y
_atom_site_fract_z
Si Si1 0.597555 0.052806 0.642038
Si Si2 0.347838 0.694006 0.253265
Si Si3 0.472589 0.224853 0.286585
Si Si4 0.285132 0.000000 0.500000
Si Si5 0.567882 0.640415 0.901099
O O1 0.571849 0.159217 0.652756
O O2 0.661858 0.026535 0.712088
O O3 0.652315 0.034237 0.567315
O O4 0.500000 0.000000 0.644931
O O5 0.259999 0.759999 0.250000
O O6 0.425242 0.740998 0.303242
O O7 0.311216 0.594094 0.274979
O O8 0.397519 0.682950 0.174787
O O9 0.217866 0.923344 0.463604
O O10 0.458818 0.616675 0.904862
#
# Coordination Sequence:
#
# PCOD9551531 Si02
#       5
#    16  16  16   8  16
#     4  11  22  42  60  89 128 174 218 268 327 391
#     4  12  21  38  64  94 128 170 217 271 329 398
#     4  11  23  39  64  93 126 169 220 271 328 390
#     4  12  23  39  62  90 126 178 218 259 327 412
#     4  11  23  40  60  92 133 171 209 264 342 406
#
# _framework density 18.717600000000001
#
# number of rings (size 3 to 8) (size 9 to 14) (size 15 to 20)
#    0.000    0.667    6.667    3.667    0.000    1.333 
#    0.000    0.000    0.000    0.000    0.000    0.000 
#    0.000    0.000    1.778    0.000    0.000    0.000 
#
# Total GULP energy -200936.895082 kJ/mol
# GULP energy per Si atom -5581.580419 kJ/mol
# Density = 1.867500 g / cm^3
# Si number density = 18.717600 Si / 1000 Ang^3
#
#
#
# Elastic Constant Matrix: (Units=GPa)
#
#
# Indices 1 2 3 4 5 6 
#
# 1 67.4600 11.5688 21.5776 0.0000 0.0000 0.0000
# 2 11.5688 67.4600 21.5776 0.0000 0.0000 0.0000
# 3 21.5776 21.5776 83.6620 0.0000 0.0000 0.0000
# 4 0.0000 0.0000 0.0000 23.6271 0.0000 0.0000
# 5 0.0000 0.0000 0.0000 0.0000 23.6271 0.0000
# 6 0.0000 0.0000 0.0000 0.0000 0.0000 42.7408
#
#
#
# Elastic Compliance Matrix: (Units=1/GPa)
#
#
# Indices 1 2 3 4 5 6 
#
# 1 0.016310 -0.001582 -0.003799 0.000000 0.000000 0.000000
# 2 -0.001582 0.016310 -0.003799 0.000000 0.000000 0.000000
# 3 -0.003799 -0.003799 0.013912 0.000000 0.000000 0.000000
# 4 0.000000 0.000000 0.000000 0.042324 0.000000 0.000000
# 5 0.000000 0.000000 0.000000 0.000000 0.042324 0.000000
# 6 0.000000 0.000000 0.000000 0.000000 0.000000 0.023397
#
#
# Mechanical properties :
#
#
# Convention : Reuss Voigt Hill
#
# Bulk Modulus (GPa) = 35.49386 36.44779 35.97082
# Shear Modulus (GPa) = 27.42326 28.92286 28.17306
#
# Velocity S-wave (km/s) = 3.83182 3.93520 3.88385
# Velocity P-wave (km/s) = 6.21137 6.33738 6.27469
#
# Compressibility (1/GPa) = 0.02817389
#
# Stress axis : x y z
#
# Youngs Moduli (GPa) = 61.31248 61.31248 71.87914
#
# Poissons Ratio (x) = 0.09700 0.27303
# Poissons Ratio (y) = 0.09700 0.27303
# Poissons Ratio (z) = 0.23290 0.23290
#
# Static dielectric constant tensor:
#      x y z
#    x 1.686230 0.000000 0.000000 
#    y 0.000000 1.686230 0.000000 
#    z 0.000000 0.000000 1.657680 
# 
# From -- ./inp_files/5572.got.cif
#   From: 2010.05.17/outbox.cif.g08.bks.cpg/sg97_3_cif.got.tgz:5572.got - 2010.06.03 19:55:32.
