data_PCOD9551849
_publ_section_title
;
Structure prediction by ZEFSAII (Michael W. Deem and Ramdas Pophale) SiO2 
 PCOD9551849
Probable space group: I 41 2 2
;
_chemical_formula_sum "Si O2"
_cell_formula_units_Z 96
_cell_length_a 25.258562
_cell_length_b 25.258562
_cell_length_c 8.552881
_cell_angle_alpha 90.000000
_cell_angle_beta 90.000000
_cell_angle_gamma 90.000000
_cell_volume 5456.694923
_symmetry_space_group_name_H-M "I 41 2 2"
_symmetry_group_IT_number 98
_symmetry_cell_setting 'tetragonal'
loop_
_space_group_symop_operation_xyz
x,y,z
-y,1/2+x,1/4+z
-x,-y,z
y,1/2-x,1/4+z
x,1/2-y,1/4-z
-x,1/2+y,1/4-z
y,x,-z
-y,-x,-z
1/2+x,1/2+y,1/2+z
1/2-y,x,3/4+z
1/2-x,1/2-y,1/2+z
1/2+y,-x,3/4+z
1/2+x,-y,3/4-z
1/2-x,y,3/4-z
1/2+y,1/2+x,1/2-z
1/2-y,1/2-x,1/2-z
loop_
_atom_site_type_symbol
_atom_site_label
_atom_site_fract_x
_atom_site_fract_y
_atom_site_fract_z
Si Si1 0.742660 0.040132 0.058519
Si Si2 0.298536 0.458107 0.973076
Si Si3 0.047620 0.847482 0.755128
Si Si4 0.912015 0.912015 0.500000
Si Si5 0.028545 0.057011 0.827016
Si Si6 0.250000 0.812531 0.875000
Si Si7 0.333645 0.633495 0.157439
O O1 0.798058 0.059360 0.131719
O O2 0.694887 0.077576 0.115145
O O3 0.727740 0.982582 0.122728
O O4 0.750000 0.040669 0.875000
O O5 0.250000 0.433734 0.875000
O O6 0.321348 0.507802 0.871426
O O7 0.349582 0.423236 0.004704
O O8 0.103977 0.868692 0.694252
O O9 0.014840 0.895871 0.829089
O O10 0.938048 0.933969 0.664254
O O11 0.056546 0.056546 0.000000
O O12 0.000000 0.000000 0.813096
O O13 0.276130 0.776130 0.750000
O O14 0.201946 0.843931 0.796218
O O15 0.331397 0.668604 0.000000
#
# Coordination Sequence:
#
# PCOD9551849 Si02
#       7
#    16  16  16   8  16   8  16
#     4  11  23  36  58  88 111 153 198 245 305 359
#     4   9  20  40  61  90 122 155 199 236 299 359
#     4  10  23  40  58  80 119 149 197 254 290 364
#     4  10  21  38  66  88 126 162 202 242 298 378
#     4  10  23  38  58  90 122 157 197 252 312 364
#     4  12  26  42  52  74 100 140 202 256 304 352
#     4  12  24  39  60  76 106 153 197 255 306 349
#
# _framework density 17.593067000000001
#
# number of rings (size 3 to 8) (size 9 to 14) (size 15 to 20)
#    0.000    1.500    2.500    1.750    4.667    2.667 
#    0.000    0.000    0.000    0.000    0.000    1.167 
#    0.000    0.000    0.000    0.000    0.000    0.000 
#
# Total GULP energy -267519.965338 kJ/mol
# GULP energy per Si atom -5573.332611 kJ/mol
# Density = 1.755302 g / cm^3
# Si number density = 17.593067 Si / 1000 Ang^3
#
#
#
# Elastic Constant Matrix: (Units=GPa)
#
#
# Indices 1 2 3 4 5 6 
#
# 1 92.2038 41.4086 38.8517 0.0000 0.0000 0.0000
# 2 41.4086 92.2027 38.8511 0.0000 0.0000 0.0000
# 3 38.8517 38.8511 104.6869 0.0000 0.0000 0.0000
# 4 0.0000 0.0000 0.0000 23.0848 0.0000 0.0000
# 5 0.0000 0.0000 0.0000 0.0000 23.0849 0.0000
# 6 0.0000 0.0000 0.0000 0.0000 0.0000 41.9552
#
#
#
# Elastic Compliance Matrix: (Units=1/GPa)
#
#
# Indices 1 2 3 4 5 6 
#
# 1 0.014616 -0.005071 -0.003542 0.000000 0.000000 0.000000
# 2 -0.005071 0.014616 -0.003542 0.000000 0.000000 0.000000
# 3 -0.003542 -0.003542 0.012181 0.000000 0.000000 0.000000
# 4 0.000000 0.000000 0.000000 0.043319 0.000000 0.000000
# 5 0.000000 0.000000 0.000000 0.000000 0.043318 0.000000
# 6 0.000000 0.000000 0.000000 0.000000 0.000000 0.023835
#
#
# Mechanical properties :
#
#
# Convention : Reuss Voigt Hill
#
# Bulk Modulus (GPa) = 58.47395 58.59068 58.53232
# Shear Modulus (GPa) = 27.48818 28.95711 28.22265
#
# Velocity S-wave (km/s) = 3.95706 4.06142 4.00958
# Velocity P-wave (km/s) = 7.36117 7.44104 7.40121
#
# Compressibility (1/GPa) = 0.01710163
#
# Stress axis : x y z
#
# Youngs Moduli (GPa) = 68.41987 68.41929 82.09261
#
# Poissons Ratio (x) = 0.34698 0.29078
# Poissons Ratio (y) = 0.34699 0.29077
# Poissons Ratio (z) = 0.24235 0.24234
#
# Static dielectric constant tensor:
#      x y z
#    x 1.604690 0.000000 0.000000 
#    y 0.000000 1.604690 0.000000 
#    z 0.000000 0.000000 1.695130 
# 
# From -- ./inp_files/3752.got.cif
#   From: 2010.05.17/outbox.cif.g08.bks.cpg/sg98_2_cif.got.tgz:3752.got - 2010.06.03 20:00:51.
