data_PCOD9551823
_publ_section_title
;
Structure prediction by ZEFSAII (Michael W. Deem and Ramdas Pophale) SiO2 
 PCOD9551823
Probable space group: I 41 2 2
;
_chemical_formula_sum "Si O2"
_cell_formula_units_Z 88
_cell_length_a 16.755900
_cell_length_b 16.755900
_cell_length_c 15.226907
_cell_angle_alpha 90.000000
_cell_angle_beta 90.000000
_cell_angle_gamma 90.000000
_cell_volume 4275.109223
_symmetry_space_group_name_H-M "I 41 2 2"
_symmetry_group_IT_number 98
_symmetry_cell_setting 'tetragonal'
loop_
_space_group_symop_operation_xyz
x,y,z
-y,1/2+x,1/4+z
-x,-y,z
y,1/2-x,1/4+z
x,1/2-y,1/4-z
-x,1/2+y,1/4-z
y,x,-z
-y,-x,-z
1/2+x,1/2+y,1/2+z
1/2-y,x,3/4+z
1/2-x,1/2-y,1/2+z
1/2+y,-x,3/4+z
1/2+x,-y,3/4-z
1/2-x,y,3/4-z
1/2+y,1/2+x,1/2-z
1/2-y,1/2-x,1/2-z
loop_
_atom_site_type_symbol
_atom_site_label
_atom_site_fract_x
_atom_site_fract_y
_atom_site_fract_z
Si Si1 0.709025 0.391050 0.657160
Si Si2 0.250000 0.046860 0.875000
Si Si3 0.680019 0.750000 0.125000
Si Si4 0.876328 0.623672 0.750000
Si Si5 0.088074 0.539027 0.462879
Si Si6 0.686102 0.813899 0.750000
Si Si7 0.726712 0.273289 0.500000
Si Si8 0.876115 0.037893 0.583384
O O1 0.622320 0.425086 0.664587
O O2 0.715675 0.343837 0.567422
O O3 0.717962 0.317915 0.723674
O O4 0.781709 0.449068 0.672043
O O5 0.295399 0.104913 0.804280
O O6 0.173520 0.999427 0.826709
O O7 0.626030 0.794923 0.195537
O O8 0.740776 0.805756 0.069803
O O9 0.889994 0.555074 0.680070
O O10 0.098706 0.557362 0.567299
O O11 0.000000 0.500000 0.453427
O O12 0.916867 0.083134 0.500000
#
# Coordination Sequence:
#
# PCOD9551823 Si02
#       8
#    16   8   8   8  16   8   8  16
#     4  11  23  43  72  99 138 183 238 297 365 449
#     4  11  24  48  70 107 146 196 250 315 386 478
#     4   9  20  40  62  97 122 178 238 279 342 438
#     4  11  23  40  65  94 137 178 227 295 356 426
#     4  12  28  47  69 106 151 192 247 314 384 455
#     4   9  20  40  74  92 134 182 238 297 364 438
#     4  10  20  44  71  99 134 182 234 294 362 440
#     4  12  26  44  67 100 139 183 237 305 374 439
#
# _framework density 20.58427
#
# number of rings (size 3 to 8) (size 9 to 14) (size 15 to 20)
#    0.000    1.091    2.727    3.545    0.000    9.455 
#    0.000    0.000    0.000    0.000    0.000    0.000 
#    0.000    0.000    0.000    0.000    0.000    0.000 
#
# Total GULP energy -244956.155399 kJ/mol
# GULP energy per Si atom -5567.185350 kJ/mol
# Density = 2.053742 g / cm^3
# Si number density = 20.584270 Si / 1000 Ang^3
#
#
#
# Elastic Constant Matrix: (Units=GPa)
#
#
# Indices 1 2 3 4 5 6 
#
# 1 63.8536 26.3227 -1.9891 0.0000 0.0000 0.0000
# 2 26.3227 63.8527 -1.9886 0.0000 0.0000 0.0000
# 3 -1.9891 -1.9886 64.1543 0.0000 0.0000 0.0000
# 4 0.0000 0.0000 0.0000 32.3639 0.0000 0.0000
# 5 0.0000 0.0000 0.0000 0.0000 32.3640 0.0000
# 6 0.0000 0.0000 0.0000 0.0000 0.0000 33.9345
#
#
#
# Elastic Compliance Matrix: (Units=1/GPa)
#
#
# Indices 1 2 3 4 5 6 
#
# 1 0.018875 -0.007770 0.000344 0.000000 0.000000 0.000000
# 2 -0.007770 0.018875 0.000344 0.000000 0.000000 0.000000
# 3 0.000344 0.000344 0.015609 0.000000 0.000000 0.000000
# 4 0.000000 0.000000 0.000000 0.030899 0.000000 0.000000
# 5 0.000000 0.000000 0.000000 0.000000 0.030898 0.000000
# 6 0.000000 0.000000 0.000000 0.000000 0.000000 0.029469
#
#
# Mechanical properties :
#
#
# Convention : Reuss Voigt Hill
#
# Bulk Modulus (GPa) = 25.51343 26.28340 25.89841
# Shear Modulus (GPa) = 29.09473 31.03353 30.06413
#
# Velocity S-wave (km/s) = 3.76366 3.88704 3.82585
# Velocity P-wave (km/s) = 5.59539 5.73950 5.66790
#
# Compressibility (1/GPa) = 0.03919505
#
# Stress axis : x y z
#
# Youngs Moduli (GPa) = 52.98103 52.98029 64.06658
#
# Poissons Ratio (x) = 0.41167 -0.02206
# Poissons Ratio (y) = 0.41167 -0.02205
# Poissons Ratio (z) = -0.01824 -0.01823
#
# Static dielectric constant tensor:
#      x y z
#    x 1.900980 0.000000 0.000000 
#    y 0.000000 1.900970 0.000000 
#    z 0.000000 0.000000 1.949850 
# 
# From -- ./inp_files/6594.got.cif
#   From: 2010.05.17/outbox.cif.g08.bks.cpg/sg98_4_cif.got.tgz:6594.got - 2010.06.03 20:00:51.
