data_PCOD9551398
_publ_section_title
;
Structure prediction by ZEFSAII (Michael W. Deem and Ramdas Pophale) SiO2 
 PCOD9551398
Probable space group: I 4 2 2 
;
_chemical_formula_sum "Si O2"
_cell_formula_units_Z 80
_cell_length_a 13.703233
_cell_length_b 13.703233
_cell_length_c 20.810444
_cell_angle_alpha 90.000000
_cell_angle_beta 90.000000
_cell_angle_gamma 90.000000
_cell_volume 3907.755928
_symmetry_space_group_name_H-M "I 4 2 2 "
_symmetry_group_IT_number 97
_symmetry_cell_setting 'tetragonal'
loop_
_space_group_symop_operation_xyz
x,y,z
-y,x,z
-x,-y,z
y,-x,z
x,-y,-z
-x,y,-z
y,x,-z
-y,-x,-z
1/2+x,1/2+y,1/2+z
1/2-y,1/2+x,1/2+z
1/2-x,1/2-y,1/2+z
1/2+y,1/2-x,1/2+z
1/2+x,1/2-y,1/2-z
1/2-x,1/2+y,1/2-z
1/2+y,1/2+x,1/2-z
1/2-y,1/2-x,1/2-z
loop_
_atom_site_type_symbol
_atom_site_label
_atom_site_fract_x
_atom_site_fract_y
_atom_site_fract_z
Si Si1 0.216513 0.078718 0.865633
Si Si2 0.576751 0.135237 0.181120
Si Si3 0.553861 0.351046 0.222634
Si Si4 0.279089 0.388812 0.557876
Si Si5 0.607107 0.048038 0.562175
O O1 0.332478 0.087793 0.856740
O O2 0.166176 0.048950 0.799358
O O3 0.176383 0.184880 0.882818
O O4 0.193081 0.998635 0.920437
O O5 0.579316 0.079316 0.250000
O O6 0.593801 0.249088 0.196268
O O7 0.483323 0.137369 0.134224
O O8 0.620716 0.443079 0.204239
O O9 0.336387 0.336387 0.500000
O O10 0.163189 0.389835 0.550397
O O11 0.500000 0.000000 0.560977
O O12 0.660262 0.000000 0.500000
#
# Coordination Sequence:
#
# PCOD9551398 Si02
#       5
#    16  16  16  16  16
#     4  11  22  42  62  99 138 171 230 285 353 425
#     4  10  23  42  67 101 133 176 236 293 351 435
#     4  10  21  40  63  92 135 180 219 292 368 421
#     4  12  25  40  69  98 133 184 233 278 352 438
#     4  11  24  45  68  90 138 182 225 290 358 421
#
# _framework density 20.472109
#
# number of rings (size 3 to 8) (size 9 to 14) (size 15 to 20)
#    0.000    1.200    4.000    1.800    5.600    0.800 
#    0.000    1.000    0.000    0.000    0.000    1.400 
#    0.000    0.000    0.000    0.000    0.000    0.000 
#
# Total GULP energy -222916.001948 kJ/mol
# GULP energy per Si atom -5572.900049 kJ/mol
# Density = 2.042551 g / cm^3
# Si number density = 20.472109 Si / 1000 Ang^3
#
#
#
# Elastic Constant Matrix: (Units=GPa)
#
#
# Indices 1 2 3 4 5 6 
#
# 1 93.1572 26.4791 33.7799 0.0000 0.0000 0.0000
# 2 26.4791 93.1572 33.7799 0.0000 0.0000 0.0000
# 3 33.7799 33.7799 84.4713 0.0000 0.0000 0.0000
# 4 0.0000 0.0000 0.0000 27.8451 0.0000 0.0000
# 5 0.0000 0.0000 0.0000 0.0000 27.8451 0.0000
# 6 0.0000 0.0000 0.0000 0.0000 0.0000 19.1960
#
#
#
# Elastic Compliance Matrix: (Units=1/GPa)
#
#
# Indices 1 2 3 4 5 6 
#
# 1 0.012897 -0.002100 -0.004318 0.000000 0.000000 0.000000
# 2 -0.002100 0.012897 -0.004318 0.000000 0.000000 0.000000
# 3 -0.004318 -0.004318 0.015292 0.000000 0.000000 0.000000
# 4 0.000000 0.000000 0.000000 0.035913 0.000000 0.000000
# 5 0.000000 0.000000 0.000000 0.000000 0.035913 0.000000
# 6 0.000000 0.000000 0.000000 0.000000 0.000000 0.052094
#
#
# Mechanical properties :
#
#
# Convention : Reuss Voigt Hill
#
# Bulk Modulus (GPa) = 50.98204 50.98482 50.98343
# Shear Modulus (GPa) = 25.90468 26.76037 26.33252
#
# Velocity S-wave (km/s) = 3.56106 3.61939 3.59034
# Velocity P-wave (km/s) = 6.47035 6.51347 6.49194
#
# Compressibility (1/GPa) = 0.01961475
#
# Stress axis : x y z
#
# Youngs Moduli (GPa) = 77.53649 77.53649 65.39551
#
# Poissons Ratio (x) = 0.16285 0.28235
# Poissons Ratio (y) = 0.16285 0.28235
# Poissons Ratio (z) = 0.33477 0.33477
#
# Static dielectric constant tensor:
#      x y z
#    x 1.732520 0.000000 0.000000 
#    y 0.000000 1.732520 0.000000 
#    z 0.000000 0.000000 1.850470 
# 
# From -- ./inp_files/6408.got.cif
#   From: 2010.05.17/outbox.cif.g08.bks.cpg/sg97_4_cif.got.tgz:6408.got - 2010.06.03 19:55:32.
