data_PCOD9551884
_publ_section_title
;
Structure prediction by ZEFSAII (Michael W. Deem and Ramdas Pophale) SiO2 
 PCOD9551884
Probable space group: I 41 2 2
;
_chemical_formula_sum "Si O2"
_cell_formula_units_Z 56
_cell_length_a 14.103726
_cell_length_b 14.103726
_cell_length_c 11.653463
_cell_angle_alpha 90.000000
_cell_angle_beta 90.000000
_cell_angle_gamma 90.000000
_cell_volume 2318.049607
_symmetry_space_group_name_H-M "I 41 2 2"
_symmetry_group_IT_number 98
_symmetry_cell_setting 'tetragonal'
loop_
_space_group_symop_operation_xyz
x,y,z
-y,1/2+x,1/4+z
-x,-y,z
y,1/2-x,1/4+z
x,1/2-y,1/4-z
-x,1/2+y,1/4-z
y,x,-z
-y,-x,-z
1/2+x,1/2+y,1/2+z
1/2-y,x,3/4+z
1/2-x,1/2-y,1/2+z
1/2+y,-x,3/4+z
1/2+x,-y,3/4-z
1/2-x,y,3/4-z
1/2+y,1/2+x,1/2-z
1/2-y,1/2-x,1/2-z
loop_
_atom_site_type_symbol
_atom_site_label
_atom_site_fract_x
_atom_site_fract_y
_atom_site_fract_z
Si Si1 0.940081 0.250000 0.625000
Si Si2 0.631436 0.368565 0.500000
Si Si3 0.932171 0.198230 0.383760
Si Si4 0.889840 0.532905 0.422479
Si Si5 0.196463 0.250000 0.125000
O O1 0.983983 0.237408 0.498734
O O2 0.881199 0.348745 0.631850
O O3 0.713299 0.369953 0.591867
O O4 0.535219 0.358380 0.569172
O O5 0.006443 0.160549 0.291737
O O6 0.846534 0.632963 0.385254
O O7 0.000000 0.500000 0.434952
O O8 0.246409 0.253592 0.250000
#
# Coordination Sequence:
#
# PCOD9551884 Si02
#       5
#     8   8  16  16   8
#     4  10  22  35  59 100 152 194 232 302 402 484
#     4  12  19  40  72 108 138 188 253 326 390 452
#     4  11  21  38  65 105 149 190 241 317 399 468
#     4  12  26  45  78 115 152 201 276 335 395 474
#     4  12  28  55  83 116 160 226 272 342 414 504
#
# _framework density 24.158241
#
# number of rings (size 3 to 8) (size 9 to 14) (size 15 to 20)
#    0.000    0.571    5.714    3.857    0.000    0.000 
#    0.000   11.429    0.000    0.000    0.000    0.000 
#    0.000    0.000    0.000    0.000    0.000    0.000 
#
# Total GULP energy -156048.260244 kJ/mol
# GULP energy per Si atom -5573.152152 kJ/mol
# Density = 2.410326 g / cm^3
# Si number density = 24.158241 Si / 1000 Ang^3
#
#
#
# Elastic Constant Matrix: (Units=GPa)
#
#
# Indices 1 2 3 4 5 6 
#
# 1 63.8116 7.3043 21.4063 0.0000 0.0000 0.0000
# 2 7.3043 63.8123 21.4073 0.0000 0.0000 0.0000
# 3 21.4063 21.4073 171.4659 0.0000 0.0000 0.0000
# 4 0.0000 0.0000 0.0000 -57.4629 0.0000 0.0000
# 5 0.0000 0.0000 0.0000 0.0000 -57.4489 0.0000
# 6 0.0000 0.0000 0.0000 0.0000 0.0000 25.8238
#
#
#
# Elastic Compliance Matrix: (Units=1/GPa)
#
#
# Indices 1 2 3 4 5 6 
#
# 1 0.016451 -0.001246 -0.001898 0.000000 0.000000 0.000000
# 2 -0.001246 0.016450 -0.001898 0.000000 0.000000 0.000000
# 3 -0.001898 -0.001898 0.006306 0.000000 0.000000 0.000000
# 4 0.000000 0.000000 0.000000 -0.017403 0.000000 0.000000
# 5 0.000000 0.000000 0.000000 0.000000 -0.017407 0.000000
# 6 0.000000 0.000000 0.000000 0.000000 0.000000 0.038724
#
#
# Mechanical properties :
#
#
# Convention : Reuss Voigt Hill
#
# Bulk Modulus (GPa) = 34.33859 44.36950 39.35404
# Shear Modulus (GPa) = 79.47341 -1.21948 39.12696
#
# Velocity S-wave (km/s) = 5.74181 -0.71126 4.02881
# Velocity P-wave (km/s) = 7.62908 4.21089 6.16175
#
# Compressibility (1/GPa) = 0.02912176
#
# Stress axis : x y z
#
# Youngs Moduli (GPa) = 60.78828 60.78879 158.57855
#
# Poissons Ratio (x) = 0.07576 0.30100
# Poissons Ratio (y) = 0.07576 0.30102
# Poissons Ratio (z) = 0.11538 0.11539
#
# Static dielectric constant tensor:
#      x y z
#    x 2.178190 0.000000 0.000000 
#    y 0.000000 2.178180 0.000000 
#    z 0.000000 0.000000 2.060650 
# 
# From -- ./inp_files/4696.got.cif
#   From: 2010.05.17/outbox.cif.g08.bks.cpg/sg98_3_cif.got.tgz:4696.got - 2010.06.03 20:00:51.
