data_PCOD9551456
_publ_section_title
;
Structure prediction by ZEFSAII (Michael W. Deem and Ramdas Pophale) SiO2 
 PCOD9551456
Probable space group: I 4 2 2 
;
_chemical_formula_sum "Si O2"
_cell_formula_units_Z 80
_cell_length_a 12.539123
_cell_length_b 12.539123
_cell_length_c 26.162785
_cell_angle_alpha 90.000000
_cell_angle_beta 90.000000
_cell_angle_gamma 90.000000
_cell_volume 4113.564367
_symmetry_space_group_name_H-M "I 4 2 2 "
_symmetry_group_IT_number 97
_symmetry_cell_setting 'tetragonal'
loop_
_space_group_symop_operation_xyz
x,y,z
-y,x,z
-x,-y,z
y,-x,z
x,-y,-z
-x,y,-z
y,x,-z
-y,-x,-z
1/2+x,1/2+y,1/2+z
1/2-y,1/2+x,1/2+z
1/2-x,1/2-y,1/2+z
1/2+y,1/2-x,1/2+z
1/2+x,1/2-y,1/2-z
1/2-x,1/2+y,1/2-z
1/2+y,1/2+x,1/2-z
1/2-y,1/2-x,1/2-z
loop_
_atom_site_type_symbol
_atom_site_label
_atom_site_fract_x
_atom_site_fract_y
_atom_site_fract_z
Si Si1 0.121347 0.503043 0.370949
Si Si2 0.500968 0.673739 0.561237
Si Si3 0.725280 0.912324 0.661042
Si Si4 0.819490 0.988157 0.556346
Si Si5 0.783960 0.364680 0.196329
O O1 0.211796 0.497766 0.413397
O O2 0.128084 0.395928 0.336995
O O3 0.138647 0.609555 0.338185
O O4 0.000000 0.500000 0.391062
O O5 0.397170 0.603961 0.576032
O O6 0.500000 0.681777 0.500000
O O7 0.745931 0.965279 0.604914
O O8 0.804287 0.814998 0.670716
O O9 0.742763 0.009583 0.700066
O O10 0.905099 0.891356 0.558978
O O11 0.767310 0.000000 0.500000
O O12 0.811481 0.311481 0.250000
#
# Coordination Sequence:
#
# PCOD9551456 Si02
#       5
#    16  16  16  16  16
#     4  10  23  40  59  89 128 164 203 257 324 385
#     4   9  18  37  63  86 116 163 212 260 307 363
#     4  11  22  42  67  92 132 168 211 272 316 393
#     4   9  17  34  61  96 128 165 212 268 326 377
#     4  11  26  42  66  93 123 170 217 261 329 379
#
# _framework density 19.447854
#
# number of rings (size 3 to 8) (size 9 to 14) (size 15 to 20)
#    0.000    2.000    2.000    2.400    2.800    3.600 
#    7.200    2.000    0.000    0.000    0.000    0.000 
#    0.000    0.000    0.000    0.000    0.000    0.000 
#
# Total GULP energy -223169.139896 kJ/mol
# GULP energy per Si atom -5579.228497 kJ/mol
# Density = 1.940359 g / cm^3
# Si number density = 19.447854 Si / 1000 Ang^3
#
#
#
# Elastic Constant Matrix: (Units=GPa)
#
#
# Indices 1 2 3 4 5 6 
#
# 1 120.0187 60.6574 37.7598 0.0000 0.0000 0.0000
# 2 60.6574 120.0187 37.7598 0.0000 0.0000 0.0000
# 3 37.7598 37.7598 80.1984 0.0000 0.0000 0.0000
# 4 0.0000 0.0000 0.0000 27.8093 0.0000 0.0000
# 5 0.0000 0.0000 0.0000 0.0000 27.8093 0.0000
# 6 0.0000 0.0000 0.0000 0.0000 0.0000 22.7489
#
#
#
# Elastic Compliance Matrix: (Units=1/GPa)
#
#
# Indices 1 2 3 4 5 6 
#
# 1 0.011868 -0.004978 -0.003244 0.000000 0.000000 0.000000
# 2 -0.004978 0.011868 -0.003244 0.000000 0.000000 0.000000
# 3 -0.003244 -0.003244 0.015524 0.000000 0.000000 0.000000
# 4 0.000000 0.000000 0.000000 0.035959 0.000000 0.000000
# 5 0.000000 0.000000 0.000000 0.000000 0.035959 0.000000
# 6 0.000000 0.000000 0.000000 0.000000 0.000000 0.043958
#
#
# Mechanical properties :
#
#
# Convention : Reuss Voigt Hill
#
# Bulk Modulus (GPa) = 61.24350 65.84330 63.54340
# Shear Modulus (GPa) = 27.24600 27.94410 27.59505
#
# Velocity S-wave (km/s) = 3.74702 3.79472 3.77095
# Velocity P-wave (km/s) = 7.09082 7.28901 7.19060
#
# Compressibility (1/GPa) = 0.01632826
#
# Stress axis : x y z
#
# Youngs Moduli (GPa) = 84.25707 84.25707 64.41543
#
# Poissons Ratio (x) = 0.41939 0.20899
# Poissons Ratio (y) = 0.41939 0.20899
# Poissons Ratio (z) = 0.27337 0.27337
#
# Static dielectric constant tensor:
#      x y z
#    x 1.683870 0.000000 0.000000 
#    y 0.000000 1.683870 0.000000 
#    z 0.000000 0.000000 1.684890 
# 
# From -- ./inp_files/7977.got.cif
#   From: 2010.05.17/outbox.cif.g08.bks.cpg/sg97_4_cif.got.tgz:7977.got - 2010.06.03 19:55:32.
