data_PCOD9551293
_publ_section_title
;
Structure prediction by ZEFSAII (Michael W. Deem and Ramdas Pophale) SiO2 
 PCOD9551293
Probable space group: I 4 2 2 
;
_chemical_formula_sum "Si O2"
_cell_formula_units_Z 72
_cell_length_a 19.910088
_cell_length_b 19.910088
_cell_length_c 10.990102
_cell_angle_alpha 90.000000
_cell_angle_beta 90.000000
_cell_angle_gamma 90.000000
_cell_volume 4356.603964
_symmetry_space_group_name_H-M "I 4 2 2 "
_symmetry_group_IT_number 97
_symmetry_cell_setting 'tetragonal'
loop_
_space_group_symop_operation_xyz
x,y,z
-y,x,z
-x,-y,z
y,-x,z
x,-y,-z
-x,y,-z
y,x,-z
-y,-x,-z
1/2+x,1/2+y,1/2+z
1/2-y,1/2+x,1/2+z
1/2-x,1/2-y,1/2+z
1/2+y,1/2-x,1/2+z
1/2+x,1/2-y,1/2-z
1/2-x,1/2+y,1/2-z
1/2+y,1/2+x,1/2-z
1/2-y,1/2-x,1/2-z
loop_
_atom_site_type_symbol
_atom_site_label
_atom_site_fract_x
_atom_site_fract_y
_atom_site_fract_z
Si Si1 0.451933 0.599408 0.660334
Si Si2 0.161399 0.933086 0.579978
Si Si3 0.161735 0.721282 0.367602
Si Si4 0.654635 0.654635 0.500000
Si Si5 0.306294 0.209869 0.620117
O O1 0.413501 0.529620 0.632815
O O2 0.447668 0.616416 0.802156
O O3 0.411484 0.654273 0.583444
O O4 0.122864 0.877137 0.500000
O O5 0.231465 0.902874 0.628593
O O6 0.169987 0.000000 0.500000
O O7 0.174494 0.674494 0.250000
O O8 0.166743 0.684533 0.498137
O O9 0.227006 0.770993 0.368150
O O10 0.658908 0.718883 0.589088
O O11 0.322712 0.177289 0.750000
#
# Coordination Sequence:
#
# PCOD9551293 Si02
#       5
#    16  16  16   8  16
#     4  11  22  33  43  59  95 143 188 220 247 283
#     4  12  21  32  49  69  99 137 184 230 260 305
#     4   9  17  31  48  68  90 116 165 220 276 314
#     4  10  20  31  48  64  84 122 175 224 278 316
#     4   9  16  28  49  65  82 105 154 223 276 321
#
# _framework density 16.526634999999999
#
# number of rings (size 3 to 8) (size 9 to 14) (size 15 to 20)
#    0.000    2.000    4.444    4.667    0.000    1.111 
#    0.000    0.000    0.000    0.000    0.000    0.000 
#    0.000    0.000    0.000    0.000    0.000  451.111 
#
# Total GULP energy -200533.466782 kJ/mol
# GULP energy per Si atom -5570.374077 kJ/mol
# Density = 1.648902 g / cm^3
# Si number density = 16.526635 Si / 1000 Ang^3
#
#
#
# Elastic Constant Matrix: (Units=GPa)
#
#
# Indices 1 2 3 4 5 6 
#
# 1 48.7713 45.5103 33.3059 0.0000 0.0000 0.0000
# 2 45.5103 48.7716 33.3060 0.0000 0.0000 0.0000
# 3 33.3059 33.3060 146.0681 0.0000 0.0000 0.0000
# 4 0.0000 0.0000 0.0000 18.3229 0.0000 0.0000
# 5 0.0000 0.0000 0.0000 0.0000 18.3225 0.0000
# 6 0.0000 0.0000 0.0000 0.0000 0.0000 21.9470
#
#
#
# Elastic Compliance Matrix: (Units=1/GPa)
#
#
# Indices 1 2 3 4 5 6 
#
# 1 0.159644 -0.147000 -0.002883 0.000000 0.000000 0.000000
# 2 -0.147000 0.159643 -0.002883 0.000000 0.000000 0.000000
# 3 -0.002883 -0.002883 0.008161 0.000000 0.000000 0.000000
# 4 0.000000 0.000000 0.000000 0.054577 0.000000 0.000000
# 5 0.000000 0.000000 0.000000 0.000000 0.054578 0.000000
# 6 0.000000 0.000000 0.000000 0.000000 0.000000 0.045564
#
#
# Mechanical properties :
#
#
# Convention : Reuss Voigt Hill
#
# Bulk Modulus (GPa) = 45.62897 51.98394 48.80645
# Shear Modulus (GPa) = 6.28927 20.48440 13.38683
#
# Velocity S-wave (km/s) = 1.95289 3.52444 2.84917
# Velocity P-wave (km/s) = 5.72314 6.93435 6.35765
#
# Compressibility (1/GPa) = 0.02191590
#
# Stress axis : x y z
#
# Youngs Moduli (GPa) = 6.26392 6.26397 122.53678
#
# Poissons Ratio (x) = 0.92081 0.35327
# Poissons Ratio (y) = 0.92080 0.35325
# Poissons Ratio (z) = 0.01806 0.01806
#
# Static dielectric constant tensor:
#      x y z
#    x 1.549870 0.000000 0.000000 
#    y 0.000000 1.549870 0.000000 
#    z 0.000000 0.000000 1.661280 
# 
# From -- ./inp_files/3606.got.cif
#   From: 2010.05.17/outbox.cif.g08.bks.cpg/sg97_2_cif.got.tgz:3606.got - 2010.06.03 19:55:32.
