data_PCOD9551419
_publ_section_title
;
Structure prediction by ZEFSAII (Michael W. Deem and Ramdas Pophale) SiO2 
 PCOD9551419
Probable space group: I 4 2 2 
;
_chemical_formula_sum "Si O2"
_cell_formula_units_Z 108
_cell_length_a 14.615119
_cell_length_b 14.615119
_cell_length_c 23.795258
_cell_angle_alpha 90.000000
_cell_angle_beta 90.000000
_cell_angle_gamma 90.000000
_cell_volume 5082.707641
_symmetry_space_group_name_H-M "I 4 2 2 "
_symmetry_group_IT_number 97
_symmetry_cell_setting 'tetragonal'
loop_
_space_group_symop_operation_xyz
x,y,z
-y,x,z
-x,-y,z
y,-x,z
x,-y,-z
-x,y,-z
y,x,-z
-y,-x,-z
1/2+x,1/2+y,1/2+z
1/2-y,1/2+x,1/2+z
1/2-x,1/2-y,1/2+z
1/2+y,1/2-x,1/2+z
1/2+x,1/2-y,1/2-z
1/2-x,1/2+y,1/2-z
1/2+y,1/2+x,1/2-z
1/2-y,1/2-x,1/2-z
loop_
_atom_site_type_symbol
_atom_site_label
_atom_site_fract_x
_atom_site_fract_y
_atom_site_fract_z
Si Si1 0.251754 0.748247 0.500000
Si Si2 0.112227 0.200311 0.299486
Si Si3 0.000000 0.500000 0.250000
Si Si4 0.788449 0.056642 0.636977
Si Si5 0.624152 0.046404 0.139513
Si Si6 0.161194 0.782813 0.822264
Si Si7 0.798314 0.559611 0.053728
Si Si8 0.700188 0.133949 0.898995
O O1 0.159052 0.738720 0.536162
O O2 0.242837 0.663059 0.458227
O O3 0.126502 0.112629 0.339200
O O4 0.123602 0.176784 0.235078
O O5 0.195701 0.270369 0.310887
O O6 0.013696 0.241258 0.313894
O O7 0.979385 0.579905 0.201383
O O8 0.713283 0.131796 0.621718
O O9 0.786073 0.994952 0.581633
O O10 0.727788 0.082237 0.146649
O O11 0.572284 0.122256 0.101100
O O12 0.638645 0.955285 0.103573
O O13 0.216444 0.859044 0.855524
O O14 0.829377 0.500000 0.000000
#
# Coordination Sequence:
#
# PCOD9551419 Si02
#       8
#     8  16   4  16  16  16  16  16
#     4  12  24  50  62  99 141 188 234 284 354 420
#     4  10  22  38  66  90 141 181 222 283 346 432
#     4  12  28  40  66 120 156 168 228 310 364 428
#     4  11  22  43  62  98 135 175 229 275 354 414
#     4  12  26  44  71 107 141 180 236 297 364 426
#     4  10  22  42  63  96 135 185 223 282 359 427
#     4  12  25  45  72  98 143 185 235 301 353 421
#     4  11  25  43  70  96 134 190 233 287 359 431
#
# _framework density 21.248517
#
# number of rings (size 3 to 8) (size 9 to 14) (size 15 to 20)
#    0.000    0.889    4.444    2.667    4.148    2.074 
#    2.667    0.000    0.000    1.556    0.000    1.037 
#    0.000    0.000    0.000    0.000    0.000    0.000 
#
# Total GULP energy -300876.793497 kJ/mol
# GULP energy per Si atom -5571.792472 kJ/mol
# Density = 2.120015 g / cm^3
# Si number density = 21.248517 Si / 1000 Ang^3
#
#
#
# Elastic Constant Matrix: (Units=GPa)
#
#
# Indices 1 2 3 4 5 6 
#
# 1 41.6405 9.3783 39.5764 0.0000 0.0000 0.0000
# 2 9.3783 41.6413 39.5766 0.0000 0.0000 0.0000
# 3 39.5764 39.5766 134.8066 0.0000 0.0000 0.0000
# 4 0.0000 0.0000 0.0000 38.0439 0.0000 0.0000
# 5 0.0000 0.0000 0.0000 0.0000 38.0439 0.0000
# 6 0.0000 0.0000 0.0000 0.0000 0.0000 19.8550
#
#
#
# Elastic Compliance Matrix: (Units=1/GPa)
#
#
# Indices 1 2 3 4 5 6 
#
# 1 0.033496 0.002500 -0.010568 0.000000 0.000000 0.000000
# 2 0.002500 0.033495 -0.010567 0.000000 0.000000 0.000000
# 3 -0.010568 -0.010567 0.013623 0.000000 0.000000 0.000000
# 4 0.000000 0.000000 0.000000 0.026285 0.000000 0.000000
# 5 0.000000 0.000000 0.000000 0.000000 0.026285 0.000000
# 6 0.000000 0.000000 0.000000 0.000000 0.000000 0.050365
#
#
# Mechanical properties :
#
#
# Convention : Reuss Voigt Hill
#
# Bulk Modulus (GPa) = 23.07157 43.90567 33.48862
# Shear Modulus (GPa) = 21.25238 27.82570 24.53904
#
# Velocity S-wave (km/s) = 3.16600 3.62268 3.40201
# Velocity P-wave (km/s) = 4.92405 6.18111 5.58804
#
# Compressibility (1/GPa) = 0.04334338
#
# Stress axis : x y z
#
# Youngs Moduli (GPa) = 29.85445 29.85516 73.40615
#
# Poissons Ratio (x) = -0.07463 0.77573
# Poissons Ratio (y) = -0.07463 0.77571
# Poissons Ratio (z) = 0.31549 0.31549
#
# Static dielectric constant tensor:
#      x y z
#    x 1.823530 0.000000 0.000000 
#    y 0.000000 1.823530 0.000000 
#    z 0.000000 0.000000 1.814620 
# 
# From -- ./inp_files/7303.got.cif
#   From: 2010.05.17/outbox.cif.g08.bks.cpg/sg97_4_cif.got.tgz:7303.got - 2010.06.03 19:55:32.
