data_PCOD9551999
_publ_section_title
;
Structure prediction by ZEFSAII (Michael W. Deem and Ramdas Pophale) SiO2 
 PCOD9551999
Probable space group: I 41 2 2
;
_chemical_formula_sum "Si O2"
_cell_formula_units_Z 44
_cell_length_a 14.148128
_cell_length_b 14.148128
_cell_length_c 9.725814
_cell_angle_alpha 90.000000
_cell_angle_beta 90.000000
_cell_angle_gamma 90.000000
_cell_volume 1946.811577
_symmetry_space_group_name_H-M "I 41 2 2"
_symmetry_group_IT_number 98
_symmetry_cell_setting 'tetragonal'
loop_
_space_group_symop_operation_xyz
x,y,z
-y,1/2+x,1/4+z
-x,-y,z
y,1/2-x,1/4+z
x,1/2-y,1/4-z
-x,1/2+y,1/4-z
y,x,-z
-y,-x,-z
1/2+x,1/2+y,1/2+z
1/2-y,x,3/4+z
1/2-x,1/2-y,1/2+z
1/2+y,-x,3/4+z
1/2+x,-y,3/4-z
1/2-x,y,3/4-z
1/2+y,1/2+x,1/2-z
1/2-y,1/2-x,1/2-z
loop_
_atom_site_type_symbol
_atom_site_label
_atom_site_fract_x
_atom_site_fract_y
_atom_site_fract_z
Si Si1 0.354872 0.580716 0.313416
Si Si2 0.187568 0.187568 0.500000
Si Si3 0.500000 0.000000 0.750000
Si Si4 0.032776 0.766203 0.465013
O O1 0.250000 0.595232 0.375000
O O2 0.410129 0.498907 0.395857
O O3 0.423660 0.668961 0.342618
O O4 0.342472 0.567149 0.148955
O O5 0.218685 0.250000 0.625000
O O6 0.078166 0.211133 0.471969
O O7 0.061399 0.750000 0.625000
#
# Coordination Sequence:
#
# PCOD9551999 Si02
#       4
#    16   8   4  16
#     4  12  26  50  79 111 153 204 267 321 402 479
#     4  10  26  47  71 110 154 206 258 322 402 465
#     4  12  28  46  82 120 154 214 258 342 408 478
#     4  11  26  48  76 114 155 204 263 331 400 478
#
# _framework density 22.601057000000001
#
# number of rings (size 3 to 8) (size 9 to 14) (size 15 to 20)
#    0.000    0.727    3.636    1.091   10.182    7.273 
#    0.000    0.000    0.000    0.000    0.000    0.000 
#    0.000    0.000    0.000    0.000    0.000    0.000 
#
# Total GULP energy -122499.850898 kJ/mol
# GULP energy per Si atom -5568.175041 kJ/mol
# Density = 2.254962 g / cm^3
# Si number density = 22.601057 Si / 1000 Ang^3
#
#
#
# Elastic Constant Matrix: (Units=GPa)
#
#
# Indices 1 2 3 4 5 6 
#
# 1 53.3262 112.1308 61.5311 0.0000 0.0000 0.0000
# 2 112.1308 53.3262 61.5311 0.0000 0.0000 0.0000
# 3 61.5311 61.5311 198.7466 0.0000 0.0000 0.0000
# 4 0.0000 0.0000 0.0000 41.5226 0.0000 0.0000
# 5 0.0000 0.0000 0.0000 0.0000 41.5226 0.0000
# 6 0.0000 0.0000 0.0000 0.0000 0.0000 38.4285
#
#
#
# Elastic Compliance Matrix: (Units=1/GPa)
#
#
# Indices 1 2 3 4 5 6 
#
# 1 -0.004577 0.012429 -0.002431 0.000000 0.000000 0.000000
# 2 0.012429 -0.004577 -0.002431 0.000000 0.000000 0.000000
# 3 -0.002431 -0.002431 0.006537 0.000000 0.000000 0.000000
# 4 0.000000 0.000000 0.000000 0.024083 0.000000 0.000000
# 5 0.000000 0.000000 0.000000 0.000000 0.024083 0.000000
# 6 0.000000 0.000000 0.000000 0.000000 0.000000 0.026022
#
#
# Mechanical properties :
#
#
# Convention : Reuss Voigt Hill
#
# Bulk Modulus (GPa) = 79.89207 86.19834 83.04521
# Shear Modulus (GPa) = 82.49379 28.97515 55.73447
#
# Velocity S-wave (km/s) = 6.04807 3.58442 4.97128
# Velocity P-wave (km/s) = 9.17594 7.43994 8.35316
#
# Compressibility (1/GPa) = 0.01251689
#
# Stress axis : x y z
#
# Youngs Moduli (GPa) = -218.49400 -218.49400 152.98159
#
# Poissons Ratio (x) = 2.71560 0.37189
# Poissons Ratio (y) = 2.71560 0.37189
# Poissons Ratio (z) = -0.53114 -0.53114
#
# Static dielectric constant tensor:
#      x y z
#    x 1.886660 0.000000 0.000000 
#    y 0.000000 1.886660 0.000000 
#    z 0.000000 0.000000 1.815700 
# 
# From -- ./inp_files/4487.got.cif
#   From: 2010.05.17/outbox.cif.g08.bks.cpg/sg98_3_cif.got.tgz:4487.got - 2010.06.03 20:00:51.
