data_PCOD9551486
_publ_section_title
;
Structure prediction by ZEFSAII (Michael W. Deem and Ramdas Pophale) SiO2 
 PCOD9551486
Probable space group: I 4 2 2 
;
_chemical_formula_sum "Si O2"
_cell_formula_units_Z 44
_cell_length_a 11.101683
_cell_length_b 11.101683
_cell_length_c 17.328983
_cell_angle_alpha 90.000000
_cell_angle_beta 90.000000
_cell_angle_gamma 90.000000
_cell_volume 2135.751500
_symmetry_space_group_name_H-M "I 4 2 2 "
_symmetry_group_IT_number 97
_symmetry_cell_setting 'tetragonal'
loop_
_space_group_symop_operation_xyz
x,y,z
-y,x,z
-x,-y,z
y,-x,z
x,-y,-z
-x,y,-z
y,x,-z
-y,-x,-z
1/2+x,1/2+y,1/2+z
1/2-y,1/2+x,1/2+z
1/2-x,1/2-y,1/2+z
1/2+y,1/2-x,1/2+z
1/2+x,1/2-y,1/2-z
1/2-x,1/2+y,1/2-z
1/2+y,1/2+x,1/2-z
1/2-y,1/2-x,1/2-z
loop_
_atom_site_type_symbol
_atom_site_label
_atom_site_fract_x
_atom_site_fract_y
_atom_site_fract_z
Si Si1 0.500000 0.000000 0.500000
Si Si2 0.145036 0.145036 0.500000
Si Si3 0.161152 0.351683 0.881619
Si Si4 0.696057 0.456206 0.256488
O O1 0.583333 0.919833 0.445057
O O2 0.218785 0.193674 0.426263
O O3 0.000000 0.162542 0.500000
O O4 0.210795 0.435657 0.812833
O O5 0.076848 0.256462 0.837865
O O6 0.638999 0.587211 0.249353
#
# Coordination Sequence:
#
# PCOD9551486 Si02
#       4
#     4   8  16  16
#     4  12  28  42  62 110 136 178 220 294 350 406
#     4  11  22  40  68 101 134 178 232 285 334 414
#     4  11  25  42  68  97 140 175 225 285 351 406
#     4  10  24  45  68  96 131 184 231 278 335 418
#
# _framework density 20.601645999999999
#
# number of rings (size 3 to 8) (size 9 to 14) (size 15 to 20)
#    0.000    1.273    1.818    2.182    5.091    8.727 
#    0.000    0.000    0.000    0.000    0.000    0.000 
#    0.000    0.000    0.000    0.000    0.000    0.000 
#
# Total GULP energy -122902.290527 kJ/mol
# GULP energy per Si atom -5586.467751 kJ/mol
# Density = 2.055476 g / cm^3
# Si number density = 20.601646 Si / 1000 Ang^3
#
#
#
# Elastic Constant Matrix: (Units=GPa)
#
#
# Indices 1 2 3 4 5 6 
#
# 1 71.1377 45.7124 50.2553 0.0000 0.0000 0.0000
# 2 45.7124 71.1377 50.2553 0.0000 0.0000 0.0000
# 3 50.2553 50.2553 144.7876 0.0000 0.0000 0.0000
# 4 0.0000 0.0000 0.0000 42.9359 0.0000 0.0000
# 5 0.0000 0.0000 0.0000 0.0000 42.9359 0.0000
# 6 0.0000 0.0000 0.0000 0.0000 0.0000 -7.1030
#
#
#
# Elastic Compliance Matrix: (Units=1/GPa)
#
#
# Indices 1 2 3 4 5 6 
#
# 1 0.025766 -0.013565 -0.004235 0.000000 0.000000 0.000000
# 2 -0.013565 0.025766 -0.004235 0.000000 0.000000 0.000000
# 3 -0.004235 -0.004235 0.009846 0.000000 0.000000 0.000000
# 4 0.000000 0.000000 0.000000 0.023291 0.000000 0.000000
# 5 0.000000 0.000000 0.000000 0.000000 0.023291 0.000000
# 6 0.000000 0.000000 0.000000 0.000000 0.000000 -0.140786
#
#
# Mechanical properties :
#
#
# Convention : Reuss Voigt Hill
#
# Bulk Modulus (GPa) = 57.77517 64.38989 61.08253
# Shear Modulus (GPa) = 293.91025 25.14310 159.52667
#
# Velocity S-wave (km/s) = 11.95714 3.49727 8.80920
# Velocity P-wave (km/s) = 14.78972 6.90148 11.54050
#
# Compressibility (1/GPa) = 0.01730847
#
# Stress axis : x y z
#
# Youngs Moduli (GPa) = 38.81119 38.81119 101.55965
#
# Poissons Ratio (x) = 0.52648 0.43008
# Poissons Ratio (y) = 0.52648 0.43008
# Poissons Ratio (z) = 0.16436 0.16436
#
# Static dielectric constant tensor:
#      x y z
#    x 1.754980 0.000000 0.000000 
#    y 0.000000 1.754980 0.000000 
#    z 0.000000 0.000000 1.721590 
# 
# From -- ./inp_files/5269.got.cif
#   From: 2010.05.17/outbox.cif.g08.bks.cpg/sg97_3_cif.got.tgz:5269.got - 2010.06.03 19:55:32.
