data_PCOD9551135
_publ_section_title
;
Structure prediction by ZEFSAII (Michael W. Deem and Ramdas Pophale) SiO2 
 PCOD9551135
Probable space group: P 43 21 2
;
_chemical_formula_sum "Si O2"
_cell_formula_units_Z 60
_cell_length_a 18.146289
_cell_length_b 18.146289
_cell_length_c 9.104078
_cell_angle_alpha 90.000000
_cell_angle_beta 90.000000
_cell_angle_gamma 90.000000
_cell_volume 2997.861856
_symmetry_space_group_name_H-M "P 43 21 2"
_symmetry_group_IT_number 96
_symmetry_cell_setting 'tetragonal'
loop_
_space_group_symop_operation_xyz
x,y,z
1/2-y,1/2+x,3/4+z
-x,-y,1/2+z
1/2+y,1/2-x,1/4+z
1/2+x,1/2-y,1/4-z
1/2-x,1/2+y,3/4-z
y,x,-z
-y,-x,1/2-z
loop_
_atom_site_type_symbol
_atom_site_label
_atom_site_fract_x
_atom_site_fract_y
_atom_site_fract_z
Si Si1 0.814414 0.728806 0.191638
Si Si2 0.901647 0.702514 0.484281
Si Si3 0.103185 0.194741 0.260203
Si Si4 0.516932 0.729684 0.968448
Si Si5 0.812304 0.187697 0.750000
Si Si6 0.457964 0.566591 0.920223
Si Si7 0.307322 0.053254 0.497349
Si Si8 0.931637 0.543621 0.599617
O O1 0.842062 0.705778 0.352651
O O2 0.827803 0.816372 0.179946
O O3 0.730044 0.719898 0.142843
O O4 0.865975 0.683534 0.077368
O O5 0.886897 0.766415 0.602437
O O6 0.899635 0.624446 0.566419
O O7 0.982201 0.717753 0.409116
O O8 0.055114 0.121935 0.241361
O O9 0.065721 0.252599 0.367583
O O10 0.476440 0.652429 0.938643
O O11 0.602065 0.707839 0.985037
O O12 0.492617 0.767777 0.119397
O O13 0.453457 0.546544 0.750000
O O14 0.518936 0.518936 0.000000
O O15 0.377842 0.009870 0.557225
O O16 0.946822 0.504808 0.445177
#
# Coordination Sequence:
#
# PCOD9551135 Si02
#       8
#     8   8   8   8   4   8   8   8
#     4  11  24  42  74 101 132 190 232 285 357 422
#     4  11  25  48  73  98 142 187 237 298 348 429
#     4  12  21  47  73 102 134 181 240 283 351 432
#     4  11  26  44  68 104 147 180 233 294 356 425
#     4  12  26  40  72 104 144 182 238 288 356 434
#     4  12  25  43  70 104 140 186 228 281 358 435
#     4  11  25  44  70 102 136 179 238 293 344 431
#     4  12  30  48  72 103 142 190 241 298 366 424
#
# _framework density 20.014265999999999
#
# number of rings (size 3 to 8) (size 9 to 14) (size 15 to 20)
#    0.000    0.533    7.333    0.400   11.200    0.000 
#    0.000    0.000    0.000    0.000    0.000    0.000 
#    0.000    0.000    0.000    0.000    0.000    0.000 
#
# Total GULP energy -335151.630945 kJ/mol
# GULP energy per Si atom -5585.860516 kJ/mol
# Density = 1.996871 g / cm^3
# Si number density = 20.014266 Si / 1000 Ang^3
#
#
#
# Elastic Constant Matrix: (Units=GPa)
#
#
# Indices 1 2 3 4 5 6 
#
# 1 54.9372 10.0293 -2.3420 0.0000 0.0000 0.0000
# 2 10.0293 54.9379 -2.3420 0.0000 0.0000 0.0000
# 3 -2.3420 -2.3420 56.3522 0.0000 0.0000 0.0000
# 4 0.0000 0.0000 0.0000 35.4764 0.0000 0.0000
# 5 0.0000 0.0000 0.0000 0.0000 35.4755 0.0000
# 6 0.0000 0.0000 0.0000 0.0000 0.0000 26.6124
#
#
#
# Elastic Compliance Matrix: (Units=1/GPa)
#
#
# Indices 1 2 3 4 5 6 
#
# 1 0.018853 -0.003414 0.000642 0.000000 0.000000 0.000000
# 2 -0.003414 0.018853 0.000642 0.000000 0.000000 0.000000
# 3 0.000642 0.000642 0.017799 0.000000 0.000000 0.000000
# 4 0.000000 0.000000 0.000000 0.028188 0.000000 0.000000
# 5 0.000000 0.000000 0.000000 0.000000 0.028188 0.000000
# 6 0.000000 0.000000 0.000000 0.000000 0.000000 0.037577
#
#
# Mechanical properties :
#
#
# Convention : Reuss Voigt Hill
#
# Bulk Modulus (GPa) = 19.51492 19.65755 19.58623
# Shear Modulus (GPa) = 29.27378 30.23831 29.75605
#
# Velocity S-wave (km/s) = 3.82860 3.89117 3.86001
# Velocity P-wave (km/s) = 5.41442 5.48008 5.44735
#
# Compressibility (1/GPa) = 0.05124285
#
# Stress axis : x y z
#
# Youngs Moduli (GPa) = 53.04111 53.04179 56.18335
#
# Poissons Ratio (x) = 0.18111 -0.03605
# Poissons Ratio (y) = 0.18111 -0.03605
# Poissons Ratio (z) = -0.03403 -0.03403
#
# Static dielectric constant tensor:
#      x y z
#    x 1.706870 0.000000 0.000000 
#    y 0.000000 1.706870 0.000000 
#    z 0.000000 0.000000 1.695510 
# 
# From -- ./inp_files/1606.got.cif
#   From: 2010.05.17/outbox.cif.g08.bks.cpg/sg96_1_cif.got.tgz:1606.got - 2010.06.03 19:52:08.
