data_PCOD9551959
_publ_section_title
;
Structure prediction by ZEFSAII (Michael W. Deem and Ramdas Pophale) SiO2 
 PCOD9551959
Probable space group: I 41 2 2
;
_chemical_formula_sum "Si O2"
_cell_formula_units_Z 56
_cell_length_a 15.751900
_cell_length_b 15.751900
_cell_length_c 9.813641
_cell_angle_alpha 90.000000
_cell_angle_beta 90.000000
_cell_angle_gamma 90.000000
_cell_volume 2434.983702
_symmetry_space_group_name_H-M "I 41 2 2"
_symmetry_group_IT_number 98
_symmetry_cell_setting 'tetragonal'
loop_
_space_group_symop_operation_xyz
x,y,z
-y,1/2+x,1/4+z
-x,-y,z
y,1/2-x,1/4+z
x,1/2-y,1/4-z
-x,1/2+y,1/4-z
y,x,-z
-y,-x,-z
1/2+x,1/2+y,1/2+z
1/2-y,x,3/4+z
1/2-x,1/2-y,1/2+z
1/2+y,-x,3/4+z
1/2+x,-y,3/4-z
1/2-x,y,3/4-z
1/2+y,1/2+x,1/2-z
1/2-y,1/2-x,1/2-z
loop_
_atom_site_type_symbol
_atom_site_label
_atom_site_fract_x
_atom_site_fract_y
_atom_site_fract_z
Si Si1 0.175587 0.490208 0.143155
Si Si2 0.683765 0.316236 0.500000
Si Si3 0.309307 0.190694 0.750000
Si Si4 0.000000 0.000000 0.264944
Si Si5 0.750000 0.474912 0.875000
Si Si6 0.085476 0.585476 0.750000
O O1 0.192576 0.585148 0.199480
O O2 0.197887 0.411652 0.236908
O O3 0.229319 0.472899 0.007392
O O4 0.079654 0.488295 0.083686
O O5 0.697305 0.250000 0.625000
O O6 0.250000 0.216555 0.875000
O O7 0.016468 0.925623 0.377698
O O8 0.829401 0.419276 0.834042
#
# Coordination Sequence:
#
# PCOD9551959 Si02
#       6
#    16   8   8   8   8   8
#     4  11  25  46  75 102 148 193 241 308 375 437
#     4  12  30  48  77 116 159 195 245 296 378 468
#     4  12  30  51  78 108 148 193 262 318 376 434
#     4   9  20  41  72 100 138 190 256 292 370 448
#     4  10  24  38  72 102 152 182 242 296 388 440
#     4   9  20  39  61 108 143 192 237 303 374 458
#
# _framework density 22.998100999999998
#
# number of rings (size 3 to 8) (size 9 to 14) (size 15 to 20)
#    0.000    1.429    0.000    2.571   16.000    0.000 
#    0.000    0.000    0.000    0.000    0.000    0.000 
#    0.000    0.000    0.000    0.000    0.000    0.000 
#
# Total GULP energy -156280.455233 kJ/mol
# GULP energy per Si atom -5581.444830 kJ/mol
# Density = 2.294576 g / cm^3
# Si number density = 22.998101 Si / 1000 Ang^3
#
#
#
# Elastic Constant Matrix: (Units=GPa)
#
#
# Indices 1 2 3 4 5 6 
#
# 1 102.8372 29.9275 63.0016 0.0000 0.0000 0.0000
# 2 29.9275 102.8377 63.0007 0.0000 0.0000 0.0000
# 3 63.0016 63.0007 154.1453 0.0000 0.0000 0.0000
# 4 0.0000 0.0000 0.0000 24.3752 0.0000 0.0000
# 5 0.0000 0.0000 0.0000 0.0000 24.3743 0.0000
# 6 0.0000 0.0000 0.0000 0.0000 0.0000 4.4609
#
#
#
# Elastic Compliance Matrix: (Units=1/GPa)
#
#
# Indices 1 2 3 4 5 6 
#
# 1 0.013010 -0.000705 -0.005029 0.000000 0.000000 0.000000
# 2 -0.000705 0.013010 -0.005029 0.000000 0.000000 0.000000
# 3 -0.005029 -0.005029 0.010598 0.000000 0.000000 0.000000
# 4 0.000000 0.000000 0.000000 0.041025 0.000000 0.000000
# 5 0.000000 0.000000 0.000000 0.000000 0.041027 0.000000
# 6 0.000000 0.000000 0.000000 0.000000 0.000000 0.224168
#
#
# Mechanical properties :
#
#
# Convention : Reuss Voigt Hill
#
# Bulk Modulus (GPa) = 66.26152 74.63109 70.44631
# Shear Modulus (GPa) = 13.53555 24.23478 18.88517
#
# Velocity S-wave (km/s) = 2.42864 3.24971 2.86870
# Velocity P-wave (km/s) = 6.06124 6.82658 6.45527
#
# Compressibility (1/GPa) = 0.01509171
#
# Stress axis : x y z
#
# Youngs Moduli (GPa) = 76.86104 76.86225 94.35322
#
# Poissons Ratio (x) = 0.05420 0.47454
# Poissons Ratio (y) = 0.05420 0.47452
# Poissons Ratio (z) = 0.38656 0.38656
#
# Static dielectric constant tensor:
#      x y z
#    x 1.979590 0.000000 0.000000 
#    y 0.000000 1.979590 0.000000 
#    z 0.000000 0.000000 1.799180 
# 
# From -- ./inp_files/3100.got.cif
#   From: 2010.05.17/outbox.cif.g08.bks.cpg/sg98_2_cif.got.tgz:3100.got - 2010.06.03 20:00:51.
