data_PCOD9551151
_publ_section_title
;
Structure prediction by ZEFSAII (Michael W. Deem and Ramdas Pophale) SiO2 
 PCOD9551151
Probable space group: P 43 21 2
;
_chemical_formula_sum "Si O2"
_cell_formula_units_Z 40
_cell_length_a 10.941441
_cell_length_b 10.941441
_cell_length_c 16.436448
_cell_angle_alpha 90.000000
_cell_angle_beta 90.000000
_cell_angle_gamma 90.000000
_cell_volume 1967.691528
_symmetry_space_group_name_H-M "P 43 21 2"
_symmetry_group_IT_number 96
_symmetry_cell_setting 'tetragonal'
loop_
_space_group_symop_operation_xyz
x,y,z
1/2-y,1/2+x,3/4+z
-x,-y,1/2+z
1/2+y,1/2-x,1/4+z
1/2+x,1/2-y,1/4-z
1/2-x,1/2+y,3/4-z
y,x,-z
-y,-x,1/2-z
loop_
_atom_site_type_symbol
_atom_site_label
_atom_site_fract_x
_atom_site_fract_y
_atom_site_fract_z
Si Si1 0.908946 0.409611 0.835721
Si Si2 0.843461 0.042702 0.910268
Si Si3 0.308846 0.308846 0.000000
Si Si4 0.153088 0.523065 0.756784
Si Si5 0.183599 0.816402 0.250000
Si Si6 0.091332 0.894298 0.579708
O O1 0.783780 0.477206 0.858950
O O2 0.856171 0.322931 0.763797
O O3 0.026547 0.484304 0.801803
O O4 0.956004 0.347035 0.919178
O O5 0.971276 0.969511 0.916815
O O6 0.864623 0.126244 0.832585
O O7 0.823598 0.101638 0.999403
O O8 0.338016 0.166371 0.009513
O O9 0.350366 0.373715 0.082782
O O10 0.275071 0.491062 0.808908
#
# Coordination Sequence:
#
# PCOD9551151 Si02
#       6
#     8   8   4   8   4   8
#     4  12  26  47  72 112 149 199 249 318 379 455
#     4  11  25  44  72 104 150 191 251 305 377 446
#     4  12  27  46  75 108 150 200 256 310 385 455
#     4  12  26  48  75 108 150 194 259 318 378 448
#     4  12  23  42  73 104 144 198 242 300 383 453
#     4  11  25  47  68 106 146 197 244 314 369 450
#
# _framework density 20.328389999999999
#
# number of rings (size 3 to 8) (size 9 to 14) (size 15 to 20)
#    0.000    0.400    6.000    3.000    2.800    1.600 
#    3.600    0.000    0.000    0.000    0.000    0.000 
#    0.000    0.000    0.000    0.000    0.000    0.000 
#
# Total GULP energy -222850.903349 kJ/mol
# GULP energy per Si atom -5571.272584 kJ/mol
# Density = 2.028212 g / cm^3
# Si number density = 20.328390 Si / 1000 Ang^3
#
#
#
# Elastic Constant Matrix: (Units=GPa)
#
#
# Indices 1 2 3 4 5 6 
#
# 1 103.4116 46.0408 45.9159 0.0000 0.0000 0.0000
# 2 46.0408 103.4112 45.9159 0.0000 0.0000 0.0000
# 3 45.9159 45.9159 137.0623 0.0000 0.0000 0.0000
# 4 0.0000 0.0000 0.0000 40.9731 0.0000 0.0000
# 5 0.0000 0.0000 0.0000 0.0000 40.9739 0.0000
# 6 0.0000 0.0000 0.0000 0.0000 0.0000 22.6395
#
#
#
# Elastic Compliance Matrix: (Units=1/GPa)
#
#
# Indices 1 2 3 4 5 6 
#
# 1 0.012928 -0.004503 -0.002823 0.000000 0.000000 0.000000
# 2 -0.004503 0.012928 -0.002823 0.000000 0.000000 0.000000
# 3 -0.002823 -0.002823 0.009187 0.000000 0.000000 0.000000
# 4 0.000000 0.000000 0.000000 0.024406 0.000000 0.000000
# 5 0.000000 0.000000 0.000000 0.000000 0.024406 0.000000
# 6 0.000000 0.000000 0.000000 0.000000 0.000000 0.044171
#
#
# Mechanical properties :
#
#
# Convention : Reuss Voigt Hill
#
# Bulk Modulus (GPa) = 67.80671 68.84782 68.32727
# Shear Modulus (GPa) = 32.62926 34.65148 33.64037
#
# Velocity S-wave (km/s) = 4.01073 4.13314 4.07239
# Velocity P-wave (km/s) = 7.40783 7.53117 7.46975
#
# Compressibility (1/GPa) = 0.01474780
#
# Stress axis : x y z
#
# Youngs Moduli (GPa) = 77.35184 77.35151 108.84904
#
# Poissons Ratio (x) = 0.34828 0.30723
# Poissons Ratio (y) = 0.34828 0.30723
# Poissons Ratio (z) = 0.21833 0.21833
#
# Static dielectric constant tensor:
#      x y z
#    x 1.354280 0.000000 0.000000 
#    y 0.000000 1.354230 0.000000 
#    z 0.000000 0.000000 1.788530 
# 
# From -- ./inp_files/2680.got.cif
#   From: 2010.05.17/outbox.cif.g08.bks.cpg/sg96_2_cif.got.tgz:2680.got - 2010.06.03 19:52:08.
