data_PCOD9551642
_publ_section_title
;
Structure prediction by ZEFSAII (Michael W. Deem and Ramdas Pophale) SiO2 
 PCOD9551642
Probable space group: I 41 2 2
;
_chemical_formula_sum "Si O2"
_cell_formula_units_Z 88
_cell_length_a 12.550401
_cell_length_b 12.550401
_cell_length_c 26.766488
_cell_angle_alpha 90.000000
_cell_angle_beta 90.000000
_cell_angle_gamma 90.000000
_cell_volume 4216.058188
_symmetry_space_group_name_H-M "I 41 2 2"
_symmetry_group_IT_number 98
_symmetry_cell_setting 'tetragonal'
loop_
_space_group_symop_operation_xyz
x,y,z
-y,1/2+x,1/4+z
-x,-y,z
y,1/2-x,1/4+z
x,1/2-y,1/4-z
-x,1/2+y,1/4-z
y,x,-z
-y,-x,-z
1/2+x,1/2+y,1/2+z
1/2-y,x,3/4+z
1/2-x,1/2-y,1/2+z
1/2+y,-x,3/4+z
1/2+x,-y,3/4-z
1/2-x,y,3/4-z
1/2+y,1/2+x,1/2-z
1/2-y,1/2-x,1/2-z
loop_
_atom_site_type_symbol
_atom_site_label
_atom_site_fract_x
_atom_site_fract_y
_atom_site_fract_z
Si Si1 0.000000 0.500000 0.376852
Si Si2 0.180879 0.410680 0.302340
Si Si3 0.770483 0.144168 0.949423
Si Si4 0.893932 0.571038 0.613496
Si Si5 0.180614 0.236796 0.555507
Si Si6 0.085486 0.707034 0.395192
O O1 0.089348 0.448733 0.340295
O O2 0.025578 0.600581 0.410796
O O3 0.124892 0.375109 0.250000
O O4 0.252406 0.517419 0.298849
O O5 0.244420 0.305603 0.319237
O O6 0.849024 0.167962 0.903430
O O7 0.671413 0.222127 0.938612
O O8 0.828132 0.171869 0.000000
O O9 0.869984 0.645506 0.565063
O O10 0.883799 0.656186 0.658968
O O11 0.800199 0.488939 0.627008
O O12 0.000000 0.500000 0.610086
O O13 0.189156 0.189156 0.500000
#
# Coordination Sequence:
#
# PCOD9551642 Si02
#       6
#     8  16  16  16  16  16
#     4  10  17  32  62  92 132 172 222 276 355 420
#     4  10  18  33  62  95 138 172 221 277 355 426
#     4  10  22  36  60  98 139 179 213 282 349 439
#     4  11  25  48  71  95 140 191 234 299 363 416
#     4  10  24  44  70 104 130 181 250 297 347 429
#     4  10  22  39  61  96 130 179 226 275 360 421
#
# _framework density 20.872577
#
# number of rings (size 3 to 8) (size 9 to 14) (size 15 to 20)
#    0.000    1.818    1.818    2.455    5.091    4.727 
#    6.545    0.000    0.000    0.000    0.000    0.000 
#    0.000    0.000    0.000    0.000    0.000    0.000 
#
# Total GULP energy -245127.557696 kJ/mol
# GULP energy per Si atom -5571.080857 kJ/mol
# Density = 2.082507 g / cm^3
# Si number density = 20.872577 Si / 1000 Ang^3
#
#
#
# Elastic Constant Matrix: (Units=GPa)
#
#
# Indices 1 2 3 4 5 6 
#
# 1 102.8745 58.7864 17.5064 0.0000 0.0000 0.0000
# 2 58.7864 102.8745 17.5071 0.0000 0.0000 0.0000
# 3 17.5064 17.5071 60.2855 0.0000 0.0000 0.0000
# 4 0.0000 0.0000 0.0000 -4.1472 0.0000 0.0000
# 5 0.0000 0.0000 0.0000 0.0000 -4.1469 0.0000
# 6 0.0000 0.0000 0.0000 0.0000 0.0000 41.1083
#
#
#
# Elastic Compliance Matrix: (Units=1/GPa)
#
#
# Indices 1 2 3 4 5 6 
#
# 1 0.014641 -0.008040 -0.001917 0.000000 0.000000 0.000000
# 2 -0.008040 0.014641 -0.001917 0.000000 0.000000 0.000000
# 3 -0.001917 -0.001917 0.017701 0.000000 0.000000 0.000000
# 4 0.000000 0.000000 0.000000 -0.241127 0.000000 0.000000
# 5 0.000000 0.000000 0.000000 0.000000 -0.241144 0.000000
# 6 0.000000 0.000000 0.000000 0.000000 0.000000 0.024326
#
#
# Mechanical properties :
#
#
# Convention : Reuss Voigt Hill
#
# Bulk Modulus (GPa) = 43.03785 50.40384 46.72085
# Shear Modulus (GPa) = -13.17634 18.04516 2.43441
#
# Velocity S-wave (km/s) = -2.51524 2.94349 1.08113
# Velocity P-wave (km/s) = 3.49697 5.97938 4.89805
#
# Compressibility (1/GPa) = 0.02323536
#
# Stress axis : x y z
#
# Youngs Moduli (GPa) = 68.29958 68.29930 56.49381
#
# Poissons Ratio (x) = 0.54916 0.10829
# Poissons Ratio (y) = 0.54916 0.10830
# Poissons Ratio (z) = 0.13091 0.13093
#
# Static dielectric constant tensor:
#      x y z
#    x 1.835040 0.000000 0.000000 
#    y 0.000000 1.835040 0.000000 
#    z 0.000000 0.000000 1.783770 
# 
# From -- ./inp_files/11900.got.cif
#   From: 2010.05.17/outbox.cif.g08.bks.cpg/sg98_6_cif.got.tgz:11900.got - 2010.06.03 20:00:51.
