data_PCOD9551940
_publ_section_title
;
Structure prediction by ZEFSAII (Michael W. Deem and Ramdas Pophale) SiO2 
 PCOD9551940
Probable space group: I 41 2 2
;
_chemical_formula_sum "Si O2"
_cell_formula_units_Z 116
_cell_length_a 17.304488
_cell_length_b 17.304488
_cell_length_c 18.343867
_cell_angle_alpha 90.000000
_cell_angle_beta 90.000000
_cell_angle_gamma 90.000000
_cell_volume 5492.984848
_symmetry_space_group_name_H-M "I 41 2 2"
_symmetry_group_IT_number 98
_symmetry_cell_setting 'tetragonal'
loop_
_space_group_symop_operation_xyz
x,y,z
-y,1/2+x,1/4+z
-x,-y,z
y,1/2-x,1/4+z
x,1/2-y,1/4-z
-x,1/2+y,1/4-z
y,x,-z
-y,-x,-z
1/2+x,1/2+y,1/2+z
1/2-y,x,3/4+z
1/2-x,1/2-y,1/2+z
1/2+y,-x,3/4+z
1/2+x,-y,3/4-z
1/2-x,y,3/4-z
1/2+y,1/2+x,1/2-z
1/2-y,1/2-x,1/2-z
loop_
_atom_site_type_symbol
_atom_site_label
_atom_site_fract_x
_atom_site_fract_y
_atom_site_fract_z
Si Si1 0.933182 0.651274 0.430669
Si Si2 0.020049 0.091388 0.668037
Si Si3 0.810892 0.980076 0.808784
Si Si4 0.000000 0.500000 0.250000
Si Si5 0.379957 0.636663 0.915039
Si Si6 0.313643 0.722599 0.422627
Si Si7 0.915673 0.418642 0.140650
Si Si8 0.189513 0.456582 0.611080
O O1 0.973569 0.643782 0.509956
O O2 0.856452 0.600367 0.432587
O O3 0.919940 0.736684 0.400282
O O4 0.995404 0.607590 0.380732
O O5 0.108355 0.089817 0.638928
O O6 0.951256 0.120110 0.615529
O O7 0.000000 0.000000 0.685494
O O8 0.750000 0.986768 0.875000
O O9 0.788864 0.979486 0.723037
O O10 0.871026 0.050288 0.822948
O O11 0.985359 0.425800 0.198734
O O12 0.332921 0.695849 0.863741
O O13 0.466339 0.668503 0.904981
O O14 0.358999 0.641002 0.000000
O O15 0.274065 0.725936 0.500000
O O16 0.250000 0.679943 0.375000
O O17 0.383544 0.662840 0.422145
#
# Coordination Sequence:
#
# PCOD9551940 Si02
#       8
#    16  16  16   4  16  16  16  16
#     4  11  21  40  67  95 138 174 227 279 339 411
#     4   9  21  42  70 102 135 178 231 289 346 410
#     4  11  25  39  63  98 138 185 218 272 337 412
#     4  12  24  36  60 104 120 180 238 272 314 404
#     4  11  24  45  71  98 133 181 239 285 338 416
#     4  12  28  41  60  98 143 185 214 272 345 416
#     4  12  23  38  62  92 137 177 229 269 321 405
#     4  10  23  41  67 101 129 173 231 288 347 398
#
# _framework density 21.117844000000002
#
# number of rings (size 3 to 8) (size 9 to 14) (size 15 to 20)
#    0.000    1.103    3.448    3.310    7.724    4.138 
#    0.000    0.000    0.000    7.448    0.000    0.000 
#    0.000    0.000    0.000    0.000    0.000    0.000 
#
# Total GULP energy -323510.381708 kJ/mol
# GULP energy per Si atom -5577.765202 kJ/mol
# Density = 2.106978 g / cm^3
# Si number density = 21.117844 Si / 1000 Ang^3
#
#
#
# Elastic Constant Matrix: (Units=GPa)
#
#
# Indices 1 2 3 4 5 6 
#
# 1 106.4634 37.0353 51.2413 0.0000 0.0000 0.0000
# 2 37.0353 106.4633 51.2412 0.0000 0.0000 0.0000
# 3 51.2413 51.2412 140.6548 0.0000 0.0000 0.0000
# 4 0.0000 0.0000 0.0000 29.1905 0.0000 0.0000
# 5 0.0000 0.0000 0.0000 0.0000 29.1906 0.0000
# 6 0.0000 0.0000 0.0000 0.0000 0.0000 19.7766
#
#
#
# Elastic Compliance Matrix: (Units=1/GPa)
#
#
# Indices 1 2 3 4 5 6 
#
# 1 0.011911 -0.002492 -0.003432 0.000000 0.000000 0.000000
# 2 -0.002492 0.011911 -0.003432 0.000000 0.000000 0.000000
# 3 -0.003432 -0.003432 0.009610 0.000000 0.000000 0.000000
# 4 0.000000 0.000000 0.000000 0.034258 0.000000 0.000000
# 5 0.000000 0.000000 0.000000 0.000000 0.034258 0.000000
# 6 0.000000 0.000000 0.000000 0.000000 0.000000 0.050565
#
#
# Mechanical properties :
#
#
# Convention : Reuss Voigt Hill
#
# Bulk Modulus (GPa) = 67.92313 70.29079 69.10696
# Shear Modulus (GPa) = 28.38804 29.90245 29.14525
#
# Velocity S-wave (km/s) = 3.67040 3.76703 3.71903
# Velocity P-wave (km/s) = 7.08493 7.23035 7.15801
#
# Compressibility (1/GPa) = 0.01472253
#
# Stress axis : x y z
#
# Youngs Moduli (GPa) = 83.95318 83.95312 104.05978
#
# Poissons Ratio (x) = 0.20921 0.35709
# Poissons Ratio (y) = 0.20921 0.35709
# Poissons Ratio (z) = 0.28809 0.28809
#
# Static dielectric constant tensor:
#      x y z
#    x 1.777350 0.000000 0.000000 
#    y 0.000000 1.777350 0.000000 
#    z 0.000000 0.000000 1.819980 
# 
# From -- ./inp_files/7835.got.cif
#   From: 2010.05.17/outbox.cif.g08.bks.cpg/sg98_4_cif.got.tgz:7835.got - 2010.06.03 20:00:51.
