data_PCOD9551083
_publ_section_title
;
Structure prediction by ZEFSAII (Michael W. Deem and Ramdas Pophale) SiO2 
 PCOD9551083
Probable space group: P 43 21 2
;
_chemical_formula_sum "Si O2"
_cell_formula_units_Z 48
_cell_length_a 18.327176
_cell_length_b 18.327176
_cell_length_c 5.972347
_cell_angle_alpha 90.000000
_cell_angle_beta 90.000000
_cell_angle_gamma 90.000000
_cell_volume 2006.024042
_symmetry_space_group_name_H-M "P 43 21 2"
_symmetry_group_IT_number 96
_symmetry_cell_setting 'tetragonal'
loop_
_space_group_symop_operation_xyz
x,y,z
1/2-y,1/2+x,3/4+z
-x,-y,1/2+z
1/2+y,1/2-x,1/4+z
1/2+x,1/2-y,1/4-z
1/2-x,1/2+y,3/4-z
y,x,-z
-y,-x,1/2-z
loop_
_atom_site_type_symbol
_atom_site_label
_atom_site_fract_x
_atom_site_fract_y
_atom_site_fract_z
Si Si1 0.572580 0.543211 0.747535
Si Si2 0.036072 0.213618 0.562043
Si Si3 0.676309 0.959909 0.350291
Si Si4 0.435643 0.068935 0.535143
Si Si5 0.830096 0.728290 0.349184
Si Si6 0.280959 0.905706 0.155884
O O1 0.581734 0.581734 0.500000
O O2 0.491311 0.508690 0.750000
O O3 0.631769 0.479174 0.739688
O O4 0.579019 0.579019 0.000000
O O5 0.045037 0.267493 0.354800
O O6 0.110132 0.226048 0.703645
O O7 0.957712 0.232179 0.684890
O O8 0.596699 0.971694 0.248473
O O9 0.682407 0.887203 0.498790
O O10 0.698856 0.033762 0.472577
O O11 0.520281 0.082274 0.572915
O O12 0.394126 0.144380 0.539682
O O13 0.782017 0.782017 0.500000
O O14 0.774865 0.673185 0.214650
#
# Coordination Sequence:
#
# PCOD9551083 Si02
#       6
#     8   8   8   8   8   8
#     4  10  25  48  80 115 145 187 255 325 394 466
#     4  11  25  46  73 102 149 191 244 312 383 456
#     4  11  23  42  67  95 141 188 237 304 360 443
#     4  12  20  36  62  94 128 179 235 285 345 418
#     4  11  26  44  72 107 142 194 251 309 387 464
#     4  11  23  45  61 101 143 186 242 293 370 450
#
# _framework density 23.927927
#
# number of rings (size 3 to 8) (size 9 to 14) (size 15 to 20)
#    0.000    1.000    3.333    3.000    7.000    0.667 
#    3.000    0.000    0.000    0.000    0.000    0.000 
#    0.000    0.000    0.000    0.000    0.000    0.000 
#
# Total GULP energy -267462.921917 kJ/mol
# GULP energy per Si atom -5572.144207 kJ/mol
# Density = 2.387347 g / cm^3
# Si number density = 23.927927 Si / 1000 Ang^3
#
#
#
# Elastic Constant Matrix: (Units=GPa)
#
#
# Indices 1 2 3 4 5 6 
#
# 1 66.9414 -4.1140 15.5463 0.0000 0.0000 0.0000
# 2 -4.1140 66.9388 15.5466 0.0000 0.0000 0.0000
# 3 15.5463 15.5466 98.9678 0.0000 0.0000 0.0000
# 4 0.0000 0.0000 0.0000 23.5714 0.0000 0.0000
# 5 0.0000 0.0000 0.0000 0.0000 23.5718 0.0000
# 6 0.0000 0.0000 0.0000 0.0000 0.0000 38.7873
#
#
#
# Elastic Compliance Matrix: (Units=1/GPa)
#
#
# Indices 1 2 3 4 5 6 
#
# 1 0.015666 0.001592 -0.002711 0.000000 0.000000 0.000000
# 2 0.001592 0.015667 -0.002711 0.000000 0.000000 0.000000
# 3 -0.002711 -0.002711 0.010956 0.000000 0.000000 0.000000
# 4 0.000000 0.000000 0.000000 0.042424 0.000000 0.000000
# 5 0.000000 0.000000 0.000000 0.000000 0.042424 0.000000
# 6 0.000000 0.000000 0.000000 0.000000 0.000000 0.025782
#
#
# Mechanical properties :
#
#
# Convention : Reuss Voigt Hill
#
# Bulk Modulus (GPa) = 28.87751 31.86731 30.37241
# Shear Modulus (GPa) = 29.04944 30.91073 29.98008
#
# Velocity S-wave (km/s) = 3.48809 3.59810 3.54352
# Velocity P-wave (km/s) = 5.32138 5.53251 5.42797
#
# Compressibility (1/GPa) = 0.03462902
#
# Stress axis : x y z
#
# Youngs Moduli (GPa) = 63.83284 63.83025 91.27382
#
# Poissons Ratio (x) = -0.10165 0.24745
# Poissons Ratio (y) = -0.10165 0.24746
# Poissons Ratio (z) = 0.17305 0.17305
#
# Static dielectric constant tensor:
#      x y z
#    x 1.960230 0.000000 0.000000 
#    y 0.000000 1.960230 0.000000 
#    z 0.000000 0.000000 2.050420 
# 
# From -- ./inp_files/635.got.cif
#   From: 2010.05.17/outbox.cif.g08.bks.cpg/sg96_1_cif.got.tgz:635.got - 2010.06.03 19:52:08.
