data_PCOD9551059
_publ_section_title
;
Structure prediction by ZEFSAII (Michael W. Deem and Ramdas Pophale) SiO2 
 PCOD9551059
Probable space group: P 43 21 2
;
_chemical_formula_sum "Si O2"
_cell_formula_units_Z 24
_cell_length_a 10.113684
_cell_length_b 10.113684
_cell_length_c 8.659155
_cell_angle_alpha 90.000000
_cell_angle_beta 90.000000
_cell_angle_gamma 90.000000
_cell_volume 885.715559
_symmetry_space_group_name_H-M "P 43 21 2"
_symmetry_group_IT_number 96
_symmetry_cell_setting 'tetragonal'
loop_
_space_group_symop_operation_xyz
x,y,z
1/2-y,1/2+x,3/4+z
-x,-y,1/2+z
1/2+y,1/2-x,1/4+z
1/2+x,1/2-y,1/4-z
1/2-x,1/2+y,3/4-z
y,x,-z
-y,-x,1/2-z
loop_
_atom_site_type_symbol
_atom_site_label
_atom_site_fract_x
_atom_site_fract_y
_atom_site_fract_z
Si Si1 0.743880 0.098689 0.421027
Si Si2 0.862196 0.762325 0.797689
Si Si3 0.781565 0.513316 0.000167
O O1 0.775568 0.253942 0.415575
O O2 0.793504 0.055286 0.592426
O O3 0.585239 0.103129 0.443911
O O4 0.500046 0.721705 0.536879
O O5 0.860013 0.341453 0.664234
O O6 0.811411 0.910184 0.843746
#
# Coordination Sequence:
#
# PCOD9551059 Si02
#       3
#     8   8   8
#     4  10  24  44  80 112 159 207 275 320 414 470
#     4  10  24  46  84 112 160 212 266 338 396 496
#     4  10  24  44  80 112 159 207 275 320 414 470
#
# _framework density 27.096734999999999
#
# number of rings (size 3 to 8) (size 9 to 14) (size 15 to 20)
#    2.000    0.000    0.000    2.000    4.667    0.000 
#    0.000    0.000   73.333    0.000    0.000    0.000 
#    0.000    0.000    0.000    0.000    0.000    0.000 
#
# Total GULP energy -133871.243906 kJ/mol
# GULP energy per Si atom -5577.968496 kJ/mol
# Density = 2.703506 g / cm^3
# Si number density = 27.096735 Si / 1000 Ang^3
#
#
#
# Elastic Constant Matrix: (Units=GPa)
#
#
# Indices 1 2 3 4 5 6 
#
# 1 132.2336 1.9095 20.9771 0.0000 0.0000 0.0000
# 2 1.9095 132.2336 20.9771 0.0000 0.0000 0.0000
# 3 20.9771 20.9771 50.9551 0.0000 0.0000 0.0000
# 4 0.0000 0.0000 0.0000 45.7325 0.0000 0.0000
# 5 0.0000 0.0000 0.0000 0.0000 45.7325 0.0000
# 6 0.0000 0.0000 0.0000 0.0000 0.0000 32.1487
#
#
#
# Elastic Compliance Matrix: (Units=1/GPa)
#
#
# Indices 1 2 3 4 5 6 
#
# 1 0.008115 0.000442 -0.003522 0.000000 0.000000 0.000000
# 2 0.000442 0.008115 -0.003522 0.000000 0.000000 0.000000
# 3 -0.003522 -0.003522 0.022525 0.000000 0.000000 0.000000
# 4 0.000000 0.000000 0.000000 0.021866 0.000000 0.000000
# 5 0.000000 0.000000 0.000000 0.000000 0.021866 0.000000
# 6 0.000000 0.000000 0.000000 0.000000 0.000000 0.031105
#
#
# Mechanical properties :
#
#
# Convention : Reuss Voigt Hill
#
# Bulk Modulus (GPa) = 39.14164 44.79443 41.96804
# Shear Modulus (GPa) = 36.95059 42.82664 39.88862
#
# Velocity S-wave (km/s) = 3.69678 3.97987 3.84093
# Velocity P-wave (km/s) = 5.71822 6.13892 5.93230
#
# Compressibility (1/GPa) = 0.02554824
#
# Stress axis : x y z
#
# Youngs Moduli (GPa) = 123.23168 123.23168 44.39438
#
# Poissons Ratio (x) = -0.05442 0.15638
# Poissons Ratio (y) = -0.05442 0.15638
# Poissons Ratio (z) = 0.43408 0.43408
#
# Static dielectric constant tensor:
#      x y z
#    x 2.106820 0.000000 0.000000 
#    y 0.000000 2.106820 0.000000 
#    z 0.000000 0.000000 2.256460 
# 
# From -- ./inp_files/2443.got.cif
#   From: 2010.05.17/outbox.cif.g08.bks.cpg/sg96_2_cif.got.tgz:2443.got - 2010.06.03 19:52:08.
