data_PCOD9551806
_publ_section_title
;
Structure prediction by ZEFSAII (Michael W. Deem and Ramdas Pophale) SiO2 
 PCOD9551806
Probable space group: I 41 2 2
;
_chemical_formula_sum "Si O2"
_cell_formula_units_Z 128
_cell_length_a 23.354546
_cell_length_b 23.354546
_cell_length_c 12.361740
_cell_angle_alpha 90.000000
_cell_angle_beta 90.000000
_cell_angle_gamma 90.000000
_cell_volume 6742.523418
_symmetry_space_group_name_H-M "I 41 2 2"
_symmetry_group_IT_number 98
_symmetry_cell_setting 'tetragonal'
loop_
_space_group_symop_operation_xyz
x,y,z
-y,1/2+x,1/4+z
-x,-y,z
y,1/2-x,1/4+z
x,1/2-y,1/4-z
-x,1/2+y,1/4-z
y,x,-z
-y,-x,-z
1/2+x,1/2+y,1/2+z
1/2-y,x,3/4+z
1/2-x,1/2-y,1/2+z
1/2+y,-x,3/4+z
1/2+x,-y,3/4-z
1/2-x,y,3/4-z
1/2+y,1/2+x,1/2-z
1/2-y,1/2-x,1/2-z
loop_
_atom_site_type_symbol
_atom_site_label
_atom_site_fract_x
_atom_site_fract_y
_atom_site_fract_z
Si Si1 0.981816 0.816579 0.127464
Si Si2 0.740381 0.993341 0.244665
Si Si3 0.991880 0.645111 0.356422
Si Si4 0.641246 0.762691 0.251836
Si Si5 0.908806 0.903737 0.613821
Si Si6 0.433910 0.977199 0.461428
Si Si7 0.360532 0.141276 0.918569
Si Si8 0.026542 0.863208 0.357205
O O1 0.995092 0.750000 0.125000
O O2 0.912317 0.823725 0.127964
O O3 0.008699 0.841444 0.237362
O O4 0.005339 0.846268 0.019136
O O5 0.750000 0.999457 0.375000
O O6 0.798500 0.005747 0.177948
O O7 0.726640 0.926105 0.216745
O O8 0.689343 0.030798 0.190706
O O9 0.922999 0.637597 0.364053
O O10 0.020270 0.591973 0.418262
O O11 0.633641 0.750000 0.125000
O O12 0.693538 0.806463 0.250000
O O13 0.658706 0.707010 0.325040
O O14 0.885177 0.885177 0.500000
O O15 0.873332 0.874535 0.706968
O O16 0.975300 0.898008 0.644132
O O17 0.898180 0.970843 0.606338
O O18 0.428441 0.914495 0.409150
O O19 0.500000 0.000000 0.466278
#
# Coordination Sequence:
#
# PCOD9551806 Si02
#       8
#    16  16  16  16  16  16  16  16
#     4  11  21  36  55  74 103 148 195 233 287 355
#     4  10  22  38  55  77 106 152 192 234 289 361
#     4  10  20  39  57  77 110 146 191 237 295 361
#     4  10  23  34  48  68  99 140 198 258 309 331
#     4   9  19  32  55  75 110 141 179 235 295 364
#     4   9  20  37  53  89 114 139 190 240 310 355
#     4   9  21  34  50  75  99 144 197 252 304 346
#     4  10  21  34  55  80 105 139 185 230 285 350
#
# _framework density 18.983989999999999
#
# number of rings (size 3 to 8) (size 9 to 14) (size 15 to 20)
#    0.000    2.250    1.250    1.125   10.500    3.250 
#    2.250    3.125    0.000    0.000    0.000    0.000 
#    0.000    0.000    0.000    3.375    0.750    0.750 
#
# Total GULP energy -356580.470032 kJ/mol
# GULP energy per Si atom -5571.569844 kJ/mol
# Density = 1.894078 g / cm^3
# Si number density = 18.983990 Si / 1000 Ang^3
#
#
#
# Elastic Constant Matrix: (Units=GPa)
#
#
# Indices 1 2 3 4 5 6 
#
# 1 47.9674 11.0921 7.2911 0.0000 0.0000 0.0000
# 2 11.0921 47.9687 7.2920 0.0000 0.0000 0.0000
# 3 7.2911 7.2920 108.7225 0.0000 0.0000 0.0000
# 4 0.0000 0.0000 0.0000 13.1352 0.0000 0.0000
# 5 0.0000 0.0000 0.0000 0.0000 13.1354 0.0000
# 6 0.0000 0.0000 0.0000 0.0000 0.0000 5.2025
#
#
#
# Elastic Compliance Matrix: (Units=1/GPa)
#
#
# Indices 1 2 3 4 5 6 
#
# 1 0.022168 -0.004950 -0.001155 0.000000 0.000000 0.000000
# 2 -0.004950 0.022167 -0.001155 0.000000 0.000000 0.000000
# 3 -0.001155 -0.001155 0.009353 0.000000 0.000000 0.000000
# 4 0.000000 0.000000 0.000000 0.076132 0.000000 0.000000
# 5 0.000000 0.000000 0.000000 0.000000 0.076130 0.000000
# 6 0.000000 0.000000 0.000000 0.000000 0.000000 0.192216
#
#
# Mechanical properties :
#
#
# Convention : Reuss Voigt Hill
#
# Bulk Modulus (GPa) = 25.53109 28.44545 26.98827
# Shear Modulus (GPa) = 11.74424 18.22684 14.98554
#
# Velocity S-wave (km/s) = 2.48994 3.10194 2.81263
# Velocity P-wave (km/s) = 4.66309 5.27691 4.97947
#
# Compressibility (1/GPa) = 0.03916793
#
# Stress axis : x y z
#
# Youngs Moduli (GPa) = 45.11061 45.11169 106.92201
#
# Poissons Ratio (x) = 0.22332 0.12345
# Poissons Ratio (y) = 0.22332 0.12347
# Poissons Ratio (z) = 0.05208 0.05209
#
# Static dielectric constant tensor:
#      x y z
#    x 1.725370 0.000000 0.000000 
#    y 0.000000 1.725370 0.000000 
#    z 0.000000 0.000000 1.744510 
# 
# From -- ./inp_files/5520.got.cif
#   From: 2010.05.17/outbox.cif.g08.bks.cpg/sg98_3_cif.got.tgz:5520.got - 2010.06.03 20:00:51.
