data_PCOD9551653
_publ_section_title
;
Structure prediction by ZEFSAII (Michael W. Deem and Ramdas Pophale) SiO2 
 PCOD9551653
Probable space group: I 41 2 2
;
_chemical_formula_sum "Si O2"
_cell_formula_units_Z 32
_cell_length_a 11.692915
_cell_length_b 11.692915
_cell_length_c 9.604400
_cell_angle_alpha 90.000000
_cell_angle_beta 90.000000
_cell_angle_gamma 90.000000
_cell_volume 1313.154494
_symmetry_space_group_name_H-M "I 41 2 2"
_symmetry_group_IT_number 98
_symmetry_cell_setting 'tetragonal'
loop_
_space_group_symop_operation_xyz
x,y,z
-y,1/2+x,1/4+z
-x,-y,z
y,1/2-x,1/4+z
x,1/2-y,1/4-z
-x,1/2+y,1/4-z
y,x,-z
-y,-x,-z
1/2+x,1/2+y,1/2+z
1/2-y,x,3/4+z
1/2-x,1/2-y,1/2+z
1/2+y,-x,3/4+z
1/2+x,-y,3/4-z
1/2-x,y,3/4-z
1/2+y,1/2+x,1/2-z
1/2-y,1/2-x,1/2-z
loop_
_atom_site_type_symbol
_atom_site_label
_atom_site_fract_x
_atom_site_fract_y
_atom_site_fract_z
Si Si1 0.378840 0.393365 0.845875
Si Si2 0.508859 0.332296 0.431608
O O1 0.250000 0.346858 0.875000
O O2 0.464295 0.295427 0.792593
O O3 0.359772 0.493468 0.733444
O O4 0.420705 0.420705 0.000000
O O5 0.413837 0.413837 0.500000
O O6 0.627457 0.372544 0.500000
#
# Coordination Sequence:
#
# PCOD9551653 Si02
#       2
#    16  16
#     4   9  17  32  54  78 107 142 189 243 284 332
#     4  10  18  28  48  82 111 139 179 235 292 337
#
# _framework density 24.368801999999999
#
# number of rings (size 3 to 8) (size 9 to 14) (size 15 to 20)
#    0.000    2.500    0.000    6.000    0.000    0.000 
#    0.000    5.000    0.000    0.000    0.000   98.000 
#    0.000    0.000    0.000    0.000    0.000    0.000 
#
# Total GULP energy -89309.288086 kJ/mol
# GULP energy per Si atom -5581.830505 kJ/mol
# Density = 2.431334 g / cm^3
# Si number density = 24.368802 Si / 1000 Ang^3
#
#
#
# Elastic Constant Matrix: (Units=GPa)
#
#
# Indices 1 2 3 4 5 6 
#
# 1 70.5831 109.0869 27.2375 0.0000 0.0000 0.0000
# 2 109.0869 70.5854 27.2377 0.0000 0.0000 0.0000
# 3 27.2375 27.2377 181.6096 0.0000 0.0000 0.0000
# 4 0.0000 0.0000 0.0000 -3.8276 0.0000 0.0000
# 5 0.0000 0.0000 0.0000 0.0000 -3.8264 0.0000
# 6 0.0000 0.0000 0.0000 0.0000 0.0000 47.8115
#
#
#
# Elastic Compliance Matrix: (Units=1/GPa)
#
#
# Indices 1 2 3 4 5 6 
#
# 1 -0.010071 0.015902 -0.000874 0.000000 0.000000 0.000000
# 2 0.015902 -0.010071 -0.000875 0.000000 0.000000 0.000000
# 3 -0.000874 -0.000875 0.005769 0.000000 0.000000 0.000000
# 4 0.000000 0.000000 0.000000 -0.261260 0.000000 0.000000
# 5 0.000000 0.000000 0.000000 0.000000 -0.261344 0.000000
# 6 0.000000 0.000000 0.000000 0.000000 0.000000 0.020915
#
#
# Mechanical properties :
#
#
# Convention : Reuss Voigt Hill
#
# Bulk Modulus (GPa) = 71.77543 72.21135 71.99339
# Shear Modulus (GPa) = -9.26403 18.64590 4.69094
#
# Velocity S-wave (km/s) = -1.95188 2.76914 1.38894
# Velocity P-wave (km/s) = 4.94348 6.31833 5.67271
#
# Compressibility (1/GPa) = 0.01393234
#
# Stress axis : x y z
#
# Youngs Moduli (GPa) = -99.29625 -99.29971 173.35135
#
# Poissons Ratio (x) = 1.57902 0.15159
# Poissons Ratio (y) = 1.57897 0.15160
# Poissons Ratio (z) = -0.08683 -0.08684
#
# Static dielectric constant tensor:
#      x y z
#    x 1.996060 0.000000 0.000000 
#    y 0.000000 1.996060 0.000000 
#    z 0.000000 0.000000 2.047640 
# 
# From -- ./inp_files/2299.got.cif
#   From: 2010.05.17/outbox.cif.g08.bks.cpg/sg98_2_cif.got.tgz:2299.got - 2010.06.03 20:00:51.
