data_PCOD9551092
_publ_section_title
;
Structure prediction by ZEFSAII (Michael W. Deem and Ramdas Pophale) SiO2 
 PCOD9551092
Probable space group: P 43 21 2
;
_chemical_formula_sum "Si O2"
_cell_formula_units_Z 60
_cell_length_a 11.985740
_cell_length_b 11.985740
_cell_length_c 19.816507
_cell_angle_alpha 90.000000
_cell_angle_beta 90.000000
_cell_angle_gamma 90.000000
_cell_volume 2846.799036
_symmetry_space_group_name_H-M "P 43 21 2"
_symmetry_group_IT_number 96
_symmetry_cell_setting 'tetragonal'
loop_
_space_group_symop_operation_xyz
x,y,z
1/2-y,1/2+x,3/4+z
-x,-y,1/2+z
1/2+y,1/2-x,1/4+z
1/2+x,1/2-y,1/4-z
1/2-x,1/2+y,3/4-z
y,x,-z
-y,-x,1/2-z
loop_
_atom_site_type_symbol
_atom_site_label
_atom_site_fract_x
_atom_site_fract_y
_atom_site_fract_z
Si Si1 0.534363 0.743858 0.662656
Si Si2 0.863112 0.494616 0.730552
Si Si3 0.270336 0.169924 0.248088
Si Si4 0.611373 0.682594 0.184356
Si Si5 0.245784 0.412155 0.467833
Si Si6 0.115345 0.455591 0.073597
Si Si7 0.673477 0.496932 0.489143
Si Si8 0.972270 0.972270 0.500000
O O1 0.655008 0.791734 0.684727
O O2 0.442822 0.836887 0.678627
O O3 0.533421 0.715128 0.584281
O O4 0.496538 0.638108 0.706706
O O5 0.758289 0.566317 0.754487
O O6 0.844655 0.363424 0.741444
O O7 0.886514 0.508195 0.651505
O O8 0.962732 0.543486 0.775911
O O9 0.318803 0.254377 0.305265
O O10 0.137135 0.182801 0.241630
O O11 0.281857 0.039046 0.262059
O O12 0.589169 0.737079 0.112434
O O13 0.541436 0.569533 0.194010
O O14 0.354602 0.354602 0.500000
O O15 0.240711 0.457714 0.045228
O O16 0.552172 0.552172 0.500000
#
# Coordination Sequence:
#
# PCOD9551092 Si02
#       8
#     8   8   8   8   8   8   8   4
#     4  11  26  48  71 107 144 192 237 304 366 441
#     4  12  24  48  74 104 142 191 248 295 366 442
#     4  11  25  49  68 103 148 181 242 295 362 432
#     4  11  26  48  72 104 142 198 238 301 366 439
#     4  12  28  44  74 111 144 191 244 309 366 438
#     4  12  24  47  73 104 142 191 248 294 363 442
#     4  12  28  43  75 104 143 193 241 302 360 438
#     4  10  28  44  72 100 148 188 236 298 368 436
#
# _framework density 21.076301999999998
#
# number of rings (size 3 to 8) (size 9 to 14) (size 15 to 20)
#    0.000    0.533    5.333    0.400   13.067    0.000 
#    2.400    0.000    0.000    0.000    0.000    0.000 
#    0.000    0.000    0.000    0.000    0.000    0.000 
#
# Total GULP energy -335253.720154 kJ/mol
# GULP energy per Si atom -5587.562003 kJ/mol
# Density = 2.102833 g / cm^3
# Si number density = 21.076302 Si / 1000 Ang^3
#
#
#
# Elastic Constant Matrix: (Units=GPa)
#
#
# Indices 1 2 3 4 5 6 
#
# 1 102.5910 0.9396 7.2651 0.0000 0.0000 0.0000
# 2 0.9396 102.5910 7.2651 0.0000 0.0000 0.0000
# 3 7.2651 7.2651 102.3527 0.0000 0.0000 0.0000
# 4 0.0000 0.0000 0.0000 23.2842 0.0000 0.0000
# 5 0.0000 0.0000 0.0000 0.0000 23.2842 0.0000
# 6 0.0000 0.0000 0.0000 0.0000 0.0000 31.8403
#
#
#
# Elastic Compliance Matrix: (Units=1/GPa)
#
#
# Indices 1 2 3 4 5 6 
#
# 1 0.009797 -0.000041 -0.000693 0.000000 0.000000 0.000000
# 2 -0.000041 0.009797 -0.000693 0.000000 0.000000 0.000000
# 3 -0.000693 -0.000693 0.009868 0.000000 0.000000 0.000000
# 4 0.000000 0.000000 0.000000 0.042948 0.000000 0.000000
# 5 0.000000 0.000000 0.000000 0.000000 0.042948 0.000000
# 6 0.000000 0.000000 0.000000 0.000000 0.000000 0.031407
#
#
# Mechanical properties :
#
#
# Convention : Reuss Voigt Hill
#
# Bulk Modulus (GPa) = 37.57876 37.60825 37.59350
# Shear Modulus (GPa) = 31.54860 35.15274 33.35067
#
# Velocity S-wave (km/s) = 3.87314 4.08840 3.98223
# Velocity P-wave (km/s) = 6.15388 6.33792 6.24658
#
# Compressibility (1/GPa) = 0.02661078
#
# Stress axis : x y z
#
# Youngs Moduli (GPa) = 102.07354 102.07354 101.33310
#
# Poissons Ratio (x) = 0.00415 0.07017
# Poissons Ratio (y) = 0.00415 0.07017
# Poissons Ratio (z) = 0.07069 0.07069
#
# Static dielectric constant tensor:
#      x y z
#    x 1.779710 0.000000 0.000000 
#    y 0.000000 1.779710 0.000000 
#    z 0.000000 0.000000 1.730130 
# 
# From -- ./inp_files/3610.got.cif
#   From: 2010.05.17/outbox.cif.g08.bks.cpg/sg96_2_cif.got.tgz:3610.got - 2010.06.03 19:52:08.
