data_PCOD9551618
_publ_section_title
;
Structure prediction by ZEFSAII (Michael W. Deem and Ramdas Pophale) SiO2 
 PCOD9551618
Probable space group: I 4 2 2 
;
_chemical_formula_sum "Si O2"
_cell_formula_units_Z 48
_cell_length_a 7.566018
_cell_length_b 7.566018
_cell_length_c 30.449275
_cell_angle_alpha 90.000000
_cell_angle_beta 90.000000
_cell_angle_gamma 90.000000
_cell_volume 1743.057432
_symmetry_space_group_name_H-M "I 4 2 2 "
_symmetry_group_IT_number 97
_symmetry_cell_setting 'tetragonal'
loop_
_space_group_symop_operation_xyz
x,y,z
-y,x,z
-x,-y,z
y,-x,z
x,-y,-z
-x,y,-z
y,x,-z
-y,-x,-z
1/2+x,1/2+y,1/2+z
1/2-y,1/2+x,1/2+z
1/2-x,1/2-y,1/2+z
1/2+y,1/2-x,1/2+z
1/2+x,1/2-y,1/2-z
1/2-x,1/2+y,1/2-z
1/2+y,1/2+x,1/2-z
1/2-y,1/2-x,1/2-z
loop_
_atom_site_type_symbol
_atom_site_label
_atom_site_fract_x
_atom_site_fract_y
_atom_site_fract_z
Si Si1 0.712366 0.287635 0.500000
Si Si2 0.914831 0.679717 0.678898
Si Si3 0.280001 0.295317 0.595238
Si Si4 0.222452 0.722452 0.750000
O O1 0.740048 0.500000 0.500000
O O2 0.771929 0.218738 0.547401
O O3 0.829397 0.775314 0.636861
O O4 0.755440 0.629612 0.712147
O O5 0.000000 0.500000 0.662278
O O6 0.060262 0.743406 0.715173
O O7 0.490654 0.263026 0.597093
#
# Coordination Sequence:
#
# PCOD9551618 Si02
#       4
#     8  16  16   8
#     4   7  12  28  56  98 132 161 210 277 334 404
#     4  12  24  43  61  93 133 183 238 289 350 430
#     4   9  18  34  65  98 135 173 220 284 352 411
#     4  12  24  44  62  84 132 182 234 294 338 416
#
# _framework density 27.537817
#
# number of rings (size 3 to 8) (size 9 to 14) (size 15 to 20)
#    0.000    1.833    3.333    4.000    0.000    0.667 
#    0.000    0.000    0.000   23.000    0.000    0.000 
#    0.000   50.667    0.000    0.000    0.000    0.000 
#
# Total GULP energy -133626.615591 kJ/mol
# GULP energy per Si atom -5567.775650 kJ/mol
# Density = 2.747514 g / cm^3
# Si number density = 27.537817 Si / 1000 Ang^3
#
#
#
# Elastic Constant Matrix: (Units=GPa)
#
#
# Indices 1 2 3 4 5 6 
#
# 1 92.6566 9.8613 59.8663 0.0000 0.0000 0.0000
# 2 9.8613 92.6574 59.8664 0.0000 0.0000 0.0000
# 3 59.8663 59.8664 357.1093 0.0000 0.0000 0.0000
# 4 0.0000 0.0000 0.0000 28.1382 0.0000 0.0000
# 5 0.0000 0.0000 0.0000 0.0000 28.1380 0.0000
# 6 0.0000 0.0000 0.0000 0.0000 0.0000 28.5500
#
#
#
# Elastic Compliance Matrix: (Units=1/GPa)
#
#
# Indices 1 2 3 4 5 6 
#
# 1 0.012104 0.000026 -0.002033 0.000000 0.000000 0.000000
# 2 0.000026 0.012103 -0.002033 0.000000 0.000000 0.000000
# 3 -0.002033 -0.002033 0.003482 0.000000 0.000000 0.000000
# 4 0.000000 0.000000 0.000000 0.035539 0.000000 0.000000
# 5 0.000000 0.000000 0.000000 0.000000 0.035539 0.000000
# 6 0.000000 0.000000 0.000000 0.000000 0.000000 0.035026
#
#
# Mechanical properties :
#
#
# Convention : Reuss Voigt Hill
#
# Bulk Modulus (GPa) = 51.00245 89.06791 70.03518
# Shear Modulus (GPa) = 33.69020 44.48720 39.08870
#
# Velocity S-wave (km/s) = 3.50153 4.02368 3.77165
# Velocity P-wave (km/s) = 5.90836 7.34852 6.66744
#
# Compressibility (1/GPa) = 0.01960690
#
# Stress axis : x y z
#
# Youngs Moduli (GPa) = 82.62013 82.62090 287.19036
#
# Poissons Ratio (x) = -0.00212 0.58396
# Poissons Ratio (y) = -0.00212 0.58396
# Poissons Ratio (z) = 0.16800 0.16800
#
# Static dielectric constant tensor:
#      x y z
#    x 2.518400 0.000000 0.000000 
#    y 0.000000 2.518390 0.000000 
#    z 0.000000 0.000000 2.162440 
# 
# From -- ./inp_files/7843.got.cif
#   From: 2010.05.17/outbox.cif.g08.bks.cpg/sg97_4_cif.got.tgz:7843.got - 2010.06.03 19:55:32.
