data_PCOD9551441
_publ_section_title
;
Structure prediction by ZEFSAII (Michael W. Deem and Ramdas Pophale) SiO2 
 PCOD9551441
Probable space group: I 4 2 2 
;
_chemical_formula_sum "Si O2"
_cell_formula_units_Z 112
_cell_length_a 14.696036
_cell_length_b 14.696036
_cell_length_c 24.795076
_cell_angle_alpha 90.000000
_cell_angle_beta 90.000000
_cell_angle_gamma 90.000000
_cell_volume 5355.078705
_symmetry_space_group_name_H-M "I 4 2 2 "
_symmetry_group_IT_number 97
_symmetry_cell_setting 'tetragonal'
loop_
_space_group_symop_operation_xyz
x,y,z
-y,x,z
-x,-y,z
y,-x,z
x,-y,-z
-x,y,-z
y,x,-z
-y,-x,-z
1/2+x,1/2+y,1/2+z
1/2-y,1/2+x,1/2+z
1/2-x,1/2-y,1/2+z
1/2+y,1/2-x,1/2+z
1/2+x,1/2-y,1/2-z
1/2-x,1/2+y,1/2-z
1/2+y,1/2+x,1/2-z
1/2-y,1/2-x,1/2-z
loop_
_atom_site_type_symbol
_atom_site_label
_atom_site_fract_x
_atom_site_fract_y
_atom_site_fract_z
Si Si1 0.456204 0.899701 0.694464
Si Si2 0.379462 0.763576 0.290196
Si Si3 0.085972 0.879821 0.064504
Si Si4 0.862693 0.060831 0.295088
Si Si5 0.833212 0.742756 0.376180
Si Si6 0.822340 0.345691 0.406551
Si Si7 0.259058 0.104219 0.507403
O O1 0.398440 0.898440 0.750000
O O2 0.537431 0.832167 0.708303
O O3 0.404639 0.867669 0.640671
O O4 0.500000 0.000000 0.687483
O O5 0.301603 0.801603 0.250000
O O6 0.415200 0.670694 0.265211
O O7 0.335229 0.773735 0.348202
O O8 0.125215 0.782161 0.081724
O O9 0.979441 0.878067 0.082365
O O10 0.106873 0.893128 0.000000
O O11 0.783543 0.092378 0.335707
O O12 0.955659 0.115422 0.303713
O O13 0.759084 0.820685 0.387108
O O14 0.877971 0.710140 0.431360
O O15 0.872653 0.337673 0.464122
O O16 0.175406 0.175406 0.500000
O O17 0.230073 0.000000 0.500000
#
# Coordination Sequence:
#
# PCOD9551441 Si02
#       7
#    16  16  16  16  16  16  16
#     4  11  25  43  69  98 133 178 230 282 348 422
#     4  10  22  42  67  95 130 174 218 279 337 416
#     4   9  19  40  69  99 137 177 221 274 335 411
#     4  10  24  42  67 103 138 174 226 291 349 406
#     4  10  24  40  70  94 135 178 226 278 347 406
#     4  11  25  42  68 100 135 182 228 282 351 408
#     4  10  24  44  67  98 136 178 232 290 341 419
#
# _framework density 20.914726000000002
#
# number of rings (size 3 to 8) (size 9 to 14) (size 15 to 20)
#    0.000    1.857    1.429    1.714   12.000    0.714 
#    0.000    0.000    0.000    0.000    0.000    0.000 
#    0.000    0.000    0.000    0.000    0.000    0.000 
#
# Total GULP energy -312280.394954 kJ/mol
# GULP energy per Si atom -5576.435624 kJ/mol
# Density = 2.086712 g / cm^3
# Si number density = 20.914726 Si / 1000 Ang^3
#
#
#
# Elastic Constant Matrix: (Units=GPa)
#
#
# Indices 1 2 3 4 5 6 
#
# 1 29.0426 59.1900 41.4547 0.0000 0.0000 0.0000
# 2 59.1900 29.0428 41.4546 0.0000 0.0000 0.0000
# 3 41.4547 41.4546 132.4423 0.0000 0.0000 0.0000
# 4 0.0000 0.0000 0.0000 37.7582 0.0000 0.0000
# 5 0.0000 0.0000 0.0000 0.0000 37.7582 0.0000
# 6 0.0000 0.0000 0.0000 0.0000 0.0000 26.2744
#
#
#
# Elastic Compliance Matrix: (Units=1/GPa)
#
#
# Indices 1 2 3 4 5 6 
#
# 1 -0.008557 0.024613 -0.005026 0.000000 0.000000 0.000000
# 2 0.024613 -0.008557 -0.005026 0.000000 0.000000 0.000000
# 3 -0.005026 -0.005026 0.010696 0.000000 0.000000 0.000000
# 4 0.000000 0.000000 0.000000 0.026484 0.000000 0.000000
# 5 0.000000 0.000000 0.000000 0.000000 0.026484 0.000000
# 6 0.000000 0.000000 0.000000 0.000000 0.000000 0.038060
#
#
# Mechanical properties :
#
#
# Convention : Reuss Voigt Hill
#
# Bulk Modulus (GPa) = 44.04072 52.74738 48.39405
# Shear Modulus (GPa) = 79.29582 23.58672 51.44127
#
# Velocity S-wave (km/s) = 6.16410 3.36185 4.96479
# Velocity P-wave (km/s) = 8.47140 6.35172 7.48695
#
# Compressibility (1/GPa) = 0.02270626
#
# Stress axis : x y z
#
# Youngs Moduli (GPa) = -116.85977 -116.86098 93.48880
#
# Poissons Ratio (x) = 2.87633 0.46983
# Poissons Ratio (y) = 2.87630 0.46983
# Poissons Ratio (z) = -0.58728 -0.58729
#
# Static dielectric constant tensor:
#      x y z
#    x 1.714640 0.000000 0.000000 
#    y 0.000000 1.714640 0.000000 
#    z 0.000000 0.000000 1.703200 
# 
# From -- ./inp_files/7242.got.cif
#   From: 2010.05.17/outbox.cif.g08.bks.cpg/sg97_4_cif.got.tgz:7242.got - 2010.06.03 19:55:32.
