data_PCOD9551122
_publ_section_title
;
Structure prediction by ZEFSAII (Michael W. Deem and Ramdas Pophale) SiO2 
 PCOD9551122
Probable space group: P 43 21 2
;
_chemical_formula_sum "Si O2"
_cell_formula_units_Z 48
_cell_length_a 14.626359
_cell_length_b 14.626359
_cell_length_c 10.909553
_cell_angle_alpha 90.000000
_cell_angle_beta 90.000000
_cell_angle_gamma 90.000000
_cell_volume 2333.884793
_symmetry_space_group_name_H-M "P 43 21 2"
_symmetry_group_IT_number 96
_symmetry_cell_setting 'tetragonal'
loop_
_space_group_symop_operation_xyz
x,y,z
1/2-y,1/2+x,3/4+z
-x,-y,1/2+z
1/2+y,1/2-x,1/4+z
1/2+x,1/2-y,1/4-z
1/2-x,1/2+y,3/4-z
y,x,-z
-y,-x,1/2-z
loop_
_atom_site_type_symbol
_atom_site_label
_atom_site_fract_x
_atom_site_fract_y
_atom_site_fract_z
Si Si1 0.368817 0.551519 0.859898
Si Si2 0.995876 0.215995 0.581291
Si Si3 0.194516 0.194516 0.500000
Si Si4 0.274149 0.163230 0.743635
Si Si5 0.347669 0.345917 0.854146
Si Si6 0.055645 0.944356 0.250000
Si Si7 0.573609 0.038855 0.957816
O O1 0.376915 0.623086 0.750000
O O2 0.329520 0.452309 0.819748
O O3 0.473535 0.539399 0.903949
O O4 0.310031 0.601630 0.963111
O O5 0.943504 0.182198 0.458848
O O6 0.953908 0.154875 0.689030
O O7 0.991705 0.324978 0.583596
O O8 0.101606 0.194647 0.574698
O O9 0.272506 0.191631 0.600831
O O10 0.284144 0.260566 0.813047
O O11 0.359445 0.095110 0.757020
O O12 0.349734 0.349734 0.000000
O O13 0.514895 0.039731 0.830795
#
# Coordination Sequence:
#
# PCOD9551122 Si02
#       7
#     8   8   4   8   8   4   8
#     4  12  23  42  66 107 143 177 228 295 355 423
#     4  11  23  43  72 101 141 182 230 293 366 424
#     4  12  20  45  72 100 137 184 232 290 352 432
#     4  11  26  44  72 100 144 188 236 284 363 433
#     4  11  23  40  66  97 140 184 226 281 354 419
#     4  12  22  41  72 110 139 170 228 294 358 432
#     4  11  26  52  72 100 140 197 250 294 352 434
#
# _framework density 20.566568
#
# number of rings (size 3 to 8) (size 9 to 14) (size 15 to 20)
#    0.000    0.667    5.833    2.500    2.333    2.667 
#    6.000    0.000    0.000    0.000    0.000    0.000 
#    0.000    0.000    0.000    0.000    0.000    0.000 
#
# Total GULP energy -267627.798673 kJ/mol
# GULP energy per Si atom -5575.579139 kJ/mol
# Density = 2.051976 g / cm^3
# Si number density = 20.566568 Si / 1000 Ang^3
#
#
#
# Elastic Constant Matrix: (Units=GPa)
#
#
# Indices 1 2 3 4 5 6 
#
# 1 88.5474 34.4646 39.9372 0.0000 0.0000 0.0000
# 2 34.4646 88.5454 39.9363 0.0000 0.0000 0.0000
# 3 39.9372 39.9363 93.6077 0.0000 0.0000 0.0000
# 4 0.0000 0.0000 0.0000 29.3377 0.0000 0.0000
# 5 0.0000 0.0000 0.0000 0.0000 29.3377 0.0000
# 6 0.0000 0.0000 0.0000 0.0000 0.0000 15.6320
#
#
#
# Elastic Compliance Matrix: (Units=1/GPa)
#
#
# Indices 1 2 3 4 5 6 
#
# 1 0.014867 -0.003623 -0.004797 0.000000 0.000000 0.000000
# 2 -0.003623 0.014868 -0.004797 0.000000 0.000000 0.000000
# 3 -0.004797 -0.004797 0.014776 0.000000 0.000000 0.000000
# 4 0.000000 0.000000 0.000000 0.034086 0.000000 0.000000
# 5 0.000000 0.000000 0.000000 0.000000 0.034086 0.000000
# 6 0.000000 0.000000 0.000000 0.000000 0.000000 0.063971
#
#
# Mechanical properties :
#
#
# Convention : Reuss Voigt Hill
#
# Bulk Modulus (GPa) = 55.32244 55.48629 55.40436
# Shear Modulus (GPa) = 23.91035 25.28567 24.59801
#
# Velocity S-wave (km/s) = 3.41337 3.51016 3.46210
# Velocity P-wave (km/s) = 6.51862 6.59286 6.55584
#
# Compressibility (1/GPa) = 0.01807585
#
# Stress axis : x y z
#
# Youngs Moduli (GPa) = 67.26184 67.26060 67.67597
#
# Poissons Ratio (x) = 0.24369 0.32466
# Poissons Ratio (y) = 0.24370 0.32466
# Poissons Ratio (z) = 0.32267 0.32267
#
# Static dielectric constant tensor:
#      x y z
#    x 1.860350 0.000000 0.000000 
#    y 0.000000 1.860380 0.000000 
#    z 0.000000 0.000000 1.765800 
# 
# From -- ./inp_files/2245.got.cif
#   From: 2010.05.17/outbox.cif.g08.bks.cpg/sg96_2_cif.got.tgz:2245.got - 2010.06.03 19:52:08.
