data_PCOD9551416
_publ_section_title
;
Structure prediction by ZEFSAII (Michael W. Deem and Ramdas Pophale) SiO2 
 PCOD9551416
Probable space group: I 4 2 2 
;
_chemical_formula_sum "Si O2"
_cell_formula_units_Z 96
_cell_length_a 17.881361
_cell_length_b 17.881361
_cell_length_c 16.215922
_cell_angle_alpha 90.000000
_cell_angle_beta 90.000000
_cell_angle_gamma 90.000000
_cell_volume 5184.928703
_symmetry_space_group_name_H-M "I 4 2 2 "
_symmetry_group_IT_number 97
_symmetry_cell_setting 'tetragonal'
loop_
_space_group_symop_operation_xyz
x,y,z
-y,x,z
-x,-y,z
y,-x,z
x,-y,-z
-x,y,-z
y,x,-z
-y,-x,-z
1/2+x,1/2+y,1/2+z
1/2-y,1/2+x,1/2+z
1/2-x,1/2-y,1/2+z
1/2+y,1/2-x,1/2+z
1/2+x,1/2-y,1/2-z
1/2-x,1/2+y,1/2-z
1/2+y,1/2+x,1/2-z
1/2-y,1/2-x,1/2-z
loop_
_atom_site_type_symbol
_atom_site_label
_atom_site_fract_x
_atom_site_fract_y
_atom_site_fract_z
Si Si1 0.031144 0.318798 0.683433
Si Si2 0.470126 0.082921 0.349258
Si Si3 0.790119 0.849550 0.371645
Si Si4 0.835623 0.720165 0.995896
Si Si5 0.860109 0.298832 0.667684
Si Si6 0.673157 0.000000 0.000000
Si Si7 0.589719 0.410282 0.000000
O O1 0.068115 0.383755 0.627329
O O2 0.027044 0.360969 0.771730
O O3 0.085921 0.248685 0.681436
O O4 0.948928 0.296746 0.654437
O O5 0.515325 0.119671 0.422645
O O6 0.500000 0.000000 0.333353
O O7 0.724664 0.818748 0.433516
O O8 0.822808 0.782027 0.318071
O O9 0.860314 0.879566 0.424382
O O10 0.826460 0.680382 0.084782
O O11 0.804491 0.804491 0.000000
O O12 0.923753 0.715982 0.976361
O O13 0.846530 0.346530 0.750000
O O14 0.601932 0.500000 0.000000
#
# Coordination Sequence:
#
# PCOD9551416 Si02
#       7
#    16  16  16  16  16   8   8
#     4  11  22  37  57  83 121 162 197 254 312 374
#     4  11  23  37  57  89 127 163 205 261 318 384
#     4  11  22  39  60  85 118 159 207 250 309 376
#     4  10  22  38  57  86 116 154 201 250 301 373
#     4  11  22  37  57  81 117 156 198 248 303 366
#     4  12  21  38  62  89 120 168 210 258 322 381
#     4  11  22  40  64  90 120 158 207 266 314 370
#
# _framework density 18.515201000000001
#
# number of rings (size 3 to 8) (size 9 to 14) (size 15 to 20)
#    0.000    1.083    4.167    5.250    2.333    0.000 
#    0.000    0.000    0.000    0.250    0.000    0.000 
#    0.000    5.667    0.000    0.000    0.000    0.167 
#
# Total GULP energy -267653.963630 kJ/mol
# GULP energy per Si atom -5576.124242 kJ/mol
# Density = 1.847306 g / cm^3
# Si number density = 18.515201 Si / 1000 Ang^3
#
#
#
# Elastic Constant Matrix: (Units=GPa)
#
#
# Indices 1 2 3 4 5 6 
#
# 1 110.1925 56.9666 13.8574 0.0000 0.0000 0.0000
# 2 56.9666 110.1940 13.8575 0.0000 0.0000 0.0000
# 3 13.8574 13.8575 41.4193 0.0000 0.0000 0.0000
# 4 0.0000 0.0000 0.0000 19.5512 0.0000 0.0000
# 5 0.0000 0.0000 0.0000 0.0000 19.5513 0.0000
# 6 0.0000 0.0000 0.0000 0.0000 0.0000 35.7830
#
#
#
# Elastic Compliance Matrix: (Units=1/GPa)
#
#
# Indices 1 2 3 4 5 6 
#
# 1 0.012561 -0.006227 -0.002119 0.000000 0.000000 0.000000
# 2 -0.006227 0.012561 -0.002119 0.000000 0.000000 0.000000
# 3 -0.002119 -0.002119 0.025561 0.000000 0.000000 0.000000
# 4 0.000000 0.000000 0.000000 0.051148 0.000000 0.000000
# 5 0.000000 0.000000 0.000000 0.000000 0.051148 0.000000
# 6 0.000000 0.000000 0.000000 0.000000 0.000000 0.027946
#
#
# Mechanical properties :
#
#
# Convention : Reuss Voigt Hill
#
# Bulk Modulus (GPa) = 33.61066 47.90764 40.75915
# Shear Modulus (GPa) = 23.61035 26.78538 25.19786
#
# Velocity S-wave (km/s) = 3.57485 3.80764 3.69308
# Velocity P-wave (km/s) = 5.93564 6.72768 6.34403
#
# Compressibility (1/GPa) = 0.02975247
#
# Stress axis : x y z
#
# Youngs Moduli (GPa) = 79.61342 79.61454 39.12171
#
# Poissons Ratio (x) = 0.49576 0.08290
# Poissons Ratio (y) = 0.49575 0.08290
# Poissons Ratio (z) = 0.16870 0.16870
#
# Static dielectric constant tensor:
#      x y z
#    x 1.677760 0.000000 0.000000 
#    y 0.000000 1.677750 0.000000 
#    z 0.000000 0.000000 1.680770 
# 
# From -- ./inp_files/5797.got.cif
#   From: 2010.05.17/outbox.cif.g08.bks.cpg/sg97_3_cif.got.tgz:5797.got - 2010.06.03 19:55:32.
