data_PCOD9551096
_publ_section_title
;
Structure prediction by ZEFSAII (Michael W. Deem and Ramdas Pophale) SiO2 
 PCOD9551096
Probable space group: P 43 21 2
;
_chemical_formula_sum "Si O2"
_cell_formula_units_Z 48
_cell_length_a 13.934246
_cell_length_b 13.934246
_cell_length_c 11.514361
_cell_angle_alpha 90.000000
_cell_angle_beta 90.000000
_cell_angle_gamma 90.000000
_cell_volume 2235.665311
_symmetry_space_group_name_H-M "P 43 21 2"
_symmetry_group_IT_number 96
_symmetry_cell_setting 'tetragonal'
loop_
_space_group_symop_operation_xyz
x,y,z
1/2-y,1/2+x,3/4+z
-x,-y,1/2+z
1/2+y,1/2-x,1/4+z
1/2+x,1/2-y,1/4-z
1/2-x,1/2+y,3/4-z
y,x,-z
-y,-x,1/2-z
loop_
_atom_site_type_symbol
_atom_site_label
_atom_site_fract_x
_atom_site_fract_y
_atom_site_fract_z
Si Si1 0.717936 0.969326 0.480960
Si Si2 0.674418 0.067771 0.149851
Si Si3 0.413057 0.843214 0.984491
Si Si4 0.910902 0.366948 0.598937
Si Si5 0.499530 0.647071 0.534321
Si Si6 0.318896 0.692124 0.379305
O O1 0.667100 0.880353 0.415958
O O2 0.712271 0.939899 0.615793
O O3 0.648177 0.060842 0.461314
O O4 0.819027 0.989942 0.418034
O O5 0.770912 0.064395 0.222542
O O6 0.609234 0.977346 0.188119
O O7 0.689207 0.050477 0.013257
O O8 0.512753 0.866613 0.048664
O O9 0.349217 0.779595 0.071174
O O10 0.807746 0.322310 0.628590
O O11 0.547321 0.547321 0.500000
O O12 0.398537 0.658749 0.470508
O O13 0.342481 0.657520 0.250000
#
# Coordination Sequence:
#
# PCOD9551096 Si02
#       6
#     8   8   8   8   8   8
#     4  12  22  39  68 106 138 168 219 301 360 402
#     4  11  19  39  67  96 133 172 218 272 353 402
#     4  12  24  40  69 108 140 171 238 292 344 418
#     4  11  22  39  68  96 134 178 222 283 338 402
#     4  11  26  45  67  95 135 184 226 278 350 420
#     4  11  25  48  65  93 137 191 235 279 340 418
#
# _framework density 21.470117999999999
#
# number of rings (size 3 to 8) (size 9 to 14) (size 15 to 20)
#    0.000    0.667    5.000    6.000    2.333    0.667 
#    3.000    0.833    0.000    0.000    0.000    0.000 
#    0.000    0.000    0.000    0.000    0.000    0.000 
#
# Total GULP energy -268386.567842 kJ/mol
# GULP energy per Si atom -5591.386830 kJ/mol
# Density = 2.142125 g / cm^3
# Si number density = 21.470118 Si / 1000 Ang^3
#
#
#
# Elastic Constant Matrix: (Units=GPa)
#
#
# Indices 1 2 3 4 5 6 
#
# 1 35.8404 20.0894 -8.9535 0.0000 0.0000 0.0000
# 2 20.0894 35.8407 -8.9533 0.0000 0.0000 0.0000
# 3 -8.9535 -8.9533 108.1224 0.0000 0.0000 0.0000
# 4 0.0000 0.0000 0.0000 29.7113 0.0000 0.0000
# 5 0.0000 0.0000 0.0000 0.0000 29.7112 0.0000
# 6 0.0000 0.0000 0.0000 0.0000 0.0000 32.0376
#
#
#
# Elastic Compliance Matrix: (Units=1/GPa)
#
#
# Indices 1 2 3 4 5 6 
#
# 1 0.040927 -0.022561 0.001521 0.000000 0.000000 0.000000
# 2 -0.022561 0.040927 0.001521 0.000000 0.000000 0.000000
# 3 0.001521 0.001521 0.009501 0.000000 0.000000 0.000000
# 4 0.000000 0.000000 0.000000 0.033657 0.000000 0.000000
# 5 0.000000 0.000000 0.000000 0.000000 0.033657 0.000000
# 6 0.000000 0.000000 0.000000 0.000000 0.000000 0.031213
#
#
# Mechanical properties :
#
#
# Convention : Reuss Voigt Hill
#
# Bulk Modulus (GPa) = 19.11423 20.46321 19.78872
# Shear Modulus (GPa) = 20.29557 30.13341 25.21449
#
# Velocity S-wave (km/s) = 3.07790 3.75040 3.43067
# Velocity P-wave (km/s) = 4.64256 5.32031 4.99295
#
# Compressibility (1/GPa) = 0.05231704
#
# Stress axis : x y z
#
# Youngs Moduli (GPa) = 24.43364 24.43384 105.25586
#
# Poissons Ratio (x) = 0.55124 -0.16009
# Poissons Ratio (y) = 0.55124 -0.16007
# Poissons Ratio (z) = -0.03716 -0.03716
#
# Static dielectric constant tensor:
#      x y z
#    x 1.778150 0.000000 0.000000 
#    y 0.000000 1.778150 0.000000 
#    z 0.000000 0.000000 1.825650 
# 
# From -- ./inp_files/2177.got.cif
#   From: 2010.05.17/outbox.cif.g08.bks.cpg/sg96_2_cif.got.tgz:2177.got - 2010.06.03 19:52:08.
