data_PCOD9551003
_publ_section_title
;
Structure prediction by ZEFSAII (Michael W. Deem and Ramdas Pophale) SiO2 
 PCOD9551003
Probable space group: P 43 21 2
;
_chemical_formula_sum "Si O2"
_cell_formula_units_Z 36
_cell_length_a 14.227074
_cell_length_b 14.227074
_cell_length_c 8.881991
_cell_angle_alpha 90.000000
_cell_angle_beta 90.000000
_cell_angle_gamma 90.000000
_cell_volume 1797.800553
_symmetry_space_group_name_H-M "P 43 21 2"
_symmetry_group_IT_number 96
_symmetry_cell_setting 'tetragonal'
loop_
_space_group_symop_operation_xyz
x,y,z
1/2-y,1/2+x,3/4+z
-x,-y,1/2+z
1/2+y,1/2-x,1/4+z
1/2+x,1/2-y,1/4-z
1/2-x,1/2+y,3/4-z
y,x,-z
-y,-x,1/2-z
loop_
_atom_site_type_symbol
_atom_site_label
_atom_site_fract_x
_atom_site_fract_y
_atom_site_fract_z
Si Si1 0.795028 0.204973 0.750000
Si Si2 0.561895 0.438106 0.750000
Si Si3 0.329897 0.670104 0.750000
Si Si4 0.168280 0.327514 0.235035
Si Si5 0.490122 0.269857 0.951233
Si Si6 0.346065 0.454596 0.722730
O O1 0.809288 0.296972 0.652398
O O2 0.795375 0.120094 0.630580
O O3 0.553296 0.350864 0.866915
O O4 0.455855 0.437340 0.684818
O O5 0.260875 0.695051 0.883117
O O6 0.321666 0.563014 0.693462
O O7 0.222412 0.415814 0.162291
O O8 0.055665 0.315812 0.239668
O O9 0.445366 0.320180 0.099316
#
# Coordination Sequence:
#
# PCOD9551003 Si02
#       6
#     4   4   4   8   8   8
#     4  12  23  36  62 100 129 166 208 272 336 381
#     4  11  21  36  70  96 126 158 216 270 333 383
#     4   9  22  42  62  92 127 168 208 262 337 382
#     4  11  24  40  63  88 132 174 217 262 317 389
#     4  11  24  44  63  94 130 176 220 267 324 384
#     4  10  23  36  66  99 130 158 204 279 332 392
#
# _framework density 20.024467999999999
#
# number of rings (size 3 to 8) (size 9 to 14) (size 15 to 20)
#    0.000    1.333    2.222    2.667    9.333    1.778 
#    0.000    4.444    0.000    0.000    0.000    0.000 
#    0.000    0.000    0.000    0.000    0.000    0.000 
#
# Total GULP energy -200643.613866 kJ/mol
# GULP energy per Si atom -5573.433718 kJ/mol
# Density = 1.997889 g / cm^3
# Si number density = 20.024468 Si / 1000 Ang^3
#
#
#
# Elastic Constant Matrix: (Units=GPa)
#
#
# Indices 1 2 3 4 5 6 
#
# 1 58.8696 54.1320 39.1852 0.0000 0.0000 0.0000
# 2 54.1320 58.8693 39.1854 0.0000 0.0000 0.0000
# 3 39.1852 39.1854 103.4132 0.0000 0.0000 0.0000
# 4 0.0000 0.0000 0.0000 27.7877 0.0000 0.0000
# 5 0.0000 0.0000 0.0000 0.0000 27.7868 0.0000
# 6 0.0000 0.0000 0.0000 0.0000 0.0000 30.3401
#
#
#
# Elastic Compliance Matrix: (Units=1/GPa)
#
#
# Indices 1 2 3 4 5 6 
#
# 1 0.111546 -0.099542 -0.004548 0.000000 0.000000 0.000000
# 2 -0.099542 0.111547 -0.004549 0.000000 0.000000 0.000000
# 3 -0.004548 -0.004549 0.013117 0.000000 0.000000 0.000000
# 4 0.000000 0.000000 0.000000 0.035987 0.000000 0.000000
# 5 0.000000 0.000000 0.000000 0.000000 0.035988 0.000000
# 6 0.000000 0.000000 0.000000 0.000000 0.000000 0.032960
#
#
# Mechanical properties :
#
#
# Convention : Reuss Voigt Hill
#
# Bulk Modulus (GPa) = 52.82387 54.01749 53.42068
# Shear Modulus (GPa) = 8.85373 23.09287 15.97330
#
# Velocity S-wave (km/s) = 2.10501 3.39961 2.82740
# Velocity P-wave (km/s) = 5.68727 6.51492 6.11511
#
# Compressibility (1/GPa) = 0.01893084
#
# Stress axis : x y z
#
# Youngs Moduli (GPa) = 8.96494 8.96485 76.23669
#
# Poissons Ratio (x) = 0.89238 0.34674
# Poissons Ratio (y) = 0.89239 0.34680
# Poissons Ratio (z) = 0.04077 0.04078
#
# Static dielectric constant tensor:
#      x y z
#    x 1.739290 0.000000 0.000000 
#    y 0.000000 1.739290 0.000000 
#    z 0.000000 0.000000 1.763560 
# 
# From -- ./inp_files/1251.got.cif
#   From: 2010.05.17/outbox.cif.g08.bks.cpg/sg96_1_cif.got.tgz:1251.got - 2010.06.03 19:52:08.
