data_PCOD9551078
_publ_section_title
;
Structure prediction by ZEFSAII (Michael W. Deem and Ramdas Pophale) SiO2 
 PCOD9551078
Probable space group: P 43 21 2
;
_chemical_formula_sum "Si O2"
_cell_formula_units_Z 40
_cell_length_a 7.222576
_cell_length_b 7.222576
_cell_length_c 28.125503
_cell_angle_alpha 90.000000
_cell_angle_beta 90.000000
_cell_angle_gamma 90.000000
_cell_volume 1467.183854
_symmetry_space_group_name_H-M "P 43 21 2"
_symmetry_group_IT_number 96
_symmetry_cell_setting 'tetragonal'
loop_
_space_group_symop_operation_xyz
x,y,z
1/2-y,1/2+x,3/4+z
-x,-y,1/2+z
1/2+y,1/2-x,1/4+z
1/2+x,1/2-y,1/4-z
1/2-x,1/2+y,3/4-z
y,x,-z
-y,-x,1/2-z
loop_
_atom_site_type_symbol
_atom_site_label
_atom_site_fract_x
_atom_site_fract_y
_atom_site_fract_z
Si Si1 0.500820 0.021397 0.663365
Si Si2 0.646563 0.601726 0.890911
Si Si3 0.969403 0.226034 0.162154
Si Si4 0.294748 0.612983 0.004763
Si Si5 0.492121 0.293801 0.288738
O O1 0.438508 0.139708 0.616064
O O2 0.373295 0.044599 0.710236
O O3 0.710251 0.099985 0.668943
O O4 0.509167 0.819041 0.639142
O O5 0.496004 0.450589 0.906959
O O6 0.593296 0.620453 0.835793
O O7 0.966975 0.033026 0.250000
O O8 0.811345 0.329054 0.191650
O O9 0.134178 0.264196 0.199394
O O10 0.335453 0.823091 0.020643
O O11 0.559685 0.440316 0.250000
#
# Coordination Sequence:
#
# PCOD9551078 Si02
#       5
#     8   8   8   8   8
#     4  10  26  49  74 115 159 204 265 328 397 490
#     4  10  25  46  76 111 157 203 260 324 403 473
#     4  11  26  42  77 108 154 209 254 321 404 485
#     4  11  27  48  79 112 160 207 267 336 410 489
#     4  10  25  49  74 112 152 204 270 330 399 486
#
# _framework density 27.263110999999999
#
# number of rings (size 3 to 8) (size 9 to 14) (size 15 to 20)
#    0.000    1.600    0.000    0.600   19.600    4.800 
#    0.000    1.000    0.000    1.200    0.000    0.000 
#    0.000    0.000    0.000    0.000    0.000    0.000 
#
# Total GULP energy -223404.656075 kJ/mol
# GULP energy per Si atom -5585.116402 kJ/mol
# Density = 2.720106 g / cm^3
# Si number density = 27.263111 Si / 1000 Ang^3
#
#
#
# Elastic Constant Matrix: (Units=GPa)
#
#
# Indices 1 2 3 4 5 6 
#
# 1 101.5811 58.9232 12.7595 0.0000 0.0000 0.0000
# 2 58.9232 101.5802 12.7581 0.0000 0.0000 0.0000
# 3 12.7595 12.7581 68.1379 0.0000 0.0000 0.0000
# 4 0.0000 0.0000 0.0000 50.6722 0.0000 0.0000
# 5 0.0000 0.0000 0.0000 0.0000 50.6725 0.0000
# 6 0.0000 0.0000 0.0000 0.0000 0.0000 35.9264
#
#
#
# Elastic Compliance Matrix: (Units=1/GPa)
#
#
# Indices 1 2 3 4 5 6 
#
# 1 0.014932 -0.008511 -0.001203 0.000000 0.000000 0.000000
# 2 -0.008511 0.014932 -0.001202 0.000000 0.000000 0.000000
# 3 -0.001203 -0.001202 0.015126 0.000000 0.000000 0.000000
# 4 0.000000 0.000000 0.000000 0.019735 0.000000 0.000000
# 5 0.000000 0.000000 0.000000 0.000000 0.019735 0.000000
# 6 0.000000 0.000000 0.000000 0.000000 0.000000 0.027835
#
#
# Mechanical properties :
#
#
# Convention : Reuss Voigt Hill
#
# Bulk Modulus (GPa) = 43.17827 48.90898 46.04363
# Shear Modulus (GPa) = 35.24969 39.91142 37.58055
#
# Velocity S-wave (km/s) = 3.59965 3.83029 3.71676
# Velocity P-wave (km/s) = 5.75749 6.12700 5.94511
#
# Compressibility (1/GPa) = 0.02315980
#
# Stress axis : x y z
#
# Youngs Moduli (GPa) = 66.97013 66.96989 66.10943
#
# Poissons Ratio (x) = 0.56995 0.07951
# Poissons Ratio (y) = 0.56995 0.07948
# Poissons Ratio (z) = 0.08054 0.08051
#
# Static dielectric constant tensor:
#      x y z
#    x 2.324450 0.000000 0.000000 
#    y 0.000000 2.324450 0.000000 
#    z 0.000000 0.000000 2.220170 
# 
# From -- ./inp_files/4299.got.cif
#   From: 2010.05.17/outbox.cif.g08.bks.cpg/sg96_3_cif.got.tgz:4299.got - 2010.06.03 19:52:08.
