data_PCOD9551025
_publ_section_title
;
Structure prediction by ZEFSAII (Michael W. Deem and Ramdas Pophale) SiO2 
 PCOD9551025
Probable space group: P 43 21 2
;
_chemical_formula_sum "Si O2"
_cell_formula_units_Z 36
_cell_length_a 11.148378
_cell_length_b 11.148378
_cell_length_c 14.951289
_cell_angle_alpha 90.000000
_cell_angle_beta 90.000000
_cell_angle_gamma 90.000000
_cell_volume 1858.240869
_symmetry_space_group_name_H-M "P 43 21 2"
_symmetry_group_IT_number 96
_symmetry_cell_setting 'tetragonal'
loop_
_space_group_symop_operation_xyz
x,y,z
1/2-y,1/2+x,3/4+z
-x,-y,1/2+z
1/2+y,1/2-x,1/4+z
1/2+x,1/2-y,1/4-z
1/2-x,1/2+y,3/4-z
y,x,-z
-y,-x,1/2-z
loop_
_atom_site_type_symbol
_atom_site_label
_atom_site_fract_x
_atom_site_fract_y
_atom_site_fract_z
Si Si1 0.931284 0.879282 0.603306
Si Si2 0.625612 0.625612 0.500000
Si Si3 0.392147 0.098169 0.948340
Si Si4 0.965346 0.231327 0.771896
Si Si5 0.915916 0.446834 0.894424
O O1 0.924697 0.924697 0.500000
O O2 0.917096 0.735337 0.600543
O O3 0.049270 0.909464 0.661897
O O4 0.823676 0.937541 0.660208
O O5 0.603848 0.766226 0.482560
O O6 0.508169 0.060900 0.890613
O O7 0.393127 0.000368 0.027577
O O8 0.869194 0.130807 0.750000
O O9 0.907453 0.347144 0.818525
O O10 0.023562 0.286421 0.683259
#
# Coordination Sequence:
#
# PCOD9551025 Si02
#       5
#     8   4   8   8   8
#     4  12  24  42  67  98 136 173 222 280 329 391
#     4  12  24  42  72 102 134 174 230 278 330 396
#     4  11  21  41  66  99 125 177 227 268 327 404
#     4  11  24  45  64  95 135 174 218 280 338 395
#     4  10  23  43  67  90 134 177 218 269 343 400
#
# _framework density 19.373162000000001
#
# number of rings (size 3 to 8) (size 9 to 14) (size 15 to 20)
#    0.000    0.889    6.667    0.000    3.111    1.778 
#    8.000    0.000    0.000    0.000    0.000    0.000 
#    0.000    0.000    0.000    0.000    0.000    0.000 
#
# Total GULP energy -200963.317884 kJ/mol
# GULP energy per Si atom -5582.314386 kJ/mol
# Density = 1.932907 g / cm^3
# Si number density = 19.373162 Si / 1000 Ang^3
#
#
#
# Elastic Constant Matrix: (Units=GPa)
#
#
# Indices 1 2 3 4 5 6 
#
# 1 50.8437 43.9459 18.0386 0.0000 0.0000 0.0000
# 2 43.9459 50.8461 18.0376 0.0000 0.0000 0.0000
# 3 18.0386 18.0376 59.4945 0.0000 0.0000 0.0000
# 4 0.0000 0.0000 0.0000 38.4427 0.0000 0.0000
# 5 0.0000 0.0000 0.0000 0.0000 38.4432 0.0000
# 6 0.0000 0.0000 0.0000 0.0000 0.0000 20.2561
#
#
#
# Elastic Compliance Matrix: (Units=1/GPa)
#
#
# Indices 1 2 3 4 5 6 
#
# 1 0.078439 -0.066511 -0.003618 0.000000 0.000000 0.000000
# 2 -0.066511 0.078434 -0.003614 0.000000 0.000000 0.000000
# 3 -0.003618 -0.003614 0.019001 0.000000 0.000000 0.000000
# 4 0.000000 0.000000 0.000000 0.026013 0.000000 0.000000
# 5 0.000000 0.000000 0.000000 0.000000 0.026012 0.000000
# 6 0.000000 0.000000 0.000000 0.000000 0.000000 0.049368
#
#
# Mechanical properties :
#
#
# Convention : Reuss Voigt Hill
#
# Bulk Modulus (GPa) = 35.22473 35.69207 35.45840
# Shear Modulus (GPa) = 11.51502 24.83921 18.17712
#
# Velocity S-wave (km/s) = 2.44064 3.58459 3.06643
# Velocity P-wave (km/s) = 5.11507 5.96623 5.55697
#
# Compressibility (1/GPa) = 0.02838914
#
# Stress axis : x y z
#
# Youngs Moduli (GPa) = 12.74871 12.74955 52.62941
#
# Poissons Ratio (x) = 0.84799 0.19040
# Poissons Ratio (y) = 0.84793 0.19019
# Poissons Ratio (z) = 0.04612 0.04607
#
# Static dielectric constant tensor:
#      x y z
#    x 1.668660 0.000000 0.000000 
#    y 0.000000 1.668660 0.000000 
#    z 0.000000 0.000000 1.721450 
# 
# From -- ./inp_files/2558.got.cif
#   From: 2010.05.17/outbox.cif.g08.bks.cpg/sg96_2_cif.got.tgz:2558.got - 2010.06.03 19:52:08.
