data_PCOD9551508
_publ_section_title
;
Structure prediction by ZEFSAII (Michael W. Deem and Ramdas Pophale) SiO2 
 PCOD9551508
Probable space group: I 4 2 2 
;
_chemical_formula_sum "Si O2"
_cell_formula_units_Z 84
_cell_length_a 11.750761
_cell_length_b 11.750761
_cell_length_c 33.152754
_cell_angle_alpha 90.000000
_cell_angle_beta 90.000000
_cell_angle_gamma 90.000000
_cell_volume 4577.745006
_symmetry_space_group_name_H-M "I 4 2 2 "
_symmetry_group_IT_number 97
_symmetry_cell_setting 'tetragonal'
loop_
_space_group_symop_operation_xyz
x,y,z
-y,x,z
-x,-y,z
y,-x,z
x,-y,-z
-x,y,-z
y,x,-z
-y,-x,-z
1/2+x,1/2+y,1/2+z
1/2-y,1/2+x,1/2+z
1/2-x,1/2-y,1/2+z
1/2+y,1/2-x,1/2+z
1/2+x,1/2-y,1/2-z
1/2-x,1/2+y,1/2-z
1/2+y,1/2+x,1/2-z
1/2-y,1/2-x,1/2-z
loop_
_atom_site_type_symbol
_atom_site_label
_atom_site_fract_x
_atom_site_fract_y
_atom_site_fract_z
Si Si1 0.640923 0.631850 0.045446
Si Si2 0.343331 0.765521 0.124971
Si Si3 0.806645 0.011335 0.256316
Si Si4 0.500000 0.500000 0.346229
Si Si5 0.262504 0.993317 0.166376
Si Si6 0.573377 0.205830 0.836804
O O1 0.505424 0.653380 0.049201
O O2 0.717994 0.685068 0.080578
O O3 0.670085 0.670085 0.000000
O O4 0.477674 0.782304 0.129485
O O5 0.303771 0.666239 0.155462
O O6 0.290432 0.883227 0.139869
O O7 0.740317 0.026901 0.214562
O O8 0.725379 0.991644 0.294479
O O9 0.885386 0.897334 0.256468
O O10 0.635610 0.463895 0.343814
O O11 0.357618 0.089405 0.159950
#
# Coordination Sequence:
#
# PCOD9551508 Si02
#       6
#    16  16  16   4  16  16
#     4   9  18  35  64 100 132 159 193 245 323 411
#     4  12  23  38  63  93 130 160 205 263 329 395
#     4  11  20  37  60  83 117 164 221 275 334 377
#     4  12  20  40  64  76 113 176 228 248 309 376
#     4  12  24  41  59  86 120 175 227 267 308 382
#     4  12  24  37  59  91 126 165 212 273 331 384
#
# _framework density 18.349646
#
# number of rings (size 3 to 8) (size 9 to 14) (size 15 to 20)
#    0.000    0.762    7.619    1.714    0.000    1.143 
#    0.000    1.905    0.000    1.143    0.000    0.667 
#    0.000    0.000    0.000    0.000    0.000    0.000 
#
# Total GULP energy -233842.396489 kJ/mol
# GULP energy per Si atom -5567.676107 kJ/mol
# Density = 1.830788 g / cm^3
# Si number density = 18.349646 Si / 1000 Ang^3
#
#
#
# Elastic Constant Matrix: (Units=GPa)
#
#
# Indices 1 2 3 4 5 6 
#
# 1 75.3912 18.3294 44.3777 0.0000 0.0000 0.0000
# 2 18.3294 75.3912 44.3777 0.0000 0.0000 0.0000
# 3 44.3777 44.3777 132.7315 0.0000 0.0000 0.0000
# 4 0.0000 0.0000 0.0000 21.1921 0.0000 0.0000
# 5 0.0000 0.0000 0.0000 0.0000 21.1921 0.0000
# 6 0.0000 0.0000 0.0000 0.0000 0.0000 29.8983
#
#
#
# Elastic Compliance Matrix: (Units=1/GPa)
#
#
# Indices 1 2 3 4 5 6 
#
# 1 0.016569 -0.000956 -0.005220 0.000000 0.000000 0.000000
# 2 -0.000956 0.016569 -0.005220 0.000000 0.000000 0.000000
# 3 -0.005220 -0.005220 0.011025 0.000000 0.000000 0.000000
# 4 0.000000 0.000000 0.000000 0.047187 0.000000 0.000000
# 5 0.000000 0.000000 0.000000 0.000000 0.047187 0.000000
# 6 0.000000 0.000000 0.000000 0.000000 0.000000 0.033447
#
#
# Mechanical properties :
#
#
# Convention : Reuss Voigt Hill
#
# Bulk Modulus (GPa) = 46.79243 55.29817 51.04530
# Shear Modulus (GPa) = 24.76461 26.21844 25.49153
#
# Velocity S-wave (km/s) = 3.67767 3.78408 3.73126
# Velocity P-wave (km/s) = 6.60223 7.02094 6.81480
#
# Compressibility (1/GPa) = 0.02137098
#
# Stress axis : x y z
#
# Youngs Moduli (GPa) = 60.35244 60.35244 90.70480
#
# Poissons Ratio (x) = 0.05767 0.47351
# Poissons Ratio (y) = 0.05767 0.47351
# Poissons Ratio (z) = 0.31506 0.31506
#
# Static dielectric constant tensor:
#      x y z
#    x 1.653560 0.000000 0.000000 
#    y 0.000000 1.653560 0.000000 
#    z 0.000000 0.000000 1.652830 
# 
# From -- ./inp_files/8080.got.cif
#   From: 2010.05.17/outbox.cif.g08.bks.cpg/sg97_5_cif.got.tgz:8080.got - 2010.06.03 19:55:32.
