data_PCOD9551728
_publ_section_title
;
Structure prediction by ZEFSAII (Michael W. Deem and Ramdas Pophale) SiO2 
 PCOD9551728
Probable space group: I 41 2 2
;
_chemical_formula_sum "Si O2"
_cell_formula_units_Z 88
_cell_length_a 14.434779
_cell_length_b 14.434779
_cell_length_c 19.189744
_cell_angle_alpha 90.000000
_cell_angle_beta 90.000000
_cell_angle_gamma 90.000000
_cell_volume 3998.429650
_symmetry_space_group_name_H-M "I 41 2 2"
_symmetry_group_IT_number 98
_symmetry_cell_setting 'tetragonal'
loop_
_space_group_symop_operation_xyz
x,y,z
-y,1/2+x,1/4+z
-x,-y,z
y,1/2-x,1/4+z
x,1/2-y,1/4-z
-x,1/2+y,1/4-z
y,x,-z
-y,-x,-z
1/2+x,1/2+y,1/2+z
1/2-y,x,3/4+z
1/2-x,1/2-y,1/2+z
1/2+y,-x,3/4+z
1/2+x,-y,3/4-z
1/2-x,y,3/4-z
1/2+y,1/2+x,1/2-z
1/2-y,1/2-x,1/2-z
loop_
_atom_site_type_symbol
_atom_site_label
_atom_site_fract_x
_atom_site_fract_y
_atom_site_fract_z
Si Si1 0.579712 0.249996 0.869132
Si Si2 0.407191 0.060416 0.173822
Si Si3 0.504880 0.750000 0.625000
Si Si4 0.527558 0.608211 0.214665
Si Si5 0.326631 0.851284 0.982069
Si Si6 0.909353 0.565338 0.115706
O O1 0.513615 0.331511 0.897387
O O2 0.656971 0.230026 0.927451
O O3 0.635320 0.261864 0.797806
O O4 0.505046 0.168114 0.857064
O O5 0.393585 0.106416 0.250000
O O6 0.425018 0.129580 0.108717
O O7 0.500000 0.000000 0.180621
O O8 0.438652 0.701637 0.682832
O O9 0.566445 0.836973 0.651013
O O10 0.500000 0.500000 0.211287
O O11 0.428360 0.651420 0.231420
O O12 0.586561 0.619395 0.285052
O O13 0.000000 0.500000 0.114512
#
# Coordination Sequence:
#
# PCOD9551728 Si02
#       6
#    16  16   8  16  16  16
#     4  11  22  43  70  98 138 183 234 276 359 411
#     4  10  19  36  73  99 125 172 223 281 340 413
#     4  12  20  40  70  96 138 176 240 286 344 402
#     4   9  14  37  64  87 121 175 217 262 351 384
#     4  11  23  39  68  98 133 184 225 293 337 422
#     4  10  20  39  69  94 130 189 224 280 350 414
#
# _framework density 22.008638999999999
#
# number of rings (size 3 to 8) (size 9 to 14) (size 15 to 20)
#    0.000    1.636    9.091    0.000    0.000    1.455 
#    0.000    8.182   16.000    0.000    0.000    0.000 
#    0.000    0.000    0.000    0.000    0.000    0.000 
#
# Total GULP energy -244937.934286 kJ/mol
# GULP energy per Si atom -5566.771234 kJ/mol
# Density = 2.195855 g / cm^3
# Si number density = 22.008639 Si / 1000 Ang^3
#
#
#
# Elastic Constant Matrix: (Units=GPa)
#
#
# Indices 1 2 3 4 5 6 
#
# 1 86.8573 45.3693 36.6945 0.0000 0.0000 0.0000
# 2 45.3693 86.8572 36.6945 0.0000 0.0000 0.0000
# 3 36.6945 36.6945 139.0167 0.0000 0.0000 0.0000
# 4 0.0000 0.0000 0.0000 20.0343 0.0000 0.0000
# 5 0.0000 0.0000 0.0000 0.0000 20.0338 0.0000
# 6 0.0000 0.0000 0.0000 0.0000 0.0000 4.4341
#
#
#
# Elastic Compliance Matrix: (Units=1/GPa)
#
#
# Indices 1 2 3 4 5 6 
#
# 1 0.016482 -0.007621 -0.002339 0.000000 0.000000 0.000000
# 2 -0.007621 0.016482 -0.002339 0.000000 0.000000 0.000000
# 3 -0.002339 -0.002339 0.008428 0.000000 0.000000 0.000000
# 4 0.000000 0.000000 0.000000 0.049914 0.000000 0.000000
# 5 0.000000 0.000000 0.000000 0.000000 0.049916 0.000000
# 6 0.000000 0.000000 0.000000 0.000000 0.000000 0.225525
#
#
# Mechanical properties :
#
#
# Convention : Reuss Voigt Hill
#
# Bulk Modulus (GPa) = 59.54382 61.13863 60.34123
# Shear Modulus (GPa) = 12.59625 21.83198 17.21412
#
# Velocity S-wave (km/s) = 2.39494 3.15298 2.79973
# Velocity P-wave (km/s) = 5.89586 6.41052 6.15857
#
# Compressibility (1/GPa) = 0.01679435
#
# Stress axis : x y z
#
# Youngs Moduli (GPa) = 60.67172 60.67165 118.65040
#
# Poissons Ratio (x) = 0.46239 0.27751
# Poissons Ratio (y) = 0.46239 0.27751
# Poissons Ratio (z) = 0.14191 0.14191
#
# Static dielectric constant tensor:
#      x y z
#    x 1.916120 0.000000 0.000000 
#    y 0.000000 1.916120 0.000000 
#    z 0.000000 0.000000 1.945050 
# 
# From -- ./inp_files/8822.got.cif
#   From: 2010.05.17/outbox.cif.g08.bks.cpg/sg98_5_cif.got.tgz:8822.got - 2010.06.03 20:00:51.
