data_PCOD9551735
_publ_section_title
;
Structure prediction by ZEFSAII (Michael W. Deem and Ramdas Pophale) SiO2 
 PCOD9551735
Probable space group: I 41 2 2
;
_chemical_formula_sum "Si O2"
_cell_formula_units_Z 48
_cell_length_a 8.752966
_cell_length_b 8.752966
_cell_length_c 28.144855
_cell_angle_alpha 90.000000
_cell_angle_beta 90.000000
_cell_angle_gamma 90.000000
_cell_volume 2156.301567
_symmetry_space_group_name_H-M "I 41 2 2"
_symmetry_group_IT_number 98
_symmetry_cell_setting 'tetragonal'
loop_
_space_group_symop_operation_xyz
x,y,z
-y,1/2+x,1/4+z
-x,-y,z
y,1/2-x,1/4+z
x,1/2-y,1/4-z
-x,1/2+y,1/4-z
y,x,-z
-y,-x,-z
1/2+x,1/2+y,1/2+z
1/2-y,x,3/4+z
1/2-x,1/2-y,1/2+z
1/2+y,-x,3/4+z
1/2+x,-y,3/4-z
1/2-x,y,3/4-z
1/2+y,1/2+x,1/2-z
1/2-y,1/2-x,1/2-z
loop_
_atom_site_type_symbol
_atom_site_label
_atom_site_fract_x
_atom_site_fract_y
_atom_site_fract_z
Si Si1 0.100239 0.842146 0.052069
Si Si2 0.212460 0.199334 0.196608
Si Si3 0.510865 0.819442 0.384168
O O1 0.971220 0.713913 0.057579
O O2 0.229252 0.872966 0.090827
O O3 0.172025 0.827976 0.000000
O O4 0.000000 0.000000 0.052082
O O5 0.272056 0.227945 0.250000
O O6 0.277087 0.342191 0.166464
O O7 0.265148 0.048255 0.169215
O O8 0.500000 0.000000 0.384766
#
# Coordination Sequence:
#
# PCOD9551735 Si02
#       3
#    16  16  16
#     4   9  15  35  68  91 119 167 234 282 329 406
#     4  10  19  39  68  91 128 179 229 290 339 423
#     4  10  21  36  61  96 141 171 218 292 366 414
#
# _framework density 22.260337
#
# number of rings (size 3 to 8) (size 9 to 14) (size 15 to 20)
#    0.000    2.333    6.667    0.000    0.000    0.667 
#    0.000   28.333   14.667    0.000    0.000    0.000 
#    0.000    0.000    0.000    0.000    0.000    0.000 
#
# Total GULP energy -134027.100746 kJ/mol
# GULP energy per Si atom -5584.462531 kJ/mol
# Density = 2.220967 g / cm^3
# Si number density = 22.260337 Si / 1000 Ang^3
#
#
#
# Elastic Constant Matrix: (Units=GPa)
#
#
# Indices 1 2 3 4 5 6 
#
# 1 85.1127 59.9612 76.0495 0.0000 0.0000 0.0000
# 2 59.9612 85.1136 76.0498 0.0000 0.0000 0.0000
# 3 76.0495 76.0498 187.8115 0.0000 0.0000 0.0000
# 4 0.0000 0.0000 0.0000 6.8271 0.0000 0.0000
# 5 0.0000 0.0000 0.0000 0.0000 6.8272 0.0000
# 6 0.0000 0.0000 0.0000 0.0000 0.0000 10.5927
#
#
#
# Elastic Compliance Matrix: (Units=1/GPa)
#
#
# Indices 1 2 3 4 5 6 
#
# 1 0.025868 -0.013890 -0.004850 0.000000 0.000000 0.000000
# 2 -0.013890 0.025868 -0.004850 0.000000 0.000000 0.000000
# 3 -0.004850 -0.004850 0.009252 0.000000 0.000000 0.000000
# 4 0.000000 0.000000 0.000000 0.146474 0.000000 0.000000
# 5 0.000000 0.000000 0.000000 0.000000 0.146473 0.000000
# 6 0.000000 0.000000 0.000000 0.000000 0.000000 0.094405
#
#
# Mechanical properties :
#
#
# Convention : Reuss Voigt Hill
#
# Bulk Modulus (GPa) = 72.42319 86.90653 79.66486
# Shear Modulus (GPa) = 9.99751 14.58123 12.28937
#
# Velocity S-wave (km/s) = 2.12154 2.56214 2.35218
# Velocity P-wave (km/s) = 6.21341 6.91943 6.57590
#
# Compressibility (1/GPa) = 0.01380773
#
# Stress axis : x y z
#
# Youngs Moduli (GPa) = 38.65724 38.65766 108.07934
#
# Poissons Ratio (x) = 0.53696 0.52421
# Poissons Ratio (y) = 0.53695 0.52421
# Poissons Ratio (z) = 0.18750 0.18750
#
# Static dielectric constant tensor:
#      x y z
#    x 1.877190 0.000000 0.000000 
#    y 0.000000 1.877180 0.000000 
#    z 0.000000 0.000000 1.829240 
# 
# From -- ./inp_files/11287.got.cif
#   From: 2010.05.17/outbox.cif.g08.bks.cpg/sg98_6_cif.got.tgz:11287.got - 2010.06.03 20:00:51.
