data_PCOD9551121
_publ_section_title
;
Structure prediction by ZEFSAII (Michael W. Deem and Ramdas Pophale) SiO2 
 PCOD9551121
Probable space group: P 43 21 2
;
_chemical_formula_sum "Si O2"
_cell_formula_units_Z 40
_cell_length_a 14.318217
_cell_length_b 14.318217
_cell_length_c 8.760192
_cell_angle_alpha 90.000000
_cell_angle_beta 90.000000
_cell_angle_gamma 90.000000
_cell_volume 1795.938684
_symmetry_space_group_name_H-M "P 43 21 2"
_symmetry_group_IT_number 96
_symmetry_cell_setting 'tetragonal'
loop_
_space_group_symop_operation_xyz
x,y,z
1/2-y,1/2+x,3/4+z
-x,-y,1/2+z
1/2+y,1/2-x,1/4+z
1/2+x,1/2-y,1/4-z
1/2-x,1/2+y,3/4-z
y,x,-z
-y,-x,1/2-z
loop_
_atom_site_type_symbol
_atom_site_label
_atom_site_fract_x
_atom_site_fract_y
_atom_site_fract_z
Si Si1 0.344253 0.723690 0.408762
Si Si2 0.779368 0.667819 0.380022
Si Si3 0.711049 0.990489 0.588636
Si Si4 0.586204 0.445980 0.075496
Si Si5 0.573790 0.074986 0.843674
O O1 0.327525 0.672476 0.250000
O O2 0.245321 0.730736 0.496102
O O3 0.410680 0.657068 0.506264
O O4 0.388352 0.822335 0.371652
O O5 0.697953 0.697953 0.500000
O O6 0.781800 0.566260 0.298431
O O7 0.882608 0.686543 0.453548
O O8 0.809332 0.986209 0.677398
O O9 0.637729 0.023666 0.716588
O O10 0.561796 0.438205 0.250000
O O11 0.513351 0.513351 0.000000
O O12 0.475577 0.074458 0.756372
#
# Coordination Sequence:
#
# PCOD9551121 Si02
#       5
#     8   8   8   8   8
#     4  11  22  47  71 104 148 189 249 313 374 452
#     4  11  25  47  76 109 151 195 250 312 372 453
#     4  11  22  46  76 104 147 193 243 306 378 441
#     4  11  26  46  74 104 148 196 254 315 375 456
#     4  12  26  46  75 109 147 198 246 313 385 465
#
# _framework density 22.272473999999999
#
# number of rings (size 3 to 8) (size 9 to 14) (size 15 to 20)
#    0.000    0.800    4.000    4.200    2.800    4.000 
#    7.200    0.000    0.000    0.000    0.000    0.000 
#    0.000    0.000    0.000    0.000    0.000    0.000 
#
# Total GULP energy -223932.403909 kJ/mol
# GULP energy per Si atom -5598.310098 kJ/mol
# Density = 2.222178 g / cm^3
# Si number density = 22.272474 Si / 1000 Ang^3
#
#
#
# Elastic Constant Matrix: (Units=GPa)
#
#
# Indices 1 2 3 4 5 6 
#
# 1 89.6038 72.5858 32.4356 0.0000 0.0000 0.0000
# 2 72.5858 89.6016 32.4342 0.0000 0.0000 0.0000
# 3 32.4356 32.4342 103.0049 0.0000 0.0000 0.0000
# 4 0.0000 0.0000 0.0000 58.1335 0.0000 0.0000
# 5 0.0000 0.0000 0.0000 0.0000 58.1334 0.0000
# 6 0.0000 0.0000 0.0000 0.0000 0.0000 4.9850
#
#
#
# Elastic Compliance Matrix: (Units=1/GPa)
#
#
# Indices 1 2 3 4 5 6 
#
# 1 0.032909 -0.025855 -0.002222 0.000000 0.000000 0.000000
# 2 -0.025855 0.032910 -0.002221 0.000000 0.000000 0.000000
# 3 -0.002222 -0.002221 0.011107 0.000000 0.000000 0.000000
# 4 0.000000 0.000000 0.000000 0.017202 0.000000 0.000000
# 5 0.000000 0.000000 0.000000 0.000000 0.017202 0.000000
# 6 0.000000 0.000000 0.000000 0.000000 0.000000 0.200603
#
#
# Mechanical properties :
#
#
# Convention : Reuss Voigt Hill
#
# Bulk Modulus (GPa) = 61.23562 61.90240 61.56901
# Shear Modulus (GPa) = 13.22849 33.90070 23.56459
#
# Velocity S-wave (km/s) = 2.43973 3.90563 3.25624
# Velocity P-wave (km/s) = 5.95734 6.94206 6.46846
#
# Compressibility (1/GPa) = 0.01633036
#
# Stress axis : x y z
#
# Youngs Moduli (GPa) = 30.38654 30.38604 90.03206
#
# Poissons Ratio (x) = 0.78565 0.20001
# Poissons Ratio (y) = 0.78566 0.19995
# Poissons Ratio (z) = 0.06751 0.06748
#
# Static dielectric constant tensor:
#      x y z
#    x 1.714990 0.000000 0.000000 
#    y 0.000000 1.714990 0.000000 
#    z 0.000000 0.000000 1.792670 
# 
# From -- ./inp_files/1292.got.cif
#   From: 2010.05.17/outbox.cif.g08.bks.cpg/sg96_1_cif.got.tgz:1292.got - 2010.06.03 19:52:08.
