data_PCOD9551943
_publ_section_title
;
Structure prediction by ZEFSAII (Michael W. Deem and Ramdas Pophale) SiO2 
 PCOD9551943
Probable space group: I 41 2 2
;
_chemical_formula_sum "Si O2"
_cell_formula_units_Z 72
_cell_length_a 13.858929
_cell_length_b 13.858929
_cell_length_c 17.675006
_cell_angle_alpha 90.000000
_cell_angle_beta 90.000000
_cell_angle_gamma 90.000000
_cell_volume 3394.836865
_symmetry_space_group_name_H-M "I 41 2 2"
_symmetry_group_IT_number 98
_symmetry_cell_setting 'tetragonal'
loop_
_space_group_symop_operation_xyz
x,y,z
-y,1/2+x,1/4+z
-x,-y,z
y,1/2-x,1/4+z
x,1/2-y,1/4-z
-x,1/2+y,1/4-z
y,x,-z
-y,-x,-z
1/2+x,1/2+y,1/2+z
1/2-y,x,3/4+z
1/2-x,1/2-y,1/2+z
1/2+y,-x,3/4+z
1/2+x,-y,3/4-z
1/2-x,y,3/4-z
1/2+y,1/2+x,1/2-z
1/2-y,1/2-x,1/2-z
loop_
_atom_site_type_symbol
_atom_site_label
_atom_site_fract_x
_atom_site_fract_y
_atom_site_fract_z
Si Si1 0.142332 0.463306 0.458012
Si Si2 0.750000 0.050420 0.375000
Si Si3 0.603881 0.464393 0.126147
Si Si4 0.744279 0.914301 0.228617
Si Si5 0.990232 0.366404 0.206988
O O1 0.104640 0.507901 0.535671
O O2 0.118013 0.350129 0.452544
O O3 0.256769 0.478408 0.461677
O O4 0.107874 0.514978 0.381484
O O5 0.650794 0.109592 0.367376
O O6 0.757732 0.980994 0.302323
O O7 0.500000 0.500000 0.094890
O O8 0.687149 0.523167 0.083628
O O9 0.677346 0.822655 0.250000
O O10 0.070117 0.429884 0.250000
O O11 0.891515 0.391515 0.250000
#
# Coordination Sequence:
#
# PCOD9551943 Si02
#       5
#    16   8  16  16  16
#     4  11  24  43  70 103 140 189 249 295 376 439
#     4  12  26  42  66 100 142 202 240 298 378 446
#     4  12  25  44  69 102 147 195 237 309 375 448
#     4  12  23  41  71 105 146 188 249 312 373 445
#     4  10  23  42  69 101 140 186 237 306 362 439
#
# _framework density 21.208676000000001
#
# number of rings (size 3 to 8) (size 9 to 14) (size 15 to 20)
#    0.000    0.667    4.444    2.667    3.111    5.333 
#    0.000    4.444    0.000    2.667    0.000    0.000 
#    0.000    0.000    0.000    0.000    0.000    0.000 
#
# Total GULP energy -201466.995810 kJ/mol
# GULP energy per Si atom -5596.305439 kJ/mol
# Density = 2.116040 g / cm^3
# Si number density = 21.208676 Si / 1000 Ang^3
#
#
#
# Elastic Constant Matrix: (Units=GPa)
#
#
# Indices 1 2 3 4 5 6 
#
# 1 125.0063 55.7965 39.0206 0.0000 0.0000 0.0000
# 2 55.7965 125.0070 39.0207 0.0000 0.0000 0.0000
# 3 39.0206 39.0207 147.5753 0.0000 0.0000 0.0000
# 4 0.0000 0.0000 0.0000 31.3160 0.0000 0.0000
# 5 0.0000 0.0000 0.0000 0.0000 31.3158 0.0000
# 6 0.0000 0.0000 0.0000 0.0000 0.0000 35.1976
#
#
#
# Elastic Compliance Matrix: (Units=1/GPa)
#
#
# Indices 1 2 3 4 5 6 
#
# 1 0.010346 -0.004103 -0.001651 0.000000 0.000000 0.000000
# 2 -0.004103 0.010346 -0.001651 0.000000 0.000000 0.000000
# 3 -0.001651 -0.001651 0.007649 0.000000 0.000000 0.000000
# 4 0.000000 0.000000 0.000000 0.031933 0.000000 0.000000
# 5 0.000000 0.000000 0.000000 0.000000 0.031933 0.000000
# 6 0.000000 0.000000 0.000000 0.000000 0.000000 0.028411
#
#
# Mechanical properties :
#
#
# Convention : Reuss Voigt Hill
#
# Bulk Modulus (GPa) = 73.89492 73.91824 73.90658
# Shear Modulus (GPa) = 35.73027 37.14926 36.43977
#
# Velocity S-wave (km/s) = 4.10896 4.18976 4.14956
# Velocity P-wave (km/s) = 7.57819 7.63767 7.60798
#
# Compressibility (1/GPa) = 0.01353273
#
# Stress axis : x y z
#
# Youngs Moduli (GPa) = 96.65452 96.65504 130.73261
#
# Poissons Ratio (x) = 0.39654 0.21582
# Poissons Ratio (y) = 0.39654 0.21582
# Poissons Ratio (z) = 0.15956 0.15956
#
# Static dielectric constant tensor:
#      x y z
#    x 1.783820 0.000000 0.000000 
#    y 0.000000 1.783820 0.000000 
#    z 0.000000 0.000000 1.773850 
# 
# From -- ./inp_files/7495.got.cif
#   From: 2010.05.17/outbox.cif.g08.bks.cpg/sg98_4_cif.got.tgz:7495.got - 2010.06.03 20:00:51.
