data_PCOD9551886
_publ_section_title
;
Structure prediction by ZEFSAII (Michael W. Deem and Ramdas Pophale) SiO2 
 PCOD9551886
Probable space group: I 41 2 2
;
_chemical_formula_sum "Si O2"
_cell_formula_units_Z 80
_cell_length_a 11.301158
_cell_length_b 11.301158
_cell_length_c 27.476241
_cell_angle_alpha 90.000000
_cell_angle_beta 90.000000
_cell_angle_gamma 90.000000
_cell_volume 3509.160325
_symmetry_space_group_name_H-M "I 41 2 2"
_symmetry_group_IT_number 98
_symmetry_cell_setting 'tetragonal'
loop_
_space_group_symop_operation_xyz
x,y,z
-y,1/2+x,1/4+z
-x,-y,z
y,1/2-x,1/4+z
x,1/2-y,1/4-z
-x,1/2+y,1/4-z
y,x,-z
-y,-x,-z
1/2+x,1/2+y,1/2+z
1/2-y,x,3/4+z
1/2-x,1/2-y,1/2+z
1/2+y,-x,3/4+z
1/2+x,-y,3/4-z
1/2-x,y,3/4-z
1/2+y,1/2+x,1/2-z
1/2-y,1/2-x,1/2-z
loop_
_atom_site_type_symbol
_atom_site_label
_atom_site_fract_x
_atom_site_fract_y
_atom_site_fract_z
Si Si1 0.132753 0.172073 0.243083
Si Si2 0.800096 0.203128 0.556461
Si Si3 0.463378 0.227121 0.912692
Si Si4 0.968410 0.139727 0.322959
Si Si5 0.940352 0.695482 0.679468
O O1 0.204771 0.295230 0.250000
O O2 0.130795 0.119690 0.188617
O O3 0.205117 0.082844 0.279409
O O4 0.005613 0.168034 0.267982
O O5 0.777244 0.222757 0.500000
O O6 0.823954 0.331742 0.580054
O O7 0.929663 0.146256 0.563816
O O8 0.712305 0.101235 0.574808
O O9 0.459302 0.267544 0.856655
O O10 0.403082 0.342225 0.937372
O O11 0.000000 0.000000 0.334338
O O12 0.927775 0.750000 0.625000
#
# Coordination Sequence:
#
# PCOD9551886 Si02
#       5
#    16  16  16  16  16
#     4  10  22  36  56  89 119 164 200 247 309 380
#     4  12  22  33  51  87 121 160 202 254 315 379
#     4  11  21  33  55  91 125 162 203 247 314 393
#     4  12  21  38  58  86 128 168 208 259 328 388
#     4  11  18  33  52  81 123 156 189 232 311 381
#
# _framework density 22.797478000000002
#
# number of rings (size 3 to 8) (size 9 to 14) (size 15 to 20)
#    0.000    0.800    6.000    3.600    0.000    0.800 
#    0.000    0.000    0.000    0.600   31.200    0.000 
#    0.000    0.000    0.000    0.000    0.000    0.000 
#
# Total GULP energy -222998.838028 kJ/mol
# GULP energy per Si atom -5574.970951 kJ/mol
# Density = 2.274559 g / cm^3
# Si number density = 22.797478 Si / 1000 Ang^3
#
#
#
# Elastic Constant Matrix: (Units=GPa)
#
#
# Indices 1 2 3 4 5 6 
#
# 1 64.0254 12.0601 13.7452 0.0000 0.0000 0.0000
# 2 12.0601 64.0256 13.7453 0.0000 0.0000 0.0000
# 3 13.7452 13.7453 91.9292 0.0000 0.0000 0.0000
# 4 0.0000 0.0000 0.0000 31.4209 0.0000 0.0000
# 5 0.0000 0.0000 0.0000 0.0000 31.4211 0.0000
# 6 0.0000 0.0000 0.0000 0.0000 0.0000 6.3576
#
#
#
# Elastic Compliance Matrix: (Units=1/GPa)
#
#
# Indices 1 2 3 4 5 6 
#
# 1 0.016569 -0.002675 -0.002077 0.000000 0.000000 0.000000
# 2 -0.002675 0.016569 -0.002077 0.000000 0.000000 0.000000
# 3 -0.002077 -0.002077 0.011499 0.000000 0.000000 0.000000
# 4 0.000000 0.000000 0.000000 0.031826 0.000000 0.000000
# 5 0.000000 0.000000 0.000000 0.000000 0.031826 0.000000
# 6 0.000000 0.000000 0.000000 0.000000 0.000000 0.157292
#
#
# Mechanical properties :
#
#
# Convention : Reuss Voigt Hill
#
# Bulk Modulus (GPa) = 32.28206 33.23128 32.75667
# Shear Modulus (GPa) = 17.26725 25.86856 21.56790
#
# Velocity S-wave (km/s) = 2.75511 3.37220 3.07915
# Velocity P-wave (km/s) = 4.93072 5.45625 5.20013
#
# Compressibility (1/GPa) = 0.03097696
#
# Stress axis : x y z
#
# Youngs Moduli (GPa) = 60.35494 60.35511 86.96293
#
# Poissons Ratio (x) = 0.16145 0.18065
# Poissons Ratio (y) = 0.16145 0.18066
# Poissons Ratio (z) = 0.12538 0.12538
#
# Static dielectric constant tensor:
#      x y z
#    x 1.907670 0.000000 0.000000 
#    y 0.000000 1.907670 0.000000 
#    z 0.000000 0.000000 1.935160 
# 
# From -- ./inp_files/11813.got.cif
#   From: 2010.05.17/outbox.cif.g08.bks.cpg/sg98_6_cif.got.tgz:11813.got - 2010.06.03 20:00:51.
