data_PCOD9551172
_publ_section_title
;
Structure prediction by ZEFSAII (Michael W. Deem and Ramdas Pophale) SiO2 
 PCOD9551172
Probable space group: P 43 21 2
;
_chemical_formula_sum "Si O2"
_cell_formula_units_Z 32
_cell_length_a 9.216907
_cell_length_b 9.216907
_cell_length_c 14.464696
_cell_angle_alpha 90.000000
_cell_angle_beta 90.000000
_cell_angle_gamma 90.000000
_cell_volume 1228.795809
_symmetry_space_group_name_H-M "P 43 21 2"
_symmetry_group_IT_number 96
_symmetry_cell_setting 'tetragonal'
loop_
_space_group_symop_operation_xyz
x,y,z
1/2-y,1/2+x,3/4+z
-x,-y,1/2+z
1/2+y,1/2-x,1/4+z
1/2+x,1/2-y,1/4-z
1/2-x,1/2+y,3/4-z
y,x,-z
-y,-x,1/2-z
loop_
_atom_site_type_symbol
_atom_site_label
_atom_site_fract_x
_atom_site_fract_y
_atom_site_fract_z
Si Si1 0.810517 0.548962 0.125630
Si Si2 0.108824 0.384027 0.164739
Si Si3 0.557020 0.557020 0.000000
Si Si4 0.667489 0.332512 0.250000
Si Si5 0.200390 0.110219 0.646912
O O1 0.719008 0.525529 0.032544
O O2 0.708297 0.487987 0.207698
O O3 0.824535 0.721234 0.130426
O O4 0.956119 0.453951 0.132063
O O5 0.178882 0.280772 0.085835
O O6 0.212269 0.522308 0.179680
O O7 0.093224 0.293992 0.258509
O O8 0.449488 0.529049 0.083716
#
# Coordination Sequence:
#
# PCOD9551172 Si02
#       5
#     8   8   4   4   8
#     4  12  28  49  74 115 153 201 258 324 383 468
#     4  12  27  49  78 111 154 201 261 320 392 475
#     4  12  27  48  73 108 152 194 259 308 383 456
#     4  12  25  46  79 106 152 200 253 320 389 464
#     4  12  28  48  78 111 150 206 255 322 391 463
#
# _framework density 26.041753
#
# number of rings (size 3 to 8) (size 9 to 14) (size 15 to 20)
#    0.000    0.000    5.000    3.750    7.000    0.000 
#    0.000    0.000    0.000    0.000    0.000    0.000 
#    0.000    0.000    0.000    0.000    0.000    0.000 
#
# Total GULP energy -179381.340049 kJ/mol
# GULP energy per Si atom -5605.666877 kJ/mol
# Density = 2.598248 g / cm^3
# Si number density = 26.041753 Si / 1000 Ang^3
#
#
#
# Elastic Constant Matrix: (Units=GPa)
#
#
# Indices 1 2 3 4 5 6 
#
# 1 115.2947 42.5495 15.1497 0.0000 0.0000 0.0000
# 2 42.5495 115.2950 15.1494 0.0000 0.0000 0.0000
# 3 15.1497 15.1494 58.1487 0.0000 0.0000 0.0000
# 4 0.0000 0.0000 0.0000 29.5332 0.0000 0.0000
# 5 0.0000 0.0000 0.0000 0.0000 29.5327 0.0000
# 6 0.0000 0.0000 0.0000 0.0000 0.0000 46.0898
#
#
#
# Elastic Compliance Matrix: (Units=1/GPa)
#
#
# Indices 1 2 3 4 5 6 
#
# 1 0.010208 -0.003539 -0.001737 0.000000 0.000000 0.000000
# 2 -0.003539 0.010208 -0.001737 0.000000 0.000000 0.000000
# 3 -0.001737 -0.001737 0.018103 0.000000 0.000000 0.000000
# 4 0.000000 0.000000 0.000000 0.033860 0.000000 0.000000
# 5 0.000000 0.000000 0.000000 0.000000 0.033861 0.000000
# 6 0.000000 0.000000 0.000000 0.000000 0.000000 0.021697
#
#
# Mechanical properties :
#
#
# Convention : Reuss Voigt Hill
#
# Bulk Modulus (GPa) = 40.83204 48.27060 44.55132
# Shear Modulus (GPa) = 33.30517 35.42380 34.36448
#
# Velocity S-wave (km/s) = 3.58007 3.69218 3.63656
# Velocity P-wave (km/s) = 5.72736 6.06237 5.89725
#
# Compressibility (1/GPa) = 0.02449057
#
# Stress axis : x y z
#
# Youngs Moduli (GPa) = 97.96478 97.96526 55.24063
#
# Poissons Ratio (x) = 0.34669 0.09598
# Poissons Ratio (y) = 0.34668 0.09598
# Poissons Ratio (z) = 0.17021 0.17021
#
# Static dielectric constant tensor:
#      x y z
#    x 2.015320 0.000000 0.000000 
#    y 0.000000 2.015320 0.000000 
#    z 0.000000 0.000000 2.103850 
# 
# From -- ./inp_files/3389.got.cif
#   From: 2010.05.17/outbox.cif.g08.bks.cpg/sg96_2_cif.got.tgz:3389.got - 2010.06.03 19:52:08.
