data_PCOD9551936
_publ_section_title
;
Structure prediction by ZEFSAII (Michael W. Deem and Ramdas Pophale) SiO2 
 PCOD9551936
Probable space group: I 41 2 2
;
_chemical_formula_sum "Si O2"
_cell_formula_units_Z 60
_cell_length_a 15.546451
_cell_length_b 15.546451
_cell_length_c 12.527996
_cell_angle_alpha 90.000000
_cell_angle_beta 90.000000
_cell_angle_gamma 90.000000
_cell_volume 3027.918147
_symmetry_space_group_name_H-M "I 41 2 2"
_symmetry_group_IT_number 98
_symmetry_cell_setting 'tetragonal'
loop_
_space_group_symop_operation_xyz
x,y,z
-y,1/2+x,1/4+z
-x,-y,z
y,1/2-x,1/4+z
x,1/2-y,1/4-z
-x,1/2+y,1/4-z
y,x,-z
-y,-x,-z
1/2+x,1/2+y,1/2+z
1/2-y,x,3/4+z
1/2-x,1/2-y,1/2+z
1/2+y,-x,3/4+z
1/2+x,-y,3/4-z
1/2-x,y,3/4-z
1/2+y,1/2+x,1/2-z
1/2-y,1/2-x,1/2-z
loop_
_atom_site_type_symbol
_atom_site_label
_atom_site_fract_x
_atom_site_fract_y
_atom_site_fract_z
Si Si1 0.296221 0.935168 0.761767
Si Si2 0.035633 0.177007 0.388449
Si Si3 0.197281 0.158310 0.226805
Si Si4 0.386495 0.386495 0.500000
Si Si5 0.500000 0.000000 0.250000
O O1 0.250000 0.939519 0.875000
O O2 0.346474 0.846474 0.750000
O O3 0.225997 0.960106 0.673296
O O4 0.363880 0.013673 0.752902
O O5 0.117719 0.162666 0.308782
O O6 0.074282 0.241139 0.478511
O O7 0.004238 0.086431 0.430903
O O8 0.264255 0.235746 0.250000
O O9 0.153888 0.152476 0.108998
#
# Coordination Sequence:
#
# PCOD9551936 Si02
#       5
#    16  16  16   8   4
#     4  11  24  45  68 103 135 184 231 284 351 410
#     4  11  26  42  70 101 142 185 233 296 346 428
#     4  11  23  37  69 108 137 173 228 290 363 409
#     4  10  23  39  70 105 140 171 230 304 356 397
#     4  12  28  50  64 104 144 192 234 282 364 414
#
# _framework density 19.815594999999998
#
# number of rings (size 3 to 8) (size 9 to 14) (size 15 to 20)
#    0.000    1.067    4.000    1.200   14.933    4.267 
#    2.400    0.000    0.000    0.000    0.000    0.000 
#    0.000    0.000    0.000    0.000    0.000    0.000 
#
# Total GULP energy -167596.339707 kJ/mol
# GULP energy per Si atom -5586.544657 kJ/mol
# Density = 1.977049 g / cm^3
# Si number density = 19.815595 Si / 1000 Ang^3
#
#
#
# Elastic Constant Matrix: (Units=GPa)
#
#
# Indices 1 2 3 4 5 6 
#
# 1 114.8224 85.2600 54.8681 0.0000 0.0000 0.0000
# 2 85.2600 114.8220 54.8682 0.0000 0.0000 0.0000
# 3 54.8681 54.8682 84.7159 0.0000 0.0000 0.0000
# 4 0.0000 0.0000 0.0000 20.7103 0.0000 0.0000
# 5 0.0000 0.0000 0.0000 0.0000 20.7108 0.0000
# 6 0.0000 0.0000 0.0000 0.0000 0.0000 47.0228
#
#
#
# Elastic Compliance Matrix: (Units=1/GPa)
#
#
# Indices 1 2 3 4 5 6 
#
# 1 0.020789 -0.013038 -0.005020 0.000000 0.000000 0.000000
# 2 -0.013038 0.020789 -0.005020 0.000000 0.000000 0.000000
# 3 -0.005020 -0.005020 0.018307 0.000000 0.000000 0.000000
# 4 0.000000 0.000000 0.000000 0.048285 0.000000 0.000000
# 5 0.000000 0.000000 0.000000 0.000000 0.048284 0.000000
# 6 0.000000 0.000000 0.000000 0.000000 0.000000 0.021266
#
#
# Mechanical properties :
#
#
# Convention : Reuss Voigt Hill
#
# Bulk Modulus (GPa) = 72.84069 78.26146 75.55107
# Shear Modulus (GPa) = 21.88619 25.64636 23.76627
#
# Velocity S-wave (km/s) = 3.32700 3.60147 3.46695
# Velocity P-wave (km/s) = 7.18315 7.54154 7.36452
#
# Compressibility (1/GPa) = 0.01372859
#
# Stress axis : x y z
#
# Youngs Moduli (GPa) = 48.10200 48.10171 54.62311
#
# Poissons Ratio (x) = 0.62714 0.27423
# Poissons Ratio (y) = 0.62715 0.27423
# Poissons Ratio (z) = 0.24149 0.24149
#
# Static dielectric constant tensor:
#      x y z
#    x 1.708550 0.000000 0.000000 
#    y 0.000000 1.708550 0.000000 
#    z 0.000000 0.000000 1.675630 
# 
# From -- ./inp_files/6287.got.cif
#   From: 2010.05.17/outbox.cif.g08.bks.cpg/sg98_4_cif.got.tgz:6287.got - 2010.06.03 20:00:51.
