data_PCOD9551949
_publ_section_title
;
Structure prediction by ZEFSAII (Michael W. Deem and Ramdas Pophale) SiO2 
 PCOD9551949
Probable space group: I 41 2 2
;
_chemical_formula_sum "Si O2"
_cell_formula_units_Z 120
_cell_length_a 13.400980
_cell_length_b 13.400980
_cell_length_c 27.777580
_cell_angle_alpha 90.000000
_cell_angle_beta 90.000000
_cell_angle_gamma 90.000000
_cell_volume 4988.471842
_symmetry_space_group_name_H-M "I 41 2 2"
_symmetry_group_IT_number 98
_symmetry_cell_setting 'tetragonal'
loop_
_space_group_symop_operation_xyz
x,y,z
-y,1/2+x,1/4+z
-x,-y,z
y,1/2-x,1/4+z
x,1/2-y,1/4-z
-x,1/2+y,1/4-z
y,x,-z
-y,-x,-z
1/2+x,1/2+y,1/2+z
1/2-y,x,3/4+z
1/2-x,1/2-y,1/2+z
1/2+y,-x,3/4+z
1/2+x,-y,3/4-z
1/2-x,y,3/4-z
1/2+y,1/2+x,1/2-z
1/2-y,1/2-x,1/2-z
loop_
_atom_site_type_symbol
_atom_site_label
_atom_site_fract_x
_atom_site_fract_y
_atom_site_fract_z
Si Si1 0.930374 0.628306 0.648928
Si Si2 0.258854 0.664118 0.547902
Si Si3 0.595423 0.352033 0.892579
Si Si4 0.557814 0.712420 0.493065
Si Si5 0.524771 0.870199 0.567401
Si Si6 0.118141 0.292865 0.544453
Si Si7 0.971318 0.168746 0.793395
Si Si8 0.095370 0.750000 0.125000
O O1 0.889548 0.518041 0.639774
O O2 0.924639 0.670849 0.595245
O O3 0.861601 0.678638 0.690208
O O4 0.046365 0.641391 0.664530
O O5 0.263805 0.736196 0.500000
O O6 0.174986 0.643512 0.590244
O O7 0.285425 0.551989 0.530252
O O8 0.340099 0.719169 0.580025
O O9 0.586102 0.254929 0.927442
O O10 0.604599 0.604599 0.500000
O O11 0.555051 0.766273 0.544697
O O12 0.638106 0.786369 0.466688
O O13 0.616866 0.942124 0.575227
O O14 0.469219 0.847367 0.615788
O O15 0.433895 0.909401 0.532705
O O16 0.033445 0.299955 0.503659
#
# Coordination Sequence:
#
# PCOD9551949 Si02
#       8
#    16  16  16  16  16  16  16   8
#     4  10  24  43  72 109 146 193 254 307 381 455
#     4  12  26  48  75 106 148 189 246 313 379 458
#     4  11  24  45  72 107 147 192 245 318 377 453
#     4  11  25  46  73 105 145 199 248 313 381 448
#     4  10  23  44  66 102 139 193 246 308 374 466
#     4  10  23  44  72 104 143 198 249 305 376 462
#     4  10  23  43  73  98 142 194 247 309 384 448
#     4  12  24  46  70 106 142 186 250 306 388 466
#
# _framework density 24.055464000000001
#
# number of rings (size 3 to 8) (size 9 to 14) (size 15 to 20)
#    0.000    1.333    4.000    0.000    5.600    4.000 
#    2.400    2.667    0.000    0.000    0.000    0.000 
#    0.000    0.000    0.000    0.000    0.000    0.000 
#
# Total GULP energy -334287.803081 kJ/mol
# GULP energy per Si atom -5571.463385 kJ/mol
# Density = 2.400071 g / cm^3
# Si number density = 24.055464 Si / 1000 Ang^3
#
#
#
# Elastic Constant Matrix: (Units=GPa)
#
#
# Indices 1 2 3 4 5 6 
#
# 1 85.0151 34.6773 33.8497 0.0000 0.0000 0.0000
# 2 34.6773 85.0145 33.8494 0.0000 0.0000 0.0000
# 3 33.8497 33.8494 100.6486 0.0000 0.0000 0.0000
# 4 0.0000 0.0000 0.0000 26.3380 0.0000 0.0000
# 5 0.0000 0.0000 0.0000 0.0000 26.3380 0.0000
# 6 0.0000 0.0000 0.0000 0.0000 0.0000 -2.3812
#
#
#
# Elastic Compliance Matrix: (Units=1/GPa)
#
#
# Indices 1 2 3 4 5 6 
#
# 1 0.015092 -0.004774 -0.003470 0.000000 0.000000 0.000000
# 2 -0.004774 0.015092 -0.003470 0.000000 0.000000 0.000000
# 3 -0.003470 -0.003470 0.012270 0.000000 0.000000 0.000000
# 4 0.000000 0.000000 0.000000 0.037968 0.000000 0.000000
# 5 0.000000 0.000000 0.000000 0.000000 0.037968 0.000000
# 6 0.000000 0.000000 0.000000 0.000000 0.000000 -0.419955
#
#
# Mechanical properties :
#
#
# Convention : Reuss Voigt Hill
#
# Bulk Modulus (GPa) = 52.56318 52.82567 52.69443
# Shear Modulus (GPa) = -18.39612 21.27908 1.44148
#
# Velocity S-wave (km/s) = -2.76839 2.97742 0.77494
# Velocity P-wave (km/s) = 3.41755 5.81616 4.77008
#
# Compressibility (1/GPa) = 0.01902472
#
# Stress axis : x y z
#
# Youngs Moduli (GPa) = 66.26198 66.26159 81.50289
#
# Poissons Ratio (x) = 0.31635 0.28281
# Poissons Ratio (y) = 0.31635 0.28280
# Poissons Ratio (z) = 0.22992 0.22992
#
# Static dielectric constant tensor:
#      x y z
#    x 2.055320 0.000000 0.000000 
#    y 0.000000 2.055320 0.000000 
#    z 0.000000 0.000000 1.907300 
# 
# From -- ./inp_files/12149.got.cif
#   From: 2010.05.17/outbox.cif.g08.bks.cpg/sg98_7_cif.got.tgz:12149.got - 2010.06.03 20:00:51.
