data_PCOD9551058
_publ_section_title
;
Structure prediction by ZEFSAII (Michael W. Deem and Ramdas Pophale) SiO2 
 PCOD9551058
Probable space group: P 43 21 2
;
_chemical_formula_sum "Si O2"
_cell_formula_units_Z 56
_cell_length_a 15.009709
_cell_length_b 15.009709
_cell_length_c 11.862450
_cell_angle_alpha 90.000000
_cell_angle_beta 90.000000
_cell_angle_gamma 90.000000
_cell_volume 2672.507544
_symmetry_space_group_name_H-M "P 43 21 2"
_symmetry_group_IT_number 96
_symmetry_cell_setting 'tetragonal'
loop_
_space_group_symop_operation_xyz
x,y,z
1/2-y,1/2+x,3/4+z
-x,-y,1/2+z
1/2+y,1/2-x,1/4+z
1/2+x,1/2-y,1/4-z
1/2-x,1/2+y,3/4-z
y,x,-z
-y,-x,1/2-z
loop_
_atom_site_type_symbol
_atom_site_label
_atom_site_fract_x
_atom_site_fract_y
_atom_site_fract_z
Si Si1 0.070726 0.501607 0.171372
Si Si2 0.125150 0.074443 0.383741
Si Si3 0.127809 0.277470 0.356236
Si Si4 0.452480 0.452480 0.000000
Si Si5 0.610519 0.699317 0.667663
Si Si6 0.799186 0.435985 0.359448
Si Si7 0.884146 0.191749 0.633964
Si Si8 0.737845 0.262156 0.250000
O O1 0.040575 0.486884 0.307051
O O2 0.164854 0.554124 0.174030
O O3 0.084095 0.403001 0.123073
O O4 0.069947 0.069947 0.500000
O O5 0.157658 0.176696 0.384124
O O6 0.053314 0.061069 0.286698
O O7 0.191445 0.991380 0.375573
O O8 0.084034 0.264708 0.234353
O O9 0.212068 0.341846 0.362792
O O10 0.429513 0.381694 0.096074
O O11 0.537011 0.776852 0.671592
O O12 0.631445 0.658706 0.787553
O O13 0.700134 0.731982 0.604742
O O14 0.756102 0.364740 0.276237
O O15 0.849519 0.150482 0.750000
#
# Coordination Sequence:
#
# PCOD9551058 Si02
#       8
#     8   8   8   4   8   8   8   4
#     4  10  24  44  72 104 141 191 248 297 360 447
#     4  12  25  42  73 102 138 190 241 290 364 436
#     4  11  25  47  70 102 146 196 244 289 372 445
#     4  11  22  40  70 102 130 177 226 296 352 421
#     4  11  24  43  69 101 139 176 236 294 353 424
#     4  11  23  42  71 102 138 183 242 299 353 423
#     4  12  27  47  66 105 150 184 237 305 364 436
#     4  11  22  40  70  96 132 179 226 292 342 411
#
# _framework density 20.954104000000001
#
# number of rings (size 3 to 8) (size 9 to 14) (size 15 to 20)
#    0.000    0.857    5.000    2.143    6.000    3.429 
#    2.571    0.000    0.000    0.000    0.000    0.000 
#    0.000    0.000    0.000    0.000    0.000    0.000 
#
# Total GULP energy -312142.653474 kJ/mol
# GULP energy per Si atom -5573.975955 kJ/mol
# Density = 2.090641 g / cm^3
# Si number density = 20.954104 Si / 1000 Ang^3
#
#
#
# Elastic Constant Matrix: (Units=GPa)
#
#
# Indices 1 2 3 4 5 6 
#
# 1 77.5375 55.8666 3.2180 0.0000 0.0000 0.0000
# 2 55.8666 77.5385 3.2181 0.0000 0.0000 0.0000
# 3 3.2180 3.2181 95.3272 0.0000 0.0000 0.0000
# 4 0.0000 0.0000 0.0000 17.1546 0.0000 0.0000
# 5 0.0000 0.0000 0.0000 0.0000 17.1549 0.0000
# 6 0.0000 0.0000 0.0000 0.0000 0.0000 25.5032
#
#
#
# Elastic Compliance Matrix: (Units=1/GPa)
#
#
# Indices 1 2 3 4 5 6 
#
# 1 0.026826 -0.019318 -0.000253 0.000000 0.000000 0.000000
# 2 -0.019318 0.026826 -0.000253 0.000000 0.000000 0.000000
# 3 -0.000253 -0.000253 0.010507 0.000000 0.000000 0.000000
# 4 0.000000 0.000000 0.000000 0.058293 0.000000 0.000000
# 5 0.000000 0.000000 0.000000 0.000000 0.058292 0.000000
# 6 0.000000 0.000000 0.000000 0.000000 0.000000 0.039211
#
#
# Mechanical properties :
#
#
# Convention : Reuss Voigt Hill
#
# Bulk Modulus (GPa) = 40.79986 41.66763 41.23375
# Shear Modulus (GPa) = 18.67239 24.50258 21.58748
#
# Velocity S-wave (km/s) = 2.98838 3.42328 3.21320
# Velocity P-wave (km/s) = 5.60541 5.96267 5.78680
#
# Compressibility (1/GPa) = 0.02450989
#
# Stress axis : x y z
#
# Youngs Moduli (GPa) = 37.27703 37.27753 95.17190
#
# Poissons Ratio (x) = 0.72012 0.02412
# Poissons Ratio (y) = 0.72011 0.02412
# Poissons Ratio (z) = 0.00945 0.00945
#
# Static dielectric constant tensor:
#      x y z
#    x 1.765480 0.000000 0.000000 
#    y 0.000000 1.765470 0.000000 
#    z 0.000000 0.000000 1.794080 
# 
# From -- ./inp_files/2311.got.cif
#   From: 2010.05.17/outbox.cif.g08.bks.cpg/sg96_2_cif.got.tgz:2311.got - 2010.06.03 19:52:08.
