data_PCOD9551526
_publ_section_title
;
Structure prediction by ZEFSAII (Michael W. Deem and Ramdas Pophale) SiO2 
 PCOD9551526
Probable space group: I 4 2 2 
;
_chemical_formula_sum "Si O2"
_cell_formula_units_Z 80
_cell_length_a 11.499842
_cell_length_b 11.499842
_cell_length_c 32.418405
_cell_angle_alpha 90.000000
_cell_angle_beta 90.000000
_cell_angle_gamma 90.000000
_cell_volume 4287.216254
_symmetry_space_group_name_H-M "I 4 2 2 "
_symmetry_group_IT_number 97
_symmetry_cell_setting 'tetragonal'
loop_
_space_group_symop_operation_xyz
x,y,z
-y,x,z
-x,-y,z
y,-x,z
x,-y,-z
-x,y,-z
y,x,-z
-y,-x,-z
1/2+x,1/2+y,1/2+z
1/2-y,1/2+x,1/2+z
1/2-x,1/2-y,1/2+z
1/2+y,1/2-x,1/2+z
1/2+x,1/2-y,1/2-z
1/2-x,1/2+y,1/2-z
1/2+y,1/2+x,1/2-z
1/2-y,1/2-x,1/2-z
loop_
_atom_site_type_symbol
_atom_site_label
_atom_site_fract_x
_atom_site_fract_y
_atom_site_fract_z
Si Si1 0.518146 0.308912 0.451097
Si Si2 0.469352 0.306981 0.847719
Si Si3 0.312714 0.478299 0.325000
Si Si4 0.887098 0.421985 0.612672
Si Si5 0.191272 0.497035 0.758170
O O1 0.621746 0.399670 0.440640
O O2 0.500000 0.289069 0.500000
O O3 0.548407 0.193246 0.426451
O O4 0.592924 0.371930 0.851329
O O5 0.432373 0.208806 0.880433
O O6 0.480648 0.243508 0.803249
O O7 0.401362 0.375509 0.336246
O O8 0.193172 0.457812 0.348499
O O9 0.288813 0.483944 0.276375
O O10 0.000000 0.500000 0.611916
O O11 0.092987 0.592987 0.750000
O O12 0.127357 0.372644 0.750000
#
# Coordination Sequence:
#
# PCOD9551526 Si02
#       5
#    16  16  16  16  16
#     4   9  20  42  71 101 132 161 194 253 327 385
#     4  11  26  43  59  85 126 176 218 258 313 377
#     4  11  24  39  60  89 118 158 214 274 328 368
#     4  12  25  37  65  94 127 162 207 259 312 382
#     4  11  22  37  59  85 117 162 216 270 319 370
#
# _framework density 18.660126999999999
#
# number of rings (size 3 to 8) (size 9 to 14) (size 15 to 20)
#    0.000    1.200    2.000    4.200    8.400    5.200 
#    0.000    0.000    0.000    0.000    0.000    0.000 
#    0.000    0.000    0.000    0.000    0.000    0.000 
#
# Total GULP energy -223388.195657 kJ/mol
# GULP energy per Si atom -5584.704891 kJ/mol
# Density = 1.861766 g / cm^3
# Si number density = 18.660127 Si / 1000 Ang^3
#
#
#
# Elastic Constant Matrix: (Units=GPa)
#
#
# Indices 1 2 3 4 5 6 
#
# 1 131.3082 84.4036 36.1332 0.0000 0.0000 0.0000
# 2 84.4036 131.3095 36.1337 0.0000 0.0000 0.0000
# 3 36.1332 36.1337 55.2515 0.0000 0.0000 0.0000
# 4 0.0000 0.0000 0.0000 38.1363 0.0000 0.0000
# 5 0.0000 0.0000 0.0000 0.0000 38.1373 0.0000
# 6 0.0000 0.0000 0.0000 0.0000 0.0000 19.5377
#
#
#
# Elastic Compliance Matrix: (Units=1/GPa)
#
#
# Indices 1 2 3 4 5 6 
#
# 1 0.013628 -0.007692 -0.003882 0.000000 0.000000 0.000000
# 2 -0.007692 0.013628 -0.003882 0.000000 0.000000 0.000000
# 3 -0.003882 -0.003882 0.023177 0.000000 0.000000 0.000000
# 4 0.000000 0.000000 0.000000 0.026222 0.000000 0.000000
# 5 0.000000 0.000000 0.000000 0.000000 0.026221 0.000000
# 6 0.000000 0.000000 0.000000 0.000000 0.000000 0.051183
#
#
# Mechanical properties :
#
#
# Convention : Reuss Voigt Hill
#
# Bulk Modulus (GPa) = 51.22800 70.13446 60.68123
# Shear Modulus (GPa) = 26.11265 29.90885 28.01075
#
# Velocity S-wave (km/s) = 3.74489 4.00787 3.87861
# Velocity P-wave (km/s) = 6.79792 7.68662 7.25589
#
# Compressibility (1/GPa) = 0.01952057
#
# Stress axis : x y z
#
# Youngs Moduli (GPa) = 73.37803 73.37844 43.14632
#
# Poissons Ratio (x) = 0.56440 0.16750
# Poissons Ratio (y) = 0.56439 0.16751
# Poissons Ratio (z) = 0.28487 0.28488
#
# Static dielectric constant tensor:
#      x y z
#    x 1.641550 0.000000 0.000000 
#    y 0.000000 1.641550 0.000000 
#    z 0.000000 0.000000 1.637690 
# 
# From -- ./inp_files/7966.got.cif
#   From: 2010.05.17/outbox.cif.g08.bks.cpg/sg97_4_cif.got.tgz:7966.got - 2010.06.03 19:55:32.
