data_PCOD9551739
_publ_section_title
;
Structure prediction by ZEFSAII (Michael W. Deem and Ramdas Pophale) SiO2 
 PCOD9551739
Probable space group: I 41 2 2
;
_chemical_formula_sum "Si O2"
_cell_formula_units_Z 112
_cell_length_a 25.744822
_cell_length_b 25.744822
_cell_length_c 12.225757
_cell_angle_alpha 90.000000
_cell_angle_beta 90.000000
_cell_angle_gamma 90.000000
_cell_volume 8103.181123
_symmetry_space_group_name_H-M "I 41 2 2"
_symmetry_group_IT_number 98
_symmetry_cell_setting 'tetragonal'
loop_
_space_group_symop_operation_xyz
x,y,z
-y,1/2+x,1/4+z
-x,-y,z
y,1/2-x,1/4+z
x,1/2-y,1/4-z
-x,1/2+y,1/4-z
y,x,-z
-y,-x,-z
1/2+x,1/2+y,1/2+z
1/2-y,x,3/4+z
1/2-x,1/2-y,1/2+z
1/2+y,-x,3/4+z
1/2+x,-y,3/4-z
1/2-x,y,3/4-z
1/2+y,1/2+x,1/2-z
1/2-y,1/2-x,1/2-z
loop_
_atom_site_type_symbol
_atom_site_label
_atom_site_fract_x
_atom_site_fract_y
_atom_site_fract_z
Si Si1 0.405087 0.188443 0.132744
Si Si2 0.869561 0.957387 0.998813
Si Si3 0.183566 0.106799 0.635882
Si Si4 0.115302 0.029258 0.761550
Si Si5 0.546101 0.043432 0.124011
Si Si6 0.882618 0.975767 0.241503
Si Si7 0.130801 0.217442 0.012735
O O1 0.399379 0.250000 0.125000
O O2 0.411621 0.176408 0.261400
O O3 0.353757 0.156605 0.096809
O O4 0.451258 0.165015 0.059414
O O5 0.874379 0.988321 0.885626
O O6 0.820899 0.918475 0.988569
O O7 0.920002 0.920002 0.000000
O O8 0.868264 0.985878 0.115231
O O9 0.164277 0.060442 0.713722
O O10 0.241577 0.123620 0.665029
O O11 0.069590 0.073106 0.760737
O O12 0.094668 0.983562 0.684934
O O13 0.556664 0.056664 0.250000
O O14 0.500000 0.000000 0.124509
O O15 0.523485 0.091346 0.054886
O O16 0.133271 0.250000 0.125000
O O17 0.181323 0.181323 0.000000
#
# Coordination Sequence:
#
# PCOD9551739 Si02
#       7
#    16  16  16  16  16  16  16
#     4  10  20  31  44  55  77 102 134 174 217 261
#     4   9  17  29  43  57  78 102 130 164 209 259
#     4  10  20  32  43  58  75 102 137 177 224 259
#     4   9  16  28  43  59  78  99 124 160 209 260
#     4   9  16  26  42  62  81  98 121 154 200 258
#     4   9  17  28  43  60  78 100 124 159 208 256
#     4  11  22  33  46  58  77 108 145 187 231 264
#
# _framework density 13.821732000000001
#
# number of rings (size 3 to 8) (size 9 to 14) (size 15 to 20)
#    0.000    2.429    1.429    1.714    4.000    4.571 
#    0.000    2.857    0.000    0.000    0.000    0.000 
#    0.000    0.000    0.000    0.000    0.000    0.000 
#
# Total GULP energy -311969.626182 kJ/mol
# GULP energy per Si atom -5570.886182 kJ/mol
# Density = 1.379027 g / cm^3
# Si number density = 13.821732 Si / 1000 Ang^3
#
#
#
# Elastic Constant Matrix: (Units=GPa)
#
#
# Indices 1 2 3 4 5 6 
#
# 1 32.6578 33.3297 38.3907 0.0000 0.0000 0.0000
# 2 33.3297 32.6578 38.3907 0.0000 0.0000 0.0000
# 3 38.3907 38.3907 122.3074 0.0000 0.0000 0.0000
# 4 0.0000 0.0000 0.0000 19.4988 0.0000 0.0000
# 5 0.0000 0.0000 0.0000 0.0000 19.4988 0.0000
# 6 0.0000 0.0000 0.0000 0.0000 0.0000 12.8142
#
#
#
# Elastic Compliance Matrix: (Units=1/GPa)
#
#
# Indices 1 2 3 4 5 6 
#
# 1 -0.732264 0.756138 -0.007494 0.000000 0.000000 0.000000
# 2 0.756138 -0.732264 -0.007494 0.000000 0.000000 0.000000
# 3 -0.007494 -0.007494 0.012880 0.000000 0.000000 0.000000
# 4 0.000000 0.000000 0.000000 0.051285 0.000000 0.000000
# 5 0.000000 0.000000 0.000000 0.000000 0.051285 0.000000
# 6 0.000000 0.000000 0.000000 0.000000 0.000000 0.078038
#
#
# Mechanical properties :
#
#
# Convention : Reuss Voigt Hill
#
# Bulk Modulus (GPa) = 32.62278 45.31614 38.96946
# Shear Modulus (GPa) = -1.82274 15.52982 6.85354
#
# Velocity S-wave (km/s) = -1.14961 3.35562 2.22919
# Velocity P-wave (km/s) = 4.67885 6.91888 5.90604
#
# Compressibility (1/GPa) = 0.03065343
#
# Stress axis : x y z
#
# Youngs Moduli (GPa) = -1.36563 -1.36563 77.63689
#
# Poissons Ratio (x) = 1.03260 0.58179
# Poissons Ratio (y) = 1.03260 0.58179
# Poissons Ratio (z) = -0.01023 -0.01023
#
# Static dielectric constant tensor:
#      x y z
#    x 1.431120 0.000000 0.000000 
#    y 0.000000 1.431120 0.000000 
#    z 0.000000 0.000000 1.504420 
# 
# From -- ./inp_files/5465.got.cif
#   From: 2010.05.17/outbox.cif.g08.bks.cpg/sg98_3_cif.got.tgz:5465.got - 2010.06.03 20:00:51.
