data_PCOD9551241
_publ_section_title
;
Structure prediction by ZEFSAII (Michael W. Deem and Ramdas Pophale) SiO2 
 PCOD9551241
Probable space group: I 4 2 2 
;
_chemical_formula_sum "Si O2"
_cell_formula_units_Z 56
_cell_length_a 16.795815
_cell_length_b 16.795815
_cell_length_c 9.494278
_cell_angle_alpha 90.000000
_cell_angle_beta 90.000000
_cell_angle_gamma 90.000000
_cell_volume 2678.330142
_symmetry_space_group_name_H-M "I 4 2 2 "
_symmetry_group_IT_number 97
_symmetry_cell_setting 'tetragonal'
loop_
_space_group_symop_operation_xyz
x,y,z
-y,x,z
-x,-y,z
y,-x,z
x,-y,-z
-x,y,-z
y,x,-z
-y,-x,-z
1/2+x,1/2+y,1/2+z
1/2-y,1/2+x,1/2+z
1/2-x,1/2-y,1/2+z
1/2+y,1/2-x,1/2+z
1/2+x,1/2-y,1/2-z
1/2-x,1/2+y,1/2-z
1/2+y,1/2+x,1/2-z
1/2-y,1/2-x,1/2-z
loop_
_atom_site_type_symbol
_atom_site_label
_atom_site_fract_x
_atom_site_fract_y
_atom_site_fract_z
Si Si1 0.573782 0.394547 0.688443
Si Si2 0.869581 0.130420 0.500000
Si Si3 0.918345 0.306683 0.433630
Si Si4 0.075500 0.725987 0.104070
O O1 0.607021 0.480568 0.649851
O O2 0.586536 0.393699 0.856921
O O3 0.610131 0.315383 0.621004
O O4 0.891461 0.223930 0.507450
O O5 0.940346 0.292495 0.269374
O O6 0.842727 0.364269 0.443469
O O7 0.000000 0.337685 0.500000
O O8 0.000000 0.724916 0.000000
#
# Coordination Sequence:
#
# PCOD9551241 Si02
#       4
#    16   8  16  16
#     4  10  20  35  59  90 124 162 204 253 317 388
#     4  10  18  35  62  90 120 155 206 262 312 380
#     4  10  22  41  64  91 123 166 216 265 324 391
#     4  10  23  41  61  90 127 163 212 272 327 387
#
# _framework density 20.908549000000001
#
# number of rings (size 3 to 8) (size 9 to 14) (size 15 to 20)
#    0.000    2.000    0.000    4.286    0.000    6.286 
#    0.000   10.000    0.000    0.000    0.000    0.000 
#    0.000    0.000    0.000    0.000    0.000    0.000 
#
# Total GULP energy -156244.213002 kJ/mol
# GULP energy per Si atom -5580.150464 kJ/mol
# Density = 2.086096 g / cm^3
# Si number density = 20.908549 Si / 1000 Ang^3
#
#
#
# Elastic Constant Matrix: (Units=GPa)
#
#
# Indices 1 2 3 4 5 6 
#
# 1 110.4651 65.7980 70.5950 0.0000 0.0000 0.0000
# 2 65.7980 110.4655 70.5950 0.0000 0.0000 0.0000
# 3 70.5950 70.5950 115.7364 0.0000 0.0000 0.0000
# 4 0.0000 0.0000 0.0000 37.4558 0.0000 0.0000
# 5 0.0000 0.0000 0.0000 0.0000 37.4558 0.0000
# 6 0.0000 0.0000 0.0000 0.0000 0.0000 24.2240
#
#
#
# Elastic Compliance Matrix: (Units=1/GPa)
#
#
# Indices 1 2 3 4 5 6 
#
# 1 0.016741 -0.005647 -0.006767 0.000000 0.000000 0.000000
# 2 -0.005647 0.016741 -0.006767 0.000000 0.000000 0.000000
# 3 -0.006767 -0.006767 0.016895 0.000000 0.000000 0.000000
# 4 0.000000 0.000000 0.000000 0.026698 0.000000 0.000000
# 5 0.000000 0.000000 0.000000 0.000000 0.026698 0.000000
# 6 0.000000 0.000000 0.000000 0.000000 0.000000 0.041281
#
#
# Mechanical properties :
#
#
# Convention : Reuss Voigt Hill
#
# Bulk Modulus (GPa) = 83.22508 83.40477 83.31492
# Shear Modulus (GPa) = 26.67803 28.47238 27.57520
#
# Velocity S-wave (km/s) = 3.57590 3.69420 3.63553
# Velocity P-wave (km/s) = 7.54587 7.62713 7.58661
#
# Compressibility (1/GPa) = 0.01201561
#
# Stress axis : x y z
#
# Youngs Moduli (GPa) = 59.73471 59.73504 59.18862
#
# Poissons Ratio (x) = 0.33733 0.40051
# Poissons Ratio (y) = 0.33733 0.40051
# Poissons Ratio (z) = 0.40421 0.40420
#
# Static dielectric constant tensor:
#      x y z
#    x 1.747700 0.000000 0.000000 
#    y 0.000000 1.747700 0.000000 
#    z 0.000000 0.000000 1.800000 
# 
# From -- ./inp_files/1878.got.cif
#   From: 2010.05.17/outbox.cif.g08.bks.cpg/sg97_1_cif.got.tgz:1878.got - 2010.06.03 19:55:32.
