data_PCOD9551617
_publ_section_title
;
Structure prediction by ZEFSAII (Michael W. Deem and Ramdas Pophale) SiO2 
 PCOD9551617
Probable space group: I 4 2 2 
;
_chemical_formula_sum "Si O2"
_cell_formula_units_Z 60
_cell_length_a 13.932523
_cell_length_b 13.932523
_cell_length_c 13.892169
_cell_angle_alpha 90.000000
_cell_angle_beta 90.000000
_cell_angle_gamma 90.000000
_cell_volume 2696.681124
_symmetry_space_group_name_H-M "I 4 2 2 "
_symmetry_group_IT_number 97
_symmetry_cell_setting 'tetragonal'
loop_
_space_group_symop_operation_xyz
x,y,z
-y,x,z
-x,-y,z
y,-x,z
x,-y,-z
-x,y,-z
y,x,-z
-y,-x,-z
1/2+x,1/2+y,1/2+z
1/2-y,1/2+x,1/2+z
1/2-x,1/2-y,1/2+z
1/2+y,1/2-x,1/2+z
1/2+x,1/2-y,1/2-z
1/2-x,1/2+y,1/2-z
1/2+y,1/2+x,1/2-z
1/2-y,1/2-x,1/2-z
loop_
_atom_site_type_symbol
_atom_site_label
_atom_site_fract_x
_atom_site_fract_y
_atom_site_fract_z
Si Si1 0.500000 0.178331 0.000000
Si Si2 0.365777 0.063798 0.854682
Si Si3 0.628508 0.349192 0.396557
Si Si4 0.000000 0.000000 0.189640
Si Si5 0.152599 0.659569 0.361900
O O1 0.574823 0.119160 0.064468
O O2 0.427296 0.222166 0.081336
O O3 0.397788 0.102213 0.750000
O O4 0.253490 0.082420 0.873795
O O5 0.383739 0.950584 0.863711
O O6 0.604594 0.395407 0.500000
O O7 0.593646 0.426896 0.319382
O O8 0.742512 0.334943 0.406282
O O9 0.175283 0.675283 0.250000
#
# Coordination Sequence:
#
# PCOD9551617 Si02
#       5
#     8  16  16   4  16
#     4  12  25  40  60  92 128 165 210 257 316 376
#     4  12  24  41  65  91 126 169 212 261 316 379
#     4  12  24  41  65  91 126 169 212 261 316 379
#     4  12  25  40  60  92 128 165 210 257 316 376
#     4  12  24  41  65  91 126 169 212 261 316 379
#
# _framework density 22.249569999999999
#
# number of rings (size 3 to 8) (size 9 to 14) (size 15 to 20)
#    0.000    0.000    8.000    4.400    0.000    0.000 
#    0.000    0.000    0.000    0.000    0.000    0.000 
#    0.000    6.400    0.000    0.000    0.000    0.000 
#
# Total GULP energy -167034.447144 kJ/mol
# GULP energy per Si atom -5567.814905 kJ/mol
# Density = 2.219893 g / cm^3
# Si number density = 22.249570 Si / 1000 Ang^3
#
#
#
# Elastic Constant Matrix: (Units=GPa)
#
#
# Indices 1 2 3 4 5 6 
#
# 1 101.6466 -6.3736 8.8285 0.0000 0.0000 0.0000
# 2 -6.3736 101.6474 8.8285 0.0000 0.0000 0.0000
# 3 8.8285 8.8285 123.1744 0.0000 0.0000 0.0000
# 4 0.0000 0.0000 0.0000 6.7658 0.0000 0.0000
# 5 0.0000 0.0000 0.0000 0.0000 6.7664 0.0000
# 6 0.0000 0.0000 0.0000 0.0000 0.0000 18.9572
#
#
#
# Elastic Compliance Matrix: (Units=1/GPa)
#
#
# Indices 1 2 3 4 5 6 
#
# 1 0.009947 0.000690 -0.000762 0.000000 0.000000 0.000000
# 2 0.000690 0.009947 -0.000762 0.000000 0.000000 0.000000
# 3 -0.000762 -0.000762 0.008228 0.000000 0.000000 0.000000
# 4 0.000000 0.000000 0.000000 0.147801 0.000000 0.000000
# 5 0.000000 0.000000 0.000000 0.000000 0.147789 0.000000
# 6 0.000000 0.000000 0.000000 0.000000 0.000000 0.052750
#
#
# Mechanical properties :
#
#
# Convention : Reuss Voigt Hill
#
# Bulk Modulus (GPa) = 37.80298 38.78170 38.29234
# Shear Modulus (GPa) = 12.92153 27.51022 20.21588
#
# Velocity S-wave (km/s) = 2.41250 3.52012 3.01756
# Velocity P-wave (km/s) = 4.97871 5.83008 5.42113
#
# Compressibility (1/GPa) = 0.02645294
#
# Stress axis : x y z
#
# Youngs Moduli (GPa) = 100.52788 100.52862 121.53822
#
# Poissons Ratio (x) = -0.06936 0.09267
# Poissons Ratio (y) = -0.06936 0.09266
# Poissons Ratio (z) = 0.07665 0.07665
#
# Static dielectric constant tensor:
#      x y z
#    x 1.866520 0.000000 0.000000 
#    y 0.000000 1.866520 0.000000 
#    z 0.000000 0.000000 1.791480 
# 
# From -- ./inp_files/4593.got.cif
#   From: 2010.05.17/outbox.cif.g08.bks.cpg/sg97_3_cif.got.tgz:4593.got - 2010.06.03 19:55:32.
