data_PCOD9551563
_publ_section_title
;
Structure prediction by ZEFSAII (Michael W. Deem and Ramdas Pophale) SiO2 
 PCOD9551563
Probable space group: I 4 2 2 
;
_chemical_formula_sum "Si O2"
_cell_formula_units_Z 88
_cell_length_a 11.152543
_cell_length_b 11.152543
_cell_length_c 33.499581
_cell_angle_alpha 90.000000
_cell_angle_beta 90.000000
_cell_angle_gamma 90.000000
_cell_volume 4166.651600
_symmetry_space_group_name_H-M "I 4 2 2 "
_symmetry_group_IT_number 97
_symmetry_cell_setting 'tetragonal'
loop_
_space_group_symop_operation_xyz
x,y,z
-y,x,z
-x,-y,z
y,-x,z
x,-y,-z
-x,y,-z
y,x,-z
-y,-x,-z
1/2+x,1/2+y,1/2+z
1/2-y,1/2+x,1/2+z
1/2-x,1/2-y,1/2+z
1/2+y,1/2-x,1/2+z
1/2+x,1/2-y,1/2-z
1/2-x,1/2+y,1/2-z
1/2+y,1/2+x,1/2-z
1/2-y,1/2-x,1/2-z
loop_
_atom_site_type_symbol
_atom_site_label
_atom_site_fract_x
_atom_site_fract_y
_atom_site_fract_z
Si Si1 0.193306 0.067368 0.403939
Si Si2 0.007929 0.797204 0.151170
Si Si3 0.506774 0.811633 0.739411
Si Si4 0.551435 0.310857 0.818030
Si Si5 0.000000 0.797149 0.000000
Si Si6 0.554167 0.133076 0.574721
O O1 0.257128 0.074526 0.359411
O O2 0.301911 0.114661 0.430539
O O3 0.071049 0.146805 0.408539
O O4 0.120495 0.888590 0.148991
O O5 0.004776 0.732442 0.194388
O O6 0.017672 0.704553 0.114974
O O7 0.421070 0.921070 0.750000
O O8 0.452695 0.722216 0.771977
O O9 0.640559 0.859442 0.750000
O O10 0.642215 0.418051 0.823258
O O11 0.115231 0.884770 0.000000
O O12 0.004546 0.712978 0.038656
O O13 0.500000 0.000000 0.575517
#
# Coordination Sequence:
#
# PCOD9551563 Si02
#       6
#    16  16  16  16   8  16
#     4   9  21  40  68 105 143 187 234 286 352 419
#     4  11  26  45  67 100 140 189 244 304 368 431
#     4  11  24  36  55  89 133 179 239 297 358 417
#     4   9  18  35  57  82 120 172 226 276 332 400
#     4  11  27  54  82 110 145 187 230 284 356 431
#     4  12  27  44  77 109 141 185 233 294 353 433
#
# _framework density 21.120076000000001
#
# number of rings (size 3 to 8) (size 9 to 14) (size 15 to 20)
#    0.000    1.545    0.000    4.636   10.182    7.273 
#    0.000    0.000    0.000    0.000    0.000    0.000 
#    0.000    0.000    0.000    0.000    0.000    0.000 
#
# Total GULP energy -245086.329903 kJ/mol
# GULP energy per Si atom -5570.143861 kJ/mol
# Density = 2.107201 g / cm^3
# Si number density = 21.120076 Si / 1000 Ang^3
#
#
#
# Elastic Constant Matrix: (Units=GPa)
#
#
# Indices 1 2 3 4 5 6 
#
# 1 116.1333 46.2952 80.0222 0.0000 0.0000 0.0000
# 2 46.2952 116.1345 80.0213 0.0000 0.0000 0.0000
# 3 80.0222 80.0213 107.8889 0.0000 0.0000 0.0000
# 4 0.0000 0.0000 0.0000 37.3067 0.0000 0.0000
# 5 0.0000 0.0000 0.0000 0.0000 37.3061 0.0000
# 6 0.0000 0.0000 0.0000 0.0000 0.0000 24.3024
#
#
#
# Elastic Compliance Matrix: (Units=1/GPa)
#
#
# Indices 1 2 3 4 5 6 
#
# 1 0.018595 0.004276 -0.016964 0.000000 0.000000 0.000000
# 2 0.004276 0.018594 -0.016963 0.000000 0.000000 0.000000
# 3 -0.016964 -0.016963 0.034432 0.000000 0.000000 0.000000
# 4 0.000000 0.000000 0.000000 0.026805 0.000000 0.000000
# 5 0.000000 0.000000 0.000000 0.000000 0.026805 0.000000
# 6 0.000000 0.000000 0.000000 0.000000 0.000000 0.041148
#
#
# Mechanical properties :
#
#
# Convention : Reuss Voigt Hill
#
# Bulk Modulus (GPa) = 81.16557 83.64822 82.40689
# Shear Modulus (GPa) = 21.75915 28.70423 25.23169
#
# Velocity S-wave (km/s) = 3.21325 3.69059 3.46016
# Velocity P-wave (km/s) = 7.23053 7.60609 7.42069
#
# Compressibility (1/GPa) = 0.01232049
#
# Stress axis : x y z
#
# Youngs Moduli (GPa) = 53.77751 53.77990 29.04243
#
# Poissons Ratio (x) = -0.22996 0.49267
# Poissons Ratio (y) = -0.22995 0.49265
# Poissons Ratio (z) = 0.91227 0.91227
#
# Static dielectric constant tensor:
#      x y z
#    x 1.863080 0.000000 0.000000 
#    y 0.000000 1.863080 0.000000 
#    z 0.000000 0.000000 2.102780 
# 
# From -- ./inp_files/8094.got.cif
#   From: 2010.05.17/outbox.cif.g08.bks.cpg/sg97_5_cif.got.tgz:8094.got - 2010.06.03 19:55:32.
