data_PCOD9551170
_publ_section_title
;
Structure prediction by ZEFSAII (Michael W. Deem and Ramdas Pophale) SiO2 
 PCOD9551170
Probable space group: P 43 21 2
;
_chemical_formula_sum "Si O2"
_cell_formula_units_Z 40
_cell_length_a 15.138447
_cell_length_b 15.138447
_cell_length_c 8.067937
_cell_angle_alpha 90.000000
_cell_angle_beta 90.000000
_cell_angle_gamma 90.000000
_cell_volume 1848.949918
_symmetry_space_group_name_H-M "P 43 21 2"
_symmetry_group_IT_number 96
_symmetry_cell_setting 'tetragonal'
loop_
_space_group_symop_operation_xyz
x,y,z
1/2-y,1/2+x,3/4+z
-x,-y,1/2+z
1/2+y,1/2-x,1/4+z
1/2+x,1/2-y,1/4-z
1/2-x,1/2+y,3/4-z
y,x,-z
-y,-x,1/2-z
loop_
_atom_site_type_symbol
_atom_site_label
_atom_site_fract_x
_atom_site_fract_y
_atom_site_fract_z
Si Si1 0.058194 0.917257 0.554773
Si Si2 0.371306 0.276453 0.647211
Si Si3 0.461848 0.107204 0.508709
Si Si4 0.212589 0.479966 0.824369
Si Si5 0.824217 0.693674 0.555903
O O1 0.072558 0.927443 0.750000
O O2 0.146262 0.939454 0.447892
O O3 0.038058 0.813981 0.528411
O O4 0.978919 0.978919 0.500000
O O5 0.312567 0.312567 0.500000
O O6 0.402485 0.181474 0.590346
O O7 0.323234 0.255912 0.817810
O O8 0.524073 0.078462 0.660955
O O9 0.495343 0.160732 0.347609
O O10 0.201462 0.579619 0.894687
O O11 0.179805 0.394409 0.932758
O O12 0.792558 0.792558 0.500000
#
# Coordination Sequence:
#
# PCOD9551170 Si02
#       5
#     8   8   8   8   8
#     4  12  25  48  76 109 150 205 255 316 390 461
#     4  12  25  48  73 106 152 196 249 316 375 448
#     4  12  29  46  73 110 151 200 251 311 384 465
#     4  12  24  47  73 109 145 198 245 309 382 448
#     4  12  25  48  75 106 150 194 248 314 375 456
#
# _framework density 21.633901999999999
#
# number of rings (size 3 to 8) (size 9 to 14) (size 15 to 20)
#    0.000    0.000    8.000    1.200    5.600    0.000 
#    0.000    2.000    0.000    0.000    0.000    0.000 
#    0.000    0.000    0.000    0.000    0.000    0.000 
#
# Total GULP energy -222711.909045 kJ/mol
# GULP energy per Si atom -5567.797726 kJ/mol
# Density = 2.158466 g / cm^3
# Si number density = 21.633902 Si / 1000 Ang^3
#
#
#
# Elastic Constant Matrix: (Units=GPa)
#
#
# Indices 1 2 3 4 5 6 
#
# 1 103.4589 75.6383 53.9764 0.0000 0.0000 0.0000
# 2 75.6383 103.4594 53.9764 0.0000 0.0000 0.0000
# 3 53.9764 53.9764 84.4189 0.0000 0.0000 0.0000
# 4 0.0000 0.0000 0.0000 40.0939 0.0000 0.0000
# 5 0.0000 0.0000 0.0000 0.0000 40.0943 0.0000
# 6 0.0000 0.0000 0.0000 0.0000 0.0000 3.3751
#
#
#
# Elastic Compliance Matrix: (Units=1/GPa)
#
#
# Indices 1 2 3 4 5 6 
#
# 1 0.022515 -0.013430 -0.005809 0.000000 0.000000 0.000000
# 2 -0.013430 0.022514 -0.005809 0.000000 0.000000 0.000000
# 3 -0.005809 -0.005809 0.019274 0.000000 0.000000 0.000000
# 4 0.000000 0.000000 0.000000 0.024941 0.000000 0.000000
# 5 0.000000 0.000000 0.000000 0.000000 0.024941 0.000000
# 6 0.000000 0.000000 0.000000 0.000000 0.000000 0.296288
#
#
# Mechanical properties :
#
#
# Convention : Reuss Voigt Hill
#
# Bulk Modulus (GPa) = 70.38044 73.16880 71.77462
# Shear Modulus (GPa) = 10.74566 23.89574 17.32070
#
# Velocity S-wave (km/s) = 2.23110 3.32708 2.83261
# Velocity P-wave (km/s) = 6.26420 6.97525 6.62926
#
# Compressibility (1/GPa) = 0.01420849
#
# Stress axis : x y z
#
# Youngs Moduli (GPa) = 44.41557 44.41586 51.88410
#
# Poissons Ratio (x) = 0.59649 0.30138
# Poissons Ratio (y) = 0.59649 0.30138
# Poissons Ratio (z) = 0.25800 0.25800
#
# Static dielectric constant tensor:
#      x y z
#    x 1.858950 0.000000 0.000000 
#    y 0.000000 1.858950 0.000000 
#    z 0.000000 0.000000 1.825260 
# 
# From -- ./inp_files/1332.got.cif
#   From: 2010.05.17/outbox.cif.g08.bks.cpg/sg96_1_cif.got.tgz:1332.got - 2010.06.03 19:52:08.
