data_PCOD9551695
_publ_section_title
;
Structure prediction by ZEFSAII (Michael W. Deem and Ramdas Pophale) SiO2 
 PCOD9551695
Probable space group: I 41 2 2
;
_chemical_formula_sum "Si O2"
_cell_formula_units_Z 64
_cell_length_a 26.123303
_cell_length_b 26.123303
_cell_length_c 4.963690
_cell_angle_alpha 90.000000
_cell_angle_beta 90.000000
_cell_angle_gamma 90.000000
_cell_volume 3387.355875
_symmetry_space_group_name_H-M "I 41 2 2"
_symmetry_group_IT_number 98
_symmetry_cell_setting 'tetragonal'
loop_
_space_group_symop_operation_xyz
x,y,z
-y,1/2+x,1/4+z
-x,-y,z
y,1/2-x,1/4+z
x,1/2-y,1/4-z
-x,1/2+y,1/4-z
y,x,-z
-y,-x,-z
1/2+x,1/2+y,1/2+z
1/2-y,x,3/4+z
1/2-x,1/2-y,1/2+z
1/2+y,-x,3/4+z
1/2+x,-y,3/4-z
1/2-x,y,3/4-z
1/2+y,1/2+x,1/2-z
1/2-y,1/2-x,1/2-z
loop_
_atom_site_type_symbol
_atom_site_label
_atom_site_fract_x
_atom_site_fract_y
_atom_site_fract_z
Si Si1 0.380813 0.302604 0.462205
Si Si2 0.648596 0.569058 0.051729
Si Si3 0.855484 0.193991 0.241147
Si Si4 0.287024 0.527142 0.128567
O O1 0.385935 0.250000 0.625000
O O2 0.323144 0.323144 0.500000
O O3 0.400659 0.312965 0.158185
O O4 0.414415 0.340286 0.644000
O O5 0.592032 0.592032 0.000000
O O6 0.666412 0.510461 0.051774
O O7 0.841507 0.250000 0.125000
O O8 0.822670 0.177331 0.500000
O O9 0.915455 0.195205 0.309521
O O10 0.844860 0.155140 0.000000
O O11 0.250000 0.508969 0.375000
O O12 0.250000 0.529144 0.875000
#
# Coordination Sequence:
#
# PCOD9551695 Si02
#       4
#    16  16  16  16
#     4  10  19  31  46  68 100 137 179 227 281 336
#     4  10  20  33  53  79 105 137 182 236 282 321
#     4  11  23  40  60  88 120 150 184 219 265 326
#     4  11  21  36  59  84 113 149 189 231 275 327
#
# _framework density 18.893791
#
# number of rings (size 3 to 8) (size 9 to 14) (size 15 to 20)
#    0.000    1.500    0.000    8.250    0.000    1.000 
#    0.000    5.000    0.000    0.750    0.000    5.250 
#    0.000    0.000    0.000    0.000    0.000    0.000 
#
# Total GULP energy -178301.044966 kJ/mol
# GULP energy per Si atom -5571.907655 kJ/mol
# Density = 1.885079 g / cm^3
# Si number density = 18.893791 Si / 1000 Ang^3
#
#
#
# Elastic Constant Matrix: (Units=GPa)
#
#
# Indices 1 2 3 4 5 6 
#
# 1 91.7672 83.2986 39.2059 0.0000 0.0000 0.0000
# 2 83.2986 91.7728 39.2041 0.0000 0.0000 0.0000
# 3 39.2059 39.2041 126.9604 0.0000 0.0000 0.0000
# 4 0.0000 0.0000 0.0000 0.3262 0.0000 0.0000
# 5 0.0000 0.0000 0.0000 0.0000 0.3251 0.0000
# 6 0.0000 0.0000 0.0000 0.0000 0.0000 5.9024
#
#
#
# Elastic Compliance Matrix: (Units=1/GPa)
#
#
# Indices 1 2 3 4 5 6 
#
# 1 0.062339 -0.055708 -0.002049 0.000000 0.000000 0.000000
# 2 -0.055708 0.062334 -0.002045 0.000000 0.000000 0.000000
# 3 -0.002049 -0.002045 0.009141 0.000000 0.000000 0.000000
# 4 0.000000 0.000000 0.000000 3.065704 0.000000 0.000000
# 5 0.000000 0.000000 0.000000 0.000000 3.076147 0.000000
# 6 0.000000 0.000000 0.000000 0.000000 0.000000 0.169422
#
#
# Mechanical properties :
#
#
# Convention : Reuss Voigt Hill
#
# Bulk Modulus (GPa) = 70.37057 70.43529 70.40293
# Shear Modulus (GPa) = 0.76110 11.23019 5.99565
#
# Velocity S-wave (km/s) = 0.63538 2.44065 1.78332
# Velocity P-wave (km/s) = 6.15341 6.73074 6.44854
#
# Compressibility (1/GPa) = 0.01421049
#
# Stress axis : x y z
#
# Youngs Moduli (GPa) = 16.04131 16.04268 109.40118
#
# Poissons Ratio (x) = 0.89370 0.22412
# Poissons Ratio (y) = 0.89362 0.22376
# Poissons Ratio (z) = 0.03286 0.03281
#
# Static dielectric constant tensor:
#      x y z
#    x 1.723710 0.000000 0.000000 
#    y 0.000000 1.723710 0.000000 
#    z 0.000000 0.000000 1.658670 
# 
# From -- ./inp_files/1394.got.cif
#   From: 2010.05.17/outbox.cif.g08.bks.cpg/sg98_1_cif.got.tgz:1394.got - 2010.06.03 20:00:51.
