data_PCOD9551342
_publ_section_title
;
Structure prediction by ZEFSAII (Michael W. Deem and Ramdas Pophale) SiO2 
 PCOD9551342
Probable space group: I 4 2 2 
;
_chemical_formula_sum "Si O2"
_cell_formula_units_Z 60
_cell_length_a 13.575948
_cell_length_b 13.575948
_cell_length_c 16.583907
_cell_angle_alpha 90.000000
_cell_angle_beta 90.000000
_cell_angle_gamma 90.000000
_cell_volume 3056.519602
_symmetry_space_group_name_H-M "I 4 2 2 "
_symmetry_group_IT_number 97
_symmetry_cell_setting 'tetragonal'
loop_
_space_group_symop_operation_xyz
x,y,z
-y,x,z
-x,-y,z
y,-x,z
x,-y,-z
-x,y,-z
y,x,-z
-y,-x,-z
1/2+x,1/2+y,1/2+z
1/2-y,1/2+x,1/2+z
1/2-x,1/2-y,1/2+z
1/2+y,1/2-x,1/2+z
1/2+x,1/2-y,1/2-z
1/2-x,1/2+y,1/2-z
1/2+y,1/2+x,1/2-z
1/2-y,1/2-x,1/2-z
loop_
_atom_site_type_symbol
_atom_site_label
_atom_site_fract_x
_atom_site_fract_y
_atom_site_fract_z
Si Si1 0.693845 0.693845 0.000000
Si Si2 0.673598 0.897303 0.912759
Si Si3 0.500000 0.000000 0.000000
Si Si4 0.102045 0.129534 0.667853
Si Si5 0.217034 0.282967 0.250000
Si Si6 0.000000 0.834249 0.000000
O O1 0.684502 0.807256 0.975388
O O2 0.662894 0.628937 0.923068
O O3 0.570179 0.941218 0.939191
O O4 0.685073 0.848809 0.825955
O O5 0.758755 0.978687 0.927049
O O6 0.169914 0.195117 0.726330
O O7 0.984761 0.133951 0.679371
O O8 0.906066 0.906066 0.000000
#
# Coordination Sequence:
#
# PCOD9551342 Si02
#       6
#     8  16   4  16   8   8
#     4  10  20  37  67  90 124 160 214 266 312 371
#     4  10  22  41  61  94 126 170 212 274 316 385
#     4  10  24  40  68  90 122 168 232 254 312 384
#     4  10  22  41  65  94 125 165 209 261 319 385
#     4  10  24  41  62  93 136 162 206 270 338 373
#     4  10  20  38  64  90 122 172 224 260 312 386
#
# _framework density 19.630171000000001
#
# number of rings (size 3 to 8) (size 9 to 14) (size 15 to 20)
#    0.000    2.000    1.333    0.800    7.467    3.733 
#    4.800    2.667    0.000    0.000    0.000    0.000 
#    0.000    0.000    0.000    0.000    0.000    0.000 
#
# Total GULP energy -167361.556768 kJ/mol
# GULP energy per Si atom -5578.718559 kJ/mol
# Density = 1.958549 g / cm^3
# Si number density = 19.630171 Si / 1000 Ang^3
#
#
#
# Elastic Constant Matrix: (Units=GPa)
#
#
# Indices 1 2 3 4 5 6 
#
# 1 101.3370 63.7782 45.1277 0.0000 0.0000 0.0000
# 2 63.7782 101.3358 45.1273 0.0000 0.0000 0.0000
# 3 45.1277 45.1273 79.7286 0.0000 0.0000 0.0000
# 4 0.0000 0.0000 0.0000 11.3704 0.0000 0.0000
# 5 0.0000 0.0000 0.0000 0.0000 11.3727 0.0000
# 6 0.0000 0.0000 0.0000 0.0000 0.0000 41.5625
#
#
#
# Elastic Compliance Matrix: (Units=1/GPa)
#
#
# Indices 1 2 3 4 5 6 
#
# 1 0.017697 -0.008928 -0.004964 0.000000 0.000000 0.000000
# 2 -0.008928 0.017698 -0.004964 0.000000 0.000000 0.000000
# 3 -0.004964 -0.004964 0.018162 0.000000 0.000000 0.000000
# 4 0.000000 0.000000 0.000000 0.087948 0.000000 0.000000
# 5 0.000000 0.000000 0.000000 0.000000 0.087930 0.000000
# 6 0.000000 0.000000 0.000000 0.000000 0.000000 0.024060
#
#
# Mechanical properties :
#
#
# Convention : Reuss Voigt Hill
#
# Bulk Modulus (GPa) = 63.10746 65.60754 64.35750
# Shear Modulus (GPa) = 16.86415 21.41901 19.14158
#
# Velocity S-wave (km/s) = 2.93421 3.30680 3.12606
# Velocity P-wave (km/s) = 6.61040 6.93356 6.77391
#
# Compressibility (1/GPa) = 0.01584599
#
# Stress axis : x y z
#
# Youngs Moduli (GPa) = 56.50542 56.50478 55.06097
#
# Poissons Ratio (x) = 0.50446 0.27331
# Poissons Ratio (y) = 0.50447 0.27331
# Poissons Ratio (z) = 0.28048 0.28048
#
# Static dielectric constant tensor:
#      x y z
#    x 1.992720 0.000000 0.000000 
#    y 0.000000 1.992690 0.000000 
#    z 0.000000 0.000000 1.673330 
# 
# From -- ./inp_files/4635.got.cif
#   From: 2010.05.17/outbox.cif.g08.bks.cpg/sg97_3_cif.got.tgz:4635.got - 2010.06.03 19:55:32.
