data_PCOD9551215
_publ_section_title
;
Structure prediction by ZEFSAII (Michael W. Deem and Ramdas Pophale) SiO2 
 PCOD9551215
Probable space group: I 4 2 2 
;
_chemical_formula_sum "Si O2"
_cell_formula_units_Z 80
_cell_length_a 18.738332
_cell_length_b 18.738332
_cell_length_c 14.176475
_cell_angle_alpha 90.000000
_cell_angle_beta 90.000000
_cell_angle_gamma 90.000000
_cell_volume 4977.716006
_symmetry_space_group_name_H-M "I 4 2 2 "
_symmetry_group_IT_number 97
_symmetry_cell_setting 'tetragonal'
loop_
_space_group_symop_operation_xyz
x,y,z
-y,x,z
-x,-y,z
y,-x,z
x,-y,-z
-x,y,-z
y,x,-z
-y,-x,-z
1/2+x,1/2+y,1/2+z
1/2-y,1/2+x,1/2+z
1/2-x,1/2-y,1/2+z
1/2+y,1/2-x,1/2+z
1/2+x,1/2-y,1/2-z
1/2-x,1/2+y,1/2-z
1/2+y,1/2+x,1/2-z
1/2-y,1/2-x,1/2-z
loop_
_atom_site_type_symbol
_atom_site_label
_atom_site_fract_x
_atom_site_fract_y
_atom_site_fract_z
Si Si1 0.701298 0.917115 0.496095
Si Si2 0.867277 0.741030 0.297448
Si Si3 0.486300 0.820399 0.732522
Si Si4 0.436316 0.056691 0.394524
Si Si5 0.854655 0.244353 0.299049
O O1 0.721195 0.880299 0.593571
O O2 0.615627 0.923524 0.481002
O O3 0.733313 0.874101 0.406826
O O4 0.727212 0.000000 0.500000
O O5 0.808327 0.691674 0.250000
O O6 0.833706 0.820089 0.293429
O O7 0.939099 0.718659 0.243913
O O8 0.471349 0.870385 0.643419
O O9 0.473665 0.878319 0.817983
O O10 0.427097 0.759539 0.743371
O O11 0.500000 0.000000 0.402832
O O12 0.800113 0.300113 0.250000
#
# Coordination Sequence:
#
# PCOD9551215 Si02
#       5
#    16  16  16  16  16
#     4  11  20  34  51  78 107 141 178 211 265 322
#     4  11  22  34  52  77 105 139 190 222 260 320
#     4  10  17  34  50  73 103 136 175 218 263 312
#     4  10  18  30  51  73 108 141 168 206 266 329
#     4  10  19  36  55  72 102 149 180 220 267 315
#
# _framework density 16.071628
#
# number of rings (size 3 to 8) (size 9 to 14) (size 15 to 20)
#    0.000    1.600    8.000    3.000    0.000    0.400 
#    0.000    0.000    0.000    0.600    0.000    1.400 
#    0.000    0.000    0.000    0.000   14.400    0.000 
#
# Total GULP energy -222822.592301 kJ/mol
# GULP energy per Si atom -5570.564808 kJ/mol
# Density = 1.603505 g / cm^3
# Si number density = 16.071628 Si / 1000 Ang^3
#
#
#
# Elastic Constant Matrix: (Units=GPa)
#
#
# Indices 1 2 3 4 5 6 
#
# 1 96.5819 71.4753 21.2247 0.0000 0.0000 0.0000
# 2 71.4753 96.5837 21.2288 0.0000 0.0000 0.0000
# 3 21.2247 21.2288 47.6179 0.0000 0.0000 0.0000
# 4 0.0000 0.0000 0.0000 12.0397 0.0000 0.0000
# 5 0.0000 0.0000 0.0000 0.0000 12.0408 0.0000
# 6 0.0000 0.0000 0.0000 0.0000 0.0000 45.9786
#
#
#
# Elastic Compliance Matrix: (Units=1/GPa)
#
#
# Indices 1 2 3 4 5 6 
#
# 1 0.023267 -0.016562 -0.002987 0.000000 0.000000 0.000000
# 2 -0.016562 0.023267 -0.002991 0.000000 0.000000 0.000000
# 3 -0.002987 -0.002991 0.023665 0.000000 0.000000 0.000000
# 4 0.000000 0.000000 0.000000 0.083059 0.000000 0.000000
# 5 0.000000 0.000000 0.000000 0.000000 0.083051 0.000000
# 6 0.000000 0.000000 0.000000 0.000000 0.000000 0.021749
#
#
# Mechanical properties :
#
#
# Convention : Reuss Voigt Hill
#
# Bulk Modulus (GPa) = 39.80913 52.07125 45.94019
# Shear Modulus (GPa) = 16.05079 22.46881 19.25980
#
# Velocity S-wave (km/s) = 3.16366 3.74310 3.46551
# Velocity P-wave (km/s) = 6.17807 7.15198 6.68279
#
# Compressibility (1/GPa) = 0.02511987
#
# Stress axis : x y z
#
# Youngs Moduli (GPa) = 42.97965 42.97872 42.25578
#
# Poissons Ratio (x) = 0.71180 0.12623
# Poissons Ratio (y) = 0.71182 0.12638
# Poissons Ratio (z) = 0.12839 0.12855
#
# Static dielectric constant tensor:
#      x y z
#    x 1.558790 0.000000 0.000000 
#    y 0.000000 1.558790 0.000000 
#    z 0.000000 0.000000 1.594580 
# 
# From -- ./inp_files/4742.got.cif
#   From: 2010.05.17/outbox.cif.g08.bks.cpg/sg97_3_cif.got.tgz:4742.got - 2010.06.03 19:55:32.
