data_PCOD9551260
_publ_section_title
;
Structure prediction by ZEFSAII (Michael W. Deem and Ramdas Pophale) SiO2 
 PCOD9551260
Probable space group: I 4 2 2 
;
_chemical_formula_sum "Si O2"
_cell_formula_units_Z 108
_cell_length_a 24.899198
_cell_length_b 24.899198
_cell_length_c 10.966909
_cell_angle_alpha 90.000000
_cell_angle_beta 90.000000
_cell_angle_gamma 90.000000
_cell_volume 6799.155242
_symmetry_space_group_name_H-M "I 4 2 2 "
_symmetry_group_IT_number 97
_symmetry_cell_setting 'tetragonal'
loop_
_space_group_symop_operation_xyz
x,y,z
-y,x,z
-x,-y,z
y,-x,z
x,-y,-z
-x,y,-z
y,x,-z
-y,-x,-z
1/2+x,1/2+y,1/2+z
1/2-y,1/2+x,1/2+z
1/2-x,1/2-y,1/2+z
1/2+y,1/2-x,1/2+z
1/2+x,1/2-y,1/2-z
1/2-x,1/2+y,1/2-z
1/2+y,1/2+x,1/2-z
1/2-y,1/2-x,1/2-z
loop_
_atom_site_type_symbol
_atom_site_label
_atom_site_fract_x
_atom_site_fract_y
_atom_site_fract_z
Si Si1 0.973791 0.823019 0.799056
Si Si2 0.285246 0.793133 0.882066
Si Si3 0.202164 0.879621 0.976548
Si Si4 0.909308 0.000000 0.000000
Si Si5 0.413810 0.293536 0.748937
Si Si6 0.000000 0.000000 0.679883
Si Si7 0.322553 0.772269 0.134909
Si Si8 0.405125 0.412710 0.855280
O O1 0.930256 0.796162 0.887859
O O2 0.998524 0.870369 0.884323
O O3 0.943866 0.852404 0.689312
O O4 0.022156 0.786259 0.753349
O O5 0.308072 0.808072 0.750000
O O6 0.234626 0.831039 0.914292
O O7 0.266124 0.730824 0.869024
O O8 0.322515 0.797808 0.000622
O O9 0.141727 0.858274 0.000000
O O10 0.220459 0.893597 0.112622
O O11 0.949073 0.050928 0.000000
O O12 0.376438 0.260105 0.838980
O O13 0.406074 0.356031 0.785325
O O14 0.957011 0.050675 0.674082
O O15 0.310951 0.810951 0.250000
O O16 0.404331 0.404331 0.000000
#
# Coordination Sequence:
#
# PCOD9551260 Si02
#       8
#    16  16  16   8  16   4  16  16
#     4  12  24  35  52  76 101 139 176 231 302 326
#     4  10  20  34  55  83  97 128 169 227 294 330
#     4  12  19  36  56  76 105 129 176 235 287 340
#     4  11  22  34  48  70  96 130 192 242 278 325
#     4  12  23  36  53  77 105 134 181 236 289 334
#     4  12  25  44  48  57  94 149 208 240 281 326
#     4  10  19  34  54  78 102 126 167 229 286 332
#     4  12  26  37  51  67  96 145 191 237 279 332
#
# _framework density 15.884326
#
# number of rings (size 3 to 8) (size 9 to 14) (size 15 to 20)
#    0.000    0.667    7.407    2.889    2.074    0.000 
#    0.000    0.000    0.000    0.000    0.000    0.000 
#    0.000    0.000    0.000    0.000    0.000    0.741 
#
# Total GULP energy -300885.219302 kJ/mol
# GULP energy per Si atom -5571.948506 kJ/mol
# Density = 1.584817 g / cm^3
# Si number density = 15.884326 Si / 1000 Ang^3
#
#
#
# Elastic Constant Matrix: (Units=GPa)
#
#
# Indices 1 2 3 4 5 6 
#
# 1 58.2418 41.8966 30.3762 0.0000 0.0000 0.0000
# 2 41.8966 58.2408 30.3762 0.0000 0.0000 0.0000
# 3 30.3762 30.3762 124.4413 0.0000 0.0000 0.0000
# 4 0.0000 0.0000 0.0000 11.2982 0.0000 0.0000
# 5 0.0000 0.0000 0.0000 0.0000 11.2993 0.0000
# 6 0.0000 0.0000 0.0000 0.0000 0.0000 29.9832
#
#
#
# Elastic Compliance Matrix: (Units=1/GPa)
#
#
# Indices 1 2 3 4 5 6 
#
# 1 0.036452 -0.024730 -0.002861 0.000000 0.000000 0.000000
# 2 -0.024730 0.036452 -0.002861 0.000000 0.000000 0.000000
# 3 -0.002861 -0.002861 0.009433 0.000000 0.000000 0.000000
# 4 0.000000 0.000000 0.000000 0.088510 0.000000 0.000000
# 5 0.000000 0.000000 0.000000 0.000000 0.088501 0.000000
# 6 0.000000 0.000000 0.000000 0.000000 0.000000 0.033352
#
#
# Mechanical properties :
#
#
# Convention : Reuss Voigt Hill
#
# Bulk Modulus (GPa) = 46.65991 49.58021 48.12006
# Shear Modulus (GPa) = 13.86006 19.73445 16.79726
#
# Velocity S-wave (km/s) = 2.95712 3.52857 3.25541
# Velocity P-wave (km/s) = 6.41077 6.91969 6.67009
#
# Compressibility (1/GPa) = 0.02143168
#
# Stress axis : x y z
#
# Youngs Moduli (GPa) = 27.43363 27.43307 106.01240
#
# Poissons Ratio (x) = 0.67841 0.30333
# Poissons Ratio (y) = 0.67843 0.30335
# Poissons Ratio (z) = 0.07850 0.07850
#
# Static dielectric constant tensor:
#      x y z
#    x 1.538160 0.000000 0.000000 
#    y 0.000000 1.538160 0.000000 
#    z 0.000000 0.000000 1.606880 
# 
# From -- ./inp_files/4054.got.cif
#   From: 2010.05.17/outbox.cif.g08.bks.cpg/sg97_3_cif.got.tgz:4054.got - 2010.06.03 19:55:32.
