data_PCOD9551101
_publ_section_title
;
Structure prediction by ZEFSAII (Michael W. Deem and Ramdas Pophale) SiO2 
 PCOD9551101
Probable space group: P 43 21 2
;
_chemical_formula_sum "Si O2"
_cell_formula_units_Z 48
_cell_length_a 8.891154
_cell_length_b 8.891154
_cell_length_c 28.967573
_cell_angle_alpha 90.000000
_cell_angle_beta 90.000000
_cell_angle_gamma 90.000000
_cell_volume 2289.962525
_symmetry_space_group_name_H-M "P 43 21 2"
_symmetry_group_IT_number 96
_symmetry_cell_setting 'tetragonal'
loop_
_space_group_symop_operation_xyz
x,y,z
1/2-y,1/2+x,3/4+z
-x,-y,1/2+z
1/2+y,1/2-x,1/4+z
1/2+x,1/2-y,1/4-z
1/2-x,1/2+y,3/4-z
y,x,-z
-y,-x,1/2-z
loop_
_atom_site_type_symbol
_atom_site_label
_atom_site_fract_x
_atom_site_fract_y
_atom_site_fract_z
Si Si1 0.813467 0.919082 0.100613
Si Si2 0.827922 0.038453 0.349020
Si Si3 0.949597 0.050404 0.250000
Si Si4 0.186615 0.593197 0.597452
Si Si5 0.693433 0.306568 0.750000
Si Si6 0.845410 0.459140 0.895120
Si Si7 0.807550 0.448424 0.996775
O O1 0.926074 0.828882 0.134449
O O2 0.637212 0.880172 0.108896
O O3 0.852083 0.087650 0.114987
O O4 0.853833 0.885340 0.047499
O O5 0.863491 0.089345 0.296955
O O6 0.660001 0.072743 0.364690
O O7 0.870144 0.862697 0.353756
O O8 0.127888 0.074730 0.256895
O O9 0.151863 0.419165 0.607562
O O10 0.143049 0.627826 0.544484
O O11 0.872846 0.331343 0.752768
O O12 0.877174 0.407182 0.947634
#
# Coordination Sequence:
#
# PCOD9551101 Si02
#       7
#     8   8   4   8   4   8   8
#     4  11  21  39  63  93 122 157 208 257 305 368
#     4  11  23  43  62  90 127 164 207 259 315 375
#     4   9  18  38  65  84 116 168 205 238 309 378
#     4  11  23  43  61  89 128 163 206 261 314 375
#     4   9  18  36  63  90 118 154 205 256 297 362
#     4  11  21  39  64  94 121 158 207 257 307 368
#     4   9  18  37  64  87 117 161 205 246 305 370
#
# _framework density 20.961041000000002
#
# number of rings (size 3 to 8) (size 9 to 14) (size 15 to 20)
#    0.000    1.667    3.333    2.000    0.000    0.000 
#   12.000    0.000    0.000    0.000    0.000    0.000 
#    0.000    0.000    0.000    0.000    0.000    0.000 
#
# Total GULP energy -267579.965813 kJ/mol
# GULP energy per Si atom -5574.582621 kJ/mol
# Density = 2.091333 g / cm^3
# Si number density = 20.961041 Si / 1000 Ang^3
#
#
#
# Elastic Constant Matrix: (Units=GPa)
#
#
# Indices 1 2 3 4 5 6 
#
# 1 32.1926 4.0237 20.2150 0.0000 0.0000 0.0000
# 2 4.0237 32.1924 20.2153 0.0000 0.0000 0.0000
# 3 20.2150 20.2153 178.5716 0.0000 0.0000 0.0000
# 4 0.0000 0.0000 0.0000 28.2779 0.0000 0.0000
# 5 0.0000 0.0000 0.0000 0.0000 28.2783 0.0000
# 6 0.0000 0.0000 0.0000 0.0000 0.0000 38.7943
#
#
#
# Elastic Compliance Matrix: (Units=1/GPa)
#
#
# Indices 1 2 3 4 5 6 
#
# 1 0.033553 -0.001947 -0.003578 0.000000 0.000000 0.000000
# 2 -0.001947 0.033553 -0.003578 0.000000 0.000000 0.000000
# 3 -0.003578 -0.003578 0.006410 0.000000 0.000000 0.000000
# 4 0.000000 0.000000 0.000000 0.035363 0.000000 0.000000
# 5 0.000000 0.000000 0.000000 0.000000 0.035363 0.000000
# 6 0.000000 0.000000 0.000000 0.000000 0.000000 0.025777
#
#
# Mechanical properties :
#
#
# Convention : Reuss Voigt Hill
#
# Bulk Modulus (GPa) = 18.07968 36.87385 27.47677
# Shear Modulus (GPa) = 24.19404 32.30362 28.24883
#
# Velocity S-wave (km/s) = 3.40109 3.92998 3.67506
# Velocity P-wave (km/s) = 4.90585 6.18246 5.58078
#
# Compressibility (1/GPa) = 0.05531072
#
# Stress axis : x y z
#
# Youngs Moduli (GPa) = 29.80349 29.80321 156.00422
#
# Poissons Ratio (x) = 0.05803 0.55817
# Poissons Ratio (y) = 0.05803 0.55819
# Poissons Ratio (z) = 0.10663 0.10664
#
# Static dielectric constant tensor:
#      x y z
#    x 1.718310 0.000000 0.000000 
#    y 0.000000 1.718320 0.000000 
#    z 0.000000 0.000000 1.751360 
# 
# From -- ./inp_files/4524.got.cif
#   From: 2010.05.17/outbox.cif.g08.bks.cpg/sg96_3_cif.got.tgz:4524.got - 2010.06.03 19:52:08.
