data_PCOD9551099
_publ_section_title
;
Structure prediction by ZEFSAII (Michael W. Deem and Ramdas Pophale) SiO2 
 PCOD9551099
Probable space group: P 43 21 2
;
_chemical_formula_sum "Si O2"
_cell_formula_units_Z 40
_cell_length_a 9.334292
_cell_length_b 9.334292
_cell_length_c 18.542231
_cell_angle_alpha 90.000000
_cell_angle_beta 90.000000
_cell_angle_gamma 90.000000
_cell_volume 1615.566177
_symmetry_space_group_name_H-M "P 43 21 2"
_symmetry_group_IT_number 96
_symmetry_cell_setting 'tetragonal'
loop_
_space_group_symop_operation_xyz
x,y,z
1/2-y,1/2+x,3/4+z
-x,-y,1/2+z
1/2+y,1/2-x,1/4+z
1/2+x,1/2-y,1/4-z
1/2-x,1/2+y,3/4-z
y,x,-z
-y,-x,1/2-z
loop_
_atom_site_type_symbol
_atom_site_label
_atom_site_fract_x
_atom_site_fract_y
_atom_site_fract_z
Si Si1 0.418438 0.581563 0.250000
Si Si2 0.438538 0.714763 0.060282
Si Si3 0.137940 0.569322 0.176115
Si Si4 0.818956 0.457717 0.516697
Si Si5 0.790952 0.790952 0.500000
Si Si6 0.676640 0.570919 0.161644
O O1 0.304320 0.605657 0.187232
O O2 0.583029 0.611330 0.232559
O O3 0.547949 0.825130 0.022647
O O4 0.337547 0.611590 0.015229
O O5 0.557458 0.616597 0.102427
O O6 0.322355 0.836482 0.090698
O O7 0.108881 0.594540 0.091977
O O8 0.092219 0.412938 0.200026
O O9 0.811089 0.627595 0.523565
O O10 0.902670 0.806268 0.432248
#
# Coordination Sequence:
#
# PCOD9551099 Si02
#       6
#     4   8   8   8   4   8
#     4  11  20  43  74 102 140 197 242 317 384 446
#     4  12  22  44  77 110 142 198 263 306 380 469
#     4  12  25  47  77 110 154 196 256 327 381 467
#     4  12  27  48  75 115 154 200 260 316 393 469
#     4  11  28  49  70 108 166 201 242 331 404 446
#     4  11  22  43  72 106 144 199 248 310 389 446
#
# _framework density 24.759122999999999
#
# number of rings (size 3 to 8) (size 9 to 14) (size 15 to 20)
#    0.000    0.400    8.000    0.000    0.000    2.400 
#    3.600    0.000    0.000    0.000    0.000    0.000 
#    0.000    0.000    0.000    0.000    0.000    0.000 
#
# Total GULP energy -222826.300572 kJ/mol
# GULP energy per Si atom -5570.657514 kJ/mol
# Density = 2.470277 g / cm^3
# Si number density = 24.759123 Si / 1000 Ang^3
#
#
#
# Elastic Constant Matrix: (Units=GPa)
#
#
# Indices 1 2 3 4 5 6 
#
# 1 141.5504 31.8181 -2.2868 0.0000 0.0000 0.0000
# 2 31.8181 141.5490 -2.2866 0.0000 0.0000 0.0000
# 3 -2.2868 -2.2866 26.7001 0.0000 0.0000 0.0000
# 4 0.0000 0.0000 0.0000 29.6714 0.0000 0.0000
# 5 0.0000 0.0000 0.0000 0.0000 29.6714 0.0000
# 6 0.0000 0.0000 0.0000 0.0000 0.0000 48.4656
#
#
#
# Elastic Compliance Matrix: (Units=1/GPa)
#
#
# Indices 1 2 3 4 5 6 
#
# 1 0.007447 -0.001666 0.000495 0.000000 0.000000 0.000000
# 2 -0.001666 0.007447 0.000495 0.000000 0.000000 0.000000
# 3 0.000495 0.000495 0.037538 0.000000 0.000000 0.000000
# 4 0.000000 0.000000 0.000000 0.033703 0.000000 0.000000
# 5 0.000000 0.000000 0.000000 0.000000 0.033702 0.000000
# 6 0.000000 0.000000 0.000000 0.000000 0.000000 0.020633
#
#
# Mechanical properties :
#
#
# Convention : Reuss Voigt Hill
#
# Bulk Modulus (GPa) = 19.57688 40.47654 30.02671
# Shear Modulus (GPa) = 31.47647 40.39865 35.93756
#
# Velocity S-wave (km/s) = 3.56941 4.04377 3.81397
# Velocity P-wave (km/s) = 4.99116 6.17952 5.61685
#
# Compressibility (1/GPa) = 0.05108067
#
# Stress axis : x y z
#
# Youngs Moduli (GPa) = 134.28032 134.27899 26.63974
#
# Poissons Ratio (x) = 0.22371 -0.01319
# Poissons Ratio (y) = 0.22371 -0.01319
# Poissons Ratio (z) = -0.06649 -0.06648
#
# Static dielectric constant tensor:
#      x y z
#    x 1.991270 0.000000 0.000000 
#    y 0.000000 1.991270 0.000000 
#    z 0.000000 0.000000 2.237480 
# 
# From -- ./inp_files/3843.got.cif
#   From: 2010.05.17/outbox.cif.g08.bks.cpg/sg96_2_cif.got.tgz:3843.got - 2010.06.03 19:52:08.
