data_PCOD9551495
_publ_section_title
;
Structure prediction by ZEFSAII (Michael W. Deem and Ramdas Pophale) SiO2 
 PCOD9551495
Probable space group: I 4 2 2 
;
_chemical_formula_sum "Si O2"
_cell_formula_units_Z 72
_cell_length_a 13.100219
_cell_length_b 13.100219
_cell_length_c 19.989050
_cell_angle_alpha 90.000000
_cell_angle_beta 90.000000
_cell_angle_gamma 90.000000
_cell_volume 3430.435565
_symmetry_space_group_name_H-M "I 4 2 2 "
_symmetry_group_IT_number 97
_symmetry_cell_setting 'tetragonal'
loop_
_space_group_symop_operation_xyz
x,y,z
-y,x,z
-x,-y,z
y,-x,z
x,-y,-z
-x,y,-z
y,x,-z
-y,-x,-z
1/2+x,1/2+y,1/2+z
1/2-y,1/2+x,1/2+z
1/2-x,1/2-y,1/2+z
1/2+y,1/2-x,1/2+z
1/2+x,1/2-y,1/2-z
1/2-x,1/2+y,1/2-z
1/2+y,1/2+x,1/2-z
1/2-y,1/2-x,1/2-z
loop_
_atom_site_type_symbol
_atom_site_label
_atom_site_fract_x
_atom_site_fract_y
_atom_site_fract_z
Si Si1 0.042456 0.720262 0.073600
Si Si2 0.834859 0.029748 0.192788
Si Si3 0.760160 0.688497 0.830314
Si Si4 0.455489 0.788102 0.182789
Si Si5 0.500000 0.000000 0.122273
O O1 0.972822 0.793369 0.118849
O O2 0.153127 0.724592 0.115073
O O3 0.022767 0.599890 0.079783
O O4 0.000000 0.747769 0.000000
O O5 0.888304 0.921733 0.206731
O O6 0.739566 0.048172 0.239651
O O7 0.792921 0.707080 0.750000
O O8 0.651623 0.743498 0.843894
O O9 0.743608 0.566193 0.840058
O O10 0.470072 0.904999 0.167295
#
# Coordination Sequence:
#
# PCOD9551495 Si02
#       5
#    16  16  16  16   8
#     4  11  25  46  66  95 141 188 233 285 367 441
#     4  11  23  41  65  99 139 179 231 298 357 427
#     4  11  23  40  66 105 139 187 242 302 367 429
#     4  11  22  39  66  99 143 178 238 303 370 421
#     4  10  27  39  66 102 136 182 228 304 360 440
#
# _framework density 20.988586999999999
#
# number of rings (size 3 to 8) (size 9 to 14) (size 15 to 20)
#    0.000    1.111    4.444    0.333    6.222    2.222 
#    0.000    1.111    0.000    0.000    0.000    0.000 
#    0.000    7.111    0.000    0.000    0.000    0.000 
#
# Total GULP energy -200518.517818 kJ/mol
# GULP energy per Si atom -5569.958828 kJ/mol
# Density = 2.094082 g / cm^3
# Si number density = 20.988587 Si / 1000 Ang^3
#
#
#
# Elastic Constant Matrix: (Units=GPa)
#
#
# Indices 1 2 3 4 5 6 
#
# 1 134.7911 36.6502 41.3231 0.0000 0.0000 0.0000
# 2 36.6502 134.7911 41.3232 0.0000 0.0000 0.0000
# 3 41.3231 41.3232 132.5785 0.0000 0.0000 0.0000
# 4 0.0000 0.0000 0.0000 16.0117 0.0000 0.0000
# 5 0.0000 0.0000 0.0000 0.0000 16.0118 0.0000
# 6 0.0000 0.0000 0.0000 0.0000 0.0000 20.9926
#
#
#
# Elastic Compliance Matrix: (Units=1/GPa)
#
#
# Indices 1 2 3 4 5 6 
#
# 1 0.008527 -0.001663 -0.002140 0.000000 0.000000 0.000000
# 2 -0.001663 0.008527 -0.002140 0.000000 0.000000 0.000000
# 3 -0.002140 -0.002140 0.008876 0.000000 0.000000 0.000000
# 4 0.000000 0.000000 0.000000 0.062454 0.000000 0.000000
# 5 0.000000 0.000000 0.000000 0.000000 0.062454 0.000000
# 6 0.000000 0.000000 0.000000 0.000000 0.000000 0.047636
#
#
# Mechanical properties :
#
#
# Convention : Reuss Voigt Hill
#
# Bulk Modulus (GPa) = 71.18989 71.19485 71.19237
# Shear Modulus (GPa) = 23.25151 29.46084 26.35618
#
# Velocity S-wave (km/s) = 3.33200 3.75061 3.54748
# Velocity P-wave (km/s) = 6.98534 7.26295 7.12550
#
# Compressibility (1/GPa) = 0.01404694
#
# Stress axis : x y z
#
# Youngs Moduli (GPa) = 117.27641 117.27641 112.65799
#
# Poissons Ratio (x) = 0.19498 0.24103
# Poissons Ratio (y) = 0.19498 0.24103
# Poissons Ratio (z) = 0.25091 0.25092
#
# Static dielectric constant tensor:
#      x y z
#    x 1.818480 0.000000 0.000000 
#    y 0.000000 1.818480 0.000000 
#    z 0.000000 0.000000 1.758920 
# 
# From -- ./inp_files/5625.got.cif
#   From: 2010.05.17/outbox.cif.g08.bks.cpg/sg97_3_cif.got.tgz:5625.got - 2010.06.03 19:55:32.
