data_PCOD9551671
_publ_section_title
;
Structure prediction by ZEFSAII (Michael W. Deem and Ramdas Pophale) SiO2 
 PCOD9551671
Probable space group: I 41 2 2
;
_chemical_formula_sum "Si O2"
_cell_formula_units_Z 128
_cell_length_a 25.313986
_cell_length_b 25.313986
_cell_length_c 11.298076
_cell_angle_alpha 90.000000
_cell_angle_beta 90.000000
_cell_angle_gamma 90.000000
_cell_volume 7239.783230
_symmetry_space_group_name_H-M "I 41 2 2"
_symmetry_group_IT_number 98
_symmetry_cell_setting 'tetragonal'
loop_
_space_group_symop_operation_xyz
x,y,z
-y,1/2+x,1/4+z
-x,-y,z
y,1/2-x,1/4+z
x,1/2-y,1/4-z
-x,1/2+y,1/4-z
y,x,-z
-y,-x,-z
1/2+x,1/2+y,1/2+z
1/2-y,x,3/4+z
1/2-x,1/2-y,1/2+z
1/2+y,-x,3/4+z
1/2+x,-y,3/4-z
1/2-x,y,3/4-z
1/2+y,1/2+x,1/2-z
1/2-y,1/2-x,1/2-z
loop_
_atom_site_type_symbol
_atom_site_label
_atom_site_fract_x
_atom_site_fract_y
_atom_site_fract_z
Si Si1 0.941547 0.401237 0.001398
Si Si2 0.999387 0.375458 0.511591
Si Si3 0.283655 0.537231 0.258355
Si Si4 0.008757 0.407647 0.776804
Si Si5 0.902547 0.826253 0.431643
Si Si6 0.695777 0.913705 0.932766
Si Si7 0.493956 0.254864 0.261217
Si Si8 0.053438 0.417937 0.122837
O O1 0.895594 0.442212 0.032018
O O2 0.931469 0.338894 0.008403
O O3 0.960943 0.413065 0.867008
O O4 0.993320 0.411896 0.080591
O O5 0.997719 0.378176 0.654037
O O6 0.014447 0.317213 0.469919
O O7 0.043641 0.415943 0.466756
O O8 0.250000 0.554650 0.375000
O O9 0.294246 0.475267 0.284296
O O10 0.262727 0.532011 0.121452
O O11 0.038106 0.461895 0.750000
O O12 0.053168 0.371572 0.839428
O O13 0.855542 0.855542 0.500000
O O14 0.882177 0.810455 0.303794
O O15 0.938724 0.778550 0.483415
O O16 0.750000 0.895345 0.875000
O O17 0.639232 0.917647 0.868952
O O18 0.514524 0.250000 0.125000
O O19 0.055672 0.444329 0.250000
#
# Coordination Sequence:
#
# PCOD9551671 Si02
#       8
#    16  16  16  16  16  16  16  16
#     4  11  21  37  52  78 111 158 190 225 281 371
#     4  12  24  32  54  84 117 144 187 240 299 352
#     4   9  19  37  56  69 104 158 200 227 274 338
#     4  11  18  34  53  76 108 155 192 224 276 360
#     4  10  18  34  57  78 106 143 197 239 285 336
#     4   9  18  34  55  74 101 150 204 234 267 341
#     4  11  21  35  54  83 114 142 186 247 289 331
#     4  11  23  35  49  76 118 153 186 228 291 345
#
# _framework density 17.680088000000001
#
# number of rings (size 3 to 8) (size 9 to 14) (size 15 to 20)
#    0.000    1.500    6.250    1.500    7.000    1.500 
#    0.000    0.000    0.000    0.000    0.000    1.750 
#    0.000    3.000    0.000    0.000    0.000    0.000 
#
# Total GULP energy -356460.057655 kJ/mol
# GULP energy per Si atom -5569.688401 kJ/mol
# Density = 1.763985 g / cm^3
# Si number density = 17.680088 Si / 1000 Ang^3
#
#
#
# Elastic Constant Matrix: (Units=GPa)
#
#
# Indices 1 2 3 4 5 6 
#
# 1 60.7031 48.2721 23.7170 0.0000 0.0000 0.0000
# 2 48.2721 60.7021 23.7179 0.0000 0.0000 0.0000
# 3 23.7170 23.7179 90.3294 0.0000 0.0000 0.0000
# 4 0.0000 0.0000 0.0000 15.2598 0.0000 0.0000
# 5 0.0000 0.0000 0.0000 0.0000 15.2602 0.0000
# 6 0.0000 0.0000 0.0000 0.0000 0.0000 9.4157
#
#
#
# Elastic Compliance Matrix: (Units=1/GPa)
#
#
# Indices 1 2 3 4 5 6 
#
# 1 0.045403 -0.035043 -0.002720 0.000000 0.000000 0.000000
# 2 -0.035043 0.045404 -0.002721 0.000000 0.000000 0.000000
# 3 -0.002720 -0.002721 0.012499 0.000000 0.000000 0.000000
# 4 0.000000 0.000000 0.000000 0.065532 0.000000 0.000000
# 5 0.000000 0.000000 0.000000 0.000000 0.065530 0.000000
# 6 0.000000 0.000000 0.000000 0.000000 0.000000 0.106206
#
#
# Mechanical properties :
#
#
# Convention : Reuss Voigt Hill
#
# Bulk Modulus (GPa) = 44.76495 44.79431 44.77963
# Shear Modulus (GPa) = 11.65535 15.72233 13.68884
#
# Velocity S-wave (km/s) = 2.57034 2.98529 2.78556
# Velocity P-wave (km/s) = 5.84665 6.10522 5.97733
#
# Compressibility (1/GPa) = 0.02233890
#
# Stress axis : x y z
#
# Youngs Moduli (GPa) = 22.02493 22.02433 80.00560
#
# Poissons Ratio (x) = 0.77180 0.21760
# Poissons Ratio (y) = 0.77182 0.21769
# Poissons Ratio (z) = 0.05990 0.05993
#
# Static dielectric constant tensor:
#      x y z
#    x 1.622910 0.000000 0.000000 
#    y 0.000000 1.622910 0.000000 
#    z 0.000000 0.000000 1.721410 
# 
# From -- ./inp_files/5523.got.cif
#   From: 2010.05.17/outbox.cif.g08.bks.cpg/sg98_3_cif.got.tgz:5523.got - 2010.06.03 20:00:51.
