data_PCOD9551249
_publ_section_title
;
Structure prediction by ZEFSAII (Michael W. Deem and Ramdas Pophale) SiO2 
 PCOD9551249
Probable space group: I 4 2 2 
;
_chemical_formula_sum "Si O2"
_cell_formula_units_Z 84
_cell_length_a 15.548942
_cell_length_b 15.548942
_cell_length_c 17.742524
_cell_angle_alpha 90.000000
_cell_angle_beta 90.000000
_cell_angle_gamma 90.000000
_cell_volume 4289.602883
_symmetry_space_group_name_H-M "I 4 2 2 "
_symmetry_group_IT_number 97
_symmetry_cell_setting 'tetragonal'
loop_
_space_group_symop_operation_xyz
x,y,z
-y,x,z
-x,-y,z
y,-x,z
x,-y,-z
-x,y,-z
y,x,-z
-y,-x,-z
1/2+x,1/2+y,1/2+z
1/2-y,1/2+x,1/2+z
1/2-x,1/2-y,1/2+z
1/2+y,1/2-x,1/2+z
1/2+x,1/2-y,1/2-z
1/2-x,1/2+y,1/2-z
1/2+y,1/2+x,1/2-z
1/2-y,1/2-x,1/2-z
loop_
_atom_site_type_symbol
_atom_site_label
_atom_site_fract_x
_atom_site_fract_y
_atom_site_fract_z
Si Si1 0.839409 0.573812 0.909643
Si Si2 0.852365 0.220428 0.709015
Si Si3 0.370904 0.187643 0.937975
Si Si4 0.851981 0.505477 0.373565
Si Si5 0.500000 0.000000 0.250000
Si Si6 0.751881 0.946517 0.255684
O O1 0.825988 0.473031 0.923071
O O2 0.937677 0.599353 0.925534
O O3 0.815373 0.584688 0.821386
O O4 0.791704 0.630188 0.973318
O O5 0.792474 0.292474 0.750000
O O6 0.841076 0.240284 0.620412
O O7 0.823994 0.125621 0.733845
O O8 0.953720 0.229868 0.725573
O O9 0.330374 0.096198 0.911204
O O10 0.776322 0.453687 0.331400
O O11 0.919505 0.514510 0.304962
#
# Coordination Sequence:
#
# PCOD9551249 Si02
#       6
#    16  16  16  16   4  16
#     4  10  19  31  51  86 115 155 195 232 308 368
#     4  11  22  41  59  85 118 154 205 255 301 364
#     4  10  20  32  52  80 123 153 187 249 298 366
#     4  12  17  31  51  84 115 152 191 244 306 369
#     4  12  16  24  50  76 116 140 178 224 296 360
#     4  11  23  37  59  82 116 162 202 247 299 355
#
# _framework density 19.582231
#
# number of rings (size 3 to 8) (size 9 to 14) (size 15 to 20)
#    0.000    1.143    5.714    2.857    0.000    2.667 
#    0.000    0.000    0.000    0.000    0.000    5.333 
#    0.000    0.000    0.000    0.000    0.000    0.000 
#
# Total GULP energy -233831.856947 kJ/mol
# GULP energy per Si atom -5567.425165 kJ/mol
# Density = 1.953766 g / cm^3
# Si number density = 19.582231 Si / 1000 Ang^3
#
#
#
# Elastic Constant Matrix: (Units=GPa)
#
#
# Indices 1 2 3 4 5 6 
#
# 1 61.9470 61.1260 21.1267 0.0000 0.0000 0.0000
# 2 61.1260 61.9470 21.1267 0.0000 0.0000 0.0000
# 3 21.1267 21.1267 90.7570 0.0000 0.0000 0.0000
# 4 0.0000 0.0000 0.0000 19.9776 0.0000 0.0000
# 5 0.0000 0.0000 0.0000 0.0000 19.9776 0.0000
# 6 0.0000 0.0000 0.0000 0.0000 0.0000 30.8263
#
#
#
# Elastic Compliance Matrix: (Units=1/GPa)
#
#
# Indices 1 2 3 4 5 6 
#
# 1 0.613425 -0.604594 -0.002056 0.000000 0.000000 0.000000
# 2 -0.604594 0.613425 -0.002056 0.000000 0.000000 0.000000
# 3 -0.002056 -0.002056 0.011976 0.000000 0.000000 0.000000
# 4 0.000000 0.000000 0.000000 0.050056 0.000000 0.000000
# 5 0.000000 0.000000 0.000000 0.000000 0.050056 0.000000
# 6 0.000000 0.000000 0.000000 0.000000 0.000000 0.032440
#
#
# Mechanical properties :
#
#
# Convention : Reuss Voigt Hill
#
# Bulk Modulus (GPa) = 46.69690 46.82332 46.76011
# Shear Modulus (GPa) = 1.92610 21.57441 11.75025
#
# Velocity S-wave (km/s) = 0.99284 3.32284 2.45224
# Velocity P-wave (km/s) = 5.02122 6.21970 5.65232
#
# Compressibility (1/GPa) = 0.02141470
#
# Stress axis : x y z
#
# Youngs Moduli (GPa) = 1.63019 1.63019 83.50376
#
# Poissons Ratio (x) = 0.98560 0.17166
# Poissons Ratio (y) = 0.98560 0.17166
# Poissons Ratio (z) = 0.00335 0.00335
#
# Static dielectric constant tensor:
#      x y z
#    x 1.741860 0.000000 0.000000 
#    y 0.000000 1.741860 0.000000 
#    z 0.000000 0.000000 1.817190 
# 
# From -- ./inp_files/5716.got.cif
#   From: 2010.05.17/outbox.cif.g08.bks.cpg/sg97_3_cif.got.tgz:5716.got - 2010.06.03 19:55:32.
