data_PCOD9551316
_publ_section_title
;
Structure prediction by ZEFSAII (Michael W. Deem and Ramdas Pophale) SiO2 
 PCOD9551316
Probable space group: I 4 2 2 
;
_chemical_formula_sum "Si O2"
_cell_formula_units_Z 96
_cell_length_a 21.073676
_cell_length_b 21.073676
_cell_length_c 9.841687
_cell_angle_alpha 90.000000
_cell_angle_beta 90.000000
_cell_angle_gamma 90.000000
_cell_volume 4370.691427
_symmetry_space_group_name_H-M "I 4 2 2 "
_symmetry_group_IT_number 97
_symmetry_cell_setting 'tetragonal'
loop_
_space_group_symop_operation_xyz
x,y,z
-y,x,z
-x,-y,z
y,-x,z
x,-y,-z
-x,y,-z
y,x,-z
-y,-x,-z
1/2+x,1/2+y,1/2+z
1/2-y,1/2+x,1/2+z
1/2-x,1/2-y,1/2+z
1/2+y,1/2-x,1/2+z
1/2+x,1/2-y,1/2-z
1/2-x,1/2+y,1/2-z
1/2+y,1/2+x,1/2-z
1/2-y,1/2-x,1/2-z
loop_
_atom_site_type_symbol
_atom_site_label
_atom_site_fract_x
_atom_site_fract_y
_atom_site_fract_z
Si Si1 0.570316 0.580557 0.654276
Si Si2 0.422206 0.922206 0.750000
Si Si3 0.827617 0.618103 0.106555
Si Si4 0.651401 0.752633 0.493585
Si Si5 0.081370 0.208942 0.265873
Si Si6 0.964030 0.281950 0.148961
Si Si7 0.094551 0.500000 0.000000
O O1 0.493585 0.585448 0.664824
O O2 0.594604 0.594604 0.500000
O O3 0.589788 0.633515 0.763176
O O4 0.348741 0.942524 0.783185
O O5 0.461787 0.940882 0.882778
O O6 0.856162 0.643839 0.250000
O O7 0.842102 0.671876 0.997929
O O8 0.752245 0.609199 0.116126
O O9 0.862105 0.553482 0.070590
O O10 0.718085 0.718085 0.500000
O O11 0.618738 0.730181 0.631510
O O12 0.599599 0.741099 0.377818
O O13 0.011587 0.238853 0.237457
O O14 0.000000 0.292904 0.000000
#
# Coordination Sequence:
#
# PCOD9551316 Si02
#       7
#    16   8  16  16  16  16   8
#     4   9  19  32  51  88 131 161 205 270 327 404
#     4  12  24  44  69  92 128 174 222 286 340 417
#     4  10  22  43  61  87 128 168 213 279 337 397
#     4  10  21  37  61  88 125 165 213 272 334 404
#     4  10  20  35  61  85 125 172 208 258 340 408
#     4  10  22  39  62  92 127 165 214 264 337 407
#     4  12  24  44  69  90 132 171 224 286 348 398
#
# _framework density 21.964489
#
# number of rings (size 3 to 8) (size 9 to 14) (size 15 to 20)
#    0.000    1.833    3.333    1.000    9.333    0.000 
#    4.500    5.833    0.000    0.000    0.000    0.000 
#    0.000    1.333    0.000    0.000    0.000    0.000 
#
# Total GULP energy -267573.295716 kJ/mol
# GULP energy per Si atom -5574.443661 kJ/mol
# Density = 2.191450 g / cm^3
# Si number density = 21.964489 Si / 1000 Ang^3
#
#
#
# Elastic Constant Matrix: (Units=GPa)
#
#
# Indices 1 2 3 4 5 6 
#
# 1 93.0689 12.1479 6.0345 0.0000 0.0000 0.0000
# 2 12.1479 93.0688 6.0341 0.0000 0.0000 0.0000
# 3 6.0345 6.0341 33.1223 0.0000 0.0000 0.0000
# 4 0.0000 0.0000 0.0000 16.2084 0.0000 0.0000
# 5 0.0000 0.0000 0.0000 0.0000 16.2083 0.0000
# 6 0.0000 0.0000 0.0000 0.0000 0.0000 26.3822
#
#
#
# Elastic Compliance Matrix: (Units=1/GPa)
#
#
# Indices 1 2 3 4 5 6 
#
# 1 0.011032 -0.001325 -0.001769 0.000000 0.000000 0.000000
# 2 -0.001325 0.011032 -0.001768 0.000000 0.000000 0.000000
# 3 -0.001769 -0.001768 0.030835 0.000000 0.000000 0.000000
# 4 0.000000 0.000000 0.000000 0.061696 0.000000 0.000000
# 5 0.000000 0.000000 0.000000 0.000000 0.061697 0.000000
# 6 0.000000 0.000000 0.000000 0.000000 0.000000 0.037904
#
#
# Mechanical properties :
#
#
# Convention : Reuss Voigt Hill
#
# Bulk Modulus (GPa) = 23.16116 29.74368 26.45242
# Shear Modulus (GPa) = 20.98072 24.76269 22.87170
#
# Velocity S-wave (km/s) = 3.09400 3.36132 3.23042
# Velocity P-wave (km/s) = 4.83027 5.35123 5.09741
#
# Compressibility (1/GPa) = 0.04317573
#
# Stress axis : x y z
#
# Youngs Moduli (GPa) = 90.64221 90.64221 32.43018
#
# Poissons Ratio (x) = 0.12013 0.05735
# Poissons Ratio (y) = 0.12013 0.05735
# Poissons Ratio (z) = 0.16030 0.16029
#
# Static dielectric constant tensor:
#      x y z
#    x 1.851660 0.000000 0.000000 
#    y 0.000000 1.851660 0.000000 
#    z 0.000000 0.000000 1.594800 
# 
# From -- ./inp_files/3903.got.cif
#   From: 2010.05.17/outbox.cif.g08.bks.cpg/sg97_2_cif.got.tgz:3903.got - 2010.06.03 19:55:32.
