data_PCOD9551836
_publ_section_title
;
Structure prediction by ZEFSAII (Michael W. Deem and Ramdas Pophale) SiO2 
 PCOD9551836
Probable space group: I 41 2 2
;
_chemical_formula_sum "Si O2"
_cell_formula_units_Z 72
_cell_length_a 13.931277
_cell_length_b 13.931277
_cell_length_c 18.589932
_cell_angle_alpha 90.000000
_cell_angle_beta 90.000000
_cell_angle_gamma 90.000000
_cell_volume 3607.942904
_symmetry_space_group_name_H-M "I 41 2 2"
_symmetry_group_IT_number 98
_symmetry_cell_setting 'tetragonal'
loop_
_space_group_symop_operation_xyz
x,y,z
-y,1/2+x,1/4+z
-x,-y,z
y,1/2-x,1/4+z
x,1/2-y,1/4-z
-x,1/2+y,1/4-z
y,x,-z
-y,-x,-z
1/2+x,1/2+y,1/2+z
1/2-y,x,3/4+z
1/2-x,1/2-y,1/2+z
1/2+y,-x,3/4+z
1/2+x,-y,3/4-z
1/2-x,y,3/4-z
1/2+y,1/2+x,1/2-z
1/2-y,1/2-x,1/2-z
loop_
_atom_site_type_symbol
_atom_site_label
_atom_site_fract_x
_atom_site_fract_y
_atom_site_fract_z
Si Si1 0.250000 0.232404 0.875000
Si Si2 0.512056 0.356915 0.107596
Si Si3 0.644794 0.564907 0.567584
Si Si4 0.865213 0.990725 0.684500
Si Si5 0.000000 0.000000 0.814849
Si Si6 0.646248 0.646248 0.000000
O O1 0.324323 0.166562 0.834020
O O2 0.312686 0.291549 0.933439
O O3 0.542994 0.250000 0.125000
O O4 0.424480 0.394930 0.159656
O O5 0.596251 0.431710 0.126194
O O6 0.462811 0.349437 0.029270
O O7 0.573908 0.573908 0.500000
O O8 0.751513 0.520468 0.559893
O O9 0.590829 0.517855 0.634549
O O10 0.910079 0.015555 0.761725
#
# Coordination Sequence:
#
# PCOD9551836 Si02
#       6
#     8  16  16  16   8   8
#     4  12  24  34  68 104 130 170 234 294 334 420
#     4  10  21  37  61  93 141 174 214 273 347 419
#     4  12  23  42  68  97 130 175 231 290 354 406
#     4  10  24  41  63 104 134 172 227 282 350 427
#     4  10  25  42  68  97 134 174 220 298 356 423
#     4  12  20  35  60 105 136 176 226 282 344 415
#
# _framework density 19.955971000000002
#
# number of rings (size 3 to 8) (size 9 to 14) (size 15 to 20)
#    0.000    1.333    4.444    1.667    6.222    1.778 
#    0.000    0.000   12.222    0.000    0.000    0.000 
#    0.000    0.000    0.000    0.000    0.000    0.000 
#
# Total GULP energy -200640.730995 kJ/mol
# GULP energy per Si atom -5573.353639 kJ/mol
# Density = 1.991055 g / cm^3
# Si number density = 19.955971 Si / 1000 Ang^3
#
#
#
# Elastic Constant Matrix: (Units=GPa)
#
#
# Indices 1 2 3 4 5 6 
#
# 1 94.8474 55.4433 46.4851 0.0000 0.0000 0.0000
# 2 55.4433 94.8474 46.4851 0.0000 0.0000 0.0000
# 3 46.4851 46.4851 117.4099 0.0000 0.0000 0.0000
# 4 0.0000 0.0000 0.0000 22.3904 0.0000 0.0000
# 5 0.0000 0.0000 0.0000 0.0000 22.3904 0.0000
# 6 0.0000 0.0000 0.0000 0.0000 0.0000 27.3347
#
#
#
# Elastic Compliance Matrix: (Units=1/GPa)
#
#
# Indices 1 2 3 4 5 6 
#
# 1 0.017095 -0.008283 -0.003489 0.000000 0.000000 0.000000
# 2 -0.008283 0.017095 -0.003489 0.000000 0.000000 0.000000
# 3 -0.003489 -0.003489 0.011280 0.000000 0.000000 0.000000
# 4 0.000000 0.000000 0.000000 0.044662 0.000000 0.000000
# 5 0.000000 0.000000 0.000000 0.000000 0.044662 0.000000
# 6 0.000000 0.000000 0.000000 0.000000 0.000000 0.036584
#
#
# Mechanical properties :
#
#
# Convention : Reuss Voigt Hill
#
# Bulk Modulus (GPa) = 66.89702 67.10352 67.00027
# Shear Modulus (GPa) = 24.16839 25.00250 24.58544
#
# Velocity S-wave (km/s) = 3.48384 3.54345 3.51377
# Velocity P-wave (km/s) = 7.05535 7.10212 7.07877
#
# Compressibility (1/GPa) = 0.01494835
#
# Stress axis : x y z
#
# Youngs Moduli (GPa) = 58.49648 58.49648 88.65413
#
# Poissons Ratio (x) = 0.48453 0.30930
# Poissons Ratio (y) = 0.48453 0.30930
# Poissons Ratio (z) = 0.20409 0.20409
#
# Static dielectric constant tensor:
#      x y z
#    x 1.715230 0.000000 0.000000 
#    y 0.000000 1.715230 0.000000 
#    z 0.000000 0.000000 1.842100 
# 
# From -- ./inp_files/7545.got.cif
#   From: 2010.05.17/outbox.cif.g08.bks.cpg/sg98_4_cif.got.tgz:7545.got - 2010.06.03 20:00:51.
