data_PCOD9551150
_publ_section_title
;
Structure prediction by ZEFSAII (Michael W. Deem and Ramdas Pophale) SiO2 
 PCOD9551150
Probable space group: P 43 21 2
;
_chemical_formula_sum "Si O2"
_cell_formula_units_Z 32
_cell_length_a 9.025511
_cell_length_b 9.025511
_cell_length_c 16.623879
_cell_angle_alpha 90.000000
_cell_angle_beta 90.000000
_cell_angle_gamma 90.000000
_cell_volume 1354.178670
_symmetry_space_group_name_H-M "P 43 21 2"
_symmetry_group_IT_number 96
_symmetry_cell_setting 'tetragonal'
loop_
_space_group_symop_operation_xyz
x,y,z
1/2-y,1/2+x,3/4+z
-x,-y,1/2+z
1/2+y,1/2-x,1/4+z
1/2+x,1/2-y,1/4-z
1/2-x,1/2+y,3/4-z
y,x,-z
-y,-x,1/2-z
loop_
_atom_site_type_symbol
_atom_site_label
_atom_site_fract_x
_atom_site_fract_y
_atom_site_fract_z
Si Si1 0.207995 0.353147 0.146075
Si Si2 0.585924 0.065043 0.937281
Si Si3 0.687238 0.742051 0.905045
Si Si4 0.065361 0.027267 0.839823
O O1 0.143806 0.441671 0.222464
O O2 0.115041 0.416149 0.070139
O O3 0.382266 0.376521 0.135546
O O4 0.156243 0.187128 0.161311
O O5 0.667793 0.205495 0.895873
O O6 0.623552 0.907752 0.896039
O O7 0.577916 0.610809 0.876276
O O8 0.716633 0.716633 0.000000
O O9 0.026496 0.973505 0.750000
#
# Coordination Sequence:
#
# PCOD9551150 Si02
#       4
#     8   8   8   8
#     4  12  25  47  72 103 149 186 249 298 369 437
#     4  12  25  44  72 105 139 194 241 297 361 447
#     4  11  25  43  72 101 142 186 239 294 363 431
#     4  11  25  46  70 105 142 190 241 307 360 432
#
# _framework density 23.630557
#
# number of rings (size 3 to 8) (size 9 to 14) (size 15 to 20)
#    0.000    0.500    5.000    3.000    3.500    2.000 
#    4.500    0.000    0.000    0.000    0.000    0.000 
#    0.000    0.000    0.000    0.000    0.000    0.000 
#
# Total GULP energy -178999.062129 kJ/mol
# GULP energy per Si atom -5593.720692 kJ/mol
# Density = 2.357677 g / cm^3
# Si number density = 23.630557 Si / 1000 Ang^3
#
#
#
# Elastic Constant Matrix: (Units=GPa)
#
#
# Indices 1 2 3 4 5 6 
#
# 1 88.8769 -12.9217 -9.2089 0.0000 0.0000 0.0000
# 2 -12.9217 88.8772 -9.2088 0.0000 0.0000 0.0000
# 3 -9.2089 -9.2088 35.2320 0.0000 0.0000 0.0000
# 4 0.0000 0.0000 0.0000 28.1549 0.0000 0.0000
# 5 0.0000 0.0000 0.0000 0.0000 28.1547 0.0000
# 6 0.0000 0.0000 0.0000 0.0000 0.0000 47.9486
#
#
#
# Elastic Compliance Matrix: (Units=1/GPa)
#
#
# Indices 1 2 3 4 5 6 
#
# 1 0.011940 0.002117 0.003674 0.000000 0.000000 0.000000
# 2 0.002117 0.011940 0.003674 0.000000 0.000000 0.000000
# 3 0.003674 0.003674 0.030304 0.000000 0.000000 0.000000
# 4 0.000000 0.000000 0.000000 0.035518 0.000000 0.000000
# 5 0.000000 0.000000 0.000000 0.000000 0.035518 0.000000
# 6 0.000000 0.000000 0.000000 0.000000 0.000000 0.020856
#
#
# Mechanical properties :
#
#
# Convention : Reuss Voigt Hill
#
# Bulk Modulus (GPa) = 13.67742 16.70081 15.18912
# Shear Modulus (GPa) = 32.99963 37.14001 35.06982
#
# Velocity S-wave (km/s) = 3.74101 3.96876 3.85657
# Velocity P-wave (km/s) = 4.94578 5.29945 5.12567
#
# Compressibility (1/GPa) = 0.07311319
#
# Stress axis : x y z
#
# Youngs Moduli (GPa) = 83.75254 83.75286 32.99903
#
# Poissons Ratio (x) = -0.17727 -0.12124
# Poissons Ratio (y) = -0.17727 -0.12124
# Poissons Ratio (z) = -0.30771 -0.30771
#
# Static dielectric constant tensor:
#      x y z
#    x 1.899890 0.000000 0.000000 
#    y 0.000000 1.899890 0.000000 
#    z 0.000000 0.000000 1.886840 
# 
# From -- ./inp_files/3319.got.cif
#   From: 2010.05.17/outbox.cif.g08.bks.cpg/sg96_2_cif.got.tgz:3319.got - 2010.06.03 19:52:08.
