data_PCOD9551028
_publ_section_title
;
Structure prediction by ZEFSAII (Michael W. Deem and Ramdas Pophale) SiO2 
 PCOD9551028
Probable space group: P 43 21 2
;
_chemical_formula_sum "Si O2"
_cell_formula_units_Z 40
_cell_length_a 8.009747
_cell_length_b 8.009747
_cell_length_c 22.661155
_cell_angle_alpha 90.000000
_cell_angle_beta 90.000000
_cell_angle_gamma 90.000000
_cell_volume 1453.850125
_symmetry_space_group_name_H-M "P 43 21 2"
_symmetry_group_IT_number 96
_symmetry_cell_setting 'tetragonal'
loop_
_space_group_symop_operation_xyz
x,y,z
1/2-y,1/2+x,3/4+z
-x,-y,1/2+z
1/2+y,1/2-x,1/4+z
1/2+x,1/2-y,1/4-z
1/2-x,1/2+y,3/4-z
y,x,-z
-y,-x,1/2-z
loop_
_atom_site_type_symbol
_atom_site_label
_atom_site_fract_x
_atom_site_fract_y
_atom_site_fract_z
Si Si1 0.589580 0.211378 0.007556
Si Si2 0.746813 0.986601 0.382962
Si Si3 0.946615 0.910485 0.157024
Si Si4 0.616040 0.910844 0.931467
Si Si5 0.129819 0.870182 0.250000
Si Si6 0.302613 0.697388 0.750000
O O1 0.608852 0.399395 0.978354
O O2 0.665873 0.103092 0.956139
O O3 0.393567 0.171036 0.010241
O O4 0.633447 0.215094 0.075803
O O5 0.567936 0.058317 0.402180
O O6 0.834137 0.903906 0.440383
O O7 0.901716 0.098591 0.358476
O O8 0.891865 0.767443 0.115165
O O9 0.141055 0.906726 0.175393
O O10 0.611669 0.835455 0.998331
#
# Coordination Sequence:
#
# PCOD9551028 Si02
#       6
#     8   8   8   8   4   4
#     4  11  22  49  72 105 160 206 261 341 397 476
#     4  11  24  47  78 110 157 212 270 332 411 492
#     4  12  24  48  76 110 159 206 267 332 400 484
#     4  11  28  45  75 112 156 209 268 327 409 480
#     4  12  25  49  66 116 154 196 270 339 393 478
#     4  10  23  43  72 112 142 214 270 321 419 474
#
# _framework density 27.513148999999999
#
# number of rings (size 3 to 8) (size 9 to 14) (size 15 to 20)
#    0.000    0.800    4.000    2.400    2.800    2.400 
#   14.400    0.000    0.000    0.000    0.000    0.000 
#    0.000    0.000    0.000    0.000    0.000    0.000 
#
# Total GULP energy -222811.467301 kJ/mol
# GULP energy per Si atom -5570.286683 kJ/mol
# Density = 2.745053 g / cm^3
# Si number density = 27.513149 Si / 1000 Ang^3
#
#
#
# Elastic Constant Matrix: (Units=GPa)
#
#
# Indices 1 2 3 4 5 6 
#
# 1 26.2383 81.8142 77.3261 0.0000 0.0000 0.0000
# 2 81.8142 26.2395 77.3260 0.0000 0.0000 0.0000
# 3 77.3261 77.3260 224.6500 0.0000 0.0000 0.0000
# 4 0.0000 0.0000 0.0000 42.8466 0.0000 0.0000
# 5 0.0000 0.0000 0.0000 0.0000 42.8460 0.0000
# 6 0.0000 0.0000 0.0000 0.0000 0.0000 40.4436
#
#
#
# Elastic Compliance Matrix: (Units=1/GPa)
#
#
# Indices 1 2 3 4 5 6 
#
# 1 0.000124 0.018117 -0.006279 0.000000 0.000000 0.000000
# 2 0.018117 0.000124 -0.006279 0.000000 0.000000 0.000000
# 3 -0.006279 -0.006279 0.008774 0.000000 0.000000 0.000000
# 4 0.000000 0.000000 0.000000 0.023339 0.000000 0.000000
# 5 0.000000 0.000000 0.000000 0.000000 0.023339 0.000000
# 6 0.000000 0.000000 0.000000 0.000000 0.000000 0.024726
#
#
# Mechanical properties :
#
#
# Convention : Reuss Voigt Hill
#
# Bulk Modulus (GPa) = 49.64947 83.34005 66.49476
# Shear Modulus (GPa) = 65.77249 27.93800 46.85525
#
# Velocity S-wave (km/s) = 4.89466 3.19006 4.13123
# Velocity P-wave (km/s) = 7.07309 6.62762 6.85397
#
# Compressibility (1/GPa) = 0.02014120
#
# Stress axis : x y z
#
# Youngs Moduli (GPa) = 8088.92134 8062.92217 113.97628
#
# Poissons Ratio (x) = -146.07937 0.71562
# Poissons Ratio (y) = -146.55041 0.71564
# Poissons Ratio (z) = 50.78783 50.62576
#
# Static dielectric constant tensor:
#      x y z
#    x 2.363750 0.000000 0.000000 
#    y 0.000000 2.363750 0.000000 
#    z 0.000000 0.000000 2.406670 
# 
# From -- ./inp_files/3854.got.cif
#   From: 2010.05.17/outbox.cif.g08.bks.cpg/sg96_2_cif.got.tgz:3854.got - 2010.06.03 19:52:08.
