data_PCOD9551376
_publ_section_title
;
Structure prediction by ZEFSAII (Michael W. Deem and Ramdas Pophale) SiO2 
 PCOD9551376
Probable space group: I 4 2 2 
;
_chemical_formula_sum "Si O2"
_cell_formula_units_Z 88
_cell_length_a 12.423050
_cell_length_b 12.423050
_cell_length_c 28.088488
_cell_angle_alpha 90.000000
_cell_angle_beta 90.000000
_cell_angle_gamma 90.000000
_cell_volume 4334.957342
_symmetry_space_group_name_H-M "I 4 2 2 "
_symmetry_group_IT_number 97
_symmetry_cell_setting 'tetragonal'
loop_
_space_group_symop_operation_xyz
x,y,z
-y,x,z
-x,-y,z
y,-x,z
x,-y,-z
-x,y,-z
y,x,-z
-y,-x,-z
1/2+x,1/2+y,1/2+z
1/2-y,1/2+x,1/2+z
1/2-x,1/2-y,1/2+z
1/2+y,1/2-x,1/2+z
1/2+x,1/2-y,1/2-z
1/2-x,1/2+y,1/2-z
1/2+y,1/2+x,1/2-z
1/2-y,1/2-x,1/2-z
loop_
_atom_site_type_symbol
_atom_site_label
_atom_site_fract_x
_atom_site_fract_y
_atom_site_fract_z
Si Si1 0.017185 0.181677 0.204930
Si Si2 0.892605 0.264742 0.023903
Si Si3 0.181636 0.500000 0.000000
Si Si4 0.327125 0.039568 0.602392
Si Si5 0.670617 0.032931 0.882707
Si Si6 0.956055 0.824233 0.310880
O O1 0.004117 0.272932 0.165507
O O2 0.112080 0.093084 0.200221
O O3 0.039923 0.226368 0.258057
O O4 0.907509 0.250387 0.080334
O O5 0.791429 0.208572 0.000000
O O6 0.883476 0.392644 0.014019
O O7 0.000000 0.220915 0.000000
O O8 0.233841 0.525016 0.948285
O O9 0.423640 0.123803 0.593936
O O10 0.252295 0.072123 0.645722
O O11 0.386253 0.930502 0.620597
O O12 0.075245 0.875178 0.314280
#
# Coordination Sequence:
#
# PCOD9551376 Si02
#       6
#    16  16   8  16  16  16
#     4   9  20  38  58  81 117 157 195 245 309 373
#     4  11  23  39  62  90 126 169 207 254 310 373
#     4  10  21  42  62  83 122 167 210 244 303 378
#     4  10  21  37  61  83 116 156 198 250 297 362
#     4  10  22  36  58  89 116 157 200 245 298 364
#     4   9  20  40  61  83 113 154 199 251 313 371
#
# _framework density 20.300083999999998
#
# number of rings (size 3 to 8) (size 9 to 14) (size 15 to 20)
#    0.000    2.182    1.818    1.364    2.545    6.000 
#    0.000    5.455    0.000    1.364    0.000    0.000 
#    0.000    0.000    0.000    0.000    0.000    0.000 
#
# Total GULP energy -245106.436675 kJ/mol
# GULP energy per Si atom -5570.600834 kJ/mol
# Density = 2.025388 g / cm^3
# Si number density = 20.300084 Si / 1000 Ang^3
#
#
#
# Elastic Constant Matrix: (Units=GPa)
#
#
# Indices 1 2 3 4 5 6 
#
# 1 42.1600 -3.4525 17.0024 0.0000 0.0000 0.0000
# 2 -3.4525 42.1585 17.0024 0.0000 0.0000 0.0000
# 3 17.0024 17.0024 125.8842 0.0000 0.0000 0.0000
# 4 0.0000 0.0000 0.0000 29.5948 0.0000 0.0000
# 5 0.0000 0.0000 0.0000 0.0000 29.5961 0.0000
# 6 0.0000 0.0000 0.0000 0.0000 0.0000 1.7564
#
#
#
# Elastic Compliance Matrix: (Units=1/GPa)
#
#
# Indices 1 2 3 4 5 6 
#
# 1 0.025618 0.003695 -0.003959 0.000000 0.000000 0.000000
# 2 0.003695 0.025619 -0.003959 0.000000 0.000000 0.000000
# 3 -0.003959 -0.003959 0.009013 0.000000 0.000000 0.000000
# 4 0.000000 0.000000 0.000000 0.033790 0.000000 0.000000
# 5 0.000000 0.000000 0.000000 0.000000 0.033788 0.000000
# 6 0.000000 0.000000 0.000000 0.000000 0.000000 0.569339
#
#
# Mechanical properties :
#
#
# Convention : Reuss Voigt Hill
#
# Bulk Modulus (GPa) = 19.30367 30.14525 24.72446
# Shear Modulus (GPa) = 6.91675 24.16617 15.54146
#
# Velocity S-wave (km/s) = 1.84788 3.45403 2.76992
# Velocity P-wave (km/s) = 3.75269 5.54880 4.73666
#
# Compressibility (1/GPa) = 0.05180362
#
# Stress axis : x y z
#
# Youngs Moduli (GPa) = 39.03447 39.03302 110.94720
#
# Poissons Ratio (x) = -0.14422 0.43925
# Poissons Ratio (y) = -0.14422 0.43927
# Poissons Ratio (z) = 0.15454 0.15454
#
# Static dielectric constant tensor:
#      x y z
#    x 1.712360 0.000000 0.000000 
#    y 0.000000 1.712370 0.000000 
#    z 0.000000 0.000000 1.765050 
# 
# From -- ./inp_files/8083.got.cif
#   From: 2010.05.17/outbox.cif.g08.bks.cpg/sg97_5_cif.got.tgz:8083.got - 2010.06.03 19:55:32.
