data_PCOD9551547
_publ_section_title
;
Structure prediction by ZEFSAII (Michael W. Deem and Ramdas Pophale) SiO2 
 PCOD9551547
Probable space group: I 4 2 2 
;
_chemical_formula_sum "Si O2"
_cell_formula_units_Z 56
_cell_length_a 10.400510
_cell_length_b 10.400510
_cell_length_c 21.594170
_cell_angle_alpha 90.000000
_cell_angle_beta 90.000000
_cell_angle_gamma 90.000000
_cell_volume 2335.854504
_symmetry_space_group_name_H-M "I 4 2 2 "
_symmetry_group_IT_number 97
_symmetry_cell_setting 'tetragonal'
loop_
_space_group_symop_operation_xyz
x,y,z
-y,x,z
-x,-y,z
y,-x,z
x,-y,-z
-x,y,-z
y,x,-z
-y,-x,-z
1/2+x,1/2+y,1/2+z
1/2-y,1/2+x,1/2+z
1/2-x,1/2-y,1/2+z
1/2+y,1/2-x,1/2+z
1/2+x,1/2-y,1/2-z
1/2-x,1/2+y,1/2-z
1/2+y,1/2+x,1/2-z
1/2-y,1/2-x,1/2-z
loop_
_atom_site_type_symbol
_atom_site_label
_atom_site_fract_x
_atom_site_fract_y
_atom_site_fract_z
Si Si1 0.797624 0.878225 0.285474
Si Si2 0.053193 0.686050 0.632425
Si Si3 0.500000 0.283237 0.000000
Si Si4 0.975287 0.797970 0.158675
O O1 0.747619 0.752382 0.250000
O O2 0.890945 0.823977 0.340025
O O3 0.674214 0.931243 0.323066
O O4 0.816014 0.991143 0.233051
O O5 0.159764 0.578211 0.641694
O O6 0.010680 0.701288 0.562289
O O7 0.623933 0.376068 0.000000
O O8 0.106711 0.861708 0.134945
#
# Coordination Sequence:
#
# PCOD9551547 Si02
#       4
#    16  16   8  16
#     4  12  22  40  65 109 147 185 234 309 374 445
#     4  12  24  42  69 108 145 191 251 298 373 451
#     4  11  24  44  72 101 138 191 236 309 362 442
#     4  11  23  41  66 103 151 199 236 303 381 446
#
# _framework density 23.974097
#
# number of rings (size 3 to 8) (size 9 to 14) (size 15 to 20)
#    0.000    0.429    8.571    0.857    0.000    2.857 
#    0.000    0.000    0.000   15.429    0.000    6.000 
#    0.000    0.000    0.000    0.000    0.000    0.000 
#
# Total GULP energy -156096.409927 kJ/mol
# GULP energy per Si atom -5574.871783 kJ/mol
# Density = 2.391953 g / cm^3
# Si number density = 23.974097 Si / 1000 Ang^3
#
#
#
# Elastic Constant Matrix: (Units=GPa)
#
#
# Indices 1 2 3 4 5 6 
#
# 1 90.1028 21.6111 29.4301 0.0000 0.0000 0.0000
# 2 21.6111 90.1030 29.4304 0.0000 0.0000 0.0000
# 3 29.4301 29.4304 140.4850 0.0000 0.0000 0.0000
# 4 0.0000 0.0000 0.0000 27.5239 0.0000 0.0000
# 5 0.0000 0.0000 0.0000 0.0000 27.5241 0.0000
# 6 0.0000 0.0000 0.0000 0.0000 0.0000 47.9571
#
#
#
# Elastic Compliance Matrix: (Units=1/GPa)
#
#
# Indices 1 2 3 4 5 6 
#
# 1 0.012331 -0.002269 -0.002108 0.000000 0.000000 0.000000
# 2 -0.002269 0.012331 -0.002108 0.000000 0.000000 0.000000
# 3 -0.002108 -0.002108 0.008001 0.000000 0.000000 0.000000
# 4 0.000000 0.000000 0.000000 0.036332 0.000000 0.000000
# 5 0.000000 0.000000 0.000000 0.000000 0.036332 0.000000
# 6 0.000000 0.000000 0.000000 0.000000 0.000000 0.020852
#
#
# Mechanical properties :
#
#
# Convention : Reuss Voigt Hill
#
# Bulk Modulus (GPa) = 50.77723 53.51488 52.14605
# Shear Modulus (GPa) = 34.31378 36.61563 35.46470
#
# Velocity S-wave (km/s) = 3.78734 3.91231 3.85033
# Velocity P-wave (km/s) = 6.35226 6.54054 6.44709
#
# Compressibility (1/GPa) = 0.01969387
#
# Stress axis : x y z
#
# Youngs Moduli (GPa) = 81.09525 81.09537 124.97863
#
# Poissons Ratio (x) = 0.18401 0.26344
# Poissons Ratio (y) = 0.18401 0.26344
# Poissons Ratio (z) = 0.17094 0.17094
#
# Static dielectric constant tensor:
#      x y z
#    x 2.143070 0.000000 0.000000 
#    y 0.000000 2.143060 0.000000 
#    z 0.000000 0.000000 1.923500 
# 
# From -- ./inp_files/6242.got.cif
#   From: 2010.05.17/outbox.cif.g08.bks.cpg/sg97_4_cif.got.tgz:6242.got - 2010.06.03 19:55:32.
