data_PCOD9551061
_publ_section_title
;
Structure prediction by ZEFSAII (Michael W. Deem and Ramdas Pophale) SiO2 
 PCOD9551061
Probable space group: P 43 21 2
;
_chemical_formula_sum "Si O2"
_cell_formula_units_Z 40
_cell_length_a 15.874752
_cell_length_b 15.874752
_cell_length_c 6.885543
_cell_angle_alpha 90.000000
_cell_angle_beta 90.000000
_cell_angle_gamma 90.000000
_cell_volume 1735.210206
_symmetry_space_group_name_H-M "P 43 21 2"
_symmetry_group_IT_number 96
_symmetry_cell_setting 'tetragonal'
loop_
_space_group_symop_operation_xyz
x,y,z
1/2-y,1/2+x,3/4+z
-x,-y,1/2+z
1/2+y,1/2-x,1/4+z
1/2+x,1/2-y,1/4-z
1/2-x,1/2+y,3/4-z
y,x,-z
-y,-x,1/2-z
loop_
_atom_site_type_symbol
_atom_site_label
_atom_site_fract_x
_atom_site_fract_y
_atom_site_fract_z
Si Si1 0.072932 0.937075 0.027497
Si Si2 0.179210 0.179210 0.500000
Si Si3 0.843628 0.682268 0.305639
Si Si4 0.163721 0.836280 0.750000
Si Si5 0.939234 0.785669 0.645701
Si Si6 0.609774 0.015519 0.280989
O O1 0.083188 0.916813 0.250000
O O2 0.089084 0.853461 0.903674
O O3 0.144443 0.001849 0.953439
O O4 0.984438 0.984438 0.000000
O O5 0.164387 0.269842 0.601992
O O6 0.116326 0.173774 0.317094
O O7 0.749875 0.663593 0.382487
O O8 0.885902 0.742424 0.469780
O O9 0.890575 0.592232 0.310656
O O10 0.987387 0.705835 0.737089
O O11 0.565083 0.057105 0.097965
#
# Coordination Sequence:
#
# PCOD9551061 Si02
#       6
#     8   4   8   4   8   8
#     4  12  27  48  72 105 150 200 251 320 386 450
#     4  12  24  42  81 102 147 204 240 310 386 446
#     4  11  24  47  68 107 144 184 252 304 370 463
#     4  12  24  44  69 108 145 190 256 310 368 472
#     4  11  25  47  72 108 149 189 256 313 374 470
#     4  10  24  45  71 104 144 183 239 313 372 448
#
# _framework density 23.051960000000001
#
# number of rings (size 3 to 8) (size 9 to 14) (size 15 to 20)
#    0.000    0.800    5.000    1.200    4.200    3.200 
#    1.800    2.000    0.000    0.000    0.000    0.000 
#    0.000    0.000    0.000    0.000    0.000    0.000 
#
# Total GULP energy -223674.907755 kJ/mol
# GULP energy per Si atom -5591.872694 kJ/mol
# Density = 2.299949 g / cm^3
# Si number density = 23.051960 Si / 1000 Ang^3
#
#
#
# Elastic Constant Matrix: (Units=GPa)
#
#
# Indices 1 2 3 4 5 6 
#
# 1 85.0159 43.7508 33.3844 0.0000 0.0000 0.0000
# 2 43.7508 85.0184 33.3840 0.0000 0.0000 0.0000
# 3 33.3844 33.3840 129.6836 0.0000 0.0000 0.0000
# 4 0.0000 0.0000 0.0000 37.3676 0.0000 0.0000
# 5 0.0000 0.0000 0.0000 0.0000 37.3675 0.0000
# 6 0.0000 0.0000 0.0000 0.0000 0.0000 56.1238
#
#
#
# Elastic Compliance Matrix: (Units=1/GPa)
#
#
# Indices 1 2 3 4 5 6 
#
# 1 0.016598 -0.007635 -0.002307 0.000000 0.000000 0.000000
# 2 -0.007635 0.016597 -0.002307 0.000000 0.000000 0.000000
# 3 -0.002307 -0.002307 0.008899 0.000000 0.000000 0.000000
# 4 0.000000 0.000000 0.000000 0.026761 0.000000 0.000000
# 5 0.000000 0.000000 0.000000 0.000000 0.026761 0.000000
# 6 0.000000 0.000000 0.000000 0.000000 0.000000 0.017818
#
#
# Mechanical properties :
#
#
# Convention : Reuss Voigt Hill
#
# Bulk Modulus (GPa) = 56.83495 57.86183 57.34839
# Shear Modulus (GPa) = 34.77097 38.78502 36.77800
#
# Velocity S-wave (km/s) = 3.88799 4.10628 3.99863
# Velocity P-wave (km/s) = 6.69806 6.90197 6.80078
#
# Compressibility (1/GPa) = 0.01759481
#
# Stress axis : x y z
#
# Youngs Moduli (GPa) = 60.24894 60.25108 112.37329
#
# Poissons Ratio (x) = 0.46004 0.25927
# Poissons Ratio (y) = 0.46002 0.25925
# Poissons Ratio (z) = 0.13901 0.13900
#
# Static dielectric constant tensor:
#      x y z
#    x 1.901890 0.000000 0.000000 
#    y 0.000000 1.901890 0.000000 
#    z 0.000000 0.000000 1.853970 
# 
# From -- ./inp_files/435.got.cif
#   From: 2010.05.17/outbox.cif.g08.bks.cpg/sg96_1_cif.got.tgz:435.got - 2010.06.03 19:52:08.
