data_PCOD9551034
_publ_section_title
;
Structure prediction by ZEFSAII (Michael W. Deem and Ramdas Pophale) SiO2 
 PCOD9551034
Probable space group: P 43 21 2
;
_chemical_formula_sum "Si O2"
_cell_formula_units_Z 32
_cell_length_a 10.806608
_cell_length_b 10.806608
_cell_length_c 10.554469
_cell_angle_alpha 90.000000
_cell_angle_beta 90.000000
_cell_angle_gamma 90.000000
_cell_volume 1232.580194
_symmetry_space_group_name_H-M "P 43 21 2"
_symmetry_group_IT_number 96
_symmetry_cell_setting 'tetragonal'
loop_
_space_group_symop_operation_xyz
x,y,z
1/2-y,1/2+x,3/4+z
-x,-y,1/2+z
1/2+y,1/2-x,1/4+z
1/2+x,1/2-y,1/4-z
1/2-x,1/2+y,3/4-z
y,x,-z
-y,-x,1/2-z
loop_
_atom_site_type_symbol
_atom_site_label
_atom_site_fract_x
_atom_site_fract_y
_atom_site_fract_z
Si Si1 0.322625 0.032255 0.580367
Si Si2 0.314087 0.756595 0.574306
Si Si3 0.411538 0.411538 0.500000
Si Si4 0.067591 0.067591 0.000000
Si Si5 0.951170 0.673382 0.201601
O O1 0.277230 0.120433 0.689981
O O2 0.473347 0.046442 0.566778
O O3 0.279206 0.069192 0.440937
O O4 0.280065 0.894206 0.614690
O O5 0.413419 0.695181 0.669291
O O6 0.199603 0.664863 0.542202
O O7 0.453961 0.472803 0.633747
O O8 0.268431 0.445299 0.502706
#
# Coordination Sequence:
#
# PCOD9551034 Si02
#       5
#     8   8   4   4   8
#     4  10  23  45  74 111 147 206 255 315 392 459
#     4  10  23  49  71 110 154 196 253 323 380 472
#     4  10  24  44  76 110 154 200 258 318 388 464
#     4  10  24  48  72 110 148 208 252 322 390 458
#     4  10  23  44  74 111 149 200 253 313 388 455
#
# _framework density 25.9618
#
# number of rings (size 3 to 8) (size 9 to 14) (size 15 to 20)
#    0.000    2.000    0.000    0.750   14.000    0.000 
#   45.000    0.000    0.000    0.000    0.000    0.000 
#    0.000    0.000    0.000    0.000    0.000    0.000 
#
# Total GULP energy -178472.347406 kJ/mol
# GULP energy per Si atom -5577.260856 kJ/mol
# Density = 2.590271 g / cm^3
# Si number density = 25.961800 Si / 1000 Ang^3
#
#
#
# Elastic Constant Matrix: (Units=GPa)
#
#
# Indices 1 2 3 4 5 6 
#
# 1 76.1048 34.3718 17.3564 0.0000 0.0000 0.0000
# 2 34.3718 76.1048 17.3564 0.0000 0.0000 0.0000
# 3 17.3564 17.3564 126.7327 0.0000 0.0000 0.0000
# 4 0.0000 0.0000 0.0000 39.6457 0.0000 0.0000
# 5 0.0000 0.0000 0.0000 0.0000 39.6457 0.0000
# 6 0.0000 0.0000 0.0000 0.0000 0.0000 29.8594
#
#
#
# Elastic Compliance Matrix: (Units=1/GPa)
#
#
# Indices 1 2 3 4 5 6 
#
# 1 0.016710 -0.007252 -0.001295 0.000000 0.000000 0.000000
# 2 -0.007252 0.016710 -0.001295 0.000000 0.000000 0.000000
# 3 -0.001295 -0.001295 0.008245 0.000000 0.000000 0.000000
# 4 0.000000 0.000000 0.000000 0.025223 0.000000 0.000000
# 5 0.000000 0.000000 0.000000 0.000000 0.025223 0.000000
# 6 0.000000 0.000000 0.000000 0.000000 0.000000 0.033490
#
#
# Mechanical properties :
#
#
# Convention : Reuss Voigt Hill
#
# Bulk Modulus (GPa) = 45.49324 46.34572 45.91948
# Shear Modulus (GPa) = 32.76221 35.82069 34.29145
#
# Velocity S-wave (km/s) = 3.55623 3.71852 3.63828
# Velocity P-wave (km/s) = 5.86716 6.02717 5.94770
#
# Compressibility (1/GPa) = 0.02198129
#
# Stress axis : x y z
#
# Youngs Moduli (GPa) = 59.84346 59.84346 121.27919
#
# Poissons Ratio (x) = 0.43396 0.15710
# Poissons Ratio (y) = 0.43396 0.15710
# Poissons Ratio (z) = 0.07752 0.07752
#
# Static dielectric constant tensor:
#      x y z
#    x 2.153800 0.000000 0.000000 
#    y 0.000000 2.153800 0.000000 
#    z 0.000000 0.000000 2.080580 
# 
# From -- ./inp_files/1967.got.cif
#   From: 2010.05.17/outbox.cif.g08.bks.cpg/sg96_1_cif.got.tgz:1967.got - 2010.06.03 19:52:08.
