data_PCOD9551665
_publ_section_title
;
Structure prediction by ZEFSAII (Michael W. Deem and Ramdas Pophale) SiO2 
 PCOD9551665
Probable space group: I 41 2 2
;
_chemical_formula_sum "Si O2"
_cell_formula_units_Z 96
_cell_length_a 25.740742
_cell_length_b 25.740742
_cell_length_c 9.996840
_cell_angle_alpha 90.000000
_cell_angle_beta 90.000000
_cell_angle_gamma 90.000000
_cell_volume 6623.764216
_symmetry_space_group_name_H-M "I 41 2 2"
_symmetry_group_IT_number 98
_symmetry_cell_setting 'tetragonal'
loop_
_space_group_symop_operation_xyz
x,y,z
-y,1/2+x,1/4+z
-x,-y,z
y,1/2-x,1/4+z
x,1/2-y,1/4-z
-x,1/2+y,1/4-z
y,x,-z
-y,-x,-z
1/2+x,1/2+y,1/2+z
1/2-y,x,3/4+z
1/2-x,1/2-y,1/2+z
1/2+y,-x,3/4+z
1/2+x,-y,3/4-z
1/2-x,y,3/4-z
1/2+y,1/2+x,1/2-z
1/2-y,1/2-x,1/2-z
loop_
_atom_site_type_symbol
_atom_site_label
_atom_site_fract_x
_atom_site_fract_y
_atom_site_fract_z
Si Si1 0.180905 0.310499 0.101068
Si Si2 0.548983 0.039742 0.404529
Si Si3 0.113887 0.031294 0.165369
Si Si4 0.485739 0.107582 0.606189
Si Si5 0.068268 0.207722 0.240962
Si Si6 0.414939 0.276162 0.266038
O O1 0.197046 0.250000 0.125000
O O2 0.168734 0.331267 0.250000
O O3 0.219757 0.352405 0.040262
O O4 0.128184 0.310900 0.017024
O O5 0.557346 0.057346 0.250000
O O6 0.530453 0.081431 0.516276
O O7 0.500000 0.000000 0.398751
O O8 0.597361 0.009309 0.469769
O O9 0.065661 0.071436 0.156310
O O10 0.166822 0.061048 0.205089
O O11 0.115770 0.006187 0.015823
O O12 0.470074 0.161523 0.539427
O O13 0.060619 0.237302 0.377353
O O14 0.064296 0.250000 0.125000
O O15 0.424502 0.250000 0.125000
#
# Coordination Sequence:
#
# PCOD9551665 Si02
#       6
#    16  16  16  16  16  16
#     4  11  20  36  50  59  84 120 166 209 251 290
#     4   9  19  32  48  76  96 114 145 194 254 295
#     4  10  19  34  52  69  93 121 157 202 242 305
#     4  10  18  32  56  68  90 123 160 196 240 303
#     4  11  20  35  53  66  89 127 163 199 253 293
#     4  12  25  36  48  72  93 122 166 214 261 296
#
# _framework density 14.493269
#
# number of rings (size 3 to 8) (size 9 to 14) (size 15 to 20)
#    0.000    1.500    6.667    0.500    2.333    3.333 
#    0.000    0.000    0.000    0.000    0.000    0.000 
#    0.000    0.000    0.000    0.000    0.000    5.000 
#
# Total GULP energy -267400.507800 kJ/mol
# GULP energy per Si atom -5570.843912 kJ/mol
# Density = 1.446028 g / cm^3
# Si number density = 14.493269 Si / 1000 Ang^3
#
#
#
# Elastic Constant Matrix: (Units=GPa)
#
#
# Indices 1 2 3 4 5 6 
#
# 1 40.1878 22.1472 29.8327 0.0000 0.0000 0.0000
# 2 22.1472 40.1872 29.8324 0.0000 0.0000 0.0000
# 3 29.8327 29.8324 129.5668 0.0000 0.0000 0.0000
# 4 0.0000 0.0000 0.0000 15.9809 0.0000 0.0000
# 5 0.0000 0.0000 0.0000 0.0000 15.9815 0.0000
# 6 0.0000 0.0000 0.0000 0.0000 0.0000 25.8275
#
#
#
# Elastic Compliance Matrix: (Units=1/GPa)
#
#
# Indices 1 2 3 4 5 6 
#
# 1 0.038004 -0.017427 -0.004738 0.000000 0.000000 0.000000
# 2 -0.017427 0.038005 -0.004738 0.000000 0.000000 0.000000
# 3 -0.004738 -0.004738 0.009900 0.000000 0.000000 0.000000
# 4 0.000000 0.000000 0.000000 0.062575 0.000000 0.000000
# 5 0.000000 0.000000 0.000000 0.000000 0.062572 0.000000
# 6 0.000000 0.000000 0.000000 0.000000 0.000000 0.038718
#
#
# Mechanical properties :
#
#
# Convention : Reuss Voigt Hill
#
# Bulk Modulus (GPa) = 31.14974 41.50739 36.32857
# Shear Modulus (GPa) = 15.90933 20.09996 18.00464
#
# Velocity S-wave (km/s) = 3.31676 3.72808 3.52842
# Velocity P-wave (km/s) = 6.01723 6.87261 6.45909
#
# Compressibility (1/GPa) = 0.03210300
#
# Stress axis : x y z
#
# Youngs Moduli (GPa) = 26.31285 26.31249 101.01191
#
# Poissons Ratio (x) = 0.45855 0.47859
# Poissons Ratio (y) = 0.45856 0.47859
# Poissons Ratio (z) = 0.12467 0.12467
#
# Static dielectric constant tensor:
#      x y z
#    x 1.482960 0.000000 0.000000 
#    y 0.000000 1.482960 0.000000 
#    z 0.000000 0.000000 1.499490 
# 
# From -- ./inp_files/3836.got.cif
#   From: 2010.05.17/outbox.cif.g08.bks.cpg/sg98_2_cif.got.tgz:3836.got - 2010.06.03 20:00:51.
