data_PCOD9551214
_publ_section_title
;
Structure prediction by ZEFSAII (Michael W. Deem and Ramdas Pophale) SiO2 
 PCOD9551214
Probable space group: I 4 2 2 
;
_chemical_formula_sum "Si O2"
_cell_formula_units_Z 128
_cell_length_a 26.996092
_cell_length_b 26.996092
_cell_length_c 11.963333
_cell_angle_alpha 90.000000
_cell_angle_beta 90.000000
_cell_angle_gamma 90.000000
_cell_volume 8718.745294
_symmetry_space_group_name_H-M "I 4 2 2 "
_symmetry_group_IT_number 97
_symmetry_cell_setting 'tetragonal'
loop_
_space_group_symop_operation_xyz
x,y,z
-y,x,z
-x,-y,z
y,-x,z
x,-y,-z
-x,y,-z
y,x,-z
-y,-x,-z
1/2+x,1/2+y,1/2+z
1/2-y,1/2+x,1/2+z
1/2-x,1/2-y,1/2+z
1/2+y,1/2-x,1/2+z
1/2+x,1/2-y,1/2-z
1/2-x,1/2+y,1/2-z
1/2+y,1/2+x,1/2-z
1/2-y,1/2-x,1/2-z
loop_
_atom_site_type_symbol
_atom_site_label
_atom_site_fract_x
_atom_site_fract_y
_atom_site_fract_z
Si Si1 0.285636 0.145694 0.562898
Si Si2 0.871829 0.725259 0.085348
Si Si3 0.277043 0.308092 0.253180
Si Si4 0.443951 0.098307 0.496344
Si Si5 0.271428 0.150846 0.301289
Si Si6 0.806346 0.572995 0.637318
Si Si7 0.463768 0.818226 0.320157
Si Si8 0.954421 0.655065 0.427228
O O1 0.333103 0.179780 0.593920
O O2 0.241622 0.159030 0.648185
O O3 0.272047 0.155916 0.434506
O O4 0.306728 0.090651 0.566617
O O5 0.838850 0.770236 0.132289
O O6 0.917248 0.718151 0.170978
O O7 0.896046 0.720650 0.962181
O O8 0.237291 0.262710 0.250000
O O9 0.329815 0.281916 0.239984
O O10 0.500000 0.075919 0.500000
O O11 0.428817 0.134059 0.390972
O O12 0.449000 0.139394 0.592643
O O13 0.398709 0.062785 0.527148
O O14 0.312203 0.187798 0.250000
O O15 0.289447 0.098559 0.251927
O O16 0.793741 0.514952 0.641194
O O17 0.469820 0.844554 0.201862
O O18 0.000000 0.672558 0.500000
#
# Coordination Sequence:
#
# PCOD9551214 Si02
#       8
#    16  16  16  16  16  16  16  16
#     4  11  19  32  46  65  91 117 147 188 233 277
#     4  10  17  32  51  64  85 117 155 181 223 280
#     4   9  20  29  48  68  87 121 147 176 228 283
#     4   9  19  34  49  61  82 114 152 190 247 294
#     4  11  19  31  43  68  99 115 140 187 237 277
#     4  10  19  31  49  68  89 115 145 196 240 274
#     4  10  19  32  50  66  82 115 156 190 235 284
#     4  12  21  30  47  68  82 113 153 200 242 283
#
# _framework density 14.681012000000001
#
# number of rings (size 3 to 8) (size 9 to 14) (size 15 to 20)
#    0.000    1.750    5.000    2.625    0.000    0.750 
#    0.000    1.875    0.000    3.000    0.000    0.000 
#    0.000    0.000    0.000    0.000    0.000    0.625 
#
# Total GULP energy -356285.074570 kJ/mol
# GULP energy per Si atom -5566.954290 kJ/mol
# Density = 1.464760 g / cm^3
# Si number density = 14.681012 Si / 1000 Ang^3
#
#
#
# Elastic Constant Matrix: (Units=GPa)
#
#
# Indices 1 2 3 4 5 6 
#
# 1 40.1835 24.5799 7.1074 0.0000 0.0000 0.0000
# 2 24.5799 40.1842 7.1077 0.0000 0.0000 0.0000
# 3 7.1074 7.1077 29.1119 0.0000 0.0000 0.0000
# 4 0.0000 0.0000 0.0000 10.2258 0.0000 0.0000
# 5 0.0000 0.0000 0.0000 0.0000 10.2303 0.0000
# 6 0.0000 0.0000 0.0000 0.0000 0.0000 11.5911
#
#
#
# Elastic Compliance Matrix: (Units=1/GPa)
#
#
# Indices 1 2 3 4 5 6 
#
# 1 0.040201 -0.023886 -0.003983 0.000000 0.000000 0.000000
# 2 -0.023886 0.040200 -0.003983 0.000000 0.000000 0.000000
# 3 -0.003983 -0.003983 0.036295 0.000000 0.000000 0.000000
# 4 0.000000 0.000000 0.000000 0.097792 0.000000 0.000000
# 5 0.000000 0.000000 0.000000 0.000000 0.097749 0.000000
# 6 0.000000 0.000000 0.000000 0.000000 0.000000 0.086273
#
#
# Mechanical properties :
#
#
# Convention : Reuss Voigt Hill
#
# Bulk Modulus (GPa) = 18.87067 20.78551 19.82809
# Shear Modulus (GPa) = 10.41930 11.12175 10.77052
#
# Velocity S-wave (km/s) = 2.66693 2.75537 2.71151
# Velocity P-wave (km/s) = 4.72917 4.93068 4.83097
#
# Compressibility (1/GPa) = 0.05299228
#
# Stress axis : x y z
#
# Youngs Moduli (GPa) = 24.87495 24.87534 27.55183
#
# Poissons Ratio (x) = 0.59417 0.10974
# Poissons Ratio (y) = 0.59416 0.10975
# Poissons Ratio (z) = 0.09908 0.09909
#
# Static dielectric constant tensor:
#      x y z
#    x 1.506010 0.000000 0.000000 
#    y 0.000000 1.506010 0.000000 
#    z 0.000000 0.000000 1.578230 
# 
# From -- ./inp_files/4069.got.cif
#   From: 2010.05.17/outbox.cif.g08.bks.cpg/sg97_3_cif.got.tgz:4069.got - 2010.06.03 19:55:32.
