data_PCOD9551907
_publ_section_title
;
Structure prediction by ZEFSAII (Michael W. Deem and Ramdas Pophale) SiO2 
 PCOD9551907
Probable space group: I 41 2 2
;
_chemical_formula_sum "Si O2"
_cell_formula_units_Z 88
_cell_length_a 12.315266
_cell_length_b 12.315266
_cell_length_c 27.347154
_cell_angle_alpha 90.000000
_cell_angle_beta 90.000000
_cell_angle_gamma 90.000000
_cell_volume 4147.627351
_symmetry_space_group_name_H-M "I 41 2 2"
_symmetry_group_IT_number 98
_symmetry_cell_setting 'tetragonal'
loop_
_space_group_symop_operation_xyz
x,y,z
-y,1/2+x,1/4+z
-x,-y,z
y,1/2-x,1/4+z
x,1/2-y,1/4-z
-x,1/2+y,1/4-z
y,x,-z
-y,-x,-z
1/2+x,1/2+y,1/2+z
1/2-y,x,3/4+z
1/2-x,1/2-y,1/2+z
1/2+y,-x,3/4+z
1/2+x,-y,3/4-z
1/2-x,y,3/4-z
1/2+y,1/2+x,1/2-z
1/2-y,1/2-x,1/2-z
loop_
_atom_site_type_symbol
_atom_site_label
_atom_site_fract_x
_atom_site_fract_y
_atom_site_fract_z
Si Si1 0.401958 0.914407 0.991189
Si Si2 0.373472 0.005724 0.085680
Si Si3 0.291288 0.018605 0.819505
Si Si4 0.500000 0.000000 0.750000
Si Si5 0.724543 0.773353 0.070263
Si Si6 0.784160 0.523205 0.691286
Si Si7 0.500000 0.500000 0.000000
O O1 0.451191 0.808956 0.965611
O O2 0.500000 0.000000 0.992856
O O3 0.306079 0.968830 0.961418
O O4 0.361158 0.907477 0.047290
O O5 0.343887 0.119055 0.056965
O O6 0.296164 0.004281 0.132975
O O7 0.500000 0.000000 0.101437
O O8 0.250000 0.990368 0.875000
O O9 0.399307 0.988127 0.788496
O O10 0.303270 0.149230 0.820284
O O11 0.683249 0.750000 0.125000
O O12 0.726962 0.652416 0.047986
O O13 0.896451 0.494211 0.715854
#
# Coordination Sequence:
#
# PCOD9551907 Si02
#       7
#    16  16  16   4  16  16   4
#     4  11  24  43  74 108 139 188 245 305 369 438
#     4  10  22  42  67 108 141 187 245 304 372 436
#     4  11  25  44  74 111 148 193 243 313 382 461
#     4  12  28  44  72 110 160 208 260 304 398 476
#     4   9  20  40  73  98 134 190 244 291 355 437
#     4  11  24  46  69 102 144 192 244 303 361 447
#     4  12  28  40  64  98 140 192 248 288 370 420
#
# _framework density 21.216951000000002
#
# number of rings (size 3 to 8) (size 9 to 14) (size 15 to 20)
#    0.000    1.455    2.727    1.091    6.364    2.909 
#    0.000    0.909    0.000    0.000    0.000    0.000 
#    0.000    0.000    0.000    0.000    0.000    0.000 
#
# Total GULP energy -245107.570070 kJ/mol
# GULP energy per Si atom -5570.626593 kJ/mol
# Density = 2.116866 g / cm^3
# Si number density = 21.216951 Si / 1000 Ang^3
#
#
#
# Elastic Constant Matrix: (Units=GPa)
#
#
# Indices 1 2 3 4 5 6 
#
# 1 108.3803 30.4267 57.9410 0.0000 0.0000 0.0000
# 2 30.4267 108.3803 57.9410 0.0000 0.0000 0.0000
# 3 57.9410 57.9410 156.7438 0.0000 0.0000 0.0000
# 4 0.0000 0.0000 0.0000 29.4651 0.0000 0.0000
# 5 0.0000 0.0000 0.0000 0.0000 29.4651 0.0000
# 6 0.0000 0.0000 0.0000 0.0000 0.0000 31.1447
#
#
#
# Elastic Compliance Matrix: (Units=1/GPa)
#
#
# Indices 1 2 3 4 5 6 
#
# 1 0.011624 -0.001204 -0.003852 0.000000 0.000000 0.000000
# 2 -0.001204 0.011624 -0.003852 0.000000 0.000000 0.000000
# 3 -0.003852 -0.003852 0.009227 0.000000 0.000000 0.000000
# 4 0.000000 0.000000 0.000000 0.033938 0.000000 0.000000
# 5 0.000000 0.000000 0.000000 0.000000 0.033938 0.000000
# 6 0.000000 0.000000 0.000000 0.000000 0.000000 0.032108
#
#
# Mechanical properties :
#
#
# Convention : Reuss Voigt Hill
#
# Bulk Modulus (GPa) = 68.21195 74.01356 71.11275
# Shear Modulus (GPa) = 32.22427 33.16136 32.69282
#
# Velocity S-wave (km/s) = 3.90140 3.95772 3.92967
# Velocity P-wave (km/s) = 7.24666 7.47293 7.36067
#
# Compressibility (1/GPa) = 0.01466019
#
# Stress axis : x y z
#
# Youngs Moduli (GPa) = 86.02896 86.02896 108.37212
#
# Poissons Ratio (x) = 0.10359 0.41742
# Poissons Ratio (y) = 0.10359 0.41742
# Poissons Ratio (z) = 0.33136 0.33136
#
# Static dielectric constant tensor:
#      x y z
#    x 1.772020 0.000000 0.000000 
#    y 0.000000 1.772020 0.000000 
#    z 0.000000 0.000000 1.923450 
# 
# From -- ./inp_files/11998.got.cif
#   From: 2010.05.17/outbox.cif.g08.bks.cpg/sg98_6_cif.got.tgz:11998.got - 2010.06.03 20:00:51.
