data_PCOD9551047
_publ_section_title
;
Structure prediction by ZEFSAII (Michael W. Deem and Ramdas Pophale) SiO2 
 PCOD9551047
Probable space group: P 43 21 2
;
_chemical_formula_sum "Si O2"
_cell_formula_units_Z 48
_cell_length_a 10.181848
_cell_length_b 10.181848
_cell_length_c 16.462263
_cell_angle_alpha 90.000000
_cell_angle_beta 90.000000
_cell_angle_gamma 90.000000
_cell_volume 1706.643278
_symmetry_space_group_name_H-M "P 43 21 2"
_symmetry_group_IT_number 96
_symmetry_cell_setting 'tetragonal'
loop_
_space_group_symop_operation_xyz
x,y,z
1/2-y,1/2+x,3/4+z
-x,-y,1/2+z
1/2+y,1/2-x,1/4+z
1/2+x,1/2-y,1/4-z
1/2-x,1/2+y,3/4-z
y,x,-z
-y,-x,1/2-z
loop_
_atom_site_type_symbol
_atom_site_label
_atom_site_fract_x
_atom_site_fract_y
_atom_site_fract_z
Si Si1 0.144078 0.656578 0.338090
Si Si2 0.060591 0.523328 0.187147
Si Si3 0.112107 0.705193 0.718550
Si Si4 0.366279 0.612676 0.058775
Si Si5 0.401360 0.454516 0.677784
Si Si6 0.768334 0.200972 0.058137
O O1 0.120607 0.636171 0.243799
O O2 0.291747 0.682504 0.368628
O O3 0.050253 0.762413 0.381271
O O4 0.103768 0.511026 0.367624
O O5 0.155281 0.401324 0.162624
O O6 0.939836 0.441360 0.226787
O O7 0.255918 0.744083 0.750000
O O8 0.125566 0.754050 0.624940
O O9 0.012367 0.790295 0.773312
O O10 0.558201 0.497034 0.897548
O O11 0.332988 0.709730 0.982910
O O12 0.446367 0.553634 0.750000
O O13 0.385532 0.327975 0.735626
#
# Coordination Sequence:
#
# PCOD9551047 Si02
#       6
#     8   8   8   8   8   8
#     4  11  26  47  78 120 163 219 270 346 422 503
#     4  11  25  48  78 114 167 213 276 340 421 499
#     4  11  24  46  82 116 160 220 276 340 419 500
#     4  10  24  49  78 116 163 216 277 345 421 503
#     4  11  24  48  81 119 161 214 281 353 422 517
#     4  10  23  48  79 118 159 220 282 339 425 502
#
# _framework density 28.125382999999999
#
# number of rings (size 3 to 8) (size 9 to 14) (size 15 to 20)
#    0.000    1.333    1.667    2.000    4.667    4.667 
#    6.000    0.000    0.000    0.000    0.000    0.000 
#    0.000    0.000    0.000    0.000    0.000    0.000 
#
# Total GULP energy -267979.656849 kJ/mol
# GULP energy per Si atom -5582.909518 kJ/mol
# Density = 2.806137 g / cm^3
# Si number density = 28.125383 Si / 1000 Ang^3
#
#
#
# Elastic Constant Matrix: (Units=GPa)
#
#
# Indices 1 2 3 4 5 6 
#
# 1 123.7831 78.5020 80.7617 0.0000 0.0000 0.0000
# 2 78.5020 123.7827 80.7611 0.0000 0.0000 0.0000
# 3 80.7617 80.7611 145.7977 0.0000 0.0000 0.0000
# 4 0.0000 0.0000 0.0000 44.9553 0.0000 0.0000
# 5 0.0000 0.0000 0.0000 0.0000 44.9552 0.0000
# 6 0.0000 0.0000 0.0000 0.0000 0.0000 38.5335
#
#
#
# Elastic Compliance Matrix: (Units=1/GPa)
#
#
# Indices 1 2 3 4 5 6 
#
# 1 0.015474 -0.006610 -0.004910 0.000000 0.000000 0.000000
# 2 -0.006610 0.015474 -0.004910 0.000000 0.000000 0.000000
# 3 -0.004910 -0.004910 0.012299 0.000000 0.000000 0.000000
# 4 0.000000 0.000000 0.000000 0.022244 0.000000 0.000000
# 5 0.000000 0.000000 0.000000 0.000000 0.022244 0.000000
# 6 0.000000 0.000000 0.000000 0.000000 0.000000 0.025951
#
#
# Mechanical properties :
#
#
# Convention : Reuss Voigt Hill
#
# Bulk Modulus (GPa) = 96.27940 97.04589 96.66265
# Shear Modulus (GPa) = 33.33108 35.91138 34.62123
#
# Velocity S-wave (km/s) = 3.44625 3.57715 3.51231
# Velocity P-wave (km/s) = 7.08110 7.18617 7.13383
#
# Compressibility (1/GPa) = 0.01038644
#
# Stress axis : x y z
#
# Youngs Moduli (GPa) = 64.62316 64.62337 81.31033
#
# Poissons Ratio (x) = 0.42716 0.39925
# Poissons Ratio (y) = 0.42716 0.39924
# Poissons Ratio (z) = 0.31731 0.31731
#
# Static dielectric constant tensor:
#      x y z
#    x 2.217330 0.000000 0.000000 
#    y 0.000000 2.217320 0.000000 
#    z 0.000000 0.000000 2.235410 
# 
# From -- ./inp_files/3137.got.cif
#   From: 2010.05.17/outbox.cif.g08.bks.cpg/sg96_2_cif.got.tgz:3137.got - 2010.06.03 19:52:08.
