data_PCOD9551401
_publ_section_title
;
Structure prediction by ZEFSAII (Michael W. Deem and Ramdas Pophale) SiO2 
 PCOD9551401
Probable space group: I 4 2 2 
;
_chemical_formula_sum "Si O2"
_cell_formula_units_Z 88
_cell_length_a 14.365413
_cell_length_b 14.365413
_cell_length_c 21.115792
_cell_angle_alpha 90.000000
_cell_angle_beta 90.000000
_cell_angle_gamma 90.000000
_cell_volume 4357.562330
_symmetry_space_group_name_H-M "I 4 2 2 "
_symmetry_group_IT_number 97
_symmetry_cell_setting 'tetragonal'
loop_
_space_group_symop_operation_xyz
x,y,z
-y,x,z
-x,-y,z
y,-x,z
x,-y,-z
-x,y,-z
y,x,-z
-y,-x,-z
1/2+x,1/2+y,1/2+z
1/2-y,1/2+x,1/2+z
1/2-x,1/2-y,1/2+z
1/2+y,1/2-x,1/2+z
1/2+x,1/2-y,1/2-z
1/2-x,1/2+y,1/2-z
1/2+y,1/2+x,1/2-z
1/2-y,1/2-x,1/2-z
loop_
_atom_site_type_symbol
_atom_site_label
_atom_site_fract_x
_atom_site_fract_y
_atom_site_fract_z
Si Si1 0.942801 0.857040 0.212211
Si Si2 0.945335 0.221053 0.434915
Si Si3 0.892813 0.387649 0.997577
Si Si4 0.752997 0.838236 0.889894
Si Si5 0.388278 0.388278 0.500000
Si Si6 0.195116 0.113127 0.645833
O O1 0.912209 0.777795 0.163881
O O2 0.920542 0.832940 0.284802
O O3 0.049468 0.883426 0.200373
O O4 0.876420 0.307265 0.452405
O O5 0.889679 0.137456 0.401960
O O6 0.000000 0.197222 0.500000
O O7 0.025355 0.247953 0.385188
O O8 0.897699 0.500000 0.000000
O O9 0.860324 0.333020 0.935923
O O10 0.000000 0.355785 0.000000
O O11 0.711145 0.749769 0.852800
O O12 0.840558 0.841447 0.938372
O O13 0.500000 0.373174 0.500000
#
# Coordination Sequence:
#
# PCOD9551401 Si02
#       6
#    16  16  16  16   8  16
#     4  11  25  46  67  96 138 186 234 291 351 428
#     4  11  22  39  67 100 134 172 228 293 360 418
#     4  10  21  40  65  98 134 172 215 286 357 413
#     4  12  23  40  68  99 132 179 229 286 352 424
#     4  11  24  42  66 102 136 175 232 294 358 427
#     4  12  23  42  65  95 136 181 230 290 357 424
#
# _framework density 20.194776999999998
#
# number of rings (size 3 to 8) (size 9 to 14) (size 15 to 20)
#    0.000    0.818    5.455    3.818    0.000    3.273 
#    0.000    0.909    0.000    0.000    0.000    0.000 
#    0.000    0.000    0.000    0.000    0.000    0.000 
#
# Total GULP energy -245028.241061 kJ/mol
# GULP energy per Si atom -5568.823660 kJ/mol
# Density = 2.014881 g / cm^3
# Si number density = 20.194777 Si / 1000 Ang^3
#
#
#
# Elastic Constant Matrix: (Units=GPa)
#
#
# Indices 1 2 3 4 5 6 
#
# 1 74.7965 26.1591 25.9451 0.0000 0.0000 0.0000
# 2 26.1591 74.7965 25.9451 0.0000 0.0000 0.0000
# 3 25.9451 25.9451 83.9175 0.0000 0.0000 0.0000
# 4 0.0000 0.0000 0.0000 29.7346 0.0000 0.0000
# 5 0.0000 0.0000 0.0000 0.0000 29.7346 0.0000
# 6 0.0000 0.0000 0.0000 0.0000 0.0000 16.1142
#
#
#
# Elastic Compliance Matrix: (Units=1/GPa)
#
#
# Indices 1 2 3 4 5 6 
#
# 1 0.016169 -0.004392 -0.003641 0.000000 0.000000 0.000000
# 2 -0.004392 0.016169 -0.003641 0.000000 0.000000 0.000000
# 3 -0.003641 -0.003641 0.014168 0.000000 0.000000 0.000000
# 4 0.000000 0.000000 0.000000 0.033631 0.000000 0.000000
# 5 0.000000 0.000000 0.000000 0.000000 0.033631 0.000000
# 6 0.000000 0.000000 0.000000 0.000000 0.000000 0.062057
#
#
# Mechanical properties :
#
#
# Convention : Reuss Voigt Hill
#
# Bulk Modulus (GPa) = 43.18304 43.28988 43.23646
# Shear Modulus (GPa) = 24.16737 25.48078 24.82407
#
# Velocity S-wave (km/s) = 3.46311 3.55597 3.50984
# Velocity P-wave (km/s) = 6.11723 6.19214 6.15480
#
# Compressibility (1/GPa) = 0.02315724
#
# Stress axis : x y z
#
# Youngs Moduli (GPa) = 61.84841 61.84841 70.58200
#
# Poissons Ratio (x) = 0.27162 0.25699
# Poissons Ratio (y) = 0.27162 0.25699
# Poissons Ratio (z) = 0.22520 0.22520
#
# Static dielectric constant tensor:
#      x y z
#    x 1.801580 0.000000 0.000000 
#    y 0.000000 1.801580 0.000000 
#    z 0.000000 0.000000 1.690390 
# 
# From -- ./inp_files/6548.got.cif
#   From: 2010.05.17/outbox.cif.g08.bks.cpg/sg97_4_cif.got.tgz:6548.got - 2010.06.03 19:55:32.
