data_PCOD9551158
_publ_section_title
;
Structure prediction by ZEFSAII (Michael W. Deem and Ramdas Pophale) SiO2 
 PCOD9551158
Probable space group: P 43 21 2
;
_chemical_formula_sum "Si O2"
_cell_formula_units_Z 32
_cell_length_a 9.877491
_cell_length_b 9.877491
_cell_length_c 10.650831
_cell_angle_alpha 90.000000
_cell_angle_beta 90.000000
_cell_angle_gamma 90.000000
_cell_volume 1039.146499
_symmetry_space_group_name_H-M "P 43 21 2"
_symmetry_group_IT_number 96
_symmetry_cell_setting 'tetragonal'
loop_
_space_group_symop_operation_xyz
x,y,z
1/2-y,1/2+x,3/4+z
-x,-y,1/2+z
1/2+y,1/2-x,1/4+z
1/2+x,1/2-y,1/4-z
1/2-x,1/2+y,3/4-z
y,x,-z
-y,-x,1/2-z
loop_
_atom_site_type_symbol
_atom_site_label
_atom_site_fract_x
_atom_site_fract_y
_atom_site_fract_z
Si Si1 0.578043 0.589735 0.647381
Si Si2 0.654614 0.130326 0.951769
Si Si3 0.154522 0.536907 0.727951
Si Si4 0.906789 0.753569 0.213996
O O1 0.554790 0.554790 0.500000
O O2 0.509622 0.490379 0.750000
O O3 0.736169 0.615148 0.683491
O O4 0.496786 0.732612 0.668031
O O5 0.608248 0.861763 0.836901
O O6 0.745768 0.055205 0.844803
O O7 0.648650 0.288891 0.916816
O O8 0.076563 0.500335 0.019219
O O9 0.232739 0.607735 0.613761
#
# Coordination Sequence:
#
# PCOD9551158 Si02
#       4
#     8   8   8   8
#     4  11  30  58  96 141 196 256 335 408 494 596
#     4  11  28  54  97 133 196 256 323 411 498 588
#     4  11  26  54  90 135 194 254 330 398 495 595
#     4  11  26  52  91 139 192 256 324 405 492 598
#
# _framework density 30.794505000000001
#
# number of rings (size 3 to 8) (size 9 to 14) (size 15 to 20)
#    0.000    1.000    2.500    0.000    7.000    9.000 
#    0.000    1.250   11.000    0.000    0.000    0.000 
#    0.000    0.000    0.000    0.000    0.000    0.000 
#
# Total GULP energy -178573.401254 kJ/mol
# GULP energy per Si atom -5580.418789 kJ/mol
# Density = 3.072441 g / cm^3
# Si number density = 30.794505 Si / 1000 Ang^3
#
#
#
# Elastic Constant Matrix: (Units=GPa)
#
#
# Indices 1 2 3 4 5 6 
#
# 1 189.1107 82.2335 77.1969 0.0000 0.0000 0.0000
# 2 82.2335 189.1106 77.1967 0.0000 0.0000 0.0000
# 3 77.1969 77.1967 223.1201 0.0000 0.0000 0.0000
# 4 0.0000 0.0000 0.0000 62.4364 0.0000 0.0000
# 5 0.0000 0.0000 0.0000 0.0000 62.4363 0.0000
# 6 0.0000 0.0000 0.0000 0.0000 0.0000 57.1792
#
#
#
# Elastic Compliance Matrix: (Units=1/GPa)
#
#
# Indices 1 2 3 4 5 6 
#
# 1 0.006973 -0.002384 -0.001588 0.000000 0.000000 0.000000
# 2 -0.002384 0.006973 -0.001588 0.000000 0.000000 0.000000
# 3 -0.001588 -0.001588 0.005580 0.000000 0.000000 0.000000
# 4 0.000000 0.000000 0.000000 0.016016 0.000000 0.000000
# 5 0.000000 0.000000 0.000000 0.000000 0.016016 0.000000
# 6 0.000000 0.000000 0.000000 0.000000 0.000000 0.017489
#
#
# Mechanical properties :
#
#
# Convention : Reuss Voigt Hill
#
# Bulk Modulus (GPa) = 118.94322 119.39953 119.17137
# Shear Modulus (GPa) = 60.26412 60.72465 60.49439
#
# Velocity S-wave (km/s) = 4.42857 4.44546 4.43702
# Velocity P-wave (km/s) = 8.05347 8.07506 8.06427
#
# Compressibility (1/GPa) = 0.00840737
#
# Stress axis : x y z
#
# Youngs Moduli (GPa) = 143.41794 143.41799 179.19546
#
# Poissons Ratio (x) = 0.34190 0.28450
# Poissons Ratio (y) = 0.34190 0.28450
# Poissons Ratio (z) = 0.22770 0.22770
#
# Static dielectric constant tensor:
#      x y z
#    x 2.514640 0.000000 0.000000 
#    y 0.000000 2.514640 0.000000 
#    z 0.000000 0.000000 2.552010 
# 
# From -- ./inp_files/1915.got.cif
#   From: 2010.05.17/outbox.cif.g08.bks.cpg/sg96_1_cif.got.tgz:1915.got - 2010.06.03 19:52:08.
