data_PCOD9551608
_publ_section_title
;
Structure prediction by ZEFSAII (Michael W. Deem and Ramdas Pophale) SiO2 
 PCOD9551608
Probable space group: I 4 2 2 
;
_chemical_formula_sum "Si O2"
_cell_formula_units_Z 80
_cell_length_a 10.440241
_cell_length_b 10.440241
_cell_length_c 28.740944
_cell_angle_alpha 90.000000
_cell_angle_beta 90.000000
_cell_angle_gamma 90.000000
_cell_volume 3132.723582
_symmetry_space_group_name_H-M "I 4 2 2 "
_symmetry_group_IT_number 97
_symmetry_cell_setting 'tetragonal'
loop_
_space_group_symop_operation_xyz
x,y,z
-y,x,z
-x,-y,z
y,-x,z
x,-y,-z
-x,y,-z
y,x,-z
-y,-x,-z
1/2+x,1/2+y,1/2+z
1/2-y,1/2+x,1/2+z
1/2-x,1/2-y,1/2+z
1/2+y,1/2-x,1/2+z
1/2+x,1/2-y,1/2-z
1/2-x,1/2+y,1/2-z
1/2+y,1/2+x,1/2-z
1/2-y,1/2-x,1/2-z
loop_
_atom_site_type_symbol
_atom_site_label
_atom_site_fract_x
_atom_site_fract_y
_atom_site_fract_z
Si Si1 0.002379 0.782890 0.812850
Si Si2 0.000315 0.212180 0.554626
Si Si3 0.161922 0.856472 0.948376
Si Si4 0.878387 0.627564 0.621990
Si Si5 0.472920 0.285996 0.209549
O O1 0.998597 0.676230 0.852635
O O2 0.984574 0.726436 0.761115
O O3 0.122936 0.877916 0.816643
O O4 0.016519 0.344521 0.582249
O O5 0.881115 0.120638 0.565630
O O6 0.000000 0.237367 0.500000
O O7 0.251031 0.821300 0.905232
O O8 0.011387 0.827595 0.946511
O O9 0.196941 0.803060 0.000000
O O10 0.937949 0.700007 0.666149
O O11 0.605956 0.362636 0.207000
#
# Coordination Sequence:
#
# PCOD9551608 Si02
#       5
#    16  16  16  16  16
#     4   9  19  36  57  84 118 149 185 237 288 339
#     4   9  20  37  54  77 107 143 185 233 277 324
#     4   9  20  38  56  79 111 144 186 241 289 335
#     4  12  19  28  59  90 107 140 196 237 284 337
#     4   9  19  36  55  81 116 150 188 237 286 338
#
# _framework density 25.536885999999999
#
# number of rings (size 3 to 8) (size 9 to 14) (size 15 to 20)
#    0.000    2.400    0.000    5.400    2.800    3.200 
#    0.000    0.000    0.000   19.200    0.000   22.400 
#    0.000    0.000    0.000    0.000    0.000    0.000 
#
# Total GULP energy -223157.833560 kJ/mol
# GULP energy per Si atom -5578.945839 kJ/mol
# Density = 2.547876 g / cm^3
# Si number density = 25.536886 Si / 1000 Ang^3
#
#
#
# Elastic Constant Matrix: (Units=GPa)
#
#
# Indices 1 2 3 4 5 6 
#
# 1 46.5359 46.9372 43.9547 0.0000 0.0000 0.0000
# 2 46.9372 46.5359 43.9547 0.0000 0.0000 0.0000
# 3 43.9547 43.9547 138.7450 0.0000 0.0000 0.0000
# 4 0.0000 0.0000 0.0000 25.1662 0.0000 0.0000
# 5 0.0000 0.0000 0.0000 0.0000 25.1662 0.0000
# 6 0.0000 0.0000 0.0000 0.0000 0.0000 78.3516
#
#
#
# Elastic Compliance Matrix: (Units=1/GPa)
#
#
# Indices 1 2 3 4 5 6 
#
# 1 -1.238172 1.253411 -0.004828 0.000000 0.000000 0.000000
# 2 1.253411 -1.238173 -0.004827 0.000000 0.000000 0.000000
# 3 -0.004828 -0.004827 0.010266 0.000000 0.000000 0.000000
# 4 0.000000 0.000000 0.000000 0.039736 0.000000 0.000000
# 5 0.000000 0.000000 0.000000 0.000000 0.039736 0.000000
# 6 0.000000 0.000000 0.000000 0.000000 0.000000 0.012763
#
#
# Mechanical properties :
#
#
# Convention : Reuss Voigt Hill
#
# Bulk Modulus (GPa) = 46.65724 55.72335 51.19029
# Shear Modulus (GPa) = -1.03003 32.20148 15.58572
#
# Velocity S-wave (km/s) = -0.63579 3.55488 2.47315
# Velocity P-wave (km/s) = 4.21559 6.22235 5.31455
#
# Compressibility (1/GPa) = 0.02143290
#
# Stress axis : x y z
#
# Youngs Moduli (GPa) = -0.80764 -0.80764 97.40659
#
# Poissons Ratio (x) = 1.01231 0.47029
# Poissons Ratio (y) = 1.01231 0.47019
# Poissons Ratio (z) = -0.00390 -0.00390
#
# Static dielectric constant tensor:
#      x y z
#    x 2.049120 0.000000 0.000000 
#    y 0.000000 2.049120 0.000000 
#    z 0.000000 0.000000 1.974370 
# 
# From -- ./inp_files/7952.got.cif
#   From: 2010.05.17/outbox.cif.g08.bks.cpg/sg97_4_cif.got.tgz:7952.got - 2010.06.03 19:55:32.
