data_PCOD9551996
_publ_section_title
;
Structure prediction by ZEFSAII (Michael W. Deem and Ramdas Pophale) SiO2 
 PCOD9551996
Probable space group: I 41 2 2
;
_chemical_formula_sum "Si O2"
_cell_formula_units_Z 56
_cell_length_a 22.034347
_cell_length_b 22.034347
_cell_length_c 6.195053
_cell_angle_alpha 90.000000
_cell_angle_beta 90.000000
_cell_angle_gamma 90.000000
_cell_volume 3007.775346
_symmetry_space_group_name_H-M "I 41 2 2"
_symmetry_group_IT_number 98
_symmetry_cell_setting 'tetragonal'
loop_
_space_group_symop_operation_xyz
x,y,z
-y,1/2+x,1/4+z
-x,-y,z
y,1/2-x,1/4+z
x,1/2-y,1/4-z
-x,1/2+y,1/4-z
y,x,-z
-y,-x,-z
1/2+x,1/2+y,1/2+z
1/2-y,x,3/4+z
1/2-x,1/2-y,1/2+z
1/2+y,-x,3/4+z
1/2+x,-y,3/4-z
1/2-x,y,3/4-z
1/2+y,1/2+x,1/2-z
1/2-y,1/2-x,1/2-z
loop_
_atom_site_type_symbol
_atom_site_label
_atom_site_fract_x
_atom_site_fract_y
_atom_site_fract_z
Si Si1 0.085631 0.414370 0.750000
Si Si2 0.989072 0.403495 0.389014
Si Si3 0.184261 0.027956 0.773169
Si Si4 0.318040 0.913829 0.293990
O O1 0.152462 0.427096 0.650999
O O2 0.036648 0.427612 0.563579
O O3 0.952018 0.452018 0.250000
O O4 0.943609 0.361131 0.524563
O O5 0.024349 0.360719 0.224120
O O6 0.250000 0.042050 0.875000
O O7 0.183959 0.962006 0.654424
O O8 0.250000 0.907367 0.375000
O O9 0.349942 0.849942 0.250000
#
# Coordination Sequence:
#
# PCOD9551996 Si02
#       4
#     8  16  16  16
#     4  10  26  37  58  98 126 158 216 254 322 398
#     4  11  22  40  60  90 131 166 203 261 325 377
#     4  11  22  40  63  86 128 167 209 264 321 380
#     4  11  22  39  60  89 122 173 223 261 307 373
#
# _framework density 18.618410000000001
#
# number of rings (size 3 to 8) (size 9 to 14) (size 15 to 20)
#    0.000    1.143    5.714    0.857    0.000    3.429 
#    0.000    2.857    0.000    0.000    0.000    0.000 
#   60.000    0.000    0.000    0.000    0.000    0.000 
#
# Total GULP energy -156376.136598 kJ/mol
# GULP energy per Si atom -5584.862021 kJ/mol
# Density = 1.857603 g / cm^3
# Si number density = 18.618410 Si / 1000 Ang^3
#
#
#
# Elastic Constant Matrix: (Units=GPa)
#
#
# Indices 1 2 3 4 5 6 
#
# 1 103.3350 78.4749 58.6890 0.0000 0.0000 0.0000
# 2 78.4749 103.3351 58.6896 0.0000 0.0000 0.0000
# 3 58.6890 58.6896 124.0418 0.0000 0.0000 0.0000
# 4 0.0000 0.0000 0.0000 38.2220 0.0000 0.0000
# 5 0.0000 0.0000 0.0000 0.0000 38.2220 0.0000
# 6 0.0000 0.0000 0.0000 0.0000 0.0000 18.7821
#
#
#
# Elastic Compliance Matrix: (Units=1/GPa)
#
#
# Indices 1 2 3 4 5 6 
#
# 1 0.024072 -0.016153 -0.003747 0.000000 0.000000 0.000000
# 2 -0.016153 0.024072 -0.003747 0.000000 0.000000 0.000000
# 3 -0.003747 -0.003747 0.011607 0.000000 0.000000 0.000000
# 4 0.000000 0.000000 0.000000 0.026163 0.000000 0.000000
# 5 0.000000 0.000000 0.000000 0.000000 0.026163 0.000000
# 6 0.000000 0.000000 0.000000 0.000000 0.000000 0.053242
#
#
# Mechanical properties :
#
#
# Convention : Reuss Voigt Hill
#
# Bulk Modulus (GPa) = 80.26779 80.26876 80.26828
# Shear Modulus (GPa) = 23.06629 28.03576 25.55103
#
# Velocity S-wave (km/s) = 3.52362 3.88468 3.70855
# Velocity P-wave (km/s) = 7.73047 7.95784 7.84498
#
# Compressibility (1/GPa) = 0.01245830
#
# Stress axis : x y z
#
# Youngs Moduli (GPa) = 41.54181 41.54152 86.15131
#
# Poissons Ratio (x) = 0.67102 0.32279
# Poissons Ratio (y) = 0.67102 0.32282
# Poissons Ratio (z) = 0.15565 0.15566
#
# Static dielectric constant tensor:
#      x y z
#    x 1.649580 0.000000 0.000000 
#    y 0.000000 1.649580 0.000000 
#    z 0.000000 0.000000 1.680430 
# 
# From -- ./inp_files/1239.got.cif
#   From: 2010.05.17/outbox.cif.g08.bks.cpg/sg98_1_cif.got.tgz:1239.got - 2010.06.03 20:00:51.
