data_PCOD9551846
_publ_section_title
;
Structure prediction by ZEFSAII (Michael W. Deem and Ramdas Pophale) SiO2 
 PCOD9551846
Probable space group: I 41 2 2
;
_chemical_formula_sum "Si O2"
_cell_formula_units_Z 56
_cell_length_a 22.943779
_cell_length_b 22.943779
_cell_length_c 4.963866
_cell_angle_alpha 90.000000
_cell_angle_beta 90.000000
_cell_angle_gamma 90.000000
_cell_volume 2613.063422
_symmetry_space_group_name_H-M "I 41 2 2"
_symmetry_group_IT_number 98
_symmetry_cell_setting 'tetragonal'
loop_
_space_group_symop_operation_xyz
x,y,z
-y,1/2+x,1/4+z
-x,-y,z
y,1/2-x,1/4+z
x,1/2-y,1/4-z
-x,1/2+y,1/4-z
y,x,-z
-y,-x,-z
1/2+x,1/2+y,1/2+z
1/2-y,x,3/4+z
1/2-x,1/2-y,1/2+z
1/2+y,-x,3/4+z
1/2+x,-y,3/4-z
1/2-x,y,3/4-z
1/2+y,1/2+x,1/2-z
1/2-y,1/2-x,1/2-z
loop_
_atom_site_type_symbol
_atom_site_label
_atom_site_fract_x
_atom_site_fract_y
_atom_site_fract_z
Si Si1 0.587661 0.645451 0.752636
Si Si2 0.311757 0.908112 0.239856
Si Si3 0.863412 0.460539 0.242565
Si Si4 0.658312 0.750000 0.625000
O O1 0.624199 0.624199 0.500000
O O2 0.522817 0.637645 0.636273
O O3 0.613364 0.710792 0.805934
O O4 0.603934 0.603934 0.000000
O O5 0.250000 0.899073 0.375000
O O6 0.350388 0.850388 0.250000
O O7 0.342531 0.956736 0.433857
O O8 0.317244 0.926331 0.930244
O O9 0.924453 0.424453 0.250000
O O10 0.703834 0.796167 0.750000
#
# Coordination Sequence:
#
# PCOD9551846 Si02
#       4
#    16  16  16   8
#     4  11  24  41  63  96 125 169 227 264 335 411
#     4  10  21  38  62  91 126 166 214 260 331 392
#     4  10  22  41  62  92 128 168 214 277 331 391
#     4  10  22  40  64  92 136 174 214 282 338 394
#
# _framework density 21.430783000000002
#
# number of rings (size 3 to 8) (size 9 to 14) (size 15 to 20)
#    0.000    1.714    0.000    3.429    4.000    4.000 
#    0.000    5.714    0.000    0.000    0.000    0.000 
#    0.000    0.000    0.000    0.000    0.000    0.000 
#
# Total GULP energy -155892.626156 kJ/mol
# GULP energy per Si atom -5567.593791 kJ/mol
# Density = 2.138201 g / cm^3
# Si number density = 21.430783 Si / 1000 Ang^3
#
#
#
# Elastic Constant Matrix: (Units=GPa)
#
#
# Indices 1 2 3 4 5 6 
#
# 1 152.5637 44.8569 21.4801 0.0000 0.0000 0.0000
# 2 44.8569 152.5621 21.4820 0.0000 0.0000 0.0000
# 3 21.4801 21.4820 91.8013 0.0000 0.0000 0.0000
# 4 0.0000 0.0000 0.0000 26.3507 0.0000 0.0000
# 5 0.0000 0.0000 0.0000 0.0000 26.3511 0.0000
# 6 0.0000 0.0000 0.0000 0.0000 0.0000 14.8611
#
#
#
# Elastic Compliance Matrix: (Units=1/GPa)
#
#
# Indices 1 2 3 4 5 6 
#
# 1 0.007311 -0.001974 -0.001249 0.000000 0.000000 0.000000
# 2 -0.001974 0.007311 -0.001249 0.000000 0.000000 0.000000
# 3 -0.001249 -0.001249 0.011478 0.000000 0.000000 0.000000
# 4 0.000000 0.000000 0.000000 0.037950 0.000000 0.000000
# 5 0.000000 0.000000 0.000000 0.000000 0.037949 0.000000
# 6 0.000000 0.000000 0.000000 0.000000 0.000000 0.067290
#
#
# Mechanical properties :
#
#
# Convention : Reuss Voigt Hill
#
# Bulk Modulus (GPa) = 58.28746 63.61835 60.95290
# Shear Modulus (GPa) = 27.18139 34.11976 30.65058
#
# Velocity S-wave (km/s) = 3.56523 3.99443 3.78592
# Velocity P-wave (km/s) = 6.64868 7.14310 6.90032
#
# Compressibility (1/GPa) = 0.01715635
#
# Stress axis : x y z
#
# Youngs Moduli (GPa) = 136.78453 136.78219 87.12658
#
# Poissons Ratio (x) = 0.26997 0.10880
# Poissons Ratio (y) = 0.26997 0.10882
# Poissons Ratio (z) = 0.17081 0.17084
#
# Static dielectric constant tensor:
#      x y z
#    x 1.827500 0.000000 0.000000 
#    y 0.000000 1.827510 0.000000 
#    z 0.000000 0.000000 1.785850 
# 
# From -- ./inp_files/984.got.cif
#   From: 2010.05.17/outbox.cif.g08.bks.cpg/sg98_1_cif.got.tgz:984.got - 2010.06.03 20:00:51.
