data_PCOD9551048
_publ_section_title
;
Structure prediction by ZEFSAII (Michael W. Deem and Ramdas Pophale) SiO2 
 PCOD9551048
Probable space group: P 43 21 2
;
_chemical_formula_sum "Si O2"
_cell_formula_units_Z 40
_cell_length_a 13.383339
_cell_length_b 13.383339
_cell_length_c 8.740529
_cell_angle_alpha 90.000000
_cell_angle_beta 90.000000
_cell_angle_gamma 90.000000
_cell_volume 1565.549038
_symmetry_space_group_name_H-M "P 43 21 2"
_symmetry_group_IT_number 96
_symmetry_cell_setting 'tetragonal'
loop_
_space_group_symop_operation_xyz
x,y,z
1/2-y,1/2+x,3/4+z
-x,-y,1/2+z
1/2+y,1/2-x,1/4+z
1/2+x,1/2-y,1/4-z
1/2-x,1/2+y,3/4-z
y,x,-z
-y,-x,1/2-z
loop_
_atom_site_type_symbol
_atom_site_label
_atom_site_fract_x
_atom_site_fract_y
_atom_site_fract_z
Si Si1 0.261708 0.503160 0.829595
Si Si2 0.126374 0.695099 0.865654
Si Si3 0.301174 0.758871 0.086493
Si Si4 0.456712 0.618710 0.954830
Si Si5 0.529089 0.114577 0.668275
O O1 0.171717 0.584156 0.836888
O O2 0.238055 0.420865 0.959886
O O3 0.367430 0.552532 0.882363
O O4 0.295055 0.493638 0.651895
O O5 0.254783 0.778525 0.548479
O O6 0.037333 0.695928 0.990485
O O7 0.248731 0.751269 0.250000
O O8 0.370808 0.855031 0.080331
O O9 0.388486 0.675284 0.078822
O O10 0.544202 0.544202 0.000000
O O11 0.457107 0.061937 0.552490
#
# Coordination Sequence:
#
# PCOD9551048 Si02
#       5
#     8   8   8   8   8
#     4  10  23  48  83 119 158 220 291 343 429 519
#     4  11  22  50  84 119 166 223 274 369 428 511
#     4  11  24  49  81 120 169 219 292 358 436 527
#     4  10  24  50  74 119 163 225 289 356 426 518
#     4  12  25  49  80 119 171 221 279 355 433 518
#
# _framework density 25.550139999999999
#
# number of rings (size 3 to 8) (size 9 to 14) (size 15 to 20)
#    0.000    1.200    4.000    1.200    2.800    1.600 
#   14.400    6.000    0.000    0.000    0.000    0.000 
#    0.000    0.000    0.000    0.000    0.000    0.000 
#
# Total GULP energy -223584.419028 kJ/mol
# GULP energy per Si atom -5589.610476 kJ/mol
# Density = 2.549199 g / cm^3
# Si number density = 25.550140 Si / 1000 Ang^3
#
#
#
# Elastic Constant Matrix: (Units=GPa)
#
#
# Indices 1 2 3 4 5 6 
#
# 1 132.3379 64.8461 61.1498 0.0000 0.0000 0.0000
# 2 64.8461 132.3377 61.1497 0.0000 0.0000 0.0000
# 3 61.1498 61.1497 124.9447 0.0000 0.0000 0.0000
# 4 0.0000 0.0000 0.0000 47.4216 0.0000 0.0000
# 5 0.0000 0.0000 0.0000 0.0000 47.4224 0.0000
# 6 0.0000 0.0000 0.0000 0.0000 0.0000 46.3108
#
#
#
# Elastic Compliance Matrix: (Units=1/GPa)
#
#
# Indices 1 2 3 4 5 6 
#
# 1 0.011049 -0.003767 -0.003564 0.000000 0.000000 0.000000
# 2 -0.003767 0.011049 -0.003564 0.000000 0.000000 0.000000
# 3 -0.003564 -0.003564 0.011492 0.000000 0.000000 0.000000
# 4 0.000000 0.000000 0.000000 0.021087 0.000000 0.000000
# 5 0.000000 0.000000 0.000000 0.000000 0.021087 0.000000
# 6 0.000000 0.000000 0.000000 0.000000 0.000000 0.021593
#
#
# Mechanical properties :
#
#
# Convention : Reuss Voigt Hill
#
# Bulk Modulus (GPa) = 84.74407 84.87904 84.81156
# Shear Modulus (GPa) = 40.62345 41.72927 41.17636
#
# Velocity S-wave (km/s) = 3.99174 4.04571 4.01882
# Velocity P-wave (km/s) = 7.38140 7.42404 7.40275
#
# Compressibility (1/GPa) = 0.01180024
#
# Stress axis : x y z
#
# Youngs Moduli (GPa) = 90.50422 90.50411 87.01777
#
# Poissons Ratio (x) = 0.34097 0.31012
# Poissons Ratio (y) = 0.34097 0.31012
# Poissons Ratio (z) = 0.32254 0.32254
#
# Static dielectric constant tensor:
#      x y z
#    x 2.055530 0.000000 0.000000 
#    y 0.000000 2.055530 0.000000 
#    z 0.000000 0.000000 2.030530 
# 
# From -- ./inp_files/1297.got.cif
#   From: 2010.05.17/outbox.cif.g08.bks.cpg/sg96_1_cif.got.tgz:1297.got - 2010.06.03 19:52:08.
