data_PCOD9551045
_publ_section_title
;
Structure prediction by ZEFSAII (Michael W. Deem and Ramdas Pophale) SiO2 
 PCOD9551045
Probable space group: P 43 21 2
;
_chemical_formula_sum "Si O2"
_cell_formula_units_Z 56
_cell_length_a 11.899045
_cell_length_b 11.899045
_cell_length_c 19.677316
_cell_angle_alpha 90.000000
_cell_angle_beta 90.000000
_cell_angle_gamma 90.000000
_cell_volume 2786.057491
_symmetry_space_group_name_H-M "P 43 21 2"
_symmetry_group_IT_number 96
_symmetry_cell_setting 'tetragonal'
loop_
_space_group_symop_operation_xyz
x,y,z
1/2-y,1/2+x,3/4+z
-x,-y,1/2+z
1/2+y,1/2-x,1/4+z
1/2+x,1/2-y,1/4-z
1/2-x,1/2+y,3/4-z
y,x,-z
-y,-x,1/2-z
loop_
_atom_site_type_symbol
_atom_site_label
_atom_site_fract_x
_atom_site_fract_y
_atom_site_fract_z
Si Si1 0.329061 0.329061 0.000000
Si Si2 0.192217 0.577856 0.701420
Si Si3 0.019120 0.203449 0.806224
Si Si4 0.428245 0.157950 0.689909
Si Si5 0.081777 0.479573 0.462796
Si Si6 0.675662 0.422201 0.542146
Si Si7 0.933022 0.933022 0.500000
Si Si8 0.396422 0.476698 0.363651
O O1 0.209551 0.334083 0.961416
O O2 0.442843 0.330893 0.956105
O O3 0.232876 0.556105 0.624694
O O4 0.090370 0.495612 0.719004
O O5 0.299108 0.549848 0.748887
O O6 0.990749 0.299340 0.751489
O O7 0.116723 0.124913 0.775764
O O8 0.882492 0.078874 0.670984
O O9 0.459933 0.103853 0.616831
O O10 0.301832 0.120350 0.704936
O O11 0.438366 0.290911 0.680215
O O12 0.511468 0.116367 0.748730
O O13 0.597082 0.376441 0.602532
O O14 0.979988 0.994539 0.566029
#
# Coordination Sequence:
#
# PCOD9551045 Si02
#       8
#     4   8   8   8   8   8   4   8
#     4  11  22  46  66 101 134 170 234 299 342 400
#     4  10  23  46  71  96 137 183 234 288 346 418
#     4  11  24  45  71  94 140 188 230 277 355 433
#     4  12  29  44  74 101 147 181 242 290 356 428
#     4  12  25  47  69 106 137 190 232 289 351 430
#     4  12  25  45  68 102 134 181 232 285 357 410
#     4   9  24  42  68  99 130 178 234 281 344 412
#     4  11  25  46  66 102 137 184 225 293 356 418
#
# _framework density 20.100086999999998
#
# number of rings (size 3 to 8) (size 9 to 14) (size 15 to 20)
#    0.000    0.857    5.714    0.000    8.000    2.286 
#    5.143    0.000    0.000    0.000    0.000    0.000 
#    0.000    0.000    0.000    0.000    0.000    0.000 
#
# Total GULP energy -312987.846017 kJ/mol
# GULP energy per Si atom -5589.068679 kJ/mol
# Density = 2.005434 g / cm^3
# Si number density = 20.100087 Si / 1000 Ang^3
#
#
#
# Elastic Constant Matrix: (Units=GPa)
#
#
# Indices 1 2 3 4 5 6 
#
# 1 78.9617 21.5364 4.5288 0.0000 0.0000 0.0000
# 2 21.5364 78.9617 4.5288 0.0000 0.0000 0.0000
# 3 4.5288 4.5288 35.8967 0.0000 0.0000 0.0000
# 4 0.0000 0.0000 0.0000 29.4296 0.0000 0.0000
# 5 0.0000 0.0000 0.0000 0.0000 29.4296 0.0000
# 6 0.0000 0.0000 0.0000 0.0000 0.0000 20.8189
#
#
#
# Elastic Compliance Matrix: (Units=1/GPa)
#
#
# Indices 1 2 3 4 5 6 
#
# 1 0.013739 -0.003675 -0.001270 0.000000 0.000000 0.000000
# 2 -0.003675 0.013739 -0.001270 0.000000 0.000000 0.000000
# 3 -0.001270 -0.001270 0.028178 0.000000 0.000000 0.000000
# 4 0.000000 0.000000 0.000000 0.033979 0.000000 0.000000
# 5 0.000000 0.000000 0.000000 0.000000 0.033979 0.000000
# 6 0.000000 0.000000 0.000000 0.000000 0.000000 0.048033
#
#
# Mechanical properties :
#
#
# Convention : Reuss Voigt Hill
#
# Bulk Modulus (GPa) = 23.13281 28.33422 25.73351
# Shear Modulus (GPa) = 25.19060 26.81737 26.00399
#
# Velocity S-wave (km/s) = 3.54398 3.65662 3.60074
# Velocity P-wave (km/s) = 5.31791 5.65288 5.48795
#
# Compressibility (1/GPa) = 0.04322865
#
# Stress axis : x y z
#
# Youngs Moduli (GPa) = 72.78334 72.78334 35.48857
#
# Poissons Ratio (x) = 0.26744 0.04506
# Poissons Ratio (y) = 0.26744 0.04506
# Poissons Ratio (z) = 0.09242 0.09242
#
# Static dielectric constant tensor:
#      x y z
#    x 1.696010 0.000000 0.000000 
#    y 0.000000 1.696010 0.000000 
#    z 0.000000 0.000000 1.713670 
# 
# From -- ./inp_files/3574.got.cif
#   From: 2010.05.17/outbox.cif.g08.bks.cpg/sg96_2_cif.got.tgz:3574.got - 2010.06.03 19:52:08.
