data_PCOD9551520
_publ_section_title
;
Structure prediction by ZEFSAII (Michael W. Deem and Ramdas Pophale) SiO2 
 PCOD9551520
Probable space group: I 4 2 2 
;
_chemical_formula_sum "Si O2"
_cell_formula_units_Z 88
_cell_length_a 15.219130
_cell_length_b 15.219130
_cell_length_c 19.174447
_cell_angle_alpha 90.000000
_cell_angle_beta 90.000000
_cell_angle_gamma 90.000000
_cell_volume 4441.222190
_symmetry_space_group_name_H-M "I 4 2 2 "
_symmetry_group_IT_number 97
_symmetry_cell_setting 'tetragonal'
loop_
_space_group_symop_operation_xyz
x,y,z
-y,x,z
-x,-y,z
y,-x,z
x,-y,-z
-x,y,-z
y,x,-z
-y,-x,-z
1/2+x,1/2+y,1/2+z
1/2-y,1/2+x,1/2+z
1/2-x,1/2-y,1/2+z
1/2+y,1/2-x,1/2+z
1/2+x,1/2-y,1/2-z
1/2-x,1/2+y,1/2-z
1/2+y,1/2+x,1/2-z
1/2-y,1/2-x,1/2-z
loop_
_atom_site_type_symbol
_atom_site_label
_atom_site_fract_x
_atom_site_fract_y
_atom_site_fract_z
Si Si1 0.361331 0.713685 0.334958
Si Si2 0.437856 0.249824 0.370526
Si Si3 0.344042 0.293501 0.831564
Si Si4 0.500000 0.868794 0.000000
Si Si5 0.381046 0.118955 0.250000
Si Si6 0.356501 0.000000 0.000000
Si Si7 0.228289 0.465373 0.860982
O O1 0.462358 0.734752 0.347854
O O2 0.334965 0.623265 0.372925
O O3 0.348586 0.705418 0.252163
O O4 0.291434 0.788538 0.356895
O O5 0.389501 0.191461 0.311076
O O6 0.448521 0.200409 0.443550
O O7 0.292760 0.382444 0.850984
O O8 0.443715 0.281303 0.856224
O O9 0.460569 0.813981 0.937012
O O10 0.423707 0.929731 0.032971
O O11 0.461488 0.150941 0.199153
#
# Coordination Sequence:
#
# PCOD9551520 Si02
#       7
#    16  16  16   8   8   8  16
#     4  11  21  39  65  96 128 170 224 268 319 384
#     4  12  23  42  67  95 133 173 216 270 327 385
#     4  11  21  39  65  96 128 170 224 268 319 384
#     4  11  24  42  62  95 134 172 218 271 328 387
#     4  12  20  44  69  92 128 181 214 274 318 368
#     4  11  24  42  62  95 134 172 218 271 328 387
#     4  12  23  42  67  95 133 173 216 270 327 385
#
# _framework density 19.814364000000001
#
# number of rings (size 3 to 8) (size 9 to 14) (size 15 to 20)
#    0.000    0.545    7.273    1.091    0.000    2.182 
#    0.000    9.091    0.000    2.182    0.000    0.000 
#    0.000    0.000    0.000    0.000    0.000    0.000 
#
# Total GULP energy -245301.946812 kJ/mol
# GULP energy per Si atom -5575.044246 kJ/mol
# Density = 1.976927 g / cm^3
# Si number density = 19.814364 Si / 1000 Ang^3
#
#
#
# Elastic Constant Matrix: (Units=GPa)
#
#
# Indices 1 2 3 4 5 6 
#
# 1 126.0682 64.8847 14.2574 0.0000 0.0000 0.0000
# 2 64.8847 126.0687 14.2575 0.0000 0.0000 0.0000
# 3 14.2574 14.2575 63.1774 0.0000 0.0000 0.0000
# 4 0.0000 0.0000 0.0000 29.7061 0.0000 0.0000
# 5 0.0000 0.0000 0.0000 0.0000 29.7061 0.0000
# 6 0.0000 0.0000 0.0000 0.0000 0.0000 35.2776
#
#
#
# Elastic Compliance Matrix: (Units=1/GPa)
#
#
# Indices 1 2 3 4 5 6 
#
# 1 0.010882 -0.005462 -0.001223 0.000000 0.000000 0.000000
# 2 -0.005462 0.010882 -0.001223 0.000000 0.000000 0.000000
# 3 -0.001223 -0.001223 0.016380 0.000000 0.000000 0.000000
# 4 0.000000 0.000000 0.000000 0.033663 0.000000 0.000000
# 5 0.000000 0.000000 0.000000 0.000000 0.033663 0.000000
# 6 0.000000 0.000000 0.000000 0.000000 0.000000 0.028347
#
#
# Mechanical properties :
#
#
# Convention : Reuss Voigt Hill
#
# Bulk Modulus (GPa) = 44.78814 55.79039 50.28927
# Shear Modulus (GPa) = 31.83165 33.73227 32.78196
#
# Velocity S-wave (km/s) = 4.01246 4.13051 4.07191
# Velocity P-wave (km/s) = 6.64224 7.13903 6.89511
#
# Compressibility (1/GPa) = 0.02232734
#
# Stress axis : x y z
#
# Youngs Moduli (GPa) = 91.89580 91.89614 61.04832
#
# Poissons Ratio (x) = 0.50197 0.07466
# Poissons Ratio (y) = 0.50197 0.07467
# Poissons Ratio (z) = 0.11239 0.11239
#
# Static dielectric constant tensor:
#      x y z
#    x 1.734010 0.000000 0.000000 
#    y 0.000000 1.734010 0.000000 
#    z 0.000000 0.000000 2.126510 
# 
# From -- ./inp_files/6585.got.cif
#   From: 2010.05.17/outbox.cif.g08.bks.cpg/sg97_4_cif.got.tgz:6585.got - 2010.06.03 19:55:32.
