data_PCOD9551433
_publ_section_title
;
Structure prediction by ZEFSAII (Michael W. Deem and Ramdas Pophale) SiO2 
 PCOD9551433
Probable space group: I 4 2 2 
;
_chemical_formula_sum "Si O2"
_cell_formula_units_Z 48
_cell_length_a 18.219434
_cell_length_b 18.219434
_cell_length_c 7.533652
_cell_angle_alpha 90.000000
_cell_angle_beta 90.000000
_cell_angle_gamma 90.000000
_cell_volume 2500.779021
_symmetry_space_group_name_H-M "I 4 2 2 "
_symmetry_group_IT_number 97
_symmetry_cell_setting 'tetragonal'
loop_
_space_group_symop_operation_xyz
x,y,z
-y,x,z
-x,-y,z
y,-x,z
x,-y,-z
-x,y,-z
y,x,-z
-y,-x,-z
1/2+x,1/2+y,1/2+z
1/2-y,1/2+x,1/2+z
1/2-x,1/2-y,1/2+z
1/2+y,1/2-x,1/2+z
1/2+x,1/2-y,1/2-z
1/2-x,1/2+y,1/2-z
1/2+y,1/2+x,1/2-z
1/2-y,1/2-x,1/2-z
loop_
_atom_site_type_symbol
_atom_site_label
_atom_site_fract_x
_atom_site_fract_y
_atom_site_fract_z
Si Si1 0.417241 0.159679 0.909301
Si Si2 0.415045 0.584956 0.500000
Si Si3 0.853909 0.181687 0.694938
Si Si4 0.681807 0.181807 0.750000
O O1 0.399163 0.100838 0.750000
O O2 0.392790 0.238467 0.822363
O O3 0.500000 0.158953 0.000000
O O4 0.360830 0.152775 0.076083
O O5 0.401101 0.500000 0.500000
O O6 0.391645 0.628588 0.328891
O O7 0.851435 0.148566 0.500000
O O8 0.769592 0.177363 0.760004
#
# Coordination Sequence:
#
# PCOD9551433 Si02
#       4
#    16   8  16   8
#     4  11  24  42  69 102 131 177 231 284 347 406
#     4  11  26  40  58  96 142 180 212 271 344 408
#     4  10  22  41  67  93 128 174 227 277 328 397
#     4  10  22  44  69  98 132 173 232 296 322 400
#
# _framework density 19.194018
#
# number of rings (size 3 to 8) (size 9 to 14) (size 15 to 20)
#    0.000    1.500    1.667    2.000   11.667    1.333 
#    0.000    4.167    0.000    0.000    0.000    0.000 
#    0.000    0.000    0.000    0.000    0.000    0.000 
#
# Total GULP energy -133618.200582 kJ/mol
# GULP energy per Si atom -5567.425024 kJ/mol
# Density = 1.915033 g / cm^3
# Si number density = 19.194018 Si / 1000 Ang^3
#
#
#
# Elastic Constant Matrix: (Units=GPa)
#
#
# Indices 1 2 3 4 5 6 
#
# 1 330.8174 303.5828 -739.1744 0.0000 0.0000 0.0000
# 2 303.5828 330.8392 -739.2127 0.0000 0.0000 0.0000
# 3 -739.1744 -739.2127 3272.8749 0.0000 0.0000 0.0000
# 4 0.0000 0.0000 0.0000 65.0655 0.0000 0.0000
# 5 0.0000 0.0000 0.0000 0.0000 65.0696 0.0000
# 6 0.0000 0.0000 0.0000 0.0000 0.0000 18.0901
#
#
#
# Elastic Compliance Matrix: (Units=1/GPa)
#
#
# Indices 1 2 3 4 5 6 
#
# 1 0.020016 -0.016688 0.000751 0.000000 0.000000 0.000000
# 2 -0.016688 0.020015 0.000752 0.000000 0.000000 0.000000
# 3 0.000751 0.000752 0.000645 0.000000 0.000000 0.000000
# 4 0.000000 0.000000 0.000000 0.015369 0.000000 0.000000
# 5 0.000000 0.000000 0.000000 0.000000 0.015368 0.000000
# 6 0.000000 0.000000 0.000000 0.000000 0.000000 0.055279
#
#
# Mechanical properties :
#
#
# Convention : Reuss Voigt Hill
#
# Bulk Modulus (GPa) = 97.02479 176.10255 136.56367
# Shear Modulus (GPa) = 31.15321 370.26742 200.71032
#
# Velocity S-wave (km/s) = 4.03310 13.90419 10.23700
# Velocity P-wave (km/s) = 8.50571 18.70071 14.52693
#
# Compressibility (1/GPa) = 0.01030664
#
# Stress axis : x y z
#
# Youngs Moduli (GPa) = 49.96062 49.96197 1550.31018
#
# Poissons Ratio (x) = 0.83376 -1.16493
# Poissons Ratio (y) = 0.83373 -1.16540
# Poissons Ratio (z) = -0.03754 -0.03756
#
# Static dielectric constant tensor:
#      x y z
#    x 1.626610 0.000000 0.000000 
#    y 0.000000 1.626610 0.000000 
#    z 0.000000 0.000000 1.655610 
# 
# From -- ./inp_files/1664.got.cif
#   From: 2010.05.17/outbox.cif.g08.bks.cpg/sg97_1_cif.got.tgz:1664.got - 2010.06.03 19:55:32.
