data_PCOD9551882
_publ_section_title
;
Structure prediction by ZEFSAII (Michael W. Deem and Ramdas Pophale) SiO2 
 PCOD9551882
Probable space group: I 41 2 2
;
_chemical_formula_sum "Si O2"
_cell_formula_units_Z 72
_cell_length_a 16.170053
_cell_length_b 16.170053
_cell_length_c 16.837069
_cell_angle_alpha 90.000000
_cell_angle_beta 90.000000
_cell_angle_gamma 90.000000
_cell_volume 4402.398770
_symmetry_space_group_name_H-M "I 41 2 2"
_symmetry_group_IT_number 98
_symmetry_cell_setting 'tetragonal'
loop_
_space_group_symop_operation_xyz
x,y,z
-y,1/2+x,1/4+z
-x,-y,z
y,1/2-x,1/4+z
x,1/2-y,1/4-z
-x,1/2+y,1/4-z
y,x,-z
-y,-x,-z
1/2+x,1/2+y,1/2+z
1/2-y,x,3/4+z
1/2-x,1/2-y,1/2+z
1/2+y,-x,3/4+z
1/2+x,-y,3/4-z
1/2-x,y,3/4-z
1/2+y,1/2+x,1/2-z
1/2-y,1/2-x,1/2-z
loop_
_atom_site_type_symbol
_atom_site_label
_atom_site_fract_x
_atom_site_fract_y
_atom_site_fract_z
Si Si1 0.805876 0.805876 0.500000
Si Si2 0.565942 0.250000 0.625000
Si Si3 0.644824 0.545116 0.564459
Si Si4 0.036516 0.092688 0.199615
Si Si5 0.319394 0.376631 0.172810
Si Si6 0.633975 0.366026 0.500000
O O1 0.712876 0.817105 0.465783
O O2 0.821754 0.862427 0.577994
O O3 0.513755 0.329220 0.660158
O O4 0.621983 0.286889 0.555011
O O5 0.583465 0.583465 0.500000
O O6 0.618542 0.584365 0.647049
O O7 0.736412 0.576395 0.549968
O O8 0.634974 0.447248 0.555936
O O9 0.065270 0.110766 0.289006
O O10 0.000000 0.000000 0.192275
#
# Coordination Sequence:
#
# PCOD9551882 Si02
#       6
#     8   8  16  16  16   8
#     4  10  22  34  53  81 122 160 186 244 302 360
#     4  12  24  36  58  90 124 162 198 246 306 366
#     4  12  19  32  55  90 125 149 180 236 303 378
#     4  12  22  36  58  89 122 160 192 245 312 363
#     4  11  21  34  55  85 120 155 195 235 301 366
#     4  12  23  36  56  86 126 152 195 238 300 366
#
# _framework density 16.354721000000001
#
# number of rings (size 3 to 8) (size 9 to 14) (size 15 to 20)
#    0.000    0.444   10.000    0.333    0.000    0.000 
#    0.000    0.556    0.000    5.333    0.000    0.000 
#    0.000    0.000    0.000    0.000    0.000    0.000 
#
# Total GULP energy -200477.317462 kJ/mol
# GULP energy per Si atom -5568.814374 kJ/mol
# Density = 1.631750 g / cm^3
# Si number density = 16.354721 Si / 1000 Ang^3
#
#
#
# Elastic Constant Matrix: (Units=GPa)
#
#
# Indices 1 2 3 4 5 6 
#
# 1 52.9966 45.0793 26.0516 0.0000 0.0000 0.0000
# 2 45.0793 52.9985 26.0487 0.0000 0.0000 0.0000
# 3 26.0516 26.0487 95.1160 0.0000 0.0000 0.0000
# 4 0.0000 0.0000 0.0000 31.0836 0.0000 0.0000
# 5 0.0000 0.0000 0.0000 0.0000 31.0840 0.0000
# 6 0.0000 0.0000 0.0000 0.0000 0.0000 6.5778
#
#
#
# Elastic Compliance Matrix: (Units=1/GPa)
#
#
# Indices 1 2 3 4 5 6 
#
# 1 0.069114 -0.057179 -0.003271 0.000000 0.000000 0.000000
# 2 -0.057179 0.069109 -0.003265 0.000000 0.000000 0.000000
# 3 -0.003271 -0.003265 0.012304 0.000000 0.000000 0.000000
# 4 0.000000 0.000000 0.000000 0.032171 0.000000 0.000000
# 5 0.000000 0.000000 0.000000 0.000000 0.032171 0.000000
# 6 0.000000 0.000000 0.000000 0.000000 0.000000 0.152026
#
#
# Mechanical properties :
#
#
# Convention : Reuss Voigt Hill
#
# Bulk Modulus (GPa) = 43.29767 43.94115 43.61941
# Shear Modulus (GPa) = 9.95969 20.67785 15.31877
#
# Velocity S-wave (km/s) = 2.47043 3.55961 3.06381
# Velocity P-wave (km/s) = 5.88803 6.61969 6.26455
#
# Compressibility (1/GPa) = 0.02309593
#
# Stress axis : x y z
#
# Youngs Moduli (GPa) = 14.46883 14.46993 81.27765
#
# Poissons Ratio (x) = 0.82738 0.26582
# Poissons Ratio (y) = 0.82732 0.26539
# Poissons Ratio (z) = 0.04732 0.04725
#
# Static dielectric constant tensor:
#      x y z
#    x 1.560350 0.000000 0.000000 
#    y 0.000000 1.560350 0.000000 
#    z 0.000000 0.000000 1.605990 
# 
# From -- ./inp_files/7546.got.cif
#   From: 2010.05.17/outbox.cif.g08.bks.cpg/sg98_4_cif.got.tgz:7546.got - 2010.06.03 20:00:51.
