data_PCOD9551473
_publ_section_title
;
Structure prediction by ZEFSAII (Michael W. Deem and Ramdas Pophale) SiO2 
 PCOD9551473
Probable space group: I 4 2 2 
;
_chemical_formula_sum "Si O2"
_cell_formula_units_Z 72
_cell_length_a 16.377004
_cell_length_b 16.377004
_cell_length_c 12.091706
_cell_angle_alpha 90.000000
_cell_angle_beta 90.000000
_cell_angle_gamma 90.000000
_cell_volume 3243.071243
_symmetry_space_group_name_H-M "I 4 2 2 "
_symmetry_group_IT_number 97
_symmetry_cell_setting 'tetragonal'
loop_
_space_group_symop_operation_xyz
x,y,z
-y,x,z
-x,-y,z
y,-x,z
x,-y,-z
-x,y,-z
y,x,-z
-y,-x,-z
1/2+x,1/2+y,1/2+z
1/2-y,1/2+x,1/2+z
1/2-x,1/2-y,1/2+z
1/2+y,1/2-x,1/2+z
1/2+x,1/2-y,1/2-z
1/2-x,1/2+y,1/2-z
1/2+y,1/2+x,1/2-z
1/2-y,1/2-x,1/2-z
loop_
_atom_site_type_symbol
_atom_site_label
_atom_site_fract_x
_atom_site_fract_y
_atom_site_fract_z
Si Si1 0.354920 0.000000 0.500000
Si Si2 0.231618 0.000000 0.000000
Si Si3 0.839686 0.392411 0.373335
Si Si4 0.889348 0.274383 0.677081
Si Si5 0.441984 0.375047 0.673345
Si Si6 0.249618 0.750383 0.500000
O O1 0.398750 0.079498 0.449675
O O2 0.305285 0.033936 0.605584
O O3 0.171122 0.935609 0.056275
O O4 0.289499 0.025406 0.102459
O O5 0.866735 0.366735 0.250000
O O6 0.775274 0.327172 0.424081
O O7 0.846116 0.346116 0.750000
O O8 0.910986 0.192494 0.742175
O O9 0.822860 0.249393 0.587140
O O10 0.538769 0.396054 0.684102
#
# Coordination Sequence:
#
# PCOD9551473 Si02
#       6
#     8   8  16  16  16   8
#     4  10  24  45  66 103 144 176 242 302 362 437
#     4  12  26  42  72 102 142 192 248 304 360 448
#     4  11  25  44  70 103 138 192 241 304 377 433
#     4  11  24  44  73 104 144 188 248 303 363 444
#     4  11  26  44  67 104 150 190 235 303 372 434
#     4  10  24  40  70 101 133 182 250 296 350 442
#
# _framework density 22.201179
#
# number of rings (size 3 to 8) (size 9 to 14) (size 15 to 20)
#    0.000    1.111    0.000    5.333   15.556    1.333 
#    0.000    1.111    0.000    0.000    0.000    0.000 
#    0.000    0.000    0.000    0.000    0.000    0.000 
#
# Total GULP energy -200894.850190 kJ/mol
# GULP energy per Si atom -5580.412505 kJ/mol
# Density = 2.215065 g / cm^3
# Si number density = 22.201179 Si / 1000 Ang^3
#
#
#
# Elastic Constant Matrix: (Units=GPa)
#
#
# Indices 1 2 3 4 5 6 
#
# 1 53.1393 88.9169 34.6028 0.0000 0.0000 0.0000
# 2 88.9169 53.1347 34.6067 0.0000 0.0000 0.0000
# 3 34.6028 34.6067 132.1902 0.0000 0.0000 0.0000
# 4 0.0000 0.0000 0.0000 -56.8537 0.0000 0.0000
# 5 0.0000 0.0000 0.0000 0.0000 -56.8493 0.0000
# 6 0.0000 0.0000 0.0000 0.0000 0.0000 26.4909
#
#
#
# Elastic Compliance Matrix: (Units=1/GPa)
#
#
# Indices 1 2 3 4 5 6 
#
# 1 -0.009939 0.018009 -0.002113 0.000000 0.000000 0.000000
# 2 0.018009 -0.009941 -0.002112 0.000000 0.000000 0.000000
# 3 -0.002113 -0.002112 0.008671 0.000000 0.000000 0.000000
# 4 0.000000 0.000000 0.000000 -0.017589 0.000000 0.000000
# 5 0.000000 0.000000 0.000000 0.000000 -0.017590 0.000000
# 6 0.000000 0.000000 0.000000 0.000000 0.000000 0.037749
#
#
# Mechanical properties :
#
#
# Convention : Reuss Voigt Hill
#
# Bulk Modulus (GPa) = 61.12768 61.63522 61.38145
# Shear Modulus (GPa) = -162.57407 -12.08656 -87.33032
#
# Velocity S-wave (km/s) = -8.56660 -2.33579 -6.27864
# Velocity P-wave (km/s) = 8.38186 4.53297 4.98536
#
# Compressibility (1/GPa) = 0.01635920
#
# Stress axis : x y z
#
# Youngs Moduli (GPa) = -100.61129 -100.59607 115.33054
#
# Poissons Ratio (x) = 1.81160 0.24367
# Poissons Ratio (y) = 1.81187 0.24353
# Poissons Ratio (z) = -0.21257 -0.21242
#
# Static dielectric constant tensor:
#      x y z
#    x 1.930860 0.000000 0.000000 
#    y 0.000000 1.930850 0.000000 
#    z 0.000000 0.000000 1.853400 
# 
# From -- ./inp_files/3658.got.cif
#   From: 2010.05.17/outbox.cif.g08.bks.cpg/sg97_2_cif.got.tgz:3658.got - 2010.06.03 19:55:32.
