data_PCOD9551496
_publ_section_title
;
Structure prediction by ZEFSAII (Michael W. Deem and Ramdas Pophale) SiO2 
 PCOD9551496
Probable space group: I 4 2 2 
;
_chemical_formula_sum "Si O2"
_cell_formula_units_Z 112
_cell_length_a 30.648445
_cell_length_b 30.648445
_cell_length_c 5.657119
_cell_angle_alpha 90.000000
_cell_angle_beta 90.000000
_cell_angle_gamma 90.000000
_cell_volume 5313.885642
_symmetry_space_group_name_H-M "I 4 2 2 "
_symmetry_group_IT_number 97
_symmetry_cell_setting 'tetragonal'
loop_
_space_group_symop_operation_xyz
x,y,z
-y,x,z
-x,-y,z
y,-x,z
x,-y,-z
-x,y,-z
y,x,-z
-y,-x,-z
1/2+x,1/2+y,1/2+z
1/2-y,1/2+x,1/2+z
1/2-x,1/2-y,1/2+z
1/2+y,1/2-x,1/2+z
1/2+x,1/2-y,1/2-z
1/2-x,1/2+y,1/2-z
1/2+y,1/2+x,1/2-z
1/2-y,1/2-x,1/2-z
loop_
_atom_site_type_symbol
_atom_site_label
_atom_site_fract_x
_atom_site_fract_y
_atom_site_fract_z
Si Si1 0.170789 0.133783 0.755445
Si Si2 0.953081 0.574596 0.993611
Si Si3 0.290180 0.546809 0.578282
Si Si4 0.751918 0.687444 0.111385
Si Si5 0.604829 0.152346 0.437593
Si Si6 0.959929 0.703650 0.357292
Si Si7 0.732863 0.890565 0.259849
O O1 0.148586 0.148586 0.500000
O O2 0.181863 0.081749 0.767332
O O3 0.216425 0.161041 0.770476
O O4 0.145132 0.145132 0.000000
O O5 0.952644 0.547357 0.750000
O O6 0.947754 0.552247 0.250000
O O7 0.911494 0.606059 0.974487
O O8 0.000000 0.597430 0.000000
O O9 0.311301 0.500000 0.500000
O O10 0.248693 0.529263 0.726861
O O11 0.269048 0.580109 0.380074
O O12 0.793506 0.706495 0.250000
O O13 0.729571 0.729571 0.000000
O O14 0.755390 0.653643 0.893114
O O15 0.641395 0.141395 0.250000
O O16 0.560738 0.170981 0.324330
O O17 0.619784 0.191053 0.601882
O O18 0.922268 0.715477 0.538192
O O19 0.000000 0.685010 0.500000
#
# Coordination Sequence:
#
# PCOD9551496 Si02
#       7
#    16  16  16  16  16  16  16
#     4  11  24  44  68  99 142 187 237 298 357 410
#     4  11  26  46  69  94 121 155 200 255 328 410
#     4  11  22  42  67 101 134 179 232 293 354 428
#     4  11  24  46  65  95 128 186 242 292 342 404
#     4  10  27  44  59  93 125 168 213 276 348 421
#     4  11  23  40  67  97 125 170 222 286 354 425
#     4  11  24  44  66  93 133 170 228 290 351 413
#
# _framework density 21.076857
#
# number of rings (size 3 to 8) (size 9 to 14) (size 15 to 20)
#    0.000    1.143    2.857    2.571    6.000    1.429 
#    5.143    0.000    0.000    0.000    0.000    0.000 
#    0.000    0.286    0.000    6.000    0.000    2.714 
#
# Total GULP energy -312450.517604 kJ/mol
# GULP energy per Si atom -5579.473529 kJ/mol
# Density = 2.102889 g / cm^3
# Si number density = 21.076857 Si / 1000 Ang^3
#
#
#
# Elastic Constant Matrix: (Units=GPa)
#
#
# Indices 1 2 3 4 5 6 
#
# 1 75.9599 35.1442 35.5080 0.0000 0.0000 0.0000
# 2 35.1442 75.9628 35.5097 0.0000 0.0000 0.0000
# 3 35.5080 35.5097 114.5205 0.0000 0.0000 0.0000
# 4 0.0000 0.0000 0.0000 6.4041 0.0000 0.0000
# 5 0.0000 0.0000 0.0000 0.0000 6.4022 0.0000
# 6 0.0000 0.0000 0.0000 0.0000 0.0000 13.9581
#
#
#
# Elastic Compliance Matrix: (Units=1/GPa)
#
#
# Indices 1 2 3 4 5 6 
#
# 1 0.017863 -0.006637 -0.003480 0.000000 0.000000 0.000000
# 2 -0.006637 0.017862 -0.003481 0.000000 0.000000 0.000000
# 3 -0.003480 -0.003481 0.010890 0.000000 0.000000 0.000000
# 4 0.000000 0.000000 0.000000 0.156150 0.000000 0.000000
# 5 0.000000 0.000000 0.000000 0.000000 0.156197 0.000000
# 6 0.000000 0.000000 0.000000 0.000000 0.000000 0.071643
#
#
# Mechanical properties :
#
#
# Convention : Reuss Voigt Hill
#
# Bulk Modulus (GPa) = 51.49689 53.19635 52.34662
# Shear Modulus (GPa) = 10.76950 16.03829 13.40389
#
# Velocity S-wave (km/s) = 2.26290 2.76151 2.52455
# Velocity P-wave (km/s) = 5.59585 5.95499 5.77821
#
# Compressibility (1/GPa) = 0.01941865
#
# Stress axis : x y z
#
# Youngs Moduli (GPa) = 55.98287 55.98445 91.82355
#
# Poissons Ratio (x) = 0.37158 0.31959
# Poissons Ratio (y) = 0.37157 0.31961
# Poissons Ratio (z) = 0.19484 0.19486
#
# Static dielectric constant tensor:
#      x y z
#    x 1.783760 0.000000 0.000000 
#    y 0.000000 1.783750 0.000000 
#    z 0.000000 0.000000 1.855780 
# 
# From -- ./inp_files/1156.got.cif
#   From: 2010.05.17/outbox.cif.g08.bks.cpg/sg97_1_cif.got.tgz:1156.got - 2010.06.03 19:55:32.
