data_PCOD9551320
_publ_section_title
;
Structure prediction by ZEFSAII (Michael W. Deem and Ramdas Pophale) SiO2 
 PCOD9551320
Probable space group: I 4 2 2 
;
_chemical_formula_sum "Si O2"
_cell_formula_units_Z 120
_cell_length_a 25.146637
_cell_length_b 25.146637
_cell_length_c 9.384921
_cell_angle_alpha 90.000000
_cell_angle_beta 90.000000
_cell_angle_gamma 90.000000
_cell_volume 5934.586256
_symmetry_space_group_name_H-M "I 4 2 2 "
_symmetry_group_IT_number 97
_symmetry_cell_setting 'tetragonal'
loop_
_space_group_symop_operation_xyz
x,y,z
-y,x,z
-x,-y,z
y,-x,z
x,-y,-z
-x,y,-z
y,x,-z
-y,-x,-z
1/2+x,1/2+y,1/2+z
1/2-y,1/2+x,1/2+z
1/2-x,1/2-y,1/2+z
1/2+y,1/2-x,1/2+z
1/2+x,1/2-y,1/2-z
1/2-x,1/2+y,1/2-z
1/2+y,1/2+x,1/2-z
1/2-y,1/2-x,1/2-z
loop_
_atom_site_type_symbol
_atom_site_label
_atom_site_fract_x
_atom_site_fract_y
_atom_site_fract_z
Si Si1 0.673924 0.130842 0.038472
Si Si2 0.409144 0.500000 0.000000
Si Si3 0.820953 0.105210 0.312768
Si Si4 0.237889 0.201213 0.848168
Si Si5 0.421676 0.223737 0.278039
Si Si6 0.837131 0.442722 0.987226
Si Si7 0.576640 0.662029 0.144383
Si Si8 0.231524 0.539778 0.711923
O O1 0.696733 0.120877 0.880437
O O2 0.610611 0.131891 0.054693
O O3 0.703039 0.182369 0.102395
O O4 0.698372 0.082087 0.124741
O O5 0.449486 0.449486 0.000000
O O6 0.367213 0.519943 0.121287
O O7 0.789802 0.157051 0.251938
O O8 0.819226 0.094501 0.483754
O O9 0.882644 0.118580 0.293431
O O10 0.792377 0.058267 0.226037
O O11 0.247014 0.252987 0.750000
O O12 0.208694 0.208694 0.000000
O O13 0.425751 0.190331 0.133769
O O14 0.416242 0.285593 0.238964
O O15 0.480909 0.221984 0.342545
O O16 0.866438 0.500000 0.000000
O O17 0.791556 0.455283 0.872097
#
# Coordination Sequence:
#
# PCOD9551320 Si02
#       8
#    16   8  16  16  16  16  16  16
#     4  11  22  39  57  90 123 160 209 269 323 392
#     4  11  22  36  58  96 134 166 224 287 332 384
#     4  10  20  36  55  83 121 167 205 255 325 382
#     4  11  25  39  58  85 128 171 215 255 326 411
#     4  11  22  34  62  89 122 161 217 264 317 395
#     4  10  21  37  59  86 116 162 206 261 313 388
#     4  11  21  35  60  88 128 167 206 274 331 383
#     4  10  20  38  59  83 122 164 210 256 323 388
#
# _framework density 20.220448999999999
#
# number of rings (size 3 to 8) (size 9 to 14) (size 15 to 20)
#    0.000    1.400    2.667    4.400    2.800    1.067 
#    0.000    0.000    0.000    1.600    0.000    7.467 
#    0.000    3.467    0.000    0.000    0.000    0.000 
#
# Total GULP energy -334260.182823 kJ/mol
# GULP energy per Si atom -5571.003047 kJ/mol
# Density = 2.017443 g / cm^3
# Si number density = 20.220449 Si / 1000 Ang^3
#
#
#
# Elastic Constant Matrix: (Units=GPa)
#
#
# Indices 1 2 3 4 5 6 
#
# 1 86.4007 35.5822 15.6306 0.0000 0.0000 0.0000
# 2 35.5822 86.4001 15.6295 0.0000 0.0000 0.0000
# 3 15.6306 15.6295 75.6345 0.0000 0.0000 0.0000
# 4 0.0000 0.0000 0.0000 30.7189 0.0000 0.0000
# 5 0.0000 0.0000 0.0000 0.0000 30.7192 0.0000
# 6 0.0000 0.0000 0.0000 0.0000 0.0000 30.4398
#
#
#
# Elastic Compliance Matrix: (Units=1/GPa)
#
#
# Indices 1 2 3 4 5 6 
#
# 1 0.014167 -0.005511 -0.001789 0.000000 0.000000 0.000000
# 2 -0.005511 0.014167 -0.001789 0.000000 0.000000 0.000000
# 3 -0.001789 -0.001789 0.013961 0.000000 0.000000 0.000000
# 4 0.000000 0.000000 0.000000 0.032553 0.000000 0.000000
# 5 0.000000 0.000000 0.000000 0.000000 0.032553 0.000000
# 6 0.000000 0.000000 0.000000 0.000000 0.000000 0.032852
#
#
# Mechanical properties :
#
#
# Convention : Reuss Voigt Hill
#
# Bulk Modulus (GPa) = 41.46272 42.45777 41.96024
# Shear Modulus (GPa) = 30.03555 30.48179 30.25867
#
# Velocity S-wave (km/s) = 3.85828 3.88683 3.87258
# Velocity P-wave (km/s) = 6.35596 6.41766 6.38688
#
# Compressibility (1/GPa) = 0.02411805
#
# Stress axis : x y z
#
# Youngs Moduli (GPa) = 70.58586 70.58580 71.62908
#
# Poissons Ratio (x) = 0.38899 0.12814
# Poissons Ratio (y) = 0.38899 0.12812
# Poissons Ratio (z) = 0.12628 0.12626
#
# Static dielectric constant tensor:
#      x y z
#    x 1.753300 0.000000 0.000000 
#    y 0.000000 1.753300 0.000000 
#    z 0.000000 0.000000 1.810150 
# 
# From -- ./inp_files/2655.got.cif
#   From: 2010.05.17/outbox.cif.g08.bks.cpg/sg97_2_cif.got.tgz:2655.got - 2010.06.03 19:55:32.
