data_PCOD9551560
_publ_section_title
;
Structure prediction by ZEFSAII (Michael W. Deem and Ramdas Pophale) SiO2 
 PCOD9551560
Probable space group: I 4 2 2 
;
_chemical_formula_sum "Si O2"
_cell_formula_units_Z 112
_cell_length_a 14.590392
_cell_length_b 14.590392
_cell_length_c 26.367221
_cell_angle_alpha 90.000000
_cell_angle_beta 90.000000
_cell_angle_gamma 90.000000
_cell_volume 5613.041844
_symmetry_space_group_name_H-M "I 4 2 2 "
_symmetry_group_IT_number 97
_symmetry_cell_setting 'tetragonal'
loop_
_space_group_symop_operation_xyz
x,y,z
-y,x,z
-x,-y,z
y,-x,z
x,-y,-z
-x,y,-z
y,x,-z
-y,-x,-z
1/2+x,1/2+y,1/2+z
1/2-y,1/2+x,1/2+z
1/2-x,1/2-y,1/2+z
1/2+y,1/2-x,1/2+z
1/2+x,1/2-y,1/2-z
1/2-x,1/2+y,1/2-z
1/2+y,1/2+x,1/2-z
1/2-y,1/2-x,1/2-z
loop_
_atom_site_type_symbol
_atom_site_label
_atom_site_fract_x
_atom_site_fract_y
_atom_site_fract_z
Si Si1 0.925434 0.134809 0.789451
Si Si2 0.198680 0.591475 0.650993
Si Si3 0.095247 0.245566 0.511058
Si Si4 0.253946 0.079458 0.369779
Si Si5 0.058546 0.403627 0.045715
Si Si6 0.111794 0.218621 0.320907
Si Si7 0.409674 0.936525 0.806511
O O1 0.892877 0.194676 0.837695
O O2 0.900571 0.186519 0.736954
O O3 0.034589 0.119170 0.789814
O O4 0.157930 0.570060 0.595519
O O5 0.143460 0.676574 0.674277
O O6 0.174961 0.501186 0.682420
O O7 0.183458 0.183458 0.500000
O O8 0.093108 0.266421 0.570611
O O9 0.088472 0.338210 0.476983
O O10 0.000000 0.193203 0.500000
O O11 0.189047 0.157422 0.347240
O O12 0.353425 0.083148 0.344687
O O13 0.210978 0.982344 0.352683
O O14 0.000000 0.500000 0.055852
O O15 0.000000 0.359876 0.000000
O O16 0.400556 0.900556 0.750000
O O17 0.500000 0.000000 0.810178
#
# Coordination Sequence:
#
# PCOD9551560 Si02
#       7
#    16  16  16  16  16  16  16
#     4  11  26  49  68  96 140 191 234 283 352 435
#     4  12  25  42  69 103 136 178 231 294 349 413
#     4  12  25  44  66 101 141 184 234 290 346 421
#     4  12  25  43  68  97 137 183 226 282 346 418
#     4  11  23  45  74 104 139 183 238 297 363 422
#     4  12  25  43  70 103 138 182 237 279 351 426
#     4  11  24  39  62  99 134 166 213 278 347 403
#
# _framework density 19.953531000000002
#
# number of rings (size 3 to 8) (size 9 to 14) (size 15 to 20)
#    0.000    0.429    4.286    5.143    4.000    1.000 
#    2.571    1.429    0.000    0.000    0.000    1.000 
#    0.000    0.000    0.000    0.000    0.000    0.000 
#
# Total GULP energy -313046.301201 kJ/mol
# GULP energy per Si atom -5590.112521 kJ/mol
# Density = 1.990812 g / cm^3
# Si number density = 19.953531 Si / 1000 Ang^3
#
#
#
# Elastic Constant Matrix: (Units=GPa)
#
#
# Indices 1 2 3 4 5 6 
#
# 1 101.4536 44.3851 56.1084 0.0000 0.0000 0.0000
# 2 44.3851 101.4536 56.1084 0.0000 0.0000 0.0000
# 3 56.1084 56.1084 163.1985 0.0000 0.0000 0.0000
# 4 0.0000 0.0000 0.0000 73.8880 0.0000 0.0000
# 5 0.0000 0.0000 0.0000 0.0000 73.8880 0.0000
# 6 0.0000 0.0000 0.0000 0.0000 0.0000 28.1424
#
#
#
# Elastic Compliance Matrix: (Units=1/GPa)
#
#
# Indices 1 2 3 4 5 6 
#
# 1 0.013423 -0.004100 -0.003205 0.000000 0.000000 0.000000
# 2 -0.004100 0.013423 -0.003205 0.000000 0.000000 0.000000
# 3 -0.003205 -0.003205 0.008332 0.000000 0.000000 0.000000
# 4 0.000000 0.000000 0.000000 0.013534 0.000000 0.000000
# 5 0.000000 0.000000 0.000000 0.000000 0.013534 0.000000
# 6 0.000000 0.000000 0.000000 0.000000 0.000000 0.035534
#
#
# Mechanical properties :
#
#
# Convention : Reuss Voigt Hill
#
# Bulk Modulus (GPa) = 70.63845 75.47885 73.05865
# Shear Modulus (GPa) = 40.47953 49.15058 44.81505
#
# Velocity S-wave (km/s) = 4.50898 4.96850 4.74431
# Velocity P-wave (km/s) = 7.91115 8.41571 8.16732
#
# Compressibility (1/GPa) = 0.01415660
#
# Stress axis : x y z
#
# Youngs Moduli (GPa) = 74.49862 74.49862 120.02535
#
# Poissons Ratio (x) = 0.30543 0.38473
# Poissons Ratio (y) = 0.30543 0.38473
# Poissons Ratio (z) = 0.23880 0.23880
#
# Static dielectric constant tensor:
#      x y z
#    x 1.722030 0.000000 0.000000 
#    y 0.000000 1.722030 0.000000 
#    z 0.000000 0.000000 1.700150 
# 
# From -- ./inp_files/7244.got.cif
#   From: 2010.05.17/outbox.cif.g08.bks.cpg/sg97_4_cif.got.tgz:7244.got - 2010.06.03 19:55:32.
