data_PCOD9551661
_publ_section_title
;
Structure prediction by ZEFSAII (Michael W. Deem and Ramdas Pophale) SiO2 
 PCOD9551661
Probable space group: I 41 2 2
;
_chemical_formula_sum "Si O2"
_cell_formula_units_Z 96
_cell_length_a 23.646752
_cell_length_b 23.646752
_cell_length_c 10.623212
_cell_angle_alpha 90.000000
_cell_angle_beta 90.000000
_cell_angle_gamma 90.000000
_cell_volume 5940.169558
_symmetry_space_group_name_H-M "I 41 2 2"
_symmetry_group_IT_number 98
_symmetry_cell_setting 'tetragonal'
loop_
_space_group_symop_operation_xyz
x,y,z
-y,1/2+x,1/4+z
-x,-y,z
y,1/2-x,1/4+z
x,1/2-y,1/4-z
-x,1/2+y,1/4-z
y,x,-z
-y,-x,-z
1/2+x,1/2+y,1/2+z
1/2-y,x,3/4+z
1/2-x,1/2-y,1/2+z
1/2+y,-x,3/4+z
1/2+x,-y,3/4-z
1/2-x,y,3/4-z
1/2+y,1/2+x,1/2-z
1/2-y,1/2-x,1/2-z
loop_
_atom_site_type_symbol
_atom_site_label
_atom_site_fract_x
_atom_site_fract_y
_atom_site_fract_z
Si Si1 0.280372 0.369034 0.748691
Si Si2 0.285224 0.996036 0.996655
Si Si3 0.904638 0.998270 0.147091
Si Si4 0.631746 0.717489 0.748565
Si Si5 0.997648 0.907253 0.147999
Si Si6 0.004796 0.719327 0.496113
O O1 0.250000 0.349012 0.875000
O O2 0.343226 0.344953 0.746268
O O3 0.248346 0.348734 0.624661
O O4 0.278526 0.436506 0.748190
O O5 0.281366 0.064259 0.997759
O O6 0.255758 0.975567 0.125032
O O7 0.250000 0.975581 0.875000
O O8 0.351983 0.986722 0.977649
O O9 0.847829 0.014330 0.222741
O O10 0.940876 0.942266 0.185346
O O11 0.950737 0.048401 0.152667
O O12 0.889220 0.989936 0.998920
O O13 0.651811 0.750000 0.625000
O O14 0.024501 0.750000 0.625000
#
# Coordination Sequence:
#
# PCOD9551661 Si02
#       6
#    16  16  16  16  16  16
#     4  10  20  31  41  55  80 117 154 192 234 276
#     4  10  18  31  48  70  94 122 162 200 237 297
#     4   9  17  31  51  77 102 130 165 212 261 298
#     4  10  20  29  41  59  79 111 154 198 237 268
#     4   9  17  30  53  77 100 128 169 216 253 296
#     4  10  20  33  48  68  99 130 158 197 250 303
#
# _framework density 16.161154
#
# number of rings (size 3 to 8) (size 9 to 14) (size 15 to 20)
#    0.000    2.333    1.667    3.000    0.000    2.000 
#    0.000    3.333    0.000    2.000    0.000    0.000 
#    0.000    4.000    0.000    0.000    0.000    0.000 
#
# Total GULP energy -267267.910445 kJ/mol
# GULP energy per Si atom -5568.081468 kJ/mol
# Density = 1.612437 g / cm^3
# Si number density = 16.161154 Si / 1000 Ang^3
#
#
#
# Elastic Constant Matrix: (Units=GPa)
#
#
# Indices 1 2 3 4 5 6 
#
# 1 68.3980 -1.6664 27.9101 0.0000 0.0000 0.0000
# 2 -1.6664 68.3980 27.9101 0.0000 0.0000 0.0000
# 3 27.9101 27.9101 109.2718 0.0000 0.0000 0.0000
# 4 0.0000 0.0000 0.0000 33.9867 0.0000 0.0000
# 5 0.0000 0.0000 0.0000 0.0000 33.9867 0.0000
# 6 0.0000 0.0000 0.0000 0.0000 0.0000 18.1458
#
#
#
# Elastic Compliance Matrix: (Units=1/GPa)
#
#
# Indices 1 2 3 4 5 6 
#
# 1 0.016665 0.002392 -0.004868 0.000000 0.000000 0.000000
# 2 0.002392 0.016665 -0.004868 0.000000 0.000000 0.000000
# 3 -0.004868 -0.004868 0.011638 0.000000 0.000000 0.000000
# 4 0.000000 0.000000 0.000000 0.029423 0.000000 0.000000
# 5 0.000000 0.000000 0.000000 0.000000 0.029423 0.000000
# 6 0.000000 0.000000 0.000000 0.000000 0.000000 0.055109
#
#
# Mechanical properties :
#
#
# Convention : Reuss Voigt Hill
#
# Bulk Modulus (GPa) = 33.02292 39.37503 36.19897
# Shear Modulus (GPa) = 27.21783 30.01809 28.61796
#
# Velocity S-wave (km/s) = 4.10829 4.31446 4.21264
# Velocity P-wave (km/s) = 6.55606 7.01686 6.79037
#
# Compressibility (1/GPa) = 0.03028200
#
# Stress axis : x y z
#
# Youngs Moduli (GPa) = 60.00661 60.00661 85.92524
#
# Poissons Ratio (x) = -0.14355 0.41825
# Poissons Ratio (y) = -0.14355 0.41825
# Poissons Ratio (z) = 0.29208 0.29208
#
# Static dielectric constant tensor:
#      x y z
#    x 1.540480 0.000000 0.000000 
#    y 0.000000 1.540480 0.000000 
#    z 0.000000 0.000000 1.572490 
# 
# From -- ./inp_files/3736.got.cif
#   From: 2010.05.17/outbox.cif.g08.bks.cpg/sg98_2_cif.got.tgz:3736.got - 2010.06.03 20:00:51.
