data_PCOD9551828
_publ_section_title
;
Structure prediction by ZEFSAII (Michael W. Deem and Ramdas Pophale) SiO2 
 PCOD9551828
Probable space group: I 41 2 2
;
_chemical_formula_sum "Si O2"
_cell_formula_units_Z 96
_cell_length_a 22.163777
_cell_length_b 22.163777
_cell_length_c 10.168131
_cell_angle_alpha 90.000000
_cell_angle_beta 90.000000
_cell_angle_gamma 90.000000
_cell_volume 4994.921606
_symmetry_space_group_name_H-M "I 41 2 2"
_symmetry_group_IT_number 98
_symmetry_cell_setting 'tetragonal'
loop_
_space_group_symop_operation_xyz
x,y,z
-y,1/2+x,1/4+z
-x,-y,z
y,1/2-x,1/4+z
x,1/2-y,1/4-z
-x,1/2+y,1/4-z
y,x,-z
-y,-x,-z
1/2+x,1/2+y,1/2+z
1/2-y,x,3/4+z
1/2-x,1/2-y,1/2+z
1/2+y,-x,3/4+z
1/2+x,-y,3/4-z
1/2-x,y,3/4-z
1/2+y,1/2+x,1/2-z
1/2-y,1/2-x,1/2-z
loop_
_atom_site_type_symbol
_atom_site_label
_atom_site_fract_x
_atom_site_fract_y
_atom_site_fract_z
Si Si1 0.210182 0.789819 0.500000
Si Si2 0.570462 0.429539 0.000000
Si Si3 0.067564 0.789933 0.500885
Si Si4 0.750000 0.814915 0.875000
Si Si5 0.279557 0.964317 0.742704
Si Si6 0.654804 0.917815 0.857805
Si Si7 0.432619 0.509772 0.278636
Si Si8 0.895974 0.395974 0.250000
O O1 0.226867 0.750000 0.625000
O O2 0.138951 0.780892 0.473625
O O3 0.640351 0.439830 0.965459
O O4 0.560339 0.467952 0.130224
O O5 0.049984 0.750000 0.625000
O O6 0.031578 0.769253 0.372207
O O7 0.724965 0.775036 0.750000
O O8 0.696240 0.862812 0.910063
O O9 0.330478 0.916385 0.700822
O O10 0.306697 0.029519 0.784102
O O11 0.250000 0.939495 0.875000
O O12 0.611123 0.888877 0.750000
O O13 0.611669 0.952549 0.960044
O O14 0.500000 0.500000 0.330866
O O15 0.405699 0.560148 0.375672
#
# Coordination Sequence:
#
# PCOD9551828 Si02
#       8
#     8   8  16   8  16  16  16   8
#     4   9  20  35  51  72 104 150 203 254 308 358
#     4  11  23  36  53  79 118 158 194 248 313 375
#     4  10  21  36  52  75 113 155 195 250 312 366
#     4  10  22  44  74 102 138 172 210 272 330 398
#     4  11  21  36  59  86 115 154 208 257 306 372
#     4  10  21  39  69  97 125 164 214 268 318 386
#     4  11  21  38  60  89 122 160 201 256 316 379
#     4  10  21  35  58  85 111 148 206 260 303 359
#
# _framework density 19.219518999999998
#
# number of rings (size 3 to 8) (size 9 to 14) (size 15 to 20)
#    0.000    1.667    0.833    5.500    0.000    4.000 
#    0.000    1.667    7.333    0.000    0.000    0.000 
#    0.000    0.000    0.000    0.000    0.000    0.000 
#
# Total GULP energy -267780.206619 kJ/mol
# GULP energy per Si atom -5578.754305 kJ/mol
# Density = 1.917577 g / cm^3
# Si number density = 19.219519 Si / 1000 Ang^3
#
#
#
# Elastic Constant Matrix: (Units=GPa)
#
#
# Indices 1 2 3 4 5 6 
#
# 1 83.7508 52.1345 42.2372 0.0000 0.0000 0.0000
# 2 52.1345 83.7506 42.2367 0.0000 0.0000 0.0000
# 3 42.2372 42.2367 104.2390 0.0000 0.0000 0.0000
# 4 0.0000 0.0000 0.0000 28.4232 0.0000 0.0000
# 5 0.0000 0.0000 0.0000 0.0000 28.4227 0.0000
# 6 0.0000 0.0000 0.0000 0.0000 0.0000 83.7222
#
#
#
# Elastic Compliance Matrix: (Units=1/GPa)
#
#
# Indices 1 2 3 4 5 6 
#
# 1 0.020733 -0.010896 -0.003986 0.000000 0.000000 0.000000
# 2 -0.010896 0.020733 -0.003986 0.000000 0.000000 0.000000
# 3 -0.003986 -0.003986 0.012823 0.000000 0.000000 0.000000
# 4 0.000000 0.000000 0.000000 0.035183 0.000000 0.000000
# 5 0.000000 0.000000 0.000000 0.000000 0.035183 0.000000
# 6 0.000000 0.000000 0.000000 0.000000 0.000000 0.011944
#
#
# Mechanical properties :
#
#
# Convention : Reuss Voigt Hill
#
# Bulk Modulus (GPa) = 60.40872 60.55082 60.47977
# Shear Modulus (GPa) = 27.80040 37.12242 32.46141
#
# Velocity S-wave (km/s) = 3.80737 4.39965 4.11418
# Velocity P-wave (km/s) = 7.12932 7.57512 7.35560
#
# Compressibility (1/GPa) = 0.01655390
#
# Stress axis : x y z
#
# Youngs Moduli (GPa) = 48.23187 48.23198 77.98210
#
# Poissons Ratio (x) = 0.52554 0.31083
# Poissons Ratio (y) = 0.52554 0.31082
# Poissons Ratio (z) = 0.19225 0.19224
#
# Static dielectric constant tensor:
#      x y z
#    x 1.725300 0.000000 0.000000 
#    y 0.000000 1.725290 0.000000 
#    z 0.000000 0.000000 1.643480 
# 
# From -- ./inp_files/3793.got.cif
#   From: 2010.05.17/outbox.cif.g08.bks.cpg/sg98_2_cif.got.tgz:3793.got - 2010.06.03 20:00:51.
