data_PCOD9551507
_publ_section_title
;
Structure prediction by ZEFSAII (Michael W. Deem and Ramdas Pophale) SiO2 
 PCOD9551507
Probable space group: I 4 2 2 
;
_chemical_formula_sum "Si O2"
_cell_formula_units_Z 88
_cell_length_a 11.488589
_cell_length_b 11.488589
_cell_length_c 27.013420
_cell_angle_alpha 90.000000
_cell_angle_beta 90.000000
_cell_angle_gamma 90.000000
_cell_volume 3565.438559
_symmetry_space_group_name_H-M "I 4 2 2 "
_symmetry_group_IT_number 97
_symmetry_cell_setting 'tetragonal'
loop_
_space_group_symop_operation_xyz
x,y,z
-y,x,z
-x,-y,z
y,-x,z
x,-y,-z
-x,y,-z
y,x,-z
-y,-x,-z
1/2+x,1/2+y,1/2+z
1/2-y,1/2+x,1/2+z
1/2-x,1/2-y,1/2+z
1/2+y,1/2-x,1/2+z
1/2+x,1/2-y,1/2-z
1/2-x,1/2+y,1/2-z
1/2+y,1/2+x,1/2-z
1/2-y,1/2-x,1/2-z
loop_
_atom_site_type_symbol
_atom_site_label
_atom_site_fract_x
_atom_site_fract_y
_atom_site_fract_z
Si Si1 0.192677 0.001690 0.850913
Si Si2 0.139711 0.860289 0.000000
Si Si3 0.809453 0.339966 0.410547
Si Si4 0.009081 0.818103 0.426453
Si Si5 0.808529 0.135507 0.329042
Si Si6 0.526607 0.781235 0.241308
O O1 0.296772 0.968854 0.887745
O O2 0.232924 0.005707 0.794749
O O3 0.109000 0.890709 0.860158
O O4 0.213644 0.819947 0.952728
O O5 0.000000 0.842638 0.000000
O O6 0.938772 0.309733 0.431090
O O7 0.793181 0.245900 0.365436
O O8 0.896019 0.883113 0.446094
O O9 0.970244 0.831126 0.368161
O O10 0.895670 0.180914 0.286152
O O11 0.703773 0.081838 0.296012
O O12 0.606807 0.893194 0.250000
#
# Coordination Sequence:
#
# PCOD9551507 Si02
#       6
#    16   8  16  16  16  16
#     4  11  22  34  56  90 127 166 223 278 328 396
#     4  11  26  52  82 101 122 160 230 299 352 404
#     4  11  22  39  66  98 129 169 220 291 354 400
#     4   9  17  33  61  94 128 169 217 267 329 387
#     4  11  20  35  64  94 140 178 227 278 333 391
#     4  12  21  34  57  94 135 182 225 271 328 403
#
# _framework density 24.681394000000001
#
# number of rings (size 3 to 8) (size 9 to 14) (size 15 to 20)
#    0.000    1.182    7.273    1.091    0.000    1.818 
#    0.000    3.636    0.000   44.182    0.000    0.000 
#    0.000    0.000    0.000    0.000    0.000    0.000 
#
# Total GULP energy -245082.909950 kJ/mol
# GULP energy per Si atom -5570.066135 kJ/mol
# Density = 2.462522 g / cm^3
# Si number density = 24.681394 Si / 1000 Ang^3
#
#
#
# Elastic Constant Matrix: (Units=GPa)
#
#
# Indices 1 2 3 4 5 6 
#
# 1 38.2713 43.8863 8.7288 0.0000 0.0000 0.0000
# 2 43.8863 38.2711 8.7290 0.0000 0.0000 0.0000
# 3 8.7288 8.7290 134.0809 0.0000 0.0000 0.0000
# 4 0.0000 0.0000 0.0000 20.9795 0.0000 0.0000
# 5 0.0000 0.0000 0.0000 0.0000 20.9793 0.0000
# 6 0.0000 0.0000 0.0000 0.0000 0.0000 54.4428
#
#
#
# Elastic Compliance Matrix: (Units=1/GPa)
#
#
# Indices 1 2 3 4 5 6 
#
# 1 -0.082874 0.095217 -0.000804 0.000000 0.000000 0.000000
# 2 0.095217 -0.082875 -0.000803 0.000000 0.000000 0.000000
# 3 -0.000804 -0.000803 0.007563 0.000000 0.000000 0.000000
# 4 0.000000 0.000000 0.000000 0.047666 0.000000 0.000000
# 5 0.000000 0.000000 0.000000 0.000000 0.047666 0.000000
# 6 0.000000 0.000000 0.000000 0.000000 0.000000 0.018368
#
#
# Mechanical properties :
#
#
# Convention : Reuss Voigt Hill
#
# Bulk Modulus (GPa) = 34.44271 37.03460 35.73865
# Shear Modulus (GPa) = -22.51961 29.23226 3.35633
#
# Velocity S-wave (km/s) = -3.02389 3.44522 1.16740
# Velocity P-wave (km/s) = 1.33915 5.55551 4.04086
#
# Compressibility (1/GPa) = 0.02903372
#
# Stress axis : x y z
#
# Youngs Moduli (GPa) = -12.06647 -12.06640 132.22606
#
# Poissons Ratio (x) = 1.14893 0.10626
# Poissons Ratio (y) = 1.14893 0.10623
# Poissons Ratio (z) = -0.00970 -0.00969
#
# Static dielectric constant tensor:
#      x y z
#    x 2.025990 0.000000 0.000000 
#    y 0.000000 2.026000 0.000000 
#    z 0.000000 0.000000 2.016270 
# 
# From -- ./inp_files/8072.got.cif
#   From: 2010.05.17/outbox.cif.g08.bks.cpg/sg97_5_cif.got.tgz:8072.got - 2010.06.03 19:55:32.
