data_PCOD9551812
_publ_section_title
;
Structure prediction by ZEFSAII (Michael W. Deem and Ramdas Pophale) SiO2 
 PCOD9551812
Probable space group: I 41 2 2
;
_chemical_formula_sum "Si O2"
_cell_formula_units_Z 76
_cell_length_a 30.039479
_cell_length_b 30.039479
_cell_length_c 4.825147
_cell_angle_alpha 90.000000
_cell_angle_beta 90.000000
_cell_angle_gamma 90.000000
_cell_volume 4354.069339
_symmetry_space_group_name_H-M "I 41 2 2"
_symmetry_group_IT_number 98
_symmetry_cell_setting 'tetragonal'
loop_
_space_group_symop_operation_xyz
x,y,z
-y,1/2+x,1/4+z
-x,-y,z
y,1/2-x,1/4+z
x,1/2-y,1/4-z
-x,1/2+y,1/4-z
y,x,-z
-y,-x,-z
1/2+x,1/2+y,1/2+z
1/2-y,x,3/4+z
1/2-x,1/2-y,1/2+z
1/2+y,-x,3/4+z
1/2+x,-y,3/4-z
1/2-x,y,3/4-z
1/2+y,1/2+x,1/2-z
1/2-y,1/2-x,1/2-z
loop_
_atom_site_type_symbol
_atom_site_label
_atom_site_fract_x
_atom_site_fract_y
_atom_site_fract_z
Si Si1 0.088168 0.088168 0.000000
Si Si2 0.199297 0.496326 0.888693
Si Si3 0.452347 0.952347 0.750000
Si Si4 0.370803 0.129198 0.250000
Si Si5 0.364843 0.996853 0.902109
Si Si6 0.000000 0.000000 0.500000
Si Si7 0.399456 0.220983 0.356774
O O1 0.121764 0.093730 0.256948
O O2 0.103252 0.041334 0.861430
O O3 0.160454 0.513665 0.686357
O O4 0.206877 0.446343 0.775909
O O5 0.250000 0.515949 0.875000
O O6 0.176055 0.497175 0.187559
O O7 0.460274 0.901536 0.667756
O O8 0.463131 0.985778 0.487266
O O9 0.374664 0.175427 0.407837
O O10 0.406962 0.250000 0.625000
O O11 0.375084 0.250000 0.125000
#
# Coordination Sequence:
#
# PCOD9551812 Si02
#       7
#     8  16   8   8  16   4  16
#     4  12  20  33  50  78 103 138 170 220 258 321
#     4  11  22  37  55  78 106 138 176 233 278 320
#     4  11  24  36  58  74 112 158 188 230 263 324
#     4  12  22  35  52  79  97 128 164 215 282 327
#     4  12  22  37  54  80 110 143 187 223 274 322
#     4  10  20  40  48  78 108 154 192 224 266 302
#     4  11  21  36  54  75 100 126 164 216 277 337
#
# _framework density 17.454936
#
# number of rings (size 3 to 8) (size 9 to 14) (size 15 to 20)
#    0.000    0.632    4.211    6.947    0.000    1.684 
#    0.000    0.000    0.000    1.263    0.000    0.000 
#    0.000    0.000    0.000    0.000    0.000   29.474 
#
# Total GULP energy -211556.077634 kJ/mol
# GULP energy per Si atom -5567.265201 kJ/mol
# Density = 1.741521 g / cm^3
# Si number density = 17.454936 Si / 1000 Ang^3
#
#
#
# Elastic Constant Matrix: (Units=GPa)
#
#
# Indices 1 2 3 4 5 6 
#
# 1 47.3987 35.7005 -2.7827 0.0000 0.0000 0.0000
# 2 35.7005 47.3990 -2.7827 0.0000 0.0000 0.0000
# 3 -2.7827 -2.7827 69.3688 0.0000 0.0000 0.0000
# 4 0.0000 0.0000 0.0000 15.4838 0.0000 0.0000
# 5 0.0000 0.0000 0.0000 0.0000 15.4822 0.0000
# 6 0.0000 0.0000 0.0000 0.0000 0.0000 8.5853
#
#
#
# Elastic Compliance Matrix: (Units=1/GPa)
#
#
# Indices 1 2 3 4 5 6 
#
# 1 0.048774 -0.036708 0.000484 0.000000 0.000000 0.000000
# 2 -0.036708 0.048774 0.000484 0.000000 0.000000 0.000000
# 3 0.000484 0.000484 0.014455 0.000000 0.000000 0.000000
# 4 0.000000 0.000000 0.000000 0.064584 0.000000 0.000000
# 5 0.000000 0.000000 0.000000 0.000000 0.064590 0.000000
# 6 0.000000 0.000000 0.000000 0.000000 0.000000 0.116478
#
#
# Mechanical properties :
#
#
# Convention : Reuss Voigt Hill
#
# Bulk Modulus (GPa) = 24.67730 24.93741 24.80736
# Shear Modulus (GPa) = 11.29583 16.84571 14.07077
#
# Velocity S-wave (km/s) = 2.54666 3.10997 2.84231
# Velocity P-wave (km/s) = 4.77658 5.21667 5.00147
#
# Compressibility (1/GPa) = 0.04052306
#
# Stress axis : x y z
#
# Youngs Moduli (GPa) = 20.50269 20.50282 69.18245
#
# Poissons Ratio (x) = 0.75261 -0.03348
# Poissons Ratio (y) = 0.75261 -0.03349
# Poissons Ratio (z) = -0.00992 -0.00992
#
# Static dielectric constant tensor:
#      x y z
#    x 1.673680 0.000000 0.000000 
#    y 0.000000 1.673680 0.000000 
#    z 0.000000 0.000000 1.664030 
# 
# From -- ./inp_files/1904.got.cif
#   From: 2010.05.17/outbox.cif.g08.bks.cpg/sg98_1_cif.got.tgz:1904.got - 2010.06.03 20:00:51.
