data_PCOD9551111
_publ_section_title
;
Structure prediction by ZEFSAII (Michael W. Deem and Ramdas Pophale) SiO2 
 PCOD9551111
Probable space group: P 43 21 2
;
_chemical_formula_sum "Si O2"
_cell_formula_units_Z 40
_cell_length_a 15.275440
_cell_length_b 15.275440
_cell_length_c 7.262573
_cell_angle_alpha 90.000000
_cell_angle_beta 90.000000
_cell_angle_gamma 90.000000
_cell_volume 1694.642009
_symmetry_space_group_name_H-M "P 43 21 2"
_symmetry_group_IT_number 96
_symmetry_cell_setting 'tetragonal'
loop_
_space_group_symop_operation_xyz
x,y,z
1/2-y,1/2+x,3/4+z
-x,-y,1/2+z
1/2+y,1/2-x,1/4+z
1/2+x,1/2-y,1/4-z
1/2-x,1/2+y,3/4-z
y,x,-z
-y,-x,1/2-z
loop_
_atom_site_type_symbol
_atom_site_label
_atom_site_fract_x
_atom_site_fract_y
_atom_site_fract_z
Si Si1 0.568019 0.103375 0.559400
Si Si2 0.347524 0.196101 0.998423
Si Si3 0.074996 0.203719 0.107874
Si Si4 0.494659 0.727223 0.265993
Si Si5 0.916278 0.062388 0.468504
O O1 0.479223 0.082691 0.444308
O O2 0.654996 0.118473 0.437902
O O3 0.552785 0.198877 0.650854
O O4 0.276983 0.276983 0.000000
O O5 0.300227 0.111956 0.908138
O O6 0.429929 0.223278 0.879178
O O7 0.067735 0.185054 0.325997
O O8 0.983828 0.177446 0.010633
O O9 0.145112 0.145112 0.000000
O O10 0.547544 0.646539 0.174892
O O11 0.916247 0.083754 0.250000
O O12 0.986764 0.986764 0.500000
#
# Coordination Sequence:
#
# PCOD9551111 Si02
#       5
#     8   8   8   8   8
#     4  12  26  45  69  96 131 182 234 284 344 418
#     4  11  23  42  66  94 130 170 218 284 348 403
#     4   9  19  38  62  90 130 176 216 268 346 420
#     4  11  22  40  65  96 129 169 226 284 336 403
#     4   9  19  35  59  90 127 167 208 260 332 412
#
# _framework density 23.603807
#
# number of rings (size 3 to 8) (size 9 to 14) (size 15 to 20)
#    0.000    1.600    0.000    5.400    0.000    8.000 
#    0.000    7.000    0.000    0.000    0.000    0.000 
#    0.000    0.000    0.000    0.000    0.000    0.000 
#
# Total GULP energy -223273.088004 kJ/mol
# GULP energy per Si atom -5581.827200 kJ/mol
# Density = 2.355008 g / cm^3
# Si number density = 23.603807 Si / 1000 Ang^3
#
#
#
# Elastic Constant Matrix: (Units=GPa)
#
#
# Indices 1 2 3 4 5 6 
#
# 1 100.4087 31.8239 16.1658 0.0000 0.0000 0.0000
# 2 31.8239 100.4085 16.1656 0.0000 0.0000 0.0000
# 3 16.1658 16.1656 34.0014 0.0000 0.0000 0.0000
# 4 0.0000 0.0000 0.0000 43.3300 0.0000 0.0000
# 5 0.0000 0.0000 0.0000 0.0000 43.3300 0.0000
# 6 0.0000 0.0000 0.0000 0.0000 0.0000 70.9955
#
#
#
# Elastic Compliance Matrix: (Units=1/GPa)
#
#
# Indices 1 2 3 4 5 6 
#
# 1 0.011569 -0.003012 -0.004068 0.000000 0.000000 0.000000
# 2 -0.003012 0.011569 -0.004068 0.000000 0.000000 0.000000
# 3 -0.004068 -0.004068 0.033279 0.000000 0.000000 0.000000
# 4 0.000000 0.000000 0.000000 0.023079 0.000000 0.000000
# 5 0.000000 0.000000 0.000000 0.000000 0.023079 0.000000
# 6 0.000000 0.000000 0.000000 0.000000 0.000000 0.014085
#
#
# Mechanical properties :
#
#
# Convention : Reuss Voigt Hill
#
# Bulk Modulus (GPa) = 29.30854 40.34768 34.82811
# Shear Modulus (GPa) = 33.26017 42.90866 38.08441
#
# Velocity S-wave (km/s) = 3.75787 4.26827 4.02118
# Velocity P-wave (km/s) = 5.59219 6.43597 6.02886
#
# Compressibility (1/GPa) = 0.03411975
#
# Stress axis : x y z
#
# Youngs Moduli (GPa) = 86.43902 86.43903 30.04884
#
# Poissons Ratio (x) = 0.26032 0.12225
# Poissons Ratio (y) = 0.26032 0.12225
# Poissons Ratio (z) = 0.35168 0.35167
#
# Static dielectric constant tensor:
#      x y z
#    x 1.964780 0.000000 0.000000 
#    y 0.000000 1.964780 0.000000 
#    z 0.000000 0.000000 1.997330 
# 
# From -- ./inp_files/1335.got.cif
#   From: 2010.05.17/outbox.cif.g08.bks.cpg/sg96_1_cif.got.tgz:1335.got - 2010.06.03 19:52:08.
