data_PCOD9551273
_publ_section_title
;
Structure prediction by ZEFSAII (Michael W. Deem and Ramdas Pophale) SiO2 
 PCOD9551273
Probable space group: I 4 2 2 
;
_chemical_formula_sum "Si O2"
_cell_formula_units_Z 112
_cell_length_a 16.693793
_cell_length_b 16.693793
_cell_length_c 21.108718
_cell_angle_alpha 90.000000
_cell_angle_beta 90.000000
_cell_angle_gamma 90.000000
_cell_volume 5882.635048
_symmetry_space_group_name_H-M "I 4 2 2 "
_symmetry_group_IT_number 97
_symmetry_cell_setting 'tetragonal'
loop_
_space_group_symop_operation_xyz
x,y,z
-y,x,z
-x,-y,z
y,-x,z
x,-y,-z
-x,y,-z
y,x,-z
-y,-x,-z
1/2+x,1/2+y,1/2+z
1/2-y,1/2+x,1/2+z
1/2-x,1/2-y,1/2+z
1/2+y,1/2-x,1/2+z
1/2+x,1/2-y,1/2-z
1/2-x,1/2+y,1/2-z
1/2+y,1/2+x,1/2-z
1/2-y,1/2-x,1/2-z
loop_
_atom_site_type_symbol
_atom_site_label
_atom_site_fract_x
_atom_site_fract_y
_atom_site_fract_z
Si Si1 0.846617 0.767273 0.787772
Si Si2 0.003438 0.866414 0.928961
Si Si3 0.596098 0.996112 0.610470
Si Si4 0.168671 0.402978 0.445225
Si Si5 0.596944 0.177865 0.582829
Si Si6 0.161097 0.522567 0.240772
Si Si7 0.917148 0.759653 0.168610
O O1 0.773964 0.726037 0.750000
O O2 0.868487 0.726208 0.856670
O O3 0.921412 0.739792 0.744185
O O4 0.820862 0.859042 0.795567
O O5 0.015231 0.811420 0.868146
O O6 0.925282 0.920792 0.926191
O O7 0.000000 0.829934 0.000000
O O8 0.620700 0.085598 0.592525
O O9 0.640558 0.979226 0.676085
O O10 0.500000 0.000000 0.620736
O O11 0.613449 0.925594 0.561367
O O12 0.202335 0.375874 0.512652
O O13 0.173794 0.499501 0.429225
O O14 0.219855 0.366387 0.388313
O O15 0.085018 0.585018 0.250000
O O16 0.186488 0.456816 0.292713
#
# Coordination Sequence:
#
# PCOD9551273 Si02
#       7
#    16  16  16  16  16  16  16
#     4  11  23  40  55  81 118 160 196 237 306 358
#     4   9  20  37  57  81 112 155 203 244 287 351
#     4  10  19  36  57  79 110 151 196 239 277 346
#     4  10  22  31  58  88 108 144 199 241 286 345
#     4  10  19  39  55  79 118 150 186 240 300 344
#     4  11  21  40  58  80 113 160 191 243 296 336
#     4  12  24  34  57  85 119 149 201 248 289 356
#
# _framework density 19.039086999999999
#
# number of rings (size 3 to 8) (size 9 to 14) (size 15 to 20)
#    0.000    1.571    4.286    2.571    4.000    4.857 
#    0.000    0.000    0.000    0.000    0.000    0.000 
#    0.000    0.000    0.000    0.000    0.000    4.286 
#
# Total GULP energy -311791.640128 kJ/mol
# GULP energy per Si atom -5567.707859 kJ/mol
# Density = 1.899575 g / cm^3
# Si number density = 19.039087 Si / 1000 Ang^3
#
#
#
# Elastic Constant Matrix: (Units=GPa)
#
#
# Indices 1 2 3 4 5 6 
#
# 1 76.5543 13.2384 26.4673 0.0000 0.0000 0.0000
# 2 13.2384 76.5540 26.4674 0.0000 0.0000 0.0000
# 3 26.4673 26.4674 102.4063 0.0000 0.0000 0.0000
# 4 0.0000 0.0000 0.0000 19.7711 0.0000 0.0000
# 5 0.0000 0.0000 0.0000 0.0000 19.7712 0.0000
# 6 0.0000 0.0000 0.0000 0.0000 0.0000 2.8640
#
#
#
# Elastic Compliance Matrix: (Units=1/GPa)
#
#
# Indices 1 2 3 4 5 6 
#
# 1 0.014466 -0.001328 -0.003396 0.000000 0.000000 0.000000
# 2 -0.001328 0.014466 -0.003396 0.000000 0.000000 0.000000
# 3 -0.003396 -0.003396 0.011520 0.000000 0.000000 0.000000
# 4 0.000000 0.000000 0.000000 0.050579 0.000000 0.000000
# 5 0.000000 0.000000 0.000000 0.000000 0.050579 0.000000
# 6 0.000000 0.000000 0.000000 0.000000 0.000000 0.349157
#
#
# Mechanical properties :
#
#
# Convention : Reuss Voigt Hill
#
# Bulk Modulus (GPa) = 41.29734 43.09566 42.19650
# Shear Modulus (GPa) = 9.70728 21.10404 15.40566
#
# Velocity S-wave (km/s) = 2.26046 3.33296 2.84766
# Velocity P-wave (km/s) = 5.34330 6.12340 5.74660
#
# Compressibility (1/GPa) = 0.02421463
#
# Stress axis : x y z
#
# Youngs Moduli (GPa) = 69.12662 69.12626 86.80323
#
# Poissons Ratio (x) = 0.09177 0.29476
# Poissons Ratio (y) = 0.09177 0.29476
# Poissons Ratio (z) = 0.23473 0.23474
#
# Static dielectric constant tensor:
#      x y z
#    x 1.711930 0.000000 0.000000 
#    y 0.000000 1.711940 0.000000 
#    z 0.000000 0.000000 1.747060 
# 
# From -- ./inp_files/6806.got.cif
#   From: 2010.05.17/outbox.cif.g08.bks.cpg/sg97_4_cif.got.tgz:6806.got - 2010.06.03 19:55:32.
