data_PCOD9551738
_publ_section_title
;
Structure prediction by ZEFSAII (Michael W. Deem and Ramdas Pophale) SiO2 
 PCOD9551738
Probable space group: I 41 2 2
;
_chemical_formula_sum "Si O2"
_cell_formula_units_Z 96
_cell_length_a 22.596488
_cell_length_b 22.596488
_cell_length_c 12.289457
_cell_angle_alpha 90.000000
_cell_angle_beta 90.000000
_cell_angle_gamma 90.000000
_cell_volume 6275.012351
_symmetry_space_group_name_H-M "I 41 2 2"
_symmetry_group_IT_number 98
_symmetry_cell_setting 'tetragonal'
loop_
_space_group_symop_operation_xyz
x,y,z
-y,1/2+x,1/4+z
-x,-y,z
y,1/2-x,1/4+z
x,1/2-y,1/4-z
-x,1/2+y,1/4-z
y,x,-z
-y,-x,-z
1/2+x,1/2+y,1/2+z
1/2-y,x,3/4+z
1/2-x,1/2-y,1/2+z
1/2+y,-x,3/4+z
1/2+x,-y,3/4-z
1/2-x,y,3/4-z
1/2+y,1/2+x,1/2-z
1/2-y,1/2-x,1/2-z
loop_
_atom_site_type_symbol
_atom_site_label
_atom_site_fract_x
_atom_site_fract_y
_atom_site_fract_z
Si Si1 0.869952 0.036696 0.240615
Si Si2 0.554552 0.547672 0.874860
Si Si3 0.449174 0.651453 0.500467
Si Si4 0.143085 0.715196 0.516571
Si Si5 0.978512 0.371696 0.017243
Si Si6 0.272822 0.889093 0.042452
O O1 0.850495 0.020136 0.117769
O O2 0.820799 0.081888 0.285892
O O3 0.929032 0.076588 0.229477
O O4 0.889396 0.983974 0.318990
O O5 0.500000 0.500000 0.875772
O O6 0.532186 0.602119 0.801409
O O7 0.564572 0.564572 0.000000
O O8 0.402115 0.597885 0.500000
O O9 0.489575 0.644749 0.606769
O O10 0.410741 0.711373 0.508903
O O11 0.159645 0.750000 0.625000
O O12 0.131355 0.757397 0.414639
O O13 0.192690 0.665999 0.488995
O O14 0.944916 0.316895 0.961466
#
# Coordination Sequence:
#
# PCOD9551738 Si02
#       6
#    16  16  16  16  16  16
#     4   8  17  30  42  60  81 104 138 182 226 263
#     4   9  17  28  44  63  79 101 132 177 227 273
#     4   9  17  30  44  59  85 113 145 184 219 259
#     4  10  20  31  44  60  85 119 155 196 227 262
#     4   9  17  28  44  62  78 107 140 177 224 266
#     4  10  20  31  42  62  84 117 154 191 226 257
#
# _framework density 15.298774999999999
#
# number of rings (size 3 to 8) (size 9 to 14) (size 15 to 20)
#    0.000    2.833    0.000    2.000    2.333    2.000 
#    0.000    5.000    0.000    0.000    0.000    0.000 
#    0.000    0.000    0.000    0.000    0.000   40.000 
#
# Total GULP energy -267315.779840 kJ/mol
# GULP energy per Si atom -5569.078747 kJ/mol
# Density = 1.526395 g / cm^3
# Si number density = 15.298775 Si / 1000 Ang^3
#
#
#
# Elastic Constant Matrix: (Units=GPa)
#
#
# Indices 1 2 3 4 5 6 
#
# 1 28.3245 28.2800 35.5389 0.0000 0.0000 0.0000
# 2 28.2800 28.3219 35.5384 0.0000 0.0000 0.0000
# 3 35.5389 35.5384 100.0876 0.0000 0.0000 0.0000
# 4 0.0000 0.0000 0.0000 20.2747 0.0000 0.0000
# 5 0.0000 0.0000 0.0000 0.0000 20.2747 0.0000
# 6 0.0000 0.0000 0.0000 0.0000 0.0000 21.4469
#
#
#
# Elastic Compliance Matrix: (Units=1/GPa)
#
#
# Indices 1 2 3 4 5 6 
#
# 1 11.587058-11.556004 -0.011085 0.000000 0.000000 0.000000
# 2 -11.556004 11.588715 -0.011556 0.000000 0.000000 0.000000
# 3 -0.011085 -0.011556 0.018031 0.000000 0.000000 0.000000
# 4 0.000000 0.000000 0.000000 0.049323 0.000000 0.000000
# 5 0.000000 0.000000 0.000000 0.000000 0.049323 0.000000
# 6 0.000000 0.000000 0.000000 0.000000 0.000000 0.046627
#
#
# Mechanical properties :
#
#
# Convention : Reuss Voigt Hill
#
# Bulk Modulus (GPa) = 27.38776 39.49432 33.44104
# Shear Modulus (GPa) = 0.10751 16.22437 8.16594
#
# Velocity S-wave (km/s) = 0.26538 3.26007 2.31284
# Velocity P-wave (km/s) = 4.24673 6.32788 5.38873
#
# Compressibility (1/GPa) = 0.03651267
#
# Stress axis : x y z
#
# Youngs Moduli (GPa) = 0.08630 0.08629 55.46124
#
# Poissons Ratio (x) = 0.99718 0.61479
# Poissons Ratio (y) = 0.99732 0.64092
# Poissons Ratio (z) = 0.00096 0.00100
#
# Static dielectric constant tensor:
#      x y z
#    x 1.500120 0.000000 0.000000 
#    y 0.000000 1.500120 0.000000 
#    z 0.000000 0.000000 1.552700 
# 
# From -- ./inp_files/5324.got.cif
#   From: 2010.05.17/outbox.cif.g08.bks.cpg/sg98_3_cif.got.tgz:5324.got - 2010.06.03 20:00:51.
