data_PCOD9551867
_publ_section_title
;
Structure prediction by ZEFSAII (Michael W. Deem and Ramdas Pophale) SiO2 
 PCOD9551867
Probable space group: I 41 2 2
;
_chemical_formula_sum "Si O2"
_cell_formula_units_Z 76
_cell_length_a 13.503847
_cell_length_b 13.503847
_cell_length_c 20.483314
_cell_angle_alpha 90.000000
_cell_angle_beta 90.000000
_cell_angle_gamma 90.000000
_cell_volume 3735.211861
_symmetry_space_group_name_H-M "I 41 2 2"
_symmetry_group_IT_number 98
_symmetry_cell_setting 'tetragonal'
loop_
_space_group_symop_operation_xyz
x,y,z
-y,1/2+x,1/4+z
-x,-y,z
y,1/2-x,1/4+z
x,1/2-y,1/4-z
-x,1/2+y,1/4-z
y,x,-z
-y,-x,-z
1/2+x,1/2+y,1/2+z
1/2-y,x,3/4+z
1/2-x,1/2-y,1/2+z
1/2+y,-x,3/4+z
1/2+x,-y,3/4-z
1/2-x,y,3/4-z
1/2+y,1/2+x,1/2-z
1/2-y,1/2-x,1/2-z
loop_
_atom_site_type_symbol
_atom_site_label
_atom_site_fract_x
_atom_site_fract_y
_atom_site_fract_z
Si Si1 0.171717 0.013204 0.246153
Si Si2 0.500000 0.000000 0.750000
Si Si3 0.868163 0.869253 0.361091
Si Si4 0.885669 0.885669 0.500000
Si Si5 0.492365 0.316174 0.402084
Si Si6 0.797759 0.312243 0.558496
O O1 0.102818 0.073177 0.295647
O O2 0.271317 0.080719 0.244002
O O3 0.142098 0.995465 0.171487
O O4 0.191813 0.908879 0.280894
O O5 0.596025 0.994774 0.703796
O O6 0.750000 0.875866 0.375000
O O7 0.915480 0.917687 0.426687
O O8 0.896750 0.754909 0.350217
O O9 0.580279 0.241176 0.421090
O O10 0.791186 0.250000 0.625000
O O11 0.730584 0.269417 0.500000
#
# Coordination Sequence:
#
# PCOD9551867 Si02
#       6
#    16   4  16   8  16  16
#     4  10  21  41  66  98 131 169 212 269 332 401
#     4  12  28  46  60  88 122 176 242 280 312 384
#     4   9  19  39  66  97 130 163 207 272 330 393
#     4   8  16  35  63  92 133 161 198 258 324 390
#     4  11  25  42  64  91 126 171 225 273 329 390
#     4  12  23  42  66  93 131 176 210 265 327 394
#
# _framework density 20.346903999999999
#
# number of rings (size 3 to 8) (size 9 to 14) (size 15 to 20)
#    0.000    1.684    3.158    1.895    0.000    7.579 
#    0.000    3.684    0.000    0.000    0.000    0.000 
#    0.000    0.000    0.000    0.000    0.000    0.000 
#
# Total GULP energy -211646.849139 kJ/mol
# GULP energy per Si atom -5569.653925 kJ/mol
# Density = 2.030059 g / cm^3
# Si number density = 20.346904 Si / 1000 Ang^3
#
#
#
# Elastic Constant Matrix: (Units=GPa)
#
#
# Indices 1 2 3 4 5 6 
#
# 1 23.6000 59.6617 42.3415 0.0000 0.0000 0.0000
# 2 59.6617 23.6007 42.3440 0.0000 0.0000 0.0000
# 3 42.3415 42.3440 208.2152 0.0000 0.0000 0.0000
# 4 0.0000 0.0000 0.0000 27.5899 0.0000 0.0000
# 5 0.0000 0.0000 0.0000 0.0000 27.5899 0.0000
# 6 0.0000 0.0000 0.0000 0.0000 0.0000 28.6515
#
#
#
# Elastic Compliance Matrix: (Units=1/GPa)
#
#
# Indices 1 2 3 4 5 6 
#
# 1 -0.006294 0.021436 -0.003080 0.000000 0.000000 0.000000
# 2 0.021436 -0.006294 -0.003079 0.000000 0.000000 0.000000
# 3 -0.003080 -0.003079 0.006055 0.000000 0.000000 0.000000
# 4 0.000000 0.000000 0.000000 0.036245 0.000000 0.000000
# 5 0.000000 0.000000 0.000000 0.000000 0.036245 0.000000
# 6 0.000000 0.000000 0.000000 0.000000 0.000000 0.034902
#
#
# Mechanical properties :
#
#
# Convention : Reuss Voigt Hill
#
# Bulk Modulus (GPa) = 41.62793 60.45667 51.04230
# Shear Modulus (GPa) = 63.84772 24.17084 44.00928
#
# Velocity S-wave (km/s) = 5.60782 3.45039 4.65580
# Velocity P-wave (km/s) = 7.90150 6.75655 7.35135
#
# Compressibility (1/GPa) = 0.02402233
#
# Stress axis : x y z
#
# Youngs Moduli (GPa) = -158.87959 -158.87634 165.14854
#
# Poissons Ratio (x) = 3.40574 0.50858
# Poissons Ratio (y) = 3.40581 0.50852
# Poissons Ratio (z) = -0.48927 -0.48921
#
# Static dielectric constant tensor:
#      x y z
#    x 1.720150 0.000000 0.000000 
#    y 0.000000 1.720150 0.000000 
#    z 0.000000 0.000000 1.766590 
# 
# From -- ./inp_files/8747.got.cif
#   From: 2010.05.17/outbox.cif.g08.bks.cpg/sg98_5_cif.got.tgz:8747.got - 2010.06.03 20:00:51.
