data_PCOD9551992
_publ_section_title
;
Structure prediction by ZEFSAII (Michael W. Deem and Ramdas Pophale) SiO2 
 PCOD9551992
Probable space group: I 41 2 2
;
_chemical_formula_sum "Si O2"
_cell_formula_units_Z 64
_cell_length_a 10.635931
_cell_length_b 10.635931
_cell_length_c 25.438228
_cell_angle_alpha 90.000000
_cell_angle_beta 90.000000
_cell_angle_gamma 90.000000
_cell_volume 2877.649384
_symmetry_space_group_name_H-M "I 41 2 2"
_symmetry_group_IT_number 98
_symmetry_cell_setting 'tetragonal'
loop_
_space_group_symop_operation_xyz
x,y,z
-y,1/2+x,1/4+z
-x,-y,z
y,1/2-x,1/4+z
x,1/2-y,1/4-z
-x,1/2+y,1/4-z
y,x,-z
-y,-x,-z
1/2+x,1/2+y,1/2+z
1/2-y,x,3/4+z
1/2-x,1/2-y,1/2+z
1/2+y,-x,3/4+z
1/2+x,-y,3/4-z
1/2-x,y,3/4-z
1/2+y,1/2+x,1/2-z
1/2-y,1/2-x,1/2-z
loop_
_atom_site_type_symbol
_atom_site_label
_atom_site_fract_x
_atom_site_fract_y
_atom_site_fract_z
Si Si1 0.280953 0.033129 0.220943
Si Si2 0.676593 0.119886 0.015625
Si Si3 0.139405 0.445477 0.417023
Si Si4 0.604644 0.394417 0.876618
O O1 0.388362 0.111639 0.250000
O O2 0.200081 0.121382 0.182382
O O3 0.186148 0.960779 0.259816
O O4 0.333418 0.924690 0.182787
O O5 0.675192 0.012565 0.971859
O O6 0.783452 0.216549 0.000000
O O7 0.694486 0.083875 0.076222
O O8 0.250000 0.466258 0.375000
O O9 0.000000 0.500000 0.401683
O O10 0.500000 0.500000 0.870946
O O11 0.750000 0.434610 0.875000
#
# Coordination Sequence:
#
# PCOD9551992 Si02
#       4
#    16  16  16  16
#     4  11  25  45  70 103 147 183 239 309 382 452
#     4  11  24  43  69  98 139 184 245 293 370 450
#     4  10  25  46  71 100 144 194 247 311 377 455
#     4  12  25  42  72 108 143 193 245 310 380 454
#
# _framework density 22.240375
#
# number of rings (size 3 to 8) (size 9 to 14) (size 15 to 20)
#    0.000    1.000    2.500    3.750    7.000    5.000 
#    0.000    0.000    0.000    0.000    0.000    0.000 
#    0.000    0.000    0.000    0.000    0.000    0.000 
#
# Total GULP energy -178947.111068 kJ/mol
# GULP energy per Si atom -5592.097221 kJ/mol
# Density = 2.218975 g / cm^3
# Si number density = 22.240375 Si / 1000 Ang^3
#
#
#
# Elastic Constant Matrix: (Units=GPa)
#
#
# Indices 1 2 3 4 5 6 
#
# 1 72.6830 59.5048 41.5062 0.0000 0.0000 0.0000
# 2 59.5048 72.6840 41.5054 0.0000 0.0000 0.0000
# 3 41.5062 41.5054 129.2529 0.0000 0.0000 0.0000
# 4 0.0000 0.0000 0.0000 36.6321 0.0000 0.0000
# 5 0.0000 0.0000 0.0000 0.0000 36.6306 0.0000
# 6 0.0000 0.0000 0.0000 0.0000 0.0000 16.4928
#
#
#
# Elastic Compliance Matrix: (Units=1/GPa)
#
#
# Indices 1 2 3 4 5 6 
#
# 1 0.042678 -0.033202 -0.003043 0.000000 0.000000 0.000000
# 2 -0.033202 0.042677 -0.003042 0.000000 0.000000 0.000000
# 3 -0.003043 -0.003042 0.009691 0.000000 0.000000 0.000000
# 4 0.000000 0.000000 0.000000 0.027298 0.000000 0.000000
# 5 0.000000 0.000000 0.000000 0.000000 0.027300 0.000000
# 6 0.000000 0.000000 0.000000 0.000000 0.000000 0.060633
#
#
# Mechanical properties :
#
#
# Convention : Reuss Voigt Hill
#
# Bulk Modulus (GPa) = 60.71214 62.18361 61.44788
# Shear Modulus (GPa) = 16.98697 26.75801 21.87249
#
# Velocity S-wave (km/s) = 2.76667 3.47238 3.13942
# Velocity P-wave (km/s) = 6.12890 6.64056 6.38985
#
# Compressibility (1/GPa) = 0.01647117
#
# Stress axis : x y z
#
# Youngs Moduli (GPa) = 23.43106 23.43163 103.18807
#
# Poissons Ratio (x) = 0.77798 0.31403
# Poissons Ratio (y) = 0.77796 0.31395
# Poissons Ratio (z) = 0.07131 0.07129
#
# Static dielectric constant tensor:
#      x y z
#    x 1.848360 0.000000 0.000000 
#    y 0.000000 1.848360 0.000000 
#    z 0.000000 0.000000 2.086310 
# 
# From -- ./inp_files/8554.got.cif
#   From: 2010.05.17/outbox.cif.g08.bks.cpg/sg98_5_cif.got.tgz:8554.got - 2010.06.03 20:00:51.
