data_PCOD9551329
_publ_section_title
;
Structure prediction by ZEFSAII (Michael W. Deem and Ramdas Pophale) SiO2 
 PCOD9551329
Probable space group: I 4 2 2 
;
_chemical_formula_sum "Si O2"
_cell_formula_units_Z 96
_cell_length_a 23.306106
_cell_length_b 23.306106
_cell_length_c 9.435604
_cell_angle_alpha 90.000000
_cell_angle_beta 90.000000
_cell_angle_gamma 90.000000
_cell_volume 5125.180210
_symmetry_space_group_name_H-M "I 4 2 2 "
_symmetry_group_IT_number 97
_symmetry_cell_setting 'tetragonal'
loop_
_space_group_symop_operation_xyz
x,y,z
-y,x,z
-x,-y,z
y,-x,z
x,-y,-z
-x,y,-z
y,x,-z
-y,-x,-z
1/2+x,1/2+y,1/2+z
1/2-y,1/2+x,1/2+z
1/2-x,1/2-y,1/2+z
1/2+y,1/2-x,1/2+z
1/2+x,1/2-y,1/2-z
1/2-x,1/2+y,1/2-z
1/2+y,1/2+x,1/2-z
1/2-y,1/2-x,1/2-z
loop_
_atom_site_type_symbol
_atom_site_label
_atom_site_fract_x
_atom_site_fract_y
_atom_site_fract_z
Si Si1 0.397053 0.752477 0.777477
Si Si2 0.372952 0.808633 0.052027
Si Si3 0.916326 0.500563 0.329470
Si Si4 0.194296 0.214202 0.270619
Si Si5 0.982279 0.288669 0.740171
Si Si6 0.730380 0.886080 0.945582
O O1 0.377519 0.802270 0.884397
O O2 0.352242 0.701090 0.806492
O O3 0.465061 0.748673 0.804759
O O4 0.389814 0.764041 0.611926
O O5 0.337875 0.753877 0.114160
O O6 0.435743 0.804485 0.119817
O O7 0.333999 0.863219 0.089602
O O8 0.926665 0.500000 0.500000
O O9 0.943574 0.556427 0.250000
O O10 0.849160 0.494856 0.299146
O O11 0.949348 0.449348 0.250000
O O12 0.257018 0.242983 0.250000
O O13 0.159333 0.227000 0.127103
O O14 0.945708 0.260908 0.866564
#
# Coordination Sequence:
#
# PCOD9551329 Si02
#       6
#    16  16  16  16  16  16
#     4  12  21  31  52  82 104 128 172 217 264 316
#     4  10  21  37  56  74 101 138 177 217 258 305
#     4  11  23  38  53  69  93 130 178 226 265 303
#     4   9  19  35  54  77 103 130 164 213 267 313
#     4  11  24  37  49  71 105 139 170 211 259 304
#     4  10  20  37  56  74 101 138 176 217 259 306
#
# _framework density 18.73105
#
# number of rings (size 3 to 8) (size 9 to 14) (size 15 to 20)
#    0.000    1.500    0.000    8.000    0.000    8.667 
#    0.000    0.000    0.000    0.000    0.000    0.000 
#    0.000   10.667    0.000   53.333    0.000   20.000 
#
# Total GULP energy -268027.535968 kJ/mol
# GULP energy per Si atom -5583.906999 kJ/mol
# Density = 1.868842 g / cm^3
# Si number density = 18.731050 Si / 1000 Ang^3
#
#
#
# Elastic Constant Matrix: (Units=GPa)
#
#
# Indices 1 2 3 4 5 6 
#
# 1 73.0503 29.7582 2.5891 0.0000 0.0000 0.0000
# 2 29.7582 73.0508 2.5894 0.0000 0.0000 0.0000
# 3 2.5891 2.5894 93.3922 0.0000 0.0000 0.0000
# 4 0.0000 0.0000 0.0000 17.8025 0.0000 0.0000
# 5 0.0000 0.0000 0.0000 0.0000 17.8025 0.0000
# 6 0.0000 0.0000 0.0000 0.0000 0.0000 16.9912
#
#
#
# Elastic Compliance Matrix: (Units=1/GPa)
#
#
# Indices 1 2 3 4 5 6 
#
# 1 0.016420 -0.006679 -0.000270 0.000000 0.000000 0.000000
# 2 -0.006679 0.016420 -0.000270 0.000000 0.000000 0.000000
# 3 -0.000270 -0.000270 0.010723 0.000000 0.000000 0.000000
# 4 0.000000 0.000000 0.000000 0.056172 0.000000 0.000000
# 5 0.000000 0.000000 0.000000 0.000000 0.056172 0.000000
# 6 0.000000 0.000000 0.000000 0.000000 0.000000 0.058854
#
#
# Mechanical properties :
#
#
# Convention : Reuss Voigt Hill
#
# Bulk Modulus (GPa) = 34.33699 34.37409 34.35554
# Shear Modulus (GPa) = 20.92877 24.15635 22.54256
#
# Velocity S-wave (km/s) = 3.34628 3.59505 3.47289
# Velocity P-wave (km/s) = 5.77074 5.96857 5.87049
#
# Compressibility (1/GPa) = 0.02912311
#
# Stress axis : x y z
#
# Youngs Moduli (GPa) = 60.90264 60.90309 93.26176
#
# Poissons Ratio (x) = 0.40678 0.02518
# Poissons Ratio (y) = 0.40678 0.02519
# Poissons Ratio (z) = 0.01644 0.01645
#
# Static dielectric constant tensor:
#      x y z
#    x 1.666360 0.000000 0.000000 
#    y 0.000000 1.666360 0.000000 
#    z 0.000000 0.000000 1.707690 
# 
# From -- ./inp_files/2465.got.cif
#   From: 2010.05.17/outbox.cif.g08.bks.cpg/sg97_2_cif.got.tgz:2465.got - 2010.06.03 19:55:32.
