data_PCOD9551299
_publ_section_title
;
Structure prediction by ZEFSAII (Michael W. Deem and Ramdas Pophale) SiO2 
 PCOD9551299
Probable space group: I 4 2 2 
;
_chemical_formula_sum "Si O2"
_cell_formula_units_Z 64
_cell_length_a 21.727985
_cell_length_b 21.727985
_cell_length_c 7.661713
_cell_angle_alpha 90.000000
_cell_angle_beta 90.000000
_cell_angle_gamma 90.000000
_cell_volume 3617.135561
_symmetry_space_group_name_H-M "I 4 2 2 "
_symmetry_group_IT_number 97
_symmetry_cell_setting 'tetragonal'
loop_
_space_group_symop_operation_xyz
x,y,z
-y,x,z
-x,-y,z
y,-x,z
x,-y,-z
-x,y,-z
y,x,-z
-y,-x,-z
1/2+x,1/2+y,1/2+z
1/2-y,1/2+x,1/2+z
1/2-x,1/2-y,1/2+z
1/2+y,1/2-x,1/2+z
1/2+x,1/2-y,1/2-z
1/2-x,1/2+y,1/2-z
1/2+y,1/2+x,1/2-z
1/2-y,1/2-x,1/2-z
loop_
_atom_site_type_symbol
_atom_site_label
_atom_site_fract_x
_atom_site_fract_y
_atom_site_fract_z
Si Si1 0.180940 0.000000 0.500000
Si Si2 0.496818 0.901868 0.295009
Si Si3 0.465943 0.230563 0.313699
Si Si4 0.726771 0.673488 0.682216
Si Si5 0.863180 0.136821 0.500000
O O1 0.220492 0.989445 0.674401
O O2 0.146390 0.935732 0.476011
O O3 0.500000 0.895553 0.500000
O O4 0.430512 0.930512 0.250000
O O5 0.516151 0.835359 0.229104
O O6 0.547404 0.952597 0.250000
O O7 0.500000 0.237479 0.500000
O O8 0.392614 0.239114 0.340498
O O9 0.696668 0.696668 0.500000
O O10 0.775397 0.724604 0.750000
O O11 0.675272 0.661381 0.831989
#
# Coordination Sequence:
#
# PCOD9551299 Si02
#       5
#     8  16  16  16   8
#     4  10  22  39  64  81 120 142 192 240 300 354
#     4  10  20  33  50  73 108 149 197 233 278 330
#     4  10  22  38  55  86 114 156 194 242 292 350
#     4  11  21  38  61  87 124 155 199 246 298 358
#     4  10  22  41  60  92 112 158 190 243 298 354
#
# _framework density 17.693559
#
# number of rings (size 3 to 8) (size 9 to 14) (size 15 to 20)
#    0.000    1.750    1.250    3.750    3.500    0.250 
#    4.500    1.250    0.000    0.000    0.000    3.500 
#    0.000    0.000    0.000    0.000    0.000    0.000 
#
# Total GULP energy -178387.356781 kJ/mol
# GULP energy per Si atom -5574.604899 kJ/mol
# Density = 1.765329 g / cm^3
# Si number density = 17.693559 Si / 1000 Ang^3
#
#
#
# Elastic Constant Matrix: (Units=GPa)
#
#
# Indices 1 2 3 4 5 6 
#
# 1 149.1321 95.6611 49.4971 0.0000 0.0000 0.0000
# 2 95.6611 149.1232 49.4917 0.0000 0.0000 0.0000
# 3 49.4971 49.4917 91.7778 0.0000 0.0000 0.0000
# 4 0.0000 0.0000 0.0000 28.1828 0.0000 0.0000
# 5 0.0000 0.0000 0.0000 0.0000 28.1819 0.0000
# 6 0.0000 0.0000 0.0000 0.0000 0.0000 19.6899
#
#
#
# Elastic Compliance Matrix: (Units=1/GPa)
#
#
# Indices 1 2 3 4 5 6 
#
# 1 0.011964 -0.006739 -0.002818 0.000000 0.000000 0.000000
# 2 -0.006739 0.011964 -0.002817 0.000000 0.000000 0.000000
# 3 -0.002818 -0.002817 0.013935 0.000000 0.000000 0.000000
# 4 0.000000 0.000000 0.000000 0.035483 0.000000 0.000000
# 5 0.000000 0.000000 0.000000 0.000000 0.035484 0.000000
# 6 0.000000 0.000000 0.000000 0.000000 0.000000 0.050787
#
#
# Mechanical properties :
#
#
# Convention : Reuss Voigt Hill
#
# Bulk Modulus (GPa) = 76.25572 86.59255 81.42413
# Shear Modulus (GPa) = 26.49197 28.23647 27.36422
#
# Velocity S-wave (km/s) = 3.87365 3.99916 3.93690
# Velocity P-wave (km/s) = 7.94975 8.38873 8.17218
#
# Compressibility (1/GPa) = 0.01311377
#
# Stress axis : x y z
#
# Youngs Moduli (GPa) = 83.58588 83.58375 71.76310
#
# Poissons Ratio (x) = 0.56330 0.20223
# Poissons Ratio (y) = 0.56332 0.20216
# Poissons Ratio (z) = 0.23554 0.23546
#
# Static dielectric constant tensor:
#      x y z
#    x 1.471810 0.000000 0.000000 
#    y 0.000000 1.471810 0.000000 
#    z 0.000000 0.000000 1.584510 
# 
# From -- ./inp_files/2144.got.cif
#   From: 2010.05.17/outbox.cif.g08.bks.cpg/sg97_2_cif.got.tgz:2144.got - 2010.06.03 19:55:32.
