data_PCOD9551985
_publ_section_title
;
Structure prediction by ZEFSAII (Michael W. Deem and Ramdas Pophale) SiO2 
 PCOD9551985
Probable space group: I 41 2 2
;
_chemical_formula_sum "Si O2"
_cell_formula_units_Z 72
_cell_length_a 17.978660
_cell_length_b 17.978660
_cell_length_c 9.612332
_cell_angle_alpha 90.000000
_cell_angle_beta 90.000000
_cell_angle_gamma 90.000000
_cell_volume 3107.015367
_symmetry_space_group_name_H-M "I 41 2 2"
_symmetry_group_IT_number 98
_symmetry_cell_setting 'tetragonal'
loop_
_space_group_symop_operation_xyz
x,y,z
-y,1/2+x,1/4+z
-x,-y,z
y,1/2-x,1/4+z
x,1/2-y,1/4-z
-x,1/2+y,1/4-z
y,x,-z
-y,-x,-z
1/2+x,1/2+y,1/2+z
1/2-y,x,3/4+z
1/2-x,1/2-y,1/2+z
1/2+y,-x,3/4+z
1/2+x,-y,3/4-z
1/2-x,y,3/4-z
1/2+y,1/2+x,1/2-z
1/2-y,1/2-x,1/2-z
loop_
_atom_site_type_symbol
_atom_site_label
_atom_site_fract_x
_atom_site_fract_y
_atom_site_fract_z
Si Si1 0.250000 0.832642 0.875000
Si Si2 0.397624 0.897624 0.250000
Si Si3 0.236986 0.448454 0.116397
Si Si4 0.750000 0.445891 0.875000
Si Si5 0.195894 0.304107 0.750000
Si Si6 0.035601 0.859231 0.218459
Si Si7 0.417648 0.082353 0.750000
O O1 0.281466 0.781466 0.750000
O O2 0.180411 0.887682 0.833258
O O3 0.403673 0.814023 0.200123
O O4 0.448396 0.905081 0.388262
O O5 0.287972 0.486738 0.232543
O O6 0.159672 0.416395 0.167100
O O7 0.214551 0.505139 0.996080
O O8 0.289128 0.387214 0.046782
O O9 0.250000 0.285775 0.875000
O O10 0.989194 0.906645 0.103551
#
# Coordination Sequence:
#
# PCOD9551985 Si02
#       7
#     8   8  16   8   8  16   8
#     4  12  30  53  86 123 154 210 284 354 420 475
#     4  10  26  48  77 108 154 204 264 331 406 476
#     4  11  23  45  72 108 152 206 260 328 384 474
#     4  10  24  49  72 103 152 198 260 326 388 477
#     4  12  23  38  68 106 150 205 271 318 381 454
#     4  11  26  49  80 117 163 205 272 334 409 497
#     4  12  23  48  79 111 164 211 252 333 407 488
#
# _framework density 23.173365
#
# number of rings (size 3 to 8) (size 9 to 14) (size 15 to 20)
#    0.000    0.889    3.333    2.000    7.778    0.000 
#    0.000    6.111    0.000    0.000    0.000    0.000 
#    0.000    0.000    0.000    0.000    0.000    0.000 
#
# Total GULP energy -201308.159971 kJ/mol
# GULP energy per Si atom -5591.893333 kJ/mol
# Density = 2.312062 g / cm^3
# Si number density = 23.173365 Si / 1000 Ang^3
#
#
#
# Elastic Constant Matrix: (Units=GPa)
#
#
# Indices 1 2 3 4 5 6 
#
# 1 114.3479 47.3796 75.6390 0.0000 0.0000 0.0000
# 2 47.3796 114.3481 75.6408 0.0000 0.0000 0.0000
# 3 75.6390 75.6408 167.7705 0.0000 0.0000 0.0000
# 4 0.0000 0.0000 0.0000 57.9357 0.0000 0.0000
# 5 0.0000 0.0000 0.0000 0.0000 57.9370 0.0000
# 6 0.0000 0.0000 0.0000 0.0000 0.0000 77.5997
#
#
#
# Elastic Compliance Matrix: (Units=1/GPa)
#
#
# Indices 1 2 3 4 5 6 
#
# 1 0.012812 -0.002120 -0.004821 0.000000 0.000000 0.000000
# 2 -0.002120 0.012813 -0.004821 0.000000 0.000000 0.000000
# 3 -0.004821 -0.004821 0.010307 0.000000 0.000000 0.000000
# 4 0.000000 0.000000 0.000000 0.017261 0.000000 0.000000
# 5 0.000000 0.000000 0.000000 0.000000 0.017260 0.000000
# 6 0.000000 0.000000 0.000000 0.000000 0.000000 0.012887
#
#
# Mechanical properties :
#
#
# Convention : Reuss Voigt Hill
#
# Bulk Modulus (GPa) = 80.58349 88.19837 84.39093
# Shear Modulus (GPa) = 45.04532 51.88161 48.46347
#
# Velocity S-wave (km/s) = 4.41368 4.73678 4.57808
# Velocity P-wave (km/s) = 7.79896 8.24978 8.02754
#
# Compressibility (1/GPa) = 0.01240949
#
# Stress axis : x y z
#
# Youngs Moduli (GPa) = 78.04936 78.04803 97.01697
#
# Poissons Ratio (x) = 0.16545 0.46769
# Poissons Ratio (y) = 0.16546 0.46771
# Poissons Ratio (z) = 0.37625 0.37626
#
# Static dielectric constant tensor:
#      x y z
#    x 1.861940 0.000000 0.000000 
#    y 0.000000 1.861940 0.000000 
#    z 0.000000 0.000000 1.916740 
# 
# From -- ./inp_files/3525.got.cif
#   From: 2010.05.17/outbox.cif.g08.bks.cpg/sg98_2_cif.got.tgz:3525.got - 2010.06.03 20:00:51.
