data_PCOD9551620
_publ_section_title
;
Structure prediction by ZEFSAII (Michael W. Deem and Ramdas Pophale) SiO2 
 PCOD9551620
Probable space group: I 4 2 2 
;
_chemical_formula_sum "Si O2"
_cell_formula_units_Z 80
_cell_length_a 11.191599
_cell_length_b 11.191599
_cell_length_c 33.939820
_cell_angle_alpha 90.000000
_cell_angle_beta 90.000000
_cell_angle_gamma 90.000000
_cell_volume 4251.026539
_symmetry_space_group_name_H-M "I 4 2 2 "
_symmetry_group_IT_number 97
_symmetry_cell_setting 'tetragonal'
loop_
_space_group_symop_operation_xyz
x,y,z
-y,x,z
-x,-y,z
y,-x,z
x,-y,-z
-x,y,-z
y,x,-z
-y,-x,-z
1/2+x,1/2+y,1/2+z
1/2-y,1/2+x,1/2+z
1/2-x,1/2-y,1/2+z
1/2+y,1/2-x,1/2+z
1/2+x,1/2-y,1/2-z
1/2-x,1/2+y,1/2-z
1/2+y,1/2+x,1/2-z
1/2-y,1/2-x,1/2-z
loop_
_atom_site_type_symbol
_atom_site_label
_atom_site_fract_x
_atom_site_fract_y
_atom_site_fract_z
Si Si1 0.045224 0.802472 0.228335
Si Si2 0.496934 0.301095 0.046458
Si Si3 0.199230 0.036450 0.314252
Si Si4 0.065307 0.376188 0.612898
Si Si5 0.056081 0.806820 0.140754
O O1 0.053625 0.741138 0.270945
O O2 0.062972 0.749605 0.184955
O O3 0.913847 0.862736 0.228670
O O4 0.612878 0.383078 0.054609
O O5 0.485996 0.187896 0.074322
O O6 0.500000 0.272810 0.000000
O O7 0.286084 0.047121 0.350815
O O8 0.092440 0.133733 0.316251
O O9 0.205728 0.406202 0.610484
O O10 0.000000 0.500000 0.620761
O O11 0.921817 0.857902 0.137384
#
# Coordination Sequence:
#
# PCOD9551620 Si02
#       5
#    16  16  16  16  16
#     4   7  12  29  54  74  98 148 205 242 284 335
#     4   9  20  42  70  93 114 142 177 228 296 357
#     4   9  18  34  57  80 108 147 195 254 306 339
#     4  12  25  33  55  88 123 145 187 237 288 346
#     4   9  20  38  56  75 112 163 204 234 273 336
#
# _framework density 18.818984
#
# number of rings (size 3 to 8) (size 9 to 14) (size 15 to 20)
#    0.000    2.800    0.000    4.200    5.600    2.800 
#    0.000    2.000    0.000    0.000    0.000    0.000 
#    0.000    0.000    0.000    0.000    0.000    0.000 
#
# Total GULP energy -223029.588807 kJ/mol
# GULP energy per Si atom -5575.739720 kJ/mol
# Density = 1.877615 g / cm^3
# Si number density = 18.818984 Si / 1000 Ang^3
#
#
#
# Elastic Constant Matrix: (Units=GPa)
#
#
# Indices 1 2 3 4 5 6 
#
# 1 67.7232 23.3558 32.5214 0.0000 0.0000 0.0000
# 2 23.3558 67.7233 32.5214 0.0000 0.0000 0.0000
# 3 32.5214 32.5214 48.7744 0.0000 0.0000 0.0000
# 4 0.0000 0.0000 0.0000 25.8836 0.0000 0.0000
# 5 0.0000 0.0000 0.0000 0.0000 25.8836 0.0000
# 6 0.0000 0.0000 0.0000 0.0000 0.0000 9.0659
#
#
#
# Elastic Compliance Matrix: (Units=1/GPa)
#
#
# Indices 1 2 3 4 5 6 
#
# 1 0.021749 -0.000790 -0.013975 0.000000 0.000000 0.000000
# 2 -0.000790 0.021749 -0.013975 0.000000 0.000000 0.000000
# 3 -0.013975 -0.013975 0.039139 0.000000 0.000000 0.000000
# 4 0.000000 0.000000 0.000000 0.038635 0.000000 0.000000
# 5 0.000000 0.000000 0.000000 0.000000 0.038635 0.000000
# 6 0.000000 0.000000 0.000000 0.000000 0.000000 0.110304
#
#
# Mechanical properties :
#
#
# Convention : Reuss Voigt Hill
#
# Bulk Modulus (GPa) = 39.74982 40.11314 39.93148
# Shear Modulus (GPa) = 14.87750 18.55476 16.71613
#
# Velocity S-wave (km/s) = 2.81474 3.14341 2.98360
# Velocity P-wave (km/s) = 5.63309 5.87675 5.75621
#
# Compressibility (1/GPa) = 0.02515735
#
# Stress axis : x y z
#
# Youngs Moduli (GPa) = 45.97820 45.97820 25.54970
#
# Poissons Ratio (x) = 0.03631 0.35707
# Poissons Ratio (y) = 0.03631 0.35707
# Poissons Ratio (z) = 0.64256 0.64256
#
# Static dielectric constant tensor:
#      x y z
#    x 1.651940 0.000000 0.000000 
#    y 0.000000 1.651940 0.000000 
#    z 0.000000 0.000000 1.680010 
# 
# From -- ./inp_files/7936.got.cif
#   From: 2010.05.17/outbox.cif.g08.bks.cpg/sg97_4_cif.got.tgz:7936.got - 2010.06.03 19:55:32.
