data_PCOD9551174
_publ_section_title
;
Structure prediction by ZEFSAII (Michael W. Deem and Ramdas Pophale) SiO2 
 PCOD9551174
Probable space group: P 43 21 2
;
_chemical_formula_sum "Si O2"
_cell_formula_units_Z 40
_cell_length_a 13.754240
_cell_length_b 13.754240
_cell_length_c 8.374618
_cell_angle_alpha 90.000000
_cell_angle_beta 90.000000
_cell_angle_gamma 90.000000
_cell_volume 1584.302847
_symmetry_space_group_name_H-M "P 43 21 2"
_symmetry_group_IT_number 96
_symmetry_cell_setting 'tetragonal'
loop_
_space_group_symop_operation_xyz
x,y,z
1/2-y,1/2+x,3/4+z
-x,-y,1/2+z
1/2+y,1/2-x,1/4+z
1/2+x,1/2-y,1/4-z
1/2-x,1/2+y,3/4-z
y,x,-z
-y,-x,1/2-z
loop_
_atom_site_type_symbol
_atom_site_label
_atom_site_fract_x
_atom_site_fract_y
_atom_site_fract_z
Si Si1 0.241393 0.145966 0.139009
Si Si2 0.335467 0.183656 0.451829
Si Si3 0.387417 0.046113 0.962329
Si Si4 0.790471 0.539916 0.749555
Si Si5 0.391209 0.539990 0.077549
O O1 0.322178 0.188624 0.260641
O O2 0.138466 0.126028 0.225577
O O3 0.221528 0.221528 0.000000
O O4 0.283416 0.050003 0.049076
O O5 0.234323 0.234323 0.500000
O O6 0.413190 0.229887 0.575857
O O7 0.336277 0.067451 0.477880
O O8 0.390308 0.132984 0.834599
O O9 0.429172 0.959436 0.857571
O O10 0.704786 0.520914 0.623696
O O11 0.427905 0.572096 0.250000
O O12 0.471003 0.471003 0.000000
#
# Coordination Sequence:
#
# PCOD9551174 Si02
#       5
#     8   8   8   8   8
#     4  12  26  51  79 116 163 218 269 344 410 482
#     4  12  26  51  84 115 164 212 271 345 404 497
#     4  12  29  44  79 117 165 220 273 343 415 504
#     4  12  25  52  80 120 160 214 274 338 419 486
#     4  12  27  52  84 118 166 216 282 347 411 493
#
# _framework density 25.247699999999998
#
# number of rings (size 3 to 8) (size 9 to 14) (size 15 to 20)
#    0.000    0.000    6.000    3.000    5.600    3.200 
#    3.600    0.000    0.000    0.000    0.000    0.000 
#    0.000    0.000    0.000    0.000    0.000    0.000 
#
# Total GULP energy -223655.352627 kJ/mol
# GULP energy per Si atom -5591.383816 kJ/mol
# Density = 2.519024 g / cm^3
# Si number density = 25.247700 Si / 1000 Ang^3
#
#
#
# Elastic Constant Matrix: (Units=GPa)
#
#
# Indices 1 2 3 4 5 6 
#
# 1 69.8436 25.2703 56.6081 0.0000 0.0000 0.0000
# 2 25.2703 69.8438 56.6085 0.0000 0.0000 0.0000
# 3 56.6081 56.6085 189.2999 0.0000 0.0000 0.0000
# 4 0.0000 0.0000 0.0000 43.1425 0.0000 0.0000
# 5 0.0000 0.0000 0.0000 0.0000 43.1433 0.0000
# 6 0.0000 0.0000 0.0000 0.0000 0.0000 20.9360
#
#
#
# Elastic Compliance Matrix: (Units=1/GPa)
#
#
# Indices 1 2 3 4 5 6 
#
# 1 0.019380 -0.003055 -0.004882 0.000000 0.000000 0.000000
# 2 -0.003055 0.019380 -0.004882 0.000000 0.000000 0.000000
# 3 -0.004882 -0.004882 0.008202 0.000000 0.000000 0.000000
# 4 0.000000 0.000000 0.000000 0.023179 0.000000 0.000000
# 5 0.000000 0.000000 0.000000 0.000000 0.023179 0.000000
# 6 0.000000 0.000000 0.000000 0.000000 0.000000 0.047765
#
#
# Mechanical properties :
#
#
# Convention : Reuss Voigt Hill
#
# Bulk Modulus (GPa) = 46.89437 67.32902 57.11170
# Shear Modulus (GPa) = 28.76389 34.14439 31.45414
#
# Velocity S-wave (km/s) = 3.37897 3.68146 3.53345
# Velocity P-wave (km/s) = 5.81698 6.69299 6.27030
#
# Compressibility (1/GPa) = 0.02132452
#
# Stress axis : x y z
#
# Youngs Moduli (GPa) = 51.60042 51.60045 121.91760
#
# Poissons Ratio (x) = 0.15765 0.59516
# Poissons Ratio (y) = 0.15765 0.59517
# Poissons Ratio (z) = 0.25190 0.25190
#
# Static dielectric constant tensor:
#      x y z
#    x 2.161740 0.000000 0.000000 
#    y 0.000000 2.161740 0.000000 
#    z 0.000000 0.000000 2.030280 
# 
# From -- ./inp_files/1317.got.cif
#   From: 2010.05.17/outbox.cif.g08.bks.cpg/sg96_1_cif.got.tgz:1317.got - 2010.06.03 19:52:08.
