data_PCOD9551772
_publ_section_title
;
Structure prediction by ZEFSAII (Michael W. Deem and Ramdas Pophale) SiO2 
 PCOD9551772
Probable space group: I 41 2 2
;
_chemical_formula_sum "Si O2"
_cell_formula_units_Z 64
_cell_length_a 19.113162
_cell_length_b 19.113162
_cell_length_c 9.628748
_cell_angle_alpha 90.000000
_cell_angle_beta 90.000000
_cell_angle_gamma 90.000000
_cell_volume 3517.506449
_symmetry_space_group_name_H-M "I 41 2 2"
_symmetry_group_IT_number 98
_symmetry_cell_setting 'tetragonal'
loop_
_space_group_symop_operation_xyz
x,y,z
-y,1/2+x,1/4+z
-x,-y,z
y,1/2-x,1/4+z
x,1/2-y,1/4-z
-x,1/2+y,1/4-z
y,x,-z
-y,-x,-z
1/2+x,1/2+y,1/2+z
1/2-y,x,3/4+z
1/2-x,1/2-y,1/2+z
1/2+y,-x,3/4+z
1/2+x,-y,3/4-z
1/2-x,y,3/4-z
1/2+y,1/2+x,1/2-z
1/2-y,1/2-x,1/2-z
loop_
_atom_site_type_symbol
_atom_site_label
_atom_site_fract_x
_atom_site_fract_y
_atom_site_fract_z
Si Si1 0.080563 0.477731 0.470500
Si Si2 0.679410 0.073374 0.783576
Si Si3 0.673940 0.533609 0.708729
Si Si4 0.939535 0.828152 0.478399
O O1 0.119653 0.529492 0.365911
O O2 0.074908 0.396854 0.420654
O O3 0.126660 0.477434 0.610350
O O4 0.000000 0.500000 0.492571
O O5 0.750000 0.071856 0.875000
O O6 0.649900 0.149900 0.750000
O O7 0.684615 0.033759 0.636729
O O8 0.747699 0.572497 0.690687
O O9 0.667348 0.520356 0.874241
O O10 0.865964 0.865964 0.500000
#
# Coordination Sequence:
#
# PCOD9551772 Si02
#       4
#    16  16  16  16
#     4  11  21  37  63  96 124 161 217 267 320 378
#     4  12  24  42  66  90 127 170 211 270 327 383
#     4  10  20  36  60  90 128 161 207 255 319 378
#     4   9  20  37  59  87 129 168 202 260 321 381
#
# _framework density 18.194707999999999
#
# number of rings (size 3 to 8) (size 9 to 14) (size 15 to 20)
#    0.000    1.500    5.000    0.750    0.000    4.500 
#    0.000    0.000   16.500    0.000    0.000    0.000 
#    0.000    0.000    0.000    0.000    0.000    0.000 
#
# Total GULP energy -178338.606405 kJ/mol
# GULP energy per Si atom -5573.081450 kJ/mol
# Density = 1.815330 g / cm^3
# Si number density = 18.194708 Si / 1000 Ang^3
#
#
#
# Elastic Constant Matrix: (Units=GPa)
#
#
# Indices 1 2 3 4 5 6 
#
# 1 94.5624 46.7385 51.9820 0.0000 0.0000 0.0000
# 2 46.7385 94.5624 51.9820 0.0000 0.0000 0.0000
# 3 51.9820 51.9820 89.4518 0.0000 0.0000 0.0000
# 4 0.0000 0.0000 0.0000 24.4549 0.0000 0.0000
# 5 0.0000 0.0000 0.0000 0.0000 24.4549 0.0000
# 6 0.0000 0.0000 0.0000 0.0000 0.0000 17.8122
#
#
#
# Elastic Compliance Matrix: (Units=1/GPa)
#
#
# Indices 1 2 3 4 5 6 
#
# 1 0.016637 -0.004273 -0.007184 0.000000 0.000000 0.000000
# 2 -0.004273 0.016637 -0.007184 0.000000 0.000000 0.000000
# 3 -0.007184 -0.007184 0.019529 0.000000 0.000000 0.000000
# 4 0.000000 0.000000 0.000000 0.040892 0.000000 0.000000
# 5 0.000000 0.000000 0.000000 0.000000 0.040892 0.000000
# 6 0.000000 0.000000 0.000000 0.000000 0.000000 0.056141
#
#
# Mechanical properties :
#
#
# Convention : Reuss Voigt Hill
#
# Bulk Modulus (GPa) = 64.44235 64.44239 64.44237
# Shear Modulus (GPa) = 21.44228 21.86933 21.65580
#
# Velocity S-wave (km/s) = 3.43664 3.47069 3.45371
# Velocity P-wave (km/s) = 7.15838 7.18025 7.16932
#
# Compressibility (1/GPa) = 0.01551775
#
# Stress axis : x y z
#
# Youngs Moduli (GPa) = 60.10852 60.10852 51.20543
#
# Poissons Ratio (x) = 0.25687 0.36788
# Poissons Ratio (y) = 0.25687 0.36788
# Poissons Ratio (z) = 0.43185 0.43185
#
# Static dielectric constant tensor:
#      x y z
#    x 1.629140 0.000000 0.000000 
#    y 0.000000 1.629140 0.000000 
#    z 0.000000 0.000000 1.671490 
# 
# From -- ./inp_files/3288.got.cif
#   From: 2010.05.17/outbox.cif.g08.bks.cpg/sg98_2_cif.got.tgz:3288.got - 2010.06.03 20:00:51.
