data_PCOD9551103
_publ_section_title
;
Structure prediction by ZEFSAII (Michael W. Deem and Ramdas Pophale) SiO2 
 PCOD9551103
Probable space group: P 43 21 2
;
_chemical_formula_sum "Si O2"
_cell_formula_units_Z 60
_cell_length_a 18.182434
_cell_length_b 18.182434
_cell_length_c 9.252324
_cell_angle_alpha 90.000000
_cell_angle_beta 90.000000
_cell_angle_gamma 90.000000
_cell_volume 3058.826699
_symmetry_space_group_name_H-M "P 43 21 2"
_symmetry_group_IT_number 96
_symmetry_cell_setting 'tetragonal'
loop_
_space_group_symop_operation_xyz
x,y,z
1/2-y,1/2+x,3/4+z
-x,-y,1/2+z
1/2+y,1/2-x,1/4+z
1/2+x,1/2-y,1/4-z
1/2-x,1/2+y,3/4-z
y,x,-z
-y,-x,1/2-z
loop_
_atom_site_type_symbol
_atom_site_label
_atom_site_fract_x
_atom_site_fract_y
_atom_site_fract_z
Si Si1 0.820064 0.740379 0.236604
Si Si2 0.948622 0.698386 0.426977
Si Si3 0.099195 0.213507 0.205627
Si Si4 0.531888 0.710919 0.066525
Si Si5 0.800014 0.199987 0.750000
Si Si6 0.442179 0.552036 0.424445
Si Si7 0.286757 0.073495 0.497893
Si Si8 0.953447 0.433872 0.847826
O O1 0.868916 0.690583 0.345842
O O2 0.798443 0.814092 0.319726
O O3 0.753660 0.710666 0.138475
O O4 0.876117 0.762735 0.107515
O O5 0.937602 0.747143 0.569076
O O6 0.998430 0.743528 0.315516
O O7 0.995212 0.623401 0.436917
O O8 0.067514 0.134013 0.257253
O O9 0.092589 0.269610 0.339488
O O10 0.618335 0.709668 0.057084
O O11 0.497259 0.630361 0.050767
O O12 0.506564 0.756006 0.208541
O O13 0.510587 0.510587 0.500000
O O14 0.447297 0.552704 0.250000
O O15 0.369976 0.087719 0.445957
O O16 0.995190 0.446764 0.698133
#
# Coordination Sequence:
#
# PCOD9551103 Si02
#       8
#     8   8   8   8   4   8   8   8
#     4  11  21  40  70  97 130 179 231 284 343 411
#     4  11  26  43  68 101 139 175 230 294 346 414
#     4  12  23  43  72 102 135 181 234 282 347 420
#     4  11  23  42  68  98 138 185 230 279 348 410
#     4  12  24  40  74  98 134 186 236 284 342 418
#     4  12  25  42  69 105 143 184 230 276 350 423
#     4  11  22  45  72  97 134 181 236 285 332 425
#     4  12  27  47  70 100 138 183 233 292 358 412
#
# _framework density 19.615362999999999
#
# number of rings (size 3 to 8) (size 9 to 14) (size 15 to 20)
#    0.000    0.533    8.667    1.200    3.733    0.000 
#    0.000    0.000    2.933    0.000    0.000    0.000 
#    0.000    0.000    0.000    0.000    0.000    0.000 
#
# Total GULP energy -334688.815859 kJ/mol
# GULP energy per Si atom -5578.146931 kJ/mol
# Density = 1.957072 g / cm^3
# Si number density = 19.615363 Si / 1000 Ang^3
#
#
#
# Elastic Constant Matrix: (Units=GPa)
#
#
# Indices 1 2 3 4 5 6 
#
# 1 93.7727 44.9474 18.0162 0.0000 0.0000 0.0000
# 2 44.9474 93.7725 18.0156 0.0000 0.0000 0.0000
# 3 18.0162 18.0156 61.5711 0.0000 0.0000 0.0000
# 4 0.0000 0.0000 0.0000 26.0064 0.0000 0.0000
# 5 0.0000 0.0000 0.0000 0.0000 26.0066 0.0000
# 6 0.0000 0.0000 0.0000 0.0000 0.0000 19.6490
#
#
#
# Elastic Compliance Matrix: (Units=1/GPa)
#
#
# Indices 1 2 3 4 5 6 
#
# 1 0.014141 -0.006340 -0.002283 0.000000 0.000000 0.000000
# 2 -0.006340 0.014141 -0.002283 0.000000 0.000000 0.000000
# 3 -0.002283 -0.002283 0.017577 0.000000 0.000000 0.000000
# 4 0.000000 0.000000 0.000000 0.038452 0.000000 0.000000
# 5 0.000000 0.000000 0.000000 0.000000 0.038452 0.000000
# 6 0.000000 0.000000 0.000000 0.000000 0.000000 0.050893
#
#
# Mechanical properties :
#
#
# Convention : Reuss Voigt Hill
#
# Bulk Modulus (GPa) = 41.58091 45.67498 43.62794
# Shear Modulus (GPa) = 24.57190 25.54154 25.05672
#
# Velocity S-wave (km/s) = 3.54317 3.61240 3.57795
# Velocity P-wave (km/s) = 6.16303 6.38241 6.27368
#
# Compressibility (1/GPa) = 0.02404950
#
# Stress axis : x y z
#
# Youngs Moduli (GPa) = 70.71391 70.71401 56.89151
#
# Poissons Ratio (x) = 0.44831 0.12988
# Poissons Ratio (y) = 0.44831 0.12987
# Poissons Ratio (z) = 0.16143 0.16142
#
# Static dielectric constant tensor:
#      x y z
#    x 1.773200 0.000000 0.000000 
#    y 0.000000 1.773200 0.000000 
#    z 0.000000 0.000000 1.681450 
# 
# From -- ./inp_files/1607.got.cif
#   From: 2010.05.17/outbox.cif.g08.bks.cpg/sg96_1_cif.got.tgz:1607.got - 2010.06.03 19:52:08.
