data_PCOD9551175
_publ_section_title
;
Structure prediction by ZEFSAII (Michael W. Deem and Ramdas Pophale) SiO2 
 PCOD9551175
Probable space group: P 43 21 2
;
_chemical_formula_sum "Si O2"
_cell_formula_units_Z 24
_cell_length_a 13.212929
_cell_length_b 13.212929
_cell_length_c 5.433710
_cell_angle_alpha 90.000000
_cell_angle_beta 90.000000
_cell_angle_gamma 90.000000
_cell_volume 948.625203
_symmetry_space_group_name_H-M "P 43 21 2"
_symmetry_group_IT_number 96
_symmetry_cell_setting 'tetragonal'
loop_
_space_group_symop_operation_xyz
x,y,z
1/2-y,1/2+x,3/4+z
-x,-y,1/2+z
1/2+y,1/2-x,1/4+z
1/2+x,1/2-y,1/4-z
1/2-x,1/2+y,3/4-z
y,x,-z
-y,-x,1/2-z
loop_
_atom_site_type_symbol
_atom_site_label
_atom_site_fract_x
_atom_site_fract_y
_atom_site_fract_z
Si Si1 0.108383 0.891618 0.250000
Si Si2 0.810603 0.189398 0.250000
Si Si3 0.891627 0.891627 0.500000
Si Si4 0.689390 0.310611 0.750000
Si Si5 0.888465 0.388470 0.999994
O O1 0.172314 0.867688 0.490586
O O2 0.000006 0.880927 0.375009
O O3 0.856895 0.300695 0.192089
O O4 0.856902 0.699312 0.057903
O O5 0.867696 0.827698 0.740589
O O6 0.879527 0.500003 0.124993
#
# Coordination Sequence:
#
# PCOD9551175 Si02
#       5
#     4   4   4   4   8
#     4  12  26  46  80 126 173 226 289 358 435 520
#     4  12  28  54  86 122 175 232 291 360 441 522
#     4  12  26  46  80 126 173 226 289 358 435 520
#     4  12  28  54  86 122 175 232 291 360 441 522
#     4  12  32  58  90 132 178 234 298 368 442 528
#
# _framework density 25.299769999999999
#
# number of rings (size 3 to 8) (size 9 to 14) (size 15 to 20)
#    0.000    0.000    0.000    8.000    0.000   18.667 
#    0.000    0.000    0.000    4.000    0.000    0.000 
#    0.000    0.000    0.000    0.000    0.000    0.000 
#
# Total GULP energy -133709.335267 kJ/mol
# GULP energy per Si atom -5571.222303 kJ/mol
# Density = 2.524219 g / cm^3
# Si number density = 25.299770 Si / 1000 Ang^3
#
#
#
# Elastic Constant Matrix: (Units=GPa)
#
#
# Indices 1 2 3 4 5 6 
#
# 1 241.7389 119.4953 144.6994 0.0000 0.0000 0.0000
# 2 119.4953 241.7384 144.7004 0.0000 0.0000 0.0000
# 3 144.6994 144.7004 325.7639 0.0000 0.0000 0.0000
# 4 0.0000 0.0000 0.0000 115.6254 0.0000 0.0000
# 5 0.0000 0.0000 0.0000 0.0000 115.6228 0.0000
# 6 0.0000 0.0000 0.0000 0.0000 0.0000 24.1526
#
#
#
# Elastic Compliance Matrix: (Units=1/GPa)
#
#
# Indices 1 2 3 4 5 6 
#
# 1 0.006239 -0.001941 -0.001909 0.000000 0.000000 0.000000
# 2 -0.001941 0.006239 -0.001909 0.000000 0.000000 0.000000
# 3 -0.001909 -0.001909 0.004766 0.000000 0.000000 0.000000
# 4 0.000000 0.000000 0.000000 0.008649 0.000000 0.000000
# 5 0.000000 0.000000 0.000000 0.000000 0.008649 0.000000
# 6 0.000000 0.000000 0.000000 0.000000 0.000000 0.041403
#
#
# Mechanical properties :
#
#
# Convention : Reuss Voigt Hill
#
# Bulk Modulus (GPa) = 174.67158 180.78126 177.72642
# Shear Modulus (GPa) = 55.94639 77.76991 66.85815
#
# Velocity S-wave (km/s) = 4.70759 5.55033 5.14624
# Velocity P-wave (km/s) = 9.93676 10.61535 10.28165
#
# Compressibility (1/GPa) = 0.00572503
#
# Stress axis : x y z
#
# Youngs Moduli (GPa) = 160.28232 160.28103 209.83872
#
# Poissons Ratio (x) = 0.31117 0.40057
# Poissons Ratio (y) = 0.31117 0.40058
# Poissons Ratio (z) = 0.30597 0.30597
#
# Static dielectric constant tensor:
#      x y z
#    x 2.145490 0.000000 0.000000 
#    y 0.000000 2.145490 0.000000 
#    z 0.000000 0.000000 3.054620 
# 
# From -- ./inp_files/199.got.cif
#   From: 2010.05.17/outbox.cif.g08.bks.cpg/sg96_1_cif.got.tgz:199.got - 2010.06.03 19:52:08.
