data_PCOD9551558
_publ_section_title
;
Structure prediction by ZEFSAII (Michael W. Deem and Ramdas Pophale) SiO2 
 PCOD9551558
Probable space group: I 4 2 2 
;
_chemical_formula_sum "Si O2"
_cell_formula_units_Z 40
_cell_length_a 12.327894
_cell_length_b 12.327894
_cell_length_c 11.729845
_cell_angle_alpha 90.000000
_cell_angle_beta 90.000000
_cell_angle_gamma 90.000000
_cell_volume 1782.666307
_symmetry_space_group_name_H-M "I 4 2 2 "
_symmetry_group_IT_number 97
_symmetry_cell_setting 'tetragonal'
loop_
_space_group_symop_operation_xyz
x,y,z
-y,x,z
-x,-y,z
y,-x,z
x,-y,-z
-x,y,-z
y,x,-z
-y,-x,-z
1/2+x,1/2+y,1/2+z
1/2-y,1/2+x,1/2+z
1/2-x,1/2-y,1/2+z
1/2+y,1/2-x,1/2+z
1/2+x,1/2-y,1/2-z
1/2-x,1/2+y,1/2-z
1/2+y,1/2+x,1/2-z
1/2-y,1/2-x,1/2-z
loop_
_atom_site_type_symbol
_atom_site_label
_atom_site_fract_x
_atom_site_fract_y
_atom_site_fract_z
Si Si1 0.500000 0.195452 0.500000
Si Si2 0.223578 0.391575 0.044373
Si Si3 0.322776 0.456089 0.268494
O O1 0.393968 0.121261 0.487239
O O2 0.535222 0.270407 0.393683
O O3 0.233380 0.413735 0.178912
O O4 0.280788 0.500000 0.000000
O O5 0.289027 0.289027 0.000000
O O6 0.423532 0.373388 0.253243
#
# Coordination Sequence:
#
# PCOD9551558 Si02
#       3
#     8  16  16
#     4  12  27  43  68 112 156 191 238 315 392 448
#     4  12  25  46  74 104 147 198 252 305 373 452
#     4  11  23  44  75 106 145 197 253 306 365 451
#
# _framework density 22.438299000000001
#
# number of rings (size 3 to 8) (size 9 to 14) (size 15 to 20)
#    0.000    0.400    4.000    5.400    0.000    3.600 
#    0.000    4.000    0.000    0.000    0.000    0.000 
#    0.000    0.000    0.000    0.000    0.000    0.000 
#
# Total GULP energy -111589.179918 kJ/mol
# GULP energy per Si atom -5579.458996 kJ/mol
# Density = 2.238723 g / cm^3
# Si number density = 22.438299 Si / 1000 Ang^3
#
#
#
# Elastic Constant Matrix: (Units=GPa)
#
#
# Indices 1 2 3 4 5 6 
#
# 1 103.7453 14.1408 23.2613 0.0000 0.0000 0.0000
# 2 14.1408 103.7453 23.2613 0.0000 0.0000 0.0000
# 3 23.2613 23.2613 147.1272 0.0000 0.0000 0.0000
# 4 0.0000 0.0000 0.0000 17.6611 0.0000 0.0000
# 5 0.0000 0.0000 0.0000 0.0000 17.6611 0.0000
# 6 0.0000 0.0000 0.0000 0.0000 0.0000 16.2904
#
#
#
# Elastic Compliance Matrix: (Units=1/GPa)
#
#
# Indices 1 2 3 4 5 6 
#
# 1 0.010104 -0.001056 -0.001430 0.000000 0.000000 0.000000
# 2 -0.001056 0.010104 -0.001430 0.000000 0.000000 0.000000
# 3 -0.001430 -0.001430 0.007249 0.000000 0.000000 0.000000
# 4 0.000000 0.000000 0.000000 0.056622 0.000000 0.000000
# 5 0.000000 0.000000 0.000000 0.000000 0.056622 0.000000
# 6 0.000000 0.000000 0.000000 0.000000 0.000000 0.061386
#
#
# Mechanical properties :
#
#
# Convention : Reuss Voigt Hill
#
# Bulk Modulus (GPa) = 50.96310 52.88276 51.92293
# Shear Modulus (GPa) = 23.09887 29.91948 26.50918
#
# Velocity S-wave (km/s) = 3.21197 3.65555 3.44092
# Velocity P-wave (km/s) = 6.04297 6.43713 6.24316
#
# Compressibility (1/GPa) = 0.01962204
#
# Stress axis : x y z
#
# Youngs Moduli (GPa) = 98.97361 98.97361 137.94729
#
# Poissons Ratio (x) = 0.10456 0.19732
# Poissons Ratio (y) = 0.10456 0.19732
# Poissons Ratio (z) = 0.14157 0.14157
#
# Static dielectric constant tensor:
#      x y z
#    x 1.844960 0.000000 0.000000 
#    y 0.000000 1.844960 0.000000 
#    z 0.000000 0.000000 1.775460 
# 
# From -- ./inp_files/4253.got.cif
#   From: 2010.05.17/outbox.cif.g08.bks.cpg/sg97_3_cif.got.tgz:4253.got - 2010.06.03 19:55:32.
