data_PCOD9551692
_publ_section_title
;
Structure prediction by ZEFSAII (Michael W. Deem and Ramdas Pophale) SiO2 
 PCOD9551692
Probable space group: I 41 2 2
;
_chemical_formula_sum "Si O2"
_cell_formula_units_Z 64
_cell_length_a 29.408178
_cell_length_b 29.408178
_cell_length_c 5.129523
_cell_angle_alpha 90.000000
_cell_angle_beta 90.000000
_cell_angle_gamma 90.000000
_cell_volume 4436.221459
_symmetry_space_group_name_H-M "I 41 2 2"
_symmetry_group_IT_number 98
_symmetry_cell_setting 'tetragonal'
loop_
_space_group_symop_operation_xyz
x,y,z
-y,1/2+x,1/4+z
-x,-y,z
y,1/2-x,1/4+z
x,1/2-y,1/4-z
-x,1/2+y,1/4-z
y,x,-z
-y,-x,-z
1/2+x,1/2+y,1/2+z
1/2-y,x,3/4+z
1/2-x,1/2-y,1/2+z
1/2+y,-x,3/4+z
1/2+x,-y,3/4-z
1/2-x,y,3/4-z
1/2+y,1/2+x,1/2-z
1/2-y,1/2-x,1/2-z
loop_
_atom_site_type_symbol
_atom_site_label
_atom_site_fract_x
_atom_site_fract_y
_atom_site_fract_z
Si Si1 0.038672 0.383874 0.728606
Si Si2 0.425587 0.997527 0.775709
Si Si3 0.336686 0.296870 0.738204
Si Si4 0.780198 0.941749 0.630981
O O1 0.086511 0.413490 0.750000
O O2 0.015794 0.390988 0.445533
O O3 0.042687 0.331458 0.814094
O O4 0.005248 0.406400 0.938147
O O5 0.466823 0.033178 0.750000
O O6 0.447801 0.947801 0.750000
O O7 0.317517 0.250000 0.625000
O O8 0.332274 0.332274 0.500000
O O9 0.388484 0.287515 0.810284
O O10 0.312303 0.312303 0.000000
O O11 0.750000 0.947454 0.375000
O O12 0.750000 0.960133 0.875000
#
# Coordination Sequence:
#
# PCOD9551692 Si02
#       4
#    16  16  16  16
#     4  10  19  30  48  66  83 112 141 169 216 270
#     4   9  17  29  45  68  92 108 128 163 209 263
#     4  11  22  35  47  58  73  95 126 171 223 271
#     4  11  22  35  47  61  82 107 140 179 213 249
#
# _framework density 14.426691999999999
#
# number of rings (size 3 to 8) (size 9 to 14) (size 15 to 20)
#    0.000    1.750    0.000    6.750    0.000    7.000 
#    0.000    1.250    0.000    0.000    0.000    0.000 
#    0.000    0.000    0.000    0.000    0.000    0.000 
#
# Total GULP energy -178305.555000 kJ/mol
# GULP energy per Si atom -5572.048594 kJ/mol
# Density = 1.439386 g / cm^3
# Si number density = 14.426692 Si / 1000 Ang^3
#
#
#
# Elastic Constant Matrix: (Units=GPa)
#
#
# Indices 1 2 3 4 5 6 
#
# 1 36.6840 29.3083 6.6090 0.0000 0.0000 0.0000
# 2 29.3083 36.6793 6.6047 0.0000 0.0000 0.0000
# 3 6.6090 6.6047 78.3959 0.0000 0.0000 0.0000
# 4 0.0000 0.0000 0.0000 -6.5231 0.0000 0.0000
# 5 0.0000 0.0000 0.0000 0.0000 -6.5175 0.0000
# 6 0.0000 0.0000 0.0000 0.0000 0.0000 14.1806
#
#
#
# Elastic Compliance Matrix: (Units=1/GPa)
#
#
# Indices 1 2 3 4 5 6 
#
# 1 0.075515 -0.060105 -0.001302 0.000000 0.000000 0.000000
# 2 -0.060105 0.075523 -0.001296 0.000000 0.000000 0.000000
# 3 -0.001302 -0.001296 0.012975 0.000000 0.000000 0.000000
# 4 0.000000 0.000000 0.000000 -0.153301 0.000000 0.000000
# 5 0.000000 0.000000 0.000000 0.000000 -0.153433 0.000000
# 6 0.000000 0.000000 0.000000 0.000000 0.000000 0.070519
#
#
# Mechanical properties :
#
#
# Convention : Reuss Voigt Hill
#
# Bulk Modulus (GPa) = 25.90236 26.31147 26.10692
# Shear Modulus (GPa) = 75.67315 7.51047 41.59181
#
# Velocity S-wave (km/s) = 7.25034 2.28413 5.37516
# Velocity P-wave (km/s) = 9.38527 5.02334 7.52720
#
# Compressibility (1/GPa) = 0.03860651
#
# Stress axis : x y z
#
# Youngs Moduli (GPa) = 13.24240 13.24097 77.07299
#
# Poissons Ratio (x) = 0.79585 0.10038
# Poissons Ratio (y) = 0.79594 0.09986
# Poissons Ratio (z) = 0.01725 0.01716
#
# Static dielectric constant tensor:
#      x y z
#    x 1.494440 0.000000 0.000000 
#    y 0.000000 1.494450 0.000000 
#    z 0.000000 0.000000 1.524670 
# 
# From -- ./inp_files/1363.got.cif
#   From: 2010.05.17/outbox.cif.g08.bks.cpg/sg98_1_cif.got.tgz:1363.got - 2010.06.03 20:00:51.
