data_PCOD9551200
_publ_section_title
;
Structure prediction by ZEFSAII (Michael W. Deem and Ramdas Pophale) SiO2 
 PCOD9551200
Probable space group: I 4 2 2 
;
_chemical_formula_sum "Si O2"
_cell_formula_units_Z 96
_cell_length_a 28.366768
_cell_length_b 28.366768
_cell_length_c 8.283047
_cell_angle_alpha 90.000000
_cell_angle_beta 90.000000
_cell_angle_gamma 90.000000
_cell_volume 6665.148642
_symmetry_space_group_name_H-M "I 4 2 2 "
_symmetry_group_IT_number 97
_symmetry_cell_setting 'tetragonal'
loop_
_space_group_symop_operation_xyz
x,y,z
-y,x,z
-x,-y,z
y,-x,z
x,-y,-z
-x,y,-z
y,x,-z
-y,-x,-z
1/2+x,1/2+y,1/2+z
1/2-y,1/2+x,1/2+z
1/2-x,1/2-y,1/2+z
1/2+y,1/2-x,1/2+z
1/2+x,1/2-y,1/2-z
1/2-x,1/2+y,1/2-z
1/2+y,1/2+x,1/2-z
1/2-y,1/2-x,1/2-z
loop_
_atom_site_type_symbol
_atom_site_label
_atom_site_fract_x
_atom_site_fract_y
_atom_site_fract_z
Si Si1 0.155085 0.300800 0.481726
Si Si2 0.301739 0.698262 0.500000
Si Si3 0.578011 0.850720 0.194975
Si Si4 0.326806 0.055287 0.957261
Si Si5 0.274646 0.774646 0.750000
Si Si6 0.895807 0.500000 0.000000
Si Si7 0.237051 0.629405 0.650595
Si Si8 0.078088 0.421913 0.250000
O O1 0.110617 0.327429 0.559187
O O2 0.181929 0.276403 0.628024
O O3 0.193137 0.338927 0.417236
O O4 0.141044 0.265024 0.340563
O O5 0.280902 0.727705 0.649568
O O6 0.283129 0.646319 0.550126
O O7 0.599457 0.900544 0.250000
O O8 0.577884 0.823759 0.363382
O O9 0.528018 0.861965 0.120981
O O10 0.280397 0.075747 0.870883
O O11 0.372262 0.071690 0.848740
O O12 0.330176 0.000000 0.000000
O O13 0.923776 0.462663 0.887541
#
# Coordination Sequence:
#
# PCOD9551200 Si02
#       8
#    16   8  16  16   8   8  16   8
#     4  10  18  29  47  66  90 113 138 179 219 271
#     4  10  18  28  46  66  92 116 136 171 210 264
#     4  12  20  34  50  64  81 110 143 184 239 282
#     4  12  23  36  52  66  86 113 148 188 232 280
#     4  10  16  27  42  70  87 111 140 164 216 270
#     4  12  24  36  51  60  80 104 142 194 244 292
#     4  10  19  31  46  68  90 113 142 173 219 269
#     4  12  24  39  51  66  81 108 148 194 247 294
#
# _framework density 14.403280000000001
#
# number of rings (size 3 to 8) (size 9 to 14) (size 15 to 20)
#    0.000    1.000    5.833    5.000    0.000    0.000 
#    0.000    4.167    0.000    0.000    0.000    0.000 
#    0.000    0.000    0.000    0.000    0.000    0.417 
#
# Total GULP energy -267334.729634 kJ/mol
# GULP energy per Si atom -5569.473534 kJ/mol
# Density = 1.437050 g / cm^3
# Si number density = 14.403280 Si / 1000 Ang^3
#
#
#
# Elastic Constant Matrix: (Units=GPa)
#
#
# Indices 1 2 3 4 5 6 
#
# 1 36.2324 35.3621 19.8650 0.0000 0.0000 0.0000
# 2 35.3621 36.2310 19.8638 0.0000 0.0000 0.0000
# 3 19.8650 19.8638 91.5342 0.0000 0.0000 0.0000
# 4 0.0000 0.0000 0.0000 17.2859 0.0000 0.0000
# 5 0.0000 0.0000 0.0000 0.0000 17.2869 0.0000
# 6 0.0000 0.0000 0.0000 0.0000 0.0000 13.9740
#
#
#
# Elastic Compliance Matrix: (Units=1/GPa)
#
#
# Indices 1 2 3 4 5 6 
#
# 1 0.582901 -0.567029 -0.003452 0.000000 0.000000 0.000000
# 2 -0.567029 0.582917 -0.003440 0.000000 0.000000 0.000000
# 3 -0.003452 -0.003440 0.012421 0.000000 0.000000 0.000000
# 4 0.000000 0.000000 0.000000 0.057851 0.000000 0.000000
# 5 0.000000 0.000000 0.000000 0.000000 0.057847 0.000000
# 6 0.000000 0.000000 0.000000 0.000000 0.000000 0.071562
#
#
# Mechanical properties :
#
#
# Convention : Reuss Voigt Hill
#
# Bulk Modulus (GPa) = 32.89920 34.90882 33.90401
# Shear Modulus (GPa) = 1.98140 15.63646 8.80893
#
# Velocity S-wave (km/s) = 1.17416 3.29845 2.47572
# Velocity P-wave (km/s) = 4.97285 6.22862 5.63582
#
# Compressibility (1/GPa) = 0.03039588
#
# Stress axis : x y z
#
# Youngs Moduli (GPa) = 1.71556 1.71551 80.51100
#
# Poissons Ratio (x) = 0.97274 0.27796
# Poissons Ratio (y) = 0.97277 0.27696
# Poissons Ratio (z) = 0.00592 0.00590
#
# Static dielectric constant tensor:
#      x y z
#    x 1.508290 0.000000 0.000000 
#    y 0.000000 1.508300 0.000000 
#    z 0.000000 0.000000 1.527980 
# 
# From -- ./inp_files/2687.got.cif
#   From: 2010.05.17/outbox.cif.g08.bks.cpg/sg97_2_cif.got.tgz:2687.got - 2010.06.03 19:55:32.
