data_PCOD9551944
_publ_section_title
;
Structure prediction by ZEFSAII (Michael W. Deem and Ramdas Pophale) SiO2 
 PCOD9551944
Probable space group: I 41 2 2
;
_chemical_formula_sum "Si O2"
_cell_formula_units_Z 64
_cell_length_a 11.743421
_cell_length_b 11.743421
_cell_length_c 17.025468
_cell_angle_alpha 90.000000
_cell_angle_beta 90.000000
_cell_angle_gamma 90.000000
_cell_volume 2347.947165
_symmetry_space_group_name_H-M "I 41 2 2"
_symmetry_group_IT_number 98
_symmetry_cell_setting 'tetragonal'
loop_
_space_group_symop_operation_xyz
x,y,z
-y,1/2+x,1/4+z
-x,-y,z
y,1/2-x,1/4+z
x,1/2-y,1/4-z
-x,1/2+y,1/4-z
y,x,-z
-y,-x,-z
1/2+x,1/2+y,1/2+z
1/2-y,x,3/4+z
1/2-x,1/2-y,1/2+z
1/2+y,-x,3/4+z
1/2+x,-y,3/4-z
1/2-x,y,3/4-z
1/2+y,1/2+x,1/2-z
1/2-y,1/2-x,1/2-z
loop_
_atom_site_type_symbol
_atom_site_label
_atom_site_fract_x
_atom_site_fract_y
_atom_site_fract_z
Si Si1 0.042706 0.131102 0.073234
Si Si2 0.533333 0.627336 0.882590
Si Si3 0.338065 0.069562 0.522567
Si Si4 0.305735 0.868780 0.002055
O O1 0.102753 0.141389 0.157744
O O2 0.938734 0.212214 0.048005
O O3 0.130269 0.130269 0.000000
O O4 0.000000 0.000000 0.076419
O O5 0.500000 0.500000 0.904960
O O6 0.626800 0.614068 0.812842
O O7 0.566945 0.707778 0.953098
O O8 0.427191 0.688379 0.837568
O O9 0.377158 0.936516 0.525098
O O10 0.259326 0.740675 0.000000
#
# Coordination Sequence:
#
# PCOD9551944 Si02
#       4
#    16  16  16  16
#     4  11  19  35  58  99 144 182 228 301 387 448
#     4  10  23  42  69 103 143 191 249 317 385 467
#     4  11  24  42  68 106 149 198 254 321 383 457
#     4  11  22  39  68 103 145 194 249 310 389 450
#
# _framework density 27.257854999999999
#
# number of rings (size 3 to 8) (size 9 to 14) (size 15 to 20)
#    0.000    1.250    5.000    2.250    0.000    9.000 
#    0.000    0.000    0.000   36.750    0.000    0.000 
#    0.000    0.000    0.000    0.000    0.000    0.000 
#
# Total GULP energy -179436.582394 kJ/mol
# GULP energy per Si atom -5607.393200 kJ/mol
# Density = 2.719582 g / cm^3
# Si number density = 27.257855 Si / 1000 Ang^3
#
#
#
# Elastic Constant Matrix: (Units=GPa)
#
#
# Indices 1 2 3 4 5 6 
#
# 1 130.7343 31.1232 25.5898 0.0000 0.0000 0.0000
# 2 31.1232 130.7357 25.5893 0.0000 0.0000 0.0000
# 3 25.5898 25.5893 83.7143 0.0000 0.0000 0.0000
# 4 0.0000 0.0000 0.0000 25.4462 0.0000 0.0000
# 5 0.0000 0.0000 0.0000 0.0000 25.4477 0.0000
# 6 0.0000 0.0000 0.0000 0.0000 0.0000 49.0285
#
#
#
# Elastic Compliance Matrix: (Units=1/GPa)
#
#
# Indices 1 2 3 4 5 6 
#
# 1 0.008439 -0.001600 -0.002091 0.000000 0.000000 0.000000
# 2 -0.001600 0.008439 -0.002091 0.000000 0.000000 0.000000
# 3 -0.002091 -0.002091 0.013223 0.000000 0.000000 0.000000
# 4 0.000000 0.000000 0.000000 0.039299 0.000000 0.000000
# 5 0.000000 0.000000 0.000000 0.000000 0.039296 0.000000
# 6 0.000000 0.000000 0.000000 0.000000 0.000000 0.020396
#
#
# Mechanical properties :
#
#
# Convention : Reuss Voigt Hill
#
# Bulk Modulus (GPa) = 53.93850 56.64319 55.29084
# Shear Modulus (GPa) = 34.05184 37.50996 35.78090
#
# Velocity S-wave (km/s) = 3.53831 3.71363 3.62703
# Velocity P-wave (km/s) = 6.04351 6.26208 6.15377
#
# Compressibility (1/GPa) = 0.01853963
#
# Stress axis : x y z
#
# Youngs Moduli (GPa) = 118.49483 118.49645 75.62296
#
# Poissons Ratio (x) = 0.18957 0.15810
# Poissons Ratio (y) = 0.18957 0.15809
# Poissons Ratio (z) = 0.24773 0.24772
#
# Static dielectric constant tensor:
#      x y z
#    x 2.235980 0.000000 0.000000 
#    y 0.000000 2.235980 0.000000 
#    z 0.000000 0.000000 2.156530 
# 
# From -- ./inp_files/8550.got.cif
#   From: 2010.05.17/outbox.cif.g08.bks.cpg/sg98_5_cif.got.tgz:8550.got - 2010.06.03 20:00:51.
