data_PCOD9551627
_publ_section_title
;
Structure prediction by ZEFSAII (Michael W. Deem and Ramdas Pophale) SiO2 
 PCOD9551627
Probable space group: I 41 2 2
;
_chemical_formula_sum "Si O2"
_cell_formula_units_Z 96
_cell_length_a 24.154051
_cell_length_b 24.154051
_cell_length_c 7.072370
_cell_angle_alpha 90.000000
_cell_angle_beta 90.000000
_cell_angle_gamma 90.000000
_cell_volume 4126.149232
_symmetry_space_group_name_H-M "I 41 2 2"
_symmetry_group_IT_number 98
_symmetry_cell_setting 'tetragonal'
loop_
_space_group_symop_operation_xyz
x,y,z
-y,1/2+x,1/4+z
-x,-y,z
y,1/2-x,1/4+z
x,1/2-y,1/4-z
-x,1/2+y,1/4-z
y,x,-z
-y,-x,-z
1/2+x,1/2+y,1/2+z
1/2-y,x,3/4+z
1/2-x,1/2-y,1/2+z
1/2+y,-x,3/4+z
1/2+x,-y,3/4-z
1/2-x,y,3/4-z
1/2+y,1/2+x,1/2-z
1/2-y,1/2-x,1/2-z
loop_
_atom_site_type_symbol
_atom_site_label
_atom_site_fract_x
_atom_site_fract_y
_atom_site_fract_z
Si Si1 0.062181 0.562108 0.019840
Si Si2 0.726886 0.106162 0.627044
Si Si3 0.616651 0.546229 0.242659
Si Si4 0.640967 0.960419 0.554405
Si Si5 0.164058 0.869647 0.731123
Si Si6 0.980985 0.761695 0.349249
O O1 0.063423 0.563423 0.250000
O O2 0.107248 0.514358 0.977553
O O3 0.082008 0.621290 0.938872
O O4 0.997635 0.565991 0.960730
O O5 0.778695 0.146107 0.635411
O O6 0.682546 0.123811 0.476894
O O7 0.689906 0.111036 0.816382
O O8 0.753892 0.046319 0.613046
O O9 0.630717 0.538471 0.466875
O O10 0.591608 0.607355 0.224092
O O11 0.674139 0.536875 0.129812
O O12 0.707656 0.957882 0.539320
O O13 0.972117 0.750000 0.125000
#
# Coordination Sequence:
#
# PCOD9551627 Si02
#       6
#    16  16  16  16  16  16
#     4  10  13  19  29  39  56  75 100 143 170 187
#     4  10  15  21  29  43  55  78 110 145 180 195
#     4   9  16  21  27  40  55  76 105 140 169 191
#     4   9  16  21  27  40  55  75 106 141 166 190
#     4  10  15  20  30  42  56  77 110 143 181 194
#     4  10  14  21  31  37  54  78 104 142 167 194
#
# _framework density 23.266245999999999
#
# number of rings (size 3 to 8) (size 9 to 14) (size 15 to 20)
#    0.000    2.333    6.667    1.500    0.000    2.000 
#    0.000    0.000    0.000    0.000    0.000    0.000 
#    0.000    0.000    0.000    0.000    0.000    3.333 
#
# Total GULP energy -267578.683862 kJ/mol
# GULP energy per Si atom -5574.555914 kJ/mol
# Density = 2.321329 g / cm^3
# Si number density = 23.266246 Si / 1000 Ang^3
#
#
#
# Elastic Constant Matrix: (Units=GPa)
#
#
# Indices 1 2 3 4 5 6 
#
# 1 163.3285 86.7864 9.5554 0.0000 0.0000 0.0000
# 2 86.7864 163.3285 9.5554 0.0000 0.0000 0.0000
# 3 9.5554 9.5554 73.0250 0.0000 0.0000 0.0000
# 4 0.0000 0.0000 0.0000 29.0160 0.0000 0.0000
# 5 0.0000 0.0000 0.0000 0.0000 29.0160 0.0000
# 6 0.0000 0.0000 0.0000 0.0000 0.0000 41.7826
#
#
#
# Elastic Compliance Matrix: (Units=1/GPa)
#
#
# Indices 1 2 3 4 5 6 
#
# 1 0.008552 -0.004513 -0.000528 0.000000 0.000000 0.000000
# 2 -0.004513 0.008552 -0.000528 0.000000 0.000000 0.000000
# 3 -0.000528 -0.000528 0.013832 0.000000 0.000000 0.000000
# 4 0.000000 0.000000 0.000000 0.034464 0.000000 0.000000
# 5 0.000000 0.000000 0.000000 0.000000 0.034464 0.000000
# 6 0.000000 0.000000 0.000000 0.000000 0.000000 0.023933
#
#
# Mechanical properties :
#
#
# Convention : Reuss Voigt Hill
#
# Bulk Modulus (GPa) = 50.51645 67.94183 59.22914
# Shear Modulus (GPa) = 35.32700 39.54858 37.43779
#
# Velocity S-wave (km/s) = 3.90087 4.12737 4.01571
# Velocity P-wave (km/s) = 6.48448 7.20963 6.85665
#
# Compressibility (1/GPa) = 0.01979553
#
# Stress axis : x y z
#
# Youngs Moduli (GPa) = 116.93698 116.93698 72.29484
#
# Poissons Ratio (x) = 0.52775 0.03820
# Poissons Ratio (y) = 0.52775 0.03820
# Poissons Ratio (z) = 0.06180 0.06180
#
# Static dielectric constant tensor:
#      x y z
#    x 1.802220 0.000000 0.000000 
#    y 0.000000 1.802220 0.000000 
#    z 0.000000 0.000000 2.163580 
# 
# From -- ./inp_files/5421.got.cif
#   From: 2010.05.17/outbox.cif.g08.bks.cpg/sg98_3_cif.got.tgz:5421.got - 2010.06.03 20:00:51.
