data_PCOD9551465
_publ_section_title
;
Structure prediction by ZEFSAII (Michael W. Deem and Ramdas Pophale) SiO2 
 PCOD9551465
Probable space group: I 4 2 2 
;
_chemical_formula_sum "Si O2"
_cell_formula_units_Z 88
_cell_length_a 11.531881
_cell_length_b 11.531881
_cell_length_c 31.158364
_cell_angle_alpha 90.000000
_cell_angle_beta 90.000000
_cell_angle_gamma 90.000000
_cell_volume 4143.572584
_symmetry_space_group_name_H-M "I 4 2 2 "
_symmetry_group_IT_number 97
_symmetry_cell_setting 'tetragonal'
loop_
_space_group_symop_operation_xyz
x,y,z
-y,x,z
-x,-y,z
y,-x,z
x,-y,-z
-x,y,-z
y,x,-z
-y,-x,-z
1/2+x,1/2+y,1/2+z
1/2-y,1/2+x,1/2+z
1/2-x,1/2-y,1/2+z
1/2+y,1/2-x,1/2+z
1/2+x,1/2-y,1/2-z
1/2-x,1/2+y,1/2-z
1/2+y,1/2+x,1/2-z
1/2-y,1/2-x,1/2-z
loop_
_atom_site_type_symbol
_atom_site_label
_atom_site_fract_x
_atom_site_fract_y
_atom_site_fract_z
Si Si1 0.495153 0.128911 0.889594
Si Si2 0.757082 0.151295 0.914870
Si Si3 0.957723 0.192852 0.685183
Si Si4 0.864505 0.138914 0.176698
Si Si5 0.800429 0.573349 0.456806
Si Si6 0.302923 0.197078 0.750000
O O1 0.621178 0.165451 0.906320
O O2 0.450847 0.227242 0.857239
O O3 0.415524 0.106183 0.930932
O O4 0.500000 0.000000 0.868076
O O5 0.818207 0.175175 0.869793
O O6 0.809814 0.226422 0.953217
O O7 0.772460 0.017992 0.928160
O O8 0.922432 0.276608 0.724691
O O9 0.084698 0.132900 0.686703
O O10 0.794682 0.203701 0.213541
O O11 0.001797 0.157937 0.180658
O O12 0.821878 0.500000 0.500000
#
# Coordination Sequence:
#
# PCOD9551465 Si02
#       6
#    16  16  16  16  16   8
#     4  10  23  41  69  98 138 184 236 287 355 424
#     4  11  22  41  68  97 137 182 225 282 348 423
#     4  11  24  46  69  99 141 187 245 302 361 431
#     4  11  23  41  66  94 134 177 224 284 354 415
#     4  11  23  41  66 103 142 182 227 284 350 421
#     4  12  24  38  65  97 134 180 228 288 358 431
#
# _framework density 21.237714
#
# number of rings (size 3 to 8) (size 9 to 14) (size 15 to 20)
#    0.000    1.091    1.818    4.909    2.545    5.091 
#    3.273    0.909    0.000    0.000    0.000    0.000 
#    0.000   32.727    0.000    0.000    0.000    0.000 
#
# Total GULP energy -245713.459373 kJ/mol
# GULP energy per Si atom -5584.396804 kJ/mol
# Density = 2.118938 g / cm^3
# Si number density = 21.237714 Si / 1000 Ang^3
#
#
#
# Elastic Constant Matrix: (Units=GPa)
#
#
# Indices 1 2 3 4 5 6 
#
# 1 94.7574 72.4962 57.1621 0.0000 0.0000 0.0000
# 2 72.4962 94.7571 57.1623 0.0000 0.0000 0.0000
# 3 57.1621 57.1623 159.7001 0.0000 0.0000 0.0000
# 4 0.0000 0.0000 0.0000 30.5207 0.0000 0.0000
# 5 0.0000 0.0000 0.0000 0.0000 30.5210 0.0000
# 6 0.0000 0.0000 0.0000 0.0000 0.0000 30.5718
#
#
#
# Elastic Compliance Matrix: (Units=1/GPa)
#
#
# Indices 1 2 3 4 5 6 
#
# 1 0.026418 -0.018503 -0.002833 0.000000 0.000000 0.000000
# 2 -0.018503 0.026419 -0.002833 0.000000 0.000000 0.000000
# 3 -0.002833 -0.002833 0.008290 0.000000 0.000000 0.000000
# 4 0.000000 0.000000 0.000000 0.032765 0.000000 0.000000
# 5 0.000000 0.000000 0.000000 0.000000 0.032764 0.000000
# 6 0.000000 0.000000 0.000000 0.000000 0.000000 0.032710
#
#
# Mechanical properties :
#
#
# Convention : Reuss Voigt Hill
#
# Bulk Modulus (GPa) = 78.19758 80.31731 79.25745
# Shear Modulus (GPa) = 23.58852 29.14897 26.36875
#
# Velocity S-wave (km/s) = 3.33632 3.70876 3.52746
# Velocity P-wave (km/s) = 7.19315 7.49935 7.34784
#
# Compressibility (1/GPa) = 0.01278812
#
# Stress axis : x y z
#
# Youngs Moduli (GPa) = 37.85234 37.85213 120.62750
#
# Poissons Ratio (x) = 0.70037 0.34176
# Poissons Ratio (y) = 0.70038 0.34178
# Poissons Ratio (z) = 0.10724 0.10725
#
# Static dielectric constant tensor:
#      x y z
#    x 1.803000 0.000000 0.000000 
#    y 0.000000 1.803000 0.000000 
#    z 0.000000 0.000000 1.788300 
# 
# From -- ./inp_files/8087.got.cif
#   From: 2010.05.17/outbox.cif.g08.bks.cpg/sg97_5_cif.got.tgz:8087.got - 2010.06.03 19:55:32.
