data_PCOD9551097
_publ_section_title
;
Structure prediction by ZEFSAII (Michael W. Deem and Ramdas Pophale) SiO2 
 PCOD9551097
Probable space group: P 43 21 2
;
_chemical_formula_sum "Si O2"
_cell_formula_units_Z 48
_cell_length_a 10.557087
_cell_length_b 10.557087
_cell_length_c 17.068202
_cell_angle_alpha 90.000000
_cell_angle_beta 90.000000
_cell_angle_gamma 90.000000
_cell_volume 1902.286716
_symmetry_space_group_name_H-M "P 43 21 2"
_symmetry_group_IT_number 96
_symmetry_cell_setting 'tetragonal'
loop_
_space_group_symop_operation_xyz
x,y,z
1/2-y,1/2+x,3/4+z
-x,-y,1/2+z
1/2+y,1/2-x,1/4+z
1/2+x,1/2-y,1/4-z
1/2-x,1/2+y,3/4-z
y,x,-z
-y,-x,1/2-z
loop_
_atom_site_type_symbol
_atom_site_label
_atom_site_fract_x
_atom_site_fract_y
_atom_site_fract_z
Si Si1 0.451559 0.886064 0.757186
Si Si2 0.724529 0.152998 0.852858
Si Si3 0.402440 0.642982 0.055003
Si Si4 0.197359 0.613325 0.594466
Si Si5 0.513038 0.848559 0.256447
Si Si6 0.382728 0.288379 0.896456
O O1 0.580405 0.914799 0.711512
O O2 0.472841 0.788854 0.828455
O O3 0.338211 0.860196 0.697751
O O4 0.431063 0.024279 0.794398
O O5 0.720841 0.294468 0.892741
O O6 0.635460 0.161569 0.775860
O O7 0.832125 0.049270 0.829984
O O8 0.654630 0.068165 0.919749
O O9 0.365306 0.497423 0.066656
O O10 0.382622 0.686345 0.965134
O O11 0.157645 0.744518 0.635743
O O12 0.573086 0.737505 0.307652
#
# Coordination Sequence:
#
# PCOD9551097 Si02
#       6
#     8   8   8   8   8   8
#     4  12  22  42  77 101 136 187 252 296 351 440
#     4  11  23  41  69 105 138 189 242 303 359 447
#     4  11  25  43  76 103 147 190 243 299 378 436
#     4  12  25  44  75 110 135 187 255 297 355 452
#     4  11  19  40  72  96 133 188 241 285 355 437
#     4  11  23  45  70  99 146 189 230 297 378 432
#
# _framework density 25.232790000000001
#
# number of rings (size 3 to 8) (size 9 to 14) (size 15 to 20)
#    0.000    0.667    8.333    0.500    0.000    2.667 
#    0.000    3.333    7.333    0.000    0.000    0.000 
#    0.000    0.000    0.000    0.000    0.000    0.000 
#
# Total GULP energy -267898.604359 kJ/mol
# GULP energy per Si atom -5581.220924 kJ/mol
# Density = 2.517536 g / cm^3
# Si number density = 25.232790 Si / 1000 Ang^3
#
#
#
# Elastic Constant Matrix: (Units=GPa)
#
#
# Indices 1 2 3 4 5 6 
#
# 1 64.2060 18.8218 13.6932 0.0000 0.0000 0.0000
# 2 18.8218 64.2060 13.6932 0.0000 0.0000 0.0000
# 3 13.6932 13.6932 116.0619 0.0000 0.0000 0.0000
# 4 0.0000 0.0000 0.0000 38.2870 0.0000 0.0000
# 5 0.0000 0.0000 0.0000 0.0000 38.2870 0.0000
# 6 0.0000 0.0000 0.0000 0.0000 0.0000 30.5064
#
#
#
# Elastic Compliance Matrix: (Units=1/GPa)
#
#
# Indices 1 2 3 4 5 6 
#
# 1 0.017283 -0.004751 -0.001479 0.000000 0.000000 0.000000
# 2 -0.004751 0.017283 -0.001479 0.000000 0.000000 0.000000
# 3 -0.001479 -0.001479 0.008965 0.000000 0.000000 0.000000
# 4 0.000000 0.000000 0.000000 0.026118 0.000000 0.000000
# 5 0.000000 0.000000 0.000000 0.000000 0.026118 0.000000
# 6 0.000000 0.000000 0.000000 0.000000 0.000000 0.032780
#
#
# Mechanical properties :
#
#
# Convention : Reuss Voigt Hill
#
# Bulk Modulus (GPa) = 35.56877 37.43224 36.50050
# Shear Modulus (GPa) = 32.60817 34.63381 33.62099
#
# Velocity S-wave (km/s) = 3.59875 3.70884 3.65421
# Velocity P-wave (km/s) = 5.60311 5.76261 5.68342
#
# Compressibility (1/GPa) = 0.02811455
#
# Stress axis : x y z
#
# Youngs Moduli (GPa) = 57.86036 57.86036 111.54528
#
# Poissons Ratio (x) = 0.27490 0.16492
# Poissons Ratio (y) = 0.27490 0.16492
# Poissons Ratio (z) = 0.08555 0.08555
#
# Static dielectric constant tensor:
#      x y z
#    x 2.048450 0.000000 0.000000 
#    y 0.000000 2.048450 0.000000 
#    z 0.000000 0.000000 2.058100 
# 
# From -- ./inp_files/3141.got.cif
#   From: 2010.05.17/outbox.cif.g08.bks.cpg/sg96_2_cif.got.tgz:3141.got - 2010.06.03 19:52:08.
