data_PCOD9551095
_publ_section_title
;
Structure prediction by ZEFSAII (Michael W. Deem and Ramdas Pophale) SiO2 
 PCOD9551095
Probable space group: P 43 21 2
;
_chemical_formula_sum "Si O2"
_cell_formula_units_Z 56
_cell_length_a 11.441760
_cell_length_b 11.441760
_cell_length_c 19.976641
_cell_angle_alpha 90.000000
_cell_angle_beta 90.000000
_cell_angle_gamma 90.000000
_cell_volume 2615.219421
_symmetry_space_group_name_H-M "P 43 21 2"
_symmetry_group_IT_number 96
_symmetry_cell_setting 'tetragonal'
loop_
_space_group_symop_operation_xyz
x,y,z
1/2-y,1/2+x,3/4+z
-x,-y,1/2+z
1/2+y,1/2-x,1/4+z
1/2+x,1/2-y,1/4-z
1/2-x,1/2+y,3/4-z
y,x,-z
-y,-x,1/2-z
loop_
_atom_site_type_symbol
_atom_site_label
_atom_site_fract_x
_atom_site_fract_y
_atom_site_fract_z
Si Si1 0.459065 0.954629 0.650851
Si Si2 0.298320 0.665513 0.531240
Si Si3 0.454158 0.545843 0.250000
Si Si4 0.336405 0.535113 0.661778
Si Si5 0.293451 0.411075 0.155288
Si Si6 0.404430 0.922624 0.040901
Si Si7 0.542912 0.734884 0.565181
Si Si8 0.722631 0.277370 0.250000
O O1 0.321108 0.952187 0.634900
O O2 0.511831 0.958120 0.725552
O O3 0.508361 0.834883 0.617645
O O4 0.515689 0.055237 0.605067
O O5 0.309583 0.559921 0.585074
O O6 0.240053 0.785922 0.559839
O O7 0.212841 0.618923 0.474666
O O8 0.432718 0.699293 0.520882
O O9 0.554292 0.530952 0.192855
O O10 0.338206 0.507312 0.208944
O O11 0.222049 0.479283 0.694633
O O12 0.348645 0.669230 0.688825
O O13 0.397823 0.372699 0.104901
O O14 0.644525 0.788368 0.520057
#
# Coordination Sequence:
#
# PCOD9551095 Si02
#       8
#     8   8   4   8   8   8   8   4
#     4  11  24  33  60  86 122 161 196 246 306 355
#     4  11  21  32  54  88 119 152 195 244 303 358
#     4  11  20  32  58  77 122 152 194 241 298 356
#     4  11  19  30  55  90 112 157 184 241 317 340
#     4  11  20  34  53  86 119 154 197 245 296 365
#     4  12  19  39  55  88 119 156 196 245 295 360
#     4  11  20  33  53  91 118 152 195 248 302 349
#     4  11  18  30  52  77 124 148 182 237 304 346
#
# _framework density 21.413117
#
# number of rings (size 3 to 8) (size 9 to 14) (size 15 to 20)
#    0.000    0.857    8.571    0.857    4.000    0.000 
#    0.000    0.000    3.143    2.571    0.000    0.000 
#    0.000    0.000    0.000    0.000    0.000    0.000 
#
# Total GULP energy -312538.162496 kJ/mol
# GULP energy per Si atom -5581.038616 kJ/mol
# Density = 2.136438 g / cm^3
# Si number density = 21.413117 Si / 1000 Ang^3
#
#
#
# Elastic Constant Matrix: (Units=GPa)
#
#
# Indices 1 2 3 4 5 6 
#
# 1 57.6088 -4.5719 -10.1635 0.0000 0.0000 0.0000
# 2 -4.5719 57.6088 -10.1635 0.0000 0.0000 0.0000
# 3 -10.1635 -10.1635 19.1670 0.0000 0.0000 0.0000
# 4 0.0000 0.0000 0.0000 25.3438 0.0000 0.0000
# 5 0.0000 0.0000 0.0000 0.0000 25.3436 0.0000
# 6 0.0000 0.0000 0.0000 0.0000 0.0000 22.7857
#
#
#
# Elastic Compliance Matrix: (Units=1/GPa)
#
#
# Indices 1 2 3 4 5 6 
#
# 1 0.019873 0.003791 0.012548 0.000000 0.000000 0.000000
# 2 0.003791 0.019873 0.012548 0.000000 0.000000 0.000000
# 3 0.012548 0.012548 0.065481 0.000000 0.000000 0.000000
# 4 0.000000 0.000000 0.000000 0.039457 0.000000 0.000000
# 5 0.000000 0.000000 0.000000 0.000000 0.039458 0.000000
# 6 0.000000 0.000000 0.000000 0.000000 0.000000 0.043887
#
#
# Mechanical properties :
#
#
# Convention : Reuss Voigt Hill
#
# Bulk Modulus (GPa) = 6.13493 9.39852 7.76673
# Shear Modulus (GPa) = 22.26295 25.31353 23.78824
#
# Velocity S-wave (km/s) = 3.22792 3.44197 3.33666
# Velocity P-wave (km/s) = 4.09437 4.49387 4.29876
#
# Compressibility (1/GPa) = 0.16300113
#
# Stress axis : x y z
#
# Youngs Moduli (GPa) = 50.31935 50.31929 15.27169
#
# Poissons Ratio (x) = -0.19076 -0.19163
# Poissons Ratio (y) = -0.19076 -0.19163
# Poissons Ratio (z) = -0.63141 -0.63141
#
# Static dielectric constant tensor:
#      x y z
#    x 1.816180 0.000000 0.000000 
#    y 0.000000 1.816180 0.000000 
#    z 0.000000 0.000000 1.854050 
# 
# From -- ./inp_files/3948.got.cif
#   From: 2010.05.17/outbox.cif.g08.bks.cpg/sg96_2_cif.got.tgz:3948.got - 2010.06.03 19:52:08.
