data_PCOD9551177
_publ_section_title
;
Structure prediction by ZEFSAII (Michael W. Deem and Ramdas Pophale) SiO2 
 PCOD9551177
Probable space group: P 43 21 2
;
_chemical_formula_sum "Si O2"
_cell_formula_units_Z 24
_cell_length_a 8.327469
_cell_length_b 8.327469
_cell_length_c 12.098271
_cell_angle_alpha 90.000000
_cell_angle_beta 90.000000
_cell_angle_gamma 90.000000
_cell_volume 838.975653
_symmetry_space_group_name_H-M "P 43 21 2"
_symmetry_group_IT_number 96
_symmetry_cell_setting 'tetragonal'
loop_
_space_group_symop_operation_xyz
x,y,z
1/2-y,1/2+x,3/4+z
-x,-y,1/2+z
1/2+y,1/2-x,1/4+z
1/2+x,1/2-y,1/4-z
1/2-x,1/2+y,3/4-z
y,x,-z
-y,-x,1/2-z
loop_
_atom_site_type_symbol
_atom_site_label
_atom_site_fract_x
_atom_site_fract_y
_atom_site_fract_z
Si Si1 0.537810 0.216340 0.479280
Si Si2 0.990527 0.745726 0.035642
Si Si3 0.277977 0.105625 0.900355
O O1 0.444008 0.267643 0.592304
O O2 0.387587 0.134648 0.420734
O O3 0.432797 0.169533 0.200379
O O4 0.627195 0.372213 0.431597
O O5 0.908448 0.908448 0.000000
O O6 0.081154 0.667536 0.931944
O O7 0.225424 0.225424 0.000000
#
# Coordination Sequence:
#
# PCOD9551177 Si02
#       3
#     8   8   8
#     4  12  26  50  78 109 155 203 261 328 394 468
#     4  12  26  48  76 113 155 200 260 329 391 471
#     4  12  26  51  80 112 155 210 265 326 395 473
#
# _framework density 28.606314999999999
#
# number of rings (size 3 to 8) (size 9 to 14) (size 15 to 20)
#    0.000    0.000    6.667    2.000    4.667    1.333 
#    6.000    0.000    0.000    0.000    0.000    0.000 
#    0.000    0.000    0.000    0.000    0.000    0.000 
#
# Total GULP energy -133635.073246 kJ/mol
# GULP energy per Si atom -5568.128052 kJ/mol
# Density = 2.854121 g / cm^3
# Si number density = 28.606315 Si / 1000 Ang^3
#
#
#
# Elastic Constant Matrix: (Units=GPa)
#
#
# Indices 1 2 3 4 5 6 
#
# 1 108.4377 56.9079 39.4271 0.0000 0.0000 0.0000
# 2 56.9079 108.4377 39.4271 0.0000 0.0000 0.0000
# 3 39.4271 39.4271 164.3933 0.0000 0.0000 0.0000
# 4 0.0000 0.0000 0.0000 35.3333 0.0000 0.0000
# 5 0.0000 0.0000 0.0000 0.0000 35.3333 0.0000
# 6 0.0000 0.0000 0.0000 0.0000 0.0000 22.6427
#
#
#
# Elastic Compliance Matrix: (Units=1/GPa)
#
#
# Indices 1 2 3 4 5 6 
#
# 1 0.013118 -0.006289 -0.001638 0.000000 0.000000 0.000000
# 2 -0.006289 0.013118 -0.001638 0.000000 0.000000 0.000000
# 3 -0.001638 -0.001638 0.006869 0.000000 0.000000 0.000000
# 4 0.000000 0.000000 0.000000 0.028302 0.000000 0.000000
# 5 0.000000 0.000000 0.000000 0.000000 0.028302 0.000000
# 6 0.000000 0.000000 0.000000 0.000000 0.000000 0.044164
#
#
# Mechanical properties :
#
#
# Convention : Reuss Voigt Hill
#
# Bulk Modulus (GPa) = 71.55472 72.53252 72.04362
# Shear Modulus (GPa) = 31.71399 35.02895 33.37147
#
# Velocity S-wave (km/s) = 3.33323 3.50311 3.41922
# Velocity P-wave (km/s) = 6.31521 6.46319 6.38963
#
# Compressibility (1/GPa) = 0.01397532
#
# Stress axis : x y z
#
# Youngs Moduli (GPa) = 76.23318 76.23318 145.59032
#
# Poissons Ratio (x) = 0.47940 0.23845
# Poissons Ratio (y) = 0.47940 0.23845
# Poissons Ratio (z) = 0.12486 0.12486
#
# Static dielectric constant tensor:
#      x y z
#    x 2.487500 0.000000 0.000000 
#    y 0.000000 2.487500 0.000000 
#    z 0.000000 0.000000 2.647050 
# 
# From -- ./inp_files/974.got.cif
#   From: 2010.05.17/outbox.cif.g08.bks.cpg/sg96_1_cif.got.tgz:974.got - 2010.06.03 19:52:08.
