data_PCOD9551480
_publ_section_title
;
Structure prediction by ZEFSAII (Michael W. Deem and Ramdas Pophale) SiO2 
 PCOD9551480
Probable space group: I 4 2 2 
;
_chemical_formula_sum "Si O2"
_cell_formula_units_Z 96
_cell_length_a 14.602236
_cell_length_b 14.602236
_cell_length_c 20.924366
_cell_angle_alpha 90.000000
_cell_angle_beta 90.000000
_cell_angle_gamma 90.000000
_cell_volume 4461.604138
_symmetry_space_group_name_H-M "I 4 2 2 "
_symmetry_group_IT_number 97
_symmetry_cell_setting 'tetragonal'
loop_
_space_group_symop_operation_xyz
x,y,z
-y,x,z
-x,-y,z
y,-x,z
x,-y,-z
-x,y,-z
y,x,-z
-y,-x,-z
1/2+x,1/2+y,1/2+z
1/2-y,1/2+x,1/2+z
1/2-x,1/2-y,1/2+z
1/2+y,1/2-x,1/2+z
1/2+x,1/2-y,1/2-z
1/2-x,1/2+y,1/2-z
1/2+y,1/2+x,1/2-z
1/2-y,1/2-x,1/2-z
loop_
_atom_site_type_symbol
_atom_site_label
_atom_site_fract_x
_atom_site_fract_y
_atom_site_fract_z
Si Si1 0.310275 0.661917 0.848220
Si Si2 0.754333 0.101535 0.476740
Si Si3 0.389577 0.610424 0.500000
Si Si4 0.648720 0.148720 0.250000
Si Si5 0.051082 0.335519 0.803824
Si Si6 0.788874 0.350682 0.424149
Si Si7 0.938939 0.135712 0.244555
O O1 0.240983 0.651784 0.790271
O O2 0.302461 0.760395 0.881075
O O3 0.411368 0.646034 0.819559
O O4 0.267993 0.596774 0.901475
O O5 0.845966 0.154035 0.500000
O O6 0.672434 0.160695 0.508594
O O7 0.746428 0.000000 0.500000
O O8 0.376392 0.500000 0.500000
O O9 0.318339 0.636510 0.442481
O O10 0.556485 0.150355 0.291846
O O11 0.101633 0.398368 0.750000
O O12 0.074426 0.338921 0.879432
O O13 0.083030 0.232154 0.786694
O O14 0.043718 0.114747 0.227025
#
# Coordination Sequence:
#
# PCOD9551480 Si02
#       7
#    16  16   8   8  16  16  16
#     4  11  22  44  68  98 141 180 229 291 350 420
#     4  10  24  42  69 100 137 186 235 285 349 422
#     4  11  26  48  74 106 137 172 238 304 351 418
#     4  12  27  42  70 104 134 195 226 294 352 423
#     4  12  26  44  68  99 147 186 236 288 350 427
#     4  11  24  45  70 101 138 192 232 285 354 426
#     4  11  24  41  68 104 137 177 229 291 357 416
#
# _framework density 21.516925000000001
#
# number of rings (size 3 to 8) (size 9 to 14) (size 15 to 20)
#    0.000    0.917    5.833    1.250    9.333    0.167 
#    0.000    1.667    0.000    1.000    0.000    0.000 
#    0.000    0.000    0.000    0.000    0.000    0.000 
#
# Total GULP energy -267486.439790 kJ/mol
# GULP energy per Si atom -5572.634162 kJ/mol
# Density = 2.146795 g / cm^3
# Si number density = 21.516925 Si / 1000 Ang^3
#
#
#
# Elastic Constant Matrix: (Units=GPa)
#
#
# Indices 1 2 3 4 5 6 
#
# 1 78.2227 -7.5303 -1.5739 0.0000 0.0000 0.0000
# 2 -7.5303 78.2207 -1.5699 0.0000 0.0000 0.0000
# 3 -1.5739 -1.5699 39.0080 0.0000 0.0000 0.0000
# 4 0.0000 0.0000 0.0000 25.9299 0.0000 0.0000
# 5 0.0000 0.0000 0.0000 0.0000 25.9292 0.0000
# 6 0.0000 0.0000 0.0000 0.0000 0.0000 29.7116
#
#
#
# Elastic Compliance Matrix: (Units=1/GPa)
#
#
# Indices 1 2 3 4 5 6 
#
# 1 0.012916 0.001255 0.000572 0.000000 0.000000 0.000000
# 2 0.001255 0.012917 0.000570 0.000000 0.000000 0.000000
# 3 0.000572 0.000570 0.025682 0.000000 0.000000 0.000000
# 4 0.000000 0.000000 0.000000 0.038565 0.000000 0.000000
# 5 0.000000 0.000000 0.000000 0.000000 0.038567 0.000000
# 6 0.000000 0.000000 0.000000 0.000000 0.000000 0.033657
#
#
# Mechanical properties :
#
#
# Convention : Reuss Voigt Hill
#
# Bulk Modulus (GPa) = 17.75921 19.34481 18.55201
# Shear Modulus (GPa) = 28.36409 30.05584 29.20997
#
# Velocity S-wave (km/s) = 3.63467 3.74150 3.68847
# Velocity P-wave (km/s) = 5.08783 5.26071 5.17499
#
# Compressibility (1/GPa) = 0.05630880
#
# Stress axis : x y z
#
# Youngs Moduli (GPa) = 77.42143 77.41976 38.93807
#
# Poissons Ratio (x) = -0.09716 -0.02226
# Poissons Ratio (y) = -0.09716 -0.02221
# Poissons Ratio (z) = -0.04426 -0.04417
#
# Static dielectric constant tensor:
#      x y z
#    x 1.789420 0.000000 0.000000 
#    y 0.000000 1.789420 0.000000 
#    z 0.000000 0.000000 1.826950 
# 
# From -- ./inp_files/6653.got.cif
#   From: 2010.05.17/outbox.cif.g08.bks.cpg/sg97_4_cif.got.tgz:6653.got - 2010.06.03 19:55:32.
