data_PCOD9551185
_publ_section_title
;
Structure prediction by ZEFSAII (Michael W. Deem and Ramdas Pophale) SiO2 
 PCOD9551185
Probable space group: P 43 21 2
;
_chemical_formula_sum "Si O2"
_cell_formula_units_Z 24
_cell_length_a 7.095273
_cell_length_b 7.095273
_cell_length_c 17.674150
_cell_angle_alpha 90.000000
_cell_angle_beta 90.000000
_cell_angle_gamma 90.000000
_cell_volume 889.767947
_symmetry_space_group_name_H-M "P 43 21 2"
_symmetry_group_IT_number 96
_symmetry_cell_setting 'tetragonal'
loop_
_space_group_symop_operation_xyz
x,y,z
1/2-y,1/2+x,3/4+z
-x,-y,1/2+z
1/2+y,1/2-x,1/4+z
1/2+x,1/2-y,1/4-z
1/2-x,1/2+y,3/4-z
y,x,-z
-y,-x,1/2-z
loop_
_atom_site_type_symbol
_atom_site_label
_atom_site_fract_x
_atom_site_fract_y
_atom_site_fract_z
Si Si1 0.712547 0.533186 0.620246
Si Si2 0.663585 0.050118 0.481676
Si Si3 0.800492 0.106811 0.649534
O O1 0.480304 0.506161 0.409970
O O2 0.353207 0.869494 0.688706
O O3 0.797743 0.330988 0.641951
O O4 0.669850 0.670271 0.690839
O O5 0.716331 0.034133 0.569001
O O6 0.474892 0.166339 0.463787
#
# Coordination Sequence:
#
# PCOD9551185 Si02
#       3
#     8   8   8
#     4  12  27  52  79 118 161 213 273 337 408 496
#     4  12  29  49  82 122 166 216 275 349 418 488
#     4  12  29  50  83 120 162 215 280 342 419 487
#
# _framework density 26.973324999999999
#
# number of rings (size 3 to 8) (size 9 to 14) (size 15 to 20)
#    0.000    0.000    6.667    1.000    4.667    6.667 
#    0.000    0.000    0.000    0.000    0.000    0.000 
#    0.000    0.000    0.000    0.000    0.000    0.000 
#
# Total GULP energy -134966.708126 kJ/mol
# GULP energy per Si atom -5623.612839 kJ/mol
# Density = 2.691193 g / cm^3
# Si number density = 26.973325 Si / 1000 Ang^3
#
#
#
# Elastic Constant Matrix: (Units=GPa)
#
#
# Indices 1 2 3 4 5 6 
#
# 1 167.5930 25.6755 55.8688 0.0000 0.0000 0.0000
# 2 25.6755 167.5930 55.8688 0.0000 0.0000 0.0000
# 3 55.8688 55.8688 184.3908 0.0000 0.0000 0.0000
# 4 0.0000 0.0000 0.0000 24.1680 0.0000 0.0000
# 5 0.0000 0.0000 0.0000 0.0000 24.1680 0.0000
# 6 0.0000 0.0000 0.0000 0.0000 0.0000 52.8285
#
#
#
# Elastic Compliance Matrix: (Units=1/GPa)
#
#
# Indices 1 2 3 4 5 6 
#
# 1 0.006660 -0.000387 -0.001901 0.000000 0.000000 0.000000
# 2 -0.000387 0.006660 -0.001901 0.000000 0.000000 0.000000
# 3 -0.001901 -0.001901 0.006575 0.000000 0.000000 0.000000
# 4 0.000000 0.000000 0.000000 0.041377 0.000000 0.000000
# 5 0.000000 0.000000 0.000000 0.000000 0.041377 0.000000
# 6 0.000000 0.000000 0.000000 0.000000 0.000000 0.018929
#
#
# Mechanical properties :
#
#
# Convention : Reuss Voigt Hill
#
# Bulk Modulus (GPa) = 86.81769 88.26701 87.54235
# Shear Modulus (GPa) = 37.37111 45.71048 41.54080
#
# Velocity S-wave (km/s) = 3.72625 4.12108 3.92863
# Velocity P-wave (km/s) = 7.12528 7.44576 7.28728
#
# Compressibility (1/GPa) = 0.01151839
#
# Stress axis : x y z
#
# Youngs Moduli (GPa) = 150.15735 150.15735 152.09047
#
# Poissons Ratio (x) = 0.05806 0.28907
# Poissons Ratio (y) = 0.05806 0.28907
# Poissons Ratio (z) = 0.28540 0.28540
#
# Static dielectric constant tensor:
#      x y z
#    x 2.078890 0.000000 0.000000 
#    y 0.000000 2.078890 0.000000 
#    z 0.000000 0.000000 2.049900 
# 
# From -- ./inp_files/2446.got.cif
#   From: 2010.05.17/outbox.cif.g08.bks.cpg/sg96_2_cif.got.tgz:2446.got - 2010.06.03 19:52:08.
