data_PCOD9551878
_publ_section_title
;
Structure prediction by ZEFSAII (Michael W. Deem and Ramdas Pophale) SiO2 
 PCOD9551878
Probable space group: I 41 2 2
;
_chemical_formula_sum "Si O2"
_cell_formula_units_Z 88
_cell_length_a 11.856429
_cell_length_b 11.856429
_cell_length_c 28.309331
_cell_angle_alpha 90.000000
_cell_angle_beta 90.000000
_cell_angle_gamma 90.000000
_cell_volume 3979.581619
_symmetry_space_group_name_H-M "I 41 2 2"
_symmetry_group_IT_number 98
_symmetry_cell_setting 'tetragonal'
loop_
_space_group_symop_operation_xyz
x,y,z
-y,1/2+x,1/4+z
-x,-y,z
y,1/2-x,1/4+z
x,1/2-y,1/4-z
-x,1/2+y,1/4-z
y,x,-z
-y,-x,-z
1/2+x,1/2+y,1/2+z
1/2-y,x,3/4+z
1/2-x,1/2-y,1/2+z
1/2+y,-x,3/4+z
1/2+x,-y,3/4-z
1/2-x,y,3/4-z
1/2+y,1/2+x,1/2-z
1/2-y,1/2-x,1/2-z
loop_
_atom_site_type_symbol
_atom_site_label
_atom_site_fract_x
_atom_site_fract_y
_atom_site_fract_z
Si Si1 0.867900 0.114849 0.442944
Si Si2 0.573039 0.738170 0.814911
Si Si3 0.285460 0.673322 0.555234
Si Si4 0.632682 0.623942 0.087782
Si Si5 0.478140 0.374942 0.605477
Si Si6 0.240942 0.259059 0.750000
O O1 0.883679 0.116322 0.500000
O O2 0.781124 0.212800 0.429837
O O3 0.989782 0.132854 0.420905
O O4 0.830815 0.991880 0.424737
O O5 0.440796 0.715053 0.813266
O O6 0.632864 0.673966 0.858405
O O7 0.632255 0.713804 0.765511
O O8 0.592662 0.871777 0.822949
O O9 0.311743 0.688258 0.500000
O O10 0.403597 0.655521 0.581173
O O11 0.712159 0.671042 0.046630
O O12 0.500000 0.500000 0.631051
O O13 0.444180 0.250000 0.625000
#
# Coordination Sequence:
#
# PCOD9551878 Si02
#       6
#    16  16  16  16  16   8
#     4  10  21  45  69 100 142 180 240 295 368 418
#     4  11  25  42  68 107 135 187 244 290 362 447
#     4  10  23  43  71 100 136 183 236 299 365 426
#     4  11  22  43  69 101 135 194 231 293 365 434
#     4  10  22  41  65  99 137 180 235 295 364 427
#     4  12  22  43  67  90 150 182 234 288 362 424
#
# _framework density 22.112877000000001
#
# number of rings (size 3 to 8) (size 9 to 14) (size 15 to 20)
#    0.000    1.455    1.818    3.273    5.091    2.545 
#   13.091    0.000    4.000    0.000    0.000    0.000 
#    0.000    0.000    0.000    0.000    0.000    0.000 
#
# Total GULP energy -245587.658667 kJ/mol
# GULP energy per Si atom -5581.537697 kJ/mol
# Density = 2.206255 g / cm^3
# Si number density = 22.112877 Si / 1000 Ang^3
#
#
#
# Elastic Constant Matrix: (Units=GPa)
#
#
# Indices 1 2 3 4 5 6 
#
# 1 83.0268 49.2395 20.8096 0.0000 0.0000 0.0000
# 2 49.2395 83.0300 20.8084 0.0000 0.0000 0.0000
# 3 20.8096 20.8084 90.9939 0.0000 0.0000 0.0000
# 4 0.0000 0.0000 0.0000 21.6194 0.0000 0.0000
# 5 0.0000 0.0000 0.0000 0.0000 21.6204 0.0000
# 6 0.0000 0.0000 0.0000 0.0000 0.0000 40.9608
#
#
#
# Elastic Compliance Matrix: (Units=1/GPa)
#
#
# Indices 1 2 3 4 5 6 
#
# 1 0.018872 -0.010724 -0.001863 0.000000 0.000000 0.000000
# 2 -0.010724 0.018871 -0.001863 0.000000 0.000000 0.000000
# 3 -0.001863 -0.001863 0.011842 0.000000 0.000000 0.000000
# 4 0.000000 0.000000 0.000000 0.046255 0.000000 0.000000
# 5 0.000000 0.000000 0.000000 0.000000 0.046253 0.000000
# 6 0.000000 0.000000 0.000000 0.000000 0.000000 0.024414
#
#
# Mechanical properties :
#
#
# Convention : Reuss Voigt Hill
#
# Bulk Modulus (GPa) = 48.34888 48.75174 48.55031
# Shear Modulus (GPa) = 24.71575 27.91967 26.31771
#
# Velocity S-wave (km/s) = 3.34684 3.55716 3.45360
# Velocity P-wave (km/s) = 6.07019 6.24226 6.15683
#
# Compressibility (1/GPa) = 0.02068300
#
# Stress axis : x y z
#
# Youngs Moduli (GPa) = 52.98994 52.99252 84.44638
#
# Poissons Ratio (x) = 0.56831 0.15735
# Poissons Ratio (y) = 0.56829 0.15730
# Poissons Ratio (z) = 0.09874 0.09871
#
# Static dielectric constant tensor:
#      x y z
#    x 1.854280 0.000000 0.000000 
#    y 0.000000 1.854280 0.000000 
#    z 0.000000 0.000000 1.803990 
# 
# From -- ./inp_files/11953.got.cif
#   From: 2010.05.17/outbox.cif.g08.bks.cpg/sg98_6_cif.got.tgz:11953.got - 2010.06.03 20:00:51.
