data_PCOD9551650
_publ_section_title
;
Structure prediction by ZEFSAII (Michael W. Deem and Ramdas Pophale) SiO2 
 PCOD9551650
Probable space group: I 41 2 2
;
_chemical_formula_sum "Si O2"
_cell_formula_units_Z 96
_cell_length_a 16.363457
_cell_length_b 16.363457
_cell_length_c 25.679564
_cell_angle_alpha 90.000000
_cell_angle_beta 90.000000
_cell_angle_gamma 90.000000
_cell_volume 6876.030033
_symmetry_space_group_name_H-M "I 41 2 2"
_symmetry_group_IT_number 98
_symmetry_cell_setting 'tetragonal'
loop_
_space_group_symop_operation_xyz
x,y,z
-y,1/2+x,1/4+z
-x,-y,z
y,1/2-x,1/4+z
x,1/2-y,1/4-z
-x,1/2+y,1/4-z
y,x,-z
-y,-x,-z
1/2+x,1/2+y,1/2+z
1/2-y,x,3/4+z
1/2-x,1/2-y,1/2+z
1/2+y,-x,3/4+z
1/2+x,-y,3/4-z
1/2-x,y,3/4-z
1/2+y,1/2+x,1/2-z
1/2-y,1/2-x,1/2-z
loop_
_atom_site_type_symbol
_atom_site_label
_atom_site_fract_x
_atom_site_fract_y
_atom_site_fract_z
Si Si1 0.370428 0.721967 0.337255
Si Si2 0.506849 0.797074 0.177947
Si Si3 0.091302 0.408699 0.750000
Si Si4 0.083129 0.649837 0.516550
Si Si5 0.106339 0.543124 0.662142
Si Si6 0.000000 0.000000 0.679030
Si Si7 0.815599 0.237112 0.947341
O O1 0.404262 0.657915 0.295395
O O2 0.427861 0.800942 0.339061
O O3 0.280901 0.749161 0.315781
O O4 0.355400 0.696231 0.396764
O O5 0.528509 0.750000 0.125000
O O6 0.581784 0.832040 0.211545
O O7 0.455346 0.734180 0.212766
O O8 0.449622 0.875296 0.164699
O O9 0.093554 0.487398 0.712574
O O10 0.173784 0.645595 0.542058
O O11 0.025235 0.577067 0.535997
O O12 0.075854 0.493064 0.611564
O O13 0.815338 0.184663 0.000000
#
# Coordination Sequence:
#
# PCOD9551650 Si02
#       7
#    16  16   8  16  16   8  16
#     4  10  18  28  45  63  90 131 157 185 228 268
#     4  12  19  29  41  61  93 132 161 195 219 258
#     4  12  23  28  42  68  94 132 170 188 211 272
#     4  11  20  29  43  61  98 127 159 189 230 272
#     4  12  19  28  42  61  95 132 169 180 215 271
#     4  12  22  29  40  66  93 130 160 194 224 274
#     4   9  17  28  45  67  89 120 161 188 224 282
#
# _framework density 13.961544
#
# number of rings (size 3 to 8) (size 9 to 14) (size 15 to 20)
#    0.000    1.000    8.333    1.000    0.000    0.000 
#    0.000    0.000    0.000    0.000    0.000    0.583 
#   10.000    0.000    0.000    0.000    0.000    0.000 
#
# Total GULP energy -267508.044512 kJ/mol
# GULP energy per Si atom -5573.084261 kJ/mol
# Density = 1.392977 g / cm^3
# Si number density = 13.961544 Si / 1000 Ang^3
#
#
#
# Elastic Constant Matrix: (Units=GPa)
#
#
# Indices 1 2 3 4 5 6 
#
# 1 43.1735 23.2961 38.3041 0.0000 0.0000 0.0000
# 2 23.2961 43.1738 38.3043 0.0000 0.0000 0.0000
# 3 38.3041 38.3043 137.5450 0.0000 0.0000 0.0000
# 4 0.0000 0.0000 0.0000 24.8758 0.0000 0.0000
# 5 0.0000 0.0000 0.0000 0.0000 24.8758 0.0000
# 6 0.0000 0.0000 0.0000 0.0000 0.0000 13.0300
#
#
#
# Elastic Compliance Matrix: (Units=1/GPa)
#
#
# Indices 1 2 3 4 5 6 
#
# 1 0.036232 -0.014076 -0.006170 0.000000 0.000000 0.000000
# 2 -0.014076 0.036232 -0.006170 0.000000 0.000000 0.000000
# 3 -0.006170 -0.006170 0.010707 0.000000 0.000000 0.000000
# 4 0.000000 0.000000 0.000000 0.040200 0.000000 0.000000
# 5 0.000000 0.000000 0.000000 0.000000 0.040200 0.000000
# 6 0.000000 0.000000 0.000000 0.000000 0.000000 0.076746
#
#
# Mechanical properties :
#
#
# Convention : Reuss Voigt Hill
#
# Bulk Modulus (GPa) = 32.96201 47.07794 40.01998
# Shear Modulus (GPa) = 16.48745 20.82218 18.65482
#
# Velocity S-wave (km/s) = 3.44018 3.86605 3.65931
# Velocity P-wave (km/s) = 6.28014 7.32949 6.82501
#
# Compressibility (1/GPa) = 0.03033795
#
# Stress axis : x y z
#
# Youngs Moduli (GPa) = 27.59993 27.60016 93.39824
#
# Poissons Ratio (x) = 0.38851 0.57627
# Poissons Ratio (y) = 0.38851 0.57626
# Poissons Ratio (z) = 0.17029 0.17029
#
# Static dielectric constant tensor:
#      x y z
#    x 1.451050 0.000000 0.000000 
#    y 0.000000 1.451050 0.000000 
#    z 0.000000 0.000000 1.519450 
# 
# From -- ./inp_files/10944.got.cif
#   From: 2010.05.17/outbox.cif.g08.bks.cpg/sg98_6_cif.got.tgz:10944.got - 2010.06.03 20:00:51.
