data_PCOD9551600
_publ_section_title
;
Structure prediction by ZEFSAII (Michael W. Deem and Ramdas Pophale) SiO2 
 PCOD9551600
Probable space group: I 4 2 2 
;
_chemical_formula_sum "Si O2"
_cell_formula_units_Z 48
_cell_length_a 13.923078
_cell_length_b 13.923078
_cell_length_c 11.775247
_cell_angle_alpha 90.000000
_cell_angle_beta 90.000000
_cell_angle_gamma 90.000000
_cell_volume 2282.656371
_symmetry_space_group_name_H-M "I 4 2 2 "
_symmetry_group_IT_number 97
_symmetry_cell_setting 'tetragonal'
loop_
_space_group_symop_operation_xyz
x,y,z
-y,x,z
-x,-y,z
y,-x,z
x,-y,-z
-x,y,-z
y,x,-z
-y,-x,-z
1/2+x,1/2+y,1/2+z
1/2-y,1/2+x,1/2+z
1/2-x,1/2-y,1/2+z
1/2+y,1/2-x,1/2+z
1/2+x,1/2-y,1/2-z
1/2-x,1/2+y,1/2-z
1/2+y,1/2+x,1/2-z
1/2-y,1/2-x,1/2-z
loop_
_atom_site_type_symbol
_atom_site_label
_atom_site_fract_x
_atom_site_fract_y
_atom_site_fract_z
Si Si1 0.392452 0.235200 0.534017
Si Si2 0.888388 0.611613 0.250000
Si Si3 0.170315 0.579679 0.144603
Si Si4 0.000000 0.838714 0.500000
O O1 0.500000 0.264607 0.500000
O O2 0.316226 0.316226 0.500000
O O3 0.387572 0.201949 0.664671
O O4 0.366577 0.140348 0.461618
O O5 0.887648 0.514369 0.178686
O O6 0.154130 0.654130 0.250000
O O7 0.270244 0.530107 0.105599
O O8 0.091505 0.908496 0.500000
#
# Coordination Sequence:
#
# PCOD9551600 Si02
#       4
#    16   8  16   8
#     4  12  28  46  72 106 147 196 251 307 378 455
#     4  12  25  44  76 106 144 191 242 312 383 446
#     4  12  25  43  75 109 146 190 251 318 377 454
#     4  11  26  50  75 108 156 208 261 318 383 468
#
# _framework density 21.028133
#
# number of rings (size 3 to 8) (size 9 to 14) (size 15 to 20)
#    0.000    0.167    6.667    1.500    2.333    1.667 
#    0.000    0.000    0.000    0.000    0.000    0.000 
#    0.000    0.000    0.000    0.000    0.000    0.000 
#
# Total GULP energy -133880.579434 kJ/mol
# GULP energy per Si atom -5578.357476 kJ/mol
# Density = 2.098027 g / cm^3
# Si number density = 21.028133 Si / 1000 Ang^3
#
#
#
# Elastic Constant Matrix: (Units=GPa)
#
#
# Indices 1 2 3 4 5 6 
#
# 1 146.2860 95.0829 55.7954 0.0000 0.0000 0.0000
# 2 95.0829 146.2868 55.7957 0.0000 0.0000 0.0000
# 3 55.7954 55.7957 118.3090 0.0000 0.0000 0.0000
# 4 0.0000 0.0000 0.0000 15.0777 0.0000 0.0000
# 5 0.0000 0.0000 0.0000 0.0000 15.0866 0.0000
# 6 0.0000 0.0000 0.0000 0.0000 0.0000-1014.2722
#
#
#
# Elastic Compliance Matrix: (Units=1/GPa)
#
#
# Indices 1 2 3 4 5 6 
#
# 1 0.012414 -0.007116 -0.002499 0.000000 0.000000 0.000000
# 2 -0.007116 0.012414 -0.002499 0.000000 0.000000 0.000000
# 3 -0.002499 -0.002499 0.010809 0.000000 0.000000 0.000000
# 4 0.000000 0.000000 0.000000 0.066323 0.000000 0.000000
# 5 0.000000 0.000000 0.000000 0.000000 0.066284 0.000000
# 6 0.000000 0.000000 0.000000 0.000000 0.000000 -0.000986
#
#
# Mechanical properties :
#
#
# Convention : Reuss Voigt Hill
#
# Bulk Modulus (GPa) = 87.63510 91.58108 89.60809
# Shear Modulus (GPa) = 25.60315 -183.20771 -78.80228
#
# Velocity S-wave (km/s) = 3.49315 -9.34421 -6.12830
# Velocity P-wave (km/s) = 7.61808 8.53069 2.71455
#
# Compressibility (1/GPa) = 0.01141095
#
# Stress axis : x y z
#
# Youngs Moduli (GPa) = 80.55350 80.55389 92.51330
#
# Poissons Ratio (x) = 0.57321 0.23116
# Poissons Ratio (y) = 0.57321 0.23116
# Poissons Ratio (z) = 0.20128 0.20128
#
# Static dielectric constant tensor:
#      x y z
#    x 1.774390 0.000000 0.000000 
#    y 0.000000 1.774390 0.000000 
#    z 0.000000 0.000000 1.920110 
# 
# From -- ./inp_files/3190.got.cif
#   From: 2010.05.17/outbox.cif.g08.bks.cpg/sg97_2_cif.got.tgz:3190.got - 2010.06.03 19:55:32.
