data_PCOD9551288
_publ_section_title
;
Structure prediction by ZEFSAII (Michael W. Deem and Ramdas Pophale) SiO2 
 PCOD9551288
Probable space group: I 4 2 2 
;
_chemical_formula_sum "Si O2"
_cell_formula_units_Z 112
_cell_length_a 14.257800
_cell_length_b 14.257800
_cell_length_c 24.771321
_cell_angle_alpha 90.000000
_cell_angle_beta 90.000000
_cell_angle_gamma 90.000000
_cell_volume 5035.634542
_symmetry_space_group_name_H-M "I 4 2 2 "
_symmetry_group_IT_number 97
_symmetry_cell_setting 'tetragonal'
loop_
_space_group_symop_operation_xyz
x,y,z
-y,x,z
-x,-y,z
y,-x,z
x,-y,-z
-x,y,-z
y,x,-z
-y,-x,-z
1/2+x,1/2+y,1/2+z
1/2-y,1/2+x,1/2+z
1/2-x,1/2-y,1/2+z
1/2+y,1/2-x,1/2+z
1/2+x,1/2-y,1/2-z
1/2-x,1/2+y,1/2-z
1/2+y,1/2+x,1/2-z
1/2-y,1/2-x,1/2-z
loop_
_atom_site_type_symbol
_atom_site_label
_atom_site_fract_x
_atom_site_fract_y
_atom_site_fract_z
Si Si1 0.914390 0.129273 0.798304
Si Si2 0.122993 0.661411 0.419712
Si Si3 0.149186 0.975342 0.580012
Si Si4 0.898699 0.741160 0.012640
Si Si5 0.563672 0.288356 0.183929
Si Si6 0.102360 0.546916 0.195566
Si Si7 0.265703 0.805943 0.122530
O O1 0.904898 0.151859 0.734950
O O2 0.862075 0.208142 0.832461
O O3 0.025815 0.125846 0.810190
O O4 0.054173 0.746923 0.436094
O O5 0.151446 0.605821 0.473011
O O6 0.086924 0.613296 0.364970
O O7 0.222554 0.703325 0.401143
O O8 0.074356 0.896108 0.563173
O O9 0.158835 0.989373 0.645072
O O10 0.877325 0.710795 0.074014
O O11 0.818444 0.818444 0.000000
O O12 0.000000 0.784627 0.000000
O O13 0.520384 0.190722 0.203969
O O14 0.647293 0.250599 0.146729
O O15 0.109353 0.609353 0.250000
O O16 0.000000 0.500000 0.196122
#
# Coordination Sequence:
#
# PCOD9551288 Si02
#       7
#    16  16  16  16  16  16  16
#     4  11  27  43  66 104 143 183 236 294 355 432
#     4  10  23  45  68  99 137 183 236 289 358 418
#     4  10  19  39  71 102 137 179 226 280 342 426
#     4  10  25  46  75  99 131 182 237 304 354 416
#     4  11  23  41  67 101 139 185 220 281 353 430
#     4  10  25  39  65  99 140 181 228 282 345 435
#     4  11  25  42  71  97 137 180 231 290 355 415
#
# _framework density 22.241488
#
# number of rings (size 3 to 8) (size 9 to 14) (size 15 to 20)
#    0.000    1.571    1.429    1.286   14.000    1.286 
#    0.000    2.857    0.000    0.000    0.000    0.000 
#    0.000    0.000    0.000    0.000    0.000    0.000 
#
# Total GULP energy -312725.939316 kJ/mol
# GULP energy per Si atom -5584.391774 kJ/mol
# Density = 2.219087 g / cm^3
# Si number density = 22.241488 Si / 1000 Ang^3
#
#
#
# Elastic Constant Matrix: (Units=GPa)
#
#
# Indices 1 2 3 4 5 6 
#
# 1 61.0472 23.0212 32.5141 0.0000 0.0000 0.0000
# 2 23.0212 61.0472 32.5141 0.0000 0.0000 0.0000
# 3 32.5141 32.5141 106.0545 0.0000 0.0000 0.0000
# 4 0.0000 0.0000 0.0000 36.1776 0.0000 0.0000
# 5 0.0000 0.0000 0.0000 0.0000 36.1776 0.0000
# 6 0.0000 0.0000 0.0000 0.0000 0.0000 29.9594
#
#
#
# Elastic Compliance Matrix: (Units=1/GPa)
#
#
# Indices 1 2 3 4 5 6 
#
# 1 0.020945 -0.005352 -0.004780 0.000000 0.000000 0.000000
# 2 -0.005352 0.020945 -0.004780 0.000000 0.000000 0.000000
# 3 -0.004780 -0.004780 0.012360 0.000000 0.000000 0.000000
# 4 0.000000 0.000000 0.000000 0.027641 0.000000 0.000000
# 5 0.000000 0.000000 0.000000 0.000000 0.027641 0.000000
# 6 0.000000 0.000000 0.000000 0.000000 0.000000 0.033378
#
#
# Mechanical properties :
#
#
# Convention : Reuss Voigt Hill
#
# Bulk Modulus (GPa) = 40.94302 44.91640 42.92971
# Shear Modulus (GPa) = 27.64259 29.80289 28.72274
#
# Velocity S-wave (km/s) = 3.52922 3.66453 3.59751
# Velocity P-wave (km/s) = 5.92077 6.17606 6.04976
#
# Compressibility (1/GPa) = 0.02442419
#
# Stress axis : x y z
#
# Youngs Moduli (GPa) = 47.74338 47.74338 80.90426
#
# Poissons Ratio (x) = 0.25555 0.38676
# Poissons Ratio (y) = 0.25555 0.38676
# Poissons Ratio (z) = 0.22823 0.22823
#
# Static dielectric constant tensor:
#      x y z
#    x 1.824120 0.000000 0.000000 
#    y 0.000000 1.824120 0.000000 
#    z 0.000000 0.000000 1.835010 
# 
# From -- ./inp_files/7241.got.cif
#   From: 2010.05.17/outbox.cif.g08.bks.cpg/sg97_4_cif.got.tgz:7241.got - 2010.06.03 19:55:32.
