data_PCOD9551452
_publ_section_title
;
Structure prediction by ZEFSAII (Michael W. Deem and Ramdas Pophale) SiO2 
 PCOD9551452
Probable space group: I 4 2 2 
;
_chemical_formula_sum "Si O2"
_cell_formula_units_Z 64
_cell_length_a 11.154143
_cell_length_b 11.154143
_cell_length_c 26.721633
_cell_angle_alpha 90.000000
_cell_angle_beta 90.000000
_cell_angle_gamma 90.000000
_cell_volume 3324.569460
_symmetry_space_group_name_H-M "I 4 2 2 "
_symmetry_group_IT_number 97
_symmetry_cell_setting 'tetragonal'
loop_
_space_group_symop_operation_xyz
x,y,z
-y,x,z
-x,-y,z
y,-x,z
x,-y,-z
-x,y,-z
y,x,-z
-y,-x,-z
1/2+x,1/2+y,1/2+z
1/2-y,1/2+x,1/2+z
1/2-x,1/2-y,1/2+z
1/2+y,1/2-x,1/2+z
1/2+x,1/2-y,1/2-z
1/2-x,1/2+y,1/2-z
1/2+y,1/2+x,1/2-z
1/2-y,1/2-x,1/2-z
loop_
_atom_site_type_symbol
_atom_site_label
_atom_site_fract_x
_atom_site_fract_y
_atom_site_fract_z
Si Si1 0.120929 0.620929 0.750000
Si Si2 0.908360 0.173511 0.670879
Si Si3 0.518023 0.141898 0.652590
Si Si4 0.356603 0.643397 0.500000
Si Si5 0.240935 0.214621 0.893443
O O1 0.127769 0.730933 0.712091
O O2 0.134428 0.508046 0.712248
O O3 0.867663 0.221041 0.616812
O O4 0.047674 0.154533 0.677332
O O5 0.642309 0.204855 0.636362
O O6 0.417209 0.230818 0.629181
O O7 0.500000 0.000000 0.636335
O O8 0.336640 0.500000 0.500000
O O9 0.300814 0.698834 0.449925
#
# Coordination Sequence:
#
# PCOD9551452 Si02
#       5
#     8  16  16   8  16
#     4  10  23  38  66  89 128 172 223 284 328 406
#     4  10  23  42  61  89 130 176 223 273 335 409
#     4  11  24  41  64  96 137 176 226 281 341 413
#     4  11  22  42  68  99 132 164 220 285 346 406
#     4  11  22  42  67  96 132 175 218 284 345 408
#
# _framework density 19.250613000000001
#
# number of rings (size 3 to 8) (size 9 to 14) (size 15 to 20)
#    0.000    1.375    2.500    3.375    7.000    0.500 
#    0.000    6.250    0.000    1.500    0.000    0.000 
#    0.000    0.000    0.000    0.000    0.000    0.000 
#
# Total GULP energy -178310.978616 kJ/mol
# GULP energy per Si atom -5572.218082 kJ/mol
# Density = 1.920680 g / cm^3
# Si number density = 19.250613 Si / 1000 Ang^3
#
#
#
# Elastic Constant Matrix: (Units=GPa)
#
#
# Indices 1 2 3 4 5 6 
#
# 1 85.4499 48.7899 49.0921 0.0000 0.0000 0.0000
# 2 48.7899 85.4499 49.0921 0.0000 0.0000 0.0000
# 3 49.0921 49.0921 158.4430 0.0000 0.0000 0.0000
# 4 0.0000 0.0000 0.0000 28.7436 0.0000 0.0000
# 5 0.0000 0.0000 0.0000 0.0000 28.7436 0.0000
# 6 0.0000 0.0000 0.0000 0.0000 0.0000 45.2810
#
#
#
# Elastic Compliance Matrix: (Units=1/GPa)
#
#
# Indices 1 2 3 4 5 6 
#
# 1 0.018455 -0.008823 -0.002984 0.000000 0.000000 0.000000
# 2 -0.008823 0.018455 -0.002984 0.000000 0.000000 0.000000
# 3 -0.002984 -0.002984 0.008161 0.000000 0.000000 0.000000
# 4 0.000000 0.000000 0.000000 0.034790 0.000000 0.000000
# 5 0.000000 0.000000 0.000000 0.000000 0.034790 0.000000
# 6 0.000000 0.000000 0.000000 0.000000 0.000000 0.022084
#
#
# Mechanical properties :
#
#
# Convention : Reuss Voigt Hill
#
# Bulk Modulus (GPa) = 64.56842 69.25455 66.91149
# Shear Modulus (GPa) = 29.15768 32.71156 30.93462
#
# Velocity S-wave (km/s) = 3.89605 4.12667 4.01302
# Velocity P-wave (km/s) = 7.33844 7.66545 7.50373
#
# Compressibility (1/GPa) = 0.01548745
#
# Stress axis : x y z
#
# Youngs Moduli (GPa) = 54.18598 54.18598 122.53647
#
# Poissons Ratio (x) = 0.47807 0.36571
# Poissons Ratio (y) = 0.47807 0.36571
# Poissons Ratio (z) = 0.16172 0.16172
#
# Static dielectric constant tensor:
#      x y z
#    x 1.731260 0.000000 0.000000 
#    y 0.000000 1.731260 0.000000 
#    z 0.000000 0.000000 1.665560 
# 
# From -- ./inp_files/7090.got.cif
#   From: 2010.05.17/outbox.cif.g08.bks.cpg/sg97_4_cif.got.tgz:7090.got - 2010.06.03 19:55:32.
