data_PCOD9551803
_publ_section_title
;
Structure prediction by ZEFSAII (Michael W. Deem and Ramdas Pophale) SiO2 
 PCOD9551803
Probable space group: I 41 2 2
;
_chemical_formula_sum "Si O2"
_cell_formula_units_Z 60
_cell_length_a 10.936599
_cell_length_b 10.936599
_cell_length_c 21.695458
_cell_angle_alpha 90.000000
_cell_angle_beta 90.000000
_cell_angle_gamma 90.000000
_cell_volume 2594.976325
_symmetry_space_group_name_H-M "I 41 2 2"
_symmetry_group_IT_number 98
_symmetry_cell_setting 'tetragonal'
loop_
_space_group_symop_operation_xyz
x,y,z
-y,1/2+x,1/4+z
-x,-y,z
y,1/2-x,1/4+z
x,1/2-y,1/4-z
-x,1/2+y,1/4-z
y,x,-z
-y,-x,-z
1/2+x,1/2+y,1/2+z
1/2-y,x,3/4+z
1/2-x,1/2-y,1/2+z
1/2+y,-x,3/4+z
1/2+x,-y,3/4-z
1/2-x,y,3/4-z
1/2+y,1/2+x,1/2-z
1/2-y,1/2-x,1/2-z
loop_
_atom_site_type_symbol
_atom_site_label
_atom_site_fract_x
_atom_site_fract_y
_atom_site_fract_z
Si Si1 0.500000 0.000000 0.530844
Si Si2 0.730649 0.001613 0.161676
Si Si3 0.735892 0.399173 0.212163
Si Si4 0.224964 0.250000 0.125000
Si Si5 0.000000 0.000000 0.500000
Si Si6 0.363418 0.363418 0.500000
O O1 0.373851 0.014131 0.569639
O O2 0.539838 0.114188 0.489181
O O3 0.697400 0.872240 0.130229
O O4 0.723425 0.108364 0.111190
O O5 0.627897 0.007686 0.213161
O O6 0.780657 0.280657 0.250000
O O7 0.837646 0.503406 0.223668
O O8 0.156071 0.274571 0.190378
#
# Coordination Sequence:
#
# PCOD9551803 Si02
#       6
#     8  16  16   8   4   8
#     4  12  27  48  71 119 154 207 262 338 408 484
#     4  11  27  46  79 108 157 204 268 332 401 498
#     4  11  26  45  74 113 152 201 255 333 401 481
#     4  10  20  42  70 108 140 206 254 320 390 482
#     4  12  28  56  74 120 154 228 268 328 426 516
#     4  10  20  38  69 101 142 186 253 309 389 464
#
# _framework density 23.121597000000001
#
# number of rings (size 3 to 8) (size 9 to 14) (size 15 to 20)
#    0.000    1.067    2.667    2.000   13.067    1.067 
#    0.000    0.000    0.000    0.000    0.000    0.000 
#    0.000    0.000    0.000    0.000    0.000    0.000 
#
# Total GULP energy -167232.888417 kJ/mol
# GULP energy per Si atom -5574.429614 kJ/mol
# Density = 2.306897 g / cm^3
# Si number density = 23.121597 Si / 1000 Ang^3
#
#
#
# Elastic Constant Matrix: (Units=GPa)
#
#
# Indices 1 2 3 4 5 6 
#
# 1 108.2093 53.4790 59.9255 0.0000 0.0000 0.0000
# 2 53.4790 108.2093 59.9255 0.0000 0.0000 0.0000
# 3 59.9255 59.9255 162.0017 0.0000 0.0000 0.0000
# 4 0.0000 0.0000 0.0000 -364.2587 0.0000 0.0000
# 5 0.0000 0.0000 0.0000 0.0000 -364.2587 0.0000
# 6 0.0000 0.0000 0.0000 0.0000 0.0000 25.8440
#
#
#
# Elastic Compliance Matrix: (Units=1/GPa)
#
#
# Indices 1 2 3 4 5 6 
#
# 1 0.013396 -0.004875 -0.003152 0.000000 0.000000 0.000000
# 2 -0.004875 0.013396 -0.003152 0.000000 0.000000 0.000000
# 3 -0.003152 -0.003152 0.008505 0.000000 0.000000 0.000000
# 4 0.000000 0.000000 0.000000 -0.002745 0.000000 0.000000
# 5 0.000000 0.000000 0.000000 0.000000 -0.002745 0.000000
# 6 0.000000 0.000000 0.000000 0.000000 0.000000 0.038694
#
#
# Mechanical properties :
#
#
# Convention : Reuss Voigt Hill
#
# Bulk Modulus (GPa) = 77.28637 80.56449 78.92543
# Shear Modulus (GPa) = 52.53661 -126.86200 -37.16269
#
# Velocity S-wave (km/s) = 4.77192 -7.41528 -4.01343
# Velocity P-wave (km/s) = 7.99126 6.19643 3.56822
#
# Compressibility (1/GPa) = 0.01293889
#
# Stress axis : x y z
#
# Youngs Moduli (GPa) = 74.64754 74.64754 117.58199
#
# Poissons Ratio (x) = 0.36391 0.37062
# Poissons Ratio (y) = 0.36391 0.37062
# Poissons Ratio (z) = 0.23529 0.23529
#
# Static dielectric constant tensor:
#      x y z
#    x 2.270700 0.000000 0.000000 
#    y 0.000000 2.270700 0.000000 
#    z 0.000000 0.000000 0.537300 
# 
# From -- ./inp_files/8609.got.cif
#   From: 2010.05.17/outbox.cif.g08.bks.cpg/sg98_5_cif.got.tgz:8609.got - 2010.06.03 20:00:51.
