data_PCOD9551712
_publ_section_title
;
Structure prediction by ZEFSAII (Michael W. Deem and Ramdas Pophale) SiO2 
 PCOD9551712
Probable space group: I 41 2 2
;
_chemical_formula_sum "Si O2"
_cell_formula_units_Z 128
_cell_length_a 24.576177
_cell_length_b 24.576177
_cell_length_c 11.879269
_cell_angle_alpha 90.000000
_cell_angle_beta 90.000000
_cell_angle_gamma 90.000000
_cell_volume 7174.941579
_symmetry_space_group_name_H-M "I 41 2 2"
_symmetry_group_IT_number 98
_symmetry_cell_setting 'tetragonal'
loop_
_space_group_symop_operation_xyz
x,y,z
-y,1/2+x,1/4+z
-x,-y,z
y,1/2-x,1/4+z
x,1/2-y,1/4-z
-x,1/2+y,1/4-z
y,x,-z
-y,-x,-z
1/2+x,1/2+y,1/2+z
1/2-y,x,3/4+z
1/2-x,1/2-y,1/2+z
1/2+y,-x,3/4+z
1/2+x,-y,3/4-z
1/2-x,y,3/4-z
1/2+y,1/2+x,1/2-z
1/2-y,1/2-x,1/2-z
loop_
_atom_site_type_symbol
_atom_site_label
_atom_site_fract_x
_atom_site_fract_y
_atom_site_fract_z
Si Si1 0.511699 0.762240 0.259084
Si Si2 0.591218 0.987373 0.058804
Si Si3 0.188371 0.446196 0.405879
Si Si4 0.417147 0.511936 0.759238
Si Si5 0.340733 0.035489 0.652629
Si Si6 0.276848 0.135066 0.252108
Si Si7 0.866054 0.452039 0.766978
Si Si8 0.671124 0.839380 0.617733
O O1 0.508236 0.712193 0.345350
O O2 0.572530 0.785132 0.284431
O O3 0.463143 0.805023 0.272278
O O4 0.512292 0.750000 0.125000
O O5 0.546090 0.940497 0.051323
O O6 0.558680 0.037704 0.002442
O O7 0.600086 0.007229 0.186347
O O8 0.648352 0.973432 0.997528
O O9 0.250000 0.464675 0.375000
O O10 0.159687 0.455012 0.285222
O O11 0.191195 0.381271 0.432832
O O12 0.390751 0.499347 0.640193
O O13 0.374289 0.530796 0.853938
O O14 0.341730 0.096446 0.601272
O O15 0.250000 0.133322 0.375000
O O16 0.332557 0.167444 0.250000
O O17 0.231251 0.167121 0.180385
O O18 0.893095 0.393095 0.750000
O O19 0.672475 0.827526 0.750000
#
# Coordination Sequence:
#
# PCOD9551712 Si02
#       8
#    16  16  16  16  16  16  16  16
#     4  10  19  35  54  76 102 139 175 221 269 315
#     4  10  21  33  51  79 109 140 175 223 274 320
#     4  11  22  35  52  74 103 141 179 221 269 319
#     4  10  19  34  54  78 106 137 179 223 268 327
#     4  10  19  35  55  75 101 133 178 220 263 319
#     4  10  23  35  48  70  95 128 179 229 270 311
#     4  10  20  34  53  79 110 141 173 217 271 333
#     4   9  20  37  53  69  94 131 177 222 270 308
#
# _framework density 17.839866000000001
#
# number of rings (size 3 to 8) (size 9 to 14) (size 15 to 20)
#    0.000    2.000    2.500    1.125    0.000    8.000 
#    0.000    1.250    0.000    0.000    0.000    0.000 
#    0.000    1.000    0.000    0.000    0.000    0.000 
#
# Total GULP energy -356764.215729 kJ/mol
# GULP energy per Si atom -5574.440871 kJ/mol
# Density = 1.779926 g / cm^3
# Si number density = 17.839866 Si / 1000 Ang^3
#
#
#
# Elastic Constant Matrix: (Units=GPa)
#
#
# Indices 1 2 3 4 5 6 
#
# 1 39.2968 20.7762 5.5046 0.0000 0.0000 0.0000
# 2 20.7762 39.2990 5.5049 0.0000 0.0000 0.0000
# 3 5.5046 5.5049 39.7550 0.0000 0.0000 0.0000
# 4 0.0000 0.0000 0.0000 20.1602 0.0000 0.0000
# 5 0.0000 0.0000 0.0000 0.0000 20.1584 0.0000
# 6 0.0000 0.0000 0.0000 0.0000 0.0000 30.2977
#
#
#
# Elastic Compliance Matrix: (Units=1/GPa)
#
#
# Indices 1 2 3 4 5 6 
#
# 1 0.035536 -0.018456 -0.002365 0.000000 0.000000 0.000000
# 2 -0.018456 0.035534 -0.002365 0.000000 0.000000 0.000000
# 3 -0.002365 -0.002365 0.025809 0.000000 0.000000 0.000000
# 4 0.000000 0.000000 0.000000 0.049603 0.000000 0.000000
# 5 0.000000 0.000000 0.000000 0.000000 0.049607 0.000000
# 6 0.000000 0.000000 0.000000 0.000000 0.000000 0.033006
#
#
# Mechanical properties :
#
#
# Convention : Reuss Voigt Hill
#
# Bulk Modulus (GPa) = 19.79875 20.21358 20.00616
# Shear Modulus (GPa) = 17.10563 19.89429 18.49996
#
# Velocity S-wave (km/s) = 3.09988 3.34302 3.22374
# Velocity P-wave (km/s) = 4.89229 5.12408 5.00953
#
# Compressibility (1/GPa) = 0.05050825
#
# Stress axis : x y z
#
# Youngs Moduli (GPa) = 28.14046 28.14201 38.74620
#
# Poissons Ratio (x) = 0.51938 0.09163
# Poissons Ratio (y) = 0.51935 0.09164
# Poissons Ratio (z) = 0.06655 0.06656
#
# Static dielectric constant tensor:
#      x y z
#    x 1.629570 0.000000 0.000000 
#    y 0.000000 1.629570 0.000000 
#    z 0.000000 0.000000 1.623170 
# 
# From -- ./inp_files/5512.got.cif
#   From: 2010.05.17/outbox.cif.g08.bks.cpg/sg98_3_cif.got.tgz:5512.got - 2010.06.03 20:00:51.
