data_PCOD9551694
_publ_section_title
;
Structure prediction by ZEFSAII (Michael W. Deem and Ramdas Pophale) SiO2 
 PCOD9551694
Probable space group: I 41 2 2
;
_chemical_formula_sum "Si O2"
_cell_formula_units_Z 64
_cell_length_a 14.043751
_cell_length_b 14.043751
_cell_length_c 19.908911
_cell_angle_alpha 90.000000
_cell_angle_beta 90.000000
_cell_angle_gamma 90.000000
_cell_volume 3926.573638
_symmetry_space_group_name_H-M "I 41 2 2"
_symmetry_group_IT_number 98
_symmetry_cell_setting 'tetragonal'
loop_
_space_group_symop_operation_xyz
x,y,z
-y,1/2+x,1/4+z
-x,-y,z
y,1/2-x,1/4+z
x,1/2-y,1/4-z
-x,1/2+y,1/4-z
y,x,-z
-y,-x,-z
1/2+x,1/2+y,1/2+z
1/2-y,x,3/4+z
1/2-x,1/2-y,1/2+z
1/2+y,-x,3/4+z
1/2+x,-y,3/4-z
1/2-x,y,3/4-z
1/2+y,1/2+x,1/2-z
1/2-y,1/2-x,1/2-z
loop_
_atom_site_type_symbol
_atom_site_label
_atom_site_fract_x
_atom_site_fract_y
_atom_site_fract_z
Si Si1 0.234970 0.893117 0.451422
Si Si2 0.739471 0.675376 0.685289
Si Si3 0.893282 0.520598 0.003081
Si Si4 0.096326 0.056478 0.403999
O O1 0.173488 0.826513 0.500000
O O2 0.250000 0.853400 0.375000
O O3 0.329905 0.925693 0.490719
O O4 0.178719 0.991345 0.435650
O O5 0.724437 0.750000 0.625000
O O6 0.760244 0.739757 0.750000
O O7 0.657794 0.598951 0.701047
O O8 0.835770 0.613179 0.675338
O O9 0.000000 0.500000 0.026320
O O10 0.899082 0.558891 0.926597
O O11 0.000000 0.000000 0.421742
#
# Coordination Sequence:
#
# PCOD9551694 Si02
#       4
#    16  16  16  16
#     4  10  19  33  53  83 115 143 173 220 289 354
#     4  12  20  34  55  84 113 149 185 223 276 341
#     4  10  21  36  51  78 114 144 183 230 279 325
#     4  10  19  30  54  89 118 137 163 216 295 363
#
# _framework density 16.299198000000001
#
# number of rings (size 3 to 8) (size 9 to 14) (size 15 to 20)
#    0.000    1.500    5.000    2.250    0.000    0.000 
#    0.000    1.250    0.000    0.750    0.000    0.000 
#    0.000    0.000    0.000    0.000    0.000    0.000 
#
# Total GULP energy -178395.884823 kJ/mol
# GULP energy per Si atom -5574.871401 kJ/mol
# Density = 1.626210 g / cm^3
# Si number density = 16.299198 Si / 1000 Ang^3
#
#
#
# Elastic Constant Matrix: (Units=GPa)
#
#
# Indices 1 2 3 4 5 6 
#
# 1 118.7025 60.0091 53.3384 0.0000 0.0000 0.0000
# 2 60.0091 118.7007 53.3385 0.0000 0.0000 0.0000
# 3 53.3384 53.3385 102.4338 0.0000 0.0000 0.0000
# 4 0.0000 0.0000 0.0000 24.3305 0.0000 0.0000
# 5 0.0000 0.0000 0.0000 0.0000 24.3310 0.0000
# 6 0.0000 0.0000 0.0000 0.0000 0.0000 25.7714
#
#
#
# Elastic Compliance Matrix: (Units=1/GPa)
#
#
# Indices 1 2 3 4 5 6 
#
# 1 0.012579 -0.004459 -0.004228 0.000000 0.000000 0.000000
# 2 -0.004459 0.012579 -0.004228 0.000000 0.000000 0.000000
# 3 -0.004228 -0.004228 0.014165 0.000000 0.000000 0.000000
# 4 0.000000 0.000000 0.000000 0.041101 0.000000 0.000000
# 5 0.000000 0.000000 0.000000 0.000000 0.041100 0.000000
# 6 0.000000 0.000000 0.000000 0.000000 0.000000 0.038803
#
#
# Mechanical properties :
#
#
# Convention : Reuss Voigt Hill
#
# Bulk Modulus (GPa) = 74.11409 74.80100 74.45754
# Shear Modulus (GPa) = 26.22562 26.42999 26.32781
#
# Velocity S-wave (km/s) = 4.01560 4.03122 4.02342
# Velocity P-wave (km/s) = 8.18962 8.22555 8.20760
#
# Compressibility (1/GPa) = 0.01349271
#
# Stress axis : x y z
#
# Youngs Moduli (GPa) = 79.50073 79.49907 70.59473
#
# Poissons Ratio (x) = 0.35451 0.29846
# Poissons Ratio (y) = 0.35452 0.29847
# Poissons Ratio (z) = 0.33611 0.33611
#
# Static dielectric constant tensor:
#      x y z
#    x 1.568650 0.000000 0.000000 
#    y 0.000000 1.568650 0.000000 
#    z 0.000000 0.000000 1.574690 
# 
# From -- ./inp_files/7380.got.cif
#   From: 2010.05.17/outbox.cif.g08.bks.cpg/sg98_4_cif.got.tgz:7380.got - 2010.06.03 20:00:51.
