data_PCOD9551744
_publ_section_title
;
Structure prediction by ZEFSAII (Michael W. Deem and Ramdas Pophale) SiO2 
 PCOD9551744
Probable space group: I 41 2 2
;
_chemical_formula_sum "Si O2"
_cell_formula_units_Z 80
_cell_length_a 27.784216
_cell_length_b 27.784216
_cell_length_c 6.218602
_cell_angle_alpha 90.000000
_cell_angle_beta 90.000000
_cell_angle_gamma 90.000000
_cell_volume 4800.528534
_symmetry_space_group_name_H-M "I 41 2 2"
_symmetry_group_IT_number 98
_symmetry_cell_setting 'tetragonal'
loop_
_space_group_symop_operation_xyz
x,y,z
-y,1/2+x,1/4+z
-x,-y,z
y,1/2-x,1/4+z
x,1/2-y,1/4-z
-x,1/2+y,1/4-z
y,x,-z
-y,-x,-z
1/2+x,1/2+y,1/2+z
1/2-y,x,3/4+z
1/2-x,1/2-y,1/2+z
1/2+y,-x,3/4+z
1/2+x,-y,3/4-z
1/2-x,y,3/4-z
1/2+y,1/2+x,1/2-z
1/2-y,1/2-x,1/2-z
loop_
_atom_site_type_symbol
_atom_site_label
_atom_site_fract_x
_atom_site_fract_y
_atom_site_fract_z
Si Si1 0.546800 0.546800 0.500000
Si Si2 0.414998 0.973794 0.423602
Si Si3 0.798551 0.009707 0.746135
Si Si4 0.123548 0.058671 0.620456
Si Si5 0.337210 0.911292 0.669589
Si Si6 0.068472 0.750000 0.625000
O O1 0.555351 0.498978 0.637574
O O2 0.589093 0.551759 0.325142
O O3 0.448869 0.948869 0.250000
O O4 0.377134 0.936244 0.518337
O O5 0.388955 0.017272 0.301851
O O6 0.750000 0.000508 0.875000
O O7 0.783467 0.035428 0.525327
O O8 0.824978 0.959234 0.703154
O O9 0.827710 0.049546 0.888852
O O10 0.108249 0.108249 0.500000
O O11 0.362037 0.862037 0.750000
O O12 0.287327 0.904748 0.536326
#
# Coordination Sequence:
#
# PCOD9551744 Si02
#       6
#     8  16  16  16  16   8
#     4  10  22  35  44  68 114 148 186 210 244 296
#     4  11  22  33  48  71 105 147 182 218 255 301
#     4  10  20  36  55  78 106 140 182 225 275 322
#     4  10  20  33  49  70 102 147 188 215 260 306
#     4  11  22  36  56  76 106 133 176 228 277 327
#     4  10  22  38  56  76 108 128 178 222 280 332
#
# _framework density 16.664832000000001
#
# number of rings (size 3 to 8) (size 9 to 14) (size 15 to 20)
#    0.000    1.600    4.000    1.200    0.000    4.400 
#    0.000    0.000    0.000    0.000    0.000    0.000 
#  108.000    0.000    0.000    0.000   53.200    0.000 
#
# Total GULP energy -223011.473170 kJ/mol
# GULP energy per Si atom -5575.286829 kJ/mol
# Density = 1.662690 g / cm^3
# Si number density = 16.664832 Si / 1000 Ang^3
#
#
#
# Elastic Constant Matrix: (Units=GPa)
#
#
# Indices 1 2 3 4 5 6 
#
# 1 87.3326 28.3199 29.7822 0.0000 0.0000 0.0000
# 2 28.3199 87.3326 29.7822 0.0000 0.0000 0.0000
# 3 29.7822 29.7822 92.2755 0.0000 0.0000 0.0000
# 4 0.0000 0.0000 0.0000 21.2345 0.0000 0.0000
# 5 0.0000 0.0000 0.0000 0.0000 21.2345 0.0000
# 6 0.0000 0.0000 0.0000 0.0000 0.0000 25.1649
#
#
#
# Elastic Compliance Matrix: (Units=1/GPa)
#
#
# Indices 1 2 3 4 5 6 
#
# 1 0.013658 -0.003288 -0.003347 0.000000 0.000000 0.000000
# 2 -0.003288 0.013658 -0.003347 0.000000 0.000000 0.000000
# 3 -0.003347 -0.003347 0.012998 0.000000 0.000000 0.000000
# 4 0.000000 0.000000 0.000000 0.047093 0.000000 0.000000
# 5 0.000000 0.000000 0.000000 0.000000 0.047093 0.000000
# 6 0.000000 0.000000 0.000000 0.000000 0.000000 0.039738
#
#
# Mechanical properties :
#
#
# Convention : Reuss Voigt Hill
#
# Bulk Modulus (GPa) = 49.13953 49.18988 49.16471
# Shear Modulus (GPa) = 24.87754 25.46389 25.17072
#
# Velocity S-wave (km/s) = 3.86789 3.91321 3.89061
# Velocity P-wave (km/s) = 7.03551 7.07099 7.05327
#
# Compressibility (1/GPa) = 0.02035021
#
# Stress axis : x y z
#
# Youngs Moduli (GPa) = 73.21728 73.21728 76.93680
#
# Poissons Ratio (x) = 0.24070 0.25751
# Poissons Ratio (y) = 0.24070 0.25751
# Poissons Ratio (z) = 0.24506 0.24506
#
# Static dielectric constant tensor:
#      x y z
#    x 1.582830 0.000000 0.000000 
#    y 0.000000 1.582830 0.000000 
#    z 0.000000 0.000000 1.593280 
# 
# From -- ./inp_files/1773.got.cif
#   From: 2010.05.17/outbox.cif.g08.bks.cpg/sg98_1_cif.got.tgz:1773.got - 2010.06.03 20:00:51.
