data_PCOD9551741
_publ_section_title
;
Structure prediction by ZEFSAII (Michael W. Deem and Ramdas Pophale) SiO2 
 PCOD9551741
Probable space group: I 41 2 2
;
_chemical_formula_sum "Si O2"
_cell_formula_units_Z 80
_cell_length_a 17.780956
_cell_length_b 17.780956
_cell_length_c 12.947061
_cell_angle_alpha 90.000000
_cell_angle_beta 90.000000
_cell_angle_gamma 90.000000
_cell_volume 4093.373830
_symmetry_space_group_name_H-M "I 41 2 2"
_symmetry_group_IT_number 98
_symmetry_cell_setting 'tetragonal'
loop_
_space_group_symop_operation_xyz
x,y,z
-y,1/2+x,1/4+z
-x,-y,z
y,1/2-x,1/4+z
x,1/2-y,1/4-z
-x,1/2+y,1/4-z
y,x,-z
-y,-x,-z
1/2+x,1/2+y,1/2+z
1/2-y,x,3/4+z
1/2-x,1/2-y,1/2+z
1/2+y,-x,3/4+z
1/2+x,-y,3/4-z
1/2-x,y,3/4-z
1/2+y,1/2+x,1/2-z
1/2-y,1/2-x,1/2-z
loop_
_atom_site_type_symbol
_atom_site_label
_atom_site_fract_x
_atom_site_fract_y
_atom_site_fract_z
Si Si1 0.734712 0.080623 0.544748
Si Si2 0.404991 0.595010 0.000000
Si Si3 0.114917 0.127648 0.672651
Si Si4 0.272248 0.646606 0.262570
Si Si5 0.500000 0.500000 0.837018
Si Si6 0.419212 0.263385 0.979949
O O1 0.815620 0.087152 0.490074
O O2 0.674261 0.141957 0.510482
O O3 0.751272 0.096090 0.665524
O O4 0.715428 0.995477 0.523478
O O5 0.450661 0.558140 0.905774
O O6 0.056814 0.062966 0.710094
O O7 0.081962 0.175460 0.573272
O O8 0.138266 0.195748 0.748451
O O9 0.188387 0.089614 0.622796
O O10 0.250000 0.615114 0.375000
O O11 0.222394 0.722394 0.250000
#
# Coordination Sequence:
#
# PCOD9551741 Si02
#       6
#    16   8  16  16   8  16
#     4  11  19  29  48  73 103 146 185 222 266 329
#     4  11  18  26  46  72 106 138 172 216 277 314
#     4  10  20  33  49  77 117 144 170 217 286 340
#     4   9  20  33  43  67 108 151 191 221 255 314
#     4  11  18  32  44  74 122 143 163 224 270 346
#     4  10  20  32  50  78 104 143 179 220 279 343
#
# _framework density 19.543780999999999
#
# number of rings (size 3 to 8) (size 9 to 14) (size 15 to 20)
#    0.000    1.800    5.000    1.200    2.800    0.000 
#    0.000    0.000    0.000    0.000   20.800    0.000 
#    0.000    8.000    0.000    0.000    0.000    0.000 
#
# Total GULP energy -222756.708323 kJ/mol
# GULP energy per Si atom -5568.917708 kJ/mol
# Density = 1.949930 g / cm^3
# Si number density = 19.543781 Si / 1000 Ang^3
#
#
#
# Elastic Constant Matrix: (Units=GPa)
#
#
# Indices 1 2 3 4 5 6 
#
# 1 53.0803 11.7048 4.4415 0.0000 0.0000 0.0000
# 2 11.7048 53.0813 4.4416 0.0000 0.0000 0.0000
# 3 4.4415 4.4416 41.9156 0.0000 0.0000 0.0000
# 4 0.0000 0.0000 0.0000 11.6673 0.0000 0.0000
# 5 0.0000 0.0000 0.0000 0.0000 11.6673 0.0000
# 6 0.0000 0.0000 0.0000 0.0000 0.0000 15.2274
#
#
#
# Elastic Compliance Matrix: (Units=1/GPa)
#
#
# Indices 1 2 3 4 5 6 
#
# 1 0.019916 -0.004253 -0.001660 0.000000 0.000000 0.000000
# 2 -0.004253 0.019916 -0.001660 0.000000 0.000000 0.000000
# 3 -0.001660 -0.001660 0.024209 0.000000 0.000000 0.000000
# 4 0.000000 0.000000 0.000000 0.085709 0.000000 0.000000
# 5 0.000000 0.000000 0.000000 0.000000 0.085709 0.000000
# 6 0.000000 0.000000 0.000000 0.000000 0.000000 0.065671
#
#
# Mechanical properties :
#
#
# Convention : Reuss Voigt Hill
#
# Bulk Modulus (GPa) = 20.45136 21.02810 20.73973
# Shear Modulus (GPa) = 15.03425 16.21170 15.62298
#
# Velocity S-wave (km/s) = 2.77656 2.88324 2.83040
# Velocity P-wave (km/s) = 4.55699 4.67621 4.61699
#
# Compressibility (1/GPa) = 0.04889651
#
# Stress axis : x y z
#
# Youngs Moduli (GPa) = 50.21077 50.21171 41.30661
#
# Poissons Ratio (x) = 0.21354 0.06856
# Poissons Ratio (y) = 0.21353 0.06856
# Poissons Ratio (z) = 0.08334 0.08334
#
# Static dielectric constant tensor:
#      x y z
#    x 1.714700 0.000000 0.000000 
#    y 0.000000 1.714700 0.000000 
#    z 0.000000 0.000000 1.731040 
# 
# From -- ./inp_files/6491.got.cif
#   From: 2010.05.17/outbox.cif.g08.bks.cpg/sg98_4_cif.got.tgz:6491.got - 2010.06.03 20:00:51.
