data_PCOD9551809
_publ_section_title
;
Structure prediction by ZEFSAII (Michael W. Deem and Ramdas Pophale) SiO2 
 PCOD9551809
Probable space group: I 41 2 2
;
_chemical_formula_sum "Si O2"
_cell_formula_units_Z 96
_cell_length_a 14.620847
_cell_length_b 14.620847
_cell_length_c 18.530101
_cell_angle_alpha 90.000000
_cell_angle_beta 90.000000
_cell_angle_gamma 90.000000
_cell_volume 3961.164255
_symmetry_space_group_name_H-M "I 41 2 2"
_symmetry_group_IT_number 98
_symmetry_cell_setting 'tetragonal'
loop_
_space_group_symop_operation_xyz
x,y,z
-y,1/2+x,1/4+z
-x,-y,z
y,1/2-x,1/4+z
x,1/2-y,1/4-z
-x,1/2+y,1/4-z
y,x,-z
-y,-x,-z
1/2+x,1/2+y,1/2+z
1/2-y,x,3/4+z
1/2-x,1/2-y,1/2+z
1/2+y,-x,3/4+z
1/2+x,-y,3/4-z
1/2-x,y,3/4-z
1/2+y,1/2+x,1/2-z
1/2-y,1/2-x,1/2-z
loop_
_atom_site_type_symbol
_atom_site_label
_atom_site_fract_x
_atom_site_fract_y
_atom_site_fract_z
Si Si1 0.144125 0.410754 0.430794
Si Si2 0.587093 0.549148 0.170555
Si Si3 0.773821 0.385183 0.556454
Si Si4 0.737427 0.103394 0.220103
Si Si5 0.387439 0.214445 0.309587
Si Si6 0.979688 0.840687 0.035604
O O1 0.075237 0.416304 0.498080
O O2 0.131783 0.309569 0.400185
O O3 0.131705 0.487971 0.370062
O O4 0.247507 0.419748 0.459461
O O5 0.500000 0.500000 0.139161
O O6 0.660005 0.469735 0.179444
O O7 0.631772 0.618628 0.116121
O O8 0.839512 0.310140 0.519093
O O9 0.741913 0.363570 0.637779
O O10 0.696242 0.431114 0.505848
O O11 0.641711 0.141711 0.250000
O O12 0.727338 0.992508 0.219805
O O13 0.312852 0.187149 0.250000
O O14 0.923094 0.923094 0.000000
#
# Coordination Sequence:
#
# PCOD9551809 Si02
#       6
#    16  16  16  16  16  16
#     4  10  20  39  62 101 136 172 229 293 362 437
#     4  10  22  39  64  92 136 183 232 297 355 433
#     4  10  23  44  69 103 133 192 235 300 365 437
#     4  11  24  45  69  98 146 190 249 303 361 440
#     4  11  25  39  68 102 143 191 243 294 366 438
#     4  10  20  39  72  96 139 171 226 294 367 425
#
# _framework density 24.235299000000001
#
# number of rings (size 3 to 8) (size 9 to 14) (size 15 to 20)
#    0.000    1.667    0.000    5.000    4.667    2.000 
#   15.000    0.000    0.000    0.000    0.000    0.000 
#    0.000    0.000    0.000    0.000    0.000    0.000 
#
# Total GULP energy -267825.953069 kJ/mol
# GULP energy per Si atom -5579.707356 kJ/mol
# Density = 2.418014 g / cm^3
# Si number density = 24.235299 Si / 1000 Ang^3
#
#
#
# Elastic Constant Matrix: (Units=GPa)
#
#
# Indices 1 2 3 4 5 6 
#
# 1 0.6204 77.1636 6.2623 0.0000 0.0000 0.0000
# 2 77.1636 0.6216 6.2611 0.0000 0.0000 0.0000
# 3 6.2623 6.2611 89.4880 0.0000 0.0000 0.0000
# 4 0.0000 0.0000 0.0000 25.7018 0.0000 0.0000
# 5 0.0000 0.0000 0.0000 0.0000 25.7020 0.0000
# 6 0.0000 0.0000 0.0000 0.0000 0.0000 45.7828
#
#
#
# Elastic Compliance Matrix: (Units=1/GPa)
#
#
# Indices 1 2 3 4 5 6 
#
# 1 -0.000031 0.013034 -0.000910 0.000000 0.000000 0.000000
# 2 0.013034 -0.000031 -0.000910 0.000000 0.000000 0.000000
# 3 -0.000910 -0.000910 0.011302 0.000000 0.000000 0.000000
# 4 0.000000 0.000000 0.000000 0.038908 0.000000 0.000000
# 5 0.000000 0.000000 0.000000 0.000000 0.038907 0.000000
# 6 0.000000 0.000000 0.000000 0.000000 0.000000 0.021842
#
#
# Mechanical properties :
#
#
# Convention : Reuss Voigt Hill
#
# Bulk Modulus (GPa) = 29.70203 30.01155 29.85679
# Shear Modulus (GPa) = 50.15441 19.50685 34.83063
#
# Velocity S-wave (km/s) = 4.55409 2.84014 3.79514
# Velocity P-wave (km/s) = 6.31943 4.81306 5.61697
#
# Compressibility (1/GPa) = 0.03366773
#
# Stress axis : x y z
#
# Youngs Moduli (GPa) = -32074.95317 -32310.09094 88.47985
#
# Poissons Ratio (x) = 421.11564 0.08049
# Poissons Ratio (y) = 418.05095 0.08051
# Poissons Ratio (z) = -29.17937 -29.39937
#
# Static dielectric constant tensor:
#      x y z
#    x 1.975940 0.000000 0.000000 
#    y 0.000000 1.975940 0.000000 
#    z 0.000000 0.000000 2.095550 
# 
# From -- ./inp_files/8924.got.cif
#   From: 2010.05.17/outbox.cif.g08.bks.cpg/sg98_5_cif.got.tgz:8924.got - 2010.06.03 20:00:51.
