data_PCOD9551964
_publ_section_title
;
Structure prediction by ZEFSAII (Michael W. Deem and Ramdas Pophale) SiO2 
 PCOD9551964
Probable space group: I 41 2 2
;
_chemical_formula_sum "Si O2"
_cell_formula_units_Z 56
_cell_length_a 14.798398
_cell_length_b 14.798398
_cell_length_c 11.209205
_cell_angle_alpha 90.000000
_cell_angle_beta 90.000000
_cell_angle_gamma 90.000000
_cell_volume 2454.732760
_symmetry_space_group_name_H-M "I 41 2 2"
_symmetry_group_IT_number 98
_symmetry_cell_setting 'tetragonal'
loop_
_space_group_symop_operation_xyz
x,y,z
-y,1/2+x,1/4+z
-x,-y,z
y,1/2-x,1/4+z
x,1/2-y,1/4-z
-x,1/2+y,1/4-z
y,x,-z
-y,-x,-z
1/2+x,1/2+y,1/2+z
1/2-y,x,3/4+z
1/2-x,1/2-y,1/2+z
1/2+y,-x,3/4+z
1/2+x,-y,3/4-z
1/2-x,y,3/4-z
1/2+y,1/2+x,1/2-z
1/2-y,1/2-x,1/2-z
loop_
_atom_site_type_symbol
_atom_site_label
_atom_site_fract_x
_atom_site_fract_y
_atom_site_fract_z
Si Si1 0.853959 0.127214 0.867366
Si Si2 0.422575 0.357799 0.632217
Si Si3 0.515547 0.776655 0.991016
Si Si4 0.311070 0.311070 0.000000
O O1 0.750000 0.155681 0.875000
O O2 0.919932 0.202172 0.816384
O O3 0.859714 0.025350 0.819078
O O4 0.887842 0.112159 0.000000
O O5 0.399795 0.250000 0.625000
O O6 0.399273 0.399273 0.500000
O O7 0.364003 0.421433 0.717698
O O8 0.587726 0.701956 0.950626
O O9 0.496625 0.750000 0.125000
O O10 0.250000 0.298790 0.875000
#
# Coordination Sequence:
#
# PCOD9551964 Si02
#       4
#    16  16  16   8
#     4  11  25  46  73 104 144 211 276 323 381 474
#     4  11  24  40  75 114 156 204 265 324 391 483
#     4  11  25  41  68 109 157 196 248 334 410 471
#     4  10  24  40  68 116 166 204 252 328 422 500
#
# _framework density 22.813074
#
# number of rings (size 3 to 8) (size 9 to 14) (size 15 to 20)
#    0.000    1.143    2.857    1.714   12.000    1.143 
#    0.000    0.000    0.000    6.857    0.000    0.000 
#    0.000    0.000    0.000    0.000    0.000    0.000 
#
# Total GULP energy -155963.154256 kJ/mol
# GULP energy per Si atom -5570.112652 kJ/mol
# Density = 2.276115 g / cm^3
# Si number density = 22.813074 Si / 1000 Ang^3
#
#
#
# Elastic Constant Matrix: (Units=GPa)
#
#
# Indices 1 2 3 4 5 6 
#
# 1 133.4768 73.6247 28.5807 0.0000 0.0000 0.0000
# 2 73.6247 133.4771 28.5814 0.0000 0.0000 0.0000
# 3 28.5807 28.5814 111.5791 0.0000 0.0000 0.0000
# 4 0.0000 0.0000 0.0000 62.1878 0.0000 0.0000
# 5 0.0000 0.0000 0.0000 0.0000 62.1785 0.0000
# 6 0.0000 0.0000 0.0000 0.0000 0.0000 45.4546
#
#
#
# Elastic Compliance Matrix: (Units=1/GPa)
#
#
# Indices 1 2 3 4 5 6 
#
# 1 0.010952 -0.005756 -0.001331 0.000000 0.000000 0.000000
# 2 -0.005756 0.010952 -0.001331 0.000000 0.000000 0.000000
# 3 -0.001331 -0.001331 0.009644 0.000000 0.000000 0.000000
# 4 0.000000 0.000000 0.000000 0.016080 0.000000 0.000000
# 5 0.000000 0.000000 0.000000 0.000000 0.016083 0.000000
# 6 0.000000 0.000000 0.000000 0.000000 0.000000 0.022000
#
#
# Mechanical properties :
#
#
# Convention : Reuss Voigt Hill
#
# Bulk Modulus (GPa) = 67.97099 71.12294 69.54697
# Shear Modulus (GPa) = 46.53304 50.48058 48.50681
#
# Velocity S-wave (km/s) = 4.52126 4.70914 4.61615
# Velocity P-wave (km/s) = 7.55746 7.79821 7.67878
#
# Compressibility (1/GPa) = 0.01471216
#
# Stress axis : x y z
#
# Youngs Moduli (GPa) = 91.30877 91.30876 103.69045
#
# Poissons Ratio (x) = 0.52557 0.13800
# Poissons Ratio (y) = 0.52557 0.13801
# Poissons Ratio (z) = 0.12152 0.12153
#
# Static dielectric constant tensor:
#      x y z
#    x 1.431110 0.000000 0.000000 
#    y 0.000000 1.431300 0.000000 
#    z 0.000000 0.000000 2.575600 
# 
# From -- ./inp_files/4685.got.cif
#   From: 2010.05.17/outbox.cif.g08.bks.cpg/sg98_3_cif.got.tgz:4685.got - 2010.06.03 20:00:51.
