data_PCOD9551479
_publ_section_title
;
Structure prediction by ZEFSAII (Michael W. Deem and Ramdas Pophale) SiO2 
 PCOD9551479
Probable space group: I 4 2 2 
;
_chemical_formula_sum "Si O2"
_cell_formula_units_Z 92
_cell_length_a 23.199625
_cell_length_b 23.199625
_cell_length_c 8.523307
_cell_angle_alpha 90.000000
_cell_angle_beta 90.000000
_cell_angle_gamma 90.000000
_cell_volume 4587.436455
_symmetry_space_group_name_H-M "I 4 2 2 "
_symmetry_group_IT_number 97
_symmetry_cell_setting 'tetragonal'
loop_
_space_group_symop_operation_xyz
x,y,z
-y,x,z
-x,-y,z
y,-x,z
x,-y,-z
-x,y,-z
y,x,-z
-y,-x,-z
1/2+x,1/2+y,1/2+z
1/2-y,1/2+x,1/2+z
1/2-x,1/2-y,1/2+z
1/2+y,1/2-x,1/2+z
1/2+x,1/2-y,1/2-z
1/2-x,1/2+y,1/2-z
1/2+y,1/2+x,1/2-z
1/2-y,1/2-x,1/2-z
loop_
_atom_site_type_symbol
_atom_site_label
_atom_site_fract_x
_atom_site_fract_y
_atom_site_fract_z
Si Si1 0.583158 0.396847 0.683311
Si Si2 0.644932 0.855069 0.750000
Si Si3 0.500000 0.500000 0.295071
Si Si4 0.033909 0.706176 0.644765
Si Si5 0.162833 0.749305 0.937311
Si Si6 0.723959 0.547129 0.629565
Si Si7 0.189330 0.882255 0.375340
O O1 0.602731 0.397270 0.500000
O O2 0.527182 0.435543 0.696265
O O3 0.565928 0.331849 0.726498
O O4 0.634139 0.414549 0.799633
O O5 0.662725 0.920717 0.723333
O O6 0.682332 0.831910 0.896963
O O7 0.071378 0.761345 0.581728
O O8 0.000000 0.679663 0.500000
O O9 0.987382 0.729660 0.769048
O O10 0.149644 0.782341 0.774388
O O11 0.219576 0.780425 0.000000
O O12 0.106070 0.756180 0.045316
O O13 0.704469 0.500000 0.500000
O O14 0.163153 0.836848 0.500000
#
# Coordination Sequence:
#
# PCOD9551479 Si02
#       7
#    16   8   4  16  16  16  16
#     4  12  20  34  51  83 118 163 226 265 307 356
#     4  10  24  42  64  98 137 162 204 283 318 378
#     4  12  25  28  49  78 113 164 217 290 301 340
#     4  11  24  41  65  95 127 172 214 264 332 394
#     4  11  22  42  66  94 128 171 213 260 326 391
#     4  12  19  38  67  85 118 175 224 262 314 397
#     4  11  21  36  58  86 125 168 216 266 315 373
#
# _framework density 20.054773000000001
#
# number of rings (size 3 to 8) (size 9 to 14) (size 15 to 20)
#    0.000    0.696    6.957    3.913    0.000    2.783 
#    0.000    0.435    0.000    0.000    0.000    7.304 
#    0.000    0.000    0.000    0.000    0.000    0.000 
#
# Total GULP energy -256415.798680 kJ/mol
# GULP energy per Si atom -5574.256493 kJ/mol
# Density = 2.000913 g / cm^3
# Si number density = 20.054773 Si / 1000 Ang^3
#
#
#
# Elastic Constant Matrix: (Units=GPa)
#
#
# Indices 1 2 3 4 5 6 
#
# 1 73.2547 48.5461 29.2769 0.0000 0.0000 0.0000
# 2 48.5461 73.2567 29.2784 0.0000 0.0000 0.0000
# 3 29.2769 29.2784 52.4906 0.0000 0.0000 0.0000
# 4 0.0000 0.0000 0.0000 16.9393 0.0000 0.0000
# 5 0.0000 0.0000 0.0000 0.0000 16.9397 0.0000
# 6 0.0000 0.0000 0.0000 0.0000 0.0000 38.2421
#
#
#
# Elastic Compliance Matrix: (Units=1/GPa)
#
#
# Indices 1 2 3 4 5 6 
#
# 1 0.025844 -0.014626 -0.006257 0.000000 0.000000 0.000000
# 2 -0.014626 0.025844 -0.006258 0.000000 0.000000 0.000000
# 3 -0.006257 -0.006258 0.026031 0.000000 0.000000 0.000000
# 4 0.000000 0.000000 0.000000 0.059034 0.000000 0.000000
# 5 0.000000 0.000000 0.000000 0.000000 0.059033 0.000000
# 6 0.000000 0.000000 0.000000 0.000000 0.000000 0.026149
#
#
# Mechanical properties :
#
#
# Convention : Reuss Voigt Hill
#
# Bulk Modulus (GPa) = 42.66420 45.91163 44.28792
# Shear Modulus (GPa) = 17.60383 20.55094 19.07738
#
# Velocity S-wave (km/s) = 2.96596 3.20463 3.08760
# Velocity P-wave (km/s) = 5.74885 6.05274 5.90275
#
# Compressibility (1/GPa) = 0.02343885
#
# Stress axis : x y z
#
# Youngs Moduli (GPa) = 38.69340 38.69368 38.41554
#
# Poissons Ratio (x) = 0.56593 0.24035
# Poissons Ratio (y) = 0.56593 0.24039
# Poissons Ratio (z) = 0.24209 0.24213
#
# Static dielectric constant tensor:
#      x y z
#    x 1.714470 0.000000 0.000000 
#    y 0.000000 1.714460 0.000000 
#    z 0.000000 0.000000 1.780620 
# 
# From -- ./inp_files/2525.got.cif
#   From: 2010.05.17/outbox.cif.g08.bks.cpg/sg97_2_cif.got.tgz:2525.got - 2010.06.03 19:55:32.
