data_PCOD9551537
_publ_section_title
;
Structure prediction by ZEFSAII (Michael W. Deem and Ramdas Pophale) SiO2 
 PCOD9551537
Probable space group: I 4 2 2 
;
_chemical_formula_sum "Si O2"
_cell_formula_units_Z 60
_cell_length_a 13.166020
_cell_length_b 13.166020
_cell_length_c 16.687417
_cell_angle_alpha 90.000000
_cell_angle_beta 90.000000
_cell_angle_gamma 90.000000
_cell_volume 2892.664992
_symmetry_space_group_name_H-M "I 4 2 2 "
_symmetry_group_IT_number 97
_symmetry_cell_setting 'tetragonal'
loop_
_space_group_symop_operation_xyz
x,y,z
-y,x,z
-x,-y,z
y,-x,z
x,-y,-z
-x,y,-z
y,x,-z
-y,-x,-z
1/2+x,1/2+y,1/2+z
1/2-y,1/2+x,1/2+z
1/2-x,1/2-y,1/2+z
1/2+y,1/2-x,1/2+z
1/2+x,1/2-y,1/2-z
1/2-x,1/2+y,1/2-z
1/2+y,1/2+x,1/2-z
1/2-y,1/2-x,1/2-z
loop_
_atom_site_type_symbol
_atom_site_label
_atom_site_fract_x
_atom_site_fract_y
_atom_site_fract_z
Si Si1 0.779962 0.779962 0.000000
Si Si2 0.067929 0.156017 0.121031
Si Si3 0.000000 0.500000 0.000000
Si Si4 0.116917 0.648203 0.381719
Si Si5 0.691922 0.979667 0.755642
O O1 0.885187 0.776391 0.050379
O O2 0.693948 0.782348 0.067968
O O3 0.080150 0.214153 0.205095
O O4 0.950241 0.126944 0.113760
O O5 0.073277 0.564551 0.056014
O O6 0.169401 0.571186 0.318215
O O7 0.032564 0.707567 0.329883
O O8 0.594919 0.905082 0.750000
#
# Coordination Sequence:
#
# PCOD9551537 Si02
#       5
#     8  16   4  16  16
#     4  12  24  41  68 106 134 171 222 292 336 396
#     4  11  24  41  64  95 133 169 216 271 339 396
#     4  12  20  42  64 100 138 184 220 284 348 390
#     4  11  23  39  65  98 135 172 227 271 339 401
#     4  11  22  44  65  94 133 181 217 274 328 410
#
# _framework density 20.74212
#
# number of rings (size 3 to 8) (size 9 to 14) (size 15 to 20)
#    0.000    0.800    5.333    3.200    0.000    3.200 
#    0.000    0.000    0.000    0.000    0.000    0.000 
#    0.000    0.000    0.000    0.000    0.000    0.000 
#
# Total GULP energy -167596.286103 kJ/mol
# GULP energy per Si atom -5586.542870 kJ/mol
# Density = 2.069491 g / cm^3
# Si number density = 20.742120 Si / 1000 Ang^3
#
#
#
# Elastic Constant Matrix: (Units=GPa)
#
#
# Indices 1 2 3 4 5 6 
#
# 1 55.6864 31.0570 55.0343 0.0000 0.0000 0.0000
# 2 31.0570 55.6863 55.0336 0.0000 0.0000 0.0000
# 3 55.0343 55.0336 153.5555 0.0000 0.0000 0.0000
# 4 0.0000 0.0000 0.0000 38.0828 0.0000 0.0000
# 5 0.0000 0.0000 0.0000 0.0000 38.0844 0.0000
# 6 0.0000 0.0000 0.0000 0.0000 0.0000 19.2145
#
#
#
# Elastic Compliance Matrix: (Units=1/GPa)
#
#
# Indices 1 2 3 4 5 6 
#
# 1 0.030873 -0.009729 -0.007578 0.000000 0.000000 0.000000
# 2 -0.009729 0.030873 -0.007578 0.000000 0.000000 0.000000
# 3 -0.007578 -0.007578 0.011944 0.000000 0.000000 0.000000
# 4 0.000000 0.000000 0.000000 0.026259 0.000000 0.000000
# 5 0.000000 0.000000 0.000000 0.000000 0.026257 0.000000
# 6 0.000000 0.000000 0.000000 0.000000 0.000000 0.052044
#
#
# Mechanical properties :
#
#
# Convention : Reuss Voigt Hill
#
# Bulk Modulus (GPa) = 41.80580 60.79756 51.30168
# Shear Modulus (GPa) = 21.18707 27.32991 24.25849
#
# Velocity S-wave (km/s) = 3.19948 3.63382 3.42355
# Velocity P-wave (km/s) = 5.81788 6.85427 6.35723
#
# Compressibility (1/GPa) = 0.02392012
#
# Stress axis : x y z
#
# Youngs Moduli (GPa) = 32.39075 32.39106 83.72339
#
# Poissons Ratio (x) = 0.31514 0.63446
# Poissons Ratio (y) = 0.31513 0.63443
# Poissons Ratio (z) = 0.24546 0.24545
#
# Static dielectric constant tensor:
#      x y z
#    x 1.790800 0.000000 0.000000 
#    y 0.000000 1.790800 0.000000 
#    z 0.000000 0.000000 1.770700 
# 
# From -- ./inp_files/4624.got.cif
#   From: 2010.05.17/outbox.cif.g08.bks.cpg/sg97_3_cif.got.tgz:4624.got - 2010.06.03 19:55:32.
