data_PCOD9551041
_publ_section_title
;
Structure prediction by ZEFSAII (Michael W. Deem and Ramdas Pophale) SiO2 
 PCOD9551041
Probable space group: P 43 21 2
;
_chemical_formula_sum "Si O2"
_cell_formula_units_Z 60
_cell_length_a 18.891472
_cell_length_b 18.891472
_cell_length_c 8.779235
_cell_angle_alpha 90.000000
_cell_angle_beta 90.000000
_cell_angle_gamma 90.000000
_cell_volume 3133.201113
_symmetry_space_group_name_H-M "P 43 21 2"
_symmetry_group_IT_number 96
_symmetry_cell_setting 'tetragonal'
loop_
_space_group_symop_operation_xyz
x,y,z
1/2-y,1/2+x,3/4+z
-x,-y,1/2+z
1/2+y,1/2-x,1/4+z
1/2+x,1/2-y,1/4-z
1/2-x,1/2+y,3/4-z
y,x,-z
-y,-x,1/2-z
loop_
_atom_site_type_symbol
_atom_site_label
_atom_site_fract_x
_atom_site_fract_y
_atom_site_fract_z
Si Si1 0.071131 0.801184 0.440222
Si Si2 0.179680 0.225982 0.262001
Si Si3 0.572316 0.258327 0.460626
Si Si4 0.795351 0.961362 0.045430
Si Si5 0.456694 0.438406 0.819089
Si Si6 0.540437 0.799442 0.533047
Si Si7 0.163533 0.601049 0.801286
Si Si8 0.209829 0.790172 0.250000
O O1 0.081401 0.880636 0.500091
O O2 0.075509 0.745286 0.579096
O O3 0.129780 0.782920 0.313180
O O4 0.990773 0.797926 0.378119
O O5 0.207012 0.149932 0.206506
O O6 0.114124 0.208156 0.372255
O O7 0.149719 0.275370 0.127687
O O8 0.238444 0.267995 0.360809
O O9 0.547959 0.256955 0.634584
O O10 0.580657 0.185370 0.370353
O O11 0.874656 0.989984 0.028894
O O12 0.755818 0.015526 0.156063
O O13 0.490199 0.509801 0.750000
O O14 0.448150 0.448150 0.000000
O O15 0.592508 0.855111 0.457946
O O16 0.470509 0.836623 0.600914
#
# Coordination Sequence:
#
# PCOD9551041 Si02
#       8
#     8   8   8   8   8   8   8   4
#     4  11  26  40  66  96 139 174 224 284 334 409
#     4  11  23  41  67  96 132 175 229 276 336 408
#     4  11  22  42  64  96 131 175 219 273 335 403
#     4  11  23  42  63  92 132 175 218 280 329 402
#     4  12  27  42  62  93 137 187 222 267 336 417
#     4  10  23  46  65  94 132 169 226 275 359 402
#     4  10  24  42  69  95 129 174 217 291 337 418
#     4  12  24  40  68 108 128 172 242 284 340 398
#
# _framework density 19.149743000000001
#
# number of rings (size 3 to 8) (size 9 to 14) (size 15 to 20)
#    0.000    1.067    2.667    2.800    8.400    0.000 
#    0.000    1.333    0.000    0.000    0.000    0.000 
#    0.000    0.000    0.000    0.000    0.000    0.000 
#
# Total GULP energy -335269.840428 kJ/mol
# GULP energy per Si atom -5587.830674 kJ/mol
# Density = 1.910616 g / cm^3
# Si number density = 19.149743 Si / 1000 Ang^3
#
#
#
# Elastic Constant Matrix: (Units=GPa)
#
#
# Indices 1 2 3 4 5 6 
#
# 1 70.8686 56.2705 10.7092 0.0000 0.0000 0.0000
# 2 56.2705 70.8702 10.7089 0.0000 0.0000 0.0000
# 3 10.7092 10.7089 52.2793 0.0000 0.0000 0.0000
# 4 0.0000 0.0000 0.0000 15.8796 0.0000 0.0000
# 5 0.0000 0.0000 0.0000 0.0000 15.8812 0.0000
# 6 0.0000 0.0000 0.0000 0.0000 0.0000 32.6179
#
#
#
# Elastic Compliance Matrix: (Units=1/GPa)
#
#
# Indices 1 2 3 4 5 6 
#
# 1 0.038323 -0.030176 -0.001669 0.000000 0.000000 0.000000
# 2 -0.030176 0.038322 -0.001668 0.000000 0.000000 0.000000
# 3 -0.001669 -0.001668 0.019812 0.000000 0.000000 0.000000
# 4 0.000000 0.000000 0.000000 0.062974 0.000000 0.000000
# 5 0.000000 0.000000 0.000000 0.000000 0.062968 0.000000
# 6 0.000000 0.000000 0.000000 0.000000 0.000000 0.030658
#
#
# Mechanical properties :
#
#
# Convention : Reuss Voigt Hill
#
# Bulk Modulus (GPa) = 33.97937 38.82172 36.40054
# Shear Modulus (GPa) = 15.15644 20.63104 17.89374
#
# Velocity S-wave (km/s) = 2.81636 3.28587 3.06013
# Velocity P-wave (km/s) = 5.32526 5.89174 5.61565
#
# Compressibility (1/GPa) = 0.02942962
#
# Stress axis : x y z
#
# Youngs Moduli (GPa) = 26.09404 26.09469 50.47526
#
# Poissons Ratio (x) = 0.78743 0.08424
# Poissons Ratio (y) = 0.78741 0.08422
# Poissons Ratio (z) = 0.04355 0.04354
#
# Static dielectric constant tensor:
#      x y z
#    x 1.660870 0.000000 0.000000 
#    y 0.000000 1.660870 0.000000 
#    z 0.000000 0.000000 1.675280 
# 
# From -- ./inp_files/1623.got.cif
#   From: 2010.05.17/outbox.cif.g08.bks.cpg/sg96_1_cif.got.tgz:1623.got - 2010.06.03 19:52:08.
