data_PCOD9551085
_publ_section_title
;
Structure prediction by ZEFSAII (Michael W. Deem and Ramdas Pophale) SiO2 
 PCOD9551085
Probable space group: P 43 21 2
;
_chemical_formula_sum "Si O2"
_cell_formula_units_Z 24
_cell_length_a 7.260726
_cell_length_b 7.260726
_cell_length_c 18.189679
_cell_angle_alpha 90.000000
_cell_angle_beta 90.000000
_cell_angle_gamma 90.000000
_cell_volume 958.926081
_symmetry_space_group_name_H-M "P 43 21 2"
_symmetry_group_IT_number 96
_symmetry_cell_setting 'tetragonal'
loop_
_space_group_symop_operation_xyz
x,y,z
1/2-y,1/2+x,3/4+z
-x,-y,1/2+z
1/2+y,1/2-x,1/4+z
1/2+x,1/2-y,1/4-z
1/2-x,1/2+y,3/4-z
y,x,-z
-y,-x,1/2-z
loop_
_atom_site_type_symbol
_atom_site_label
_atom_site_fract_x
_atom_site_fract_y
_atom_site_fract_z
Si Si1 0.880887 0.114296 0.833294
Si Si2 0.788096 0.406122 0.553477
Si Si3 0.723609 0.006956 0.527070
O O1 0.973871 0.912344 0.830722
O O2 0.688038 0.105794 0.878255
O O3 0.834996 0.165005 0.750000
O O4 0.995136 0.252747 0.884320
O O5 0.901368 0.553229 0.508222
O O6 0.734624 0.222918 0.507157
O O7 0.906387 0.906387 0.500000
#
# Coordination Sequence:
#
# PCOD9551085 Si02
#       3
#     8   8   8
#     4  10  25  49  80 122 174 227 290 370 435 510
#     4  10  25  49  83 122 173 229 297 356 449 517
#     4  10  25  52  82 122 171 234 292 354 442 536
#
# _framework density 25.027995000000001
#
# number of rings (size 3 to 8) (size 9 to 14) (size 15 to 20)
#    2.000    0.000    0.000    1.000    4.667    4.000 
#   24.000    0.000    0.000    0.000    0.000    0.000 
#    0.000    0.000    0.000    0.000    0.000    0.000 
#
# Total GULP energy -134035.320696 kJ/mol
# GULP energy per Si atom -5584.805029 kJ/mol
# Density = 2.497103 g / cm^3
# Si number density = 25.027995 Si / 1000 Ang^3
#
#
#
# Elastic Constant Matrix: (Units=GPa)
#
#
# Indices 1 2 3 4 5 6 
#
# 1 96.7513 19.1935 35.4076 0.0000 0.0000 0.0000
# 2 19.1935 96.7518 35.4074 0.0000 0.0000 0.0000
# 3 35.4076 35.4074 175.3639 0.0000 0.0000 0.0000
# 4 0.0000 0.0000 0.0000 39.7050 0.0000 0.0000
# 5 0.0000 0.0000 0.0000 0.0000 39.7049 0.0000
# 6 0.0000 0.0000 0.0000 0.0000 0.0000 37.8344
#
#
#
# Elastic Compliance Matrix: (Units=1/GPa)
#
#
# Indices 1 2 3 4 5 6 
#
# 1 0.011366 -0.001528 -0.001986 0.000000 0.000000 0.000000
# 2 -0.001528 0.011366 -0.001986 0.000000 0.000000 0.000000
# 3 -0.001986 -0.001986 0.006505 0.000000 0.000000 0.000000
# 4 0.000000 0.000000 0.000000 0.025186 0.000000 0.000000
# 5 0.000000 0.000000 0.000000 0.000000 0.025186 0.000000
# 6 0.000000 0.000000 0.000000 0.000000 0.000000 0.026431
#
#
# Mechanical properties :
#
#
# Convention : Reuss Voigt Hill
#
# Bulk Modulus (GPa) = 54.83952 60.98712 57.91332
# Shear Modulus (GPa) = 40.61144 42.03944 41.32544
#
# Velocity S-wave (km/s) = 4.03257 4.10286 4.06787
# Velocity P-wave (km/s) = 6.60613 6.84580 6.72704
#
# Compressibility (1/GPa) = 0.01823502
#
# Stress axis : x y z
#
# Youngs Moduli (GPa) = 87.98313 87.98378 153.73822
#
# Poissons Ratio (x) = 0.13442 0.30538
# Poissons Ratio (y) = 0.13442 0.30538
# Poissons Ratio (z) = 0.17477 0.17477
#
# Static dielectric constant tensor:
#      x y z
#    x 2.029850 0.000000 0.000000 
#    y 0.000000 2.029850 0.000000 
#    z 0.000000 0.000000 2.018160 
# 
# From -- ./inp_files/2460.got.cif
#   From: 2010.05.17/outbox.cif.g08.bks.cpg/sg96_2_cif.got.tgz:2460.got - 2010.06.03 19:52:08.
