data_PCOD9551468
_publ_section_title
;
Structure prediction by ZEFSAII (Michael W. Deem and Ramdas Pophale) SiO2 
 PCOD9551468
Probable space group: I 4 2 2 
;
_chemical_formula_sum "Si O2"
_cell_formula_units_Z 96
_cell_length_a 14.647413
_cell_length_b 14.647413
_cell_length_c 21.404122
_cell_angle_alpha 90.000000
_cell_angle_beta 90.000000
_cell_angle_gamma 90.000000
_cell_volume 4592.183904
_symmetry_space_group_name_H-M "I 4 2 2 "
_symmetry_group_IT_number 97
_symmetry_cell_setting 'tetragonal'
loop_
_space_group_symop_operation_xyz
x,y,z
-y,x,z
-x,-y,z
y,-x,z
x,-y,-z
-x,y,-z
y,x,-z
-y,-x,-z
1/2+x,1/2+y,1/2+z
1/2-y,1/2+x,1/2+z
1/2-x,1/2-y,1/2+z
1/2+y,1/2-x,1/2+z
1/2+x,1/2-y,1/2-z
1/2-x,1/2+y,1/2-z
1/2+y,1/2+x,1/2-z
1/2-y,1/2-x,1/2-z
loop_
_atom_site_type_symbol
_atom_site_label
_atom_site_fract_x
_atom_site_fract_y
_atom_site_fract_z
Si Si1 0.694382 0.663564 0.137097
Si Si2 0.931380 0.771959 0.889283
Si Si3 0.741818 0.358210 0.572840
Si Si4 0.129376 0.085489 0.241519
Si Si5 0.902303 0.389688 0.032090
Si Si6 0.768000 0.980151 0.431885
O O1 0.789519 0.715270 0.124951
O O2 0.644620 0.675294 0.203550
O O3 0.708138 0.557609 0.117825
O O4 0.619556 0.701349 0.088814
O O5 0.861508 0.822123 0.936256
O O6 0.906118 0.815360 0.823028
O O7 0.913529 0.666516 0.903454
O O8 0.038122 0.776848 0.905711
O O9 0.820013 0.355462 0.518630
O O10 0.024569 0.120346 0.245514
O O11 0.840514 0.472854 0.055933
O O12 0.000000 0.406270 0.000000
O O13 0.809591 0.000000 0.500000
#
# Coordination Sequence:
#
# PCOD9551468 Si02
#       6
#    16  16  16  16  16  16
#     4  12  25  44  67 102 139 182 233 286 353 415
#     4  11  22  41  69  96 133 180 224 289 348 413
#     4  11  23  42  67 101 138 175 229 291 348 425
#     4  11  23  43  65  95 135 177 233 280 339 420
#     4  10  23  43  67 100 138 183 235 284 352 427
#     4  12  24  42  70  97 141 180 224 291 349 416
#
# _framework density 20.905085
#
# number of rings (size 3 to 8) (size 9 to 14) (size 15 to 20)
#    0.000    0.833    6.667    1.000    0.000    1.667 
#    0.000    0.833    0.000    3.000    0.000    0.000 
#    0.000    0.000    0.000    0.000    0.000    0.000 
#
# Total GULP energy -267320.502529 kJ/mol
# GULP energy per Si atom -5569.177136 kJ/mol
# Density = 2.085750 g / cm^3
# Si number density = 20.905085 Si / 1000 Ang^3
#
#
#
# Elastic Constant Matrix: (Units=GPa)
#
#
# Indices 1 2 3 4 5 6 
#
# 1 99.5041 20.1626 30.7688 0.0000 0.0000 0.0000
# 2 20.1626 99.5041 30.7688 0.0000 0.0000 0.0000
# 3 30.7688 30.7688 115.1143 0.0000 0.0000 0.0000
# 4 0.0000 0.0000 0.0000 29.9953 0.0000 0.0000
# 5 0.0000 0.0000 0.0000 0.0000 29.9953 0.0000
# 6 0.0000 0.0000 0.0000 0.0000 0.0000 27.3807
#
#
#
# Elastic Compliance Matrix: (Units=1/GPa)
#
#
# Indices 1 2 3 4 5 6 
#
# 1 0.011146 -0.001458 -0.002590 0.000000 0.000000 0.000000
# 2 -0.001458 0.011146 -0.002590 0.000000 0.000000 0.000000
# 3 -0.002590 -0.002590 0.010071 0.000000 0.000000 0.000000
# 4 0.000000 0.000000 0.000000 0.033339 0.000000 0.000000
# 5 0.000000 0.000000 0.000000 0.000000 0.033339 0.000000
# 6 0.000000 0.000000 0.000000 0.000000 0.000000 0.036522
#
#
# Mechanical properties :
#
#
# Convention : Reuss Voigt Hill
#
# Bulk Modulus (GPa) = 52.38472 53.05809 52.72141
# Shear Modulus (GPa) = 32.21661 32.96906 32.59284
#
# Velocity S-wave (km/s) = 3.92993 3.97556 3.95281
# Velocity P-wave (km/s) = 6.76056 6.81975 6.79022
#
# Compressibility (1/GPa) = 0.01908954
#
# Stress axis : x y z
#
# Youngs Moduli (GPa) = 89.71846 89.71846 99.29164
#
# Poissons Ratio (x) = 0.13079 0.25712
# Poissons Ratio (y) = 0.13079 0.25712
# Poissons Ratio (z) = 0.23233 0.23233
#
# Static dielectric constant tensor:
#      x y z
#    x 1.810570 0.000000 0.000000 
#    y 0.000000 1.810570 0.000000 
#    z 0.000000 0.000000 1.806490 
# 
# From -- ./inp_files/6642.got.cif
#   From: 2010.05.17/outbox.cif.g08.bks.cpg/sg97_4_cif.got.tgz:6642.got - 2010.06.03 19:55:32.
