data_PCOD9551722
_publ_section_title
;
Structure prediction by ZEFSAII (Michael W. Deem and Ramdas Pophale) SiO2 
 PCOD9551722
Probable space group: I 41 2 2
;
_chemical_formula_sum "Si O2"
_cell_formula_units_Z 96
_cell_length_a 16.005120
_cell_length_b 16.005120
_cell_length_c 19.409412
_cell_angle_alpha 90.000000
_cell_angle_beta 90.000000
_cell_angle_gamma 90.000000
_cell_volume 4971.990019
_symmetry_space_group_name_H-M "I 41 2 2"
_symmetry_group_IT_number 98
_symmetry_cell_setting 'tetragonal'
loop_
_space_group_symop_operation_xyz
x,y,z
-y,1/2+x,1/4+z
-x,-y,z
y,1/2-x,1/4+z
x,1/2-y,1/4-z
-x,1/2+y,1/4-z
y,x,-z
-y,-x,-z
1/2+x,1/2+y,1/2+z
1/2-y,x,3/4+z
1/2-x,1/2-y,1/2+z
1/2+y,-x,3/4+z
1/2+x,-y,3/4-z
1/2-x,y,3/4-z
1/2+y,1/2+x,1/2-z
1/2-y,1/2-x,1/2-z
loop_
_atom_site_type_symbol
_atom_site_label
_atom_site_fract_x
_atom_site_fract_y
_atom_site_fract_z
Si Si1 0.548832 0.909530 0.824368
Si Si2 0.555837 0.083163 0.326226
Si Si3 0.998878 0.185538 0.680607
Si Si4 0.222945 0.974191 0.678518
Si Si5 0.441869 0.414235 0.726302
Si Si6 0.175717 0.713794 0.548367
O O1 0.593671 0.906330 0.750000
O O2 0.500484 0.819969 0.828900
O O3 0.598255 0.918959 0.896388
O O4 0.500000 0.000000 0.822856
O O5 0.592520 0.092520 0.250000
O O6 0.622587 0.053069 0.382043
O O7 0.514352 0.165733 0.359144
O O8 0.500000 0.000000 0.322954
O O9 0.035210 0.250000 0.625000
O O10 0.920900 0.216900 0.725900
O O11 0.063592 0.138820 0.728067
O O12 0.167038 0.018078 0.738245
O O13 0.216459 0.877208 0.698202
O O14 0.500000 0.500000 0.731629
O O15 0.177672 0.750000 0.625000
O O16 0.230161 0.769840 0.500000
#
# Coordination Sequence:
#
# PCOD9551722 Si02
#       6
#    16  16  16  16  16  16
#     4  10  26  44  64  92 123 167 235 281 327 383
#     4  10  19  35  60  98 137 162 208 250 330 424
#     4  10  20  34  57  93 135 168 203 255 322 413
#     4  11  22  41  68  91 127 178 215 272 339 391
#     4  11  20  43  68  93 128 170 215 266 337 402
#     4  10  23  35  56  96 134 163 206 256 329 413
#
# _framework density 19.308164999999999
#
# number of rings (size 3 to 8) (size 9 to 14) (size 15 to 20)
#    0.000    1.667    5.000    0.000    7.000    5.333 
#    0.000    0.000    3.667    0.000    0.000    0.000 
#    0.000    0.000    0.000    0.000    0.000    0.000 
#
# Total GULP energy -267217.382076 kJ/mol
# GULP energy per Si atom -5567.028793 kJ/mol
# Density = 1.926422 g / cm^3
# Si number density = 19.308165 Si / 1000 Ang^3
#
#
#
# Elastic Constant Matrix: (Units=GPa)
#
#
# Indices 1 2 3 4 5 6 
#
# 1 99.3917 52.3787 42.9550 0.0000 0.0000 0.0000
# 2 52.3787 99.3919 42.9562 0.0000 0.0000 0.0000
# 3 42.9550 42.9562 130.8810 0.0000 0.0000 0.0000
# 4 0.0000 0.0000 0.0000 15.5380 0.0000 0.0000
# 5 0.0000 0.0000 0.0000 0.0000 15.5437 0.0000
# 6 0.0000 0.0000 0.0000 0.0000 0.0000 18.5084
#
#
#
# Elastic Compliance Matrix: (Units=1/GPa)
#
#
# Indices 1 2 3 4 5 6 
#
# 1 0.014681 -0.006589 -0.002656 0.000000 0.000000 0.000000
# 2 -0.006589 0.014682 -0.002656 0.000000 0.000000 0.000000
# 3 -0.002656 -0.002656 0.009384 0.000000 0.000000 0.000000
# 4 0.000000 0.000000 0.000000 0.064358 0.000000 0.000000
# 5 0.000000 0.000000 0.000000 0.000000 0.064335 0.000000
# 6 0.000000 0.000000 0.000000 0.000000 0.000000 0.054029
#
#
# Mechanical properties :
#
#
# Convention : Reuss Voigt Hill
#
# Bulk Modulus (GPa) = 66.91283 67.36048 67.13665
# Shear Modulus (GPa) = 19.97979 22.67634 21.32807
#
# Velocity S-wave (km/s) = 3.22030 3.43073 3.32718
# Velocity P-wave (km/s) = 6.96832 7.11730 7.04321
#
# Compressibility (1/GPa) = 0.01494482
#
# Stress axis : x y z
#
# Youngs Moduli (GPa) = 68.11318 68.11281 106.56553
#
# Poissons Ratio (x) = 0.44881 0.28302
# Poissons Ratio (y) = 0.44881 0.28304
# Poissons Ratio (z) = 0.18090 0.18091
#
# Static dielectric constant tensor:
#      x y z
#    x 2.115330 0.000000 0.000000 
#    y 0.000000 2.115100 0.000000 
#    z 0.000000 0.000000 1.722310 
# 
# From -- ./inp_files/8930.got.cif
#   From: 2010.05.17/outbox.cif.g08.bks.cpg/sg98_5_cif.got.tgz:8930.got - 2010.06.03 20:00:51.
