data_PCOD9551948
_publ_section_title
;
Structure prediction by ZEFSAII (Michael W. Deem and Ramdas Pophale) SiO2 
 PCOD9551948
Probable space group: I 41 2 2
;
_chemical_formula_sum "Si O2"
_cell_formula_units_Z 72
_cell_length_a 13.894569
_cell_length_b 13.894569
_cell_length_c 18.778220
_cell_angle_alpha 90.000000
_cell_angle_beta 90.000000
_cell_angle_gamma 90.000000
_cell_volume 3625.305271
_symmetry_space_group_name_H-M "I 41 2 2"
_symmetry_group_IT_number 98
_symmetry_cell_setting 'tetragonal'
loop_
_space_group_symop_operation_xyz
x,y,z
-y,1/2+x,1/4+z
-x,-y,z
y,1/2-x,1/4+z
x,1/2-y,1/4-z
-x,1/2+y,1/4-z
y,x,-z
-y,-x,-z
1/2+x,1/2+y,1/2+z
1/2-y,x,3/4+z
1/2-x,1/2-y,1/2+z
1/2+y,-x,3/4+z
1/2+x,-y,3/4-z
1/2-x,y,3/4-z
1/2+y,1/2+x,1/2-z
1/2-y,1/2-x,1/2-z
loop_
_atom_site_type_symbol
_atom_site_label
_atom_site_fract_x
_atom_site_fract_y
_atom_site_fract_z
Si Si1 0.750000 0.046297 0.375000
Si Si2 0.000000 0.000000 0.000000
Si Si3 0.000000 0.000000 0.500000
Si Si4 0.416289 0.131999 0.017924
Si Si5 0.799828 0.700173 0.250000
Si Si6 0.962780 0.136968 0.376670
Si Si7 0.040845 0.347959 0.361521
O O1 0.848961 0.109219 0.380062
O O2 0.786305 0.976817 0.310576
O O3 0.010289 0.911800 0.946863
O O4 0.002051 0.091513 0.449248
O O5 0.312200 0.176864 0.000815
O O6 0.404848 0.035389 0.065641
O O7 0.455983 0.108507 0.939986
O O8 0.855426 0.664588 0.321644
O O9 0.984478 0.248634 0.370879
#
# Coordination Sequence:
#
# PCOD9551948 Si02
#       7
#     8   4   4  16   8  16  16
#     4  12  24  40  64  98 136 184 220 266 346 416
#     4  10  24  46  70  98 128 180 234 286 336 388
#     4  12  20  44  62  94 136 172 212 278 330 402
#     4  11  23  39  68  99 133 175 225 284 340 405
#     4   9  22  40  66 107 126 172 226 284 352 389
#     4  11  25  42  65  98 135 175 225 273 342 408
#     4  10  23  43  69  94 136 171 229 286 337 400
#
# _framework density 19.860396000000001
#
# number of rings (size 3 to 8) (size 9 to 14) (size 15 to 20)
#    0.000    1.333    2.222    2.000    9.333    0.889 
#    0.000    3.333    4.889    0.000    0.000    0.000 
#    0.000    0.000    0.000    0.000    0.000    0.000 
#
# Total GULP energy -200529.282444 kJ/mol
# GULP energy per Si atom -5570.257846 kJ/mol
# Density = 1.981519 g / cm^3
# Si number density = 19.860396 Si / 1000 Ang^3
#
#
#
# Elastic Constant Matrix: (Units=GPa)
#
#
# Indices 1 2 3 4 5 6 
#
# 1 125.2917 78.7755 76.6917 0.0000 0.0000 0.0000
# 2 78.7755 125.2925 76.6920 0.0000 0.0000 0.0000
# 3 76.6917 76.6920 197.8210 0.0000 0.0000 0.0000
# 4 0.0000 0.0000 0.0000 -9.5693 0.0000 0.0000
# 5 0.0000 0.0000 0.0000 0.0000 -9.5425 0.0000
# 6 0.0000 0.0000 0.0000 0.0000 0.0000 31.6670
#
#
#
# Elastic Compliance Matrix: (Units=1/GPa)
#
#
# Indices 1 2 3 4 5 6 
#
# 1 0.014207 -0.007291 -0.002681 0.000000 0.000000 0.000000
# 2 -0.007291 0.014207 -0.002681 0.000000 0.000000 0.000000
# 3 -0.002681 -0.002681 0.007134 0.000000 0.000000 0.000000
# 4 0.000000 0.000000 0.000000 -0.104501 0.000000 0.000000
# 5 0.000000 0.000000 0.000000 0.000000 -0.104794 0.000000
# 6 0.000000 0.000000 0.000000 0.000000 0.000000 0.031579
#
#
# Mechanical properties :
#
#
# Convention : Reuss Voigt Hill
#
# Bulk Modulus (GPa) = 97.64920 101.41371 99.53145
# Shear Modulus (GPa) = -44.07251 16.92744 -13.57253
#
# Velocity S-wave (km/s) = -4.71586 2.92262 -2.61702
# Velocity P-wave (km/s) = 4.42968 7.90968 6.41035
#
# Compressibility (1/GPa) = 0.01024074
#
# Stress axis : x y z
#
# Youngs Moduli (GPa) = 70.38974 70.39013 140.17698
#
# Poissons Ratio (x) = 0.51322 0.37582
# Poissons Ratio (y) = 0.51322 0.37582
# Poissons Ratio (z) = 0.18872 0.18872
#
# Static dielectric constant tensor:
#      x y z
#    x 1.744010 0.000000 0.000000 
#    y 0.000000 1.744000 0.000000 
#    z 0.000000 0.000000 1.893780 
# 
# From -- ./inp_files/7565.got.cif
#   From: 2010.05.17/outbox.cif.g08.bks.cpg/sg98_4_cif.got.tgz:7565.got - 2010.06.03 20:00:51.
