data_PCOD9551562
_publ_section_title
;
Structure prediction by ZEFSAII (Michael W. Deem and Ramdas Pophale) SiO2 
 PCOD9551562
Probable space group: I 4 2 2 
;
_chemical_formula_sum "Si O2"
_cell_formula_units_Z 48
_cell_length_a 11.390483
_cell_length_b 11.390483
_cell_length_c 15.042683
_cell_angle_alpha 90.000000
_cell_angle_beta 90.000000
_cell_angle_gamma 90.000000
_cell_volume 1951.684369
_symmetry_space_group_name_H-M "I 4 2 2 "
_symmetry_group_IT_number 97
_symmetry_cell_setting 'tetragonal'
loop_
_space_group_symop_operation_xyz
x,y,z
-y,x,z
-x,-y,z
y,-x,z
x,-y,-z
-x,y,-z
y,x,-z
-y,-x,-z
1/2+x,1/2+y,1/2+z
1/2-y,1/2+x,1/2+z
1/2-x,1/2-y,1/2+z
1/2+y,1/2-x,1/2+z
1/2+x,1/2-y,1/2-z
1/2-x,1/2+y,1/2-z
1/2+y,1/2+x,1/2-z
1/2-y,1/2-x,1/2-z
loop_
_atom_site_type_symbol
_atom_site_label
_atom_site_fract_x
_atom_site_fract_y
_atom_site_fract_z
Si Si1 0.226920 0.432791 0.699946
Si Si2 0.040093 0.184594 0.378617
Si Si3 0.652814 0.235961 0.413318
O O1 0.108050 0.391951 0.750000
O O2 0.296352 0.508232 0.774438
O O3 0.283078 0.311573 0.664620
O O4 0.224398 0.518051 0.615212
O O5 0.102846 0.299326 0.414561
O O6 0.914965 0.133955 0.405752
O O7 0.692037 0.307964 0.500000
#
# Coordination Sequence:
#
# PCOD9551562 Si02
#       3
#    16  16  16
#     4  12  23  48  75 111 151 207 260 307 384 482
#     4  11  23  46  77 103 143 205 264 303 374 481
#     4  12  27  46  74 116 157 192 253 333 396 443
#
# _framework density 24.594138000000001
#
# number of rings (size 3 to 8) (size 9 to 14) (size 15 to 20)
#    0.000    0.333    6.667    2.000    0.000    4.667 
#    0.000    3.333    7.333    0.000    0.000    0.000 
#    0.000    0.000    0.000    0.000    0.000    0.000 
#
# Total GULP energy -133880.605808 kJ/mol
# GULP energy per Si atom -5578.358575 kJ/mol
# Density = 2.453816 g / cm^3
# Si number density = 24.594138 Si / 1000 Ang^3
#
#
#
# Elastic Constant Matrix: (Units=GPa)
#
#
# Indices 1 2 3 4 5 6 
#
# 1 70.5753 63.4564 39.5249 0.0000 0.0000 0.0000
# 2 63.4564 70.5741 39.5245 0.0000 0.0000 0.0000
# 3 39.5249 39.5245 153.1801 0.0000 0.0000 0.0000
# 4 0.0000 0.0000 0.0000 38.7290 0.0000 0.0000
# 5 0.0000 0.0000 0.0000 0.0000 38.7294 0.0000
# 6 0.0000 0.0000 0.0000 0.0000 0.0000 17.3786
#
#
#
# Elastic Compliance Matrix: (Units=1/GPa)
#
#
# Indices 1 2 3 4 5 6 
#
# 1 0.074640 -0.065841 -0.002271 0.000000 0.000000 0.000000
# 2 -0.065841 0.074642 -0.002271 0.000000 0.000000 0.000000
# 3 -0.002271 -0.002271 0.007700 0.000000 0.000000 0.000000
# 4 0.000000 0.000000 0.000000 0.025820 0.000000 0.000000
# 5 0.000000 0.000000 0.000000 0.000000 0.025820 0.000000
# 6 0.000000 0.000000 0.000000 0.000000 0.000000 0.057542
#
#
# Mechanical properties :
#
#
# Convention : Reuss Voigt Hill
#
# Bulk Modulus (GPa) = 61.66118 64.37121 63.01619
# Shear Modulus (GPa) = 12.12607 29.08899 20.60753
#
# Velocity S-wave (km/s) = 2.22288 3.44286 2.89780
# Velocity P-wave (km/s) = 5.63153 6.48341 6.07243
#
# Compressibility (1/GPa) = 0.01621766
#
# Stress axis : x y z
#
# Youngs Moduli (GPa) = 13.39758 13.39736 129.86908
#
# Poissons Ratio (x) = 0.88209 0.29489
# Poissons Ratio (y) = 0.88211 0.29489
# Poissons Ratio (z) = 0.03042 0.03042
#
# Static dielectric constant tensor:
#      x y z
#    x 1.924880 0.000000 0.000000 
#    y 0.000000 1.924880 0.000000 
#    z 0.000000 0.000000 2.078740 
# 
# From -- ./inp_files/5323.got.cif
#   From: 2010.05.17/outbox.cif.g08.bks.cpg/sg97_3_cif.got.tgz:5323.got - 2010.06.03 19:55:32.
