data_PCOD9551205
_publ_section_title
;
Structure prediction by ZEFSAII (Michael W. Deem and Ramdas Pophale) SiO2 
 PCOD9551205
Probable space group: I 4 2 2 
;
_chemical_formula_sum "Si O2"
_cell_formula_units_Z 80
_cell_length_a 28.445416
_cell_length_b 28.445416
_cell_length_c 5.148829
_cell_angle_alpha 90.000000
_cell_angle_beta 90.000000
_cell_angle_gamma 90.000000
_cell_volume 4166.132206
_symmetry_space_group_name_H-M "I 4 2 2 "
_symmetry_group_IT_number 97
_symmetry_cell_setting 'tetragonal'
loop_
_space_group_symop_operation_xyz
x,y,z
-y,x,z
-x,-y,z
y,-x,z
x,-y,-z
-x,y,-z
y,x,-z
-y,-x,-z
1/2+x,1/2+y,1/2+z
1/2-y,1/2+x,1/2+z
1/2-x,1/2-y,1/2+z
1/2+y,1/2-x,1/2+z
1/2+x,1/2-y,1/2-z
1/2-x,1/2+y,1/2-z
1/2+y,1/2+x,1/2-z
1/2-y,1/2-x,1/2-z
loop_
_atom_site_type_symbol
_atom_site_label
_atom_site_fract_x
_atom_site_fract_y
_atom_site_fract_z
Si Si1 0.055486 0.731939 0.542413
Si Si2 0.186117 0.398410 0.542855
Si Si3 0.745497 0.675501 0.442031
Si Si4 0.591112 0.051853 0.000385
Si Si5 0.630447 0.700184 0.058057
O O1 0.071315 0.713976 0.824976
O O2 0.077575 0.783667 0.496039
O O3 0.000000 0.729300 0.500000
O O4 0.082191 0.700622 0.325249
O O5 0.202868 0.344674 0.499846
O O6 0.132068 0.409596 0.501560
O O7 0.728514 0.728514 0.500000
O O8 0.714770 0.645460 0.651521
O O9 0.730918 0.660844 0.151149
O O10 0.559794 0.059794 0.750000
O O11 0.559745 0.059745 0.250000
O O12 0.612957 0.000000 0.000000
O O13 0.647534 0.647534 0.000000
#
# Coordination Sequence:
#
# PCOD9551205 Si02
#       5
#    16  16  16  16  16
#     4  10  17  27  46  71  98 125 156 194 239 290
#     4  10  20  34  53  76 102 128 156 194 241 295
#     4   8  14  26  46  71  98 129 158 182 218 275
#     4  12  26  43  62  80 100 127 163 210 261 309
#     4   8  14  23  36  59  91 125 158 190 226 272
#
# _framework density 19.202463000000002
#
# number of rings (size 3 to 8) (size 9 to 14) (size 15 to 20)
#    0.000    2.400    0.000    3.600    0.000    1.200 
#    0.000    0.000    0.000    1.200    0.000    0.000 
#    0.000    0.400    0.000    0.000    0.000   76.000 
#
# Total GULP energy -223294.159976 kJ/mol
# GULP energy per Si atom -5582.353999 kJ/mol
# Density = 1.915876 g / cm^3
# Si number density = 19.202463 Si / 1000 Ang^3
#
#
#
# Elastic Constant Matrix: (Units=GPa)
#
#
# Indices 1 2 3 4 5 6 
#
# 1 50.0329 51.5506 17.9171 0.0000 0.0000 0.0000
# 2 51.5506 50.0329 17.9171 0.0000 0.0000 0.0000
# 3 17.9171 17.9171 102.0037 0.0000 0.0000 0.0000
# 4 0.0000 0.0000 0.0000 28.6698 0.0000 0.0000
# 5 0.0000 0.0000 0.0000 0.0000 28.6698 0.0000
# 6 0.0000 0.0000 0.0000 0.0000 0.0000 18.5111
#
#
#
# Elastic Compliance Matrix: (Units=1/GPa)
#
#
# Indices 1 2 3 4 5 6 
#
# 1 -0.324187 0.334681 -0.001843 0.000000 0.000000 0.000000
# 2 0.334681 -0.324187 -0.001843 0.000000 0.000000 0.000000
# 3 -0.001843 -0.001843 0.010451 0.000000 0.000000 0.000000
# 4 0.000000 0.000000 0.000000 0.034880 0.000000 0.000000
# 5 0.000000 0.000000 0.000000 0.000000 0.034880 0.000000
# 6 0.000000 0.000000 0.000000 0.000000 0.000000 0.054022
#
#
# Mechanical properties :
#
#
# Convention : Reuss Voigt Hill
#
# Bulk Modulus (GPa) = 41.55155 41.87099 41.71127
# Shear Modulus (GPa) = -4.28042 22.81578 9.26768
#
# Velocity S-wave (km/s) = -1.49464 3.45072 2.19927
# Velocity P-wave (km/s) = 4.32516 6.14239 5.31206
#
# Compressibility (1/GPa) = 0.02406649
#
# Stress axis : x y z
#
# Youngs Moduli (GPa) = -3.08464 -3.08464 95.68334
#
# Poissons Ratio (x) = 1.03237 0.17638
# Poissons Ratio (y) = 1.03237 0.17638
# Poissons Ratio (z) = -0.00569 -0.00569
#
# Static dielectric constant tensor:
#      x y z
#    x 1.682230 0.000000 0.000000 
#    y 0.000000 1.682230 0.000000 
#    z 0.000000 0.000000 1.692230 
# 
# From -- ./inp_files/978.got.cif
#   From: 2010.05.17/outbox.cif.g08.bks.cpg/sg97_1_cif.got.tgz:978.got - 2010.06.03 19:55:32.
