data_PCOD9551346
_publ_section_title
;
Structure prediction by ZEFSAII (Michael W. Deem and Ramdas Pophale) SiO2 
 PCOD9551346
Probable space group: I 4 2 2 
;
_chemical_formula_sum "Si O2"
_cell_formula_units_Z 48
_cell_length_a 20.761395
_cell_length_b 20.761395
_cell_length_c 5.518264
_cell_angle_alpha 90.000000
_cell_angle_beta 90.000000
_cell_angle_gamma 90.000000
_cell_volume 2378.567806
_symmetry_space_group_name_H-M "I 4 2 2 "
_symmetry_group_IT_number 97
_symmetry_cell_setting 'tetragonal'
loop_
_space_group_symop_operation_xyz
x,y,z
-y,x,z
-x,-y,z
y,-x,z
x,-y,-z
-x,y,-z
y,x,-z
-y,-x,-z
1/2+x,1/2+y,1/2+z
1/2-y,1/2+x,1/2+z
1/2-x,1/2-y,1/2+z
1/2+y,1/2-x,1/2+z
1/2+x,1/2-y,1/2-z
1/2-x,1/2+y,1/2-z
1/2+y,1/2+x,1/2-z
1/2-y,1/2-x,1/2-z
loop_
_atom_site_type_symbol
_atom_site_label
_atom_site_fract_x
_atom_site_fract_y
_atom_site_fract_z
Si Si1 0.626042 0.126042 0.750000
Si Si2 0.656727 0.759962 0.920470
Si Si3 0.029753 0.216421 0.248674
Si Si4 0.656634 0.000000 0.000000
O O1 0.698382 0.124583 0.635854
O O2 0.565403 0.120467 0.569239
O O3 0.685305 0.814696 0.750000
O O4 0.606254 0.715204 0.779515
O O5 0.715548 0.715548 0.000000
O O6 0.016283 0.293100 0.215435
O O7 0.000000 0.192488 0.500000
O O8 0.000000 0.188179 0.000000
#
# Coordination Sequence:
#
# PCOD9551346 Si02
#       4
#     8  16  16   8
#     4  12  22  40  60  89 126 170 224 269 334 368
#     4  12  22  35  61  95 124 159 208 271 334 397
#     4  10  20  38  59  82 119 173 202 246 324 385
#     4  10  22  36  64  77 114 176 217 266 312 366
#
# _framework density 20.180212000000001
#
# number of rings (size 3 to 8) (size 9 to 14) (size 15 to 20)
#    1.000    0.000    8.333    0.000    0.000    0.000 
#    0.000    0.000    3.667    6.000    0.000    0.000 
#    0.000    0.667    6.333    0.000    0.000    0.000 
#
# Total GULP energy -133656.550040 kJ/mol
# GULP energy per Si atom -5569.022918 kJ/mol
# Density = 2.013428 g / cm^3
# Si number density = 20.180212 Si / 1000 Ang^3
#
#
#
# Elastic Constant Matrix: (Units=GPa)
#
#
# Indices 1 2 3 4 5 6 
#
# 1 34.7994 32.7935 16.6826 0.0000 0.0000 0.0000
# 2 32.7935 34.8076 16.6809 0.0000 0.0000 0.0000
# 3 16.6826 16.6809 107.2453 0.0000 0.0000 0.0000
# 4 0.0000 0.0000 0.0000 19.5618 0.0000 0.0000
# 5 0.0000 0.0000 0.0000 0.0000 19.5625 0.0000
# 6 0.0000 0.0000 0.0000 0.0000 0.0000 1.8129
#
#
#
# Elastic Compliance Matrix: (Units=1/GPa)
#
#
# Indices 1 2 3 4 5 6 
#
# 1 0.256804 -0.240746 -0.002502 0.000000 0.000000 0.000000
# 2 -0.240746 0.256735 -0.002483 0.000000 0.000000 0.000000
# 3 -0.002502 -0.002483 0.010100 0.000000 0.000000 0.000000
# 4 0.000000 0.000000 0.000000 0.051120 0.000000 0.000000
# 5 0.000000 0.000000 0.000000 0.000000 0.051118 0.000000
# 6 0.000000 0.000000 0.000000 0.000000 0.000000 0.551588
#
#
# Mechanical properties :
#
#
# Convention : Reuss Voigt Hill
#
# Bulk Modulus (GPa) = 31.07762 34.35181 32.71472
# Shear Modulus (GPa) = 2.97681 15.56712 9.27196
#
# Velocity S-wave (km/s) = 1.21586 2.78043 2.14582
# Velocity P-wave (km/s) = 4.17188 5.23137 4.73137
#
# Compressibility (1/GPa) = 0.03217749
#
# Stress axis : x y z
#
# Youngs Moduli (GPa) = 3.89401 3.89507 99.01180
#
# Poissons Ratio (x) = 0.93772 0.24772
# Poissons Ratio (y) = 0.93747 0.24585
# Poissons Ratio (z) = 0.00974 0.00967
#
# Static dielectric constant tensor:
#      x y z
#    x 1.748170 0.000000 0.000000 
#    y 0.000000 1.748170 0.000000 
#    z 0.000000 0.000000 1.700770 
# 
# From -- ./inp_files/490.got.cif
#   From: 2010.05.17/outbox.cif.g08.bks.cpg/sg97_1_cif.got.tgz:490.got - 2010.06.03 19:55:32.
