data_PCOD9551435
_publ_section_title
;
Structure prediction by ZEFSAII (Michael W. Deem and Ramdas Pophale) SiO2 
 PCOD9551435
Probable space group: I 4 2 2 
;
_chemical_formula_sum "Si O2"
_cell_formula_units_Z 80
_cell_length_a 10.971357
_cell_length_b 10.971357
_cell_length_c 28.106316
_cell_angle_alpha 90.000000
_cell_angle_beta 90.000000
_cell_angle_gamma 90.000000
_cell_volume 3383.176212
_symmetry_space_group_name_H-M "I 4 2 2 "
_symmetry_group_IT_number 97
_symmetry_cell_setting 'tetragonal'
loop_
_space_group_symop_operation_xyz
x,y,z
-y,x,z
-x,-y,z
y,-x,z
x,-y,-z
-x,y,-z
y,x,-z
-y,-x,-z
1/2+x,1/2+y,1/2+z
1/2-y,1/2+x,1/2+z
1/2-x,1/2-y,1/2+z
1/2+y,1/2-x,1/2+z
1/2+x,1/2-y,1/2-z
1/2-x,1/2+y,1/2-z
1/2+y,1/2+x,1/2-z
1/2-y,1/2-x,1/2-z
loop_
_atom_site_type_symbol
_atom_site_label
_atom_site_fract_x
_atom_site_fract_y
_atom_site_fract_z
Si Si1 0.631240 0.837298 0.829404
Si Si2 0.701534 0.465291 0.737511
Si Si3 0.194512 0.993510 0.392583
Si Si4 0.782510 0.217491 0.000000
Si Si5 0.000000 0.737905 0.500000
Si Si6 0.367629 0.650757 0.394945
O O1 0.568266 0.751068 0.789859
O O2 0.683370 0.947942 0.797661
O O3 0.529704 0.828465 0.871185
O O4 0.754250 0.806551 0.859290
O O5 0.636193 0.594824 0.730662
O O6 0.110513 0.880172 0.376995
O O7 0.195726 0.992199 0.449452
O O8 0.637561 0.185058 0.996743
O O9 0.840040 0.175526 0.950366
O O10 0.334748 0.511486 0.386130
#
# Coordination Sequence:
#
# PCOD9551435 Si02
#       6
#    16  16  16   8   8  16
#     4  11  21  37  65  99 127 161 224 290 338 393
#     4  10  22  41  67  96 129 172 224 282 344 420
#     4  11  20  34  60  93 126 170 219 273 334 410
#     4  12  24  40  66  96 136 172 230 280 348 404
#     4  12  20  37  63  96 132 170 213 283 336 406
#     4  11  24  45  69  91 124 180 240 281 325 408
#
# _framework density 23.646418000000001
#
# number of rings (size 3 to 8) (size 9 to 14) (size 15 to 20)
#    0.000    1.000    4.000    3.000    0.000    5.000 
#    0.000    2.000    0.000   44.400    0.000    0.000 
#    0.000    0.000    0.000    0.000    0.000    0.000 
#
# Total GULP energy -222775.200123 kJ/mol
# GULP energy per Si atom -5569.380003 kJ/mol
# Density = 2.359260 g / cm^3
# Si number density = 23.646418 Si / 1000 Ang^3
#
#
#
# Elastic Constant Matrix: (Units=GPa)
#
#
# Indices 1 2 3 4 5 6 
#
# 1 -10.3917 67.9600 9.4516 0.0000 0.0000 0.0000
# 2 67.9600 -10.3914 9.4520 0.0000 0.0000 0.0000
# 3 9.4516 9.4520 124.8751 0.0000 0.0000 0.0000
# 4 0.0000 0.0000 0.0000 32.9871 0.0000 0.0000
# 5 0.0000 0.0000 0.0000 0.0000 32.9869 0.0000
# 6 0.0000 0.0000 0.0000 0.0000 0.0000 156.1046
#
#
#
# Elastic Compliance Matrix: (Units=1/GPa)
#
#
# Indices 1 2 3 4 5 6 
#
# 1 0.002525 0.015288 -0.001348 0.000000 0.000000 0.000000
# 2 0.015288 0.002525 -0.001348 0.000000 0.000000 0.000000
# 3 -0.001348 -0.001348 0.008212 0.000000 0.000000 0.000000
# 4 0.000000 0.000000 0.000000 0.030315 0.000000 0.000000
# 5 0.000000 0.000000 0.000000 0.000000 0.030315 0.000000
# 6 0.000000 0.000000 0.000000 0.000000 0.000000 0.006406
#
#
# Mechanical properties :
#
#
# Convention : Reuss Voigt Hill
#
# Bulk Modulus (GPa) = 26.01075 30.86881 28.43978
# Shear Modulus (GPa) = 73.60476 45.56430 59.58453
#
# Velocity S-wave (km/s) = 5.58523 4.39441 5.02522
# Velocity P-wave (km/s) = 7.25375 6.23141 6.76193
#
# Compressibility (1/GPa) = 0.03844564
#
# Stress axis : x y z
#
# Youngs Moduli (GPa) = 396.01605 396.00565 121.77148
#
# Poissons Ratio (x) = -6.05420 0.16419
# Poissons Ratio (y) = -6.05436 0.16418
# Poissons Ratio (z) = 0.53395 0.53392
#
# Static dielectric constant tensor:
#      x y z
#    x 1.955350 0.000000 0.000000 
#    y 0.000000 1.955340 0.000000 
#    z 0.000000 0.000000 1.917520 
# 
# From -- ./inp_files/8004.got.cif
#   From: 2010.05.17/outbox.cif.g08.bks.cpg/sg97_5_cif.got.tgz:8004.got - 2010.06.03 19:55:32.
