data_PCOD9551156
_publ_section_title
;
Structure prediction by ZEFSAII (Michael W. Deem and Ramdas Pophale) SiO2 
 PCOD9551156
Probable space group: P 43 21 2
;
_chemical_formula_sum "Si O2"
_cell_formula_units_Z 24
_cell_length_a 12.243318
_cell_length_b 12.243318
_cell_length_c 6.504260
_cell_angle_alpha 90.000000
_cell_angle_beta 90.000000
_cell_angle_gamma 90.000000
_cell_volume 974.981001
_symmetry_space_group_name_H-M "P 43 21 2"
_symmetry_group_IT_number 96
_symmetry_cell_setting 'tetragonal'
loop_
_space_group_symop_operation_xyz
x,y,z
1/2-y,1/2+x,3/4+z
-x,-y,1/2+z
1/2+y,1/2-x,1/4+z
1/2+x,1/2-y,1/4-z
1/2-x,1/2+y,3/4-z
y,x,-z
-y,-x,1/2-z
loop_
_atom_site_type_symbol
_atom_site_label
_atom_site_fract_x
_atom_site_fract_y
_atom_site_fract_z
Si Si1 0.142767 0.082677 0.708573
Si Si2 0.694004 0.547558 0.158258
Si Si3 0.380733 0.097646 0.543707
O O1 0.070782 0.070782 0.500000
O O2 0.262589 0.118080 0.639709
O O3 0.979018 0.158760 0.141557
O O4 0.177651 0.074518 0.181306
O O5 0.816374 0.590483 0.135833
O O6 0.623978 0.623978 0.000000
O O7 0.475039 0.115546 0.710650
#
# Coordination Sequence:
#
# PCOD9551156 Si02
#       3
#     8   8   8
#     4  11  25  49  73 115 156 212 270 331 401 493
#     4  11  27  47  81 114 161 211 273 341 406 492
#     4  12  25  47  76 117 163 211 265 338 422 501
#
# _framework density 24.615863999999998
#
# number of rings (size 3 to 8) (size 9 to 14) (size 15 to 20)
#    0.000    0.667    3.333    3.000    4.667    0.000 
#    6.000    0.000    0.000    0.000    0.000    0.000 
#    0.000    0.000    0.000    0.000    0.000    0.000 
#
# Total GULP energy -134106.627686 kJ/mol
# GULP energy per Si atom -5587.776154 kJ/mol
# Density = 2.455984 g / cm^3
# Si number density = 24.615864 Si / 1000 Ang^3
#
#
#
# Elastic Constant Matrix: (Units=GPa)
#
#
# Indices 1 2 3 4 5 6 
#
# 1 139.9391 52.5130 38.4918 0.0000 0.0000 0.0000
# 2 52.5130 139.9391 38.4918 0.0000 0.0000 0.0000
# 3 38.4918 38.4918 120.5582 0.0000 0.0000 0.0000
# 4 0.0000 0.0000 0.0000 36.3296 0.0000 0.0000
# 5 0.0000 0.0000 0.0000 0.0000 36.3296 0.0000
# 6 0.0000 0.0000 0.0000 0.0000 0.0000 27.4398
#
#
#
# Elastic Compliance Matrix: (Units=1/GPa)
#
#
# Indices 1 2 3 4 5 6 
#
# 1 0.008698 -0.002741 -0.001902 0.000000 0.000000 0.000000
# 2 -0.002741 0.008698 -0.001902 0.000000 0.000000 0.000000
# 3 -0.001902 -0.001902 0.009509 0.000000 0.000000 0.000000
# 4 0.000000 0.000000 0.000000 0.027526 0.000000 0.000000
# 5 0.000000 0.000000 0.000000 0.000000 0.027526 0.000000
# 6 0.000000 0.000000 0.000000 0.000000 0.000000 0.036443
#
#
# Mechanical properties :
#
#
# Convention : Reuss Voigt Hill
#
# Bulk Modulus (GPa) = 72.38320 73.26994 72.82657
# Shear Modulus (GPa) = 36.73946 38.08246 37.41096
#
# Velocity S-wave (km/s) = 3.86749 3.93755 3.90268
# Velocity P-wave (km/s) = 7.02939 7.10650 7.06805
#
# Compressibility (1/GPa) = 0.01381536
#
# Stress axis : x y z
#
# Youngs Moduli (GPa) = 114.97479 114.97479 105.16098
#
# Poissons Ratio (x) = 0.31511 0.20001
# Poissons Ratio (y) = 0.31511 0.20001
# Poissons Ratio (z) = 0.21867 0.21867
#
# Static dielectric constant tensor:
#      x y z
#    x 1.920670 0.000000 0.000000 
#    y 0.000000 1.920670 0.000000 
#    z 0.000000 0.000000 2.081860 
# 
# From -- ./inp_files/217.got.cif
#   From: 2010.05.17/outbox.cif.g08.bks.cpg/sg96_1_cif.got.tgz:217.got - 2010.06.03 19:52:08.
