data_PCOD9551421
_publ_section_title
;
Structure prediction by ZEFSAII (Michael W. Deem and Ramdas Pophale) SiO2 
 PCOD9551421
Probable space group: I 4 2 2 
;
_chemical_formula_sum "Si O2"
_cell_formula_units_Z 40
_cell_length_a 10.868253
_cell_length_b 10.868253
_cell_length_c 17.499584
_cell_angle_alpha 90.000000
_cell_angle_beta 90.000000
_cell_angle_gamma 90.000000
_cell_volume 2067.032020
_symmetry_space_group_name_H-M "I 4 2 2 "
_symmetry_group_IT_number 97
_symmetry_cell_setting 'tetragonal'
loop_
_space_group_symop_operation_xyz
x,y,z
-y,x,z
-x,-y,z
y,-x,z
x,-y,-z
-x,y,-z
y,x,-z
-y,-x,-z
1/2+x,1/2+y,1/2+z
1/2-y,1/2+x,1/2+z
1/2-x,1/2-y,1/2+z
1/2+y,1/2-x,1/2+z
1/2+x,1/2-y,1/2-z
1/2-x,1/2+y,1/2-z
1/2+y,1/2+x,1/2-z
1/2-y,1/2-x,1/2-z
loop_
_atom_site_type_symbol
_atom_site_label
_atom_site_fract_x
_atom_site_fract_y
_atom_site_fract_z
Si Si1 0.500000 0.708827 0.000000
Si Si2 0.801317 0.947740 0.796061
Si Si3 0.368545 0.935655 0.354913
O O1 0.381540 0.618461 0.000000
O O2 0.490844 0.796180 0.073678
O O3 0.723804 0.943305 0.717216
O O4 0.707141 0.906561 0.861683
O O5 0.915668 0.855423 0.799032
O O6 0.500000 0.000000 0.341344
#
# Coordination Sequence:
#
# PCOD9551421 Si02
#       3
#     8  16  16
#     4  11  25  44  66  90 127 177 218 264 328 391
#     4  10  22  39  65  96 128 166 214 269 325 379
#     4  11  24  38  65  96 129 167 217 270 325 383
#
# _framework density 19.351417000000001
#
# number of rings (size 3 to 8) (size 9 to 14) (size 15 to 20)
#    0.000    1.400    0.000    5.400   16.800    3.200 
#    0.000    0.000    0.000    0.000    0.000    0.000 
#    0.000    0.000    0.000    0.000    0.000    0.000 
#
# Total GULP energy -111622.197318 kJ/mol
# GULP energy per Si atom -5581.109866 kJ/mol
# Density = 1.930737 g / cm^3
# Si number density = 19.351417 Si / 1000 Ang^3
#
#
#
# Elastic Constant Matrix: (Units=GPa)
#
#
# Indices 1 2 3 4 5 6 
#
# 1 117.5338 99.3960 28.8059 0.0000 0.0000 0.0000
# 2 99.3960 117.5337 28.8062 0.0000 0.0000 0.0000
# 3 28.8059 28.8062 72.1620 0.0000 0.0000 0.0000
# 4 0.0000 0.0000 0.0000 21.9001 0.0000 0.0000
# 5 0.0000 0.0000 0.0000 0.0000 21.9009 0.0000
# 6 0.0000 0.0000 0.0000 0.0000 0.0000 18.4571
#
#
#
# Elastic Compliance Matrix: (Units=1/GPa)
#
#
# Indices 1 2 3 4 5 6 
#
# 1 0.030145 -0.024989 -0.002058 0.000000 0.000000 0.000000
# 2 -0.024989 0.030145 -0.002058 0.000000 0.000000 0.000000
# 3 -0.002058 -0.002058 0.015501 0.000000 0.000000 0.000000
# 4 0.000000 0.000000 0.000000 0.045662 0.000000 0.000000
# 5 0.000000 0.000000 0.000000 0.000000 0.045660 0.000000
# 6 0.000000 0.000000 0.000000 0.000000 0.000000 0.054180
#
#
# Mechanical properties :
#
#
# Convention : Reuss Voigt Hill
#
# Bulk Modulus (GPa) = 56.88139 69.02730 62.95435
# Shear Modulus (GPa) = 17.52149 22.46639 19.99394
#
# Velocity S-wave (km/s) = 3.01231 3.41100 3.21783
# Velocity P-wave (km/s) = 6.44643 7.15968 6.81240
#
# Compressibility (1/GPa) = 0.01758044
#
# Stress axis : x y z
#
# Youngs Moduli (GPa) = 33.17297 33.17289 64.51168
#
# Poissons Ratio (x) = 0.82894 0.13278
# Poissons Ratio (y) = 0.82895 0.13280
# Poissons Ratio (z) = 0.06828 0.06829
#
# Static dielectric constant tensor:
#      x y z
#    x 1.697640 0.000000 0.000000 
#    y 0.000000 1.697640 0.000000 
#    z 0.000000 0.000000 1.702130 
# 
# From -- ./inp_files/5206.got.cif
#   From: 2010.05.17/outbox.cif.g08.bks.cpg/sg97_3_cif.got.tgz:5206.got - 2010.06.03 19:55:32.
