data_PCOD9551687
_publ_section_title
;
Structure prediction by ZEFSAII (Michael W. Deem and Ramdas Pophale) SiO2 
 PCOD9551687
Probable space group: I 41 2 2
;
_chemical_formula_sum "Si O2"
_cell_formula_units_Z 112
_cell_length_a 13.808785
_cell_length_b 13.808785
_cell_length_c 26.181125
_cell_angle_alpha 90.000000
_cell_angle_beta 90.000000
_cell_angle_gamma 90.000000
_cell_volume 4992.283498
_symmetry_space_group_name_H-M "I 41 2 2"
_symmetry_group_IT_number 98
_symmetry_cell_setting 'tetragonal'
loop_
_space_group_symop_operation_xyz
x,y,z
-y,1/2+x,1/4+z
-x,-y,z
y,1/2-x,1/4+z
x,1/2-y,1/4-z
-x,1/2+y,1/4-z
y,x,-z
-y,-x,-z
1/2+x,1/2+y,1/2+z
1/2-y,x,3/4+z
1/2-x,1/2-y,1/2+z
1/2+y,-x,3/4+z
1/2+x,-y,3/4-z
1/2-x,y,3/4-z
1/2+y,1/2+x,1/2-z
1/2-y,1/2-x,1/2-z
loop_
_atom_site_type_symbol
_atom_site_label
_atom_site_fract_x
_atom_site_fract_y
_atom_site_fract_z
Si Si1 0.340098 0.001724 0.738388
Si Si2 0.976827 0.763108 0.874455
Si Si3 0.403732 0.009794 0.544083
Si Si4 0.760078 0.014668 0.297734
Si Si5 0.555081 0.898754 0.136836
Si Si6 0.282643 0.815089 0.175350
Si Si7 0.202828 0.569703 0.430161
O O1 0.403429 0.096572 0.750000
O O2 0.411229 0.911229 0.750000
O O3 0.303864 0.998612 0.680305
O O4 0.250168 0.997258 0.777397
O O5 0.932240 0.850170 0.839964
O O6 0.075058 0.728976 0.844865
O O7 0.914649 0.665937 0.879100
O O8 0.317490 0.006180 0.503408
O O9 0.439599 0.912407 0.574678
O O10 0.500000 0.000000 0.508095
O O11 0.713109 0.121148 0.295098
O O12 0.838025 0.002270 0.343506
O O13 0.669682 0.947854 0.313335
O O14 0.500000 0.000000 0.145013
O O15 0.288411 0.750000 0.125000
O O16 0.180107 0.786188 0.199586
O O17 0.250000 0.558542 0.375000
#
# Coordination Sequence:
#
# PCOD9551687 Si02
#       7
#    16  16  16  16  16  16  16
#     4  11  25  41  68  98 135 184 240 302 363 436
#     4  11  25  43  69 101 142 191 235 304 378 430
#     4  11  27  44  70  99 140 185 240 300 359 444
#     4  11  23  39  71 106 138 192 246 286 371 448
#     4  11  22  42  70 103 148 187 234 304 369 457
#     4  10  18  38  63 102 134 167 231 302 355 424
#     4  10  24  40  67 100 134 175 232 304 360 419
#
# _framework density 22.434622999999998
#
# number of rings (size 3 to 8) (size 9 to 14) (size 15 to 20)
#    0.000    1.286    2.857    3.000   12.000    2.286 
#    0.000    3.571    0.000    0.000    0.000    0.000 
#    0.000    0.000    0.000    0.000    0.000    0.000 
#
# Total GULP energy -312220.760715 kJ/mol
# GULP energy per Si atom -5575.370727 kJ/mol
# Density = 2.238356 g / cm^3
# Si number density = 22.434623 Si / 1000 Ang^3
#
#
#
# Elastic Constant Matrix: (Units=GPa)
#
#
# Indices 1 2 3 4 5 6 
#
# 1 78.9993 6.7498 18.7143 0.0000 0.0000 0.0000
# 2 6.7498 78.9998 18.7150 0.0000 0.0000 0.0000
# 3 18.7143 18.7150 107.4523 0.0000 0.0000 0.0000
# 4 0.0000 0.0000 0.0000 39.1602 0.0000 0.0000
# 5 0.0000 0.0000 0.0000 0.0000 39.1603 0.0000
# 6 0.0000 0.0000 0.0000 0.0000 0.0000 531.3873
#
#
#
# Elastic Compliance Matrix: (Units=1/GPa)
#
#
# Indices 1 2 3 4 5 6 
#
# 1 0.013231 -0.000610 -0.002198 0.000000 0.000000 0.000000
# 2 -0.000610 0.013231 -0.002198 0.000000 0.000000 0.000000
# 3 -0.002198 -0.002198 0.010072 0.000000 0.000000 0.000000
# 4 0.000000 0.000000 0.000000 0.025536 0.000000 0.000000
# 5 0.000000 0.000000 0.000000 0.000000 0.025536 0.000000
# 6 0.000000 0.000000 0.000000 0.000000 0.000000 0.001882
#
#
# Mechanical properties :
#
#
# Convention : Reuss Voigt Hill
#
# Bulk Modulus (GPa) = 37.70445 39.31218 38.50831
# Shear Modulus (GPa) = 46.15032 136.69304 91.42168
#
# Velocity S-wave (km/s) = 4.54045 7.81420 6.39052
# Velocity P-wave (km/s) = 6.65811 9.94871 8.46484
#
# Compressibility (1/GPa) = 0.02652207
#
# Stress axis : x y z
#
# Youngs Moduli (GPa) = 75.57907 75.57938 99.28341
#
# Poissons Ratio (x) = 0.04608 0.21824
# Poissons Ratio (y) = 0.04608 0.21825
# Poissons Ratio (z) = 0.16614 0.16614
#
# Static dielectric constant tensor:
#      x y z
#    x 2.224150 0.000000 0.000000 
#    y 0.000000 2.224160 0.000000 
#    z 0.000000 0.000000 1.550910 
# 
# From -- ./inp_files/10092.got.cif
#   From: 2010.05.17/outbox.cif.g08.bks.cpg/sg98_6_cif.got.tgz:10092.got - 2010.06.03 20:00:51.
