data_PCOD9551283
_publ_section_title
;
Structure prediction by ZEFSAII (Michael W. Deem and Ramdas Pophale) SiO2 
 PCOD9551283
Probable space group: I 4 2 2 
;
_chemical_formula_sum "Si O2"
_cell_formula_units_Z 96
_cell_length_a 23.912592
_cell_length_b 23.912592
_cell_length_c 9.015227
_cell_angle_alpha 90.000000
_cell_angle_beta 90.000000
_cell_angle_gamma 90.000000
_cell_volume 5155.015488
_symmetry_space_group_name_H-M "I 4 2 2 "
_symmetry_group_IT_number 97
_symmetry_cell_setting 'tetragonal'
loop_
_space_group_symop_operation_xyz
x,y,z
-y,x,z
-x,-y,z
y,-x,z
x,-y,-z
-x,y,-z
y,x,-z
-y,-x,-z
1/2+x,1/2+y,1/2+z
1/2-y,1/2+x,1/2+z
1/2-x,1/2-y,1/2+z
1/2+y,1/2-x,1/2+z
1/2+x,1/2-y,1/2-z
1/2-x,1/2+y,1/2-z
1/2+y,1/2+x,1/2-z
1/2-y,1/2-x,1/2-z
loop_
_atom_site_type_symbol
_atom_site_label
_atom_site_fract_x
_atom_site_fract_y
_atom_site_fract_z
Si Si1 0.940769 0.275703 0.445155
Si Si2 0.602565 0.675613 0.849441
Si Si3 0.935874 0.844948 0.029272
Si Si4 0.667332 0.830835 0.428392
Si Si5 0.211245 0.788756 0.500000
Si Si6 0.767958 0.558243 0.591908
Si Si7 0.932676 0.067324 0.500000
O O1 0.926092 0.215733 0.524945
O O2 0.891988 0.318340 0.488975
O O3 0.946063 0.276229 0.267635
O O4 0.000000 0.294509 0.500000
O O5 0.575728 0.683870 0.688813
O O6 0.668280 0.690926 0.869161
O O7 0.590369 0.609385 0.873758
O O8 0.896983 0.896983 0.000000
O O9 0.921551 0.795867 0.916876
O O10 0.000000 0.860102 0.000000
O O11 0.666138 0.833863 0.250000
O O12 0.723704 0.797507 0.468637
O O13 0.608139 0.805505 0.474255
O O14 0.773217 0.500000 0.500000
O O15 0.000000 0.075907 0.500000
#
# Coordination Sequence:
#
# PCOD9551283 Si02
#       7
#    16  16  16  16   8  16   8
#     4  10  19  38  63  82 114 153 197 233 283 362
#     4  10  22  37  57  79 111 150 197 243 291 358
#     4  11  26  39  56  82 114 159 197 250 308 348
#     4   9  20  34  57  87 117 150 184 240 296 350
#     4   9  20  35  58  91 110 152 197 240 305 352
#     4  10  22  39  58  87 119 153 189 236 303 356
#     4  10  22  33  52  72  94 136 194 244 283 318
#
# _framework density 18.622641000000002
#
# number of rings (size 3 to 8) (size 9 to 14) (size 15 to 20)
#    0.000    2.083    0.000    2.500   12.833    0.167 
#    0.000    6.667    0.000    0.500    0.000    3.500 
#    0.000    0.000    0.000    0.000    0.000    0.000 
#
# Total GULP energy -267267.356361 kJ/mol
# GULP energy per Si atom -5568.069924 kJ/mol
# Density = 1.858026 g / cm^3
# Si number density = 18.622641 Si / 1000 Ang^3
#
#
#
# Elastic Constant Matrix: (Units=GPa)
#
#
# Indices 1 2 3 4 5 6 
#
# 1 115.1455 72.1245 36.6414 0.0000 0.0000 0.0000
# 2 72.1245 115.1426 36.6415 0.0000 0.0000 0.0000
# 3 36.6414 36.6415 48.4022 0.0000 0.0000 0.0000
# 4 0.0000 0.0000 0.0000 16.3925 0.0000 0.0000
# 5 0.0000 0.0000 0.0000 0.0000 16.3924 0.0000
# 6 0.0000 0.0000 0.0000 0.0000 0.0000 22.5609
#
#
#
# Elastic Compliance Matrix: (Units=1/GPa)
#
#
# Indices 1 2 3 4 5 6 
#
# 1 0.015416 -0.007829 -0.005744 0.000000 0.000000 0.000000
# 2 -0.007829 0.015417 -0.005744 0.000000 0.000000 0.000000
# 3 -0.005744 -0.005744 0.029357 0.000000 0.000000 0.000000
# 4 0.000000 0.000000 0.000000 0.061004 0.000000 0.000000
# 5 0.000000 0.000000 0.000000 0.000000 0.061004 0.000000
# 6 0.000000 0.000000 0.000000 0.000000 0.000000 0.044324
#
#
# Mechanical properties :
#
#
# Convention : Reuss Voigt Hill
#
# Bulk Modulus (GPa) = 46.39046 63.27835 54.83441
# Shear Modulus (GPa) = 18.35935 19.95469 19.15702
#
# Velocity S-wave (km/s) = 3.14325 3.27697 3.21081
# Velocity P-wave (km/s) = 6.17562 6.95493 6.57683
#
# Compressibility (1/GPa) = 0.02155615
#
# Stress axis : x y z
#
# Youngs Moduli (GPa) = 64.86676 64.86461 34.06349
#
# Poissons Ratio (x) = 0.50781 0.19566
# Poissons Ratio (y) = 0.50783 0.19567
# Poissons Ratio (z) = 0.37259 0.37260
#
# Static dielectric constant tensor:
#      x y z
#    x 1.661760 0.000000 0.000000 
#    y 0.000000 1.661770 0.000000 
#    z 0.000000 0.000000 2.666260 
# 
# From -- ./inp_files/2508.got.cif
#   From: 2010.05.17/outbox.cif.g08.bks.cpg/sg97_2_cif.got.tgz:2508.got - 2010.06.03 19:55:32.
