data_PCOD9551021
_publ_section_title
;
Structure prediction by ZEFSAII (Michael W. Deem and Ramdas Pophale) SiO2 
 PCOD9551021
Probable space group: P 43 21 2
;
_chemical_formula_sum "Si O2"
_cell_formula_units_Z 32
_cell_length_a 9.437901
_cell_length_b 9.437901
_cell_length_c 17.294349
_cell_angle_alpha 90.000000
_cell_angle_beta 90.000000
_cell_angle_gamma 90.000000
_cell_volume 1540.476415
_symmetry_space_group_name_H-M "P 43 21 2"
_symmetry_group_IT_number 96
_symmetry_cell_setting 'tetragonal'
loop_
_space_group_symop_operation_xyz
x,y,z
1/2-y,1/2+x,3/4+z
-x,-y,1/2+z
1/2+y,1/2-x,1/4+z
1/2+x,1/2-y,1/4-z
1/2-x,1/2+y,3/4-z
y,x,-z
-y,-x,1/2-z
loop_
_atom_site_type_symbol
_atom_site_label
_atom_site_fract_x
_atom_site_fract_y
_atom_site_fract_z
Si Si1 0.008194 0.493126 0.970736
Si Si2 0.833903 0.759178 0.917178
Si Si3 0.669698 0.441905 0.504006
Si Si4 0.494914 0.228162 0.401707
O O1 0.926286 0.616390 0.922804
O O2 0.016778 0.337896 0.932443
O O3 0.164975 0.546365 0.987232
O O4 0.911020 0.483366 0.045850
O O5 0.878538 0.845105 0.840807
O O6 0.667740 0.722917 0.908990
O O7 0.841183 0.841183 0.000000
O O8 0.592465 0.592465 0.500000
O O9 0.595566 0.344683 0.439198
#
# Coordination Sequence:
#
# PCOD9551021 Si02
#       4
#     8   8   8   8
#     4  11  23  42  68  98 141 174 224 290 342 398
#     4  10  23  42  70  97 131 179 229 277 342 418
#     4  12  26  43  69 103 140 177 236 287 351 421
#     4  11  23  43  70  97 133 185 229 280 344 418
#
# _framework density 20.772796
#
# number of rings (size 3 to 8) (size 9 to 14) (size 15 to 20)
#    0.000    1.000    5.000    2.250    3.500    0.000 
#    0.000    0.000    0.000    0.000    0.000    0.000 
#    0.000    0.000    0.000    0.000    0.000    0.000 
#
# Total GULP energy -178721.023438 kJ/mol
# GULP energy per Si atom -5585.031982 kJ/mol
# Density = 2.072552 g / cm^3
# Si number density = 20.772796 Si / 1000 Ang^3
#
#
#
# Elastic Constant Matrix: (Units=GPa)
#
#
# Indices 1 2 3 4 5 6 
#
# 1 92.5578 44.2834 17.9324 0.0000 0.0000 0.0000
# 2 44.2834 92.5578 17.9324 0.0000 0.0000 0.0000
# 3 17.9324 17.9324 46.7104 0.0000 0.0000 0.0000
# 4 0.0000 0.0000 0.0000 18.2984 0.0000 0.0000
# 5 0.0000 0.0000 0.0000 0.0000 18.2984 0.0000
# 6 0.0000 0.0000 0.0000 0.0000 0.0000 36.7950
#
#
#
# Elastic Compliance Matrix: (Units=1/GPa)
#
#
# Indices 1 2 3 4 5 6 
#
# 1 0.014420 -0.006295 -0.003119 0.000000 0.000000 0.000000
# 2 -0.006295 0.014420 -0.003119 0.000000 0.000000 0.000000
# 3 -0.003119 -0.003119 0.023804 0.000000 0.000000 0.000000
# 4 0.000000 0.000000 0.000000 0.054650 0.000000 0.000000
# 5 0.000000 0.000000 0.000000 0.000000 0.054650 0.000000
# 6 0.000000 0.000000 0.000000 0.000000 0.000000 0.027178
#
#
# Mechanical properties :
#
#
# Convention : Reuss Voigt Hill
#
# Bulk Modulus (GPa) = 36.26240 43.56915 39.91577
# Shear Modulus (GPa) = 22.38339 24.79022 23.58681
#
# Velocity S-wave (km/s) = 3.28614 3.45831 3.37332
# Velocity P-wave (km/s) = 5.64738 6.07998 5.86767
#
# Compressibility (1/GPa) = 0.02757678
#
# Stress axis : x y z
#
# Youngs Moduli (GPa) = 69.34767 69.34767 42.01054
#
# Poissons Ratio (x) = 0.43653 0.13105
# Poissons Ratio (y) = 0.43653 0.13105
# Poissons Ratio (z) = 0.21632 0.21632
#
# Static dielectric constant tensor:
#      x y z
#    x 1.714710 0.000000 0.000000 
#    y 0.000000 1.714710 0.000000 
#    z 0.000000 0.000000 1.840870 
# 
# From -- ./inp_files/3331.got.cif
#   From: 2010.05.17/outbox.cif.g08.bks.cpg/sg96_2_cif.got.tgz:3331.got - 2010.06.03 19:52:08.
