data_PCOD9551221
_publ_section_title
;
Structure prediction by ZEFSAII (Michael W. Deem and Ramdas Pophale) SiO2 
 PCOD9551221
Probable space group: I 4 2 2 
;
_chemical_formula_sum "Si O2"
_cell_formula_units_Z 80
_cell_length_a 14.930574
_cell_length_b 14.930574
_cell_length_c 21.216057
_cell_angle_alpha 90.000000
_cell_angle_beta 90.000000
_cell_angle_gamma 90.000000
_cell_volume 4729.526707
_symmetry_space_group_name_H-M "I 4 2 2 "
_symmetry_group_IT_number 97
_symmetry_cell_setting 'tetragonal'
loop_
_space_group_symop_operation_xyz
x,y,z
-y,x,z
-x,-y,z
y,-x,z
x,-y,-z
-x,y,-z
y,x,-z
-y,-x,-z
1/2+x,1/2+y,1/2+z
1/2-y,1/2+x,1/2+z
1/2-x,1/2-y,1/2+z
1/2+y,1/2-x,1/2+z
1/2+x,1/2-y,1/2-z
1/2-x,1/2+y,1/2-z
1/2+y,1/2+x,1/2-z
1/2-y,1/2-x,1/2-z
loop_
_atom_site_type_symbol
_atom_site_label
_atom_site_fract_x
_atom_site_fract_y
_atom_site_fract_z
Si Si1 0.597808 0.893592 0.988149
Si Si2 0.966525 0.316617 0.249731
Si Si3 0.643697 0.453015 0.324617
Si Si4 0.079414 0.572640 0.850374
Si Si5 0.407303 0.277887 0.461438
O O1 0.617082 0.885672 0.914023
O O2 0.500000 0.853250 0.000000
O O3 0.678992 0.864365 0.032456
O O4 0.590416 0.000000 0.000000
O O5 0.878185 0.378185 0.250000
O O6 0.943368 0.215538 0.231550
O O7 0.031758 0.355954 0.195022
O O8 0.019865 0.342707 0.313278
O O9 0.608737 0.555403 0.322529
O O10 0.692294 0.428687 0.390593
O O11 0.000000 0.500000 0.864881
O O12 0.500000 0.275433 0.500000
O O13 0.346017 0.346017 0.500000
#
# Coordination Sequence:
#
# PCOD9551221 Si02
#       5
#    16  16  16  16  16
#     4  10  18  29  53  79 110 142 176 221 285 337
#     4   9  19  34  55  75 104 139 189 232 272 323
#     4  11  23  38  54  76 114 154 189 225 281 350
#     4   9  16  31  52  77 102 138 174 224 278 324
#     4  11  21  33  51  80 114 150 184 222 277 340
#
# _framework density 16.915012000000001
#
# number of rings (size 3 to 8) (size 9 to 14) (size 15 to 20)
#    0.000    2.000    4.000    3.600    2.800    0.200 
#    3.600    0.000    0.000    0.000    0.000    0.000 
#    0.000    0.400    0.000    0.200    0.000    0.000 
#
# Total GULP energy -222852.720632 kJ/mol
# GULP energy per Si atom -5571.318016 kJ/mol
# Density = 1.687651 g / cm^3
# Si number density = 16.915012 Si / 1000 Ang^3
#
#
#
# Elastic Constant Matrix: (Units=GPa)
#
#
# Indices 1 2 3 4 5 6 
#
# 1 87.3068 29.9475 31.4388 0.0000 0.0000 0.0000
# 2 29.9475 87.3068 31.4388 0.0000 0.0000 0.0000
# 3 31.4388 31.4388 78.8018 0.0000 0.0000 0.0000
# 4 0.0000 0.0000 0.0000 11.6739 0.0000 0.0000
# 5 0.0000 0.0000 0.0000 0.0000 11.6739 0.0000
# 6 0.0000 0.0000 0.0000 0.0000 0.0000 3.6189
#
#
#
# Elastic Compliance Matrix: (Units=1/GPa)
#
#
# Indices 1 2 3 4 5 6 
#
# 1 0.014142 -0.003292 -0.004329 0.000000 0.000000 0.000000
# 2 -0.003292 0.014142 -0.004329 0.000000 0.000000 0.000000
# 3 -0.004329 -0.004329 0.016144 0.000000 0.000000 0.000000
# 4 0.000000 0.000000 0.000000 0.085662 0.000000 0.000000
# 5 0.000000 0.000000 0.000000 0.000000 0.085662 0.000000
# 6 0.000000 0.000000 0.000000 0.000000 0.000000 0.276327
#
#
# Mechanical properties :
#
#
# Convention : Reuss Voigt Hill
#
# Bulk Modulus (GPa) = 48.71174 48.78506 48.74840
# Shear Modulus (GPa) = 9.56354 16.09935 12.83145
#
# Velocity S-wave (km/s) = 2.38037 3.08844 2.75723
# Velocity P-wave (km/s) = 6.03451 6.45150 6.24649
#
# Compressibility (1/GPa) = 0.02052893
#
# Stress axis : x y z
#
# Youngs Moduli (GPa) = 70.71229 70.71229 61.94276
#
# Poissons Ratio (x) = 0.23279 0.26812
# Poissons Ratio (y) = 0.23279 0.26812
# Poissons Ratio (z) = 0.30608 0.30608
#
# Static dielectric constant tensor:
#      x y z
#    x 1.607990 0.000000 0.000000 
#    y 0.000000 1.607990 0.000000 
#    z 0.000000 0.000000 1.593600 
# 
# From -- ./inp_files/6436.got.cif
#   From: 2010.05.17/outbox.cif.g08.bks.cpg/sg97_4_cif.got.tgz:6436.got - 2010.06.03 19:55:32.
