data_PCOD9551857
_publ_section_title
;
Structure prediction by ZEFSAII (Michael W. Deem and Ramdas Pophale) SiO2 
 PCOD9551857
Probable space group: I 41 2 2
;
_chemical_formula_sum "Si O2"
_cell_formula_units_Z 40
_cell_length_a 8.471241
_cell_length_b 8.471241
_cell_length_c 22.138857
_cell_angle_alpha 90.000000
_cell_angle_beta 90.000000
_cell_angle_gamma 90.000000
_cell_volume 1588.726975
_symmetry_space_group_name_H-M "I 41 2 2"
_symmetry_group_IT_number 98
_symmetry_cell_setting 'tetragonal'
loop_
_space_group_symop_operation_xyz
x,y,z
-y,1/2+x,1/4+z
-x,-y,z
y,1/2-x,1/4+z
x,1/2-y,1/4-z
-x,1/2+y,1/4-z
y,x,-z
-y,-x,-z
1/2+x,1/2+y,1/2+z
1/2-y,x,3/4+z
1/2-x,1/2-y,1/2+z
1/2+y,-x,3/4+z
1/2+x,-y,3/4-z
1/2-x,y,3/4-z
1/2+y,1/2+x,1/2-z
1/2-y,1/2-x,1/2-z
loop_
_atom_site_type_symbol
_atom_site_label
_atom_site_fract_x
_atom_site_fract_y
_atom_site_fract_z
Si Si1 0.000000 0.500000 0.406525
Si Si2 0.572094 0.201454 0.018859
Si Si3 0.419711 0.237169 0.807147
O O1 0.912440 0.391249 0.455088
O O2 0.910095 0.622981 0.364176
O O3 0.626644 0.373357 0.000000
O O4 0.399522 0.181393 0.048570
O O5 0.696069 0.099204 0.057784
O O6 0.368164 0.131837 0.750000
#
# Coordination Sequence:
#
# PCOD9551857 Si02
#       3
#     8  16  16
#     4  10  21  42  70  96 134 182 223 278 346 414
#     4  10  24  42  63 100 137 170 227 291 342 409
#     4  10  21  39  66  96 131 181 230 269 333 423
#
# _framework density 25.177392999999999
#
# number of rings (size 3 to 8) (size 9 to 14) (size 15 to 20)
#    0.000    2.400    0.000    3.000    0.000   15.200 
#    0.000   32.000    0.000    0.000    0.000    0.000 
#    0.000    0.000    0.000    0.000    0.000    0.000 
#
# Total GULP energy -111567.688027 kJ/mol
# GULP energy per Si atom -5578.384401 kJ/mol
# Density = 2.512009 g / cm^3
# Si number density = 25.177393 Si / 1000 Ang^3
#
#
#
# Elastic Constant Matrix: (Units=GPa)
#
#
# Indices 1 2 3 4 5 6 
#
# 1 79.4151 126.7993 26.5055 0.0000 0.0000 0.0000
# 2 126.7993 79.4102 26.5036 0.0000 0.0000 0.0000
# 3 26.5055 26.5036 95.9729 0.0000 0.0000 0.0000
# 4 0.0000 0.0000 0.0000 -129.4590 0.0000 0.0000
# 5 0.0000 0.0000 0.0000 0.0000 -129.4683 0.0000
# 6 0.0000 0.0000 0.0000 0.0000 0.0000 56.3838
#
#
#
# Elastic Compliance Matrix: (Units=1/GPa)
#
#
# Indices 1 2 3 4 5 6 
#
# 1 -0.007941 0.013161 -0.001441 0.000000 0.000000 0.000000
# 2 0.013161 -0.007942 -0.001442 0.000000 0.000000 0.000000
# 3 -0.001441 -0.001442 0.011216 0.000000 0.000000 0.000000
# 4 0.000000 0.000000 0.000000 -0.007724 0.000000 0.000000
# 5 0.000000 0.000000 0.000000 0.000000 -0.007724 0.000000
# 6 0.000000 0.000000 0.000000 0.000000 0.000000 0.017736
#
#
# Mechanical properties :
#
#
# Convention : Reuss Voigt Hill
#
# Bulk Modulus (GPa) = 62.93490 68.26832 65.60161
# Shear Modulus (GPa) = -283.44468 -35.50938 -159.47703
#
# Velocity S-wave (km/s) = -10.62184 -3.75956 -7.96736
# Velocity P-wave (km/s) = 11.19734 2.88584 7.65024
#
# Compressibility (1/GPa) = 0.01588944
#
# Stress axis : x y z
#
# Youngs Moduli (GPa) = -125.92377 -125.91706 89.15961
#
# Poissons Ratio (x) = 1.65725 0.12852
# Poissons Ratio (y) = 1.65734 0.12854
# Poissons Ratio (z) = -0.18151 -0.18154
#
# Static dielectric constant tensor:
#      x y z
#    x 2.530450 0.000000 0.000000 
#    y 0.000000 2.530460 0.000000 
#    z 0.000000 0.000000 2.086260 
# 
# From -- ./inp_files/10482.got.cif
#   From: 2010.05.17/outbox.cif.g08.bks.cpg/sg98_6_cif.got.tgz:10482.got - 2010.06.03 20:00:51.
