data_PCOD9551767
_publ_section_title
;
Structure prediction by ZEFSAII (Michael W. Deem and Ramdas Pophale) SiO2 
 PCOD9551767
Probable space group: I 41 2 2
;
_chemical_formula_sum "Si O2"
_cell_formula_units_Z 56
_cell_length_a 17.967396
_cell_length_b 17.967396
_cell_length_c 9.078802
_cell_angle_alpha 90.000000
_cell_angle_beta 90.000000
_cell_angle_gamma 90.000000
_cell_volume 2930.885310
_symmetry_space_group_name_H-M "I 41 2 2"
_symmetry_group_IT_number 98
_symmetry_cell_setting 'tetragonal'
loop_
_space_group_symop_operation_xyz
x,y,z
-y,1/2+x,1/4+z
-x,-y,z
y,1/2-x,1/4+z
x,1/2-y,1/4-z
-x,1/2+y,1/4-z
y,x,-z
-y,-x,-z
1/2+x,1/2+y,1/2+z
1/2-y,x,3/4+z
1/2-x,1/2-y,1/2+z
1/2+y,-x,3/4+z
1/2+x,-y,3/4-z
1/2-x,y,3/4-z
1/2+y,1/2+x,1/2-z
1/2-y,1/2-x,1/2-z
loop_
_atom_site_type_symbol
_atom_site_label
_atom_site_fract_x
_atom_site_fract_y
_atom_site_fract_z
Si Si1 0.336198 0.250000 0.125000
Si Si2 0.271514 0.543237 0.213510
Si Si3 0.463746 0.354298 0.041989
Si Si4 0.176765 0.611709 0.968046
O O1 0.281335 0.218666 0.250000
O O2 0.396853 0.317211 0.137154
O O3 0.250000 0.515585 0.375000
O O4 0.329429 0.611420 0.229555
O O5 0.306211 0.480953 0.105295
O O6 0.203939 0.580845 0.124327
O O7 0.540391 0.351879 0.128370
O O8 0.434937 0.434937 0.000000
O O9 0.250000 0.638762 0.875000
#
# Coordination Sequence:
#
# PCOD9551767 Si02
#       4
#     8  16  16  16
#     4  10  20  40  64  92 114 144 192 238 294 352
#     4  11  22  36  56  87 119 153 197 246 286 335
#     4  10  20  40  62  83 115 152 192 236 291 360
#     4  10  20  36  58  85 118 155 201 232 289 349
#
# _framework density 19.106853999999998
#
# number of rings (size 3 to 8) (size 9 to 14) (size 15 to 20)
#    0.000    1.714    4.286    4.286    0.000    5.714 
#   10.286    1.429    0.000    3.429    0.000    0.000 
#    0.000    0.000    0.000    0.000    0.000    0.000 
#
# Total GULP energy -156063.229110 kJ/mol
# GULP energy per Si atom -5573.686754 kJ/mol
# Density = 1.906337 g / cm^3
# Si number density = 19.106854 Si / 1000 Ang^3
#
#
#
# Elastic Constant Matrix: (Units=GPa)
#
#
# Indices 1 2 3 4 5 6 
#
# 1 49.6226 64.7813 29.6940 0.0000 0.0000 0.0000
# 2 64.7813 49.6219 29.6960 0.0000 0.0000 0.0000
# 3 29.6940 29.6960 108.2003 0.0000 0.0000 0.0000
# 4 0.0000 0.0000 0.0000 14.0474 0.0000 0.0000
# 5 0.0000 0.0000 0.0000 0.0000 14.0476 0.0000
# 6 0.0000 0.0000 0.0000 0.0000 0.0000 54.9171
#
#
#
# Elastic Compliance Matrix: (Units=1/GPa)
#
#
# Indices 1 2 3 4 5 6 
#
# 1 -0.027886 0.038080 -0.002798 0.000000 0.000000 0.000000
# 2 0.038080 -0.027887 -0.002797 0.000000 0.000000 0.000000
# 3 -0.002798 -0.002797 0.010778 0.000000 0.000000 0.000000
# 4 0.000000 0.000000 0.000000 0.071188 0.000000 0.000000
# 5 0.000000 0.000000 0.000000 0.000000 0.071187 0.000000
# 6 0.000000 0.000000 0.000000 0.000000 0.000000 0.018209
#
#
# Mechanical properties :
#
#
# Convention : Reuss Voigt Hill
#
# Bulk Modulus (GPa) = 50.06463 50.64303 50.35383
# Shear Modulus (GPa) = 87.29760 22.15396 54.72578
#
# Velocity S-wave (km/s) = 6.76671 3.40880 5.35762
# Velocity P-wave (km/s) = 9.34401 6.48506 8.04259
#
# Compressibility (1/GPa) = 0.01997418
#
# Stress axis : x y z
#
# Youngs Moduli (GPa) = -35.85991 -35.85837 92.78484
#
# Poissons Ratio (x) = 1.36549 0.25964
# Poissons Ratio (y) = 1.36555 0.25949
# Poissons Ratio (z) = -0.10035 -0.10028
#
# Static dielectric constant tensor:
#      x y z
#    x 1.673510 0.000000 0.000000 
#    y 0.000000 1.673510 0.000000 
#    z 0.000000 0.000000 1.712470 
# 
# From -- ./inp_files/2971.got.cif
#   From: 2010.05.17/outbox.cif.g08.bks.cpg/sg98_2_cif.got.tgz:2971.got - 2010.06.03 20:00:51.
