data_PCOD9551774
_publ_section_title
;
Structure prediction by ZEFSAII (Michael W. Deem and Ramdas Pophale) SiO2 
 PCOD9551774
Probable space group: I 41 2 2
;
_chemical_formula_sum "Si O2"
_cell_formula_units_Z 48
_cell_length_a 21.338593
_cell_length_b 21.338593
_cell_length_c 4.868535
_cell_angle_alpha 90.000000
_cell_angle_beta 90.000000
_cell_angle_gamma 90.000000
_cell_volume 2216.817068
_symmetry_space_group_name_H-M "I 41 2 2"
_symmetry_group_IT_number 98
_symmetry_cell_setting 'tetragonal'
loop_
_space_group_symop_operation_xyz
x,y,z
-y,1/2+x,1/4+z
-x,-y,z
y,1/2-x,1/4+z
x,1/2-y,1/4-z
-x,1/2+y,1/4-z
y,x,-z
-y,-x,-z
1/2+x,1/2+y,1/2+z
1/2-y,x,3/4+z
1/2-x,1/2-y,1/2+z
1/2+y,-x,3/4+z
1/2+x,-y,3/4-z
1/2-x,y,3/4-z
1/2+y,1/2+x,1/2-z
1/2-y,1/2-x,1/2-z
loop_
_atom_site_type_symbol
_atom_site_label
_atom_site_fract_x
_atom_site_fract_y
_atom_site_fract_z
Si Si1 0.325171 0.000165 0.357631
Si Si2 0.674486 0.421341 0.387766
Si Si3 0.876639 0.681402 0.986069
O O1 0.250000 0.002494 0.375000
O O2 0.343696 0.979751 0.662369
O O3 0.344375 0.943042 0.163331
O O4 0.339843 0.063617 0.195160
O O5 0.639372 0.360629 0.500000
O O6 0.750000 0.413401 0.375000
O O7 0.885211 0.750000 0.125000
O O8 0.861070 0.638931 0.250000
O O9 0.822785 0.677216 0.750000
#
# Coordination Sequence:
#
# PCOD9551774 Si02
#       3
#    16  16  16
#     4  10  20  38  60  83 115 160 206 234 275 355
#     4  10  20  36  61  91 121 155 196 244 294 346
#     4  12  24  40  62  89 120 154 195 246 300 355
#
# _framework density 21.652667000000001
#
# number of rings (size 3 to 8) (size 9 to 14) (size 15 to 20)
#    0.000    1.333    0.000    9.000    0.000    1.333 
#    0.000    6.667    0.000   15.000    0.000    0.000 
#    0.000    0.000    0.000    0.000    0.000    0.000 
#
# Total GULP energy -133794.313076 kJ/mol
# GULP energy per Si atom -5574.763045 kJ/mol
# Density = 2.160339 g / cm^3
# Si number density = 21.652667 Si / 1000 Ang^3
#
#
#
# Elastic Constant Matrix: (Units=GPa)
#
#
# Indices 1 2 3 4 5 6 
#
# 1 83.9965 55.8407 40.8554 0.0000 0.0000 0.0000
# 2 55.8407 84.0018 40.8527 0.0000 0.0000 0.0000
# 3 40.8554 40.8527 149.3832 0.0000 0.0000 0.0000
# 4 0.0000 0.0000 0.0000 43.2555 0.0000 0.0000
# 5 0.0000 0.0000 0.0000 0.0000 43.2550 0.0000
# 6 0.0000 0.0000 0.0000 0.0000 0.0000 18.3654
#
#
#
# Elastic Compliance Matrix: (Units=1/GPa)
#
#
# Indices 1 2 3 4 5 6 
#
# 1 0.022013 -0.013501 -0.002328 0.000000 0.000000 0.000000
# 2 -0.013501 0.022011 -0.002327 0.000000 0.000000 0.000000
# 3 -0.002328 -0.002327 0.007967 0.000000 0.000000 0.000000
# 4 0.000000 0.000000 0.000000 0.023118 0.000000 0.000000
# 5 0.000000 0.000000 0.000000 0.000000 0.023119 0.000000
# 6 0.000000 0.000000 0.000000 0.000000 0.000000 0.054450
#
#
# Mechanical properties :
#
#
# Convention : Reuss Voigt Hill
#
# Bulk Modulus (GPa) = 63.77995 65.83098 64.80547
# Shear Modulus (GPa) = 25.74426 32.96405 29.35415
#
# Velocity S-wave (km/s) = 3.45188 3.90603 3.68595
# Velocity P-wave (km/s) = 6.73848 7.12825 6.93610
#
# Compressibility (1/GPa) = 0.01567891
#
# Stress axis : x y z
#
# Youngs Moduli (GPa) = 45.42728 45.43148 125.51227
#
# Poissons Ratio (x) = 0.61338 0.29222
# Poissons Ratio (y) = 0.61332 0.29207
# Poissons Ratio (z) = 0.10577 0.10572
#
# Static dielectric constant tensor:
#      x y z
#    x 1.841700 0.000000 0.000000 
#    y 0.000000 1.841700 0.000000 
#    z 0.000000 0.000000 1.789540 
# 
# From -- ./inp_files/813.got.cif
#   From: 2010.05.17/outbox.cif.g08.bks.cpg/sg98_1_cif.got.tgz:813.got - 2010.06.03 20:00:51.
