data_PCOD9551344
_publ_section_title
;
Structure prediction by ZEFSAII (Michael W. Deem and Ramdas Pophale) SiO2 
 PCOD9551344
Probable space group: I 4 2 2 
;
_chemical_formula_sum "Si O2"
_cell_formula_units_Z 96
_cell_length_a 29.208193
_cell_length_b 29.208193
_cell_length_c 5.679155
_cell_angle_alpha 90.000000
_cell_angle_beta 90.000000
_cell_angle_gamma 90.000000
_cell_volume 4844.992413
_symmetry_space_group_name_H-M "I 4 2 2 "
_symmetry_group_IT_number 97
_symmetry_cell_setting 'tetragonal'
loop_
_space_group_symop_operation_xyz
x,y,z
-y,x,z
-x,-y,z
y,-x,z
x,-y,-z
-x,y,-z
y,x,-z
-y,-x,-z
1/2+x,1/2+y,1/2+z
1/2-y,1/2+x,1/2+z
1/2-x,1/2-y,1/2+z
1/2+y,1/2-x,1/2+z
1/2+x,1/2-y,1/2-z
1/2-x,1/2+y,1/2-z
1/2+y,1/2+x,1/2-z
1/2-y,1/2-x,1/2-z
loop_
_atom_site_type_symbol
_atom_site_label
_atom_site_fract_x
_atom_site_fract_y
_atom_site_fract_z
Si Si1 0.296058 0.883624 0.137275
Si Si2 0.413424 0.624726 0.252503
Si Si3 0.235419 0.065536 0.229940
Si Si4 0.362778 0.862778 0.750000
Si Si5 0.671668 0.050719 0.516443
Si Si6 0.000000 0.837494 0.000000
Si Si7 0.789049 0.142667 0.418873
O O1 0.327488 0.918403 0.283829
O O2 0.260108 0.855852 0.295565
O O3 0.262786 0.917585 0.995731
O O4 0.327576 0.854005 0.963828
O O5 0.398173 0.601828 0.500000
O O6 0.466595 0.635892 0.316539
O O7 0.384200 0.671891 0.230184
O O8 0.401771 0.598230 0.000000
O O9 0.275307 0.046844 0.400054
O O10 0.195617 0.031469 0.159115
O O11 0.215805 0.110297 0.354386
O O12 0.353800 0.915569 0.694258
O O13 0.652716 0.000000 0.500000
O O14 0.809347 0.190654 0.500000
#
# Coordination Sequence:
#
# PCOD9551344 Si02
#       7
#    16  16  16   8  16   8  16
#     4  10  20  38  57  93 123 168 212 262 337 394
#     4  11  25  40  58  94 135 176 222 278 349 421
#     4  10  21  33  56  97 120 159 206 273 336 401
#     4  10  22  38  60  90 127 172 204 268 336 396
#     4  10  21  37  61  93 130 157 211 266 331 398
#     4  12  20  38  66  87 138 174 215 284 356 414
#     4  10  21  35  56  88 129 168 212 268 333 402
#
# _framework density 19.814274000000001
#
# number of rings (size 3 to 8) (size 9 to 14) (size 15 to 20)
#    0.000    1.667    1.667    3.500    2.333    4.000 
#    0.000    0.000    0.000    0.250  156.000   12.833 
#    0.000    0.000    0.000    0.000    0.000    0.000 
#
# Total GULP energy -267643.150938 kJ/mol
# GULP energy per Si atom -5575.898978 kJ/mol
# Density = 1.976918 g / cm^3
# Si number density = 19.814274 Si / 1000 Ang^3
#
#
#
# Elastic Constant Matrix: (Units=GPa)
#
#
# Indices 1 2 3 4 5 6 
#
# 1 79.9045 64.4382 40.1619 0.0000 0.0000 0.0000
# 2 64.4382 79.9004 40.1640 0.0000 0.0000 0.0000
# 3 40.1619 40.1640 96.9608 0.0000 0.0000 0.0000
# 4 0.0000 0.0000 0.0000 17.3595 0.0000 0.0000
# 5 0.0000 0.0000 0.0000 0.0000 17.3607 0.0000
# 6 0.0000 0.0000 0.0000 0.0000 0.0000 28.9650
#
#
#
# Elastic Compliance Matrix: (Units=1/GPa)
#
#
# Indices 1 2 3 4 5 6 
#
# 1 0.036833 -0.027831 -0.003728 0.000000 0.000000 0.000000
# 2 -0.027831 0.036836 -0.003731 0.000000 0.000000 0.000000
# 3 -0.003728 -0.003731 0.013403 0.000000 0.000000 0.000000
# 4 0.000000 0.000000 0.000000 0.057605 0.000000 0.000000
# 5 0.000000 0.000000 0.000000 0.000000 0.057601 0.000000
# 6 0.000000 0.000000 0.000000 0.000000 0.000000 0.034524
#
#
# Mechanical properties :
#
#
# Convention : Reuss Voigt Hill
#
# Bulk Modulus (GPa) = 60.63417 60.69934 60.66675
# Shear Modulus (GPa) = 15.98056 20.20381 18.09218
#
# Velocity S-wave (km/s) = 2.84301 3.19667 3.02501
# Velocity P-wave (km/s) = 6.43775 6.65775 6.54867
#
# Compressibility (1/GPa) = 0.01649235
#
# Stress axis : x y z
#
# Youngs Moduli (GPa) = 27.14971 27.14723 74.61006
#
# Poissons Ratio (x) = 0.75553 0.27815
# Poissons Ratio (y) = 0.75560 0.27835
# Poissons Ratio (z) = 0.10121 0.10128
#
# Static dielectric constant tensor:
#      x y z
#    x 1.742020 0.000000 0.000000 
#    y 0.000000 1.741990 0.000000 
#    z 0.000000 0.000000 1.869950 
# 
# From -- ./inp_files/1125.got.cif
#   From: 2010.05.17/outbox.cif.g08.bks.cpg/sg97_1_cif.got.tgz:1125.got - 2010.06.03 19:55:32.
