data_PCOD9551730
_publ_section_title
;
Structure prediction by ZEFSAII (Michael W. Deem and Ramdas Pophale) SiO2 
 PCOD9551730
Probable space group: I 41 2 2
;
_chemical_formula_sum "Si O2"
_cell_formula_units_Z 96
_cell_length_a 20.993622
_cell_length_b 20.993622
_cell_length_c 11.506392
_cell_angle_alpha 90.000000
_cell_angle_beta 90.000000
_cell_angle_gamma 90.000000
_cell_volume 5071.237054
_symmetry_space_group_name_H-M "I 41 2 2"
_symmetry_group_IT_number 98
_symmetry_cell_setting 'tetragonal'
loop_
_space_group_symop_operation_xyz
x,y,z
-y,1/2+x,1/4+z
-x,-y,z
y,1/2-x,1/4+z
x,1/2-y,1/4-z
-x,1/2+y,1/4-z
y,x,-z
-y,-x,-z
1/2+x,1/2+y,1/2+z
1/2-y,x,3/4+z
1/2-x,1/2-y,1/2+z
1/2+y,-x,3/4+z
1/2+x,-y,3/4-z
1/2-x,y,3/4-z
1/2+y,1/2+x,1/2-z
1/2-y,1/2-x,1/2-z
loop_
_atom_site_type_symbol
_atom_site_label
_atom_site_fract_x
_atom_site_fract_y
_atom_site_fract_z
Si Si1 0.137155 0.708751 0.514715
Si Si2 0.750000 0.141687 0.875000
Si Si3 0.637426 0.520561 0.212893
Si Si4 0.937214 0.403153 0.633276
Si Si5 0.045294 0.728911 0.321357
Si Si6 0.000229 0.605601 0.230530
Si Si7 0.076666 0.076666 0.500000
O O1 0.157203 0.750000 0.625000
O O2 0.197651 0.681418 0.445570
O O3 0.087877 0.653504 0.554112
O O4 0.092200 0.746128 0.426341
O O5 0.716574 0.094049 0.784932
O O6 0.709041 0.496745 0.195189
O O7 0.630569 0.519735 0.352361
O O8 0.584419 0.467731 0.178515
O O9 0.623658 0.574490 0.113347
O O10 0.896424 0.396424 0.750000
O O11 0.008804 0.410981 0.683150
O O12 0.003788 0.664714 0.320205
O O13 0.066355 0.566355 0.250000
O O14 0.946059 0.553942 0.250000
#
# Coordination Sequence:
#
# PCOD9551730 Si02
#       7
#    16   8  16  16  16  16   8
#     4  12  26  40  60  84 119 171 226 273 305 369
#     4  12  24  46  58  76 122 170 226 264 302 362
#     4  11  20  39  60  85 126 155 197 254 319 376
#     4  10  19  37  57  85 119 151 201 250 322 373
#     4  12  23  45  60  88 125 168 208 263 321 376
#     4  11  24  37  63  92 122 160 210 262 319 387
#     4  10  23  32  64  96 120 164 196 264 328 388
#
# _framework density 18.930292000000001
#
# number of rings (size 3 to 8) (size 9 to 14) (size 15 to 20)
#    0.000    0.833    3.333    6.750    7.000    0.000 
#    6.000    0.000    0.000    0.000    0.000    0.000 
#   10.000    0.000    0.000    0.000    0.000    0.000 
#
# Total GULP energy -267354.833624 kJ/mol
# GULP energy per Si atom -5569.892367 kJ/mol
# Density = 1.888721 g / cm^3
# Si number density = 18.930292 Si / 1000 Ang^3
#
#
#
# Elastic Constant Matrix: (Units=GPa)
#
#
# Indices 1 2 3 4 5 6 
#
# 1 79.2074 48.3291 24.6245 0.0000 0.0000 0.0000
# 2 48.3291 79.2121 24.6289 0.0000 0.0000 0.0000
# 3 24.6245 24.6289 79.3552 0.0000 0.0000 0.0000
# 4 0.0000 0.0000 0.0000 21.4545 0.0000 0.0000
# 5 0.0000 0.0000 0.0000 0.0000 21.4556 0.0000
# 6 0.0000 0.0000 0.0000 0.0000 0.0000 7.6885
#
#
#
# Elastic Compliance Matrix: (Units=1/GPa)
#
#
# Indices 1 2 3 4 5 6 
#
# 1 0.020646 -0.011737 -0.002764 0.000000 0.000000 0.000000
# 2 -0.011737 0.020645 -0.002765 0.000000 0.000000 0.000000
# 3 -0.002764 -0.002765 0.014317 0.000000 0.000000 0.000000
# 4 0.000000 0.000000 0.000000 0.046610 0.000000 0.000000
# 5 0.000000 0.000000 0.000000 0.000000 0.046608 0.000000
# 6 0.000000 0.000000 0.000000 0.000000 0.000000 0.130065
#
#
# Mechanical properties :
#
#
# Convention : Reuss Voigt Hill
#
# Bulk Modulus (GPa) = 47.44757 48.10441 47.77599
# Shear Modulus (GPa) = 15.60310 19.46587 17.53448
#
# Velocity S-wave (km/s) = 2.87407 3.21018 3.04676
# Velocity P-wave (km/s) = 6.01103 6.26154 6.13756
#
# Compressibility (1/GPa) = 0.02107590
#
# Stress axis : x y z
#
# Youngs Moduli (GPa) = 48.43594 48.43729 69.84475
#
# Poissons Ratio (x) = 0.56852 0.19303
# Poissons Ratio (y) = 0.56850 0.19315
# Poissons Ratio (z) = 0.13387 0.13395
#
# Static dielectric constant tensor:
#      x y z
#    x 1.683380 0.000000 0.000000 
#    y 0.000000 1.683380 0.000000 
#    z 0.000000 0.000000 1.795780 
# 
# From -- ./inp_files/5346.got.cif
#   From: 2010.05.17/outbox.cif.g08.bks.cpg/sg98_3_cif.got.tgz:5346.got - 2010.06.03 20:00:51.
