data_PCOD9551450
_publ_section_title
;
Structure prediction by ZEFSAII (Michael W. Deem and Ramdas Pophale) SiO2 
 PCOD9551450
Probable space group: I 4 2 2 
;
_chemical_formula_sum "Si O2"
_cell_formula_units_Z 80
_cell_length_a 11.768885
_cell_length_b 11.768885
_cell_length_c 29.706514
_cell_angle_alpha 90.000000
_cell_angle_beta 90.000000
_cell_angle_gamma 90.000000
_cell_volume 4114.549860
_symmetry_space_group_name_H-M "I 4 2 2 "
_symmetry_group_IT_number 97
_symmetry_cell_setting 'tetragonal'
loop_
_space_group_symop_operation_xyz
x,y,z
-y,x,z
-x,-y,z
y,-x,z
x,-y,-z
-x,y,-z
y,x,-z
-y,-x,-z
1/2+x,1/2+y,1/2+z
1/2-y,1/2+x,1/2+z
1/2-x,1/2-y,1/2+z
1/2+y,1/2-x,1/2+z
1/2+x,1/2-y,1/2-z
1/2-x,1/2+y,1/2-z
1/2+y,1/2+x,1/2-z
1/2-y,1/2-x,1/2-z
loop_
_atom_site_type_symbol
_atom_site_label
_atom_site_fract_x
_atom_site_fract_y
_atom_site_fract_z
Si Si1 0.222510 0.580909 0.140310
Si Si2 0.189891 0.990691 0.736957
Si Si3 0.385388 0.354544 0.553631
Si Si4 0.154615 0.297414 0.386491
Si Si5 0.136051 0.498236 0.317665
O O1 0.260988 0.521404 0.186857
O O2 0.318422 0.668199 0.126296
O O3 0.195057 0.480642 0.105259
O O4 0.109572 0.652343 0.151488
O O5 0.291013 0.990675 0.772770
O O6 0.104250 0.884695 0.743062
O O7 0.518501 0.346865 0.567261
O O8 0.362659 0.362659 0.500000
O O9 0.327519 0.245082 0.575207
O O10 0.171827 0.386639 0.345441
O O11 0.000000 0.500000 0.309233
#
# Coordination Sequence:
#
# PCOD9551450 Si02
#       5
#    16  16  16  16  16
#     4  11  22  38  56  79 117 159 203 256 312 361
#     4  11  22  38  56  77 112 160 215 257 309 361
#     4   9  19  39  68  98 126 153 188 247 317 379
#     4  11  22  38  60  85 119 159 204 245 307 379
#     4  10  23  37  55  84 115 153 205 263 312 361
#
# _framework density 19.443196
#
# number of rings (size 3 to 8) (size 9 to 14) (size 15 to 20)
#    0.000    1.600    2.000    3.600    0.000    6.000 
#    0.000    3.000    0.000    2.400    0.000    1.400 
#    0.000    0.000    0.000    0.000    0.000    0.000 
#
# Total GULP energy -223251.020486 kJ/mol
# GULP energy per Si atom -5581.275512 kJ/mol
# Density = 1.939894 g / cm^3
# Si number density = 19.443196 Si / 1000 Ang^3
#
#
#
# Elastic Constant Matrix: (Units=GPa)
#
#
# Indices 1 2 3 4 5 6 
#
# 1 76.2476 22.5829 34.2364 0.0000 0.0000 0.0000
# 2 22.5829 76.2476 34.2364 0.0000 0.0000 0.0000
# 3 34.2364 34.2364 44.7884 0.0000 0.0000 0.0000
# 4 0.0000 0.0000 0.0000 30.7897 0.0000 0.0000
# 5 0.0000 0.0000 0.0000 0.0000 30.7897 0.0000
# 6 0.0000 0.0000 0.0000 0.0000 0.0000 33.0466
#
#
#
# Elastic Compliance Matrix: (Units=1/GPa)
#
#
# Indices 1 2 3 4 5 6 
#
# 1 0.020072 0.001438 -0.016443 0.000000 0.000000 0.000000
# 2 0.001438 0.020072 -0.016443 0.000000 0.000000 0.000000
# 3 -0.016443 -0.016443 0.047465 0.000000 0.000000 0.000000
# 4 0.000000 0.000000 0.000000 0.032478 0.000000 0.000000
# 5 0.000000 0.000000 0.000000 0.000000 0.032478 0.000000
# 6 0.000000 0.000000 0.000000 0.000000 0.000000 0.030260
#
#
# Mechanical properties :
#
#
# Convention : Reuss Voigt Hill
#
# Bulk Modulus (GPa) = 40.46114 42.15502 41.30808
# Shear Modulus (GPa) = 19.68825 26.00705 22.84765
#
# Velocity S-wave (km/s) = 3.18560 3.66128 3.43169
# Velocity P-wave (km/s) = 5.86394 6.29297 6.08224
#
# Compressibility (1/GPa) = 0.02471507
#
# Stress axis : x y z
#
# Youngs Moduli (GPa) = 49.82009 49.82009 21.06832
#
# Poissons Ratio (x) = -0.07164 0.34642
# Poissons Ratio (y) = -0.07164 0.34642
# Poissons Ratio (z) = 0.81917 0.81917
#
# Static dielectric constant tensor:
#      x y z
#    x 1.708800 0.000000 0.000000 
#    y 0.000000 1.708800 0.000000 
#    z 0.000000 0.000000 1.668160 
# 
# From -- ./inp_files/7937.got.cif
#   From: 2010.05.17/outbox.cif.g08.bks.cpg/sg97_4_cif.got.tgz:7937.got - 2010.06.03 19:55:32.
