data_PCOD9551013
_publ_section_title
;
Structure prediction by ZEFSAII (Michael W. Deem and Ramdas Pophale) SiO2 
 PCOD9551013
Probable space group: P 43 21 2
;
_chemical_formula_sum "Si O2"
_cell_formula_units_Z 48
_cell_length_a 8.509908
_cell_length_b 8.509908
_cell_length_c 26.828772
_cell_angle_alpha 90.000000
_cell_angle_beta 90.000000
_cell_angle_gamma 90.000000
_cell_volume 1942.900342
_symmetry_space_group_name_H-M "P 43 21 2"
_symmetry_group_IT_number 96
_symmetry_cell_setting 'tetragonal'
loop_
_space_group_symop_operation_xyz
x,y,z
1/2-y,1/2+x,3/4+z
-x,-y,1/2+z
1/2+y,1/2-x,1/4+z
1/2+x,1/2-y,1/4-z
1/2-x,1/2+y,3/4-z
y,x,-z
-y,-x,1/2-z
loop_
_atom_site_type_symbol
_atom_site_label
_atom_site_fract_x
_atom_site_fract_y
_atom_site_fract_z
Si Si1 0.362698 0.108905 0.109950
Si Si2 0.717009 0.945038 0.264309
Si Si3 0.746444 0.838470 0.863275
Si Si4 0.742425 0.493956 0.994427
Si Si5 0.264878 0.036511 0.472874
Si Si6 0.424042 0.183478 0.908399
O O1 0.499370 0.100663 0.150734
O O2 0.262601 0.268030 0.114354
O O3 0.278011 0.936810 0.110778
O O4 0.463580 0.136625 0.059234
O O5 0.884627 0.868249 0.278186
O O6 0.638690 0.783109 0.242854
O O7 0.732818 0.056673 0.216017
O O8 0.760208 0.939050 0.812573
O O9 0.753779 0.936090 0.914494
O O10 0.906240 0.733477 0.865041
O O11 0.660288 0.660288 0.000000
O O12 0.910282 0.556829 0.011462
O O13 0.121901 0.121901 0.500000
#
# Coordination Sequence:
#
# PCOD9551013 Si02
#       6
#     8   8   8   8   8   8
#     4  12  25  46  75 106 148 195 251 309 385 468
#     4  11  22  44  67 100 144 185 242 312 384 457
#     4  11  24  45  72 108 149 202 256 319 396 470
#     4  10  23  41  71 101 137 195 248 308 387 466
#     4  11  23  42  70 101 144 191 252 316 380 466
#     4  11  27  46  72 109 148 197 252 322 385 467
#
# _framework density 24.705331999999999
#
# number of rings (size 3 to 8) (size 9 to 14) (size 15 to 20)
#    0.000    1.000    3.333    3.500    4.667    1.333 
#    0.000    0.000    0.000    0.000    0.000    0.000 
#    0.000    0.000    0.000    0.000    0.000    0.000 
#
# Total GULP energy -267814.541814 kJ/mol
# GULP energy per Si atom -5579.469621 kJ/mol
# Density = 2.464910 g / cm^3
# Si number density = 24.705332 Si / 1000 Ang^3
#
#
#
# Elastic Constant Matrix: (Units=GPa)
#
#
# Indices 1 2 3 4 5 6 
#
# 1 85.7093 3.6656 4.9200 0.0000 0.0000 0.0000
# 2 3.6656 85.7093 4.9200 0.0000 0.0000 0.0000
# 3 4.9200 4.9200 86.5710 0.0000 0.0000 0.0000
# 4 0.0000 0.0000 0.0000 29.3751 0.0000 0.0000
# 5 0.0000 0.0000 0.0000 0.0000 29.3751 0.0000
# 6 0.0000 0.0000 0.0000 0.0000 0.0000 50.6786
#
#
#
# Elastic Compliance Matrix: (Units=1/GPa)
#
#
# Indices 1 2 3 4 5 6 
#
# 1 0.011724 -0.000465 -0.000640 0.000000 0.000000 0.000000
# 2 -0.000465 0.011724 -0.000640 0.000000 0.000000 0.000000
# 3 -0.000640 -0.000640 0.011624 0.000000 0.000000 0.000000
# 4 0.000000 0.000000 0.000000 0.034042 0.000000 0.000000
# 5 0.000000 0.000000 0.000000 0.000000 0.034042 0.000000
# 6 0.000000 0.000000 0.000000 0.000000 0.000000 0.019732
#
#
# Mechanical properties :
#
#
# Convention : Reuss Voigt Hill
#
# Bulk Modulus (GPa) = 31.66267 31.66676 31.66472
# Shear Modulus (GPa) = 36.52158 38.18471 37.35314
#
# Velocity S-wave (km/s) = 3.84902 3.93568 3.89259
# Velocity P-wave (km/s) = 5.70940 5.78778 5.74872
#
# Compressibility (1/GPa) = 0.03158294
#
# Stress axis : x y z
#
# Youngs Moduli (GPa) = 85.29545 85.29545 86.02929
#
# Poissons Ratio (x) = 0.03963 0.05505
# Poissons Ratio (y) = 0.03963 0.05505
# Poissons Ratio (z) = 0.05458 0.05458
#
# Static dielectric constant tensor:
#      x y z
#    x 1.891920 0.000000 0.000000 
#    y 0.000000 1.891920 0.000000 
#    z 0.000000 0.000000 1.993060 
# 
# From -- ./inp_files/4468.got.cif
#   From: 2010.05.17/outbox.cif.g08.bks.cpg/sg96_3_cif.got.tgz:4468.got - 2010.06.03 19:52:08.
