data_PCOD9551423
_publ_section_title
;
Structure prediction by ZEFSAII (Michael W. Deem and Ramdas Pophale) SiO2 
 PCOD9551423
Probable space group: I 4 2 2 
;
_chemical_formula_sum "Si O2"
_cell_formula_units_Z 64
_cell_length_a 10.325492
_cell_length_b 10.325492
_cell_length_c 23.556672
_cell_angle_alpha 90.000000
_cell_angle_beta 90.000000
_cell_angle_gamma 90.000000
_cell_volume 2511.513078
_symmetry_space_group_name_H-M "I 4 2 2 "
_symmetry_group_IT_number 97
_symmetry_cell_setting 'tetragonal'
loop_
_space_group_symop_operation_xyz
x,y,z
-y,x,z
-x,-y,z
y,-x,z
x,-y,-z
-x,y,-z
y,x,-z
-y,-x,-z
1/2+x,1/2+y,1/2+z
1/2-y,1/2+x,1/2+z
1/2-x,1/2-y,1/2+z
1/2+y,1/2-x,1/2+z
1/2+x,1/2-y,1/2-z
1/2-x,1/2+y,1/2-z
1/2+y,1/2+x,1/2-z
1/2-y,1/2-x,1/2-z
loop_
_atom_site_type_symbol
_atom_site_label
_atom_site_fract_x
_atom_site_fract_y
_atom_site_fract_z
Si Si1 0.282572 0.494756 0.564143
Si Si2 0.787227 0.022735 0.265358
Si Si3 0.836025 0.855590 0.564654
Si Si4 0.115308 0.651210 0.846444
O O1 0.381630 0.377492 0.572375
O O2 0.236486 0.500000 0.500000
O O3 0.160039 0.506591 0.605170
O O4 0.746438 0.054590 0.201003
O O5 0.665058 0.034276 0.307203
O O6 0.890385 0.137868 0.275730
O O7 0.806453 0.806453 0.500000
O O8 0.744875 0.814495 0.616753
O O9 0.988086 0.824876 0.568752
#
# Coordination Sequence:
#
# PCOD9551423 Si02
#       4
#    16  16  16  16
#     4   9  19  35  56  86 116 151 195 244 292 358
#     4  10  22  40  60  87 120 157 211 263 301 356
#     4   9  19  36  58  87 119 155 204 254 300 365
#     4  11  20  32  63  93 112 156 206 258 308 358
#
# _framework density 25.482648000000001
#
# number of rings (size 3 to 8) (size 9 to 14) (size 15 to 20)
#    0.000    2.250    0.000    4.500    3.500    4.000 
#    0.000    0.000    0.000   61.500    0.000    0.000 
#    0.000    0.000    0.000    0.000    0.000    0.000 
#
# Total GULP energy -178460.235243 kJ/mol
# GULP energy per Si atom -5576.882351 kJ/mol
# Density = 2.542465 g / cm^3
# Si number density = 25.482648 Si / 1000 Ang^3
#
#
#
# Elastic Constant Matrix: (Units=GPa)
#
#
# Indices 1 2 3 4 5 6 
#
# 1 31.8824 36.6371 39.5810 0.0000 0.0000 0.0000
# 2 36.6371 31.8824 39.5810 0.0000 0.0000 0.0000
# 3 39.5810 39.5810 165.3908 0.0000 0.0000 0.0000
# 4 0.0000 0.0000 0.0000 19.1145 0.0000 0.0000
# 5 0.0000 0.0000 0.0000 0.0000 19.1145 0.0000
# 6 0.0000 0.0000 0.0000 0.0000 0.0000 21.8854
#
#
#
# Elastic Compliance Matrix: (Units=1/GPa)
#
#
# Indices 1 2 3 4 5 6 
#
# 1 -0.095072 0.115244 -0.004827 0.000000 0.000000 0.000000
# 2 0.115244 -0.095072 -0.004827 0.000000 0.000000 0.000000
# 3 -0.004827 -0.004827 0.008357 0.000000 0.000000 0.000000
# 4 0.000000 0.000000 0.000000 0.052316 0.000000 0.000000
# 5 0.000000 0.000000 0.000000 0.000000 0.052316 0.000000
# 6 0.000000 0.000000 0.000000 0.000000 0.000000 0.045693
#
#
# Mechanical properties :
#
#
# Convention : Reuss Voigt Hill
#
# Bulk Modulus (GPa) = 34.02473 51.19485 42.60979
# Shear Modulus (GPa) = -21.47357 19.57996 -0.94680
#
# Velocity S-wave (km/s) = -2.90603 2.77495 -0.61021
# Velocity P-wave (km/s) = 1.45638 5.51369 4.03248
#
# Compressibility (1/GPa) = 0.02939039
#
# Stress axis : x y z
#
# Youngs Moduli (GPa) = -10.51829 -10.51829 119.66208
#
# Poissons Ratio (x) = 1.21217 0.57766
# Poissons Ratio (y) = 1.21217 0.57766
# Poissons Ratio (z) = -0.05078 -0.05078
#
# Static dielectric constant tensor:
#      x y z
#    x 2.023280 0.000000 0.000000 
#    y 0.000000 2.023280 0.000000 
#    z 0.000000 0.000000 1.997530 
# 
# From -- ./inp_files/7047.got.cif
#   From: 2010.05.17/outbox.cif.g08.bks.cpg/sg97_4_cif.got.tgz:7047.got - 2010.06.03 19:55:32.
