data_PCOD9551447
_publ_section_title
;
Structure prediction by ZEFSAII (Michael W. Deem and Ramdas Pophale) SiO2 
 PCOD9551447
Probable space group: I 4 2 2 
;
_chemical_formula_sum "Si O2"
_cell_formula_units_Z 112
_cell_length_a 31.321956
_cell_length_b 31.321956
_cell_length_c 5.452874
_cell_angle_alpha 90.000000
_cell_angle_beta 90.000000
_cell_angle_gamma 90.000000
_cell_volume 5349.623436
_symmetry_space_group_name_H-M "I 4 2 2 "
_symmetry_group_IT_number 97
_symmetry_cell_setting 'tetragonal'
loop_
_space_group_symop_operation_xyz
x,y,z
-y,x,z
-x,-y,z
y,-x,z
x,-y,-z
-x,y,-z
y,x,-z
-y,-x,-z
1/2+x,1/2+y,1/2+z
1/2-y,1/2+x,1/2+z
1/2-x,1/2-y,1/2+z
1/2+y,1/2-x,1/2+z
1/2+x,1/2-y,1/2-z
1/2-x,1/2+y,1/2-z
1/2+y,1/2+x,1/2-z
1/2-y,1/2-x,1/2-z
loop_
_atom_site_type_symbol
_atom_site_label
_atom_site_fract_x
_atom_site_fract_y
_atom_site_fract_z
Si Si1 0.948786 0.590765 0.494372
Si Si2 0.605683 0.748216 0.668418
Si Si3 0.550052 0.191678 0.002005
Si Si4 0.121481 0.950071 0.485969
Si Si5 0.314661 0.753533 0.090176
Si Si6 0.675502 0.549869 0.516941
Si Si7 0.191856 0.628236 0.291315
O O1 0.931830 0.568171 0.250000
O O2 0.941984 0.641598 0.442608
O O3 0.000000 0.584413 0.500000
O O4 0.927332 0.572669 0.750000
O O5 0.570638 0.771534 0.832623
O O6 0.646101 0.726287 0.795262
O O7 0.581774 0.715324 0.495742
O O8 0.631220 0.788512 0.556234
O O9 0.500000 0.198063 0.000000
O O10 0.578030 0.196538 0.757907
O O11 0.081622 0.918379 0.500000
O O12 0.150678 0.943414 0.728014
O O13 0.108523 0.000000 0.500000
O O14 0.147000 0.943152 0.229596
O O15 0.286122 0.786122 0.250000
O O16 0.280182 0.719819 0.000000
O O17 0.340979 0.780505 0.884926
O O18 0.689088 0.500000 0.500000
O O19 0.144344 0.644344 0.250000
#
# Coordination Sequence:
#
# PCOD9551447 Si02
#       7
#    16  16  16  16  16  16  16
#     4  11  25  45  68  98 132 171 218 273 340 409
#     4  11  26  42  66  95 127 178 226 275 339 414
#     4  10  26  41  65  98 128 170 220 278 334 404
#     4  10  22  44  70 104 142 185 230 283 343 403
#     4  11  24  43  64  92 129 169 221 283 342 403
#     4  10  24  43  68  98 141 184 228 284 345 410
#     4  11  23  42  65  93 128 170 218 274 343 404
#
# _framework density 20.936055
#
# number of rings (size 3 to 8) (size 9 to 14) (size 15 to 20)
#    0.000    1.429    1.429    1.714   10.000    2.143 
#    2.571    0.000    0.000    2.571    0.000    0.000 
#    0.000    0.000    0.000    0.000    0.000    0.000 
#
# Total GULP energy -312053.560874 kJ/mol
# GULP energy per Si atom -5572.385016 kJ/mol
# Density = 2.088840 g / cm^3
# Si number density = 20.936055 Si / 1000 Ang^3
#
#
#
# Elastic Constant Matrix: (Units=GPa)
#
#
# Indices 1 2 3 4 5 6 
#
# 1 105.2820 69.3542 21.0988 0.0000 0.0000 0.0000
# 2 69.3542 105.2830 21.1035 0.0000 0.0000 0.0000
# 3 21.0988 21.1035 64.6699 0.0000 0.0000 0.0000
# 4 0.0000 0.0000 0.0000 11.4837 0.0000 0.0000
# 5 0.0000 0.0000 0.0000 0.0000 11.4790 0.0000
# 6 0.0000 0.0000 0.0000 0.0000 0.0000 40.0105
#
#
#
# Elastic Compliance Matrix: (Units=1/GPa)
#
#
# Indices 1 2 3 4 5 6 
#
# 1 0.017025 -0.010808 -0.002027 0.000000 0.000000 0.000000
# 2 -0.010808 0.017025 -0.002029 0.000000 0.000000 0.000000
# 3 -0.002027 -0.002029 0.016787 0.000000 0.000000 0.000000
# 4 0.000000 0.000000 0.000000 0.087080 0.000000 0.000000
# 5 0.000000 0.000000 0.000000 0.000000 0.087116 0.000000
# 6 0.000000 0.000000 0.000000 0.000000 0.000000 0.024993
#
#
# Mechanical properties :
#
#
# Convention : Reuss Voigt Hill
#
# Bulk Modulus (GPa) = 47.37955 55.37197 51.37576
# Shear Modulus (GPa) = 17.43427 23.50652 20.47039
#
# Velocity S-wave (km/s) = 2.88885 3.35442 3.13030
# Velocity P-wave (km/s) = 5.81438 6.44270 6.13659
#
# Compressibility (1/GPa) = 0.02110615
#
# Stress axis : x y z
#
# Youngs Moduli (GPa) = 58.73855 58.73730 59.57064
#
# Poissons Ratio (x) = 0.63486 0.12077
# Poissons Ratio (y) = 0.63487 0.12089
# Poissons Ratio (z) = 0.11908 0.11920
#
# Static dielectric constant tensor:
#      x y z
#    x 1.794200 0.000000 0.000000 
#    y 0.000000 1.794210 0.000000 
#    z 0.000000 0.000000 1.374970 
# 
# From -- ./inp_files/1157.got.cif
#   From: 2010.05.17/outbox.cif.g08.bks.cpg/sg97_1_cif.got.tgz:1157.got - 2010.06.03 19:55:32.
