data_PCOD9551019
_publ_section_title
;
Structure prediction by ZEFSAII (Michael W. Deem and Ramdas Pophale) SiO2 
 PCOD9551019
Probable space group: P 43 21 2
;
_chemical_formula_sum "Si O2"
_cell_formula_units_Z 48
_cell_length_a 11.909698
_cell_length_b 11.909698
_cell_length_c 16.171956
_cell_angle_alpha 90.000000
_cell_angle_beta 90.000000
_cell_angle_gamma 90.000000
_cell_volume 2293.844898
_symmetry_space_group_name_H-M "P 43 21 2"
_symmetry_group_IT_number 96
_symmetry_cell_setting 'tetragonal'
loop_
_space_group_symop_operation_xyz
x,y,z
1/2-y,1/2+x,3/4+z
-x,-y,1/2+z
1/2+y,1/2-x,1/4+z
1/2+x,1/2-y,1/4-z
1/2-x,1/2+y,3/4-z
y,x,-z
-y,-x,1/2-z
loop_
_atom_site_type_symbol
_atom_site_label
_atom_site_fract_x
_atom_site_fract_y
_atom_site_fract_z
Si Si1 0.657657 0.516902 0.293852
Si Si2 0.302520 0.697481 0.250000
Si Si3 0.251413 0.935101 0.773981
Si Si4 0.504214 0.875359 0.812166
Si Si5 0.126708 0.027254 0.624500
Si Si6 0.944753 0.055248 0.750000
Si Si7 0.818158 0.537685 0.003076
O O1 0.585916 0.414085 0.250000
O O2 0.714983 0.512891 0.386623
O O3 0.761413 0.541481 0.233561
O O4 0.570249 0.620599 0.305368
O O5 0.356028 0.640897 0.330107
O O6 0.171497 0.669204 0.246561
O O7 0.177000 0.823001 0.750000
O O8 0.383346 0.910612 0.775906
O O9 0.216658 0.013448 0.697163
O O10 0.489975 0.849667 0.907808
O O11 0.599147 0.970546 0.806154
O O12 0.006836 0.010461 0.669080
O O13 0.975101 0.184917 0.746094
#
# Coordination Sequence:
#
# PCOD9551019 Si02
#       7
#     8   4   8   8   8   4   8
#     4  11  21  41  72  99 130 178 223 275 341 406
#     4  11  26  46  64  97 132 186 228 275 338 406
#     4  10  23  42  67 105 140 170 222 289 337 401
#     4  12  24  46  65 103 137 180 224 281 346 407
#     4  11  22  43  71 100 132 175 225 284 338 399
#     4  11  22  46  70  97 132 172 230 281 328 406
#     4  11  27  43  66  94 135 178 228 277 332 407
#
# _framework density 20.925563
#
# number of rings (size 3 to 8) (size 9 to 14) (size 15 to 20)
#    0.000    1.000    5.000    2.500    2.333    0.000 
#    0.000    1.667    0.000    0.000    0.000    0.000 
#    0.000    0.000    0.000    0.000    0.000    0.000 
#
# Total GULP energy -267657.098794 kJ/mol
# GULP energy per Si atom -5576.189558 kJ/mol
# Density = 2.087794 g / cm^3
# Si number density = 20.925563 Si / 1000 Ang^3
#
#
#
# Elastic Constant Matrix: (Units=GPa)
#
#
# Indices 1 2 3 4 5 6 
#
# 1 37.4155 56.3427 -1.5142 0.0000 0.0000 0.0000
# 2 56.3427 37.4173 -1.5139 0.0000 0.0000 0.0000
# 3 -1.5142 -1.5139 34.0918 0.0000 0.0000 0.0000
# 4 0.0000 0.0000 0.0000 56.4370 0.0000 0.0000
# 5 0.0000 0.0000 0.0000 0.0000 56.4358 0.0000
# 6 0.0000 0.0000 0.0000 0.0000 0.0000 25.2441
#
#
#
# Elastic Compliance Matrix: (Units=1/GPa)
#
#
# Indices 1 2 3 4 5 6 
#
# 1 -0.021078 0.031759 0.000474 0.000000 0.000000 0.000000
# 2 0.031759 -0.021077 0.000475 0.000000 0.000000 0.000000
# 3 0.000474 0.000475 0.029375 0.000000 0.000000 0.000000
# 4 0.000000 0.000000 0.000000 0.017719 0.000000 0.000000
# 5 0.000000 0.000000 0.000000 0.000000 0.017719 0.000000
# 6 0.000000 0.000000 0.000000 0.000000 0.000000 0.039613
#
#
# Mechanical properties :
#
#
# Convention : Reuss Voigt Hill
#
# Bulk Modulus (GPa) = 18.99912 23.95041 21.47476
# Shear Modulus (GPa) = 347.21375 31.33072 189.27223
#
# Velocity S-wave (km/s) = 12.89528 3.87362 9.52085
# Velocity P-wave (km/s) = 15.19265 5.61044 11.45194
#
# Compressibility (1/GPa) = 0.05263403
#
# Stress axis : x y z
#
# Youngs Moduli (GPa) = -47.44229 -47.44459 34.04294
#
# Poissons Ratio (x) = 1.50678 -0.01614
# Poissons Ratio (y) = 1.50670 -0.01616
# Poissons Ratio (z) = 0.02249 0.02252
#
# Static dielectric constant tensor:
#      x y z
#    x 1.763050 0.000000 0.000000 
#    y 0.000000 1.763050 0.000000 
#    z 0.000000 0.000000 1.488690 
# 
# From -- ./inp_files/3154.got.cif
#   From: 2010.05.17/outbox.cif.g08.bks.cpg/sg96_2_cif.got.tgz:3154.got - 2010.06.03 19:52:08.
