data_PCOD9551318
_publ_section_title
;
Structure prediction by ZEFSAII (Michael W. Deem and Ramdas Pophale) SiO2 
 PCOD9551318
Probable space group: I 4 2 2 
;
_chemical_formula_sum "Si O2"
_cell_formula_units_Z 96
_cell_length_a 19.695224
_cell_length_b 19.695224
_cell_length_c 11.333907
_cell_angle_alpha 90.000000
_cell_angle_beta 90.000000
_cell_angle_gamma 90.000000
_cell_volume 4396.443475
_symmetry_space_group_name_H-M "I 4 2 2 "
_symmetry_group_IT_number 97
_symmetry_cell_setting 'tetragonal'
loop_
_space_group_symop_operation_xyz
x,y,z
-y,x,z
-x,-y,z
y,-x,z
x,-y,-z
-x,y,-z
y,x,-z
-y,-x,-z
1/2+x,1/2+y,1/2+z
1/2-y,1/2+x,1/2+z
1/2-x,1/2-y,1/2+z
1/2+y,1/2-x,1/2+z
1/2+x,1/2-y,1/2-z
1/2-x,1/2+y,1/2-z
1/2+y,1/2+x,1/2-z
1/2-y,1/2-x,1/2-z
loop_
_atom_site_type_symbol
_atom_site_label
_atom_site_fract_x
_atom_site_fract_y
_atom_site_fract_z
Si Si1 0.861159 0.543845 0.819718
Si Si2 0.172202 0.867570 0.202288
Si Si3 0.781491 0.477150 0.626775
Si Si4 0.074976 0.923145 0.360288
Si Si5 0.606917 0.135845 0.073722
Si Si6 0.707043 0.207043 0.250000
Si Si7 0.580508 0.419493 0.500000
O O1 0.924758 0.575243 0.750000
O O2 0.802540 0.534701 0.720522
O O3 0.871993 0.466939 0.866203
O O4 0.848652 0.590272 0.936260
O O5 0.226126 0.928194 0.184450
O O6 0.132917 0.872112 0.324245
O O7 0.219087 0.802395 0.195151
O O8 0.113451 0.880753 0.109502
O O9 0.754660 0.500000 0.500000
O O10 0.848453 0.432252 0.592882
O O11 0.072305 0.927696 0.500000
O O12 0.999185 0.907482 0.315722
O O13 0.651430 0.190951 0.146993
O O14 0.591214 0.500000 0.500000
#
# Coordination Sequence:
#
# PCOD9551318 Si02
#       7
#    16  16  16  16  16   8   8
#     4  11  20  33  55  82 120 181 247 309 346 392
#     4  11  22  41  68  95 137 181 217 272 347 428
#     4  11  21  37  55  86 132 176 232 288 360 409
#     4   9  19  40  69 104 136 158 202 277 352 411
#     4  10  20  36  52  80 122 181 241 296 344 400
#     4  10  22  44  61  88 144 198 232 273 342 440
#     4  11  24  44  78 116 134 162 230 309 384 436
#
# _framework density 21.835830999999999
#
# number of rings (size 3 to 8) (size 9 to 14) (size 15 to 20)
#    0.000    1.583    5.000    2.000    0.000    2.667 
#    7.500    0.000    0.000    0.000    0.000    0.000 
#    0.000    0.000    0.000    0.000    0.000    0.000 
#
# Total GULP energy -267908.326030 kJ/mol
# GULP energy per Si atom -5581.423459 kJ/mol
# Density = 2.178613 g / cm^3
# Si number density = 21.835831 Si / 1000 Ang^3
#
#
#
# Elastic Constant Matrix: (Units=GPa)
#
#
# Indices 1 2 3 4 5 6 
#
# 1 79.5049 20.6876 27.6743 0.0000 0.0000 0.0000
# 2 20.6876 79.5066 27.6752 0.0000 0.0000 0.0000
# 3 27.6743 27.6752 115.2145 0.0000 0.0000 0.0000
# 4 0.0000 0.0000 0.0000 9.2511 0.0000 0.0000
# 5 0.0000 0.0000 0.0000 0.0000 9.2539 0.0000
# 6 0.0000 0.0000 0.0000 0.0000 0.0000 1.6695
#
#
#
# Elastic Compliance Matrix: (Units=1/GPa)
#
#
# Indices 1 2 3 4 5 6 
#
# 1 0.014255 -0.002747 -0.002764 0.000000 0.000000 0.000000
# 2 -0.002747 0.014254 -0.002764 0.000000 0.000000 0.000000
# 3 -0.002764 -0.002764 0.010007 0.000000 0.000000 0.000000
# 4 0.000000 0.000000 0.000000 0.108095 0.000000 0.000000
# 5 0.000000 0.000000 0.000000 0.000000 0.108063 0.000000
# 6 0.000000 0.000000 0.000000 0.000000 0.000000 0.598976
#
#
# Mechanical properties :
#
#
# Convention : Reuss Voigt Hill
#
# Bulk Modulus (GPa) = 45.52467 47.36667 46.44567
# Shear Modulus (GPa) = 5.69786 17.24750 11.47268
#
# Velocity S-wave (km/s) = 1.61712 2.81351 2.29466
# Velocity P-wave (km/s) = 4.93767 5.68276 5.32327
#
# Compressibility (1/GPa) = 0.02196611
#
# Stress axis : x y z
#
# Youngs Moduli (GPa) = 70.15205 70.15329 99.92621
#
# Poissons Ratio (x) = 0.19271 0.27621
# Poissons Ratio (y) = 0.19270 0.27622
# Poissons Ratio (z) = 0.19391 0.19392
#
# Static dielectric constant tensor:
#      x y z
#    x 1.845680 0.000000 0.000000 
#    y 0.000000 1.845640 0.000000 
#    z 0.000000 0.000000 1.835150 
# 
# From -- ./inp_files/3897.got.cif
#   From: 2010.05.17/outbox.cif.g08.bks.cpg/sg97_2_cif.got.tgz:3897.got - 2010.06.03 19:55:32.
