data_PCOD9551637
_publ_section_title
;
Structure prediction by ZEFSAII (Michael W. Deem and Ramdas Pophale) SiO2 
 PCOD9551637
Probable space group: I 41 2 2
;
_chemical_formula_sum "Si O2"
_cell_formula_units_Z 120
_cell_length_a 24.503102
_cell_length_b 24.503102
_cell_length_c 10.334693
_cell_angle_alpha 90.000000
_cell_angle_beta 90.000000
_cell_angle_gamma 90.000000
_cell_volume 6204.970425
_symmetry_space_group_name_H-M "I 41 2 2"
_symmetry_group_IT_number 98
_symmetry_cell_setting 'tetragonal'
loop_
_space_group_symop_operation_xyz
x,y,z
-y,1/2+x,1/4+z
-x,-y,z
y,1/2-x,1/4+z
x,1/2-y,1/4-z
-x,1/2+y,1/4-z
y,x,-z
-y,-x,-z
1/2+x,1/2+y,1/2+z
1/2-y,x,3/4+z
1/2-x,1/2-y,1/2+z
1/2+y,-x,3/4+z
1/2+x,-y,3/4-z
1/2-x,y,3/4-z
1/2+y,1/2+x,1/2-z
1/2-y,1/2-x,1/2-z
loop_
_atom_site_type_symbol
_atom_site_label
_atom_site_fract_x
_atom_site_fract_y
_atom_site_fract_z
Si Si1 0.519542 0.562673 0.742782
Si Si2 0.448867 0.365595 0.983210
Si Si3 0.381848 0.618153 0.000000
Si Si4 0.599373 0.408837 0.296694
Si Si5 0.695596 0.167006 0.950341
Si Si6 0.247446 0.015997 0.221479
Si Si7 0.021101 0.130406 0.784422
Si Si8 0.388369 0.760781 0.295763
O O1 0.500000 0.500000 0.759794
O O2 0.527211 0.591099 0.881791
O O3 0.472239 0.594487 0.666695
O O4 0.578916 0.558103 0.678382
O O5 0.386259 0.386259 0.000000
O O6 0.460689 0.305518 0.925914
O O7 0.476720 0.369009 0.125210
O O8 0.409026 0.604820 0.862124
O O9 0.390760 0.682033 0.028943
O O10 0.649616 0.374663 0.355008
O O11 0.541098 0.381565 0.324487
O O12 0.750000 0.185217 0.875000
O O13 0.658957 0.218476 0.991736
O O14 0.721139 0.131471 0.063911
O O15 0.250000 0.026248 0.375000
O O16 0.241886 0.950639 0.203736
O O17 0.190242 0.039544 0.171480
#
# Coordination Sequence:
#
# PCOD9551637 Si02
#       8
#    16  16   8  16  16  16  16  16
#     4   9  17  26  43  67  93 119 152 200 240 285
#     4   9  16  24  39  64  95 127 155 181 219 273
#     4  10  20  26  43  64  84 122 156 192 229 276
#     4  10  17  30  44  64  89 113 154 194 244 281
#     4  11  24  37  46  61  86 121 169 209 250 270
#     4  10  18  31  46  67  99 129 159 185 227 291
#     4   9  16  26  41  63  91 122 149 182 226 281
#     4  11  23  33  48  60  86 122 166 204 241 275
#
# _framework density 19.339334000000001
#
# number of rings (size 3 to 8) (size 9 to 14) (size 15 to 20)
#    0.000    2.133    1.333    4.400    3.733    6.667 
#    0.000    0.000    0.000    0.000    0.000    0.933 
#    0.000    5.333    0.000    0.400    0.000    0.000 
#
# Total GULP energy -334198.745343 kJ/mol
# GULP energy per Si atom -5569.979089 kJ/mol
# Density = 1.929532 g / cm^3
# Si number density = 19.339334 Si / 1000 Ang^3
#
#
#
# Elastic Constant Matrix: (Units=GPa)
#
#
# Indices 1 2 3 4 5 6 
#
# 1 117.7655 30.5508 -4.5453 0.0000 0.0000 0.0000
# 2 30.5508 117.7669 -4.5449 0.0000 0.0000 0.0000
# 3 -4.5453 -4.5449 20.9533 0.0000 0.0000 0.0000
# 4 0.0000 0.0000 0.0000 4.6717 0.0000 0.0000
# 5 0.0000 0.0000 0.0000 0.0000 4.6715 0.0000
# 6 0.0000 0.0000 0.0000 0.0000 0.0000 31.5992
#
#
#
# Elastic Compliance Matrix: (Units=1/GPa)
#
#
# Indices 1 2 3 4 5 6 
#
# 1 0.009150 -0.002316 0.001482 0.000000 0.000000 0.000000
# 2 -0.002316 0.009149 0.001482 0.000000 0.000000 0.000000
# 3 0.001482 0.001482 0.048368 0.000000 0.000000 0.000000
# 4 0.000000 0.000000 0.000000 0.214053 0.000000 0.000000
# 5 0.000000 0.000000 0.000000 0.000000 0.214065 0.000000
# 6 0.000000 0.000000 0.000000 0.000000 0.000000 0.031646
#
#
# Mechanical properties :
#
#
# Convention : Reuss Voigt Hill
#
# Bulk Modulus (GPa) = 14.71383 33.26745 23.99064
# Shear Modulus (GPa) = 9.12759 23.85682 16.49220
#
# Velocity S-wave (km/s) = 2.17484 3.51606 2.92341
# Velocity P-wave (km/s) = 3.73247 5.80714 4.88130
#
# Compressibility (1/GPa) = 0.06796329
#
# Stress axis : x y z
#
# Youngs Moduli (GPa) = 109.29473 109.29621 20.67477
#
# Poissons Ratio (x) = 0.25317 -0.03065
# Poissons Ratio (y) = 0.25317 -0.03064
# Poissons Ratio (z) = -0.16201 -0.16199
#
# Static dielectric constant tensor:
#      x y z
#    x 1.691980 0.000000 0.000000 
#    y 0.000000 1.691990 0.000000 
#    z 0.000000 0.000000 1.738290 
# 
# From -- ./inp_files/6820.got.cif
#   From: 2010.05.17/outbox.cif.g08.bks.cpg/sg98_4_cif.got.tgz:6820.got - 2010.06.03 20:00:51.
