data_PCOD9551503
_publ_section_title
;
Structure prediction by ZEFSAII (Michael W. Deem and Ramdas Pophale) SiO2 
 PCOD9551503
Probable space group: I 4 2 2 
;
_chemical_formula_sum "Si O2"
_cell_formula_units_Z 56
_cell_length_a 12.114274
_cell_length_b 12.114274
_cell_length_c 19.662964
_cell_angle_alpha 90.000000
_cell_angle_beta 90.000000
_cell_angle_gamma 90.000000
_cell_volume 2885.650759
_symmetry_space_group_name_H-M "I 4 2 2 "
_symmetry_group_IT_number 97
_symmetry_cell_setting 'tetragonal'
loop_
_space_group_symop_operation_xyz
x,y,z
-y,x,z
-x,-y,z
y,-x,z
x,-y,-z
-x,y,-z
y,x,-z
-y,-x,-z
1/2+x,1/2+y,1/2+z
1/2-y,1/2+x,1/2+z
1/2-x,1/2-y,1/2+z
1/2+y,1/2-x,1/2+z
1/2+x,1/2-y,1/2-z
1/2-x,1/2+y,1/2-z
1/2+y,1/2+x,1/2-z
1/2-y,1/2-x,1/2-z
loop_
_atom_site_type_symbol
_atom_site_label
_atom_site_fract_x
_atom_site_fract_y
_atom_site_fract_z
Si Si1 0.811820 0.613822 0.819271
Si Si2 0.630893 0.369108 0.000000
Si Si3 0.266027 0.862912 0.363564
Si Si4 0.134398 0.499283 0.578473
O O1 0.882681 0.617320 0.750000
O O2 0.772729 0.491121 0.840786
O O3 0.707885 0.694694 0.811353
O O4 0.890753 0.660954 0.878721
O O5 0.649474 0.500000 0.000000
O O6 0.660511 0.302358 0.067084
O O7 0.391425 0.830014 0.380893
O O8 0.172217 0.500000 0.500000
O O9 0.000000 0.500000 0.576245
#
# Coordination Sequence:
#
# PCOD9551503 Si02
#       4
#    16   8  16  16
#     4  11  25  39  61  92 123 171 213 262 329 392
#     4  11  20  34  60 100 132 155 204 274 345 388
#     4  11  22  39  64  90 129 164 208 271 325 394
#     4   9  20  37  60  89 120 159 205 253 312 387
#
# _framework density 19.406368000000001
#
# number of rings (size 3 to 8) (size 9 to 14) (size 15 to 20)
#    0.000    1.571    2.857    1.714    8.000    4.571 
#    0.000    0.000    0.000    0.857    0.000    2.000 
#    0.000    0.000    0.000    0.000    0.000    0.000 
#
# Total GULP energy -156064.538651 kJ/mol
# GULP energy per Si atom -5573.733523 kJ/mol
# Density = 1.936220 g / cm^3
# Si number density = 19.406368 Si / 1000 Ang^3
#
#
#
# Elastic Constant Matrix: (Units=GPa)
#
#
# Indices 1 2 3 4 5 6 
#
# 1 111.5942 28.4577 29.7880 0.0000 0.0000 0.0000
# 2 28.4577 111.5946 29.7882 0.0000 0.0000 0.0000
# 3 29.7880 29.7882 97.0302 0.0000 0.0000 0.0000
# 4 0.0000 0.0000 0.0000 19.4490 0.0000 0.0000
# 5 0.0000 0.0000 0.0000 0.0000 19.4481 0.0000
# 6 0.0000 0.0000 0.0000 0.0000 0.0000 10.9038
#
#
#
# Elastic Compliance Matrix: (Units=1/GPa)
#
#
# Indices 1 2 3 4 5 6 
#
# 1 0.010121 -0.001908 -0.002521 0.000000 0.000000 0.000000
# 2 -0.001908 0.010121 -0.002521 0.000000 0.000000 0.000000
# 3 -0.002521 -0.002521 0.011854 0.000000 0.000000 0.000000
# 4 0.000000 0.000000 0.000000 0.051417 0.000000 0.000000
# 5 0.000000 0.000000 0.000000 0.000000 0.051419 0.000000
# 6 0.000000 0.000000 0.000000 0.000000 0.000000 0.091711
#
#
# Mechanical properties :
#
#
# Convention : Reuss Voigt Hill
#
# Bulk Modulus (GPa) = 54.96193 55.14298 55.05246
# Shear Modulus (GPa) = 20.27515 25.43920 22.85718
#
# Velocity S-wave (km/s) = 3.23579 3.62452 3.43566
# Velocity P-wave (km/s) = 6.50719 6.78180 6.64591
#
# Compressibility (1/GPa) = 0.01819441
#
# Stress axis : x y z
#
# Youngs Moduli (GPa) = 98.80875 98.80905 84.35882
#
# Poissons Ratio (x) = 0.18851 0.21269
# Poissons Ratio (y) = 0.18851 0.21269
# Poissons Ratio (z) = 0.24913 0.24913
#
# Static dielectric constant tensor:
#      x y z
#    x 1.682490 0.000000 0.000000 
#    y 0.000000 1.682490 0.000000 
#    z 0.000000 0.000000 1.781170 
# 
# From -- ./inp_files/6244.got.cif
#   From: 2010.05.17/outbox.cif.g08.bks.cpg/sg97_4_cif.got.tgz:6244.got - 2010.06.03 19:55:32.
