data_PCOD9551248
_publ_section_title
;
Structure prediction by ZEFSAII (Michael W. Deem and Ramdas Pophale) SiO2 
 PCOD9551248
Probable space group: I 4 2 2 
;
_chemical_formula_sum "Si O2"
_cell_formula_units_Z 112
_cell_length_a 16.736698
_cell_length_b 16.736698
_cell_length_c 22.341089
_cell_angle_alpha 90.000000
_cell_angle_beta 90.000000
_cell_angle_gamma 90.000000
_cell_volume 6258.120167
_symmetry_space_group_name_H-M "I 4 2 2 "
_symmetry_group_IT_number 97
_symmetry_cell_setting 'tetragonal'
loop_
_space_group_symop_operation_xyz
x,y,z
-y,x,z
-x,-y,z
y,-x,z
x,-y,-z
-x,y,-z
y,x,-z
-y,-x,-z
1/2+x,1/2+y,1/2+z
1/2-y,1/2+x,1/2+z
1/2-x,1/2-y,1/2+z
1/2+y,1/2-x,1/2+z
1/2+x,1/2-y,1/2-z
1/2-x,1/2+y,1/2-z
1/2+y,1/2+x,1/2-z
1/2-y,1/2-x,1/2-z
loop_
_atom_site_type_symbol
_atom_site_label
_atom_site_fract_x
_atom_site_fract_y
_atom_site_fract_z
Si Si1 0.193250 0.698367 0.467467
Si Si2 0.422189 0.787098 0.743920
Si Si3 0.449356 0.702831 0.559821
Si Si4 0.436623 0.812412 0.877482
Si Si5 0.946684 0.119580 0.181911
Si Si6 0.988758 0.362716 0.131372
Si Si7 0.618959 0.938555 0.549652
O O1 0.224519 0.775482 0.500000
O O2 0.267327 0.640660 0.452458
O O3 0.141484 0.721870 0.409761
O O4 0.136974 0.647687 0.511806
O O5 0.340919 0.840919 0.750000
O O6 0.451714 0.780893 0.811637
O O7 0.414036 0.700131 0.713464
O O8 0.483518 0.835173 0.700497
O O9 0.500000 0.684568 0.500000
O O10 0.445798 0.635206 0.610331
O O11 0.486112 0.781715 0.592036
O O12 0.412247 0.906681 0.875568
O O13 0.513269 0.808627 0.919811
O O14 0.039721 0.102577 0.197309
O O15 0.060049 0.412457 0.102617
O O16 0.585209 0.000000 0.500000
#
# Coordination Sequence:
#
# PCOD9551248 Si02
#       7
#    16  16  16  16  16  16  16
#     4  10  21  33  50  79 114 147 182 227 286 340
#     4   9  19  39  58  79 111 147 191 236 287 331
#     4  10  19  31  52  80 114 147 184 221 269 329
#     4   9  19  33  52  77 106 143 183 230 282 339
#     4  10  23  40  59  82 112 151 196 240 275 327
#     4   9  17  30  52  78 110 146 177 219 274 339
#     4  10  19  31  50  79 112 144 184 226 283 350
#
# _framework density 17.896749
#
# number of rings (size 3 to 8) (size 9 to 14) (size 15 to 20)
#    0.000    2.429    1.429    1.286    2.000    3.429 
#    2.571    2.857    0.000    0.000    0.000    0.000 
#    0.000   14.000    0.000    0.000    0.000    0.000 
#
# Total GULP energy -311939.946454 kJ/mol
# GULP energy per Si atom -5570.356187 kJ/mol
# Density = 1.785601 g / cm^3
# Si number density = 17.896749 Si / 1000 Ang^3
#
#
#
# Elastic Constant Matrix: (Units=GPa)
#
#
# Indices 1 2 3 4 5 6 
#
# 1 50.6326 27.0539 28.3676 0.0000 0.0000 0.0000
# 2 27.0539 50.6301 28.3669 0.0000 0.0000 0.0000
# 3 28.3676 28.3669 130.6469 0.0000 0.0000 0.0000
# 4 0.0000 0.0000 0.0000 18.0144 0.0000 0.0000
# 5 0.0000 0.0000 0.0000 0.0000 18.0139 0.0000
# 6 0.0000 0.0000 0.0000 0.0000 0.0000 10.3510
#
#
#
# Elastic Compliance Matrix: (Units=1/GPa)
#
#
# Indices 1 2 3 4 5 6 
#
# 1 0.028855 -0.013558 -0.003322 0.000000 0.000000 0.000000
# 2 -0.013558 0.028857 -0.003322 0.000000 0.000000 0.000000
# 3 -0.003322 -0.003322 0.009097 0.000000 0.000000 0.000000
# 4 0.000000 0.000000 0.000000 0.055511 0.000000 0.000000
# 5 0.000000 0.000000 0.000000 0.000000 0.055513 0.000000
# 6 0.000000 0.000000 0.000000 0.000000 0.000000 0.096609
#
#
# Mechanical properties :
#
#
# Convention : Reuss Voigt Hill
#
# Bulk Modulus (GPa) = 37.86941 44.38737 41.12839
# Shear Modulus (GPa) = 15.44901 19.15062 17.29982
#
# Velocity S-wave (km/s) = 2.94127 3.27473 3.11247
# Velocity P-wave (km/s) = 5.72194 6.25733 5.99562
#
# Compressibility (1/GPa) = 0.02640654
#
# Stress axis : x y z
#
# Youngs Moduli (GPa) = 34.65586 34.65412 109.92996
#
# Poissons Ratio (x) = 0.46982 0.36515
# Poissons Ratio (y) = 0.46985 0.36516
# Poissons Ratio (z) = 0.11512 0.11511
#
# Static dielectric constant tensor:
#      x y z
#    x 1.629710 0.000000 0.000000 
#    y 0.000000 1.629710 0.000000 
#    z 0.000000 0.000000 1.642310 
# 
# From -- ./inp_files/6801.got.cif
#   From: 2010.05.17/outbox.cif.g08.bks.cpg/sg97_4_cif.got.tgz:6801.got - 2010.06.03 19:55:32.
