data_PCOD9551297
_publ_section_title
;
Structure prediction by ZEFSAII (Michael W. Deem and Ramdas Pophale) SiO2 
 PCOD9551297
Probable space group: I 4 2 2 
;
_chemical_formula_sum "Si O2"
_cell_formula_units_Z 104
_cell_length_a 19.830398
_cell_length_b 19.830398
_cell_length_c 14.796657
_cell_angle_alpha 90.000000
_cell_angle_beta 90.000000
_cell_angle_gamma 90.000000
_cell_volume 5818.706719
_symmetry_space_group_name_H-M "I 4 2 2 "
_symmetry_group_IT_number 97
_symmetry_cell_setting 'tetragonal'
loop_
_space_group_symop_operation_xyz
x,y,z
-y,x,z
-x,-y,z
y,-x,z
x,-y,-z
-x,y,-z
y,x,-z
-y,-x,-z
1/2+x,1/2+y,1/2+z
1/2-y,1/2+x,1/2+z
1/2-x,1/2-y,1/2+z
1/2+y,1/2-x,1/2+z
1/2+x,1/2-y,1/2-z
1/2-x,1/2+y,1/2-z
1/2+y,1/2+x,1/2-z
1/2-y,1/2-x,1/2-z
loop_
_atom_site_type_symbol
_atom_site_label
_atom_site_fract_x
_atom_site_fract_y
_atom_site_fract_z
Si Si1 0.822322 0.753873 0.667020
Si Si2 0.028740 0.710311 0.296369
Si Si3 0.826636 0.510166 0.596586
Si Si4 0.805129 0.635775 0.381972
Si Si5 0.756465 0.113529 0.316259
Si Si6 0.529318 0.072889 0.900279
Si Si7 0.725796 0.274205 0.500000
O O1 0.781987 0.718014 0.750000
O O2 0.898790 0.730459 0.666788
O O3 0.818160 0.835282 0.673065
O O4 0.781420 0.733371 0.578147
O O5 0.015819 0.633587 0.330829
O O6 0.030969 0.712111 0.186910
O O7 0.966482 0.756920 0.327654
O O8 0.789997 0.500000 0.500000
O O9 0.847759 0.432279 0.610251
O O10 0.890550 0.559011 0.589476
O O11 0.855641 0.698518 0.380472
O O12 0.769887 0.627519 0.285129
O O13 0.746032 0.655030 0.452682
O O14 0.500000 0.000000 0.871351
O O15 0.500000 0.088219 0.000000
#
# Coordination Sequence:
#
# PCOD9551297 Si02
#       7
#    16  16  16  16  16  16   8
#     4  11  21  38  58  84 113 143 201 246 293 351
#     4  11  25  36  58  82 110 152 199 246 291 353
#     4  11  22  34  48  77 114 149 190 230 279 333
#     4   9  18  33  53  74 107 148 192 224 283 342
#     4   9  18  38  54  76 106 150 178 241 290 342
#     4  11  22  36  48  73 111 157 189 231 275 348
#     4  10  20  32  60  80 106 153 191 250 296 332
#
# _framework density 17.873387999999998
#
# number of rings (size 3 to 8) (size 9 to 14) (size 15 to 20)
#    0.000    1.692    4.615    2.308    4.308    3.692 
#    0.000    0.000    0.000    0.462    0.000    0.000 
#    0.000    4.923    0.000    4.000    0.000    0.000 
#
# Total GULP energy -289649.576342 kJ/mol
# GULP energy per Si atom -5570.184160 kJ/mol
# Density = 1.783271 g / cm^3
# Si number density = 17.873388 Si / 1000 Ang^3
#
#
#
# Elastic Constant Matrix: (Units=GPa)
#
#
# Indices 1 2 3 4 5 6 
#
# 1 58.7202 26.3110 4.6139 0.0000 0.0000 0.0000
# 2 26.3110 58.7198 4.6136 0.0000 0.0000 0.0000
# 3 4.6139 4.6136 62.7319 0.0000 0.0000 0.0000
# 4 0.0000 0.0000 0.0000 13.6057 0.0000 0.0000
# 5 0.0000 0.0000 0.0000 0.0000 13.6057 0.0000
# 6 0.0000 0.0000 0.0000 0.0000 0.0000 28.2715
#
#
#
# Elastic Compliance Matrix: (Units=1/GPa)
#
#
# Indices 1 2 3 4 5 6 
#
# 1 0.021355 -0.009500 -0.000872 0.000000 0.000000 0.000000
# 2 -0.009500 0.021355 -0.000872 0.000000 0.000000 0.000000
# 3 -0.000872 -0.000872 0.016069 0.000000 0.000000 0.000000
# 4 0.000000 0.000000 0.000000 0.073498 0.000000 0.000000
# 5 0.000000 0.000000 0.000000 0.000000 0.073499 0.000000
# 6 0.000000 0.000000 0.000000 0.000000 0.000000 0.035371
#
#
# Mechanical properties :
#
#
# Convention : Reuss Voigt Hill
#
# Bulk Modulus (GPa) = 27.55459 27.91652 27.73556
# Shear Modulus (GPa) = 18.13345 20.73882 19.43614
#
# Velocity S-wave (km/s) = 3.18866 3.41004 3.30120
# Velocity P-wave (km/s) = 5.38579 5.58189 5.48471
#
# Compressibility (1/GPa) = 0.03629159
#
# Stress axis : x y z
#
# Youngs Moduli (GPa) = 46.82684 46.82658 62.23117
#
# Poissons Ratio (x) = 0.44487 0.05426
# Poissons Ratio (y) = 0.44487 0.05425
# Poissons Ratio (z) = 0.04083 0.04082
#
# Static dielectric constant tensor:
#      x y z
#    x 1.643770 0.000000 0.000000 
#    y 0.000000 1.643770 0.000000 
#    z 0.000000 0.000000 1.692780 
# 
# From -- ./inp_files/5022.got.cif
#   From: 2010.05.17/outbox.cif.g08.bks.cpg/sg97_3_cif.got.tgz:5022.got - 2010.06.03 19:55:32.
