data_PCOD9551657
_publ_section_title
;
Structure prediction by ZEFSAII (Michael W. Deem and Ramdas Pophale) SiO2 
 PCOD9551657
Probable space group: I 41 2 2
;
_chemical_formula_sum "Si O2"
_cell_formula_units_Z 112
_cell_length_a 20.086542
_cell_length_b 20.086542
_cell_length_c 18.071809
_cell_angle_alpha 90.000000
_cell_angle_beta 90.000000
_cell_angle_gamma 90.000000
_cell_volume 7291.417769
_symmetry_space_group_name_H-M "I 41 2 2"
_symmetry_group_IT_number 98
_symmetry_cell_setting 'tetragonal'
loop_
_space_group_symop_operation_xyz
x,y,z
-y,1/2+x,1/4+z
-x,-y,z
y,1/2-x,1/4+z
x,1/2-y,1/4-z
-x,1/2+y,1/4-z
y,x,-z
-y,-x,-z
1/2+x,1/2+y,1/2+z
1/2-y,x,3/4+z
1/2-x,1/2-y,1/2+z
1/2+y,-x,3/4+z
1/2+x,-y,3/4-z
1/2-x,y,3/4-z
1/2+y,1/2+x,1/2-z
1/2-y,1/2-x,1/2-z
loop_
_atom_site_type_symbol
_atom_site_label
_atom_site_fract_x
_atom_site_fract_y
_atom_site_fract_z
Si Si1 0.321330 0.066190 0.666517
Si Si2 0.607903 0.004555 0.967126
Si Si3 0.325947 0.057812 0.392582
Si Si4 0.610330 0.003628 0.251745
Si Si5 0.933481 0.677955 0.159663
Si Si6 0.002499 0.613019 0.464328
Si Si7 0.940496 0.830167 0.358776
O O1 0.320209 0.049499 0.753571
O O2 0.369207 0.129774 0.654127
O O3 0.351400 0.008824 0.614129
O O4 0.246179 0.080919 0.642510
O O5 0.646358 0.991521 0.890719
O O6 0.550222 0.948063 0.968441
O O7 0.573061 0.076222 0.973263
O O8 0.653467 0.984728 0.036552
O O9 0.250000 0.076776 0.375000
O O10 0.350335 0.009703 0.326831
O O11 0.337623 0.019495 0.469903
O O12 0.376146 0.121103 0.392031
O O13 0.550657 0.949344 0.250000
O O14 0.653528 0.984746 0.180512
O O15 0.575040 0.075040 0.250000
O O16 0.918470 0.750000 0.125000
#
# Coordination Sequence:
#
# PCOD9551657 Si02
#       7
#    16  16  16  16  16  16  16
#     4  10  20  31  48  70  98 131 162 195 229 284
#     4   9  17  31  50  66  92 125 158 203 246 286
#     4  10  19  30  45  67 100 129 159 200 230 273
#     4   9  17  29  45  65  89 122 163 200 236 273
#     4  10  19  33  48  69  98 129 162 197 234 276
#     4   9  18  31  47  69  92 124 162 199 248 280
#     4  10  18  30  47  68  95 134 164 189 234 281
#
# _framework density 15.360524
#
# number of rings (size 3 to 8) (size 9 to 14) (size 15 to 20)
#    0.000    2.429    1.429    1.714    0.000    4.571 
#    0.000    2.857    0.000    0.000    0.000    0.000 
#    0.000   17.143    0.000    0.000    0.000    0.000 
#
# Total GULP energy -311884.969966 kJ/mol
# GULP energy per Si atom -5569.374464 kJ/mol
# Density = 1.532556 g / cm^3
# Si number density = 15.360524 Si / 1000 Ang^3
#
#
#
# Elastic Constant Matrix: (Units=GPa)
#
#
# Indices 1 2 3 4 5 6 
#
# 1 45.1042 46.1987 36.0614 0.0000 0.0000 0.0000
# 2 46.1987 45.1039 36.0617 0.0000 0.0000 0.0000
# 3 36.0614 36.0617 116.7758 0.0000 0.0000 0.0000
# 4 0.0000 0.0000 0.0000 15.3055 0.0000 0.0000
# 5 0.0000 0.0000 0.0000 0.0000 15.3058 0.0000
# 6 0.0000 0.0000 0.0000 0.0000 0.0000 11.9555
#
#
#
# Elastic Compliance Matrix: (Units=1/GPa)
#
#
# Indices 1 2 3 4 5 6 
#
# 1 -0.449506 0.463996 -0.004476 0.000000 0.000000 0.000000
# 2 0.463996 -0.449513 -0.004471 0.000000 0.000000 0.000000
# 3 -0.004476 -0.004471 0.011326 0.000000 0.000000 0.000000
# 4 0.000000 0.000000 0.000000 0.065336 0.000000 0.000000
# 5 0.000000 0.000000 0.000000 0.000000 0.065335 0.000000
# 6 0.000000 0.000000 0.000000 0.000000 0.000000 0.083644
#
#
# Mechanical properties :
#
#
# Convention : Reuss Voigt Hill
#
# Bulk Modulus (GPa) = 44.63298 49.29194 46.96246
# Shear Modulus (GPa) = -3.17257 14.42416 5.62579
#
# Velocity S-wave (km/s) = -1.43871 3.06770 1.91584
# Velocity P-wave (km/s) = 5.13421 6.68636 5.96102
#
# Compressibility (1/GPa) = 0.02240496
#
# Stress axis : x y z
#
# Youngs Moduli (GPa) = -2.22466 -2.22463 88.28959
#
# Poissons Ratio (x) = 1.03222 0.39517
# Poissons Ratio (y) = 1.03224 0.39476
# Poissons Ratio (z) = -0.00996 -0.00995
#
# Static dielectric constant tensor:
#      x y z
#    x 1.499390 0.000000 0.000000 
#    y 0.000000 1.499390 0.000000 
#    z 0.000000 0.000000 1.530710 
# 
# From -- ./inp_files/7889.got.cif
#   From: 2010.05.17/outbox.cif.g08.bks.cpg/sg98_4_cif.got.tgz:7889.got - 2010.06.03 20:00:51.
