data_PCOD9551953
_publ_section_title
;
Structure prediction by ZEFSAII (Michael W. Deem and Ramdas Pophale) SiO2 
 PCOD9551953
Probable space group: I 41 2 2
;
_chemical_formula_sum "Si O2"
_cell_formula_units_Z 72
_cell_length_a 21.609066
_cell_length_b 21.609066
_cell_length_c 7.845490
_cell_angle_alpha 90.000000
_cell_angle_beta 90.000000
_cell_angle_gamma 90.000000
_cell_volume 3663.465155
_symmetry_space_group_name_H-M "I 41 2 2"
_symmetry_group_IT_number 98
_symmetry_cell_setting 'tetragonal'
loop_
_space_group_symop_operation_xyz
x,y,z
-y,1/2+x,1/4+z
-x,-y,z
y,1/2-x,1/4+z
x,1/2-y,1/4-z
-x,1/2+y,1/4-z
y,x,-z
-y,-x,-z
1/2+x,1/2+y,1/2+z
1/2-y,x,3/4+z
1/2-x,1/2-y,1/2+z
1/2+y,-x,3/4+z
1/2+x,-y,3/4-z
1/2-x,y,3/4-z
1/2+y,1/2+x,1/2-z
1/2-y,1/2-x,1/2-z
loop_
_atom_site_type_symbol
_atom_site_label
_atom_site_fract_x
_atom_site_fract_y
_atom_site_fract_z
Si Si1 0.691558 0.308443 0.000000
Si Si2 0.620783 0.879218 0.250000
Si Si3 0.424216 0.924216 0.750000
Si Si4 0.052495 0.122807 0.858781
Si Si5 0.691497 0.423445 0.251648
Si Si6 0.957321 0.765379 0.433271
O O1 0.750000 0.306301 0.875000
O O2 0.629146 0.306724 0.890653
O O3 0.610170 0.922402 0.417002
O O4 0.691281 0.896519 0.196796
O O5 0.488506 0.912383 0.848964
O O6 0.418653 0.869943 0.612432
O O7 0.048072 0.196564 0.889979
O O8 0.099268 0.099268 0.000000
O O9 0.750000 0.414954 0.375000
O O10 0.696988 0.490550 0.165716
O O11 0.979039 0.750000 0.625000
#
# Coordination Sequence:
#
# PCOD9551953 Si02
#       6
#     8   8   8  16  16  16
#     4  12  26  41  62  92 132 178 238 296 341 410
#     4  10  24  42  75  96 134 182 230 288 354 423
#     4  12  25  41  64 105 138 174 241 280 347 437
#     4  11  24  45  70 102 141 181 228 289 357 426
#     4  12  24  42  68  93 132 188 230 285 353 416
#     4  10  23  45  68  96 133 178 227 283 352 422
#
# _framework density 19.653524999999998
#
# number of rings (size 3 to 8) (size 9 to 14) (size 15 to 20)
#    0.000    0.889    2.222    4.333    6.222    0.000 
#    0.000    6.667   22.000    0.000    0.000    0.000 
#    0.000    0.000    0.000    0.000    0.000    0.000 
#
# Total GULP energy -201160.903751 kJ/mol
# GULP energy per Si atom -5587.802882 kJ/mol
# Density = 1.960879 g / cm^3
# Si number density = 19.653525 Si / 1000 Ang^3
#
#
#
# Elastic Constant Matrix: (Units=GPa)
#
#
# Indices 1 2 3 4 5 6 
#
# 1 110.8265 71.6162 49.8757 0.0000 0.0000 0.0000
# 2 71.6162 110.8259 49.8740 0.0000 0.0000 0.0000
# 3 49.8757 49.8740 91.4801 0.0000 0.0000 0.0000
# 4 0.0000 0.0000 0.0000 40.9537 0.0000 0.0000
# 5 0.0000 0.0000 0.0000 0.0000 40.9535 0.0000
# 6 0.0000 0.0000 0.0000 0.0000 0.0000 24.0420
#
#
#
# Elastic Compliance Matrix: (Units=1/GPa)
#
#
# Indices 1 2 3 4 5 6 
#
# 1 0.016656 -0.008847 -0.004258 0.000000 0.000000 0.000000
# 2 -0.008847 0.016656 -0.004257 0.000000 0.000000 0.000000
# 3 -0.004258 -0.004257 0.015574 0.000000 0.000000 0.000000
# 4 0.000000 0.000000 0.000000 0.024418 0.000000 0.000000
# 5 0.000000 0.000000 0.000000 0.000000 0.024418 0.000000
# 6 0.000000 0.000000 0.000000 0.000000 0.000000 0.041594
#
#
# Mechanical properties :
#
#
# Convention : Reuss Voigt Hill
#
# Bulk Modulus (GPa) = 70.61256 72.87382 71.74319
# Shear Modulus (GPa) = 27.97035 30.64096 29.30565
#
# Velocity S-wave (km/s) = 3.77659 3.95277 3.86568
# Velocity P-wave (km/s) = 7.41778 7.61527 7.51717
#
# Compressibility (1/GPa) = 0.01416179
#
# Stress axis : x y z
#
# Youngs Moduli (GPa) = 60.03692 60.03783 64.21122
#
# Poissons Ratio (x) = 0.53118 0.27339
# Poissons Ratio (y) = 0.53117 0.27335
# Poissons Ratio (z) = 0.25562 0.25559
#
# Static dielectric constant tensor:
#      x y z
#    x 1.702410 0.000000 0.000000 
#    y 0.000000 1.702410 0.000000 
#    z 0.000000 0.000000 1.693800 
# 
# From -- ./inp_files/3482.got.cif
#   From: 2010.05.17/outbox.cif.g08.bks.cpg/sg98_2_cif.got.tgz:3482.got - 2010.06.03 20:00:51.
