data_PCOD9551699
_publ_section_title
;
Structure prediction by ZEFSAII (Michael W. Deem and Ramdas Pophale) SiO2 
 PCOD9551699
Probable space group: I 41 2 2
;
_chemical_formula_sum "Si O2"
_cell_formula_units_Z 112
_cell_length_a 32.080181
_cell_length_b 32.080181
_cell_length_c 5.427002
_cell_angle_alpha 90.000000
_cell_angle_beta 90.000000
_cell_angle_gamma 90.000000
_cell_volume 5585.134055
_symmetry_space_group_name_H-M "I 41 2 2"
_symmetry_group_IT_number 98
_symmetry_cell_setting 'tetragonal'
loop_
_space_group_symop_operation_xyz
x,y,z
-y,1/2+x,1/4+z
-x,-y,z
y,1/2-x,1/4+z
x,1/2-y,1/4-z
-x,1/2+y,1/4-z
y,x,-z
-y,-x,-z
1/2+x,1/2+y,1/2+z
1/2-y,x,3/4+z
1/2-x,1/2-y,1/2+z
1/2+y,-x,3/4+z
1/2+x,-y,3/4-z
1/2-x,y,3/4-z
1/2+y,1/2+x,1/2-z
1/2-y,1/2-x,1/2-z
loop_
_atom_site_type_symbol
_atom_site_label
_atom_site_fract_x
_atom_site_fract_y
_atom_site_fract_z
Si Si1 0.647485 0.629137 0.250687
Si Si2 0.225735 0.572188 0.118370
Si Si3 0.021580 0.942762 0.747668
Si Si4 0.871652 0.089980 0.249157
Si Si5 0.463991 0.344667 0.746170
Si Si6 0.111223 0.452453 0.992980
Si Si7 0.259356 0.019789 0.124503
O O1 0.653974 0.653974 0.500000
O O2 0.669673 0.584513 0.246124
O O3 0.597294 0.617476 0.254706
O O4 0.653607 0.653607 0.000000
O O5 0.250000 0.585245 0.375000
O O6 0.231529 0.521775 0.117713
O O7 0.250000 0.587792 0.875000
O O8 0.177267 0.582379 0.063509
O O9 0.033032 0.966969 0.500000
O O10 0.047426 0.898786 0.725810
O O11 0.972687 0.933532 0.772794
O O12 0.036843 0.963158 0.000000
O O13 0.883370 0.116631 0.500000
O O14 0.888541 0.111459 0.000000
O O15 0.470135 0.361626 0.472239
O O16 0.492679 0.307177 0.838115
O O17 0.466390 0.376825 0.968545
O O18 0.250000 0.043269 0.375000
O O19 0.250000 0.043630 0.875000
#
# Coordination Sequence:
#
# PCOD9551699 Si02
#       7
#    16  16  16  16  16  16  16
#     4   8  16  30  46  69  87 117 168 207 242 290
#     4  10  21  33  51  75 105 124 161 200 240 294
#     4  10  21  33  47  70  93 128 171 209 253 297
#     4  10  21  36  51  70 102 141 170 192 240 308
#     4  10  19  31  51  69  94 130 155 202 257 308
#     4  10  19  31  53  68  94 123 176 209 249 286
#     4  10  21  32  45  75 103 125 156 197 255 315
#
# _framework density 20.053234
#
# number of rings (size 3 to 8) (size 9 to 14) (size 15 to 20)
#    0.000    2.286    0.000    2.571    8.000    0.000 
#    0.000    0.000    0.000   23.143    0.000    0.000 
#    0.000   16.000    0.000    0.000    0.000    0.000 
#
# Total GULP energy -311903.114765 kJ/mol
# GULP energy per Si atom -5569.698478 kJ/mol
# Density = 2.000759 g / cm^3
# Si number density = 20.053234 Si / 1000 Ang^3
#
#
#
# Elastic Constant Matrix: (Units=GPa)
#
#
# Indices 1 2 3 4 5 6 
#
# 1 49.2729 38.4686 27.0827 0.0000 0.0000 0.0000
# 2 38.4686 49.2734 27.0818 0.0000 0.0000 0.0000
# 3 27.0827 27.0818 200.0137 0.0000 0.0000 0.0000
# 4 0.0000 0.0000 0.0000 35.4136 0.0000 0.0000
# 5 0.0000 0.0000 0.0000 0.0000 35.4189 0.0000
# 6 0.0000 0.0000 0.0000 0.0000 0.0000 15.2271
#
#
#
# Elastic Compliance Matrix: (Units=1/GPa)
#
#
# Indices 1 2 3 4 5 6 
#
# 1 0.052496 -0.040059 -0.001684 0.000000 0.000000 0.000000
# 2 -0.040059 0.052495 -0.001684 0.000000 0.000000 0.000000
# 3 -0.001684 -0.001684 0.005456 0.000000 0.000000 0.000000
# 4 0.000000 0.000000 0.000000 0.028238 0.000000 0.000000
# 5 0.000000 0.000000 0.000000 0.000000 0.028234 0.000000
# 6 0.000000 0.000000 0.000000 0.000000 0.000000 0.065673
#
#
# Mechanical properties :
#
#
# Convention : Reuss Voigt Hill
#
# Bulk Modulus (GPa) = 42.38525 53.75848 48.07186
# Shear Modulus (GPa) = 15.27617 30.94039 23.10828
#
# Velocity S-wave (km/s) = 2.76303 3.93225 3.39831
# Velocity P-wave (km/s) = 5.60012 6.89078 6.27871
#
# Compressibility (1/GPa) = 0.02359312
#
# Stress axis : x y z
#
# Youngs Moduli (GPa) = 19.04921 19.04952 183.29541
#
# Poissons Ratio (x) = 0.76310 0.30871
# Poissons Ratio (y) = 0.76308 0.30861
# Poissons Ratio (z) = 0.03208 0.03207
#
# Static dielectric constant tensor:
#      x y z
#    x 1.764890 0.000000 0.000000 
#    y 0.000000 1.764900 0.000000 
#    z 0.000000 0.000000 1.836900 
# 
# From -- ./inp_files/2058.got.cif
#   From: 2010.05.17/outbox.cif.g08.bks.cpg/sg98_2_cif.got.tgz:2058.got - 2010.06.03 20:00:51.
