data_PCOD9551196
_publ_section_title
;
Structure prediction by ZEFSAII (Michael W. Deem and Ramdas Pophale) SiO2 
 PCOD9551196
Probable space group: P 43 21 2
;
_chemical_formula_sum "Si O2"
_cell_formula_units_Z 48
_cell_length_a 9.000000
_cell_length_b 9.000000
_cell_length_c 30.000000
_cell_angle_alpha 90.000000
_cell_angle_beta 90.000000
_cell_angle_gamma 90.000000
_cell_volume 2430.000000
_symmetry_space_group_name_H-M "P 43 21 2"
_symmetry_group_IT_number 96
_symmetry_cell_setting 'tetragonal'
loop_
_space_group_symop_operation_xyz
x,y,z
1/2-y,1/2+x,3/4+z
-x,-y,1/2+z
1/2+y,1/2-x,1/4+z
1/2+x,1/2-y,1/4-z
1/2-x,1/2+y,3/4-z
y,x,-z
-y,-x,1/2-z
loop_
_atom_site_type_symbol
_atom_site_label
_atom_site_fract_x
_atom_site_fract_y
_atom_site_fract_z
Si Si1 0.286066 0.863658 0.077049
Si Si2 0.667541 0.424731 0.428095
Si Si3 0.883521 0.829704 0.574361
Si Si4 0.104554 0.809224 0.165867
Si Si5 0.808980 0.191021 0.250000
Si Si6 0.681565 0.640225 0.730384
Si Si7 0.202494 0.202494 0.500000
O O1 0.185853 0.795597 0.117489
O O2 0.453646 0.793572 0.082024
O O3 0.244552 0.041745 0.080227
O O4 0.230839 0.830863 0.026780
O O5 0.716028 0.432164 0.375030
O O6 0.486559 0.424222 0.423521
O O7 0.696664 0.548084 0.467107
O O8 0.759316 0.284975 0.448100
O O9 0.819216 0.710753 0.538181
O O10 0.029098 0.887144 0.547709
O O11 0.217917 0.766321 0.205691
O O12 0.731819 0.474871 0.745373
#
# Coordination Sequence:
#
# PCOD9551196 Si02
#       7
#     8   8   8   8   4   8   4
#     4  11  22  45  72 103 145 190 243 306 371 448
#     4  11  27  44  70 105 145 190 251 308 375 459
#     4  11  24  46  72 103 146 194 244 306 378 460
#     4  11  26  45  71 106 148 192 251 312 370 451
#     4  12  22  46  70 106 142 198 240 312 386 446
#     4  12  23  46  71 100 144 187 240 307 370 447
#     4  12  24  42  70 110 136 194 242 300 378 444
#
# _framework density 19.753086
#
# number of rings (size 3 to 8) (size 9 to 14) (size 15 to 20)
#    0.000    0.667    3.333    4.500    4.667    1.333 
#    3.000    0.000    0.000    0.000    0.000    0.000 
#    0.000    0.000    0.000    0.000    0.000    0.000 
#
# Total GULP energy -267525.719158 kJ/mol
# GULP energy per Si atom -5573.452482 kJ/mol
# Density = 1.970813 g / cm^3
# Si number density = 19.753086 Si / 1000 Ang^3
#
#
#
# Elastic Constant Matrix: (Units=GPa)
#
#
# Indices 1 2 3 4 5 6 
#
# 1 92.2588 45.8284 45.8178 0.0000 0.0000 0.0000
# 2 45.8284 92.2588 45.8176 0.0000 0.0000 0.0000
# 3 45.8178 45.8176 217.2186 0.0000 0.0000 0.0000
# 4 0.0000 0.0000 0.0000 48.3262 0.0000 0.0000
# 5 0.0000 0.0000 0.0000 0.0000 48.3263 0.0000
# 6 0.0000 0.0000 0.0000 0.0000 0.0000 35.8732
#
#
#
# Elastic Compliance Matrix: (Units=1/GPa)
#
#
# Indices 1 2 3 4 5 6 
#
# 1 0.014979 -0.006559 -0.001776 0.000000 0.000000 0.000000
# 2 -0.006559 0.014979 -0.001776 0.000000 0.000000 0.000000
# 3 -0.001776 -0.001776 0.005353 0.000000 0.000000 0.000000
# 4 0.000000 0.000000 0.000000 0.020693 0.000000 0.000000
# 5 0.000000 0.000000 0.000000 0.000000 0.020693 0.000000
# 6 0.000000 0.000000 0.000000 0.000000 0.000000 0.027876
#
#
# Mechanical properties :
#
#
# Convention : Reuss Voigt Hill
#
# Bulk Modulus (GPa) = 66.27193 75.18486 70.72840
# Shear Modulus (GPa) = 38.51375 44.12330 41.31852
#
# Velocity S-wave (km/s) = 4.42040 4.73138 4.57853
# Velocity P-wave (km/s) = 7.72504 8.24578 7.98965
#
# Compressibility (1/GPa) = 0.01508934
#
# Stress axis : x y z
#
# Youngs Moduli (GPa) = 66.75989 66.76000 186.81375
#
# Poissons Ratio (x) = 0.43785 0.33181
# Poissons Ratio (y) = 0.43785 0.33180
# Poissons Ratio (z) = 0.11857 0.11857
#
# Static dielectric constant tensor:
#      x y z
#    x 1.736030 0.000000 0.000000 
#    y 0.000000 1.736030 0.000000 
#    z 0.000000 0.000000 1.675090 
# 
# From -- ./inp_files/4515.got.cif
#   From: 2010.05.17/outbox.ucp.g08.bks.cvg/sg96_3_cif.got.tgz:4515.got - 2010.06.11 10:37:29.
