data_PCOD9551732
_publ_section_title
;
Structure prediction by ZEFSAII (Michael W. Deem and Ramdas Pophale) SiO2 
 PCOD9551732
Probable space group: I 41 2 2
;
_chemical_formula_sum "Si O2"
_cell_formula_units_Z 72
_cell_length_a 19.535644
_cell_length_b 19.535644
_cell_length_c 8.898406
_cell_angle_alpha 90.000000
_cell_angle_beta 90.000000
_cell_angle_gamma 90.000000
_cell_volume 3396.000003
_symmetry_space_group_name_H-M "I 41 2 2"
_symmetry_group_IT_number 98
_symmetry_cell_setting 'tetragonal'
loop_
_space_group_symop_operation_xyz
x,y,z
-y,1/2+x,1/4+z
-x,-y,z
y,1/2-x,1/4+z
x,1/2-y,1/4-z
-x,1/2+y,1/4-z
y,x,-z
-y,-x,-z
1/2+x,1/2+y,1/2+z
1/2-y,x,3/4+z
1/2-x,1/2-y,1/2+z
1/2+y,-x,3/4+z
1/2+x,-y,3/4-z
1/2-x,y,3/4-z
1/2+y,1/2+x,1/2-z
1/2-y,1/2-x,1/2-z
loop_
_atom_site_type_symbol
_atom_site_label
_atom_site_fract_x
_atom_site_fract_y
_atom_site_fract_z
Si Si1 0.075633 0.975955 0.662202
Si Si2 0.750000 0.881260 0.875000
Si Si3 0.456684 0.352836 0.419783
Si Si4 0.589416 0.329703 0.592774
Si Si5 0.368242 0.371460 0.165683
O O1 0.056340 0.943661 0.500000
O O2 0.122753 0.926313 0.762364
O O3 0.120345 0.046200 0.653052
O O4 0.000000 0.000000 0.724985
O O5 0.714177 0.926695 0.749282
O O6 0.811613 0.846351 0.785569
O O7 0.414997 0.414997 0.500000
O O8 0.533452 0.355571 0.471662
O O9 0.439115 0.349187 0.244404
O O10 0.579261 0.250000 0.625000
O O11 0.658772 0.341229 0.500000
O O12 0.349143 0.349143 0.000000
#
# Coordination Sequence:
#
# PCOD9551732 Si02
#       5
#    16   8  16  16  16
#     4  11  21  37  63 103 138 163 224 299 367 420
#     4  10  20  38  60  94 136 170 226 262 358 432
#     4  10  19  37  65  96 131 173 224 295 350 421
#     4  12  25  43  68 100 138 188 238 286 356 440
#     4  11  21  36  62  97 138 177 214 292 358 418
#
# _framework density 21.201414
#
# number of rings (size 3 to 8) (size 9 to 14) (size 15 to 20)
#    0.000    1.111    7.778    1.333    0.000    0.889 
#    0.000    2.222    0.000   36.000    0.000    0.000 
#    0.000    0.000    0.000    0.000    0.000    0.000 
#
# Total GULP energy -200659.193253 kJ/mol
# GULP energy per Si atom -5573.866479 kJ/mol
# Density = 2.115316 g / cm^3
# Si number density = 21.201414 Si / 1000 Ang^3
#
#
#
# Elastic Constant Matrix: (Units=GPa)
#
#
# Indices 1 2 3 4 5 6 
#
# 1 73.0934 29.7817 32.2973 0.0000 0.0000 0.0000
# 2 29.7817 73.1008 32.2975 0.0000 0.0000 0.0000
# 3 32.2973 32.2975 145.4863 0.0000 0.0000 0.0000
# 4 0.0000 0.0000 0.0000 23.7577 0.0000 0.0000
# 5 0.0000 0.0000 0.0000 0.0000 23.7568 0.0000
# 6 0.0000 0.0000 0.0000 0.0000 0.0000 18.2997
#
#
#
# Elastic Compliance Matrix: (Units=1/GPa)
#
#
# Indices 1 2 3 4 5 6 
#
# 1 0.017191 -0.005896 -0.002508 0.000000 0.000000 0.000000
# 2 -0.005896 0.017190 -0.002507 0.000000 0.000000 0.000000
# 3 -0.002508 -0.002507 0.007987 0.000000 0.000000 0.000000
# 4 0.000000 0.000000 0.000000 0.042092 0.000000 0.000000
# 5 0.000000 0.000000 0.000000 0.000000 0.042093 0.000000
# 6 0.000000 0.000000 0.000000 0.000000 0.000000 0.054646
#
#
# Mechanical properties :
#
#
# Convention : Reuss Voigt Hill
#
# Bulk Modulus (GPa) = 48.67047 53.38150 51.02599
# Shear Modulus (GPa) = 23.82446 26.31644 25.07045
#
# Velocity S-wave (km/s) = 3.35583 3.52697 3.44247
# Velocity P-wave (km/s) = 6.16616 6.46676 6.31825
#
# Compressibility (1/GPa) = 0.02054634
#
# Stress axis : x y z
#
# Youngs Moduli (GPa) = 58.16857 58.17501 125.20770
#
# Poissons Ratio (x) = 0.34300 0.31396
# Poissons Ratio (y) = 0.34296 0.31391
# Poissons Ratio (z) = 0.14586 0.14585
#
# Static dielectric constant tensor:
#      x y z
#    x 1.822310 0.000000 0.000000 
#    y 0.000000 1.822310 0.000000 
#    z 0.000000 0.000000 1.817120 
# 
# From -- ./inp_files/3456.got.cif
#   From: 2010.05.17/outbox.cif.g08.bks.cpg/sg98_2_cif.got.tgz:3456.got - 2010.06.03 20:00:51.
