data_PCOD9551903
_publ_section_title
;
Structure prediction by ZEFSAII (Michael W. Deem and Ramdas Pophale) SiO2 
 PCOD9551903
Probable space group: I 41 2 2
;
_chemical_formula_sum "Si O2"
_cell_formula_units_Z 56
_cell_length_a 18.090155
_cell_length_b 18.090155
_cell_length_c 7.556344
_cell_angle_alpha 90.000000
_cell_angle_beta 90.000000
_cell_angle_gamma 90.000000
_cell_volume 2472.841592
_symmetry_space_group_name_H-M "I 41 2 2"
_symmetry_group_IT_number 98
_symmetry_cell_setting 'tetragonal'
loop_
_space_group_symop_operation_xyz
x,y,z
-y,1/2+x,1/4+z
-x,-y,z
y,1/2-x,1/4+z
x,1/2-y,1/4-z
-x,1/2+y,1/4-z
y,x,-z
-y,-x,-z
1/2+x,1/2+y,1/2+z
1/2-y,x,3/4+z
1/2-x,1/2-y,1/2+z
1/2+y,-x,3/4+z
1/2+x,-y,3/4-z
1/2-x,y,3/4-z
1/2+y,1/2+x,1/2-z
1/2-y,1/2-x,1/2-z
loop_
_atom_site_type_symbol
_atom_site_label
_atom_site_fract_x
_atom_site_fract_y
_atom_site_fract_z
Si Si1 0.163170 0.569598 0.891292
Si Si2 0.547079 0.828154 0.637121
Si Si3 0.826167 0.899696 0.286293
Si Si4 0.915092 0.415092 0.250000
O O1 0.250000 0.583950 0.875000
O O2 0.113281 0.613281 0.750000
O O3 0.153658 0.480148 0.883045
O O4 0.140397 0.592648 0.088357
O O5 0.504429 0.750000 0.625000
O O6 0.604061 0.844562 0.478004
O O7 0.493789 0.897771 0.661066
O O8 0.585870 0.816352 0.826659
O O9 0.750000 0.873054 0.375000
#
# Coordination Sequence:
#
# PCOD9551903 Si02
#       4
#    16  16  16   8
#     4  10  23  42  65  99 137 179 238 295 355 426
#     4  10  22  41  68 100 138 186 230 291 359 418
#     4   9  21  42  66  99 138 171 230 291 346 428
#     4  10  24  41  72  92 146 182 234 294 351 412
#
# _framework density 22.646013
#
# number of rings (size 3 to 8) (size 9 to 14) (size 15 to 20)
#    0.000    2.286    0.000    0.000   12.000   10.286 
#    2.571    7.143    0.000    0.000    0.000    0.000 
#    0.000    0.000    0.000    0.000    0.000    0.000 
#
# Total GULP energy -156188.719957 kJ/mol
# GULP energy per Si atom -5578.168570 kJ/mol
# Density = 2.259447 g / cm^3
# Si number density = 22.646013 Si / 1000 Ang^3
#
#
#
# Elastic Constant Matrix: (Units=GPa)
#
#
# Indices 1 2 3 4 5 6 
#
# 1 81.0770 133.8221 47.0988 0.0000 0.0000 0.0000
# 2 133.8221 81.0770 47.0988 0.0000 0.0000 0.0000
# 3 47.0988 47.0988 119.7320 0.0000 0.0000 0.0000
# 4 0.0000 0.0000 0.0000 32.1596 0.0000 0.0000
# 5 0.0000 0.0000 0.0000 0.0000 32.1596 0.0000
# 6 0.0000 0.0000 0.0000 0.0000 0.0000 17.6613
#
#
#
# Elastic Compliance Matrix: (Units=1/GPa)
#
#
# Indices 1 2 3 4 5 6 
#
# 1 -0.006668 0.012291 -0.002212 0.000000 0.000000 0.000000
# 2 0.012291 -0.006668 -0.002212 0.000000 0.000000 0.000000
# 3 -0.002212 -0.002212 0.010092 0.000000 0.000000 0.000000
# 4 0.000000 0.000000 0.000000 0.031095 0.000000 0.000000
# 5 0.000000 0.000000 0.000000 0.000000 0.031095 0.000000
# 6 0.000000 0.000000 0.000000 0.000000 0.000000 0.056621
#
#
# Mechanical properties :
#
#
# Convention : Reuss Voigt Hill
#
# Bulk Modulus (GPa) = 80.06120 81.99173 81.02647
# Shear Modulus (GPa) = 48.07897 19.98720 34.03309
#
# Velocity S-wave (km/s) = 4.61267 2.97407 3.88084
# Velocity P-wave (km/s) = 7.98743 6.93382 7.47920
#
# Compressibility (1/GPa) = 0.01249044
#
# Stress axis : x y z
#
# Youngs Moduli (GPa) = -149.96742 -149.96742 99.08692
#
# Poissons Ratio (x) = 1.84325 0.21917
# Poissons Ratio (y) = 1.84325 0.21917
# Poissons Ratio (z) = -0.33171 -0.33171
#
# Static dielectric constant tensor:
#      x y z
#    x 1.896590 0.000000 0.000000 
#    y 0.000000 1.896590 0.000000 
#    z 0.000000 0.000000 1.857750 
# 
# From -- ./inp_files/3000.got.cif
#   From: 2010.05.17/outbox.cif.g08.bks.cpg/sg98_2_cif.got.tgz:3000.got - 2010.06.03 20:00:51.
