data_PCOD9551757
_publ_section_title
;
Structure prediction by ZEFSAII (Michael W. Deem and Ramdas Pophale) SiO2 
 PCOD9551757
Probable space group: I 41 2 2
;
_chemical_formula_sum "Si O2"
_cell_formula_units_Z 112
_cell_length_a 16.314191
_cell_length_b 16.314191
_cell_length_c 25.879114
_cell_angle_alpha 90.000000
_cell_angle_beta 90.000000
_cell_angle_gamma 90.000000
_cell_volume 6887.799377
_symmetry_space_group_name_H-M "I 41 2 2"
_symmetry_group_IT_number 98
_symmetry_cell_setting 'tetragonal'
loop_
_space_group_symop_operation_xyz
x,y,z
-y,1/2+x,1/4+z
-x,-y,z
y,1/2-x,1/4+z
x,1/2-y,1/4-z
-x,1/2+y,1/4-z
y,x,-z
-y,-x,-z
1/2+x,1/2+y,1/2+z
1/2-y,x,3/4+z
1/2-x,1/2-y,1/2+z
1/2+y,-x,3/4+z
1/2+x,-y,3/4-z
1/2-x,y,3/4-z
1/2+y,1/2+x,1/2-z
1/2-y,1/2-x,1/2-z
loop_
_atom_site_type_symbol
_atom_site_label
_atom_site_fract_x
_atom_site_fract_y
_atom_site_fract_z
Si Si1 0.692370 0.436625 0.424390
Si Si2 0.390363 0.395624 0.440422
Si Si3 0.446807 0.821061 0.855138
Si Si4 0.654202 0.636860 0.746727
Si Si5 0.743910 0.747426 0.567819
Si Si6 0.965642 0.092025 0.786169
Si Si7 0.307265 0.529863 0.228568
O O1 0.750000 0.425283 0.375000
O O2 0.645038 0.522084 0.416292
O O3 0.628177 0.363625 0.424194
O O4 0.741538 0.444974 0.477662
O O5 0.412260 0.412260 0.500000
O O6 0.469534 0.364407 0.411569
O O7 0.322564 0.324480 0.439808
O O8 0.438776 0.850118 0.915376
O O9 0.453867 0.730256 0.828693
O O10 0.721967 0.678124 0.783673
O O11 0.691455 0.670446 0.693056
O O12 0.637410 0.541109 0.742085
O O13 0.567356 0.677125 0.762523
O O14 0.774716 0.750000 0.625000
O O15 0.891064 0.074263 0.746622
O O16 0.000000 0.000000 0.802279
#
# Coordination Sequence:
#
# PCOD9551757 Si02
#       7
#    16  16  16  16  16  16  16
#     4  12  22  33  47  71 109 144 185 220 254 304
#     4  12  20  31  45  73 113 145 176 218 262 313
#     4  12  22  33  52  75 101 148 191 215 266 318
#     4  10  20  35  49  77 108 144 176 220 276 327
#     4  11  18  30  52  78 109 139 176 227 274 328
#     4  10  22  37  54  74 111 150 185 221 275 335
#     4  11  21  36  48  74 108 144 185 225 254 317
#
# _framework density 16.260636000000002
#
# number of rings (size 3 to 8) (size 9 to 14) (size 15 to 20)
#    0.000    0.857    7.143    3.000    2.000    0.571 
#    0.000    0.000    0.000    0.857    0.000    0.000 
#    0.000    0.000    0.000    0.000    0.000    0.000 
#
# Total GULP energy -312007.346389 kJ/mol
# GULP energy per Si atom -5571.559757 kJ/mol
# Density = 1.622363 g / cm^3
# Si number density = 16.260636 Si / 1000 Ang^3
#
#
#
# Elastic Constant Matrix: (Units=GPa)
#
#
# Indices 1 2 3 4 5 6 
#
# 1 71.2804 49.1156 24.5593 0.0000 0.0000 0.0000
# 2 49.1156 71.2804 24.5593 0.0000 0.0000 0.0000
# 3 24.5593 24.5593 51.6891 0.0000 0.0000 0.0000
# 4 0.0000 0.0000 0.0000 9.0046 0.0000 0.0000
# 5 0.0000 0.0000 0.0000 0.0000 9.0046 0.0000
# 6 0.0000 0.0000 0.0000 0.0000 0.0000 19.0268
#
#
#
# Elastic Compliance Matrix: (Units=1/GPa)
#
#
# Indices 1 2 3 4 5 6 
#
# 1 0.027710 -0.017407 -0.004895 0.000000 0.000000 0.000000
# 2 -0.017407 0.027710 -0.004895 0.000000 0.000000 0.000000
# 3 -0.004895 -0.004895 0.023998 0.000000 0.000000 0.000000
# 4 0.000000 0.000000 0.000000 0.111055 0.000000 0.000000
# 5 0.000000 0.000000 0.000000 0.000000 0.111055 0.000000
# 6 0.000000 0.000000 0.000000 0.000000 0.000000 0.052557
#
#
# Mechanical properties :
#
#
# Convention : Reuss Voigt Hill
#
# Bulk Modulus (GPa) = 39.96306 43.41315 41.68811
# Shear Modulus (GPa) = 11.99557 13.80825 12.90191
#
# Velocity S-wave (km/s) = 2.71902 2.91724 2.81987
# Velocity P-wave (km/s) = 5.87259 6.17279 6.02456
#
# Compressibility (1/GPa) = 0.02502311
#
# Stress axis : x y z
#
# Youngs Moduli (GPa) = 36.08831 36.08831 41.66950
#
# Poissons Ratio (x) = 0.62818 0.20399
# Poissons Ratio (y) = 0.62818 0.20399
# Poissons Ratio (z) = 0.17667 0.17667
#
# Static dielectric constant tensor:
#      x y z
#    x 1.564140 0.000000 0.000000 
#    y 0.000000 1.564140 0.000000 
#    z 0.000000 0.000000 1.620100 
# 
# From -- ./inp_files/10967.got.cif
#   From: 2010.05.17/outbox.cif.g08.bks.cpg/sg98_6_cif.got.tgz:10967.got - 2010.06.03 20:00:51.
