data_PCOD9551715
_publ_section_title
;
Structure prediction by ZEFSAII (Michael W. Deem and Ramdas Pophale) SiO2 
 PCOD9551715
Probable space group: I 41 2 2
;
_chemical_formula_sum "Si O2"
_cell_formula_units_Z 76
_cell_length_a 14.097045
_cell_length_b 14.097045
_cell_length_c 20.581006
_cell_angle_alpha 90.000000
_cell_angle_beta 90.000000
_cell_angle_gamma 90.000000
_cell_volume 4089.994947
_symmetry_space_group_name_H-M "I 41 2 2"
_symmetry_group_IT_number 98
_symmetry_cell_setting 'tetragonal'
loop_
_space_group_symop_operation_xyz
x,y,z
-y,1/2+x,1/4+z
-x,-y,z
y,1/2-x,1/4+z
x,1/2-y,1/4-z
-x,1/2+y,1/4-z
y,x,-z
-y,-x,-z
1/2+x,1/2+y,1/2+z
1/2-y,x,3/4+z
1/2-x,1/2-y,1/2+z
1/2+y,-x,3/4+z
1/2+x,-y,3/4-z
1/2-x,y,3/4-z
1/2+y,1/2+x,1/2-z
1/2-y,1/2-x,1/2-z
loop_
_atom_site_type_symbol
_atom_site_label
_atom_site_fract_x
_atom_site_fract_y
_atom_site_fract_z
Si Si1 0.002899 0.660666 0.839295
Si Si2 0.220056 0.279945 0.250000
Si Si3 0.137404 0.001827 0.373609
Si Si4 0.660918 0.939679 0.657331
Si Si5 0.500000 0.500000 0.500000
Si Si6 0.940263 0.671323 0.486777
O O1 0.914819 0.587888 0.839718
O O2 0.986080 0.735127 0.898063
O O3 0.997994 0.730629 0.777665
O O4 0.094022 0.595492 0.849535
O O5 0.164322 0.323332 0.311935
O O6 0.199996 0.168373 0.250160
O O7 0.250000 0.008663 0.375000
O O8 0.115548 0.016409 0.296892
O O9 0.621874 0.938507 0.583801
O O10 0.592190 0.995936 0.704686
#
# Coordination Sequence:
#
# PCOD9551715 Si02
#       6
#    16   8  16  16   4  16
#     4   9  22  37  53  92 114 150 196 239 289 353
#     4  11  16  33  60  89 113 144 188 246 303 340
#     4  11  21  37  60  81 124 156 189 243 293 350
#     4   9  21  35  56  85 115 147 191 242 288 353
#     4  10  20  40  60  80 114 148 194 252 294 332
#     4  10  19  34  58  82 118 145 191 236 291 347
#
# _framework density 18.58193
#
# number of rings (size 3 to 8) (size 9 to 14) (size 15 to 20)
#    1.263    0.842    2.105    1.895    0.000    2.526 
#    0.000    4.211    0.000    0.000    0.000    0.000 
#    0.000    0.000    0.000    0.000    0.000    0.000 
#
# Total GULP energy -211645.562248 kJ/mol
# GULP energy per Si atom -5569.620059 kJ/mol
# Density = 1.853964 g / cm^3
# Si number density = 18.581930 Si / 1000 Ang^3
#
#
#
# Elastic Constant Matrix: (Units=GPa)
#
#
# Indices 1 2 3 4 5 6 
#
# 1 58.7756 17.8555 -3.4734 0.0000 0.0000 0.0000
# 2 17.8555 58.7749 -3.4733 0.0000 0.0000 0.0000
# 3 -3.4734 -3.4733 66.6090 0.0000 0.0000 0.0000
# 4 0.0000 0.0000 0.0000 21.3846 0.0000 0.0000
# 5 0.0000 0.0000 0.0000 0.0000 21.3844 0.0000
# 6 0.0000 0.0000 0.0000 0.0000 0.0000 27.3277
#
#
#
# Elastic Compliance Matrix: (Units=1/GPa)
#
#
# Indices 1 2 3 4 5 6 
#
# 1 0.018775 -0.005663 0.000684 0.000000 0.000000 0.000000
# 2 -0.005663 0.018775 0.000684 0.000000 0.000000 0.000000
# 3 0.000684 0.000684 0.015084 0.000000 0.000000 0.000000
# 4 0.000000 0.000000 0.000000 0.046763 0.000000 0.000000
# 5 0.000000 0.000000 0.000000 0.000000 0.046763 0.000000
# 6 0.000000 0.000000 0.000000 0.000000 0.000000 0.036593
#
#
# Mechanical properties :
#
#
# Convention : Reuss Voigt Hill
#
# Bulk Modulus (GPa) = 22.70544 22.88633 22.79589
# Shear Modulus (GPa) = 24.26892 25.56940 24.91916
#
# Velocity S-wave (km/s) = 3.61785 3.71352 3.66600
# Velocity P-wave (km/s) = 5.44953 5.54348 5.49671
#
# Compressibility (1/GPa) = 0.04404230
#
# Stress axis : x y z
#
# Youngs Moduli (GPa) = 53.26312 53.26251 66.29409
#
# Poissons Ratio (x) = 0.30164 -0.04533
# Poissons Ratio (y) = 0.30164 -0.04532
# Poissons Ratio (z) = -0.03642 -0.03642
#
# Static dielectric constant tensor:
#      x y z
#    x 1.624050 0.000000 0.000000 
#    y 0.000000 1.624050 0.000000 
#    z 0.000000 0.000000 1.706620 
# 
# From -- ./inp_files/9966.got.cif
#   From: 2010.05.17/outbox.cif.g08.bks.cpg/sg98_5_cif.got.tgz:9966.got - 2010.06.03 20:00:51.
