data_PCOD9551630
_publ_section_title
;
Structure prediction by ZEFSAII (Michael W. Deem and Ramdas Pophale) SiO2 
 PCOD9551630
Probable space group: I 41 2 2
;
_chemical_formula_sum "Si O2"
_cell_formula_units_Z 112
_cell_length_a 20.458855
_cell_length_b 20.458855
_cell_length_c 18.476259
_cell_angle_alpha 90.000000
_cell_angle_beta 90.000000
_cell_angle_gamma 90.000000
_cell_volume 7733.510691
_symmetry_space_group_name_H-M "I 41 2 2"
_symmetry_group_IT_number 98
_symmetry_cell_setting 'tetragonal'
loop_
_space_group_symop_operation_xyz
x,y,z
-y,1/2+x,1/4+z
-x,-y,z
y,1/2-x,1/4+z
x,1/2-y,1/4-z
-x,1/2+y,1/4-z
y,x,-z
-y,-x,-z
1/2+x,1/2+y,1/2+z
1/2-y,x,3/4+z
1/2-x,1/2-y,1/2+z
1/2+y,-x,3/4+z
1/2+x,-y,3/4-z
1/2-x,y,3/4-z
1/2+y,1/2+x,1/2-z
1/2-y,1/2-x,1/2-z
loop_
_atom_site_type_symbol
_atom_site_label
_atom_site_fract_x
_atom_site_fract_y
_atom_site_fract_z
Si Si1 0.961776 0.603808 0.185411
Si Si2 0.840888 0.159113 0.000000
Si Si3 0.250000 0.240493 0.375000
Si Si4 0.758824 0.542444 0.229149
Si Si5 0.844544 0.942827 0.158550
Si Si6 0.102499 0.585116 0.115498
Si Si7 0.822905 0.827550 0.755187
Si Si8 0.086703 0.718899 0.047558
O O1 0.946478 0.553523 0.250000
O O2 0.962093 0.674969 0.222471
O O3 0.900681 0.598675 0.132201
O O4 0.027843 0.586035 0.143936
O O5 0.892145 0.143225 0.936019
O O6 0.767797 0.144090 0.975624
O O7 0.206610 0.286461 0.427313
O O8 0.207685 0.197298 0.319424
O O9 0.783931 0.552549 0.147205
O O10 0.713359 0.602407 0.252979
O O11 0.723265 0.474029 0.243509
O O12 0.830792 0.900444 0.229695
O O13 0.873574 0.015916 0.164090
O O14 0.108089 0.645054 0.060144
O O15 0.064311 0.750000 0.125000
#
# Coordination Sequence:
#
# PCOD9551630 Si02
#       8
#    16   8   8  16  16  16  16  16
#     4  10  19  27  41  66 101 142 169 191 217 274
#     4  10  16  30  45  66  94 126 164 193 238 286
#     4  10  22  34  50  66  98 122 174 208 248 286
#     4  11  19  30  43  67 100 137 167 195 230 281
#     4  11  21  30  45  66  97 130 169 204 238 284
#     4  11  19  31  43  68  95 132 165 197 235 286
#     4  11  21  34  47  71  93 135 168 210 244 285
#     4  10  19  29  47  65  97 132 165 196 232 289
#
# _framework density 14.482426999999999
#
# number of rings (size 3 to 8) (size 9 to 14) (size 15 to 20)
#    0.000    1.429    5.714    3.000    5.000    1.714 
#    0.000    0.000    0.000    0.000    5.571    0.000 
#    0.000    0.000    1.429    0.000    0.000    0.000 
#
# Total GULP energy -312379.432065 kJ/mol
# GULP energy per Si atom -5578.204144 kJ/mol
# Density = 1.444946 g / cm^3
# Si number density = 14.482427 Si / 1000 Ang^3
#
#
#
# Elastic Constant Matrix: (Units=GPa)
#
#
# Indices 1 2 3 4 5 6 
#
# 1 68.2112 53.5963 32.9421 0.0000 0.0000 0.0000
# 2 53.5963 68.2116 32.9423 0.0000 0.0000 0.0000
# 3 32.9421 32.9423 50.8549 0.0000 0.0000 0.0000
# 4 0.0000 0.0000 0.0000 16.5645 0.0000 0.0000
# 5 0.0000 0.0000 0.0000 0.0000 16.5642 0.0000
# 6 0.0000 0.0000 0.0000 0.0000 0.0000 18.6467
#
#
#
# Elastic Compliance Matrix: (Units=1/GPa)
#
#
# Indices 1 2 3 4 5 6 
#
# 1 0.040530 -0.027892 -0.008186 0.000000 0.000000 0.000000
# 2 -0.027892 0.040530 -0.008186 0.000000 0.000000 0.000000
# 3 -0.008186 -0.008186 0.030269 0.000000 0.000000 0.000000
# 4 0.000000 0.000000 0.000000 0.060370 0.000000 0.000000
# 5 0.000000 0.000000 0.000000 0.000000 0.060371 0.000000
# 6 0.000000 0.000000 0.000000 0.000000 0.000000 0.053629
#
#
# Mechanical properties :
#
#
# Convention : Reuss Voigt Hill
#
# Bulk Modulus (GPa) = 43.86048 47.35989 45.61018
# Shear Modulus (GPa) = 13.09490 14.87488 13.98489
#
# Velocity S-wave (km/s) = 3.01024 3.20831 3.11085
# Velocity P-wave (km/s) = 6.51407 6.81887 6.66821
#
# Compressibility (1/GPa) = 0.02279957
#
# Stress axis : x y z
#
# Youngs Moduli (GPa) = 24.67314 24.67323 33.03687
#
# Poissons Ratio (x) = 0.68819 0.27044
# Poissons Ratio (y) = 0.68819 0.27045
# Poissons Ratio (z) = 0.20198 0.20198
#
# Static dielectric constant tensor:
#      x y z
#    x 1.496230 0.000000 0.000000 
#    y 0.000000 1.496230 0.000000 
#    z 0.000000 0.000000 1.490890 
# 
# From -- ./inp_files/7908.got.cif
#   From: 2010.05.17/outbox.cif.g08.bks.cpg/sg98_4_cif.got.tgz:7908.got - 2010.06.03 20:00:51.
