data_PCOD9551033
_publ_section_title
;
Structure prediction by ZEFSAII (Michael W. Deem and Ramdas Pophale) SiO2 
 PCOD9551033
Probable space group: P 43 21 2
;
_chemical_formula_sum "Si O2"
_cell_formula_units_Z 40
_cell_length_a 17.284862
_cell_length_b 17.284862
_cell_length_c 5.662107
_cell_angle_alpha 90.000000
_cell_angle_beta 90.000000
_cell_angle_gamma 90.000000
_cell_volume 1691.647633
_symmetry_space_group_name_H-M "P 43 21 2"
_symmetry_group_IT_number 96
_symmetry_cell_setting 'tetragonal'
loop_
_space_group_symop_operation_xyz
x,y,z
1/2-y,1/2+x,3/4+z
-x,-y,1/2+z
1/2+y,1/2-x,1/4+z
1/2+x,1/2-y,1/4-z
1/2-x,1/2+y,3/4-z
y,x,-z
-y,-x,1/2-z
loop_
_atom_site_type_symbol
_atom_site_label
_atom_site_fract_x
_atom_site_fract_y
_atom_site_fract_z
Si Si1 0.243672 0.568933 0.467830
Si Si2 0.964932 0.035069 0.250000
Si Si3 0.174011 0.920456 0.448107
Si Si4 0.166495 0.166495 0.000000
Si Si5 0.684500 0.820079 0.172650
Si Si6 0.399149 0.054925 0.939914
O O1 0.265218 0.489048 0.349453
O O2 0.325134 0.593023 0.586505
O O3 0.215888 0.645553 0.325208
O O4 0.175687 0.550496 0.647399
O O5 0.961285 0.124612 0.342041
O O6 0.991086 0.991086 0.500000
O O7 0.112723 0.887278 0.250000
O O8 0.233817 0.847683 0.467602
O O9 0.167221 0.243507 0.154723
O O10 0.619078 0.881956 0.241146
O O11 0.416801 0.972302 0.833955
#
# Coordination Sequence:
#
# PCOD9551033 Si02
#       6
#     8   4   8   4   8   8
#     4  11  25  45  72 111 149 204 260 329 408 500
#     4  12  29  58  80 118 158 221 284 348 430 506
#     4  12  27  47  80 113 164 213 281 346 427 505
#     4  10  23  44  72 104 150 187 256 316 406 468
#     4  11  24  47  73 112 147 206 261 332 408 495
#     4  11  26  42  71 107 154 197 255 323 411 493
#
# _framework density 23.645586999999999
#
# number of rings (size 3 to 8) (size 9 to 14) (size 15 to 20)
#    0.000    0.800    1.000    4.800    5.600   11.200 
#    1.800    0.000    0.000    0.000    0.000    0.000 
#    0.000    0.000    0.000    0.000    0.000    0.000 
#
# Total GULP energy -222902.026023 kJ/mol
# GULP energy per Si atom -5572.550651 kJ/mol
# Density = 2.359177 g / cm^3
# Si number density = 23.645587 Si / 1000 Ang^3
#
#
#
# Elastic Constant Matrix: (Units=GPa)
#
#
# Indices 1 2 3 4 5 6 
#
# 1 59.1904 33.1447 21.1526 0.0000 0.0000 0.0000
# 2 33.1447 59.1883 21.1543 0.0000 0.0000 0.0000
# 3 21.1526 21.1543 67.4616 0.0000 0.0000 0.0000
# 4 0.0000 0.0000 0.0000 41.5521 0.0000 0.0000
# 5 0.0000 0.0000 0.0000 0.0000 41.5519 0.0000
# 6 0.0000 0.0000 0.0000 0.0000 0.0000 179.2177
#
#
#
# Elastic Compliance Matrix: (Units=1/GPa)
#
#
# Indices 1 2 3 4 5 6 
#
# 1 0.025521 -0.012874 -0.003965 0.000000 0.000000 0.000000
# 2 -0.012874 0.025522 -0.003966 0.000000 0.000000 0.000000
# 3 -0.003965 -0.003966 0.017310 0.000000 0.000000 0.000000
# 4 0.000000 0.000000 0.000000 0.024066 0.000000 0.000000
# 5 0.000000 0.000000 0.000000 0.000000 0.024066 0.000000
# 6 0.000000 0.000000 0.000000 0.000000 0.000000 0.005580
#
#
# Mechanical properties :
#
#
# Convention : Reuss Voigt Hill
#
# Bulk Modulus (GPa) = 37.39438 37.41593 37.40516
# Shear Modulus (GPa) = 28.97030 59.82358 44.39694
#
# Velocity S-wave (km/s) = 3.50407 5.03538 4.33783
# Velocity P-wave (km/s) = 5.67628 7.04732 6.39863
#
# Compressibility (1/GPa) = 0.02674198
#
# Stress axis : x y z
#
# Youngs Moduli (GPa) = 39.18393 39.18157 57.76925
#
# Poissons Ratio (x) = 0.50443 0.22905
# Poissons Ratio (y) = 0.50446 0.22914
# Poissons Ratio (z) = 0.15536 0.15541
#
# Static dielectric constant tensor:
#      x y z
#    x 1.872790 0.000000 0.000000 
#    y 0.000000 1.872790 0.000000 
#    z 0.000000 0.000000 2.059800 
# 
# From -- ./inp_files/439.got.cif
#   From: 2010.05.17/outbox.cif.g08.bks.cpg/sg96_1_cif.got.tgz:439.got - 2010.06.03 19:52:08.
