data_PCOD9551448
_publ_section_title
;
Structure prediction by ZEFSAII (Michael W. Deem and Ramdas Pophale) SiO2 
 PCOD9551448
Probable space group: I 4 2 2 
;
_chemical_formula_sum "Si O2"
_cell_formula_units_Z 116
_cell_length_a 17.690268
_cell_length_b 17.690268
_cell_length_c 18.166775
_cell_angle_alpha 90.000000
_cell_angle_beta 90.000000
_cell_angle_gamma 90.000000
_cell_volume 5685.211974
_symmetry_space_group_name_H-M "I 4 2 2 "
_symmetry_group_IT_number 97
_symmetry_cell_setting 'tetragonal'
loop_
_space_group_symop_operation_xyz
x,y,z
-y,x,z
-x,-y,z
y,-x,z
x,-y,-z
-x,y,-z
y,x,-z
-y,-x,-z
1/2+x,1/2+y,1/2+z
1/2-y,1/2+x,1/2+z
1/2-x,1/2-y,1/2+z
1/2+y,1/2-x,1/2+z
1/2+x,1/2-y,1/2-z
1/2-x,1/2+y,1/2-z
1/2+y,1/2+x,1/2-z
1/2-y,1/2-x,1/2-z
loop_
_atom_site_type_symbol
_atom_site_label
_atom_site_fract_x
_atom_site_fract_y
_atom_site_fract_z
Si Si1 0.215721 0.096021 0.812212
Si Si2 0.782785 0.279426 0.576349
Si Si3 0.000000 0.500000 0.500000
Si Si4 0.055501 0.644473 0.562305
Si Si5 0.998561 0.272608 0.309023
Si Si6 0.872814 0.005149 0.080349
Si Si7 0.125993 0.994231 0.412833
Si Si8 0.780199 0.832448 0.291188
O O1 0.242359 0.155272 0.874487
O O2 0.181023 0.023277 0.852797
O O3 0.161979 0.143139 0.756783
O O4 0.275536 0.058759 0.756953
O O5 0.740740 0.259261 0.500000
O O6 0.865026 0.313723 0.559869
O O7 0.790710 0.204325 0.627628
O O8 0.054449 0.555757 0.545033
O O9 0.000000 0.677267 0.500000
O O10 0.015485 0.657381 0.639406
O O11 0.011967 0.198200 0.360595
O O12 0.911343 0.263107 0.288894
O O13 0.931108 0.075569 0.083964
O O14 0.834903 0.000000 0.000000
O O15 0.076124 0.069621 0.398798
O O16 0.144335 0.000000 0.500000
O O17 0.730342 0.769659 0.250000
#
# Coordination Sequence:
#
# PCOD9551448 Si02
#       8
#    16  16   4  16  16  16  16  16
#     4  11  23  40  64  96 137 180 229 274 347 418
#     4  11  24  44  70  99 134 177 227 294 356 425
#     4   8  24  48  64  98 132 170 246 290 348 428
#     4  10  22  45  70  98 131 176 229 294 356 415
#     4  12  21  38  66  96 130 181 226 275 352 410
#     4   9  19  36  58  88 132 177 222 271 318 387
#     4   9  19  33  52  92 142 179 215 257 312 403
#     4  10  23  43  63  96 141 170 226 289 347 422
#
# _framework density 20.403813
#
# number of rings (size 3 to 8) (size 9 to 14) (size 15 to 20)
#    0.414    1.379    1.379    3.724    1.931    0.000 
#    3.724    1.379    0.000    0.000    0.000    0.000 
#    0.000    0.000    0.000    0.000    0.000    0.000 
#
# Total GULP energy -323460.731913 kJ/mol
# GULP energy per Si atom -5576.909171 kJ/mol
# Density = 2.035737 g / cm^3
# Si number density = 20.403813 Si / 1000 Ang^3
#
#
#
# Elastic Constant Matrix: (Units=GPa)
#
#
# Indices 1 2 3 4 5 6 
#
# 1 42.2248 29.5527 29.2999 0.0000 0.0000 0.0000
# 2 29.5527 42.2210 29.2996 0.0000 0.0000 0.0000
# 3 29.2999 29.2996 121.2818 0.0000 0.0000 0.0000
# 4 0.0000 0.0000 0.0000 23.7060 0.0000 0.0000
# 5 0.0000 0.0000 0.0000 0.0000 23.7043 0.0000
# 6 0.0000 0.0000 0.0000 0.0000 0.0000 10.2402
#
#
#
# Elastic Compliance Matrix: (Units=1/GPa)
#
#
# Indices 1 2 3 4 5 6 
#
# 1 0.048138 -0.030785 -0.004192 0.000000 0.000000 0.000000
# 2 -0.030785 0.048143 -0.004193 0.000000 0.000000 0.000000
# 3 -0.004192 -0.004193 0.010271 0.000000 0.000000 0.000000
# 4 0.000000 0.000000 0.000000 0.042183 0.000000 0.000000
# 5 0.000000 0.000000 0.000000 0.000000 0.042186 0.000000
# 6 0.000000 0.000000 0.000000 0.000000 0.000000 0.097654
#
#
# Mechanical properties :
#
#
# Convention : Reuss Voigt Hill
#
# Bulk Modulus (GPa) = 35.44748 42.44799 38.94773
# Shear Modulus (GPa) = 13.28654 19.36845 16.32750
#
# Velocity S-wave (km/s) = 2.55459 3.08434 2.83188
# Velocity P-wave (km/s) = 5.10998 5.79080 5.46101
#
# Compressibility (1/GPa) = 0.02821075
#
# Stress axis : x y z
#
# Youngs Moduli (GPa) = 20.77365 20.77148 97.36071
#
# Poissons Ratio (x) = 0.63945 0.40817
# Poissons Ratio (y) = 0.63952 0.40826
# Poissons Ratio (z) = 0.08709 0.08710
#
# Static dielectric constant tensor:
#      x y z
#    x 1.733730 0.000000 0.000000 
#    y 0.000000 1.733720 0.000000 
#    z 0.000000 0.000000 1.769770 
# 
# From -- ./inp_files/5907.got.cif
#   From: 2010.05.17/outbox.cif.g08.bks.cpg/sg97_3_cif.got.tgz:5907.got - 2010.06.03 19:55:32.
