data_PCOD9551166
_publ_section_title
;
Structure prediction by ZEFSAII (Michael W. Deem and Ramdas Pophale) SiO2 
 PCOD9551166
Probable space group: P 43 21 2
;
_chemical_formula_sum "Si O2"
_cell_formula_units_Z 40
_cell_length_a 14.382950
_cell_length_b 14.382950
_cell_length_c 8.062133
_cell_angle_alpha 90.000000
_cell_angle_beta 90.000000
_cell_angle_gamma 90.000000
_cell_volume 1667.807413
_symmetry_space_group_name_H-M "P 43 21 2"
_symmetry_group_IT_number 96
_symmetry_cell_setting 'tetragonal'
loop_
_space_group_symop_operation_xyz
x,y,z
1/2-y,1/2+x,3/4+z
-x,-y,1/2+z
1/2+y,1/2-x,1/4+z
1/2+x,1/2-y,1/4-z
1/2-x,1/2+y,3/4-z
y,x,-z
-y,-x,1/2-z
loop_
_atom_site_type_symbol
_atom_site_label
_atom_site_fract_x
_atom_site_fract_y
_atom_site_fract_z
Si Si1 0.396739 0.481669 0.846657
Si Si2 0.816604 0.693994 0.387474
Si Si3 0.717835 0.028543 0.563749
Si Si4 0.695064 0.365881 0.580620
Si Si5 0.592032 0.921807 0.101880
O O1 0.488156 0.511845 0.750000
O O2 0.326396 0.446910 0.704868
O O3 0.413509 0.413509 0.000000
O O4 0.356142 0.573069 0.940680
O O5 0.735121 0.735121 0.500000
O O6 0.818542 0.586368 0.342831
O O7 0.805344 0.758012 0.225151
O O8 0.918774 0.711961 0.455688
O O9 0.659491 0.058779 0.723565
O O10 0.637181 0.362820 0.750000
O O11 0.800291 0.402024 0.605009
O O12 0.520014 0.917905 0.255018
#
# Coordination Sequence:
#
# PCOD9551166 Si02
#       5
#     8   8   8   8   8
#     4  12  27  51  80 111 150 203 258 326 392 466
#     4  12  25  49  77 111 157 203 255 323 388 467
#     4  12  23  47  77 109 154 199 253 317 387 461
#     4  12  24  50  74 107 154 197 255 325 383 460
#     4  12  29  46  75 114 152 207 259 322 393 477
#
# _framework density 23.983585000000001
#
# number of rings (size 3 to 8) (size 9 to 14) (size 15 to 20)
#    0.000    0.000    8.000    1.200    2.800    3.200 
#    3.600    0.000    0.000    0.000    0.000    0.000 
#    0.000    0.000    0.000    0.000    0.000    0.000 
#
# Total GULP energy -223706.725053 kJ/mol
# GULP energy per Si atom -5592.668126 kJ/mol
# Density = 2.392900 g / cm^3
# Si number density = 23.983585 Si / 1000 Ang^3
#
#
#
# Elastic Constant Matrix: (Units=GPa)
#
#
# Indices 1 2 3 4 5 6 
#
# 1 68.8458 112.6644 45.7594 0.0000 0.0000 0.0000
# 2 112.6644 68.8391 45.7548 0.0000 0.0000 0.0000
# 3 45.7594 45.7548 87.4331 0.0000 0.0000 0.0000
# 4 0.0000 0.0000 0.0000 54.5231 0.0000 0.0000
# 5 0.0000 0.0000 0.0000 0.0000 54.5224 0.0000
# 6 0.0000 0.0000 0.0000 0.0000 0.0000 26.9250
#
#
#
# Elastic Compliance Matrix: (Units=1/GPa)
#
#
# Indices 1 2 3 4 5 6 
#
# 1 -0.007668 0.015152 -0.003916 0.000000 0.000000 0.000000
# 2 0.015152 -0.007668 -0.003917 0.000000 0.000000 0.000000
# 3 -0.003916 -0.003917 0.015537 0.000000 0.000000 0.000000
# 4 0.000000 0.000000 0.000000 0.018341 0.000000 0.000000
# 5 0.000000 0.000000 0.000000 0.000000 0.018341 0.000000
# 6 0.000000 0.000000 0.000000 0.000000 0.000000 0.037140
#
#
# Mechanical properties :
#
#
# Convention : Reuss Voigt Hill
#
# Bulk Modulus (GPa) = 67.39337 70.38612 68.88975
# Shear Modulus (GPa) = 77.72052 28.59007 53.15529
#
# Velocity S-wave (km/s) = 5.69878 3.45638 4.71289
# Velocity P-wave (km/s) = 8.45353 6.73350 7.64206
#
# Compressibility (1/GPa) = 0.01483825
#
# Stress axis : x y z
#
# Youngs Moduli (GPa) = -130.42003 -130.41453 64.36280
#
# Poissons Ratio (x) = 1.97603 0.25206
# Poissons Ratio (y) = 1.97612 0.25213
# Poissons Ratio (z) = -0.51076 -0.51087
#
# Static dielectric constant tensor:
#      x y z
#    x 1.973770 0.000000 0.000000 
#    y 0.000000 1.973770 0.000000 
#    z 0.000000 0.000000 1.969150 
# 
# From -- ./inp_files/1290.got.cif
#   From: 2010.05.17/outbox.cif.g08.bks.cpg/sg96_1_cif.got.tgz:1290.got - 2010.06.03 19:52:08.
