data_PCOD9551219
_publ_section_title
;
Structure prediction by ZEFSAII (Michael W. Deem and Ramdas Pophale) SiO2 
 PCOD9551219
Probable space group: I 4 2 2 
;
_chemical_formula_sum "Si O2"
_cell_formula_units_Z 96
_cell_length_a 27.325591
_cell_length_b 27.325591
_cell_length_c 7.765384
_cell_angle_alpha 90.000000
_cell_angle_beta 90.000000
_cell_angle_gamma 90.000000
_cell_volume 5798.318454
_symmetry_space_group_name_H-M "I 4 2 2 "
_symmetry_group_IT_number 97
_symmetry_cell_setting 'tetragonal'
loop_
_space_group_symop_operation_xyz
x,y,z
-y,x,z
-x,-y,z
y,-x,z
x,-y,-z
-x,y,-z
y,x,-z
-y,-x,-z
1/2+x,1/2+y,1/2+z
1/2-y,1/2+x,1/2+z
1/2-x,1/2-y,1/2+z
1/2+y,1/2-x,1/2+z
1/2+x,1/2-y,1/2-z
1/2-x,1/2+y,1/2-z
1/2+y,1/2+x,1/2-z
1/2-y,1/2-x,1/2-z
loop_
_atom_site_type_symbol
_atom_site_label
_atom_site_fract_x
_atom_site_fract_y
_atom_site_fract_z
Si Si1 0.370471 0.798034 0.292535
Si Si2 0.532060 0.253599 0.337006
Si Si3 0.190706 0.960662 0.619970
Si Si4 0.772481 0.147208 0.522822
Si Si5 0.336550 0.587383 0.459837
Si Si6 0.242083 0.826827 0.899359
O O1 0.351764 0.851764 0.250000
O O2 0.427420 0.786051 0.294100
O O3 0.348751 0.761278 0.146202
O O4 0.349289 0.783225 0.478473
O O5 0.500000 0.238793 0.500000
O O6 0.493934 0.264690 0.188157
O O7 0.559837 0.304663 0.392892
O O8 0.211325 0.909772 0.543320
O O9 0.161380 0.946354 0.791794
O O10 0.163324 0.000000 0.500000
O O11 0.821422 0.178579 0.500000
O O12 0.747542 0.170967 0.694519
O O13 0.388599 0.611402 0.500000
O O14 0.301888 0.633154 0.409270
O O15 0.220877 0.779124 0.000000
#
# Coordination Sequence:
#
# PCOD9551219 Si02
#       6
#    16  16  16  16  16  16
#     4  11  22  34  52  74 103 143 183 220 260 318
#     4   9  18  35  51  70 102 138 175 218 271 308
#     4  10  18  28  49  71  95 133 174 220 260 299
#     4  11  21  34  52  72 105 143 179 221 258 310
#     4   8  16  28  48  68  93 128 166 214 263 312
#     4   9  17  32  45  64  96 136 174 210 250 297
#
# _framework density 16.556524
#
# number of rings (size 3 to 8) (size 9 to 14) (size 15 to 20)
#    0.000    2.333    3.333    1.000    2.333    1.333 
#    0.000    0.000    0.000    0.000    0.000    0.000 
#    0.000   75.333    0.000    9.000    0.000    0.000 
#
# Total GULP energy -267285.477736 kJ/mol
# GULP energy per Si atom -5568.447453 kJ/mol
# Density = 1.651884 g / cm^3
# Si number density = 16.556524 Si / 1000 Ang^3
#
#
#
# Elastic Constant Matrix: (Units=GPa)
#
#
# Indices 1 2 3 4 5 6 
#
# 1 67.8017 43.0635 23.8353 0.0000 0.0000 0.0000
# 2 43.0635 67.8020 23.8355 0.0000 0.0000 0.0000
# 3 23.8353 23.8355 92.4136 0.0000 0.0000 0.0000
# 4 0.0000 0.0000 0.0000 18.7686 0.0000 0.0000
# 5 0.0000 0.0000 0.0000 0.0000 18.7684 0.0000
# 6 0.0000 0.0000 0.0000 0.0000 0.0000 22.6977
#
#
#
# Elastic Compliance Matrix: (Units=1/GPa)
#
#
# Indices 1 2 3 4 5 6 
#
# 1 0.025284 -0.015139 -0.002617 0.000000 0.000000 0.000000
# 2 -0.015139 0.025284 -0.002617 0.000000 0.000000 0.000000
# 3 -0.002617 -0.002617 0.012171 0.000000 0.000000 0.000000
# 4 0.000000 0.000000 0.000000 0.053280 0.000000 0.000000
# 5 0.000000 0.000000 0.000000 0.000000 0.053281 0.000000
# 6 0.000000 0.000000 0.000000 0.000000 0.000000 0.044057
#
#
# Mechanical properties :
#
#
# Convention : Reuss Voigt Hill
#
# Bulk Modulus (GPa) = 45.46629 45.49844 45.48236
# Shear Modulus (GPa) = 19.12532 21.19915 20.16224
#
# Velocity S-wave (km/s) = 3.40244 3.58216 3.49346
# Velocity P-wave (km/s) = 6.55411 6.68203 6.61838
#
# Compressibility (1/GPa) = 0.02199432
#
# Stress axis : x y z
#
# Youngs Moduli (GPa) = 39.55047 39.55061 82.16465
#
# Poissons Ratio (x) = 0.59876 0.21499
# Poissons Ratio (y) = 0.59876 0.21500
# Poissons Ratio (z) = 0.10349 0.10349
#
# Static dielectric constant tensor:
#      x y z
#    x 1.572990 0.000000 0.000000 
#    y 0.000000 1.572990 0.000000 
#    z 0.000000 0.000000 1.731550 
# 
# From -- ./inp_files/2589.got.cif
#   From: 2010.05.17/outbox.cif.g08.bks.cpg/sg97_2_cif.got.tgz:2589.got - 2010.06.03 19:55:32.
