data_PCOD9551341
_publ_section_title
;
Structure prediction by ZEFSAII (Michael W. Deem and Ramdas Pophale) SiO2 
 PCOD9551341
Probable space group: I 4 2 2 
;
_chemical_formula_sum "Si O2"
_cell_formula_units_Z 72
_cell_length_a 17.759900
_cell_length_b 17.759900
_cell_length_c 10.912891
_cell_angle_alpha 90.000000
_cell_angle_beta 90.000000
_cell_angle_gamma 90.000000
_cell_volume 3442.079126
_symmetry_space_group_name_H-M "I 4 2 2 "
_symmetry_group_IT_number 97
_symmetry_cell_setting 'tetragonal'
loop_
_space_group_symop_operation_xyz
x,y,z
-y,x,z
-x,-y,z
y,-x,z
x,-y,-z
-x,y,-z
y,x,-z
-y,-x,-z
1/2+x,1/2+y,1/2+z
1/2-y,1/2+x,1/2+z
1/2-x,1/2-y,1/2+z
1/2+y,1/2-x,1/2+z
1/2+x,1/2-y,1/2-z
1/2-x,1/2+y,1/2-z
1/2+y,1/2+x,1/2-z
1/2-y,1/2-x,1/2-z
loop_
_atom_site_type_symbol
_atom_site_label
_atom_site_fract_x
_atom_site_fract_y
_atom_site_fract_z
Si Si1 0.353422 0.089433 0.629433
Si Si2 0.000000 0.638529 0.000000
Si Si3 0.773597 0.465636 0.264856
Si Si4 0.488946 0.378367 0.647081
Si Si5 0.710872 0.411012 0.033810
O O1 0.359130 0.140871 0.750000
O O2 0.434243 0.093011 0.565991
O O3 0.284391 0.111826 0.543902
O O4 0.334408 0.006430 0.679152
O O5 0.043532 0.688612 0.102952
O O6 0.702599 0.519774 0.293721
O O7 0.735827 0.404259 0.176641
O O8 0.565846 0.421672 0.682018
O O9 0.500000 0.370995 0.500000
O O10 0.696622 0.500000 0.000000
O O11 0.640209 0.359792 0.000000
#
# Coordination Sequence:
#
# PCOD9551341 Si02
#       5
#    16   8  16  16  16
#     4   9  21  42  63  87 126 160 214 282 332 391
#     4  10  20  42  67  91 120 166 220 276 344 393
#     4  10  20  37  63  93 131 164 214 271 327 405
#     4   9  18  32  54  91 133 175 220 261 311 387
#     4  10  23  42  61  92 135 174 215 265 321 400
#
# _framework density 20.917591999999999
#
# number of rings (size 3 to 8) (size 9 to 14) (size 15 to 20)
#    0.000    2.444    1.111    0.667    6.222    1.111 
#    4.000    5.000    0.000   20.000    0.000    0.000 
#    0.000    0.000    0.000    0.000    0.000    0.000 
#
# Total GULP energy -200633.876363 kJ/mol
# GULP energy per Si atom -5573.163232 kJ/mol
# Density = 2.086998 g / cm^3
# Si number density = 20.917592 Si / 1000 Ang^3
#
#
#
# Elastic Constant Matrix: (Units=GPa)
#
#
# Indices 1 2 3 4 5 6 
#
# 1 87.4369 49.5896 39.0260 0.0000 0.0000 0.0000
# 2 49.5896 87.4339 39.0257 0.0000 0.0000 0.0000
# 3 39.0260 39.0257 112.5530 0.0000 0.0000 0.0000
# 4 0.0000 0.0000 0.0000 23.4355 0.0000 0.0000
# 5 0.0000 0.0000 0.0000 0.0000 23.4364 0.0000
# 6 0.0000 0.0000 0.0000 0.0000 0.0000 25.7604
#
#
#
# Elastic Compliance Matrix: (Units=1/GPa)
#
#
# Indices 1 2 3 4 5 6 
#
# 1 0.017758 -0.008664 -0.003153 0.000000 0.000000 0.000000
# 2 -0.008664 0.017759 -0.003153 0.000000 0.000000 0.000000
# 3 -0.003153 -0.003153 0.011071 0.000000 0.000000 0.000000
# 4 0.000000 0.000000 0.000000 0.042670 0.000000 0.000000
# 5 0.000000 0.000000 0.000000 0.000000 0.042669 0.000000
# 6 0.000000 0.000000 0.000000 0.000000 0.000000 0.038819
#
#
# Mechanical properties :
#
#
# Convention : Reuss Voigt Hill
#
# Bulk Modulus (GPa) = 60.07226 60.30072 60.18649
# Shear Modulus (GPa) = 24.24391 25.17863 24.71127
#
# Velocity S-wave (km/s) = 3.40813 3.47321 3.44083
# Velocity P-wave (km/s) = 6.65342 6.70631 6.67992
#
# Compressibility (1/GPa) = 0.01664662
#
# Stress axis : x y z
#
# Youngs Moduli (GPa) = 56.31194 56.30980 90.32320
#
# Poissons Ratio (x) = 0.48790 0.28480
# Poissons Ratio (y) = 0.48791 0.28482
# Poissons Ratio (z) = 0.17756 0.17756
#
# Static dielectric constant tensor:
#      x y z
#    x 1.742740 0.000000 0.000000 
#    y 0.000000 1.742740 0.000000 
#    z 0.000000 0.000000 1.861640 
# 
# From -- ./inp_files/3563.got.cif
#   From: 2010.05.17/outbox.cif.g08.bks.cpg/sg97_2_cif.got.tgz:3563.got - 2010.06.03 19:55:32.
