data_PCOD9551272
_publ_section_title
;
Structure prediction by ZEFSAII (Michael W. Deem and Ramdas Pophale) SiO2 
 PCOD9551272
Probable space group: I 4 2 2 
;
_chemical_formula_sum "Si O2"
_cell_formula_units_Z 64
_cell_length_a 24.990258
_cell_length_b 24.990258
_cell_length_c 5.117237
_cell_angle_alpha 90.000000
_cell_angle_beta 90.000000
_cell_angle_gamma 90.000000
_cell_volume 3195.781005
_symmetry_space_group_name_H-M "I 4 2 2 "
_symmetry_group_IT_number 97
_symmetry_cell_setting 'tetragonal'
loop_
_space_group_symop_operation_xyz
x,y,z
-y,x,z
-x,-y,z
y,-x,z
x,-y,-z
-x,y,-z
y,x,-z
-y,-x,-z
1/2+x,1/2+y,1/2+z
1/2-y,1/2+x,1/2+z
1/2-x,1/2-y,1/2+z
1/2+y,1/2-x,1/2+z
1/2+x,1/2-y,1/2-z
1/2-x,1/2+y,1/2-z
1/2+y,1/2+x,1/2-z
1/2-y,1/2-x,1/2-z
loop_
_atom_site_type_symbol
_atom_site_label
_atom_site_fract_x
_atom_site_fract_y
_atom_site_fract_z
Si Si1 0.591186 0.807081 0.145566
Si Si2 0.000000 0.355073 0.000000
Si Si3 0.440847 0.296783 0.895318
Si Si4 0.898219 0.398219 0.750000
Si Si5 0.297118 0.377433 0.613775
O O1 0.540118 0.822151 0.318445
O O2 0.569021 0.767064 0.922011
O O3 0.627128 0.766393 0.320017
O O4 0.613968 0.858103 0.991015
O O5 0.040679 0.389295 0.172941
O O6 0.399416 0.319322 0.111169
O O7 0.500000 0.309047 0.000000
O O8 0.423349 0.308941 0.602027
O O9 0.324622 0.324622 0.500000
#
# Coordination Sequence:
#
# PCOD9551272 Si02
#       5
#    16   8  16   8  16
#     4  10  23  37  66  88 135 167 233 274 347 407
#     4  12  24  44  63 100 124 180 227 286 352 412
#     4  10  19  35  61  96 133 171 215 273 333 393
#     4  12  24  42  63  98 130 178 232 294 346 432
#     4  10  21  36  61  99 135 175 222 283 330 402
#
# _framework density 20.026403999999999
#
# number of rings (size 3 to 8) (size 9 to 14) (size 15 to 20)
#    1.500    0.000    0.000    7.500    0.000    0.000 
#    0.000    8.750    0.000    0.000   91.000    0.000 
#    0.000   35.000    0.000    0.000    0.000    0.000 
#
# Total GULP energy -178234.193535 kJ/mol
# GULP energy per Si atom -5569.818548 kJ/mol
# Density = 1.998082 g / cm^3
# Si number density = 20.026404 Si / 1000 Ang^3
#
#
#
# Elastic Constant Matrix: (Units=GPa)
#
#
# Indices 1 2 3 4 5 6 
#
# 1 81.4745 66.9413 31.8643 0.0000 0.0000 0.0000
# 2 66.9413 81.4745 31.8643 0.0000 0.0000 0.0000
# 3 31.8643 31.8643 112.8005 0.0000 0.0000 0.0000
# 4 0.0000 0.0000 0.0000 32.4194 0.0000 0.0000
# 5 0.0000 0.0000 0.0000 0.0000 32.4194 0.0000
# 6 0.0000 0.0000 0.0000 0.0000 0.0000 27.5269
#
#
#
# Elastic Compliance Matrix: (Units=1/GPa)
#
#
# Indices 1 2 3 4 5 6 
#
# 1 0.038238 -0.030570 -0.002166 0.000000 0.000000 0.000000
# 2 -0.030570 0.038238 -0.002166 0.000000 0.000000 0.000000
# 3 -0.002166 -0.002166 0.010089 0.000000 0.000000 0.000000
# 4 0.000000 0.000000 0.000000 0.030846 0.000000 0.000000
# 5 0.000000 0.000000 0.000000 0.000000 0.030846 0.000000
# 6 0.000000 0.000000 0.000000 0.000000 0.000000 0.036328
#
#
# Mechanical properties :
#
#
# Convention : Reuss Voigt Hill
#
# Bulk Modulus (GPa) = 59.66394 59.67662 59.67028
# Shear Modulus (GPa) = 19.23258 28.14512 23.68885
#
# Velocity S-wave (km/s) = 3.10233 3.75293 3.44303
# Velocity P-wave (km/s) = 6.53375 6.97445 6.75770
#
# Compressibility (1/GPa) = 0.01676054
#
# Stress axis : x y z
#
# Youngs Moduli (GPa) = 26.15202 26.15202 99.11826
#
# Poissons Ratio (x) = 0.79947 0.21470
# Poissons Ratio (y) = 0.79947 0.21470
# Poissons Ratio (z) = 0.05665 0.05665
#
# Static dielectric constant tensor:
#      x y z
#    x 1.721990 0.000000 0.000000 
#    y 0.000000 1.721990 0.000000 
#    z 0.000000 0.000000 1.779670 
# 
# From -- ./inp_files/807.got.cif
#   From: 2010.05.17/outbox.cif.g08.bks.cpg/sg97_1_cif.got.tgz:807.got - 2010.06.03 19:55:32.
