data_PCOD9551026
_publ_section_title
;
Structure prediction by ZEFSAII (Michael W. Deem and Ramdas Pophale) SiO2 
 PCOD9551026
Probable space group: P 43 21 2
;
_chemical_formula_sum "Si O2"
_cell_formula_units_Z 48
_cell_length_a 12.002465
_cell_length_b 12.002465
_cell_length_c 13.418015
_cell_angle_alpha 90.000000
_cell_angle_beta 90.000000
_cell_angle_gamma 90.000000
_cell_volume 1932.988051
_symmetry_space_group_name_H-M "P 43 21 2"
_symmetry_group_IT_number 96
_symmetry_cell_setting 'tetragonal'
loop_
_space_group_symop_operation_xyz
x,y,z
1/2-y,1/2+x,3/4+z
-x,-y,1/2+z
1/2+y,1/2-x,1/4+z
1/2+x,1/2-y,1/4-z
1/2-x,1/2+y,3/4-z
y,x,-z
-y,-x,1/2-z
loop_
_atom_site_type_symbol
_atom_site_label
_atom_site_fract_x
_atom_site_fract_y
_atom_site_fract_z
Si Si1 0.766689 0.800296 0.120705
Si Si2 0.351703 0.929728 0.128373
Si Si3 0.926554 0.000490 0.108449
Si Si4 0.151190 0.102308 0.118406
Si Si5 0.461397 0.912151 0.337029
Si Si6 0.261003 0.833541 0.643805
O O1 0.795608 0.680545 0.165755
O O2 0.856082 0.895606 0.148412
O O3 0.645167 0.853633 0.140965
O O4 0.776812 0.776812 0.000000
O O5 0.423192 0.886869 0.223749
O O6 0.456399 0.980844 0.071945
O O7 0.255017 0.020406 0.138724
O O8 0.845671 0.106110 0.097442
O O9 0.959629 0.959629 0.000000
O O10 0.039581 0.044373 0.157880
O O11 0.183324 0.225226 0.154338
O O12 0.123823 0.123823 0.000000
O O13 0.568001 0.852794 0.385445
O O14 0.211825 0.788176 0.750000
#
# Coordination Sequence:
#
# PCOD9551026 Si02
#       6
#     8   8   8   8   8   8
#     4   8  18  41  62  93 132 176 232 297 367 438
#     4  11  24  41  69 101 139 190 244 310 385 458
#     4   9  19  40  67  94 132 183 235 302 376 450
#     4  10  24  40  67  99 142 183 245 306 378 464
#     4  10  24  43  69  99 140 189 247 312 378 468
#     4  10  23  43  68  98 142 190 240 311 385 453
#
# _framework density 24.832018999999999
#
# number of rings (size 3 to 8) (size 9 to 14) (size 15 to 20)
#    0.000    2.333    0.000    1.000    9.333    1.333 
#    9.000    0.000    0.000    0.000    0.000    0.000 
#    0.000    0.000    0.000    0.000    0.000    0.000 
#
# Total GULP energy -267581.392562 kJ/mol
# GULP energy per Si atom -5574.612345 kJ/mol
# Density = 2.477550 g / cm^3
# Si number density = 24.832019 Si / 1000 Ang^3
#
#
#
# Elastic Constant Matrix: (Units=GPa)
#
#
# Indices 1 2 3 4 5 6 
#
# 1 44.6614 260.2539 11.4014 0.0000 0.0000 0.0000
# 2 260.2539 44.6638 11.4044 0.0000 0.0000 0.0000
# 3 11.4014 11.4044 71.5539 0.0000 0.0000 0.0000
# 4 0.0000 0.0000 0.0000 9.0987 0.0000 0.0000
# 5 0.0000 0.0000 0.0000 0.0000 9.0981 0.0000
# 6 0.0000 0.0000 0.0000 0.0000 0.0000 29.7939
#
#
#
# Elastic Compliance Matrix: (Units=1/GPa)
#
#
# Indices 1 2 3 4 5 6 
#
# 1 -0.000660 0.003979 -0.000529 0.000000 0.000000 0.000000
# 2 0.003979 -0.000660 -0.000529 0.000000 0.000000 0.000000
# 3 -0.000529 -0.000529 0.014144 0.000000 0.000000 0.000000
# 4 0.000000 0.000000 0.000000 0.109906 0.000000 0.000000
# 5 0.000000 0.000000 0.000000 0.000000 0.109913 0.000000
# 6 0.000000 0.000000 0.000000 0.000000 0.000000 0.033564
#
#
# Mechanical properties :
#
#
# Convention : Reuss Voigt Hill
#
# Bulk Modulus (GPa) = 53.57165 80.77762 67.17463
# Shear Modulus (GPa) = 18.75556 1.45278 10.10417
#
# Velocity S-wave (km/s) = 2.75125 0.76571 2.01937
# Velocity P-wave (km/s) = 5.63142 5.77772 5.70504
#
# Compressibility (1/GPa) = 0.01866659
#
# Stress axis : x y z
#
# Youngs Moduli (GPa) = -1515.97681 -1516.03006 70.70104
#
# Poissons Ratio (x) = 6.03194 0.03740
# Poissons Ratio (y) = 6.03173 0.03739
# Poissons Ratio (z) = -0.80201 -0.80175
#
# Static dielectric constant tensor:
#      x y z
#    x 2.192160 0.000000 0.000000 
#    y 0.000000 2.192160 0.000000 
#    z 0.000000 0.000000 2.169720 
# 
# From -- ./inp_files/3128.got.cif
#   From: 2010.05.17/outbox.cif.g08.bks.cpg/sg96_2_cif.got.tgz:3128.got - 2010.06.03 19:52:08.
