data_PCOD9551186
_publ_section_title
;
Structure prediction by ZEFSAII (Michael W. Deem and Ramdas Pophale) SiO2 
 PCOD9551186
Probable space group: P 43 21 2
;
_chemical_formula_sum "Si O2"
_cell_formula_units_Z 24
_cell_length_a 13.018113
_cell_length_b 13.018113
_cell_length_c 6.690726
_cell_angle_alpha 90.000000
_cell_angle_beta 90.000000
_cell_angle_gamma 90.000000
_cell_volume 1133.885806
_symmetry_space_group_name_H-M "P 43 21 2"
_symmetry_group_IT_number 96
_symmetry_cell_setting 'tetragonal'
loop_
_space_group_symop_operation_xyz
x,y,z
1/2-y,1/2+x,3/4+z
-x,-y,1/2+z
1/2+y,1/2-x,1/4+z
1/2+x,1/2-y,1/4-z
1/2-x,1/2+y,3/4-z
y,x,-z
-y,-x,1/2-z
loop_
_atom_site_type_symbol
_atom_site_label
_atom_site_fract_x
_atom_site_fract_y
_atom_site_fract_z
Si Si1 0.356737 0.969806 0.774297
Si Si2 0.998253 0.827344 0.019934
Si Si3 0.219617 0.889328 0.102190
O O1 0.436566 0.911759 0.634234
O O2 0.263114 0.008545 0.638753
O O3 0.309212 0.896551 0.945230
O O4 0.108311 0.885920 0.995456
O O5 0.015215 0.781047 0.243284
O O6 0.906918 0.906918 0.000000
O O7 0.209851 0.790150 0.250000
#
# Coordination Sequence:
#
# PCOD9551186 Si02
#       3
#     8   8   8
#     4  12  28  46  69  97 150 201 235 287 350 429
#     4   9  22  46  75 106 140 173 236 299 366 419
#     4   8  23  43  73 105 137 175 234 296 358 418
#
# _framework density 21.166153000000001
#
# number of rings (size 3 to 8) (size 9 to 14) (size 15 to 20)
#    2.000    0.000    0.000    1.000   14.000    0.000 
#   18.000    0.000    0.000    0.000    0.000    0.000 
#    0.000    0.000    0.000    0.000    0.000    0.000 
#
# Total GULP energy -133826.332321 kJ/mol
# GULP energy per Si atom -5576.097180 kJ/mol
# Density = 2.111798 g / cm^3
# Si number density = 21.166153 Si / 1000 Ang^3
#
#
#
# Elastic Constant Matrix: (Units=GPa)
#
#
# Indices 1 2 3 4 5 6 
#
# 1 74.6833 55.3126 51.3072 0.0000 0.0000 0.0000
# 2 55.3126 74.6827 51.3067 0.0000 0.0000 0.0000
# 3 51.3072 51.3067 115.5257 0.0000 0.0000 0.0000
# 4 0.0000 0.0000 0.0000 47.2129 0.0000 0.0000
# 5 0.0000 0.0000 0.0000 0.0000 47.2129 0.0000
# 6 0.0000 0.0000 0.0000 0.0000 0.0000 10.1012
#
#
#
# Elastic Compliance Matrix: (Units=1/GPa)
#
#
# Indices 1 2 3 4 5 6 
#
# 1 0.031735 -0.019890 -0.005261 0.000000 0.000000 0.000000
# 2 -0.019890 0.031735 -0.005261 0.000000 0.000000 0.000000
# 3 -0.005261 -0.005261 0.013329 0.000000 0.000000 0.000000
# 4 0.000000 0.000000 0.000000 0.021181 0.000000 0.000000
# 5 0.000000 0.000000 0.000000 0.000000 0.021181 0.000000
# 6 0.000000 0.000000 0.000000 0.000000 0.000000 0.098998
#
#
# Mechanical properties :
#
#
# Convention : Reuss Voigt Hill
#
# Bulk Modulus (GPa) = 62.59196 64.52720 63.55958
# Shear Modulus (GPa) = 17.58665 28.03642 22.81153
#
# Velocity S-wave (km/s) = 2.88564 3.64344 3.28645
# Velocity P-wave (km/s) = 6.38267 6.94635 6.67046
#
# Compressibility (1/GPa) = 0.01597649
#
# Stress axis : x y z
#
# Youngs Moduli (GPa) = 31.51085 31.51074 75.02581
#
# Poissons Ratio (x) = 0.62675 0.39469
# Poissons Ratio (y) = 0.62675 0.39468
# Poissons Ratio (z) = 0.16577 0.16576
#
# Static dielectric constant tensor:
#      x y z
#    x 1.753500 0.000000 0.000000 
#    y 0.000000 1.753500 0.000000 
#    z 0.000000 0.000000 1.806490 
# 
# From -- ./inp_files/127.got.cif
#   From: 2010.05.17/outbox.cif.g08.bks.cpg/sg96_1_cif.got.tgz:127.got - 2010.06.03 19:52:08.
