data_PCOD9551338
_publ_section_title
;
Structure prediction by ZEFSAII (Michael W. Deem and Ramdas Pophale) SiO2 
 PCOD9551338
Probable space group: I 4 2 2 
;
_chemical_formula_sum "Si O2"
_cell_formula_units_Z 88
_cell_length_a 12.495959
_cell_length_b 12.495959
_cell_length_c 33.319288
_cell_angle_alpha 90.000000
_cell_angle_beta 90.000000
_cell_angle_gamma 90.000000
_cell_volume 5202.773213
_symmetry_space_group_name_H-M "I 4 2 2 "
_symmetry_group_IT_number 97
_symmetry_cell_setting 'tetragonal'
loop_
_space_group_symop_operation_xyz
x,y,z
-y,x,z
-x,-y,z
y,-x,z
x,-y,-z
-x,y,-z
y,x,-z
-y,-x,-z
1/2+x,1/2+y,1/2+z
1/2-y,1/2+x,1/2+z
1/2-x,1/2-y,1/2+z
1/2+y,1/2-x,1/2+z
1/2+x,1/2-y,1/2-z
1/2-x,1/2+y,1/2-z
1/2+y,1/2+x,1/2-z
1/2-y,1/2-x,1/2-z
loop_
_atom_site_type_symbol
_atom_site_label
_atom_site_fract_x
_atom_site_fract_y
_atom_site_fract_z
Si Si1 0.626375 0.626789 0.952501
Si Si2 0.500000 0.000000 0.321329
Si Si3 0.278172 0.003063 0.868815
Si Si4 0.294199 0.716949 0.583904
Si Si5 0.454731 0.332349 0.286561
Si Si6 0.126616 0.873385 0.000000
Si Si7 0.109061 0.609061 0.250000
O O1 0.499804 0.646305 0.946200
O O2 0.698841 0.698820 0.923628
O O3 0.648502 0.648502 0.000000
O O4 0.518638 0.104824 0.348512
O O5 0.409805 0.032449 0.288645
O O6 0.241152 0.113610 0.889723
O O7 0.273073 0.900710 0.898277
O O8 0.197062 0.967815 0.833436
O O9 0.324039 0.673859 0.540088
O O10 0.572732 0.373864 0.276307
O O11 0.415178 0.226786 0.265054
O O12 0.000000 0.854624 0.000000
#
# Coordination Sequence:
#
# PCOD9551338 Si02
#       7
#    16   8  16  16  16   8   8
#     4   9  20  39  60  80 108 153 207 254 300 353
#     4   9  22  42  56  89 116 150 188 237 294 354
#     4  11  23  36  57  85 122 156 193 234 304 344
#     4  12  22  36  57  86 117 157 197 250 293 361
#     4  10  20  37  61  90 116 151 195 233 280 354
#     4  11  22  36  52  77 120 158 196 243 296 352
#     4   9  20  40  64  85 118 152 190 235 288 354
#
# _framework density 16.914055999999999
#
# number of rings (size 3 to 8) (size 9 to 14) (size 15 to 20)
#    0.000    1.727    4.545    0.545    2.545    3.273 
#    0.000    0.000    0.000    4.364    0.000    0.000 
#    0.000    0.000    0.000    0.000    0.000    0.000 
#
# Total GULP energy -245156.835389 kJ/mol
# GULP energy per Si atom -5571.746259 kJ/mol
# Density = 1.687556 g / cm^3
# Si number density = 16.914056 Si / 1000 Ang^3
#
#
#
# Elastic Constant Matrix: (Units=GPa)
#
#
# Indices 1 2 3 4 5 6 
#
# 1 110.3975 77.1207 57.9116 0.0000 0.0000 0.0000
# 2 77.1207 110.3977 57.9116 0.0000 0.0000 0.0000
# 3 57.9116 57.9116 96.9277 0.0000 0.0000 0.0000
# 4 0.0000 0.0000 0.0000 15.8926 0.0000 0.0000
# 5 0.0000 0.0000 0.0000 0.0000 15.8894 0.0000
# 6 0.0000 0.0000 0.0000 0.0000 0.0000 14.6510
#
#
#
# Elastic Compliance Matrix: (Units=1/GPa)
#
#
# Indices 1 2 3 4 5 6 
#
# 1 0.019251 -0.010800 -0.005050 0.000000 0.000000 0.000000
# 2 -0.010800 0.019251 -0.005050 0.000000 0.000000 0.000000
# 3 -0.005050 -0.005050 0.016351 0.000000 0.000000 0.000000
# 4 0.000000 0.000000 0.000000 0.062923 0.000000 0.000000
# 5 0.000000 0.000000 0.000000 0.000000 0.062935 0.000000
# 6 0.000000 0.000000 0.000000 0.000000 0.000000 0.068255
#
#
# Mechanical properties :
#
#
# Convention : Reuss Voigt Hill
#
# Bulk Modulus (GPa) = 76.59399 78.17897 77.38648
# Shear Modulus (GPa) = 16.94247 17.60518 17.27383
#
# Velocity S-wave (km/s) = 3.16837 3.22974 3.19920
# Velocity P-wave (km/s) = 7.66598 7.76079 7.71353
#
# Compressibility (1/GPa) = 0.01305586
#
# Stress axis : x y z
#
# Youngs Moduli (GPa) = 51.94426 51.94449 61.15783
#
# Poissons Ratio (x) = 0.56097 0.30883
# Poissons Ratio (y) = 0.56097 0.30883
# Poissons Ratio (z) = 0.26231 0.26230
#
# Static dielectric constant tensor:
#      x y z
#    x 1.566050 0.000000 0.000000 
#    y 0.000000 1.566050 0.000000 
#    z 0.000000 0.000000 1.567270 
# 
# From -- ./inp_files/8103.got.cif
#   From: 2010.05.17/outbox.cif.g08.bks.cpg/sg97_5_cif.got.tgz:8103.got - 2010.06.03 19:55:32.
