data_PCOD9551684
_publ_section_title
;
Structure prediction by ZEFSAII (Michael W. Deem and Ramdas Pophale) SiO2 
 PCOD9551684
Probable space group: I 41 2 2
;
_chemical_formula_sum "Si O2"
_cell_formula_units_Z 60
_cell_length_a 11.011167
_cell_length_b 11.011167
_cell_length_c 23.347118
_cell_angle_alpha 90.000000
_cell_angle_beta 90.000000
_cell_angle_gamma 90.000000
_cell_volume 2830.739969
_symmetry_space_group_name_H-M "I 41 2 2"
_symmetry_group_IT_number 98
_symmetry_cell_setting 'tetragonal'
loop_
_space_group_symop_operation_xyz
x,y,z
-y,1/2+x,1/4+z
-x,-y,z
y,1/2-x,1/4+z
x,1/2-y,1/4-z
-x,1/2+y,1/4-z
y,x,-z
-y,-x,-z
1/2+x,1/2+y,1/2+z
1/2-y,x,3/4+z
1/2-x,1/2-y,1/2+z
1/2+y,-x,3/4+z
1/2+x,-y,3/4-z
1/2-x,y,3/4-z
1/2+y,1/2+x,1/2-z
1/2-y,1/2-x,1/2-z
loop_
_atom_site_type_symbol
_atom_site_label
_atom_site_fract_x
_atom_site_fract_y
_atom_site_fract_z
Si Si1 0.758980 0.137888 0.195477
Si Si2 0.000000 0.000000 0.000000
Si Si3 0.752368 0.977241 0.937028
Si Si4 0.563047 0.632733 0.235046
Si Si5 0.750000 0.449681 0.875000
O O1 0.719345 0.219345 0.250000
O O2 0.893445 0.182848 0.178372
O O3 0.648738 0.153470 0.150979
O O4 0.780686 0.003606 0.218894
O O5 0.114367 0.995729 0.958484
O O6 0.750000 0.914816 0.875000
O O7 0.691651 0.899725 0.987871
O O8 0.500000 0.500000 0.232746
O O9 0.533961 0.694227 0.174403
#
# Coordination Sequence:
#
# PCOD9551684 Si02
#       5
#    16   4  16  16   8
#     4   9  17  34  63  96 124 164 228 272 333 412
#     4  12  28  44  64 100 134 192 230 276 362 412
#     4  11  23  40  63  94 135 178 226 285 342 416
#     4   9  21  38  58  98 129 171 226 288 339 399
#     4  10  18  36  68  94 130 182 224 286 340 424
#
# _framework density 21.195872999999999
#
# number of rings (size 3 to 8) (size 9 to 14) (size 15 to 20)
#    0.000    2.133    2.667    0.000    5.600    0.000 
#    2.400    0.000    0.000    5.600    0.000    0.000 
#    0.000    0.000    0.000    0.000    0.000    0.000 
#
# Total GULP energy -167276.993330 kJ/mol
# GULP energy per Si atom -5575.899778 kJ/mol
# Density = 2.114763 g / cm^3
# Si number density = 21.195873 Si / 1000 Ang^3
#
#
#
# Elastic Constant Matrix: (Units=GPa)
#
#
# Indices 1 2 3 4 5 6 
#
# 1 57.4233 53.4729 53.3259 0.0000 0.0000 0.0000
# 2 53.4729 57.4233 53.3259 0.0000 0.0000 0.0000
# 3 53.3259 53.3259 126.9545 0.0000 0.0000 0.0000
# 4 0.0000 0.0000 0.0000 17.1690 0.0000 0.0000
# 5 0.0000 0.0000 0.0000 0.0000 17.1690 0.0000
# 6 0.0000 0.0000 0.0000 0.0000 0.0000 24.4318
#
#
#
# Elastic Compliance Matrix: (Units=1/GPa)
#
#
# Indices 1 2 3 4 5 6 
#
# 1 0.134132 -0.119003 -0.006355 0.000000 0.000000 0.000000
# 2 -0.119003 0.134132 -0.006355 0.000000 0.000000 0.000000
# 3 -0.006355 -0.006355 0.013215 0.000000 0.000000 0.000000
# 4 0.000000 0.000000 0.000000 0.058245 0.000000 0.000000
# 5 0.000000 0.000000 0.000000 0.000000 0.058245 0.000000
# 6 0.000000 0.000000 0.000000 0.000000 0.000000 0.040930
#
#
# Mechanical properties :
#
#
# Convention : Reuss Voigt Hill
#
# Bulk Modulus (GPa) = 55.38866 62.45004 58.91935
# Shear Modulus (GPa) = 7.05873 17.19905 12.12889
#
# Velocity S-wave (km/s) = 1.82687 2.85166 2.39473
# Velocity P-wave (km/s) = 5.53521 6.35373 5.95854
#
# Compressibility (1/GPa) = 0.01805424
#
# Stress axis : x y z
#
# Youngs Moduli (GPa) = 7.45533 7.45533 75.66966
#
# Poissons Ratio (x) = 0.88721 0.48086
# Poissons Ratio (y) = 0.88721 0.48086
# Poissons Ratio (z) = 0.04738 0.04738
#
# Static dielectric constant tensor:
#      x y z
#    x 1.768720 0.000000 0.000000 
#    y 0.000000 1.768720 0.000000 
#    z 0.000000 0.000000 1.764960 
# 
# From -- ./inp_files/8595.got.cif
#   From: 2010.05.17/outbox.cif.g08.bks.cpg/sg98_5_cif.got.tgz:8595.got - 2010.06.03 20:00:51.
