data_PCOD9551597
_publ_section_title
;
Structure prediction by ZEFSAII (Michael W. Deem and Ramdas Pophale) SiO2 
 PCOD9551597
Probable space group: I 4 2 2 
;
_chemical_formula_sum "Si O2"
_cell_formula_units_Z 64
_cell_length_a 11.124647
_cell_length_b 11.124647
_cell_length_c 23.648602
_cell_angle_alpha 90.000000
_cell_angle_beta 90.000000
_cell_angle_gamma 90.000000
_cell_volume 2926.698268
_symmetry_space_group_name_H-M "I 4 2 2 "
_symmetry_group_IT_number 97
_symmetry_cell_setting 'tetragonal'
loop_
_space_group_symop_operation_xyz
x,y,z
-y,x,z
-x,-y,z
y,-x,z
x,-y,-z
-x,y,-z
y,x,-z
-y,-x,-z
1/2+x,1/2+y,1/2+z
1/2-y,1/2+x,1/2+z
1/2-x,1/2-y,1/2+z
1/2+y,1/2-x,1/2+z
1/2+x,1/2-y,1/2-z
1/2-x,1/2+y,1/2-z
1/2+y,1/2+x,1/2-z
1/2-y,1/2-x,1/2-z
loop_
_atom_site_type_symbol
_atom_site_label
_atom_site_fract_x
_atom_site_fract_y
_atom_site_fract_z
Si Si1 0.545223 0.698641 0.285711
Si Si2 0.692957 0.440054 0.412347
Si Si3 0.439261 0.870498 0.943749
Si Si4 0.033915 0.200487 0.662913
O O1 0.413151 0.638027 0.285121
O O2 0.564034 0.749079 0.348407
O O3 0.552081 0.761699 0.224757
O O4 0.643644 0.575586 0.418545
O O5 0.798480 0.396404 0.452240
O O6 0.457623 0.785858 0.890332
O O7 0.500000 0.000000 0.933615
O O8 0.500000 0.818578 0.000000
O O9 0.905164 0.133405 0.660772
#
# Coordination Sequence:
#
# PCOD9551597 Si02
#       4
#    16  16  16  16
#     4   7  12  29  60  97 126 153 198 258 313 380
#     4   9  19  40  71  96 123 164 210 259 324 388
#     4  11  26  43  57  87 128 168 213 272 318 348
#     4   9  19  38  65  93 125 167 210 251 316 392
#
# _framework density 21.867646000000001
#
# number of rings (size 3 to 8) (size 9 to 14) (size 15 to 20)
#    0.000    3.000    0.000    3.000    3.500    2.000 
#    4.500    3.750    0.000    6.000    0.000    0.000 
#    0.000    0.000    0.000    0.000    0.000    0.000 
#
# Total GULP energy -178563.697692 kJ/mol
# GULP energy per Si atom -5580.115553 kJ/mol
# Density = 2.181787 g / cm^3
# Si number density = 21.867646 Si / 1000 Ang^3
#
#
#
# Elastic Constant Matrix: (Units=GPa)
#
#
# Indices 1 2 3 4 5 6 
#
# 1 74.0711 11.8929 49.0364 0.0000 0.0000 0.0000
# 2 11.8929 74.0711 49.0364 0.0000 0.0000 0.0000
# 3 49.0364 49.0364 135.1281 0.0000 0.0000 0.0000
# 4 0.0000 0.0000 0.0000 38.1255 0.0000 0.0000
# 5 0.0000 0.0000 0.0000 0.0000 38.1255 0.0000
# 6 0.0000 0.0000 0.0000 0.0000 0.0000 0.1942
#
#
#
# Elastic Compliance Matrix: (Units=1/GPa)
#
#
# Indices 1 2 3 4 5 6 
#
# 1 0.017967 0.001884 -0.007204 0.000000 0.000000 0.000000
# 2 0.001884 0.017967 -0.007204 0.000000 0.000000 0.000000
# 3 -0.007204 -0.007204 0.012629 0.000000 0.000000 0.000000
# 4 0.000000 0.000000 0.000000 0.026229 0.000000 0.000000
# 5 0.000000 0.000000 0.000000 0.000000 0.026229 0.000000
# 6 0.000000 0.000000 0.000000 0.000000 0.000000 5.148860
#
#
# Mechanical properties :
#
#
# Convention : Reuss Voigt Hill
#
# Bulk Modulus (GPa) = 42.52404 55.91132 49.21768
# Shear Modulus (GPa) = 0.94647 26.84268 13.89458
#
# Velocity S-wave (km/s) = 0.65860 3.50738 2.52344
# Velocity P-wave (km/s) = 4.47958 6.48273 5.57192
#
# Compressibility (1/GPa) = 0.02351611
#
# Stress axis : x y z
#
# Youngs Moduli (GPa) = 55.65740 55.65740 79.18439
#
# Poissons Ratio (x) = -0.10487 0.57043
# Poissons Ratio (y) = -0.10487 0.57043
# Poissons Ratio (z) = 0.40095 0.40095
#
# Static dielectric constant tensor:
#      x y z
#    x 1.789170 0.000000 0.000000 
#    y 0.000000 1.789170 0.000000 
#    z 0.000000 0.000000 1.897430 
# 
# From -- ./inp_files/7035.got.cif
#   From: 2010.05.17/outbox.cif.g08.bks.cpg/sg97_4_cif.got.tgz:7035.got - 2010.06.03 19:55:32.
