data_PCOD9551829
_publ_section_title
;
Structure prediction by ZEFSAII (Michael W. Deem and Ramdas Pophale) SiO2 
 PCOD9551829
Probable space group: I 41 2 2
;
_chemical_formula_sum "Si O2"
_cell_formula_units_Z 72
_cell_length_a 12.570393
_cell_length_b 12.570393
_cell_length_c 17.924237
_cell_angle_alpha 90.000000
_cell_angle_beta 90.000000
_cell_angle_gamma 90.000000
_cell_volume 2832.294369
_symmetry_space_group_name_H-M "I 41 2 2"
_symmetry_group_IT_number 98
_symmetry_cell_setting 'tetragonal'
loop_
_space_group_symop_operation_xyz
x,y,z
-y,1/2+x,1/4+z
-x,-y,z
y,1/2-x,1/4+z
x,1/2-y,1/4-z
-x,1/2+y,1/4-z
y,x,-z
-y,-x,-z
1/2+x,1/2+y,1/2+z
1/2-y,x,3/4+z
1/2-x,1/2-y,1/2+z
1/2+y,-x,3/4+z
1/2+x,-y,3/4-z
1/2-x,y,3/4-z
1/2+y,1/2+x,1/2-z
1/2-y,1/2-x,1/2-z
loop_
_atom_site_type_symbol
_atom_site_label
_atom_site_fract_x
_atom_site_fract_y
_atom_site_fract_z
Si Si1 0.680970 0.989392 0.776356
Si Si2 0.855115 0.594789 0.827982
Si Si3 0.364970 0.864970 0.250000
Si Si4 0.743742 0.464978 0.126114
Si Si5 0.598263 0.558033 0.321723
O O1 0.585894 0.914107 0.750000
O O2 0.635880 0.017607 0.858408
O O3 0.789050 0.922091 0.784784
O O4 0.720218 0.066830 0.709707
O O5 0.750000 0.607618 0.875000
O O6 0.843948 0.656053 0.750000
O O7 0.862193 0.473581 0.798326
O O8 0.861633 0.540476 0.629359
O O9 0.375081 0.774027 0.313098
O O10 0.833828 0.547349 0.099822
O O11 0.500000 0.500000 0.281303
#
# Coordination Sequence:
#
# PCOD9551829 Si02
#       5
#    16  16   8  16  16
#     4   9  21  37  62  96 130 171 229 288 343 407
#     4  10  22  36  63  92 134 180 226 280 338 412
#     4  10  23  44  58 100 140 186 223 282 357 434
#     4  10  21  35  62  89 131 172 224 277 346 405
#     4  10  22  39  65  98 137 175 230 289 350 413
#
# _framework density 25.421087
#
# number of rings (size 3 to 8) (size 9 to 14) (size 15 to 20)
#    0.000    2.222    0.000    3.000   12.444    5.778 
#    0.000    0.000    4.889    0.000    0.000    0.000 
#    0.000    0.000    0.000    0.000    0.000    0.000 
#
# Total GULP energy -200697.629283 kJ/mol
# GULP energy per Si atom -5574.934147 kJ/mol
# Density = 2.536323 g / cm^3
# Si number density = 25.421087 Si / 1000 Ang^3
#
#
#
# Elastic Constant Matrix: (Units=GPa)
#
#
# Indices 1 2 3 4 5 6 
#
# 1 44.2138 46.7991 31.8373 0.0000 0.0000 0.0000
# 2 46.7991 44.2117 31.8377 0.0000 0.0000 0.0000
# 3 31.8373 31.8377 132.5097 0.0000 0.0000 0.0000
# 4 0.0000 0.0000 0.0000 40.9547 0.0000 0.0000
# 5 0.0000 0.0000 0.0000 0.0000 40.9533 0.0000
# 6 0.0000 0.0000 0.0000 0.0000 0.0000 22.2361
#
#
#
# Elastic Compliance Matrix: (Units=1/GPa)
#
#
# Indices 1 2 3 4 5 6 
#
# 1 -0.186713 0.199926 -0.003175 0.000000 0.000000 0.000000
# 2 0.199926 -0.186725 -0.003171 0.000000 0.000000 0.000000
# 3 -0.003175 -0.003171 0.009072 0.000000 0.000000 0.000000
# 4 0.000000 0.000000 0.000000 0.024417 0.000000 0.000000
# 5 0.000000 0.000000 0.000000 0.000000 0.024418 0.000000
# 6 0.000000 0.000000 0.000000 0.000000 0.000000 0.044972
#
#
# Mechanical properties :
#
#
# Convention : Reuss Voigt Hill
#
# Bulk Modulus (GPa) = 43.87201 49.09818 46.48510
# Shear Modulus (GPa) = -7.69089 28.19291 10.25101
#
# Velocity S-wave (km/s) = -1.74125 3.33383 2.01028
# Velocity P-wave (km/s) = 3.64046 5.84595 4.86971
#
# Compressibility (1/GPa) = 0.02279357
#
# Stress axis : x y z
#
# Youngs Moduli (GPa) = -5.35582 -5.35548 110.23504
#
# Poissons Ratio (x) = 1.07070 0.35003
# Poissons Ratio (y) = 1.07077 0.34960
# Poissons Ratio (z) = -0.01701 -0.01698
#
# Static dielectric constant tensor:
#      x y z
#    x 2.040490 0.000000 0.000000 
#    y 0.000000 2.040500 0.000000 
#    z 0.000000 0.000000 2.177770 
# 
# From -- ./inp_files/7514.got.cif
#   From: 2010.05.17/outbox.cif.g08.bks.cpg/sg98_4_cif.got.tgz:7514.got - 2010.06.03 20:00:51.
