data_PCOD9551566
_publ_section_title
;
Structure prediction by ZEFSAII (Michael W. Deem and Ramdas Pophale) SiO2 
 PCOD9551566
Probable space group: I 4 2 2 
;
_chemical_formula_sum "Si O2"
_cell_formula_units_Z 48
_cell_length_a 7.893221
_cell_length_b 7.893221
_cell_length_c 33.091338
_cell_angle_alpha 90.000000
_cell_angle_beta 90.000000
_cell_angle_gamma 90.000000
_cell_volume 2061.687572
_symmetry_space_group_name_H-M "I 4 2 2 "
_symmetry_group_IT_number 97
_symmetry_cell_setting 'tetragonal'
loop_
_space_group_symop_operation_xyz
x,y,z
-y,x,z
-x,-y,z
y,-x,z
x,-y,-z
-x,y,-z
y,x,-z
-y,-x,-z
1/2+x,1/2+y,1/2+z
1/2-y,1/2+x,1/2+z
1/2-x,1/2-y,1/2+z
1/2+y,1/2-x,1/2+z
1/2+x,1/2-y,1/2-z
1/2-x,1/2+y,1/2-z
1/2+y,1/2+x,1/2-z
1/2-y,1/2-x,1/2-z
loop_
_atom_site_type_symbol
_atom_site_label
_atom_site_fract_x
_atom_site_fract_y
_atom_site_fract_z
Si Si1 0.402497 0.231335 0.292099
Si Si2 0.755691 0.129307 0.414221
Si Si3 0.297802 0.702199 0.500000
Si Si4 0.000000 0.500000 0.859843
O O1 0.598206 0.291119 0.294392
O O2 0.357910 0.142091 0.250000
O O3 0.377470 0.099768 0.328556
O O4 0.743560 0.184175 0.460980
O O5 0.931549 0.217539 0.404808
O O6 0.586561 0.147464 0.387826
O O7 0.272870 0.500000 0.500000
#
# Coordination Sequence:
#
# PCOD9551566 Si02
#       4
#    16  16   8   8
#     4  11  24  43  69 101 142 191 239 293 361 434
#     4  11  24  41  64  94 129 172 224 287 356 428
#     4  11  24  43  66  92 126 171 224 287 364 436
#     4  12  23  42  67 100 140 180 236 300 360 430
#
# _framework density 23.281898999999999
#
# number of rings (size 3 to 8) (size 9 to 14) (size 15 to 20)
#    0.000    0.833    0.000    7.500    0.000    2.667 
#    0.000    6.667    0.000    0.000    0.000    0.000 
#    0.000    0.000    0.000    0.000    0.000    0.000 
#
# Total GULP energy -133823.722035 kJ/mol
# GULP energy per Si atom -5575.988418 kJ/mol
# Density = 2.322891 g / cm^3
# Si number density = 23.281899 Si / 1000 Ang^3
#
#
#
# Elastic Constant Matrix: (Units=GPa)
#
#
# Indices 1 2 3 4 5 6 
#
# 1 66.5864 39.4916 55.1561 0.0000 0.0000 0.0000
# 2 39.4916 66.5861 55.1552 0.0000 0.0000 0.0000
# 3 55.1561 55.1552 220.8252 0.0000 0.0000 0.0000
# 4 0.0000 0.0000 0.0000 -94.6398 0.0000 0.0000
# 5 0.0000 0.0000 0.0000 0.0000 -94.5081 0.0000
# 6 0.0000 0.0000 0.0000 0.0000 0.0000 49.5673
#
#
#
# Elastic Compliance Matrix: (Units=1/GPa)
#
#
# Indices 1 2 3 4 5 6 
#
# 1 0.024821 -0.012086 -0.003181 0.000000 0.000000 0.000000
# 2 -0.012086 0.024821 -0.003181 0.000000 0.000000 0.000000
# 3 -0.003181 -0.003181 0.006117 0.000000 0.000000 0.000000
# 4 0.000000 0.000000 0.000000 -0.010566 0.000000 0.000000
# 5 0.000000 0.000000 0.000000 0.000000 -0.010581 0.000000
# 6 0.000000 0.000000 0.000000 0.000000 0.000000 0.020175
#
#
# Mechanical properties :
#
#
# Convention : Reuss Voigt Hill
#
# Bulk Modulus (GPa) = 53.01150 72.62259 62.81705
# Shear Modulus (GPa) = 51.03561 -14.30315 18.36623
#
# Velocity S-wave (km/s) = 4.68704 -2.48129 2.81172
# Velocity P-wave (km/s) = 7.21872 4.80119 6.13031
#
# Compressibility (1/GPa) = 0.01886383
#
# Stress axis : x y z
#
# Youngs Moduli (GPa) = 40.28810 40.28819 163.46827
#
# Poissons Ratio (x) = 0.48694 0.51997
# Poissons Ratio (y) = 0.48694 0.51994
# Poissons Ratio (z) = 0.12815 0.12814
#
# Static dielectric constant tensor:
#      x y z
#    x 2.451390 0.000000 0.000000 
#    y 0.000000 2.450900 0.000000 
#    z 0.000000 0.000000 1.898840 
# 
# From -- ./inp_files/7819.got.cif
#   From: 2010.05.17/outbox.cif.g08.bks.cpg/sg97_4_cif.got.tgz:7819.got - 2010.06.03 19:55:32.
