data_PCOD9551133
_publ_section_title
;
Structure prediction by ZEFSAII (Michael W. Deem and Ramdas Pophale) SiO2 
 PCOD9551133
Probable space group: P 43 21 2
;
_chemical_formula_sum "Si O2"
_cell_formula_units_Z 40
_cell_length_a 7.672535
_cell_length_b 7.672535
_cell_length_c 26.017533
_cell_angle_alpha 90.000000
_cell_angle_beta 90.000000
_cell_angle_gamma 90.000000
_cell_volume 1531.594756
_symmetry_space_group_name_H-M "P 43 21 2"
_symmetry_group_IT_number 96
_symmetry_cell_setting 'tetragonal'
loop_
_space_group_symop_operation_xyz
x,y,z
1/2-y,1/2+x,3/4+z
-x,-y,1/2+z
1/2+y,1/2-x,1/4+z
1/2+x,1/2-y,1/4-z
1/2-x,1/2+y,3/4-z
y,x,-z
-y,-x,1/2-z
loop_
_atom_site_type_symbol
_atom_site_label
_atom_site_fract_x
_atom_site_fract_y
_atom_site_fract_z
Si Si1 0.247540 0.874422 0.443938
Si Si2 0.354105 0.548530 0.135993
Si Si3 0.874614 0.261024 0.175805
Si Si4 0.389323 0.610678 0.750000
Si Si5 0.473730 0.473730 0.500000
Si Si6 0.427654 0.081046 0.530529
O O1 0.364568 0.737610 0.412888
O O2 0.384168 0.987626 0.476855
O O3 0.089037 0.848595 0.485103
O O4 0.139725 0.963570 0.397283
O O5 0.358734 0.340533 0.127550
O O6 0.248000 0.596588 0.186787
O O7 0.686214 0.277934 0.202561
O O8 0.956697 0.452213 0.183491
O O9 0.992690 0.125409 0.208359
O O10 0.274582 0.490603 0.481517
#
# Coordination Sequence:
#
# PCOD9551133 Si02
#       6
#     8   8   8   4   4   8
#     4  12  26  50  82 110 157 210 268 328 407 474
#     4  12  27  49  75 123 151 207 277 326 405 490
#     4  11  29  46  79 121 153 209 268 328 404 481
#     4  11  25  50  74 114 163 207 256 334 398 475
#     4  11  23  54  74 114 155 207 266 320 398 475
#     4  12  26  52  80 111 164 214 261 341 405 474
#
# _framework density 26.116567
#
# number of rings (size 3 to 8) (size 9 to 14) (size 15 to 20)
#    0.000    0.400    4.000    3.600   11.200    0.000 
#    3.600    0.000    0.000    0.000    0.000    0.000 
#    0.000    0.000    0.000    0.000    0.000    0.000 
#
# Total GULP energy -223808.838080 kJ/mol
# GULP energy per Si atom -5595.220952 kJ/mol
# Density = 2.605712 g / cm^3
# Si number density = 26.116567 Si / 1000 Ang^3
#
#
#
# Elastic Constant Matrix: (Units=GPa)
#
#
# Indices 1 2 3 4 5 6 
#
# 1 112.5021 52.4861 24.1103 0.0000 0.0000 0.0000
# 2 52.4861 112.5016 24.1102 0.0000 0.0000 0.0000
# 3 24.1103 24.1102 79.1946 0.0000 0.0000 0.0000
# 4 0.0000 0.0000 0.0000 49.8289 0.0000 0.0000
# 5 0.0000 0.0000 0.0000 0.0000 49.8290 0.0000
# 6 0.0000 0.0000 0.0000 0.0000 0.0000 49.9932
#
#
#
# Elastic Compliance Matrix: (Units=1/GPa)
#
#
# Indices 1 2 3 4 5 6 
#
# 1 0.011658 -0.005005 -0.002025 0.000000 0.000000 0.000000
# 2 -0.005005 0.011658 -0.002025 0.000000 0.000000 0.000000
# 3 -0.002025 -0.002025 0.013860 0.000000 0.000000 0.000000
# 4 0.000000 0.000000 0.000000 0.020069 0.000000 0.000000
# 5 0.000000 0.000000 0.000000 0.000000 0.020069 0.000000
# 6 0.000000 0.000000 0.000000 0.000000 0.000000 0.020003
#
#
# Mechanical properties :
#
#
# Convention : Reuss Voigt Hill
#
# Bulk Modulus (GPa) = 52.45329 56.17906 54.31618
# Shear Modulus (GPa) = 41.05704 43.49632 42.27668
#
# Velocity S-wave (km/s) = 3.96923 4.08544 4.02776
# Velocity P-wave (km/s) = 6.41360 6.61907 6.51715
#
# Compressibility (1/GPa) = 0.01906458
#
# Stress axis : x y z
#
# Youngs Moduli (GPa) = 85.78066 85.78030 72.14798
#
# Poissons Ratio (x) = 0.42930 0.14613
# Poissons Ratio (y) = 0.42930 0.14613
# Poissons Ratio (z) = 0.17375 0.17374
#
# Static dielectric constant tensor:
#      x y z
#    x 2.114090 0.000000 0.000000 
#    y 0.000000 2.114090 0.000000 
#    z 0.000000 0.000000 2.097110 
# 
# From -- ./inp_files/4171.got.cif
#   From: 2010.05.17/outbox.cif.g08.bks.cpg/sg96_3_cif.got.tgz:4171.got - 2010.06.03 19:52:08.
