data_PCOD9551105
_publ_section_title
;
Structure prediction by ZEFSAII (Michael W. Deem and Ramdas Pophale) SiO2 
 PCOD9551105
Probable space group: P 43 21 2
;
_chemical_formula_sum "Si O2"
_cell_formula_units_Z 64
_cell_length_a 11.199548
_cell_length_b 11.199548
_cell_length_c 24.260697
_cell_angle_alpha 90.000000
_cell_angle_beta 90.000000
_cell_angle_gamma 90.000000
_cell_volume 3043.016202
_symmetry_space_group_name_H-M "P 43 21 2"
_symmetry_group_IT_number 96
_symmetry_cell_setting 'tetragonal'
loop_
_space_group_symop_operation_xyz
x,y,z
1/2-y,1/2+x,3/4+z
-x,-y,1/2+z
1/2+y,1/2-x,1/4+z
1/2+x,1/2-y,1/4-z
1/2-x,1/2+y,3/4-z
y,x,-z
-y,-x,1/2-z
loop_
_atom_site_type_symbol
_atom_site_label
_atom_site_fract_x
_atom_site_fract_y
_atom_site_fract_z
Si Si1 0.732000 0.954101 0.618138
Si Si2 0.733878 0.137250 0.449456
Si Si3 0.528787 0.069986 0.271720
Si Si4 0.442043 0.632904 0.073500
Si Si5 0.018909 0.126854 0.137479
Si Si6 0.275899 0.114831 0.758038
Si Si7 0.785841 0.320978 0.838994
Si Si8 0.111189 0.675632 0.217135
O O1 0.697362 0.885276 0.673862
O O2 0.637551 0.913732 0.572892
O O3 0.862756 0.908436 0.603287
O O4 0.722351 0.096305 0.627884
O O5 0.806046 0.246773 0.477371
O O6 0.675474 0.034918 0.487434
O O7 0.812444 0.077218 0.402027
O O8 0.619955 0.978648 0.242859
O O9 0.426161 0.983634 0.295023
O O10 0.477303 0.499126 0.087981
O O11 0.421902 0.716310 0.127205
O O12 0.539221 0.699909 0.035873
O O13 0.319357 0.626790 0.040286
O O14 0.058696 0.212966 0.187505
O O15 0.833499 0.349587 0.777431
O O16 0.692006 0.214754 0.827589
#
# Coordination Sequence:
#
# PCOD9551105 Si02
#       8
#     8   8   8   8   8   8   8   8
#     4  11  21  43  67  94 131 185 221 279 355 414
#     4  11  24  45  66 100 139 177 234 296 341 416
#     4  12  24  44  70 100 141 186 227 293 355 427
#     4  12  24  44  71 103 136 185 244 293 348 438
#     4  11  25  44  69  97 140 182 233 293 347 421
#     4  11  25  43  71 100 135 187 242 281 357 437
#     4  11  23  40  68 103 132 179 234 291 356 411
#     4  11  23  42  69  99 138 179 234 288 357 423
#
# _framework density 21.031763999999999
#
# number of rings (size 3 to 8) (size 9 to 14) (size 15 to 20)
#    0.000    0.750    6.250    1.125    3.500    4.500 
#    4.500    0.000    0.000    0.000    0.000    0.000 
#    0.000    0.000    0.000    0.000    0.000    0.000 
#
# Total GULP energy -357391.744554 kJ/mol
# GULP energy per Si atom -5584.246009 kJ/mol
# Density = 2.098390 g / cm^3
# Si number density = 21.031764 Si / 1000 Ang^3
#
#
#
# Elastic Constant Matrix: (Units=GPa)
#
#
# Indices 1 2 3 4 5 6 
#
# 1 58.2971 19.3982 18.7901 0.0000 0.0000 0.0000
# 2 19.3982 58.2971 18.7901 0.0000 0.0000 0.0000
# 3 18.7901 18.7901 48.8420 0.0000 0.0000 0.0000
# 4 0.0000 0.0000 0.0000 30.5163 0.0000 0.0000
# 5 0.0000 0.0000 0.0000 0.0000 30.5163 0.0000
# 6 0.0000 0.0000 0.0000 0.0000 0.0000 21.0528
#
#
#
# Elastic Compliance Matrix: (Units=1/GPa)
#
#
# Indices 1 2 3 4 5 6 
#
# 1 0.020760 -0.004947 -0.006084 0.000000 0.000000 0.000000
# 2 -0.004947 0.020760 -0.006084 0.000000 0.000000 0.000000
# 3 -0.006084 -0.006084 0.025155 0.000000 0.000000 0.000000
# 4 0.000000 0.000000 0.000000 0.032769 0.000000 0.000000
# 5 0.000000 0.000000 0.000000 0.000000 0.032769 0.000000
# 6 0.000000 0.000000 0.000000 0.000000 0.000000 0.047500
#
#
# Mechanical properties :
#
#
# Convention : Reuss Voigt Hill
#
# Bulk Modulus (GPa) = 30.81913 31.04368 30.93140
# Shear Modulus (GPa) = 22.24608 23.64761 22.94685
#
# Velocity S-wave (km/s) = 3.25582 3.35681 3.30670
# Velocity P-wave (km/s) = 5.36835 5.46046 5.41460
#
# Compressibility (1/GPa) = 0.03244738
#
# Stress axis : x y z
#
# Youngs Moduli (GPa) = 48.16843 48.16843 39.75355
#
# Poissons Ratio (x) = 0.23830 0.24184
# Poissons Ratio (y) = 0.23830 0.24184
# Poissons Ratio (z) = 0.29304 0.29304
#
# Static dielectric constant tensor:
#      x y z
#    x 1.776260 0.000000 0.000000 
#    y 0.000000 1.776260 0.000000 
#    z 0.000000 0.000000 1.759690 
# 
# From -- ./inp_files/4217.got.cif
#   From: 2010.05.17/outbox.cif.g08.bks.cpg/sg96_3_cif.got.tgz:4217.got - 2010.06.03 19:52:08.
