data_PCOD9551088
_publ_section_title
;
Structure prediction by ZEFSAII (Michael W. Deem and Ramdas Pophale) SiO2 
 PCOD9551088
Probable space group: P 43 21 2
;
_chemical_formula_sum "Si O2"
_cell_formula_units_Z 28
_cell_length_a 7.869283
_cell_length_b 7.869283
_cell_length_c 16.610403
_cell_angle_alpha 90.000000
_cell_angle_beta 90.000000
_cell_angle_gamma 90.000000
_cell_volume 1028.609420
_symmetry_space_group_name_H-M "P 43 21 2"
_symmetry_group_IT_number 96
_symmetry_cell_setting 'tetragonal'
loop_
_space_group_symop_operation_xyz
x,y,z
1/2-y,1/2+x,3/4+z
-x,-y,1/2+z
1/2+y,1/2-x,1/4+z
1/2+x,1/2-y,1/4-z
1/2-x,1/2+y,3/4-z
y,x,-z
-y,-x,1/2-z
loop_
_atom_site_type_symbol
_atom_site_label
_atom_site_fract_x
_atom_site_fract_y
_atom_site_fract_z
Si Si1 0.392368 0.848467 0.407258
Si Si2 0.275215 0.275215 0.500000
Si Si3 0.122259 0.999022 0.115272
Si Si4 0.192858 0.444658 0.922659
O O1 0.358564 0.760137 0.320817
O O2 0.192233 0.905656 0.418776
O O3 0.455983 0.784717 0.493191
O O4 0.545882 0.969101 0.380418
O O5 0.452777 0.286196 0.451295
O O6 0.258103 0.114397 0.069075
O O7 0.963760 0.123413 0.130919
#
# Coordination Sequence:
#
# PCOD9551088 Si02
#       4
#     8   4   8   8
#     4  10  26  47  83 115 162 220 268 345 414 505
#     4   8  22  50  78 110 168 212 280 320 428 498
#     4  10  27  48  78 118 156 218 273 341 421 498
#     4  12  26  49  84 117 166 209 283 347 415 508
#
# _framework density 27.221215999999998
#
# number of rings (size 3 to 8) (size 9 to 14) (size 15 to 20)
#    1.714    0.000    0.000    1.714    8.000    5.714 
#    0.000    0.000    0.000    0.000    0.000    0.000 
#    0.000    0.000    0.000    0.000    0.000    0.000 
#
# Total GULP energy -155994.246123 kJ/mol
# GULP energy per Si atom -5571.223076 kJ/mol
# Density = 2.715926 g / cm^3
# Si number density = 27.221216 Si / 1000 Ang^3
#
#
#
# Elastic Constant Matrix: (Units=GPa)
#
#
# Indices 1 2 3 4 5 6 
#
# 1 114.7402 101.5043 75.6891 0.0000 0.0000 0.0000
# 2 101.5043 114.7402 75.6891 0.0000 0.0000 0.0000
# 3 75.6891 75.6891 117.8932 0.0000 0.0000 0.0000
# 4 0.0000 0.0000 0.0000 34.7570 0.0000 0.0000
# 5 0.0000 0.0000 0.0000 0.0000 34.7570 0.0000
# 6 0.0000 0.0000 0.0000 0.0000 0.0000 24.1203
#
#
#
# Elastic Compliance Matrix: (Units=1/GPa)
#
#
# Indices 1 2 3 4 5 6 
#
# 1 0.041976 -0.033576 -0.005392 0.000000 0.000000 0.000000
# 2 -0.033576 0.041976 -0.005392 0.000000 0.000000 0.000000
# 3 -0.005392 -0.005392 0.015406 0.000000 0.000000 0.000000
# 4 0.000000 0.000000 0.000000 0.028771 0.000000 0.000000
# 5 0.000000 0.000000 0.000000 0.000000 0.028771 0.000000
# 6 0.000000 0.000000 0.000000 0.000000 0.000000 0.041459
#
#
# Mechanical properties :
#
#
# Convention : Reuss Voigt Hill
#
# Bulk Modulus (GPa) = 94.02863 94.79319 94.41091
# Shear Modulus (GPa) = 17.20421 25.02627 21.11524
#
# Velocity S-wave (km/s) = 2.51672 3.03539 2.78814
# Velocity P-wave (km/s) = 6.56221 6.86904 6.71738
#
# Compressibility (1/GPa) = 0.01063506
#
# Stress axis : x y z
#
# Youngs Moduli (GPa) = 23.82332 23.82332 64.90843
#
# Poissons Ratio (x) = 0.79990 0.35002
# Poissons Ratio (y) = 0.79990 0.35002
# Poissons Ratio (z) = 0.12847 0.12847
#
# Static dielectric constant tensor:
#      x y z
#    x 2.160470 0.000000 0.000000 
#    y 0.000000 2.160470 0.000000 
#    z 0.000000 0.000000 2.078920 
# 
# From -- ./inp_files/2933.got.cif
#   From: 2010.05.17/outbox.cif.g08.bks.cpg/sg96_2_cif.got.tgz:2933.got - 2010.06.03 19:52:08.
