data_PCOD9551928
_publ_section_title
;
Structure prediction by ZEFSAII (Michael W. Deem and Ramdas Pophale) SiO2 
 PCOD9551928
Probable space group: I 41 2 2
;
_chemical_formula_sum "Si O2"
_cell_formula_units_Z 60
_cell_length_a 17.420204
_cell_length_b 17.420204
_cell_length_c 8.955725
_cell_angle_alpha 90.000000
_cell_angle_beta 90.000000
_cell_angle_gamma 90.000000
_cell_volume 2717.735720
_symmetry_space_group_name_H-M "I 41 2 2"
_symmetry_group_IT_number 98
_symmetry_cell_setting 'tetragonal'
loop_
_space_group_symop_operation_xyz
x,y,z
-y,1/2+x,1/4+z
-x,-y,z
y,1/2-x,1/4+z
x,1/2-y,1/4-z
-x,1/2+y,1/4-z
y,x,-z
-y,-x,-z
1/2+x,1/2+y,1/2+z
1/2-y,x,3/4+z
1/2-x,1/2-y,1/2+z
1/2+y,-x,3/4+z
1/2+x,-y,3/4-z
1/2-x,y,3/4-z
1/2+y,1/2+x,1/2-z
1/2-y,1/2-x,1/2-z
loop_
_atom_site_type_symbol
_atom_site_label
_atom_site_fract_x
_atom_site_fract_y
_atom_site_fract_z
Si Si1 0.000000 0.000000 0.500000
Si Si2 0.534482 0.759885 0.965983
Si Si3 0.250000 0.659944 0.375000
Si Si4 0.856725 0.469719 0.307185
Si Si5 0.408173 0.391014 0.802560
O O1 0.936533 0.971690 0.376618
O O2 0.487822 0.800525 0.832094
O O3 0.569044 0.679859 0.909100
O O4 0.490827 0.750000 0.125000
O O5 0.600894 0.820227 0.008431
O O6 0.285028 0.714973 0.500000
O O7 0.181108 0.599225 0.405190
O O8 0.935469 0.435469 0.250000
O O9 0.872169 0.543536 0.405025
#
# Coordination Sequence:
#
# PCOD9551928 Si02
#       5
#     4  16   8  16  16
#     4  12  24  44  74 104 140 172 254 292 370 428
#     4  12  24  47  70 104 147 182 247 295 374 432
#     4  10  22  46  66 104 146 184 246 296 372 450
#     4  11  24  46  72 103 144 190 244 304 369 445
#     4  12  25  46  72 108 140 192 240 310 361 451
#
# _framework density 22.077202
#
# number of rings (size 3 to 8) (size 9 to 14) (size 15 to 20)
#    0.000    0.533    5.333    2.400    0.000    1.067 
#   12.000   10.667    0.000    0.000    0.000    0.000 
#    0.000    0.000    0.000    0.000    0.000    0.000 
#
# Total GULP energy -167122.531503 kJ/mol
# GULP energy per Si atom -5570.751050 kJ/mol
# Density = 2.202695 g / cm^3
# Si number density = 22.077202 Si / 1000 Ang^3
#
#
#
# Elastic Constant Matrix: (Units=GPa)
#
#
# Indices 1 2 3 4 5 6 
#
# 1 76.3437 62.0473 40.5195 0.0000 0.0000 0.0000
# 2 62.0473 76.3431 40.5217 0.0000 0.0000 0.0000
# 3 40.5195 40.5217 125.3514 0.0000 0.0000 0.0000
# 4 0.0000 0.0000 0.0000 35.8689 0.0000 0.0000
# 5 0.0000 0.0000 0.0000 0.0000 35.8692 0.0000
# 6 0.0000 0.0000 0.0000 0.0000 0.0000 41.9566
#
#
#
# Elastic Compliance Matrix: (Units=1/GPa)
#
#
# Indices 1 2 3 4 5 6 
#
# 1 0.039431 -0.030518 -0.002880 0.000000 0.000000 0.000000
# 2 -0.030518 0.039432 -0.002882 0.000000 0.000000 0.000000
# 3 -0.002880 -0.002882 0.009840 0.000000 0.000000 0.000000
# 4 0.000000 0.000000 0.000000 0.027879 0.000000 0.000000
# 5 0.000000 0.000000 0.000000 0.000000 0.027879 0.000000
# 6 0.000000 0.000000 0.000000 0.000000 0.000000 0.023834
#
#
# Mechanical properties :
#
#
# Convention : Reuss Voigt Hill
#
# Bulk Modulus (GPa) = 61.95131 62.69060 62.32096
# Shear Modulus (GPa) = 20.30565 31.73560 26.02063
#
# Velocity S-wave (km/s) = 3.03604 3.79553 3.43683
# Velocity P-wave (km/s) = 6.35706 6.90404 6.63619
#
# Compressibility (1/GPa) = 0.01614171
#
# Stress axis : x y z
#
# Youngs Moduli (GPa) = 25.36104 25.36020 101.62266
#
# Poissons Ratio (x) = 0.77394 0.29271
# Poissons Ratio (y) = 0.77397 0.29288
# Poissons Ratio (z) = 0.07305 0.07309
#
# Static dielectric constant tensor:
#      x y z
#    x 1.797400 0.000000 0.000000 
#    y 0.000000 1.797400 0.000000 
#    z 0.000000 0.000000 2.102360 
# 
# From -- ./inp_files/3077.got.cif
#   From: 2010.05.17/outbox.cif.g08.bks.cpg/sg98_2_cif.got.tgz:3077.got - 2010.06.03 20:00:51.
