data_PCOD9551106
_publ_section_title
;
Structure prediction by ZEFSAII (Michael W. Deem and Ramdas Pophale) SiO2 
 PCOD9551106
Probable space group: P 43 21 2
;
_chemical_formula_sum "Si O2"
_cell_formula_units_Z 44
_cell_length_a 8.083889
_cell_length_b 8.083889
_cell_length_c 25.396995
_cell_angle_alpha 90.000000
_cell_angle_beta 90.000000
_cell_angle_gamma 90.000000
_cell_volume 1659.674864
_symmetry_space_group_name_H-M "P 43 21 2"
_symmetry_group_IT_number 96
_symmetry_cell_setting 'tetragonal'
loop_
_space_group_symop_operation_xyz
x,y,z
1/2-y,1/2+x,3/4+z
-x,-y,1/2+z
1/2+y,1/2-x,1/4+z
1/2+x,1/2-y,1/4-z
1/2-x,1/2+y,3/4-z
y,x,-z
-y,-x,1/2-z
loop_
_atom_site_type_symbol
_atom_site_label
_atom_site_fract_x
_atom_site_fract_y
_atom_site_fract_z
Si Si1 0.901398 0.582663 0.178930
Si Si2 0.777754 0.282926 0.650710
Si Si3 0.954990 0.956515 0.310152
Si Si4 0.283184 0.870742 0.961392
Si Si5 0.266763 0.761068 0.685927
Si Si6 0.410895 0.589106 0.250000
O O1 0.806052 0.738500 0.154045
O O2 0.916295 0.606680 0.241449
O O3 0.794408 0.419817 0.169154
O O4 0.081243 0.579010 0.152966
O O5 0.648603 0.317676 0.697428
O O6 0.875583 0.115749 0.665120
O O7 0.816921 0.810851 0.311282
O O8 0.889432 0.128925 0.334175
O O9 0.001859 0.998142 0.250000
O O10 0.103468 0.879188 0.988527
O O11 0.292498 0.039188 0.927575
O O12 0.245543 0.754458 0.750000
#
# Coordination Sequence:
#
# PCOD9551106 Si02
#       6
#     8   8   8   8   8   4
#     4  11  22  44  61  99 134 172 227 287 343 414
#     4  12  25  42  67  98 137 177 229 285 350 419
#     4  11  22  43  68 100 131 176 235 286 343 427
#     4  11  21  43  74  96 133 180 233 284 354 420
#     4   9  21  42  68  94 130 177 222 283 348 413
#     4  12  22  42  70  98 128 188 230 276 350 438
#
# _framework density 26.511220000000002
#
# number of rings (size 3 to 8) (size 9 to 14) (size 15 to 20)
#    0.000    1.091    5.455    2.182    0.000    2.909 
#    6.545    0.000    0.000    0.000    0.000    0.000 
#    0.000    0.000    0.000    0.000    0.000    0.000 
#
# Total GULP energy -246684.819354 kJ/mol
# GULP energy per Si atom -5606.473167 kJ/mol
# Density = 2.645088 g / cm^3
# Si number density = 26.511220 Si / 1000 Ang^3
#
#
#
# Elastic Constant Matrix: (Units=GPa)
#
#
# Indices 1 2 3 4 5 6 
#
# 1 155.6871 87.2032 24.9977 0.0000 0.0000 0.0000
# 2 87.2032 155.6867 24.9978 0.0000 0.0000 0.0000
# 3 24.9977 24.9978 61.3757 0.0000 0.0000 0.0000
# 4 0.0000 0.0000 0.0000 36.2219 0.0000 0.0000
# 5 0.0000 0.0000 0.0000 0.0000 36.2216 0.0000
# 6 0.0000 0.0000 0.0000 0.0000 0.0000 53.8003
#
#
#
# Elastic Compliance Matrix: (Units=1/GPa)
#
#
# Indices 1 2 3 4 5 6 
#
# 1 0.009548 -0.005054 -0.001830 0.000000 0.000000 0.000000
# 2 -0.005054 0.009548 -0.001830 0.000000 0.000000 0.000000
# 3 -0.001830 -0.001830 0.017784 0.000000 0.000000 0.000000
# 4 0.000000 0.000000 0.000000 0.027608 0.000000 0.000000
# 5 0.000000 0.000000 0.000000 0.000000 0.027608 0.000000
# 6 0.000000 0.000000 0.000000 0.000000 0.000000 0.018587
#
#
# Mechanical properties :
#
#
# Convention : Reuss Voigt Hill
#
# Bulk Modulus (GPa) = 51.41257 71.90522 61.65890
# Shear Modulus (GPa) = 37.14837 40.95215 39.05026
#
# Velocity S-wave (km/s) = 3.74736 3.93454 3.84209
# Velocity P-wave (km/s) = 6.17726 6.91537 6.55671
#
# Compressibility (1/GPa) = 0.01945049
#
# Stress axis : x y z
#
# Youngs Moduli (GPa) = 104.73500 104.73459 56.23027
#
# Poissons Ratio (x) = 0.52934 0.10292
# Poissons Ratio (y) = 0.52934 0.10292
# Poissons Ratio (z) = 0.19169 0.19170
#
# Static dielectric constant tensor:
#      x y z
#    x 2.069840 0.000000 0.000000 
#    y 0.000000 2.069840 0.000000 
#    z 0.000000 0.000000 2.097550 
# 
# From -- ./inp_files/4422.got.cif
#   From: 2010.05.17/outbox.cif.g08.bks.cpg/sg96_3_cif.got.tgz:4422.got - 2010.06.03 19:52:08.
