data_PCOD9551613
_publ_section_title
;
Structure prediction by ZEFSAII (Michael W. Deem and Ramdas Pophale) SiO2 
 PCOD9551613
Probable space group: I 4 2 2 
;
_chemical_formula_sum "Si O2"
_cell_formula_units_Z 72
_cell_length_a 11.443311
_cell_length_b 11.443311
_cell_length_c 31.409876
_cell_angle_alpha 90.000000
_cell_angle_beta 90.000000
_cell_angle_gamma 90.000000
_cell_volume 4113.103369
_symmetry_space_group_name_H-M "I 4 2 2 "
_symmetry_group_IT_number 97
_symmetry_cell_setting 'tetragonal'
loop_
_space_group_symop_operation_xyz
x,y,z
-y,x,z
-x,-y,z
y,-x,z
x,-y,-z
-x,y,-z
y,x,-z
-y,-x,-z
1/2+x,1/2+y,1/2+z
1/2-y,1/2+x,1/2+z
1/2-x,1/2-y,1/2+z
1/2+y,1/2-x,1/2+z
1/2+x,1/2-y,1/2-z
1/2-x,1/2+y,1/2-z
1/2+y,1/2+x,1/2-z
1/2-y,1/2-x,1/2-z
loop_
_atom_site_type_symbol
_atom_site_label
_atom_site_fract_x
_atom_site_fract_y
_atom_site_fract_z
Si Si1 0.685659 0.453969 0.232515
Si Si2 0.682797 0.445762 0.335010
Si Si3 0.500000 0.697438 0.000000
Si Si4 0.122246 0.563517 0.163612
Si Si5 0.198386 0.995018 0.406109
O O1 0.636823 0.582678 0.221066
O O2 0.696577 0.447983 0.283471
O O3 0.801760 0.429762 0.206600
O O4 0.640587 0.576336 0.346264
O O5 0.806055 0.405326 0.352699
O O6 0.388524 0.611477 0.000000
O O7 0.497111 0.754633 0.046475
O O8 0.203686 0.497822 0.129696
O O9 0.000000 0.500000 0.171098
O O10 0.114576 0.109560 0.401959
#
# Coordination Sequence:
#
# PCOD9551613 Si02
#       5
#    16  16   8  16  16
#     4   9  19  37  56  71  93 132 178 225 274 307
#     4   9  21  39  53  66  96 144 183 214 256 306
#     4   7  12  28  55  82 102 130 165 197 254 324
#     4  12  24  31  48  81 107 132 170 220 259 309
#     4   9  18  34  57  81 107 135 164 208 265 315
#
# _framework density 17.505030000000001
#
# number of rings (size 3 to 8) (size 9 to 14) (size 15 to 20)
#    0.000    2.556    0.000    4.667    6.222    3.556 
#    0.000    0.556    0.000    0.000    0.000    0.000 
#    0.000    0.000    0.000    0.000    0.000    0.000 
#
# Total GULP energy -200741.283692 kJ/mol
# GULP energy per Si atom -5576.146769 kJ/mol
# Density = 1.746519 g / cm^3
# Si number density = 17.505030 Si / 1000 Ang^3
#
#
#
# Elastic Constant Matrix: (Units=GPa)
#
#
# Indices 1 2 3 4 5 6 
#
# 1 67.7769 19.3483 -1.0437 0.0000 0.0000 0.0000
# 2 19.3483 67.7768 -1.0437 0.0000 0.0000 0.0000
# 3 -1.0437 -1.0437 27.6837 0.0000 0.0000 0.0000
# 4 0.0000 0.0000 0.0000 8.4478 0.0000 0.0000
# 5 0.0000 0.0000 0.0000 0.0000 8.4479 0.0000
# 6 0.0000 0.0000 0.0000 0.0000 0.0000 9.9867
#
#
#
# Elastic Compliance Matrix: (Units=1/GPa)
#
#
# Indices 1 2 3 4 5 6 
#
# 1 0.016069 -0.004580 0.000433 0.000000 0.000000 0.000000
# 2 -0.004580 0.016069 0.000433 0.000000 0.000000 0.000000
# 3 0.000433 0.000433 0.036155 0.000000 0.000000 0.000000
# 4 0.000000 0.000000 0.000000 0.118374 0.000000 0.000000
# 5 0.000000 0.000000 0.000000 0.000000 0.118372 0.000000
# 6 0.000000 0.000000 0.000000 0.000000 0.000000 0.100134
#
#
# Mechanical properties :
#
#
# Convention : Reuss Voigt Hill
#
# Bulk Modulus (GPa) = 16.43017 21.97325 19.20171
# Shear Modulus (GPa) = 11.55033 15.10824 13.32929
#
# Velocity S-wave (km/s) = 2.57150 2.94101 2.76244
# Velocity P-wave (km/s) = 4.26886 4.91045 4.60085
#
# Compressibility (1/GPa) = 0.06086363
#
# Stress axis : x y z
#
# Youngs Moduli (GPa) = 62.23338 62.23327 27.65873
#
# Poissons Ratio (x) = 0.28506 -0.01198
# Poissons Ratio (y) = 0.28506 -0.01198
# Poissons Ratio (z) = -0.02695 -0.02695
#
# Static dielectric constant tensor:
#      x y z
#    x 1.598780 0.000000 0.000000 
#    y 0.000000 1.598780 0.000000 
#    z 0.000000 0.000000 1.627780 
# 
# From -- ./inp_files/7901.got.cif
#   From: 2010.05.17/outbox.cif.g08.bks.cpg/sg97_4_cif.got.tgz:7901.got - 2010.06.03 19:55:32.
