data_PCOD9551670
_publ_section_title
;
Structure prediction by ZEFSAII (Michael W. Deem and Ramdas Pophale) SiO2 
 PCOD9551670
Probable space group: I 41 2 2
;
_chemical_formula_sum "Si O2"
_cell_formula_units_Z 40
_cell_length_a 10.017415
_cell_length_b 10.017415
_cell_length_c 14.230186
_cell_angle_alpha 90.000000
_cell_angle_beta 90.000000
_cell_angle_gamma 90.000000
_cell_volume 1427.979290
_symmetry_space_group_name_H-M "I 41 2 2"
_symmetry_group_IT_number 98
_symmetry_cell_setting 'tetragonal'
loop_
_space_group_symop_operation_xyz
x,y,z
-y,1/2+x,1/4+z
-x,-y,z
y,1/2-x,1/4+z
x,1/2-y,1/4-z
-x,1/2+y,1/4-z
y,x,-z
-y,-x,-z
1/2+x,1/2+y,1/2+z
1/2-y,x,3/4+z
1/2-x,1/2-y,1/2+z
1/2+y,-x,3/4+z
1/2+x,-y,3/4-z
1/2-x,y,3/4-z
1/2+y,1/2+x,1/2-z
1/2-y,1/2-x,1/2-z
loop_
_atom_site_type_symbol
_atom_site_label
_atom_site_fract_x
_atom_site_fract_y
_atom_site_fract_z
Si Si1 0.250000 0.079168 0.875000
Si Si2 0.521971 0.750000 0.125000
Si Si3 0.152099 0.847902 0.000000
Si Si4 0.010800 0.226628 0.412509
O O1 0.128099 0.162893 0.835573
O O2 0.318223 0.986357 0.799635
O O3 0.605225 0.892060 0.129059
O O4 0.461166 0.765289 0.229514
O O5 0.243109 0.887081 0.093788
#
# Coordination Sequence:
#
# PCOD9551670 Si02
#       4
#     8   8   8  16
#     4  11  20  34  53  86 114 158 199 260 319 378
#     4   9  18  32  59  88 120 148 205 260 331 364
#     4  12  23  36  60  88 126 157 216 261 312 382
#     4  10  18  34  56  87 119 154 198 269 319 379
#
# _framework density 28.011607999999999
#
# number of rings (size 3 to 8) (size 9 to 14) (size 15 to 20)
#    0.000    1.600    4.000    3.600    0.000    0.000 
#    0.000    2.000    0.000    0.000    0.000    0.000 
#    0.000    0.000    0.000    0.000    0.000    0.000 
#
# Total GULP energy -111344.749861 kJ/mol
# GULP energy per Si atom -5567.237493 kJ/mol
# Density = 2.794785 g / cm^3
# Si number density = 28.011608 Si / 1000 Ang^3
#
#
#
# Elastic Constant Matrix: (Units=GPa)
#
#
# Indices 1 2 3 4 5 6 
#
# 1 92.3589 133.8432 81.0087 0.0000 0.0000 0.0000
# 2 133.8432 92.3595 81.0082 0.0000 0.0000 0.0000
# 3 81.0087 81.0082 311.0516 0.0000 0.0000 0.0000
# 4 0.0000 0.0000 0.0000 265.4302 0.0000 0.0000
# 5 0.0000 0.0000 0.0000 0.0000 265.1894 0.0000
# 6 0.0000 0.0000 0.0000 0.0000 0.0000 82.2218
#
#
#
# Elastic Compliance Matrix: (Units=1/GPa)
#
#
# Indices 1 2 3 4 5 6 
#
# 1 -0.009336 0.014770 -0.001415 0.000000 0.000000 0.000000
# 2 0.014770 -0.009336 -0.001415 0.000000 0.000000 0.000000
# 3 -0.001415 -0.001415 0.003952 0.000000 0.000000 0.000000
# 4 0.000000 0.000000 0.000000 0.003767 0.000000 0.000000
# 5 0.000000 0.000000 0.000000 0.000000 0.003771 0.000000
# 6 0.000000 0.000000 0.000000 0.000000 0.000000 0.012162
#
#
# Mechanical properties :
#
#
# Convention : Reuss Voigt Hill
#
# Bulk Modulus (GPa) = 109.17218 120.83227 115.00222
# Shear Modulus (GPa) = -315.57669 135.89561 -89.84054
#
# Velocity S-wave (km/s) = -10.62562 6.97276 -5.66941
# Velocity P-wave (km/s) = 10.55841 10.39500 1.30843
#
# Compressibility (1/GPa) = 0.00915984
#
# Stress axis : x y z
#
# Youngs Moduli (GPa) = -107.11666 -107.11790 253.02941
#
# Poissons Ratio (x) = 1.58214 0.35812
# Poissons Ratio (y) = 1.58213 0.35813
# Poissons Ratio (z) = -0.15160 -0.15161
#
# Static dielectric constant tensor:
#      x y z
#    x 2.172830 0.000000 0.000000 
#    y 0.000000 2.172840 0.000000 
#    z 0.000000 0.000000 2.162980 
# 
# From -- ./inp_files/5981.got.cif
#   From: 2010.05.17/outbox.cif.g08.bks.cpg/sg98_3_cif.got.tgz:5981.got - 2010.06.03 20:00:51.
