data_PCOD9551816
_publ_section_title
;
Structure prediction by ZEFSAII (Michael W. Deem and Ramdas Pophale) SiO2 
 PCOD9551816
Probable space group: I 41 2 2
;
_chemical_formula_sum "Si O2"
_cell_formula_units_Z 72
_cell_length_a 22.492573
_cell_length_b 22.492573
_cell_length_c 6.874587
_cell_angle_alpha 90.000000
_cell_angle_beta 90.000000
_cell_angle_gamma 90.000000
_cell_volume 3477.962458
_symmetry_space_group_name_H-M "I 41 2 2"
_symmetry_group_IT_number 98
_symmetry_cell_setting 'tetragonal'
loop_
_space_group_symop_operation_xyz
x,y,z
-y,1/2+x,1/4+z
-x,-y,z
y,1/2-x,1/4+z
x,1/2-y,1/4-z
-x,1/2+y,1/4-z
y,x,-z
-y,-x,-z
1/2+x,1/2+y,1/2+z
1/2-y,x,3/4+z
1/2-x,1/2-y,1/2+z
1/2+y,-x,3/4+z
1/2+x,-y,3/4-z
1/2-x,y,3/4-z
1/2+y,1/2+x,1/2-z
1/2-y,1/2-x,1/2-z
loop_
_atom_site_type_symbol
_atom_site_label
_atom_site_fract_x
_atom_site_fract_y
_atom_site_fract_z
Si Si1 0.312396 0.554014 0.807341
Si Si2 0.796205 0.581279 0.092152
Si Si3 0.663004 0.599363 0.216023
Si Si4 0.518267 0.403458 0.875209
Si Si5 0.595783 0.404218 0.500000
O O1 0.250000 0.579672 0.875000
O O2 0.303692 0.485565 0.736925
O O3 0.345847 0.588012 0.633391
O O4 0.351464 0.550015 0.001806
O O5 0.837865 0.629086 0.981967
O O6 0.773543 0.597789 0.644287
O O7 0.819984 0.581799 0.313245
O O8 0.617225 0.549584 0.140570
O O9 0.543233 0.408634 0.657756
O O10 0.540314 0.459687 0.000000
#
# Coordination Sequence:
#
# PCOD9551816 Si02
#       5
#    16  16  16  16   8
#     4  11  21  38  66  98 131 175 219 268 342 413
#     4  10  21  38  66  90 131 183 235 286 339 402
#     4  10  20  40  66  91 131 187 233 283 350 398
#     4  10  21  38  64  97 134 171 222 273 347 416
#     4  10  22  40  61  96 138 162 218 278 332 412
#
# _framework density 20.701775999999999
#
# number of rings (size 3 to 8) (size 9 to 14) (size 15 to 20)
#    0.000    1.778    4.444    0.000    0.000    1.778 
#    0.000    8.889   19.556    0.000    0.000    0.000 
#  120.000    0.000    0.000    0.000    0.000    0.000 
#
# Total GULP energy -201057.354825 kJ/mol
# GULP energy per Si atom -5584.926523 kJ/mol
# Density = 2.065466 g / cm^3
# Si number density = 20.701776 Si / 1000 Ang^3
#
#
#
# Elastic Constant Matrix: (Units=GPa)
#
#
# Indices 1 2 3 4 5 6 
#
# 1 92.9504 128.0480 62.7151 0.0000 0.0000 0.0000
# 2 128.0480 92.9482 62.7152 0.0000 0.0000 0.0000
# 3 62.7151 62.7152 143.1947 0.0000 0.0000 0.0000
# 4 0.0000 0.0000 0.0000 226.5938 0.0000 0.0000
# 5 0.0000 0.0000 0.0000 0.0000 226.5331 0.0000
# 6 0.0000 0.0000 0.0000 0.0000 0.0000 24.2916
#
#
#
# Elastic Compliance Matrix: (Units=1/GPa)
#
#
# Indices 1 2 3 4 5 6 
#
# 1 -0.011234 0.017256 -0.002637 0.000000 0.000000 0.000000
# 2 0.017256 -0.011235 -0.002637 0.000000 0.000000 0.000000
# 3 -0.002637 -0.002637 0.009294 0.000000 0.000000 0.000000
# 4 0.000000 0.000000 0.000000 0.004413 0.000000 0.000000
# 5 0.000000 0.000000 0.000000 0.000000 0.004414 0.000000
# 6 0.000000 0.000000 0.000000 0.000000 0.000000 0.041166
#
#
# Mechanical properties :
#
#
# Convention : Reuss Voigt Hill
#
# Bulk Modulus (GPa) = 92.69724 92.89444 92.79584
# Shear Modulus (GPa) = 303.93158 100.52471 202.22814
#
# Velocity S-wave (km/s) = 12.12984 6.97595 9.89436
# Velocity P-wave (km/s) = 15.52585 10.48119 13.24589
#
# Compressibility (1/GPa) = 0.01078781
#
# Stress axis : x y z
#
# Youngs Moduli (GPa) = -89.01219 -89.00899 107.59979
#
# Poissons Ratio (x) = 1.53598 0.28379
# Poissons Ratio (y) = 1.53603 0.28377
# Poissons Ratio (z) = -0.23477 -0.23474
#
# Static dielectric constant tensor:
#      x y z
#    x 1.684250 0.000000 0.000000 
#    y 0.000000 1.684270 0.000000 
#    z 0.000000 0.000000 1.506760 
# 
# From -- ./inp_files/1633.got.cif
#   From: 2010.05.17/outbox.cif.g08.bks.cpg/sg98_1_cif.got.tgz:1633.got - 2010.06.03 20:00:51.
