data_PCOD9551054
_publ_section_title
;
Structure prediction by ZEFSAII (Michael W. Deem and Ramdas Pophale) SiO2 
 PCOD9551054
Probable space group: P 43 21 2
;
_chemical_formula_sum "Si O2"
_cell_formula_units_Z 32
_cell_length_a 7.255935
_cell_length_b 7.255935
_cell_length_c 23.913564
_cell_angle_alpha 90.000000
_cell_angle_beta 90.000000
_cell_angle_gamma 90.000000
_cell_volume 1259.015492
_symmetry_space_group_name_H-M "P 43 21 2"
_symmetry_group_IT_number 96
_symmetry_cell_setting 'tetragonal'
loop_
_space_group_symop_operation_xyz
x,y,z
1/2-y,1/2+x,3/4+z
-x,-y,1/2+z
1/2+y,1/2-x,1/4+z
1/2+x,1/2-y,1/4-z
1/2-x,1/2+y,3/4-z
y,x,-z
-y,-x,1/2-z
loop_
_atom_site_type_symbol
_atom_site_label
_atom_site_fract_x
_atom_site_fract_y
_atom_site_fract_z
Si Si1 0.213830 0.093136 0.584207
Si Si2 0.308652 0.726694 0.937657
Si Si3 0.679720 0.576989 0.157108
Si Si4 0.972825 0.515137 0.489607
O O1 0.237642 0.232926 0.634676
O O2 0.008877 0.118670 0.561460
O O3 0.237087 0.877088 0.597742
O O4 0.372802 0.118247 0.538540
O O5 0.459327 0.636311 0.898299
O O6 0.220509 0.597376 0.986804
O O7 0.396209 0.920389 0.958251
O O8 0.818459 0.463060 0.195185
#
# Coordination Sequence:
#
# PCOD9551054 Si02
#       4
#     8   8   8   8
#     4  10  24  42  70  99 136 187 235 304 367 441
#     4  10  25  45  68 107 143 191 247 308 372 450
#     4  12  22  46  72  99 145 194 243 303 384 450
#     4  10  25  44  72 107 145 189 248 311 373 451
#
# _framework density 25.416687
#
# number of rings (size 3 to 8) (size 9 to 14) (size 15 to 20)
#    1.500    0.000    2.500    1.500    3.500    4.000 
#    0.000    2.500    0.000    0.000    0.000    0.000 
#    0.000    0.000    0.000    0.000    0.000    0.000 
#
# Total GULP energy -178700.741891 kJ/mol
# GULP energy per Si atom -5584.398184 kJ/mol
# Density = 2.535884 g / cm^3
# Si number density = 25.416687 Si / 1000 Ang^3
#
#
#
# Elastic Constant Matrix: (Units=GPa)
#
#
# Indices 1 2 3 4 5 6 
#
# 1 127.4705 0.9220 24.5623 0.0000 0.0000 0.0000
# 2 0.9220 127.4705 24.5623 0.0000 0.0000 0.0000
# 3 24.5623 24.5623 46.6478 0.0000 0.0000 0.0000
# 4 0.0000 0.0000 0.0000 19.6329 0.0000 0.0000
# 5 0.0000 0.0000 0.0000 0.0000 19.6329 0.0000
# 6 0.0000 0.0000 0.0000 0.0000 0.0000 38.6868
#
#
#
# Elastic Compliance Matrix: (Units=1/GPa)
#
#
# Indices 1 2 3 4 5 6 
#
# 1 0.008828 0.000926 -0.005136 0.000000 0.000000 0.000000
# 2 0.000926 0.008828 -0.005136 0.000000 0.000000 0.000000
# 3 -0.005136 -0.005136 0.026846 0.000000 0.000000 0.000000
# 4 0.000000 0.000000 0.000000 0.050935 0.000000 0.000000
# 5 0.000000 0.000000 0.000000 0.000000 0.050935 0.000000
# 6 0.000000 0.000000 0.000000 0.000000 0.000000 0.025849
#
#
# Mechanical properties :
#
#
# Convention : Reuss Voigt Hill
#
# Bulk Modulus (GPa) = 38.74478 44.63133 41.68805
# Shear Modulus (GPa) = 25.06081 32.35999 28.71040
#
# Velocity S-wave (km/s) = 3.14347 3.57203 3.36458
# Velocity P-wave (km/s) = 5.33405 5.88307 5.61528
#
# Compressibility (1/GPa) = 0.02580993
#
# Stress axis : x y z
#
# Youngs Moduli (GPa) = 113.27778 113.27778 37.24999
#
# Poissons Ratio (x) = -0.10487 0.19131
# Poissons Ratio (y) = -0.10487 0.19131
# Poissons Ratio (z) = 0.58176 0.58176
#
# Static dielectric constant tensor:
#      x y z
#    x 2.018560 0.000000 0.000000 
#    y 0.000000 2.018560 0.000000 
#    z 0.000000 0.000000 2.063210 
# 
# From -- ./inp_files/4007.got.cif
#   From: 2010.05.17/outbox.cif.g08.bks.cpg/sg96_3_cif.got.tgz:4007.got - 2010.06.03 19:52:08.
