data_PCOD9551016
_publ_section_title
;
Structure prediction by ZEFSAII (Michael W. Deem and Ramdas Pophale) SiO2 
 PCOD9551016
Probable space group: P 43 21 2
;
_chemical_formula_sum "Si O2"
_cell_formula_units_Z 48
_cell_length_a 12.911328
_cell_length_b 12.911328
_cell_length_c 11.196202
_cell_angle_alpha 90.000000
_cell_angle_beta 90.000000
_cell_angle_gamma 90.000000
_cell_volume 1866.433640
_symmetry_space_group_name_H-M "P 43 21 2"
_symmetry_group_IT_number 96
_symmetry_cell_setting 'tetragonal'
loop_
_space_group_symop_operation_xyz
x,y,z
1/2-y,1/2+x,3/4+z
-x,-y,1/2+z
1/2+y,1/2-x,1/4+z
1/2+x,1/2-y,1/4-z
1/2-x,1/2+y,3/4-z
y,x,-z
-y,-x,1/2-z
loop_
_atom_site_type_symbol
_atom_site_label
_atom_site_fract_x
_atom_site_fract_y
_atom_site_fract_z
Si Si1 0.439326 0.747540 0.472733
Si Si2 0.276566 0.366782 0.610456
Si Si3 0.204213 0.046996 0.971674
Si Si4 0.354652 0.422649 0.191893
Si Si5 0.413162 0.723962 0.120512
Si Si6 0.038450 0.576036 0.158142
O O1 0.445313 0.780243 0.610351
O O2 0.323308 0.800365 0.167156
O O3 0.549923 0.704859 0.427125
O O4 0.416969 0.843893 0.388176
O O5 0.356001 0.356001 0.500000
O O6 0.258660 0.480944 0.665396
O O7 0.327435 0.313517 0.728884
O O8 0.150244 0.139727 0.706780
O O9 0.108062 0.974294 0.925147
O O10 0.157907 0.157907 0.000000
O O11 0.334049 0.520124 0.278827
O O12 0.492653 0.809194 0.069626
O O13 0.982684 0.532197 0.036175
#
# Coordination Sequence:
#
# PCOD9551016 Si02
#       6
#     8   8   8   8   8   8
#     4  12  25  49  74 110 160 202 271 337 409 486
#     4  10  25  42  71 110 149 196 267 321 400 484
#     4  10  25  43  70 112 147 198 255 334 409 465
#     4  10  23  41  75 108 146 201 257 328 398 475
#     4  12  25  45  78 108 150 213 267 331 399 497
#     4  12  31  51  79 116 162 216 273 336 419 514
#
# _framework density 25.717495
#
# number of rings (size 3 to 8) (size 9 to 14) (size 15 to 20)
#    1.000    0.000    1.667    4.000    7.000    0.000 
#    0.000    0.000    0.000    0.000    0.000    0.000 
#    0.000    0.000    0.000    0.000    0.000    0.000 
#
# Total GULP energy -268055.491323 kJ/mol
# GULP energy per Si atom -5584.489403 kJ/mol
# Density = 2.565896 g / cm^3
# Si number density = 25.717495 Si / 1000 Ang^3
#
#
#
# Elastic Constant Matrix: (Units=GPa)
#
#
# Indices 1 2 3 4 5 6 
#
# 1 68.7415 24.8614 32.3569 0.0000 0.0000 0.0000
# 2 24.8614 68.7415 32.3569 0.0000 0.0000 0.0000
# 3 32.3569 32.3569 185.4391 0.0000 0.0000 0.0000
# 4 0.0000 0.0000 0.0000 39.0300 0.0000 0.0000
# 5 0.0000 0.0000 0.0000 0.0000 39.0300 0.0000
# 6 0.0000 0.0000 0.0000 0.0000 0.0000 47.2706
#
#
#
# Elastic Compliance Matrix: (Units=1/GPa)
#
#
# Indices 1 2 3 4 5 6 
#
# 1 0.017469 -0.005320 -0.002120 0.000000 0.000000 0.000000
# 2 -0.005320 0.017469 -0.002120 0.000000 0.000000 0.000000
# 3 -0.002120 -0.002120 0.006132 0.000000 0.000000 0.000000
# 4 0.000000 0.000000 0.000000 0.025621 0.000000 0.000000
# 5 0.000000 0.000000 0.000000 0.000000 0.025621 0.000000
# 6 0.000000 0.000000 0.000000 0.000000 0.000000 0.021155
#
#
# Mechanical properties :
#
#
# Convention : Reuss Voigt Hill
#
# Bulk Modulus (GPa) = 45.55601 55.78582 50.67092
# Shear Modulus (GPa) = 35.73854 40.62259 38.18057
#
# Velocity S-wave (km/s) = 3.73186 3.97869 3.85725
# Velocity P-wave (km/s) = 6.02673 6.54565 6.29154
#
# Compressibility (1/GPa) = 0.02195100
#
# Stress axis : x y z
#
# Youngs Moduli (GPa) = 57.24360 57.24360 163.06868
#
# Poissons Ratio (x) = 0.30455 0.34568
# Poissons Ratio (y) = 0.30455 0.34568
# Poissons Ratio (z) = 0.12135 0.12135
#
# Static dielectric constant tensor:
#      x y z
#    x 2.060450 0.000000 0.000000 
#    y 0.000000 2.060450 0.000000 
#    z 0.000000 0.000000 2.069670 
# 
# From -- ./inp_files/2196.got.cif
#   From: 2010.05.17/outbox.cif.g08.bks.cpg/sg96_2_cif.got.tgz:2196.got - 2010.06.03 19:52:08.
