data_PCOD9551533
_publ_section_title
;
Structure prediction by ZEFSAII (Michael W. Deem and Ramdas Pophale) SiO2 
 PCOD9551533
Probable space group: I 4 2 2 
;
_chemical_formula_sum "Si O2"
_cell_formula_units_Z 60
_cell_length_a 11.843705
_cell_length_b 11.843705
_cell_length_c 19.410740
_cell_angle_alpha 90.000000
_cell_angle_beta 90.000000
_cell_angle_gamma 90.000000
_cell_volume 2722.809489
_symmetry_space_group_name_H-M "I 4 2 2 "
_symmetry_group_IT_number 97
_symmetry_cell_setting 'tetragonal'
loop_
_space_group_symop_operation_xyz
x,y,z
-y,x,z
-x,-y,z
y,-x,z
x,-y,-z
-x,y,-z
y,x,-z
-y,-x,-z
1/2+x,1/2+y,1/2+z
1/2-y,1/2+x,1/2+z
1/2-x,1/2-y,1/2+z
1/2+y,1/2-x,1/2+z
1/2+x,1/2-y,1/2-z
1/2-x,1/2+y,1/2-z
1/2+y,1/2+x,1/2-z
1/2-y,1/2-x,1/2-z
loop_
_atom_site_type_symbol
_atom_site_label
_atom_site_fract_x
_atom_site_fract_y
_atom_site_fract_z
Si Si1 0.400812 0.173970 0.679440
Si Si2 0.633581 0.366420 0.500000
Si Si3 0.732254 0.845013 0.138009
Si Si4 0.000000 0.000000 0.592671
Si Si5 0.732175 0.006133 0.417971
O O1 0.396546 0.103455 0.750000
O O2 0.316694 0.280310 0.688897
O O3 0.525644 0.214856 0.660211
O O4 0.346998 0.097900 0.619094
O O5 0.652426 0.500000 0.500000
O O6 0.670232 0.300041 0.566830
O O7 0.609898 0.793796 0.122510
O O8 0.034187 0.864607 0.589164
O O9 0.706899 0.000000 0.500000
#
# Coordination Sequence:
#
# PCOD9551533 Si02
#       5
#    16   8  16   4  16
#     4  12  30  49  74 109 153 202 256 316 389 471
#     4  11  22  42  74 113 152 186 248 319 386 466
#     4  12  26  47  76 110 150 199 249 318 395 466
#     4  12  25  44  76 112 144 196 260 325 374 445
#     4  12  26  47  77 110 148 195 257 322 383 455
#
# _framework density 22.036062999999999
#
# number of rings (size 3 to 8) (size 9 to 14) (size 15 to 20)
#    0.000    0.133    5.333    3.600    3.733    2.667 
#    0.000    0.000    0.000    0.000    0.000    0.000 
#    0.000    0.000    0.000    0.000    0.000    0.000 
#
# Total GULP energy -167288.676819 kJ/mol
# GULP energy per Si atom -5576.289227 kJ/mol
# Density = 2.198591 g / cm^3
# Si number density = 22.036063 Si / 1000 Ang^3
#
#
#
# Elastic Constant Matrix: (Units=GPa)
#
#
# Indices 1 2 3 4 5 6 
#
# 1 172.2993 29.2110 41.4087 0.0000 0.0000 0.0000
# 2 29.2110 172.3000 41.4090 0.0000 0.0000 0.0000
# 3 41.4087 41.4090 103.4907 0.0000 0.0000 0.0000
# 4 0.0000 0.0000 0.0000 91.7176 0.0000 0.0000
# 5 0.0000 0.0000 0.0000 0.0000 91.6934 0.0000
# 6 0.0000 0.0000 0.0000 0.0000 0.0000 42.5968
#
#
#
# Elastic Compliance Matrix: (Units=1/GPa)
#
#
# Indices 1 2 3 4 5 6 
#
# 1 0.006464 -0.000525 -0.002376 0.000000 0.000000 0.000000
# 2 -0.000525 0.006464 -0.002376 0.000000 0.000000 0.000000
# 3 -0.002376 -0.002376 0.011564 0.000000 0.000000 0.000000
# 4 0.000000 0.000000 0.000000 0.010903 0.000000 0.000000
# 5 0.000000 0.000000 0.000000 0.000000 0.010906 0.000000
# 6 0.000000 0.000000 0.000000 0.000000 0.000000 0.023476
#
#
# Mechanical properties :
#
#
# Convention : Reuss Voigt Hill
#
# Bulk Modulus (GPa) = 71.75052 74.68304 73.21678
# Shear Modulus (GPa) = 58.83881 67.60565 63.22223
#
# Velocity S-wave (km/s) = 5.17292 5.54492 5.36215
# Velocity P-wave (km/s) = 8.26499 8.65793 8.46374
#
# Compressibility (1/GPa) = 0.01393718
#
# Stress axis : x y z
#
# Youngs Moduli (GPa) = 154.70444 154.70503 86.47227
#
# Poissons Ratio (x) = 0.08118 0.20549
# Poissons Ratio (y) = 0.08118 0.20549
# Poissons Ratio (z) = 0.36764 0.36764
#
# Static dielectric constant tensor:
#      x y z
#    x 1.762070 0.000000 0.000000 
#    y 0.000000 1.762090 0.000000 
#    z 0.000000 0.000000 1.897860 
# 
# From -- ./inp_files/6370.got.cif
#   From: 2010.05.17/outbox.cif.g08.bks.cpg/sg97_4_cif.got.tgz:6370.got - 2010.06.03 19:55:32.
