data_PCOD9551960
_publ_section_title
;
Structure prediction by ZEFSAII (Michael W. Deem and Ramdas Pophale) SiO2 
 PCOD9551960
Probable space group: I 41 2 2
;
_chemical_formula_sum "Si O2"
_cell_formula_units_Z 60
_cell_length_a 15.509349
_cell_length_b 15.509349
_cell_length_c 12.836643
_cell_angle_alpha 90.000000
_cell_angle_beta 90.000000
_cell_angle_gamma 90.000000
_cell_volume 3087.724906
_symmetry_space_group_name_H-M "I 41 2 2"
_symmetry_group_IT_number 98
_symmetry_cell_setting 'tetragonal'
loop_
_space_group_symop_operation_xyz
x,y,z
-y,1/2+x,1/4+z
-x,-y,z
y,1/2-x,1/4+z
x,1/2-y,1/4-z
-x,1/2+y,1/4-z
y,x,-z
-y,-x,-z
1/2+x,1/2+y,1/2+z
1/2-y,x,3/4+z
1/2-x,1/2-y,1/2+z
1/2+y,-x,3/4+z
1/2+x,-y,3/4-z
1/2-x,y,3/4-z
1/2+y,1/2+x,1/2-z
1/2-y,1/2-x,1/2-z
loop_
_atom_site_type_symbol
_atom_site_label
_atom_site_fract_x
_atom_site_fract_y
_atom_site_fract_z
Si Si1 0.185885 0.685885 0.750000
Si Si2 0.389699 0.858214 0.031115
Si Si3 0.500000 0.500000 0.500000
Si Si4 0.962675 0.804851 0.226572
Si Si5 0.657355 0.549243 0.645682
O O1 0.157989 0.628785 0.847816
O O2 0.286160 0.670084 0.725761
O O3 0.484430 0.834042 0.992108
O O4 0.364652 0.955805 0.004691
O O5 0.584443 0.505763 0.571601
O O6 0.988080 0.750000 0.125000
O O7 0.942839 0.741670 0.323496
O O8 0.882187 0.862335 0.189014
#
# Coordination Sequence:
#
# PCOD9551960 Si02
#       5
#     8  16   4  16  16
#     4  10  24  39  67  98 135 163 216 276 348 424
#     4  11  22  41  66  99 134 170 213 280 352 407
#     4  12  20  38  64 102 128 166 220 270 346 398
#     4  12  23  39  67  96 137 174 229 279 338 410
#     4  12  23  41  67  98 134 182 223 285 343 411
#
# _framework density 19.431781999999998
#
# number of rings (size 3 to 8) (size 9 to 14) (size 15 to 20)
#    0.000    0.533    8.000    0.000    3.733    1.067 
#    0.000    2.667   17.600    0.000    0.000    0.000 
#    0.000    0.000    0.000    0.000    0.000    0.000 
#
# Total GULP energy -167513.811641 kJ/mol
# GULP energy per Si atom -5583.793721 kJ/mol
# Density = 1.938755 g / cm^3
# Si number density = 19.431782 Si / 1000 Ang^3
#
#
#
# Elastic Constant Matrix: (Units=GPa)
#
#
# Indices 1 2 3 4 5 6 
#
# 1 72.0712 27.4111 39.9488 0.0000 0.0000 0.0000
# 2 27.4111 72.0712 39.9488 0.0000 0.0000 0.0000
# 3 39.9488 39.9488 126.4459 0.0000 0.0000 0.0000
# 4 0.0000 0.0000 0.0000 39.1612 0.0000 0.0000
# 5 0.0000 0.0000 0.0000 0.0000 39.1612 0.0000
# 6 0.0000 0.0000 0.0000 0.0000 0.0000 24.8186
#
#
#
# Elastic Compliance Matrix: (Units=1/GPa)
#
#
# Indices 1 2 3 4 5 6 
#
# 1 0.017931 -0.004461 -0.004256 0.000000 0.000000 0.000000
# 2 -0.004461 0.017931 -0.004256 0.000000 0.000000 0.000000
# 3 -0.004256 -0.004256 0.010598 0.000000 0.000000 0.000000
# 4 0.000000 0.000000 0.000000 0.025535 0.000000 0.000000
# 5 0.000000 0.000000 0.000000 0.000000 0.025535 0.000000
# 6 0.000000 0.000000 0.000000 0.000000 0.000000 0.040292
#
#
# Mechanical properties :
#
#
# Convention : Reuss Voigt Hill
#
# Bulk Modulus (GPa) = 48.74529 53.91176 51.32852
# Shear Modulus (GPa) = 29.30758 31.51349 30.41054
#
# Velocity S-wave (km/s) = 3.88781 4.03146 3.96029
# Velocity P-wave (km/s) = 6.73002 7.03382 6.88360
#
# Compressibility (1/GPa) = 0.02051480
#
# Stress axis : x y z
#
# Youngs Moduli (GPa) = 55.77057 55.77057 94.36155
#
# Poissons Ratio (x) = 0.24878 0.40157
# Poissons Ratio (y) = 0.24878 0.40157
# Poissons Ratio (z) = 0.23734 0.23734
#
# Static dielectric constant tensor:
#      x y z
#    x 1.711790 0.000000 0.000000 
#    y 0.000000 1.711790 0.000000 
#    z 0.000000 0.000000 1.709260 
# 
# From -- ./inp_files/6274.got.cif
#   From: 2010.05.17/outbox.cif.g08.bks.cpg/sg98_4_cif.got.tgz:6274.got - 2010.06.03 20:00:51.
