data_PCOD9551969
_publ_section_title
;
Structure prediction by ZEFSAII (Michael W. Deem and Ramdas Pophale) SiO2 
 PCOD9551969
Probable space group: I 41 2 2
;
_chemical_formula_sum "Si O2"
_cell_formula_units_Z 120
_cell_length_a 20.022139
_cell_length_b 20.022139
_cell_length_c 15.616402
_cell_angle_alpha 90.000000
_cell_angle_beta 90.000000
_cell_angle_gamma 90.000000
_cell_volume 6260.397715
_symmetry_space_group_name_H-M "I 41 2 2"
_symmetry_group_IT_number 98
_symmetry_cell_setting 'tetragonal'
loop_
_space_group_symop_operation_xyz
x,y,z
-y,1/2+x,1/4+z
-x,-y,z
y,1/2-x,1/4+z
x,1/2-y,1/4-z
-x,1/2+y,1/4-z
y,x,-z
-y,-x,-z
1/2+x,1/2+y,1/2+z
1/2-y,x,3/4+z
1/2-x,1/2-y,1/2+z
1/2+y,-x,3/4+z
1/2+x,-y,3/4-z
1/2-x,y,3/4-z
1/2+y,1/2+x,1/2-z
1/2-y,1/2-x,1/2-z
loop_
_atom_site_type_symbol
_atom_site_label
_atom_site_fract_x
_atom_site_fract_y
_atom_site_fract_z
Si Si1 0.673299 0.814043 0.077443
Si Si2 0.866147 0.523636 0.106214
Si Si3 0.568903 0.068903 0.750000
Si Si4 0.369263 0.440106 0.067582
Si Si5 0.979461 0.578132 0.999390
Si Si6 0.289021 0.400468 0.503797
Si Si7 0.263822 0.473786 0.776628
Si Si8 0.524091 0.180215 0.633002
O O1 0.706796 0.750000 0.125000
O O2 0.652611 0.866200 0.150943
O O3 0.604808 0.786229 0.035787
O O4 0.721023 0.858339 0.016042
O O5 0.918451 0.487773 0.174314
O O6 0.807281 0.556168 0.162383
O O7 0.911965 0.575936 0.055763
O O8 0.823441 0.490430 0.027830
O O9 0.562119 0.135649 0.699426
O O10 0.397605 0.472694 0.153129
O O11 0.427808 0.427808 0.000000
O O12 0.305915 0.475241 0.024374
O O13 0.000000 0.500000 0.001177
O O14 0.020199 0.635096 0.048908
O O15 0.346097 0.346097 0.500000
O O16 0.301682 0.452583 0.427256
O O17 0.250000 0.495885 0.875000
O O18 0.559622 0.250000 0.625000
#
# Coordination Sequence:
#
# PCOD9551969 Si02
#       8
#    16  16   8  16  16  16  16  16
#     4  11  22  33  53  83 118 175 220 263 309 378
#     4  11  21  38  57  85 120 170 218 259 329 385
#     4  10  24  41  66  90 126 166 214 266 332 414
#     4  12  22  39  55  84 118 162 225 268 320 377
#     4  12  24  40  62  83 121 169 221 281 333 400
#     4  11  23  32  52  79 125 169 214 264 300 377
#     4  11  22  38  59  83 123 177 218 273 322 390
#     4  11  24  40  61  93 125 165 216 272 331 394
#
# _framework density 19.168112000000001
#
# number of rings (size 3 to 8) (size 9 to 14) (size 15 to 20)
#    0.000    0.800    8.000    0.800    3.733    1.333 
#    0.000    0.000    0.000    0.000    0.000    0.933 
#    0.000    0.000    0.000    0.000    0.000    0.000 
#
# Total GULP energy -334094.800821 kJ/mol
# GULP energy per Si atom -5568.246680 kJ/mol
# Density = 1.912448 g / cm^3
# Si number density = 19.168112 Si / 1000 Ang^3
#
#
#
# Elastic Constant Matrix: (Units=GPa)
#
#
# Indices 1 2 3 4 5 6 
#
# 1 60.3105 15.9695 41.2060 0.0000 0.0000 0.0000
# 2 15.9695 60.3105 41.2060 0.0000 0.0000 0.0000
# 3 41.2060 41.2060 147.3196 0.0000 0.0000 0.0000
# 4 0.0000 0.0000 0.0000 59.8187 0.0000 0.0000
# 5 0.0000 0.0000 0.0000 0.0000 59.8187 0.0000
# 6 0.0000 0.0000 0.0000 0.0000 0.0000 -9.5306
#
#
#
# Elastic Compliance Matrix: (Units=1/GPa)
#
#
# Indices 1 2 3 4 5 6 
#
# 1 0.020670 -0.001883 -0.005255 0.000000 0.000000 0.000000
# 2 -0.001883 0.020670 -0.005255 0.000000 0.000000 0.000000
# 3 -0.005255 -0.005255 0.009728 0.000000 0.000000 0.000000
# 4 0.000000 0.000000 0.000000 0.016717 0.000000 0.000000
# 5 0.000000 0.000000 0.000000 0.000000 0.016717 0.000000
# 6 0.000000 0.000000 0.000000 0.000000 0.000000 -0.104925
#
#
# Mechanical properties :
#
#
# Convention : Reuss Voigt Hill
#
# Bulk Modulus (GPa) = 38.04879 51.63374 44.84127
# Shear Modulus (GPa) = 381.05283 33.32531 207.18907
#
# Velocity S-wave (km/s) = 14.11477 4.17415 10.40794
# Velocity P-wave (km/s) = 16.89760 7.08711 12.95677
#
# Compressibility (1/GPa) = 0.02628204
#
# Stress axis : x y z
#
# Youngs Moduli (GPa) = 48.38021 48.38021 102.80119
#
# Poissons Ratio (x) = 0.09109 0.54019
# Poissons Ratio (y) = 0.09109 0.54019
# Poissons Ratio (z) = 0.25423 0.25423
#
# Static dielectric constant tensor:
#      x y z
#    x 1.664930 0.000000 0.000000 
#    y 0.000000 1.664930 0.000000 
#    z 0.000000 0.000000 1.788390 
# 
# From -- ./inp_files/6759.got.cif
#   From: 2010.05.17/outbox.cif.g08.bks.cpg/sg98_4_cif.got.tgz:6759.got - 2010.06.03 20:00:51.
