data_PCOD9551643
_publ_section_title
;
Structure prediction by ZEFSAII (Michael W. Deem and Ramdas Pophale) SiO2 
 PCOD9551643
Probable space group: I 41 2 2
;
_chemical_formula_sum "Si O2"
_cell_formula_units_Z 88
_cell_length_a 17.285886
_cell_length_b 17.285886
_cell_length_c 11.659966
_cell_angle_alpha 90.000000
_cell_angle_beta 90.000000
_cell_angle_gamma 90.000000
_cell_volume 3484.019468
_symmetry_space_group_name_H-M "I 41 2 2"
_symmetry_group_IT_number 98
_symmetry_cell_setting 'tetragonal'
loop_
_space_group_symop_operation_xyz
x,y,z
-y,1/2+x,1/4+z
-x,-y,z
y,1/2-x,1/4+z
x,1/2-y,1/4-z
-x,1/2+y,1/4-z
y,x,-z
-y,-x,-z
1/2+x,1/2+y,1/2+z
1/2-y,x,3/4+z
1/2-x,1/2-y,1/2+z
1/2+y,-x,3/4+z
1/2+x,-y,3/4-z
1/2-x,y,3/4-z
1/2+y,1/2+x,1/2-z
1/2-y,1/2-x,1/2-z
loop_
_atom_site_type_symbol
_atom_site_label
_atom_site_fract_x
_atom_site_fract_y
_atom_site_fract_z
Si Si1 0.313063 0.559172 0.764556
Si Si2 0.848382 0.768109 0.912229
Si Si3 0.786638 0.286638 0.750000
Si Si4 0.508324 0.187797 0.756451
Si Si5 0.866148 0.897286 0.305929
Si Si6 0.964734 0.365621 0.019319
O O1 0.241810 0.621760 0.756145
O O2 0.331378 0.531171 0.635324
O O3 0.324351 0.478189 0.834417
O O4 0.389401 0.605972 0.795310
O O5 0.865978 0.825914 0.809634
O O6 0.917804 0.792414 0.998470
O O7 0.776959 0.776959 0.000000
O O8 0.858000 0.680483 0.869633
O O9 0.750000 0.256742 0.875000
O O10 0.530138 0.128042 0.657735
O O11 0.541977 0.273337 0.741135
O O12 0.957861 0.903320 0.282306
#
# Coordination Sequence:
#
# PCOD9551643 Si02
#       6
#    16  16   8  16  16  16
#     4  11  23  38  61  95 135 184 241 296 368 451
#     4  10  17  33  55  84 129 173 222 278 372 454
#     4  12  30  52  78 104 142 200 258 322 388 456
#     4   9  19  31  55  90 131 176 220 282 363 442
#     4  10  21  35  58  94 132 183 229 299 375 459
#     4  10  18  33  56  92 137 178 224 291 375 448
#
# _framework density 25.258184
#
# number of rings (size 3 to 8) (size 9 to 14) (size 15 to 20)
#    0.000    1.818    1.818    2.727    5.091    0.000 
#    0.000    3.636    0.000    0.000    0.000   32.455 
#    0.000    0.000    0.000    0.000    0.000    0.000 
#
# Total GULP energy -244944.285664 kJ/mol
# GULP energy per Si atom -5566.915583 kJ/mol
# Density = 2.520070 g / cm^3
# Si number density = 25.258184 Si / 1000 Ang^3
#
#
#
# Elastic Constant Matrix: (Units=GPa)
#
#
# Indices 1 2 3 4 5 6 
#
# 1 143.4820 62.7785 -3.7356 0.0000 0.0000 0.0000
# 2 62.7785 143.4820 -3.7356 0.0000 0.0000 0.0000
# 3 -3.7356 -3.7356 42.8001 0.0000 0.0000 0.0000
# 4 0.0000 0.0000 0.0000 18.3319 0.0000 0.0000
# 5 0.0000 0.0000 0.0000 0.0000 18.3319 0.0000
# 6 0.0000 0.0000 0.0000 0.0000 0.0000 26.4888
#
#
#
# Elastic Compliance Matrix: (Units=1/GPa)
#
#
# Indices 1 2 3 4 5 6 
#
# 1 0.008627 -0.003764 0.000424 0.000000 0.000000 0.000000
# 2 -0.003764 0.008627 0.000424 0.000000 0.000000 0.000000
# 3 0.000424 0.000424 0.023439 0.000000 0.000000 0.000000
# 4 0.000000 0.000000 0.000000 0.054550 0.000000 0.000000
# 5 0.000000 0.000000 0.000000 0.000000 0.054550 0.000000
# 6 0.000000 0.000000 0.000000 0.000000 0.000000 0.037752
#
#
# Mechanical properties :
#
#
# Convention : Reuss Voigt Hill
#
# Bulk Modulus (GPa) = 28.68311 48.93099 38.80705
# Shear Modulus (GPa) = 24.39080 30.92763 27.65922
#
# Velocity S-wave (km/s) = 3.11088 3.50302 3.31276
# Velocity P-wave (km/s) = 4.92788 5.98130 5.47996
#
# Compressibility (1/GPa) = 0.03486372
#
# Stress axis : x y z
#
# Youngs Moduli (GPa) = 115.91080 115.91080 42.66482
#
# Poissons Ratio (x) = 0.43625 -0.01811
# Poissons Ratio (y) = 0.43625 -0.01811
# Poissons Ratio (z) = -0.04920 -0.04920
#
# Static dielectric constant tensor:
#      x y z
#    x 2.114900 0.000000 0.000000 
#    y 0.000000 2.114900 0.000000 
#    z 0.000000 0.000000 2.314020 
# 
# From -- ./inp_files/6542.got.cif
#   From: 2010.05.17/outbox.cif.g08.bks.cpg/sg98_4_cif.got.tgz:6542.got - 2010.06.03 20:00:51.
