data_PCOD9551018
_publ_section_title
;
Structure prediction by ZEFSAII (Michael W. Deem and Ramdas Pophale) SiO2 
 PCOD9551018
Probable space group: P 43 21 2
;
_chemical_formula_sum "Si O2"
_cell_formula_units_Z 56
_cell_length_a 14.529466
_cell_length_b 14.529466
_cell_length_c 12.250143
_cell_angle_alpha 90.000000
_cell_angle_beta 90.000000
_cell_angle_gamma 90.000000
_cell_volume 2586.071121
_symmetry_space_group_name_H-M "P 43 21 2"
_symmetry_group_IT_number 96
_symmetry_cell_setting 'tetragonal'
loop_
_space_group_symop_operation_xyz
x,y,z
1/2-y,1/2+x,3/4+z
-x,-y,1/2+z
1/2+y,1/2-x,1/4+z
1/2+x,1/2-y,1/4-z
1/2-x,1/2+y,3/4-z
y,x,-z
-y,-x,1/2-z
loop_
_atom_site_type_symbol
_atom_site_label
_atom_site_fract_x
_atom_site_fract_y
_atom_site_fract_z
Si Si1 0.374900 0.248714 0.061941
Si Si2 0.925555 0.928339 0.800856
Si Si3 0.320972 0.167423 0.491257
Si Si4 0.512579 0.757249 0.360688
Si Si5 0.417873 0.304299 0.647778
Si Si6 0.378231 0.703012 0.853895
Si Si7 0.255856 0.923513 0.058284
O O1 0.279941 0.199790 0.096110
O O2 0.424995 0.253647 0.177614
O O3 0.341601 0.341601 0.000000
O O4 0.440082 0.202941 0.969779
O O5 0.974851 0.844426 0.860576
O O6 0.862378 0.882583 0.707807
O O7 0.856035 0.986757 0.876308
O O8 0.999276 0.000725 0.750000
O O9 0.225545 0.225545 0.500000
O O10 0.310688 0.071255 0.553121
O O11 0.394480 0.229193 0.557328
O O12 0.358439 0.167805 0.366463
O O13 0.586536 0.743765 0.265088
O O14 0.339146 0.380950 0.646629
O O15 0.363140 0.636861 0.750000
O O16 0.472429 0.759622 0.846617
#
# Coordination Sequence:
#
# PCOD9551018 Si02
#       7
#     8   8   8   8   8   8   8
#     4  11  25  45  66  99 141 187 226 284 360 430
#     4  12  23  39  64 109 141 176 233 302 362 407
#     4  10  23  42  67 100 134 189 230 282 350 425
#     4  12  26  40  69 103 139 179 238 295 347 423
#     4  11  22  40  67  96 142 175 230 287 353 418
#     4  11  25  41  69 100 140 185 227 284 357 425
#     4  11  22  44  69  95 138 181 229 284 349 418
#
# _framework density 21.654471000000001
#
# number of rings (size 3 to 8) (size 9 to 14) (size 15 to 20)
#    0.000    0.857    4.286    3.000    8.000    1.143 
#    0.000    0.000    9.429    0.000    0.000    0.000 
#    0.000    0.000    0.000    0.000    0.000    0.000 
#
# Total GULP energy -312855.387957 kJ/mol
# GULP energy per Si atom -5586.703356 kJ/mol
# Density = 2.160518 g / cm^3
# Si number density = 21.654471 Si / 1000 Ang^3
#
#
#
# Elastic Constant Matrix: (Units=GPa)
#
#
# Indices 1 2 3 4 5 6 
#
# 1 32.1176 23.8290 20.2532 0.0000 0.0000 0.0000
# 2 23.8290 32.1179 20.2536 0.0000 0.0000 0.0000
# 3 20.2532 20.2536 131.4157 0.0000 0.0000 0.0000
# 4 0.0000 0.0000 0.0000 28.4843 0.0000 0.0000
# 5 0.0000 0.0000 0.0000 0.0000 28.4840 0.0000
# 6 0.0000 0.0000 0.0000 0.0000 0.0000 23.3302
#
#
#
# Elastic Compliance Matrix: (Units=1/GPa)
#
#
# Indices 1 2 3 4 5 6 
#
# 1 0.070383 -0.050264 -0.003101 0.000000 0.000000 0.000000
# 2 -0.050264 0.070383 -0.003101 0.000000 0.000000 0.000000
# 3 -0.003101 -0.003101 0.008565 0.000000 0.000000 0.000000
# 4 0.000000 0.000000 0.000000 0.035107 0.000000 0.000000
# 5 0.000000 0.000000 0.000000 0.000000 0.035107 0.000000
# 6 0.000000 0.000000 0.000000 0.000000 0.000000 0.042863
#
#
# Mechanical properties :
#
#
# Convention : Reuss Voigt Hill
#
# Bulk Modulus (GPa) = 27.47205 36.03587 31.75396
# Shear Modulus (GPa) = 12.90416 24.81405 18.85911
#
# Velocity S-wave (km/s) = 2.44378 3.38880 2.95432
# Velocity P-wave (km/s) = 4.54718 5.65592 5.13158
#
# Compressibility (1/GPa) = 0.03640063
#
# Stress axis : x y z
#
# Youngs Moduli (GPa) = 14.20798 14.20807 116.75172
#
# Poissons Ratio (x) = 0.71415 0.36200
# Poissons Ratio (y) = 0.71414 0.36203
# Poissons Ratio (z) = 0.04405 0.04406
#
# Static dielectric constant tensor:
#      x y z
#    x 1.807170 0.000000 0.000000 
#    y 0.000000 1.807160 0.000000 
#    z 0.000000 0.000000 1.893250 
# 
# From -- ./inp_files/2289.got.cif
#   From: 2010.05.17/outbox.cif.g08.bks.cpg/sg96_2_cif.got.tgz:2289.got - 2010.06.03 19:52:08.
