data_PCOD9551994
_publ_section_title
;
Structure prediction by ZEFSAII (Michael W. Deem and Ramdas Pophale) SiO2 
 PCOD9551994
Probable space group: I 41 2 2
;
_chemical_formula_sum "Si O2"
_cell_formula_units_Z 48
_cell_length_a 8.257567
_cell_length_b 8.257567
_cell_length_c 28.202927
_cell_angle_alpha 90.000000
_cell_angle_beta 90.000000
_cell_angle_gamma 90.000000
_cell_volume 1923.084624
_symmetry_space_group_name_H-M "I 41 2 2"
_symmetry_group_IT_number 98
_symmetry_cell_setting 'tetragonal'
loop_
_space_group_symop_operation_xyz
x,y,z
-y,1/2+x,1/4+z
-x,-y,z
y,1/2-x,1/4+z
x,1/2-y,1/4-z
-x,1/2+y,1/4-z
y,x,-z
-y,-x,-z
1/2+x,1/2+y,1/2+z
1/2-y,x,3/4+z
1/2-x,1/2-y,1/2+z
1/2+y,-x,3/4+z
1/2+x,-y,3/4-z
1/2-x,y,3/4-z
1/2+y,1/2+x,1/2-z
1/2-y,1/2-x,1/2-z
loop_
_atom_site_type_symbol
_atom_site_label
_atom_site_fract_x
_atom_site_fract_y
_atom_site_fract_z
Si Si1 0.520845 0.809515 0.837283
Si Si2 0.294923 0.932692 0.471424
Si Si3 0.770269 0.614753 0.686958
O O1 0.425378 0.665673 0.809543
O O2 0.498372 0.773106 0.893270
O O3 0.708253 0.790958 0.825614
O O4 0.500000 0.000000 0.826858
O O5 0.207795 0.792206 0.500000
O O6 0.321474 0.056644 0.515518
O O7 0.161860 0.038684 0.442816
#
# Coordination Sequence:
#
# PCOD9551994 Si02
#       3
#    16  16  16
#     4  11  27  48  74 110 153 199 252 317 387 458
#     4  11  26  47  76 109 147 193 249 315 384 461
#     4  10  25  49  73 107 147 196 254 311 381 463
#
# _framework density 24.959897000000002
#
# number of rings (size 3 to 8) (size 9 to 14) (size 15 to 20)
#    0.000    1.333    0.000    3.000    0.000   31.333 
#    0.000    0.000    0.000    0.000    0.000    0.000 
#    0.000    0.000    0.000    0.000    0.000    0.000 
#
# Total GULP energy -133811.158190 kJ/mol
# GULP energy per Si atom -5575.464925 kJ/mol
# Density = 2.490309 g / cm^3
# Si number density = 24.959897 Si / 1000 Ang^3
#
#
#
# Elastic Constant Matrix: (Units=GPa)
#
#
# Indices 1 2 3 4 5 6 
#
# 1 143.9990 53.8734 69.9823 0.0000 0.0000 0.0000
# 2 53.8734 144.0003 69.9816 0.0000 0.0000 0.0000
# 3 69.9823 69.9816 132.3754 0.0000 0.0000 0.0000
# 4 0.0000 0.0000 0.0000 41.9643 0.0000 0.0000
# 5 0.0000 0.0000 0.0000 0.0000 41.9644 0.0000
# 6 0.0000 0.0000 0.0000 0.0000 0.0000 24.2361
#
#
#
# Elastic Compliance Matrix: (Units=1/GPa)
#
#
# Indices 1 2 3 4 5 6 
#
# 1 0.009584 -0.001512 -0.004268 0.000000 0.000000 0.000000
# 2 -0.001512 0.009584 -0.004267 0.000000 0.000000 0.000000
# 3 -0.004268 -0.004267 0.012066 0.000000 0.000000 0.000000
# 4 0.000000 0.000000 0.000000 0.023830 0.000000 0.000000
# 5 0.000000 0.000000 0.000000 0.000000 0.023830 0.000000
# 6 0.000000 0.000000 0.000000 0.000000 0.000000 0.041261
#
#
# Mechanical properties :
#
#
# Convention : Reuss Voigt Hill
#
# Bulk Modulus (GPa) = 89.75880 89.78326 89.77103
# Shear Modulus (GPa) = 34.73146 36.73545 35.73345
#
# Velocity S-wave (km/s) = 3.73432 3.84054 3.78780
# Velocity P-wave (km/s) = 7.39140 7.46428 7.42793
#
# Compressibility (1/GPa) = 0.01114097
#
# Stress axis : x y z
#
# Youngs Moduli (GPa) = 104.33997 104.34202 82.87421
#
# Poissons Ratio (x) = 0.15772 0.35368
# Poissons Ratio (y) = 0.15772 0.35366
# Poissons Ratio (z) = 0.44529 0.44528
#
# Static dielectric constant tensor:
#      x y z
#    x 1.913480 0.000000 0.000000 
#    y 0.000000 1.913460 0.000000 
#    z 0.000000 0.000000 2.057160 
# 
# From -- ./inp_files/11313.got.cif
#   From: 2010.05.17/outbox.cif.g08.bks.cpg/sg98_6_cif.got.tgz:11313.got - 2010.06.03 20:00:51.
