data_PCOD9551962
_publ_section_title
;
Structure prediction by ZEFSAII (Michael W. Deem and Ramdas Pophale) SiO2 
 PCOD9551962
Probable space group: I 41 2 2
;
_chemical_formula_sum "Si O2"
_cell_formula_units_Z 72
_cell_length_a 14.626748
_cell_length_b 14.626748
_cell_length_c 17.939135
_cell_angle_alpha 90.000000
_cell_angle_beta 90.000000
_cell_angle_gamma 90.000000
_cell_volume 3837.930062
_symmetry_space_group_name_H-M "I 41 2 2"
_symmetry_group_IT_number 98
_symmetry_cell_setting 'tetragonal'
loop_
_space_group_symop_operation_xyz
x,y,z
-y,1/2+x,1/4+z
-x,-y,z
y,1/2-x,1/4+z
x,1/2-y,1/4-z
-x,1/2+y,1/4-z
y,x,-z
-y,-x,-z
1/2+x,1/2+y,1/2+z
1/2-y,x,3/4+z
1/2-x,1/2-y,1/2+z
1/2+y,-x,3/4+z
1/2+x,-y,3/4-z
1/2-x,y,3/4-z
1/2+y,1/2+x,1/2-z
1/2-y,1/2-x,1/2-z
loop_
_atom_site_type_symbol
_atom_site_label
_atom_site_fract_x
_atom_site_fract_y
_atom_site_fract_z
Si Si1 0.313158 0.061006 0.199798
Si Si2 0.787914 0.662802 0.451829
Si Si3 0.272256 0.750000 0.125000
Si Si4 0.307657 0.887733 0.518102
Si Si5 0.993597 0.607676 0.957528
O O1 0.396089 0.103912 0.250000
O O2 0.249402 0.147970 0.181585
O O3 0.349500 0.013934 0.124762
O O4 0.245151 0.984985 0.235258
O O5 0.704649 0.704649 0.500000
O O6 0.750000 0.622166 0.375000
O O7 0.849287 0.591579 0.497831
O O8 0.215341 0.663564 0.095382
O O9 0.333664 0.727657 0.195889
O O10 0.415692 0.880132 0.506508
O O11 0.000000 0.500000 0.944422
#
# Coordination Sequence:
#
# PCOD9551962 Si02
#       5
#    16  16   8  16  16
#     4  11  25  41  68  97 131 173 220 274 338 392
#     4  11  23  43  68  97 133 173 219 270 327 392
#     4  10  24  40  64  84 130 178 208 270 334 398
#     4  11  23  43  61  95 130 171 222 268 334 399
#     4  12  25  41  66  98 134 172 223 276 328 394
#
# _framework density 18.760113
#
# number of rings (size 3 to 8) (size 9 to 14) (size 15 to 20)
#    0.000    0.889    6.667    0.000    4.667    0.444 
#    0.000    0.000    0.000    3.333    0.000    0.000 
#    0.000    0.000    0.000    0.000    0.000    0.000 
#
# Total GULP energy -200551.569153 kJ/mol
# GULP energy per Si atom -5570.876921 kJ/mol
# Density = 1.871741 g / cm^3
# Si number density = 18.760113 Si / 1000 Ang^3
#
#
#
# Elastic Constant Matrix: (Units=GPa)
#
#
# Indices 1 2 3 4 5 6 
#
# 1 93.4503 36.8957 39.1029 0.0000 0.0000 0.0000
# 2 36.8957 93.4516 39.1028 0.0000 0.0000 0.0000
# 3 39.1029 39.1028 99.3297 0.0000 0.0000 0.0000
# 4 0.0000 0.0000 0.0000 29.2725 0.0000 0.0000
# 5 0.0000 0.0000 0.0000 0.0000 29.2723 0.0000
# 6 0.0000 0.0000 0.0000 0.0000 0.0000 35.3201
#
#
#
# Elastic Compliance Matrix: (Units=1/GPa)
#
#
# Indices 1 2 3 4 5 6 
#
# 1 0.013863 -0.003819 -0.003954 0.000000 0.000000 0.000000
# 2 -0.003819 0.013863 -0.003954 0.000000 0.000000 0.000000
# 3 -0.003954 -0.003954 0.013181 0.000000 0.000000 0.000000
# 4 0.000000 0.000000 0.000000 0.034162 0.000000 0.000000
# 5 0.000000 0.000000 0.000000 0.000000 0.034162 0.000000
# 6 0.000000 0.000000 0.000000 0.000000 0.000000 0.028313
#
#
# Mechanical properties :
#
#
# Convention : Reuss Voigt Hill
#
# Bulk Modulus (GPa) = 57.29743 57.38161 57.33952
# Shear Modulus (GPa) = 29.97342 30.18166 30.07754
#
# Velocity S-wave (km/s) = 4.00149 4.01536 4.00843
# Velocity P-wave (km/s) = 7.20817 7.22156 7.21487
#
# Compressibility (1/GPa) = 0.01745279
#
# Stress axis : x y z
#
# Youngs Moduli (GPa) = 72.13365 72.13498 75.86866
#
# Poissons Ratio (x) = 0.27547 0.30000
# Poissons Ratio (y) = 0.27546 0.29999
# Poissons Ratio (z) = 0.28523 0.28522
#
# Static dielectric constant tensor:
#      x y z
#    x 1.724610 0.000000 0.000000 
#    y 0.000000 1.724610 0.000000 
#    z 0.000000 0.000000 1.631150 
# 
# From -- ./inp_files/7517.got.cif
#   From: 2010.05.17/outbox.cif.g08.bks.cpg/sg98_4_cif.got.tgz:7517.got - 2010.06.03 20:00:51.
