data_PCOD9551961
_publ_section_title
;
Structure prediction by ZEFSAII (Michael W. Deem and Ramdas Pophale) SiO2 
 PCOD9551961
Probable space group: I 41 2 2
;
_chemical_formula_sum "Si O2"
_cell_formula_units_Z 64
_cell_length_a 24.945100
_cell_length_b 24.945100
_cell_length_c 5.111990
_cell_angle_alpha 90.000000
_cell_angle_beta 90.000000
_cell_angle_gamma 90.000000
_cell_volume 3180.976745
_symmetry_space_group_name_H-M "I 41 2 2"
_symmetry_group_IT_number 98
_symmetry_cell_setting 'tetragonal'
loop_
_space_group_symop_operation_xyz
x,y,z
-y,1/2+x,1/4+z
-x,-y,z
y,1/2-x,1/4+z
x,1/2-y,1/4-z
-x,1/2+y,1/4-z
y,x,-z
-y,-x,-z
1/2+x,1/2+y,1/2+z
1/2-y,x,3/4+z
1/2-x,1/2-y,1/2+z
1/2+y,-x,3/4+z
1/2+x,-y,3/4-z
1/2-x,y,3/4-z
1/2+y,1/2+x,1/2-z
1/2-y,1/2-x,1/2-z
loop_
_atom_site_type_symbol
_atom_site_label
_atom_site_fract_x
_atom_site_fract_y
_atom_site_fract_z
Si Si1 0.932941 0.932941 0.500000
Si Si2 0.831893 0.750000 0.125000
Si Si3 0.405688 0.957911 0.498683
Si Si4 0.666730 0.590951 0.327046
Si Si5 0.510632 0.286224 0.383144
O O1 0.874420 0.936338 0.631330
O O2 0.983220 0.931111 0.693181
O O3 0.792434 0.707567 0.250000
O O4 0.871880 0.713114 0.952855
O O5 0.433635 0.933635 0.750000
O O6 0.342019 0.960865 0.554509
O O7 0.421857 0.921857 0.250000
O O8 0.629185 0.629185 0.500000
O O9 0.694041 0.546717 0.507229
O O10 0.533379 0.250000 0.625000
O O11 0.505763 0.250000 0.125000
#
# Coordination Sequence:
#
# PCOD9551961 Si02
#       5
#     8   8  16  16  16
#     4  12  25  40  68  98 140 184 236 300 368 412
#     4  10  24  40  56  86 128 182 254 320 350 372
#     4  12  27  45  70 102 140 181 232 286 351 430
#     4  11  23  39  63  92 131 182 247 298 352 405
#     4  12  25  46  70  99 138 184 232 283 352 419
#
# _framework density 20.119606000000001
#
# number of rings (size 3 to 8) (size 9 to 14) (size 15 to 20)
#    0.000    0.500    3.750    4.875    1.750    3.000 
#    4.500    0.000    0.000    0.000    0.000    0.000 
#    0.000   28.000    0.000    0.000    0.000    0.000 
#
# Total GULP energy -178863.801065 kJ/mol
# GULP energy per Si atom -5589.493783 kJ/mol
# Density = 2.007381 g / cm^3
# Si number density = 20.119606 Si / 1000 Ang^3
#
#
#
# Elastic Constant Matrix: (Units=GPa)
#
#
# Indices 1 2 3 4 5 6 
#
# 1 114.2970 97.4115 74.2560 0.0000 0.0000 0.0000
# 2 97.4115 114.2988 74.2528 0.0000 0.0000 0.0000
# 3 74.2560 74.2528 145.5401 0.0000 0.0000 0.0000
# 4 0.0000 0.0000 0.0000 45.3406 0.0000 0.0000
# 5 0.0000 0.0000 0.0000 0.0000 45.3414 0.0000
# 6 0.0000 0.0000 0.0000 0.0000 0.0000 47.3962
#
#
#
# Elastic Compliance Matrix: (Units=1/GPa)
#
#
# Indices 1 2 3 4 5 6 
#
# 1 0.033289 -0.025931 -0.003754 0.000000 0.000000 0.000000
# 2 -0.025931 0.033287 -0.003752 0.000000 0.000000 0.000000
# 3 -0.003754 -0.003752 0.010701 0.000000 0.000000 0.000000
# 4 0.000000 0.000000 0.000000 0.022055 0.000000 0.000000
# 5 0.000000 0.000000 0.000000 0.000000 0.022055 0.000000
# 6 0.000000 0.000000 0.000000 0.000000 0.000000 0.021099
#
#
# Mechanical properties :
#
#
# Convention : Reuss Voigt Hill
#
# Bulk Modulus (GPa) = 96.14901 96.21960 96.18431
# Shear Modulus (GPa) = 23.49325 36.16335 29.82830
#
# Velocity S-wave (km/s) = 3.42084 4.24420 3.85457
# Velocity P-wave (km/s) = 7.96840 8.48205 8.22923
#
# Compressibility (1/GPa) = 0.01040052
#
# Stress axis : x y z
#
# Youngs Moduli (GPa) = 30.04015 30.04220 93.45252
#
# Poissons Ratio (x) = 0.77904 0.35085
# Poissons Ratio (y) = 0.77899 0.35062
# Poissons Ratio (z) = 0.11278 0.11271
#
# Static dielectric constant tensor:
#      x y z
#    x 1.737810 0.000000 0.000000 
#    y 0.000000 1.737810 0.000000 
#    z 0.000000 0.000000 1.748340 
# 
# From -- ./inp_files/1415.got.cif
#   From: 2010.05.17/outbox.cif.g08.bks.cpg/sg98_1_cif.got.tgz:1415.got - 2010.06.03 20:00:51.
