data_PCOD9551389
_publ_section_title
;
Structure prediction by ZEFSAII (Michael W. Deem and Ramdas Pophale) SiO2 
 PCOD9551389
Probable space group: I 4 2 2 
;
_chemical_formula_sum "Si O2"
_cell_formula_units_Z 112
_cell_length_a 14.798472
_cell_length_b 14.798472
_cell_length_c 24.499137
_cell_angle_alpha 90.000000
_cell_angle_beta 90.000000
_cell_angle_gamma 90.000000
_cell_volume 5365.182959
_symmetry_space_group_name_H-M "I 4 2 2 "
_symmetry_group_IT_number 97
_symmetry_cell_setting 'tetragonal'
loop_
_space_group_symop_operation_xyz
x,y,z
-y,x,z
-x,-y,z
y,-x,z
x,-y,-z
-x,y,-z
y,x,-z
-y,-x,-z
1/2+x,1/2+y,1/2+z
1/2-y,1/2+x,1/2+z
1/2-x,1/2-y,1/2+z
1/2+y,1/2-x,1/2+z
1/2+x,1/2-y,1/2-z
1/2-x,1/2+y,1/2-z
1/2+y,1/2+x,1/2-z
1/2-y,1/2-x,1/2-z
loop_
_atom_site_type_symbol
_atom_site_label
_atom_site_fract_x
_atom_site_fract_y
_atom_site_fract_z
Si Si1 0.922110 0.437329 0.105679
Si Si2 0.515641 0.258748 0.937861
Si Si3 0.681870 0.667005 0.435230
Si Si4 0.808437 0.825084 0.566719
Si Si5 0.861241 0.501298 0.776910
Si Si6 0.153422 0.995004 0.241750
Si Si7 0.009996 0.765514 0.120832
O O1 0.838567 0.437806 0.064338
O O2 0.887778 0.488479 0.159941
O O3 0.955111 0.337800 0.122259
O O4 0.000000 0.500000 0.081726
O O5 0.589364 0.324277 0.912036
O O6 0.415926 0.260233 0.914855
O O7 0.500000 0.287779 0.000000
O O8 0.672520 0.672520 0.500000
O O9 0.740479 0.751193 0.414199
O O10 0.584881 0.673668 0.408304
O O11 0.732826 0.578282 0.416258
O O12 0.814549 0.814549 0.500000
O O13 0.909437 0.590564 0.750000
O O14 0.752123 0.496446 0.771678
O O15 0.915638 0.415638 0.750000
O O16 0.188960 0.991920 0.179082
O O17 0.090964 0.085373 0.250936
#
# Coordination Sequence:
#
# PCOD9551389 Si02
#       7
#    16  16  16  16  16  16  16
#     4  12  23  41  66  95 127 164 218 269 323 386
#     4  10  21  39  61  91 128 172 214 266 321 385
#     4  11  23  39  57  91 134 173 216 262 313 383
#     4   9  19  37  58  84 126 166 215 265 313 372
#     4  11  22  44  68  94 128 163 211 273 333 384
#     4  11  24  44  67  95 130 166 214 269 328 395
#     4  12  22  39  66  90 125 176 212 259 324 381
#
# _framework density 20.875335
#
# number of rings (size 3 to 8) (size 9 to 14) (size 15 to 20)
#    0.000    1.143    5.714    1.286    0.000    1.429 
#    5.143    2.143    0.000    0.000    0.000    0.000 
#    0.000    0.000    0.000    0.000    0.000    0.000 
#
# Total GULP energy -312319.996185 kJ/mol
# GULP energy per Si atom -5577.142789 kJ/mol
# Density = 2.082782 g / cm^3
# Si number density = 20.875335 Si / 1000 Ang^3
#
#
#
# Elastic Constant Matrix: (Units=GPa)
#
#
# Indices 1 2 3 4 5 6 
#
# 1 133.5185 45.0327 4.2030 0.0000 0.0000 0.0000
# 2 45.0327 133.5181 4.2030 0.0000 0.0000 0.0000
# 3 4.2030 4.2030 17.5580 0.0000 0.0000 0.0000
# 4 0.0000 0.0000 0.0000 7.7363 0.0000 0.0000
# 5 0.0000 0.0000 0.0000 0.0000 7.7336 0.0000
# 6 0.0000 0.0000 0.0000 0.0000 0.0000 44.5961
#
#
#
# Elastic Compliance Matrix: (Units=1/GPa)
#
#
# Indices 1 2 3 4 5 6 
#
# 1 0.008483 -0.002818 -0.001356 0.000000 0.000000 0.000000
# 2 -0.002818 0.008483 -0.001356 0.000000 0.000000 0.000000
# 3 -0.001356 -0.001356 0.057603 0.000000 0.000000 0.000000
# 4 0.000000 0.000000 0.000000 0.129260 0.000000 0.000000
# 5 0.000000 0.000000 0.000000 0.000000 0.129305 0.000000
# 6 0.000000 0.000000 0.000000 0.000000 0.000000 0.022424
#
#
# Mechanical properties :
#
#
# Convention : Reuss Voigt Hill
#
# Bulk Modulus (GPa) = 15.74597 43.49691 29.62144
# Shear Modulus (GPa) = 12.89364 27.42360 20.15862
#
# Velocity S-wave (km/s) = 2.48795 3.62841 3.11089
# Velocity P-wave (km/s) = 3.97649 6.19964 5.20807
#
# Compressibility (1/GPa) = 0.06350833
#
# Stress axis : x y z
#
# Youngs Moduli (GPa) = 117.88473 117.88434 17.36015
#
# Poissons Ratio (x) = 0.33225 0.02354
# Poissons Ratio (y) = 0.33225 0.02354
# Poissons Ratio (z) = 0.15985 0.15985
#
# Static dielectric constant tensor:
#      x y z
#    x 1.827500 0.000000 0.000000 
#    y 0.000000 1.827520 0.000000 
#    z 0.000000 0.000000 1.768410 
# 
# From -- ./inp_files/7706.got.cif
#   From: 2010.05.17/outbox.cif.g08.bks.cpg/sg97_4_cif.got.tgz:7706.got - 2010.06.03 19:55:32.
