data_PCOD9551386
_publ_section_title
;
Structure prediction by ZEFSAII (Michael W. Deem and Ramdas Pophale) SiO2 
 PCOD9551386
Probable space group: I 4 2 2 
;
_chemical_formula_sum "Si O2"
_cell_formula_units_Z 64
_cell_length_a 10.724147
_cell_length_b 10.724147
_cell_length_c 25.882681
_cell_angle_alpha 90.000000
_cell_angle_beta 90.000000
_cell_angle_gamma 90.000000
_cell_volume 2976.698006
_symmetry_space_group_name_H-M "I 4 2 2 "
_symmetry_group_IT_number 97
_symmetry_cell_setting 'tetragonal'
loop_
_space_group_symop_operation_xyz
x,y,z
-y,x,z
-x,-y,z
y,-x,z
x,-y,-z
-x,y,-z
y,x,-z
-y,-x,-z
1/2+x,1/2+y,1/2+z
1/2-y,1/2+x,1/2+z
1/2-x,1/2-y,1/2+z
1/2+y,1/2-x,1/2+z
1/2+x,1/2-y,1/2-z
1/2-x,1/2+y,1/2-z
1/2+y,1/2+x,1/2-z
1/2-y,1/2-x,1/2-z
loop_
_atom_site_type_symbol
_atom_site_label
_atom_site_fract_x
_atom_site_fract_y
_atom_site_fract_z
Si Si1 0.623028 0.072566 0.810373
Si Si2 0.292409 0.516650 0.399025
Si Si3 0.818909 0.089544 0.632792
Si Si4 0.366259 0.178466 0.028876
O O1 0.596998 0.096998 0.750000
O O2 0.736350 0.006513 0.840775
O O3 0.638204 0.209445 0.832641
O O4 0.500000 0.000000 0.829535
O O5 0.370273 0.390708 0.406187
O O6 0.186207 0.553928 0.441305
O O7 0.776116 0.101850 0.574277
O O8 0.945102 0.160381 0.643681
O O9 0.500000 0.158797 0.000000
O O10 0.252441 0.252441 0.000000
#
# Coordination Sequence:
#
# PCOD9551386 Si02
#       4
#    16  16  16  16
#     4  10  24  42  67  99 134 173 225 283 342 407
#     4  10  25  47  70  97 137 184 229 278 336 414
#     4  10  21  38  64  94 130 171 219 278 338 400
#     4  11  22  39  69  98 136 178 227 282 335 400
#
# _framework density 21.500333999999999
#
# number of rings (size 3 to 8) (size 9 to 14) (size 15 to 20)
#    0.000    1.750    2.500    0.000    7.000    3.250 
#    0.000   10.000    0.000    0.000    0.000    0.000 
#    0.000    0.000    0.000    0.000    0.000    0.000 
#
# Total GULP energy -178341.317212 kJ/mol
# GULP energy per Si atom -5573.166163 kJ/mol
# Density = 2.145140 g / cm^3
# Si number density = 21.500334 Si / 1000 Ang^3
#
#
#
# Elastic Constant Matrix: (Units=GPa)
#
#
# Indices 1 2 3 4 5 6 
#
# 1 70.4996 2.8388 15.9609 0.0000 0.0000 0.0000
# 2 2.8388 70.4996 15.9609 0.0000 0.0000 0.0000
# 3 15.9609 15.9609 75.0636 0.0000 0.0000 0.0000
# 4 0.0000 0.0000 0.0000 93.8575 0.0000 0.0000
# 5 0.0000 0.0000 0.0000 0.0000 93.8574 0.0000
# 6 0.0000 0.0000 0.0000 0.0000 0.0000 72.9055
#
#
#
# Elastic Compliance Matrix: (Units=1/GPa)
#
#
# Indices 1 2 3 4 5 6 
#
# 1 0.014903 0.000123 -0.003195 0.000000 0.000000 0.000000
# 2 0.000123 0.014903 -0.003195 0.000000 0.000000 0.000000
# 3 -0.003195 -0.003195 0.014681 0.000000 0.000000 0.000000
# 4 0.000000 0.000000 0.000000 0.010654 0.000000 0.000000
# 5 0.000000 0.000000 0.000000 0.000000 0.010654 0.000000
# 6 0.000000 0.000000 0.000000 0.000000 0.000000 0.013716
#
#
# Mechanical properties :
#
#
# Convention : Reuss Voigt Hill
#
# Bulk Modulus (GPa) = 31.29608 31.73154 31.51381
# Shear Modulus (GPa) = 48.68725 64.21091 56.44908
#
# Velocity S-wave (km/s) = 4.76383 5.47082 5.12952
# Velocity P-wave (km/s) = 6.69675 7.39576 7.05491
#
# Compressibility (1/GPa) = 0.03195289
#
# Stress axis : x y z
#
# Youngs Moduli (GPa) = 67.10127 67.10127 68.11633
#
# Poissons Ratio (x) = -0.00827 0.21763
# Poissons Ratio (y) = -0.00827 0.21763
# Poissons Ratio (z) = 0.21439 0.21439
#
# Static dielectric constant tensor:
#      x y z
#    x -0.272440 0.000000 0.000000 
#    y 0.000000 -0.272440 0.000000 
#    z 0.000000 0.000000 2.029480 
# 
# From -- ./inp_files/7030.got.cif
#   From: 2010.05.17/outbox.cif.g08.bks.cpg/sg97_4_cif.got.tgz:7030.got - 2010.06.03 19:55:32.
