data_PCOD9551244
_publ_section_title
;
Structure prediction by ZEFSAII (Michael W. Deem and Ramdas Pophale) SiO2 
 PCOD9551244
Probable space group: I 4 2 2 
;
_chemical_formula_sum "Si O2"
_cell_formula_units_Z 116
_cell_length_a 18.035940
_cell_length_b 18.035940
_cell_length_c 19.659766
_cell_angle_alpha 90.000000
_cell_angle_beta 90.000000
_cell_angle_gamma 90.000000
_cell_volume 6395.226170
_symmetry_space_group_name_H-M "I 4 2 2 "
_symmetry_group_IT_number 97
_symmetry_cell_setting 'tetragonal'
loop_
_space_group_symop_operation_xyz
x,y,z
-y,x,z
-x,-y,z
y,-x,z
x,-y,-z
-x,y,-z
y,x,-z
-y,-x,-z
1/2+x,1/2+y,1/2+z
1/2-y,1/2+x,1/2+z
1/2-x,1/2-y,1/2+z
1/2+y,1/2-x,1/2+z
1/2+x,1/2-y,1/2-z
1/2-x,1/2+y,1/2-z
1/2+y,1/2+x,1/2-z
1/2-y,1/2-x,1/2-z
loop_
_atom_site_type_symbol
_atom_site_label
_atom_site_fract_x
_atom_site_fract_y
_atom_site_fract_z
Si Si1 0.070061 0.790994 0.642696
Si Si2 0.407839 0.300312 0.160354
Si Si3 0.269774 0.664840 0.296403
Si Si4 0.348903 0.149586 0.092660
Si Si5 0.986116 0.615899 0.132280
Si Si6 0.422860 0.846947 0.041385
Si Si7 0.605077 0.779723 0.716647
Si Si8 0.000000 0.500000 0.750000
O O1 0.139845 0.845996 0.637941
O O2 0.079454 0.721743 0.592714
O O3 0.067840 0.758142 0.718741
O O4 0.988438 0.825209 0.634728
O O5 0.398206 0.294242 0.242621
O O6 0.391846 0.218627 0.128391
O O7 0.212715 0.712715 0.250000
O O8 0.227595 0.644388 0.365288
O O9 0.336652 0.720449 0.312025
O O10 0.382466 0.067377 0.100671
O O11 0.355698 0.162425 0.012321
O O12 0.923869 0.582437 0.082688
O O13 0.951146 0.692252 0.159788
O O14 0.996957 0.569497 0.200859
O O15 0.500000 0.844750 0.000000
O O16 0.652685 0.847316 0.750000
#
# Coordination Sequence:
#
# PCOD9551244 Si02
#       8
#    16  16  16  16  16  16  16   4
#     4  11  22  41  63  89 117 159 201 251 306 357
#     4  10  22  40  63  88 116 152 204 256 300 360
#     4   8  18  34  59  85 112 143 193 244 299 349
#     4  11  23  37  56  83 118 160 196 248 297 362
#     4  12  24  35  56  84 119 157 205 247 303 360
#     4  12  24  42  55  81 125 162 204 243 301 371
#     4  10  18  37  59  85 114 144 195 250 295 360
#     4  12  24  32  54  84 112 156 198 256 300 372
#
# _framework density 18.138529999999999
#
# number of rings (size 3 to 8) (size 9 to 14) (size 15 to 20)
#    0.000    1.379    3.448    2.897    4.828    1.379 
#    0.000    0.000    0.000    0.000    0.000    0.000 
#    0.000    0.000    0.000    0.000    8.552    1.379 
#
# Total GULP energy -323477.066860 kJ/mol
# GULP energy per Si atom -5577.190808 kJ/mol
# Density = 1.809725 g / cm^3
# Si number density = 18.138530 Si / 1000 Ang^3
#
#
#
# Elastic Constant Matrix: (Units=GPa)
#
#
# Indices 1 2 3 4 5 6 
#
# 1 86.1572 50.3955 36.8002 0.0000 0.0000 0.0000
# 2 50.3955 86.1578 36.8014 0.0000 0.0000 0.0000
# 3 36.8002 36.8014 76.6059 0.0000 0.0000 0.0000
# 4 0.0000 0.0000 0.0000 -0.2144 0.0000 0.0000
# 5 0.0000 0.0000 0.0000 0.0000 -0.2159 0.0000
# 6 0.0000 0.0000 0.0000 0.0000 0.0000 10.2610
#
#
#
# Elastic Compliance Matrix: (Units=1/GPa)
#
#
# Indices 1 2 3 4 5 6 
#
# 1 0.018922 -0.009040 -0.004747 0.000000 0.000000 0.000000
# 2 -0.009040 0.018922 -0.004747 -0.000001 0.000000 0.000000
# 3 -0.004747 -0.004747 0.017615 -0.000001 0.000000 0.000000
# 4 0.000000 -0.000001 -0.000001 -4.664696 0.000139 -0.000002
# 5 0.000000 0.000000 0.000000 0.000139 -4.632405 0.000000
# 6 0.000000 0.000000 0.000000 -0.000002 0.000000 0.097457
#
#
# Mechanical properties :
#
#
# Convention : Reuss Voigt Hill
#
# Bulk Modulus (GPa) = 54.37769 55.21281 54.79525
# Shear Modulus (GPa) = -0.54939 10.29439 4.87250
#
# Velocity S-wave (km/s) = -0.55095 2.38490 1.64076
# Velocity P-wave (km/s) = 5.44421 6.17165 5.81931
#
# Compressibility (1/GPa) = 0.01838990
#
# Stress axis : x y z
#
# Youngs Moduli (GPa) = 52.84802 52.84762 56.77032
#
# Poissons Ratio (x) = 0.47776 0.26948
# Poissons Ratio (y) = 0.47777 0.26951
# Poissons Ratio (z) = 0.25087 0.25089
#
# Static dielectric constant tensor:
#      x y z
#    x 1.685650 0.000000 0.000000 
#    y 0.000000 1.685650 0.000000 
#    z 0.000000 0.000000 1.953640 
# 
# From -- ./inp_files/5920.got.cif
#   From: 2010.05.17/outbox.cif.g08.bks.cpg/sg97_3_cif.got.tgz:5920.got - 2010.06.03 19:55:32.
