data_PCOD9551625
_publ_section_title
;
Structure prediction by ZEFSAII (Michael W. Deem and Ramdas Pophale) SiO2 
 PCOD9551625
Probable space group: I 4 2 2 
;
_chemical_formula_sum "Si O2"
_cell_formula_units_Z 56
_cell_length_a 15.000000
_cell_length_b 15.000000
_cell_length_c 24.000000
_cell_angle_alpha 90.000000
_cell_angle_beta 90.000000
_cell_angle_gamma 90.000000
_cell_volume 5400.000000
_symmetry_space_group_name_H-M "I 4 2 2 "
_symmetry_group_IT_number 97
_symmetry_cell_setting 'tetragonal'
loop_
_space_group_symop_operation_xyz
x,y,z
-y,x,z
-x,-y,z
y,-x,z
x,-y,-z
-x,y,-z
y,x,-z
-y,-x,-z
1/2+x,1/2+y,1/2+z
1/2-y,1/2+x,1/2+z
1/2-x,1/2-y,1/2+z
1/2+y,1/2-x,1/2+z
1/2+x,1/2-y,1/2-z
1/2-x,1/2+y,1/2-z
1/2+y,1/2+x,1/2-z
1/2-y,1/2-x,1/2-z
loop_
_atom_site_type_symbol
_atom_site_label
_atom_site_fract_x
_atom_site_fract_y
_atom_site_fract_z
Si Si1 0.092176 0.452024 0.628979
Si Si2 0.043822 0.242990 0.799405
Si Si3 0.394819 0.247065 0.980706
Si Si4 0.744884 0.064054 0.673745
Si Si5 0.203801 0.567780 0.542698
Si Si6 0.634906 0.274982 0.148444
Si Si7 0.206802 0.139781 0.846434
O O1 0.159402 0.476561 0.677854
O O2 0.079523 0.345044 0.637148
O O3 0.134019 0.501673 0.574862
O O4 0.000000 0.500000 0.638321
O O5 0.087754 0.255782 0.739193
O O6 0.117157 0.197017 0.839410
O O7 0.947872 0.196130 0.807738
O O8 0.346286 0.150190 0.988956
O O9 0.392425 0.252569 0.914332
O O10 0.500000 0.250540 0.000000
O O11 0.328855 0.328855 0.000000
O O12 0.820904 0.127586 0.649060
O O13 0.767335 0.959561 0.678057
O O14 0.250416 0.500000 0.500000
O O15 0.268249 0.607463 0.590784
O O16 0.709640 0.204388 0.168707
#
# Coordination Sequence:
#
# PCOD9551625 Si02
#       7
#    16  16  16  16  16  16  16
#     4  11  24  40  65 100 137 170 231 287 337 405
#     4  11  23  41  69  95 138 185 226 279 356 409
#     4  11  25  43  68  98 135 187 229 281 349 414
#     4  12  24  41  69  97 137 186 223 285 347 420
#     4  10  25  41  70 101 138 184 227 294 352 412
#     4  11  25  43  65  98 141 175 232 287 341 411
#     4  10  23  45  63 102 139 180 235 292 340 421
#
# _framework density 10.370369999999999
#
# number of rings (size 3 to 8) (size 9 to 14) (size 15 to 20)
#    0.000    1.143    1.429    4.714    6.000    5.857 
#    0.000    2.857    0.000    0.000    0.000    4.000 
#    0.000    0.000    0.000    0.000    0.000    0.000 
#
# Total GULP energy -312362.536410 kJ/mol
# GULP energy per Si atom -5577.902436 kJ/mol
# Density = 1.034677 g / cm^3
# Si number density = 10.370370 Si / 1000 Ang^3
#
#
#
# Elastic Constant Matrix: (Units=GPa)
#
#
# Indices 1 2 3 4 5 6 
#
# 1 64.4448 9.9438 27.5343 0.0000 0.0000 0.0000
# 2 9.9438 64.4448 27.5343 0.0000 0.0000 0.0000
# 3 27.5343 27.5343 45.2259 0.0000 0.0000 0.0000
# 4 0.0000 0.0000 0.0000 15.6395 0.0000 0.0000
# 5 0.0000 0.0000 0.0000 0.0000 15.6395 0.0000
# 6 0.0000 0.0000 0.0000 0.0000 0.0000 12.0857
#
#
#
# Elastic Compliance Matrix: (Units=1/GPa)
#
#
# Indices 1 2 3 4 5 6 
#
# 1 0.021410 0.003062 -0.014899 0.000000 0.000000 0.000000
# 2 0.003062 0.021410 -0.014899 0.000000 0.000000 0.000000
# 3 -0.014899 -0.014899 0.040253 0.000000 0.000000 0.000000
# 4 0.000000 0.000000 0.000000 0.063941 0.000000 0.000000
# 5 0.000000 0.000000 0.000000 0.000000 0.063941 0.000000
# 6 0.000000 0.000000 0.000000 0.000000 0.000000 0.082742
#
#
# Mechanical properties :
#
#
# Convention : Reuss Voigt Hill
#
# Bulk Modulus (GPa) = 33.78257 33.79335 33.78796
# Shear Modulus (GPa) = 14.00412 15.94648 14.97530
#
# Velocity S-wave (km/s) = 2.60128 2.77582 2.68996
# Velocity P-wave (km/s) = 5.03444 5.15773 5.09646
#
# Compressibility (1/GPa) = 0.02960106
#
# Stress axis : x y z
#
# Youngs Moduli (GPa) = 46.70617 46.70617 24.84277
#
# Poissons Ratio (x) = -0.14302 0.37014
# Poissons Ratio (y) = -0.14302 0.37014
# Poissons Ratio (z) = 0.69589 0.69589
#
# Static dielectric constant tensor:
#      x y z
#    x 1.768690 0.000000 0.000000 
#    y 0.000000 1.768690 0.000000 
#    z 0.000000 0.000000 1.810530 
# 
# From -- ./inp_files/7250.got.cif
#   From: 2010.05.17/outbox.ucp.g08.bks.cvg/sg97_4_cif.got.tgz:7250.got - 2010.06.11 10:37:40.
