data_PCOD9551924
_publ_section_title
;
Structure prediction by ZEFSAII (Michael W. Deem and Ramdas Pophale) SiO2 
 PCOD9551924
Probable space group: I 41 2 2
;
_chemical_formula_sum "Si O2"
_cell_formula_units_Z 108
_cell_length_a 13.287266
_cell_length_b 13.287266
_cell_length_c 24.834397
_cell_angle_alpha 90.000000
_cell_angle_beta 90.000000
_cell_angle_gamma 90.000000
_cell_volume 4384.548496
_symmetry_space_group_name_H-M "I 41 2 2"
_symmetry_group_IT_number 98
_symmetry_cell_setting 'tetragonal'
loop_
_space_group_symop_operation_xyz
x,y,z
-y,1/2+x,1/4+z
-x,-y,z
y,1/2-x,1/4+z
x,1/2-y,1/4-z
-x,1/2+y,1/4-z
y,x,-z
-y,-x,-z
1/2+x,1/2+y,1/2+z
1/2-y,x,3/4+z
1/2-x,1/2-y,1/2+z
1/2+y,-x,3/4+z
1/2+x,-y,3/4-z
1/2-x,y,3/4-z
1/2+y,1/2+x,1/2-z
1/2-y,1/2-x,1/2-z
loop_
_atom_site_type_symbol
_atom_site_label
_atom_site_fract_x
_atom_site_fract_y
_atom_site_fract_z
Si Si1 0.845212 0.433214 0.814438
Si Si2 0.819959 0.124581 0.230231
Si Si3 0.500000 0.000000 0.538634
Si Si4 0.163796 0.342861 0.664889
Si Si5 0.615209 0.696710 0.683289
Si Si6 0.301615 0.546145 0.504004
Si Si7 0.500000 0.500000 0.000000
Si Si8 0.056901 0.791902 0.371550
O O1 0.760977 0.383085 0.777928
O O2 0.838510 0.553697 0.807543
O O3 0.863499 0.385020 0.872696
O O4 0.959904 0.415890 0.791791
O O5 0.870718 0.232848 0.223272
O O6 0.777647 0.089691 0.172323
O O7 0.911230 0.050081 0.245288
O O8 0.551532 0.907365 0.570098
O O9 0.160233 0.250000 0.625000
O O10 0.268855 0.331330 0.697302
O O11 0.175078 0.441855 0.628683
O O12 0.614459 0.750000 0.625000
O O13 0.558797 0.767912 0.726732
O O14 0.415606 0.584395 0.500000
O O15 0.265674 0.557152 0.565407
#
# Coordination Sequence:
#
# PCOD9551924 Si02
#       8
#    16  16   8  16  16  16   4  16
#     4  12  23  43  72 107 152 198 238 302 370 459
#     4  11  24  44  74 104 146 198 241 304 381 449
#     4  10  22  44  73 101 140 196 238 314 372 440
#     4  11  25  45  70 104 148 196 242 307 375 457
#     4  10  24  49  75 103 140 196 252 304 383 448
#     4  11  28  45  74 112 142 190 252 322 375 443
#     4  12  20  40  66 104 140 192 236 264 366 442
#     4  12  24  48  70 108 151 187 256 304 381 464
#
# _framework density 24.631955999999999
#
# number of rings (size 3 to 8) (size 9 to 14) (size 15 to 20)
#    0.000    0.889    4.444    0.889    6.222    3.556 
#    8.000    2.222    0.000    4.444    0.000    0.000 
#    0.000    0.000    0.000    0.000    0.000    0.000 
#
# Total GULP energy -301204.286928 kJ/mol
# GULP energy per Si atom -5577.857165 kJ/mol
# Density = 2.457589 g / cm^3
# Si number density = 24.631956 Si / 1000 Ang^3
#
#
#
# Elastic Constant Matrix: (Units=GPa)
#
#
# Indices 1 2 3 4 5 6 
#
# 1 144.2241 45.1100 37.6352 0.0000 0.0000 0.0000
# 2 45.1100 144.2259 37.6355 0.0000 0.0000 0.0000
# 3 37.6352 37.6355 122.6810 0.0000 0.0000 0.0000
# 4 0.0000 0.0000 0.0000 28.1878 0.0000 0.0000
# 5 0.0000 0.0000 0.0000 0.0000 28.1871 0.0000
# 6 0.0000 0.0000 0.0000 0.0000 0.0000 42.1585
#
#
#
# Elastic Compliance Matrix: (Units=1/GPa)
#
#
# Indices 1 2 3 4 5 6 
#
# 1 0.008052 -0.002037 -0.001845 0.000000 0.000000 0.000000
# 2 -0.002037 0.008052 -0.001845 0.000000 0.000000 0.000000
# 3 -0.001845 -0.001845 0.009283 0.000000 0.000000 0.000000
# 4 0.000000 0.000000 0.000000 0.035476 0.000000 0.000000
# 5 0.000000 0.000000 0.000000 0.000000 0.035477 0.000000
# 6 0.000000 0.000000 0.000000 0.000000 0.000000 0.023720
#
#
# Mechanical properties :
#
#
# Convention : Reuss Voigt Hill
#
# Bulk Modulus (GPa) = 71.77395 72.43250 72.10322
# Shear Modulus (GPa) = 36.72117 39.09000 37.90559
#
# Velocity S-wave (km/s) = 3.86527 3.98799 3.92711
# Velocity P-wave (km/s) = 7.00872 7.11865 7.06390
#
# Compressibility (1/GPa) = 0.01393263
#
# Stress axis : x y z
#
# Youngs Moduli (GPa) = 124.18771 124.18920 107.71895
#
# Poissons Ratio (x) = 0.25298 0.19878
# Poissons Ratio (y) = 0.25297 0.19878
# Poissons Ratio (z) = 0.22917 0.22917
#
# Static dielectric constant tensor:
#      x y z
#    x 1.877810 0.000000 0.000000 
#    y 0.000000 1.877800 0.000000 
#    z 0.000000 0.000000 2.030270 
# 
# From -- ./inp_files/10122.got.cif
#   From: 2010.05.17/outbox.cif.g08.bks.cpg/sg98_6_cif.got.tgz:10122.got - 2010.06.03 20:00:51.
