data_PCOD9551309
_publ_section_title
;
Structure prediction by ZEFSAII (Michael W. Deem and Ramdas Pophale) SiO2 
 PCOD9551309
Probable space group: I 4 2 2 
;
_chemical_formula_sum "Si O2"
_cell_formula_units_Z 44
_cell_length_a 7.849309
_cell_length_b 7.849309
_cell_length_c 32.871689
_cell_angle_alpha 90.000000
_cell_angle_beta 90.000000
_cell_angle_gamma 90.000000
_cell_volume 2025.279056
_symmetry_space_group_name_H-M "I 4 2 2 "
_symmetry_group_IT_number 97
_symmetry_cell_setting 'tetragonal'
loop_
_space_group_symop_operation_xyz
x,y,z
-y,x,z
-x,-y,z
y,-x,z
x,-y,-z
-x,y,-z
y,x,-z
-y,-x,-z
1/2+x,1/2+y,1/2+z
1/2-y,1/2+x,1/2+z
1/2-x,1/2-y,1/2+z
1/2+y,1/2-x,1/2+z
1/2+x,1/2-y,1/2-z
1/2-x,1/2+y,1/2-z
1/2+y,1/2+x,1/2-z
1/2-y,1/2-x,1/2-z
loop_
_atom_site_type_symbol
_atom_site_label
_atom_site_fract_x
_atom_site_fract_y
_atom_site_fract_z
Si Si1 0.000000 0.500000 0.360272
Si Si2 0.901336 0.268214 0.292316
Si Si3 0.229802 0.403867 0.429515
Si Si4 0.500000 0.000000 0.500000
O O1 0.878514 0.392507 0.330477
O O2 0.889272 0.618007 0.390260
O O3 0.859316 0.359316 0.250000
O O4 0.097981 0.210422 0.294025
O O5 0.398383 0.291162 0.429044
O O6 0.118414 0.388706 0.470201
#
# Coordination Sequence:
#
# PCOD9551309 Si02
#       4
#     8  16  16   4
#     4  11  21  37  59  86 118 150 193 245 301 357
#     4  11  23  39  60  86 120 161 205 254 304 359
#     4  10  21  37  59  85 113 148 189 235 289 353
#     4  10  20  34  58  82 110 142 182 230 276 336
#
# _framework density 21.7254
#
# number of rings (size 3 to 8) (size 9 to 14) (size 15 to 20)
#    0.000    1.455    0.000    6.000    0.000    1.455 
#    0.000    3.636    0.000   41.455    0.000    0.000 
#    0.000    0.000    0.000    0.000    0.000    0.000 
#
# Total GULP energy -123065.423184 kJ/mol
# GULP energy per Si atom -5593.882872 kJ/mol
# Density = 2.167595 g / cm^3
# Si number density = 21.725400 Si / 1000 Ang^3
#
#
#
# Elastic Constant Matrix: (Units=GPa)
#
#
# Indices 1 2 3 4 5 6 
#
# 1 60.7319 -4.7408 25.9229 0.0000 0.0000 0.0000
# 2 -4.7408 60.7319 25.9229 0.0000 0.0000 0.0000
# 3 25.9229 25.9229 167.9447 0.0000 0.0000 0.0000
# 4 0.0000 0.0000 0.0000 24.8104 0.0000 0.0000
# 5 0.0000 0.0000 0.0000 0.0000 24.8104 0.0000
# 6 0.0000 0.0000 0.0000 0.0000 0.0000 24.9325
#
#
#
# Elastic Compliance Matrix: (Units=1/GPa)
#
#
# Indices 1 2 3 4 5 6 
#
# 1 0.018056 0.002782 -0.003216 0.000000 0.000000 0.000000
# 2 0.002782 0.018056 -0.003216 0.000000 0.000000 0.000000
# 3 -0.003216 -0.003216 0.006947 0.000000 0.000000 0.000000
# 4 0.000000 0.000000 0.000000 0.040306 0.000000 0.000000
# 5 0.000000 0.000000 0.000000 0.000000 0.040306 0.000000
# 6 0.000000 0.000000 0.000000 0.000000 0.000000 0.040108
#
#
# Mechanical properties :
#
#
# Convention : Reuss Voigt Hill
#
# Bulk Modulus (GPa) = 27.96573 42.62427 35.29500
# Shear Modulus (GPa) = 27.32252 31.06423 29.19337
#
# Velocity S-wave (km/s) = 3.55016 3.78545 3.66969
# Velocity P-wave (km/s) = 5.45024 6.22642 5.85121
#
# Compressibility (1/GPa) = 0.03575806
#
# Stress axis : x y z
#
# Youngs Moduli (GPa) = 55.38345 55.38344 143.94105
#
# Poissons Ratio (x) = -0.15410 0.46298
# Poissons Ratio (y) = -0.15410 0.46298
# Poissons Ratio (z) = 0.17814 0.17814
#
# Static dielectric constant tensor:
#      x y z
#    x 1.799820 0.000000 0.000000 
#    y 0.000000 1.799820 0.000000 
#    z 0.000000 0.000000 1.771880 
# 
# From -- ./inp_files/7786.got.cif
#   From: 2010.05.17/outbox.cif.g08.bks.cpg/sg97_4_cif.got.tgz:7786.got - 2010.06.03 19:55:32.
