data_PCOD9551905
_publ_section_title
;
Structure prediction by ZEFSAII (Michael W. Deem and Ramdas Pophale) SiO2 
 PCOD9551905
Probable space group: I 41 2 2
;
_chemical_formula_sum "Si O2"
_cell_formula_units_Z 96
_cell_length_a 14.031921
_cell_length_b 14.031921
_cell_length_c 20.690167
_cell_angle_alpha 90.000000
_cell_angle_beta 90.000000
_cell_angle_gamma 90.000000
_cell_volume 4073.786437
_symmetry_space_group_name_H-M "I 41 2 2"
_symmetry_group_IT_number 98
_symmetry_cell_setting 'tetragonal'
loop_
_space_group_symop_operation_xyz
x,y,z
-y,1/2+x,1/4+z
-x,-y,z
y,1/2-x,1/4+z
x,1/2-y,1/4-z
-x,1/2+y,1/4-z
y,x,-z
-y,-x,-z
1/2+x,1/2+y,1/2+z
1/2-y,x,3/4+z
1/2-x,1/2-y,1/2+z
1/2+y,-x,3/4+z
1/2+x,-y,3/4-z
1/2-x,y,3/4-z
1/2+y,1/2+x,1/2-z
1/2-y,1/2-x,1/2-z
loop_
_atom_site_type_symbol
_atom_site_label
_atom_site_fract_x
_atom_site_fract_y
_atom_site_fract_z
Si Si1 0.778923 0.537536 0.552124
Si Si2 0.951234 0.641964 0.495631
Si Si3 0.149961 0.505392 0.771904
Si Si4 0.909446 0.201389 0.056611
Si Si5 0.427376 0.917424 0.104860
Si Si6 0.905801 0.865303 0.111168
O O1 0.862043 0.614838 0.541627
O O2 0.768544 0.478093 0.486103
O O3 0.821474 0.461108 0.603948
O O4 0.680882 0.590486 0.569198
O O5 0.924469 0.601024 0.426912
O O6 0.968619 0.753303 0.492297
O O7 0.044710 0.603051 0.531185
O O8 0.105869 0.605869 0.750000
O O9 0.161499 0.533623 0.846880
O O10 0.073793 0.426208 0.750000
O O11 0.873469 0.250000 0.125000
O O12 0.988605 0.125341 0.081115
O O13 0.839360 0.160641 0.000000
O O14 0.500000 0.000000 0.125881
O O15 0.890011 0.750000 0.125000
#
# Coordination Sequence:
#
# PCOD9551905 Si02
#       6
#    16  16  16  16  16  16
#     4  11  24  44  69 104 149 196 251 315 385 470
#     4  11  24  40  69  98 146 195 247 327 388 464
#     4  11  22  39  63  98 135 188 252 310 392 469
#     4  11  25  50  78 114 156 197 256 319 390 474
#     4  10  22  42  60  93 140 191 246 308 381 464
#     4  11  24  42  67 113 151 192 258 322 392 467
#
# _framework density 23.565301000000002
#
# number of rings (size 3 to 8) (size 9 to 14) (size 15 to 20)
#    0.000    1.167    5.000    2.000    4.667    2.667 
#    3.000    2.500    0.000    0.000    0.000    0.000 
#    0.000    0.000    0.000    0.000    0.000    0.000 
#
# Total GULP energy -267417.363940 kJ/mol
# GULP energy per Si atom -5571.195082 kJ/mol
# Density = 2.351167 g / cm^3
# Si number density = 23.565301 Si / 1000 Ang^3
#
#
#
# Elastic Constant Matrix: (Units=GPa)
#
#
# Indices 1 2 3 4 5 6 
#
# 1 73.1611 46.8413 53.9647 0.0000 0.0000 0.0000
# 2 46.8413 73.1599 53.9635 0.0000 0.0000 0.0000
# 3 53.9647 53.9635 152.7282 0.0000 0.0000 0.0000
# 4 0.0000 0.0000 0.0000 45.1474 0.0000 0.0000
# 5 0.0000 0.0000 0.0000 0.0000 45.1466 0.0000
# 6 0.0000 0.0000 0.0000 0.0000 0.0000 30.6066
#
#
#
# Elastic Compliance Matrix: (Units=1/GPa)
#
#
# Indices 1 2 3 4 5 6 
#
# 1 0.025105 -0.012890 -0.004316 0.000000 0.000000 0.000000
# 2 -0.012890 0.025105 -0.004316 0.000000 0.000000 0.000000
# 3 -0.004316 -0.004316 0.009598 0.000000 0.000000 0.000000
# 4 0.000000 0.000000 0.000000 0.022150 0.000000 0.000000
# 5 0.000000 0.000000 0.000000 0.000000 0.022150 0.000000
# 6 0.000000 0.000000 0.000000 0.000000 0.000000 0.032673
#
#
# Mechanical properties :
#
#
# Convention : Reuss Voigt Hill
#
# Bulk Modulus (GPa) = 59.65319 67.62094 63.63706
# Shear Modulus (GPa) = 26.96699 33.79877 30.38288
#
# Velocity S-wave (km/s) = 3.38650 3.79127 3.59459
# Velocity P-wave (km/s) = 6.37653 6.92260 6.65517
#
# Compressibility (1/GPa) = 0.01676356
#
# Stress axis : x y z
#
# Youngs Moduli (GPa) = 39.83275 39.83254 104.19349
#
# Poissons Ratio (x) = 0.51345 0.44971
# Poissons Ratio (y) = 0.51345 0.44968
# Poissons Ratio (z) = 0.17192 0.17191
#
# Static dielectric constant tensor:
#      x y z
#    x 1.923190 0.000000 0.000000 
#    y 0.000000 1.923210 0.000000 
#    z 0.000000 0.000000 1.451650 
# 
# From -- ./inp_files/8925.got.cif
#   From: 2010.05.17/outbox.cif.g08.bks.cpg/sg98_5_cif.got.tgz:8925.got - 2010.06.03 20:00:51.
