data_PCOD9551628
_publ_section_title
;
Structure prediction by ZEFSAII (Michael W. Deem and Ramdas Pophale) SiO2 
 PCOD9551628
Probable space group: I 41 2 2
;
_chemical_formula_sum "Si O2"
_cell_formula_units_Z 64
_cell_length_a 29.825385
_cell_length_b 29.825385
_cell_length_c 5.429424
_cell_angle_alpha 90.000000
_cell_angle_beta 90.000000
_cell_angle_gamma 90.000000
_cell_volume 4829.763613
_symmetry_space_group_name_H-M "I 41 2 2"
_symmetry_group_IT_number 98
_symmetry_cell_setting 'tetragonal'
loop_
_space_group_symop_operation_xyz
x,y,z
-y,1/2+x,1/4+z
-x,-y,z
y,1/2-x,1/4+z
x,1/2-y,1/4-z
-x,1/2+y,1/4-z
y,x,-z
-y,-x,-z
1/2+x,1/2+y,1/2+z
1/2-y,x,3/4+z
1/2-x,1/2-y,1/2+z
1/2+y,-x,3/4+z
1/2+x,-y,3/4-z
1/2-x,y,3/4-z
1/2+y,1/2+x,1/2-z
1/2-y,1/2-x,1/2-z
loop_
_atom_site_type_symbol
_atom_site_label
_atom_site_fract_x
_atom_site_fract_y
_atom_site_fract_z
Si Si1 0.223654 0.655580 0.131070
Si Si2 0.950471 0.977172 0.748395
Si Si3 0.625366 0.052746 0.005997
Si Si4 0.579619 0.151572 0.991268
O O1 0.250000 0.637749 0.375000
O O2 0.197887 0.697887 0.250000
O O3 0.250000 0.666575 0.875000
O O4 0.187312 0.618938 0.044030
O O5 0.948598 0.948598 0.500000
O O6 0.913554 0.015948 0.738129
O O7 0.949276 0.949276 0.000000
O O8 0.000000 0.000000 0.748850
O O9 0.652075 0.049256 0.751544
O O10 0.602012 0.101944 0.999099
O O11 0.655069 0.053566 0.251834
#
# Coordination Sequence:
#
# PCOD9551628 Si02
#       4
#    16  16  16  16
#     4  12  25  39  54  63  75  88 109 155 202 257
#     4  10  16  23  34  60  87 101 118 136 154 174
#     4  10  17  27  47  57  76 104 119 136 156 196
#     4  10  18  31  46  60  70  90 124 136 165 220
#
# _framework density 13.251166
#
# number of rings (size 3 to 8) (size 9 to 14) (size 15 to 20)
#    0.000    1.500    2.500    9.750    3.500    1.000 
#    0.000    0.000    0.000    0.000    0.000    0.000 
#    0.000    0.000    0.000    0.000    0.000    0.000 
#
# Total GULP energy -178151.628758 kJ/mol
# GULP energy per Si atom -5567.238399 kJ/mol
# Density = 1.322101 g / cm^3
# Si number density = 13.251166 Si / 1000 Ang^3
#
#
#
# Elastic Constant Matrix: (Units=GPa)
#
#
# Indices 1 2 3 4 5 6 
#
# 1 40.4653 41.3426 38.0593 0.0000 0.0000 0.0000
# 2 41.3426 40.4653 38.0593 0.0000 0.0000 0.0000
# 3 38.0593 38.0593 178.7880 0.0000 0.0000 0.0000
# 4 0.0000 0.0000 0.0000 20.9008 0.0000 0.0000
# 5 0.0000 0.0000 0.0000 0.0000 20.9008 0.0000
# 6 0.0000 0.0000 0.0000 0.0000 0.0000 13.2119
#
#
#
# Elastic Compliance Matrix: (Units=1/GPa)
#
#
# Indices 1 2 3 4 5 6 
#
# 1 -0.562307 0.577550 -0.003245 0.000000 0.000000 0.000000
# 2 0.577550 -0.562307 -0.003245 0.000000 0.000000 0.000000
# 3 -0.003245 -0.003245 0.006975 0.000000 0.000000 0.000000
# 4 0.000000 0.000000 0.000000 0.047845 0.000000 0.000000
# 5 0.000000 0.000000 0.000000 0.000000 0.047845 0.000000
# 6 0.000000 0.000000 0.000000 0.000000 0.000000 0.075689
#
#
# Mechanical properties :
#
#
# Convention : Reuss Voigt Hill
#
# Bulk Modulus (GPa) = 40.84762 54.96010 47.90386
# Shear Modulus (GPa) = -2.40359 20.48652 9.04146
#
# Velocity S-wave (km/s) = -1.34826 3.93621 2.61495
# Velocity P-wave (km/s) = 5.33562 7.88822 6.73398
#
# Compressibility (1/GPa) = 0.02448123
#
# Stress axis : x y z
#
# Youngs Moduli (GPa) = -1.77839 -1.77839 143.37561
#
# Poissons Ratio (x) = 1.02711 0.46523
# Poissons Ratio (y) = 1.02711 0.46523
# Poissons Ratio (z) = -0.00577 -0.00577
#
# Static dielectric constant tensor:
#      x y z
#    x 1.309940 0.000000 0.000000 
#    y 0.000000 1.309940 0.000000 
#    z 0.000000 0.000000 1.607900 
# 
# From -- ./inp_files/1520.got.cif
#   From: 2010.05.17/outbox.cif.g08.bks.cpg/sg98_1_cif.got.tgz:1520.got - 2010.06.03 20:00:51.
