data_PCOD9551000
_publ_section_title
;
Structure prediction by ZEFSAII (Michael W. Deem and Ramdas Pophale) SiO2 
 PCOD9551000
Probable space group: P 43 21 2
;
_chemical_formula_sum "Si O2"
_cell_formula_units_Z 40
_cell_length_a 14.098009
_cell_length_b 14.098009
_cell_length_c 8.623380
_cell_angle_alpha 90.000000
_cell_angle_beta 90.000000
_cell_angle_gamma 90.000000
_cell_volume 1713.930042
_symmetry_space_group_name_H-M "P 43 21 2"
_symmetry_group_IT_number 96
_symmetry_cell_setting 'tetragonal'
loop_
_space_group_symop_operation_xyz
x,y,z
1/2-y,1/2+x,3/4+z
-x,-y,1/2+z
1/2+y,1/2-x,1/4+z
1/2+x,1/2-y,1/4-z
1/2-x,1/2+y,3/4-z
y,x,-z
-y,-x,1/2-z
loop_
_atom_site_type_symbol
_atom_site_label
_atom_site_fract_x
_atom_site_fract_y
_atom_site_fract_z
Si Si1 0.287049 0.070384 0.151107
Si Si2 0.060725 0.095527 0.735428
Si Si3 0.697200 0.153179 0.697911
Si Si4 0.071113 0.593680 0.869989
Si Si5 0.470228 0.727706 0.315322
O O1 0.174280 0.072537 0.135146
O O2 0.320193 0.150304 0.277806
O O3 0.338454 0.085937 0.989541
O O4 0.307869 0.961060 0.205172
O O5 0.156603 0.037663 0.707541
O O6 0.037660 0.160778 0.584478
O O7 0.975772 0.024229 0.750000
O O8 0.797540 0.202460 0.750000
O O9 0.622845 0.206402 0.809429
O O10 0.071239 0.516613 0.004739
O O11 0.056641 0.700409 0.929875
#
# Coordination Sequence:
#
# PCOD9551000 Si02
#       5
#     8   8   8   8   8
#     4  11  22  41  70 109 142 188 246 303 376 445
#     4  10  22  49  77  99 143 202 257 305 373 461
#     4  11  21  41  73 105 141 189 248 298 367 455
#     4  12  26  45  74 113 155 195 242 316 391 456
#     4  10  23  44  69 110 139 189 253 308 365 447
#
# _framework density 23.338176000000001
#
# number of rings (size 3 to 8) (size 9 to 14) (size 15 to 20)
#    0.000    1.200    6.000    1.800    8.400    0.000 
#    7.200    4.000    0.000    0.000    0.000    0.000 
#    0.000    0.000    0.000    0.000    0.000    0.000 
#
# Total GULP energy -223620.152019 kJ/mol
# GULP energy per Si atom -5590.503800 kJ/mol
# Density = 2.328506 g / cm^3
# Si number density = 23.338176 Si / 1000 Ang^3
#
#
#
# Elastic Constant Matrix: (Units=GPa)
#
#
# Indices 1 2 3 4 5 6 
#
# 1 80.6991 32.2269 35.0349 0.0000 0.0000 0.0000
# 2 32.2269 80.6990 35.0358 0.0000 0.0000 0.0000
# 3 35.0349 35.0358 68.8407 0.0000 0.0000 0.0000
# 4 0.0000 0.0000 0.0000 28.1736 0.0000 0.0000
# 5 0.0000 0.0000 0.0000 0.0000 28.1663 0.0000
# 6 0.0000 0.0000 0.0000 0.0000 0.0000 47.7951
#
#
#
# Elastic Compliance Matrix: (Units=1/GPa)
#
#
# Indices 1 2 3 4 5 6 
#
# 1 0.016786 -0.003844 -0.006587 0.000000 0.000000 0.000000
# 2 -0.003844 0.016787 -0.006587 0.000000 0.000000 0.000000
# 3 -0.006587 -0.006587 0.021231 0.000000 0.000000 0.000000
# 4 0.000000 0.000000 0.000000 0.035494 0.000000 0.000000
# 5 0.000000 0.000000 0.000000 0.000000 0.035503 0.000000
# 6 0.000000 0.000000 0.000000 0.000000 0.000000 0.020923
#
#
# Mechanical properties :
#
#
# Convention : Reuss Voigt Hill
#
# Bulk Modulus (GPa) = 48.15012 48.31488 48.23250
# Shear Modulus (GPa) = 26.64075 29.35641 27.99858
#
# Velocity S-wave (km/s) = 3.38229 3.55050 3.46741
# Velocity P-wave (km/s) = 5.99412 6.12822 6.06154
#
# Compressibility (1/GPa) = 0.02076838
#
# Stress axis : x y z
#
# Youngs Moduli (GPa) = 59.57221 59.57131 47.10118
#
# Poissons Ratio (x) = 0.22899 0.31024
# Poissons Ratio (y) = 0.22899 0.31026
# Poissons Ratio (z) = 0.39239 0.39240
#
# Static dielectric constant tensor:
#      x y z
#    x 1.896340 0.000000 0.000000 
#    y 0.000000 1.896340 0.000000 
#    z 0.000000 0.000000 1.977850 
# 
# From -- ./inp_files/1300.got.cif
#   From: 2010.05.17/outbox.cif.g08.bks.cpg/sg96_1_cif.got.tgz:1300.got - 2010.06.03 19:52:08.
