data_PCOD9551484
_publ_section_title
;
Structure prediction by ZEFSAII (Michael W. Deem and Ramdas Pophale) SiO2 
 PCOD9551484
Probable space group: I 4 2 2 
;
_chemical_formula_sum "Si O2"
_cell_formula_units_Z 88
_cell_length_a 12.013757
_cell_length_b 12.013757
_cell_length_c 29.713207
_cell_angle_alpha 90.000000
_cell_angle_beta 90.000000
_cell_angle_gamma 90.000000
_cell_volume 4288.517782
_symmetry_space_group_name_H-M "I 4 2 2 "
_symmetry_group_IT_number 97
_symmetry_cell_setting 'tetragonal'
loop_
_space_group_symop_operation_xyz
x,y,z
-y,x,z
-x,-y,z
y,-x,z
x,-y,-z
-x,y,-z
y,x,-z
-y,-x,-z
1/2+x,1/2+y,1/2+z
1/2-y,1/2+x,1/2+z
1/2-x,1/2-y,1/2+z
1/2+y,1/2-x,1/2+z
1/2+x,1/2-y,1/2-z
1/2-x,1/2+y,1/2-z
1/2+y,1/2+x,1/2-z
1/2-y,1/2-x,1/2-z
loop_
_atom_site_type_symbol
_atom_site_label
_atom_site_fract_x
_atom_site_fract_y
_atom_site_fract_z
Si Si1 0.867499 0.129679 0.449745
Si Si2 0.066547 0.823569 0.263420
Si Si3 0.523427 0.825249 0.551624
Si Si4 0.780097 0.197922 0.909442
Si Si5 0.000000 0.500000 0.378509
Si Si6 0.358612 0.819042 0.678132
O O1 0.832546 0.167455 0.500000
O O2 0.800034 0.196701 0.413853
O O3 0.998525 0.150217 0.446404
O O4 0.112654 0.748547 0.304397
O O5 0.085802 0.743835 0.220208
O O6 0.937693 0.861481 0.263706
O O7 0.500000 0.856848 0.500000
O O8 0.609966 0.726658 0.562557
O O9 0.404604 0.783143 0.568285
O O10 0.565392 0.923516 0.584940
O O11 0.780543 0.170477 0.856782
O O12 0.911712 0.434731 0.347242
#
# Coordination Sequence:
#
# PCOD9551484 Si02
#       6
#    16  16  16  16   8  16
#     4   9  19  36  58  86 122 167 217 275 341 398
#     4  10  24  44  71  99 132 171 215 281 344 429
#     4  11  24  43  64  94 135 182 233 281 337 398
#     4  11  25  40  65  96 130 181 226 288 337 407
#     4  10  25  41  64 102 130 180 216 279 329 404
#     4  10  25  43  67 100 131 177 220 275 351 407
#
# _framework density 20.519908999999998
#
# number of rings (size 3 to 8) (size 9 to 14) (size 15 to 20)
#    0.000    1.818    0.000    2.455   12.727    3.273 
#    0.000    2.727    0.000    0.000    0.000    0.000 
#    0.000    0.000    0.000    0.000    0.000    0.000 
#
# Total GULP energy -245314.282798 kJ/mol
# GULP energy per Si atom -5575.324609 kJ/mol
# Density = 2.047320 g / cm^3
# Si number density = 20.519909 Si / 1000 Ang^3
#
#
#
# Elastic Constant Matrix: (Units=GPa)
#
#
# Indices 1 2 3 4 5 6 
#
# 1 41.6365 71.1387 35.4349 0.0000 0.0000 0.0000
# 2 71.1387 41.6383 35.4346 0.0000 0.0000 0.0000
# 3 35.4349 35.4346 107.7572 0.0000 0.0000 0.0000
# 4 0.0000 0.0000 0.0000 26.4828 0.0000 0.0000
# 5 0.0000 0.0000 0.0000 0.0000 26.4828 0.0000
# 6 0.0000 0.0000 0.0000 0.0000 0.0000 22.0145
#
#
#
# Elastic Compliance Matrix: (Units=1/GPa)
#
#
# Indices 1 2 3 4 5 6 
#
# 1 -0.011360 0.022537 -0.003675 0.000000 0.000000 0.000000
# 2 0.022537 -0.011360 -0.003676 0.000000 0.000000 0.000000
# 3 -0.003675 -0.003676 0.011697 0.000000 0.000000 0.000000
# 4 0.000000 0.000000 0.000000 0.037760 0.000000 0.000000
# 5 0.000000 0.000000 0.000000 0.000000 0.037760 0.000000
# 6 0.000000 0.000000 0.000000 0.000000 0.000000 0.045425
#
#
# Mechanical properties :
#
#
# Convention : Reuss Voigt Hill
#
# Bulk Modulus (GPa) = 51.68112 52.78314 52.23213
# Shear Modulus (GPa) = 58.13945 18.26429 38.20187
#
# Velocity S-wave (km/s) = 5.32867 2.98665 4.31942
# Velocity P-wave (km/s) = 7.94356 6.13777 7.09832
#
# Compressibility (1/GPa) = 0.01934942
#
# Stress axis : x y z
#
# Youngs Moduli (GPa) = -88.02515 -88.03107 85.48969
#
# Poissons Ratio (x) = 1.98393 0.31419
# Poissons Ratio (y) = 1.98380 0.31422
# Poissons Ratio (z) = -0.32351 -0.32356
#
# Static dielectric constant tensor:
#      x y z
#    x 1.757870 0.000000 0.000000 
#    y 0.000000 1.757870 0.000000 
#    z 0.000000 0.000000 1.815610 
# 
# From -- ./inp_files/8057.got.cif
#   From: 2010.05.17/outbox.cif.g08.bks.cpg/sg97_5_cif.got.tgz:8057.got - 2010.06.03 19:55:32.
