data_PCOD9551029
_publ_section_title
;
Structure prediction by ZEFSAII (Michael W. Deem and Ramdas Pophale) SiO2 
 PCOD9551029
Probable space group: P 43 21 2
;
_chemical_formula_sum "Si O2"
_cell_formula_units_Z 36
_cell_length_a 12.019300
_cell_length_b 12.019300
_cell_length_c 11.828385
_cell_angle_alpha 90.000000
_cell_angle_beta 90.000000
_cell_angle_gamma 90.000000
_cell_volume 1708.770754
_symmetry_space_group_name_H-M "P 43 21 2"
_symmetry_group_IT_number 96
_symmetry_cell_setting 'tetragonal'
loop_
_space_group_symop_operation_xyz
x,y,z
1/2-y,1/2+x,3/4+z
-x,-y,1/2+z
1/2+y,1/2-x,1/4+z
1/2+x,1/2-y,1/4-z
1/2-x,1/2+y,3/4-z
y,x,-z
-y,-x,1/2-z
loop_
_atom_site_type_symbol
_atom_site_label
_atom_site_fract_x
_atom_site_fract_y
_atom_site_fract_z
Si Si1 0.643968 0.007977 0.890528
Si Si2 0.515111 0.312032 0.202013
Si Si3 0.240948 0.401953 0.566883
Si Si4 0.862413 0.593801 0.629704
Si Si5 0.366896 0.366896 0.000000
O O1 0.712335 0.003839 0.774566
O O2 0.517441 0.059006 0.879152
O O3 0.650453 0.880843 0.926182
O O4 0.687137 0.084633 0.993288
O O5 0.617039 0.382962 0.250000
O O6 0.441544 0.279959 0.311110
O O7 0.560216 0.199147 0.144789
O O8 0.448584 0.380363 0.106665
O O9 0.324051 0.324051 0.500000
O O10 0.758072 0.609612 0.545948
#
# Coordination Sequence:
#
# PCOD9551029 Si02
#       5
#     8   8   8   8   4
#     4  10  23  43  73 103 140 179 243 296 351 434
#     4  12  27  44  72 102 147 192 234 300 362 439
#     4  11  25  44  69 104 141 188 241 298 366 423
#     4  11  21  43  72 105 134 186 236 294 352 432
#     4  12  26  44  70 104 142 182 248 286 368 422
#
# _framework density 21.067775999999999
#
# number of rings (size 3 to 8) (size 9 to 14) (size 15 to 20)
#    0.000    0.889    3.333    4.000    4.667    1.778 
#    0.000    2.222    0.000    0.000    0.000    0.000 
#    0.000    0.000    0.000    0.000    0.000    0.000 
#
# Total GULP energy -200684.776499 kJ/mol
# GULP energy per Si atom -5574.577125 kJ/mol
# Density = 2.101983 g / cm^3
# Si number density = 21.067776 Si / 1000 Ang^3
#
#
#
# Elastic Constant Matrix: (Units=GPa)
#
#
# Indices 1 2 3 4 5 6 
#
# 1 16.6266 28.8863 18.5445 0.0000 0.0000 0.0000
# 2 28.8863 16.6284 18.5452 0.0000 0.0000 0.0000
# 3 18.5445 18.5452 150.9078 0.0000 0.0000 0.0000
# 4 0.0000 0.0000 0.0000 28.0311 0.0000 0.0000
# 5 0.0000 0.0000 0.0000 0.0000 28.0292 0.0000
# 6 0.0000 0.0000 0.0000 0.0000 0.0000 -27.5971
#
#
#
# Elastic Compliance Matrix: (Units=1/GPa)
#
#
# Indices 1 2 3 4 5 6 
#
# 1 -0.028580 0.052995 -0.003001 0.000000 0.000000 0.000000
# 2 0.052995 -0.028577 -0.003001 0.000000 0.000000 0.000000
# 3 -0.003001 -0.003001 0.007364 0.000000 0.000000 0.000000
# 4 0.000000 0.000000 0.000000 0.035675 0.000000 0.000000
# 5 0.000000 0.000000 0.000000 0.000000 0.035677 0.000000
# 6 0.000000 0.000000 0.000000 0.000000 0.000000 -0.036236
#
#
# Mechanical properties :
#
#
# Convention : Reuss Voigt Hill
#
# Bulk Modulus (GPa) = 22.62703 35.12388 28.87546
# Shear Modulus (GPa) = -53.22866 13.57178 -19.82844
#
# Velocity S-wave (km/s) = -5.03193 2.54086 -3.07118
# Velocity P-wave (km/s) = 4.79551 5.03150 1.07680
#
# Compressibility (1/GPa) = 0.04419493
#
# Stress axis : x y z
#
# Youngs Moduli (GPa) = -34.98908 -34.99295 135.79542
#
# Poissons Ratio (x) = 1.85446 0.40746
# Poissons Ratio (y) = 1.85425 0.40745
# Poissons Ratio (z) = -0.10499 -0.10500
#
# Static dielectric constant tensor:
#      x y z
#    x 1.731600 0.000000 0.000000 
#    y 0.000000 1.731590 0.000000 
#    z 0.000000 0.000000 1.879100 
# 
# From -- ./inp_files/1995.got.cif
#   From: 2010.05.17/outbox.cif.g08.bks.cpg/sg96_1_cif.got.tgz:1995.got - 2010.06.03 19:52:08.
