data_PCOD9551842
_publ_section_title
;
Structure prediction by ZEFSAII (Michael W. Deem and Ramdas Pophale) SiO2 
 PCOD9551842
Probable space group: I 41 2 2
;
_chemical_formula_sum "Si O2"
_cell_formula_units_Z 96
_cell_length_a 14.319739
_cell_length_b 14.319739
_cell_length_c 22.364002
_cell_angle_alpha 90.000000
_cell_angle_beta 90.000000
_cell_angle_gamma 90.000000
_cell_volume 4585.848753
_symmetry_space_group_name_H-M "I 41 2 2"
_symmetry_group_IT_number 98
_symmetry_cell_setting 'tetragonal'
loop_
_space_group_symop_operation_xyz
x,y,z
-y,1/2+x,1/4+z
-x,-y,z
y,1/2-x,1/4+z
x,1/2-y,1/4-z
-x,1/2+y,1/4-z
y,x,-z
-y,-x,-z
1/2+x,1/2+y,1/2+z
1/2-y,x,3/4+z
1/2-x,1/2-y,1/2+z
1/2+y,-x,3/4+z
1/2+x,-y,3/4-z
1/2-x,y,3/4-z
1/2+y,1/2+x,1/2-z
1/2-y,1/2-x,1/2-z
loop_
_atom_site_type_symbol
_atom_site_label
_atom_site_fract_x
_atom_site_fract_y
_atom_site_fract_z
Si Si1 0.688432 0.567710 0.933369
Si Si2 0.250000 0.717474 0.375000
Si Si3 0.862789 0.742408 0.194404
Si Si4 0.000000 0.500000 0.639277
Si Si5 0.765002 0.913242 0.195591
Si Si6 0.065449 0.700408 0.224065
Si Si7 0.298737 0.946921 0.099371
O O1 0.750000 0.553137 0.875000
O O2 0.591237 0.515310 0.928448
O O3 0.658919 0.677312 0.937194
O O4 0.740419 0.535722 0.992871
O O5 0.261237 0.647451 0.431386
O O6 0.156698 0.780046 0.375210
O O7 0.827426 0.750000 0.125000
O O8 0.808872 0.691129 0.250000
O O9 0.856226 0.852408 0.208908
O O10 0.965594 0.698812 0.192210
O O11 0.904873 0.481485 0.603735
O O12 0.762596 0.981174 0.139308
O O13 0.101918 0.601918 0.250000
O O14 0.052349 0.765255 0.281644
#
# Coordination Sequence:
#
# PCOD9551842 Si02
#       7
#    16   8  16   8  16  16  16
#     4  10  21  38  59  89 135 164 209 269 340 413
#     4  10  22  48  66  94 130 190 232 290 366 422
#     4  12  23  39  71 103 135 181 236 293 369 432
#     4  10  24  39  64  98 130 172 217 270 340 430
#     4  10  22  38  62  94 129 171 212 282 349 413
#     4  10  23  45  68  93 137 180 235 295 347 427
#     4  10  23  43  67  95 136 176 231 288 354 430
#
# _framework density 20.933965000000001
#
# number of rings (size 3 to 8) (size 9 to 14) (size 15 to 20)
#    0.000    1.667    2.500    1.500    5.833    7.000 
#    6.000    0.000    0.000    0.000    0.000    0.000 
#    0.000    0.000    0.000    0.000    0.000    0.000 
#
# Total GULP energy -267682.625316 kJ/mol
# GULP energy per Si atom -5576.721361 kJ/mol
# Density = 2.088632 g / cm^3
# Si number density = 20.933965 Si / 1000 Ang^3
#
#
#
# Elastic Constant Matrix: (Units=GPa)
#
#
# Indices 1 2 3 4 5 6 
#
# 1 77.0985 19.8513 26.9492 0.0000 0.0000 0.0000
# 2 19.8513 77.0989 26.9493 0.0000 0.0000 0.0000
# 3 26.9492 26.9493 131.6119 0.0000 0.0000 0.0000
# 4 0.0000 0.0000 0.0000 22.4370 0.0000 0.0000
# 5 0.0000 0.0000 0.0000 0.0000 22.4365 0.0000
# 6 0.0000 0.0000 0.0000 0.0000 0.0000 -84.6295
#
#
#
# Elastic Compliance Matrix: (Units=1/GPa)
#
#
# Indices 1 2 3 4 5 6 
#
# 1 0.014554 -0.002914 -0.002383 0.000000 0.000000 0.000000
# 2 -0.002914 0.014554 -0.002383 0.000000 0.000000 0.000000
# 3 -0.002383 -0.002383 0.008574 0.000000 0.000000 0.000000
# 4 0.000000 0.000000 0.000000 0.044569 0.000000 0.000000
# 5 0.000000 0.000000 0.000000 0.000000 0.044570 0.000000
# 6 0.000000 0.000000 0.000000 0.000000 0.000000 -0.011816
#
#
# Mechanical properties :
#
#
# Convention : Reuss Voigt Hill
#
# Bulk Modulus (GPa) = 44.80305 48.14542 46.47424
# Shear Modulus (GPa) = 36.28262 6.18609 21.23435
#
# Velocity S-wave (km/s) = 4.16768 1.72089 3.18834
# Velocity P-wave (km/s) = 6.67892 5.19589 5.98353
#
# Compressibility (1/GPa) = 0.02231991
#
# Stress axis : x y z
#
# Youngs Moduli (GPa) = 68.71029 68.71067 116.62970
#
# Poissons Ratio (x) = 0.20024 0.27797
# Poissons Ratio (y) = 0.20024 0.27797
# Poissons Ratio (z) = 0.16376 0.16376
#
# Static dielectric constant tensor:
#      x y z
#    x 1.483090 0.000000 0.000000 
#    y 0.000000 1.483080 0.000000 
#    z 0.000000 0.000000 1.816870 
# 
# From -- ./inp_files/10065.got.cif
#   From: 2010.05.17/outbox.cif.g08.bks.cpg/sg98_6_cif.got.tgz:10065.got - 2010.06.03 20:00:51.
