data_PCOD9551810
_publ_section_title
;
Structure prediction by ZEFSAII (Michael W. Deem and Ramdas Pophale) SiO2 
 PCOD9551810
Probable space group: I 41 2 2
;
_chemical_formula_sum "Si O2"
_cell_formula_units_Z 80
_cell_length_a 10.954563
_cell_length_b 10.954563
_cell_length_c 31.506384
_cell_angle_alpha 90.000000
_cell_angle_beta 90.000000
_cell_angle_gamma 90.000000
_cell_volume 3780.843287
_symmetry_space_group_name_H-M "I 41 2 2"
_symmetry_group_IT_number 98
_symmetry_cell_setting 'tetragonal'
loop_
_space_group_symop_operation_xyz
x,y,z
-y,1/2+x,1/4+z
-x,-y,z
y,1/2-x,1/4+z
x,1/2-y,1/4-z
-x,1/2+y,1/4-z
y,x,-z
-y,-x,-z
1/2+x,1/2+y,1/2+z
1/2-y,x,3/4+z
1/2-x,1/2-y,1/2+z
1/2+y,-x,3/4+z
1/2+x,-y,3/4-z
1/2-x,y,3/4-z
1/2+y,1/2+x,1/2-z
1/2-y,1/2-x,1/2-z
loop_
_atom_site_type_symbol
_atom_site_label
_atom_site_fract_x
_atom_site_fract_y
_atom_site_fract_z
Si Si1 0.940748 0.218432 0.532499
Si Si2 0.992379 0.303454 0.256861
Si Si3 0.128093 0.357776 0.845738
Si Si4 0.131456 0.947961 0.670226
Si Si5 0.142017 0.326331 0.474982
O O1 0.860184 0.139817 0.500000
O O2 0.873006 0.305652 0.566802
O O3 0.037313 0.139418 0.559894
O O4 0.019717 0.305382 0.501427
O O5 0.086226 0.413775 0.250000
O O6 0.037987 0.195730 0.226221
O O7 0.858893 0.358893 0.250000
O O8 0.003204 0.242648 0.302941
O O9 0.250000 0.371437 0.875000
O O10 0.132432 0.230335 0.821199
O O11 0.004575 0.360567 0.873318
O O12 0.000000 0.000000 0.684450
O O13 0.240762 0.240762 0.500000
#
# Coordination Sequence:
#
# PCOD9551810 Si02
#       5
#    16  16  16  16  16
#     4  11  24  37  59  93 134 173 215 274 346 421
#     4  10  20  39  68  94 123 179 236 277 334 417
#     4  11  22  37  63  93 128 165 215 281 350 411
#     4  12  22  40  62  97 135 167 220 284 351 409
#     4   9  19  36  58  92 127 167 218 270 330 413
#
# _framework density 21.159302
#
# number of rings (size 3 to 8) (size 9 to 14) (size 15 to 20)
#    0.000    1.400    4.000    3.000    2.800    2.800 
#    0.000    0.000    0.000   12.000    0.000    0.000 
#    0.000    0.000    0.000    0.000    0.000    0.000 
#
# Total GULP energy -223092.007677 kJ/mol
# GULP energy per Si atom -5577.300192 kJ/mol
# Density = 2.111114 g / cm^3
# Si number density = 21.159302 Si / 1000 Ang^3
#
#
#
# Elastic Constant Matrix: (Units=GPa)
#
#
# Indices 1 2 3 4 5 6 
#
# 1 73.5984 64.4181 56.7192 0.0000 0.0000 0.0000
# 2 64.4181 73.5982 56.7193 0.0000 0.0000 0.0000
# 3 56.7192 56.7193 116.7687 0.0000 0.0000 0.0000
# 4 0.0000 0.0000 0.0000 27.2619 0.0000 0.0000
# 5 0.0000 0.0000 0.0000 0.0000 27.2657 0.0000
# 6 0.0000 0.0000 0.0000 0.0000 0.0000 34.2773
#
#
#
# Elastic Compliance Matrix: (Units=1/GPa)
#
#
# Indices 1 2 3 4 5 6 
#
# 1 0.060495 -0.048435 -0.005858 0.000000 0.000000 0.000000
# 2 -0.048435 0.060495 -0.005858 0.000000 0.000000 0.000000
# 3 -0.005858 -0.005858 0.014255 0.000000 0.000000 0.000000
# 4 0.000000 0.000000 0.000000 0.036681 0.000000 0.000000
# 5 0.000000 0.000000 0.000000 0.000000 0.036676 0.000000
# 6 0.000000 0.000000 0.000000 0.000000 0.000000 0.029174
#
#
# Mechanical properties :
#
#
# Convention : Reuss Voigt Hill
#
# Bulk Modulus (GPa) = 66.92055 68.85318 67.88687
# Shear Modulus (GPa) = 13.77183 23.50156 18.63669
#
# Velocity S-wave (km/s) = 2.55397 3.33633 2.97101
# Velocity P-wave (km/s) = 6.35552 6.88857 6.62741
#
# Compressibility (1/GPa) = 0.01494309
#
# Stress axis : x y z
#
# Youngs Moduli (GPa) = 16.53030 16.53020 70.15002
#
# Poissons Ratio (x) = 0.80063 0.41095
# Poissons Ratio (y) = 0.80064 0.41097
# Poissons Ratio (z) = 0.09684 0.09684
#
# Static dielectric constant tensor:
#      x y z
#    x 1.832230 0.000000 0.000000 
#    y 0.000000 1.832230 0.000000 
#    z 0.000000 0.000000 1.768480 
# 
# From -- ./inp_files/11791.got.cif
#   From: 2010.05.17/outbox.cif.g08.bks.cpg/sg98_6_cif.got.tgz:11791.got - 2010.06.03 20:00:51.
