data_PCOD9551605
_publ_section_title
;
Structure prediction by ZEFSAII (Michael W. Deem and Ramdas Pophale) SiO2 
 PCOD9551605
Probable space group: I 4 2 2 
;
_chemical_formula_sum "Si O2"
_cell_formula_units_Z 36
_cell_length_a 8.762737
_cell_length_b 8.762737
_cell_length_c 18.138771
_cell_angle_alpha 90.000000
_cell_angle_beta 90.000000
_cell_angle_gamma 90.000000
_cell_volume 1392.795684
_symmetry_space_group_name_H-M "I 4 2 2 "
_symmetry_group_IT_number 97
_symmetry_cell_setting 'tetragonal'
loop_
_space_group_symop_operation_xyz
x,y,z
-y,x,z
-x,-y,z
y,-x,z
x,-y,-z
-x,y,-z
y,x,-z
-y,-x,-z
1/2+x,1/2+y,1/2+z
1/2-y,1/2+x,1/2+z
1/2-x,1/2-y,1/2+z
1/2+y,1/2-x,1/2+z
1/2+x,1/2-y,1/2-z
1/2-x,1/2+y,1/2-z
1/2+y,1/2+x,1/2-z
1/2-y,1/2-x,1/2-z
loop_
_atom_site_type_symbol
_atom_site_label
_atom_site_fract_x
_atom_site_fract_y
_atom_site_fract_z
Si Si1 0.249305 0.055235 0.698479
Si Si2 0.140602 0.681801 0.945638
Si Si3 0.500000 0.500000 0.606734
O O1 0.384003 0.115997 0.750000
O O2 0.311731 0.062287 0.615505
O O3 0.108867 0.173576 0.711021
O O4 0.094707 0.837754 0.902189
O O5 0.279128 0.720873 0.000000
O O6 0.000000 0.652696 0.000000
#
# Coordination Sequence:
#
# PCOD9551605 Si02
#       3
#    16  16   4
#     4  11  28  49  73 108 157 206 255 325 390 454
#     4   9  19  40  72 107 144 193 247 307 379 457
#     4   8  17  36  68 108 148 184 229 314 373 428
#
# _framework density 25.847293000000001
#
# number of rings (size 3 to 8) (size 9 to 14) (size 15 to 20)
#    0.000    2.222    0.000    4.000   12.444    2.667 
#    0.000   13.333    0.000    0.000    0.000    0.000 
#    0.000    0.000    0.000    0.000    0.000    0.000 
#
# Total GULP energy -100301.982040 kJ/mol
# GULP energy per Si atom -5572.332336 kJ/mol
# Density = 2.578846 g / cm^3
# Si number density = 25.847293 Si / 1000 Ang^3
#
#
#
# Elastic Constant Matrix: (Units=GPa)
#
#
# Indices 1 2 3 4 5 6 
#
# 1 99.7077 52.4831 46.4359 0.0000 0.0000 0.0000
# 2 52.4831 99.7117 46.4356 0.0000 0.0000 0.0000
# 3 46.4359 46.4356 122.2647 0.0000 0.0000 0.0000
# 4 0.0000 0.0000 0.0000 36.2908 0.0000 0.0000
# 5 0.0000 0.0000 0.0000 0.0000 36.2907 0.0000
# 6 0.0000 0.0000 0.0000 0.0000 0.0000 44.8734
#
#
#
# Elastic Compliance Matrix: (Units=1/GPa)
#
#
# Indices 1 2 3 4 5 6 
#
# 1 0.014864 -0.006311 -0.003248 0.000000 0.000000 0.000000
# 2 -0.006311 0.014863 -0.003248 0.000000 0.000000 0.000000
# 3 -0.003248 -0.003248 0.010646 0.000000 0.000000 0.000000
# 4 0.000000 0.000000 0.000000 0.027555 0.000000 0.000000
# 5 0.000000 0.000000 0.000000 0.000000 0.027555 0.000000
# 6 0.000000 0.000000 0.000000 0.000000 0.000000 0.022285
#
#
# Mechanical properties :
#
#
# Convention : Reuss Voigt Hill
#
# Bulk Modulus (GPa) = 67.75667 68.04369 67.90018
# Shear Modulus (GPa) = 33.71459 35.24627 34.48043
#
# Velocity S-wave (km/s) = 3.61553 3.69675 3.65637
# Velocity P-wave (km/s) = 6.61064 6.67860 6.64471
#
# Compressibility (1/GPa) = 0.01475869
#
# Stress axis : x y z
#
# Youngs Moduli (GPa) = 67.27641 67.27982 93.92852
#
# Poissons Ratio (x) = 0.42459 0.30513
# Poissons Ratio (y) = 0.42457 0.30510
# Poissons Ratio (z) = 0.21855 0.21854
#
# Static dielectric constant tensor:
#      x y z
#    x 2.030620 0.000000 0.000000 
#    y 0.000000 2.030620 0.000000 
#    z 0.000000 0.000000 2.014940 
# 
# From -- ./inp_files/6128.got.cif
#   From: 2010.05.17/outbox.cif.g08.bks.cpg/sg97_4_cif.got.tgz:6128.got - 2010.06.03 19:55:32.
