data_PCOD9551988
_publ_section_title
;
Structure prediction by ZEFSAII (Michael W. Deem and Ramdas Pophale) SiO2 
 PCOD9551988
Probable space group: I 41 2 2
;
_chemical_formula_sum "Si O2"
_cell_formula_units_Z 60
_cell_length_a 10.580829
_cell_length_b 10.580829
_cell_length_c 20.927497
_cell_angle_alpha 90.000000
_cell_angle_beta 90.000000
_cell_angle_gamma 90.000000
_cell_volume 2342.915792
_symmetry_space_group_name_H-M "I 41 2 2"
_symmetry_group_IT_number 98
_symmetry_cell_setting 'tetragonal'
loop_
_space_group_symop_operation_xyz
x,y,z
-y,1/2+x,1/4+z
-x,-y,z
y,1/2-x,1/4+z
x,1/2-y,1/4-z
-x,1/2+y,1/4-z
y,x,-z
-y,-x,-z
1/2+x,1/2+y,1/2+z
1/2-y,x,3/4+z
1/2-x,1/2-y,1/2+z
1/2+y,-x,3/4+z
1/2+x,-y,3/4-z
1/2-x,y,3/4-z
1/2+y,1/2+x,1/2-z
1/2-y,1/2-x,1/2-z
loop_
_atom_site_type_symbol
_atom_site_label
_atom_site_fract_x
_atom_site_fract_y
_atom_site_fract_z
Si Si1 0.708224 0.520972 0.610009
Si Si2 0.925576 0.634494 0.681166
Si Si3 0.000000 0.500000 0.250000
Si Si4 0.500000 0.500000 0.284347
Si Si5 0.843732 0.321348 0.548102
O O1 0.822391 0.617458 0.624727
O O2 0.620391 0.515446 0.547117
O O3 0.613375 0.538704 0.668975
O O4 0.770909 0.381214 0.608367
O O5 0.858215 0.641786 0.750000
O O6 0.000000 0.500000 0.679206
O O7 0.030942 0.742757 0.686725
O O8 0.390052 0.553865 0.239997
O O9 0.757637 0.242364 0.500000
#
# Coordination Sequence:
#
# PCOD9551988 Si02
#       5
#    16  16   4   8  16
#     4  11  25  51  84 116 172 218 287 353 429 542
#     4  11  22  46  81 126 160 212 281 353 433 512
#     4  10  24  52  84 128 158 242 294 342 452 530
#     4  11  26  49  80 118 159 220 277 350 436 523
#     4  12  25  51  86 119 164 220 288 346 443 533
#
# _framework density 25.609114000000002
#
# number of rings (size 3 to 8) (size 9 to 14) (size 15 to 20)
#    0.000    0.800    6.667    0.000    1.867    4.267 
#    0.000    5.333    2.933    0.000    0.000    0.000 
#    0.000    0.000    0.000    0.000    0.000    0.000 
#
# Total GULP energy -167889.163540 kJ/mol
# GULP energy per Si atom -5596.305451 kJ/mol
# Density = 2.555083 g / cm^3
# Si number density = 25.609114 Si / 1000 Ang^3
#
#
#
# Elastic Constant Matrix: (Units=GPa)
#
#
# Indices 1 2 3 4 5 6 
#
# 1 166.2040 90.5320 59.4332 0.0000 0.0000 0.0000
# 2 90.5320 166.2036 59.4329 0.0000 0.0000 0.0000
# 3 59.4332 59.4329 135.6526 0.0000 0.0000 0.0000
# 4 0.0000 0.0000 0.0000 42.4934 0.0000 0.0000
# 5 0.0000 0.0000 0.0000 0.0000 42.4924 0.0000
# 6 0.0000 0.0000 0.0000 0.0000 0.0000 51.0498
#
#
#
# Elastic Compliance Matrix: (Units=1/GPa)
#
#
# Indices 1 2 3 4 5 6 
#
# 1 0.009051 -0.004164 -0.002141 0.000000 0.000000 0.000000
# 2 -0.004164 0.009051 -0.002141 0.000000 0.000000 0.000000
# 3 -0.002141 -0.002141 0.009248 0.000000 0.000000 0.000000
# 4 0.000000 0.000000 0.000000 0.023533 0.000000 0.000000
# 5 0.000000 0.000000 0.000000 0.000000 0.023534 0.000000
# 6 0.000000 0.000000 0.000000 0.000000 0.000000 0.019589
#
#
# Mechanical properties :
#
#
# Convention : Reuss Voigt Hill
#
# Bulk Modulus (GPa) = 95.63025 98.53960 97.08492
# Shear Modulus (GPa) = 43.71325 44.45124 44.08225
#
# Velocity S-wave (km/s) = 4.13600 4.17076 4.15342
# Velocity P-wave (km/s) = 7.76093 7.85847 7.80985
#
# Compressibility (1/GPa) = 0.01045694
#
# Stress axis : x y z
#
# Youngs Moduli (GPa) = 110.49008 110.49002 108.13568
#
# Poissons Ratio (x) = 0.46012 0.23150
# Poissons Ratio (y) = 0.46012 0.23149
# Poissons Ratio (z) = 0.23654 0.23653
#
# Static dielectric constant tensor:
#      x y z
#    x 2.070820 0.000000 0.000000 
#    y 0.000000 2.070820 0.000000 
#    z 0.000000 0.000000 2.141640 
# 
# From -- ./inp_files/8581.got.cif
#   From: 2010.05.17/outbox.cif.g08.bks.cpg/sg98_5_cif.got.tgz:8581.got - 2010.06.03 20:00:51.
