data_PCOD9551276
_publ_section_title
;
Structure prediction by ZEFSAII (Michael W. Deem and Ramdas Pophale) SiO2 
 PCOD9551276
Probable space group: I 4 2 2 
;
_chemical_formula_sum "Si O2"
_cell_formula_units_Z 112
_cell_length_a 13.505507
_cell_length_b 13.505507
_cell_length_c 26.564049
_cell_angle_alpha 90.000000
_cell_angle_beta 90.000000
_cell_angle_gamma 90.000000
_cell_volume 4845.248518
_symmetry_space_group_name_H-M "I 4 2 2 "
_symmetry_group_IT_number 97
_symmetry_cell_setting 'tetragonal'
loop_
_space_group_symop_operation_xyz
x,y,z
-y,x,z
-x,-y,z
y,-x,z
x,-y,-z
-x,y,-z
y,x,-z
-y,-x,-z
1/2+x,1/2+y,1/2+z
1/2-y,1/2+x,1/2+z
1/2-x,1/2-y,1/2+z
1/2+y,1/2-x,1/2+z
1/2+x,1/2-y,1/2-z
1/2-x,1/2+y,1/2-z
1/2+y,1/2+x,1/2-z
1/2-y,1/2-x,1/2-z
loop_
_atom_site_type_symbol
_atom_site_label
_atom_site_fract_x
_atom_site_fract_y
_atom_site_fract_z
Si Si1 0.321703 0.331388 0.884130
Si Si2 0.447871 0.761748 0.451701
Si Si3 0.219726 0.858276 0.149841
Si Si4 0.444560 0.653681 0.785844
Si Si5 0.700036 0.932061 0.548001
Si Si6 0.058741 0.719412 0.196125
Si Si7 0.102761 0.609607 0.396390
O O1 0.301328 0.229033 0.853836
O O2 0.334792 0.420322 0.844854
O O3 0.404562 0.301600 0.923845
O O4 0.216324 0.350709 0.909344
O O5 0.500000 0.713954 0.500000
O O6 0.405238 0.700002 0.405129
O O7 0.356161 0.831770 0.467345
O O8 0.528670 0.836012 0.427107
O O9 0.121250 0.807106 0.169609
O O10 0.262240 0.944097 0.184616
O O11 0.378150 0.556908 0.773850
O O12 0.421268 0.753124 0.754403
O O13 0.714585 0.000000 0.500000
O O14 0.625584 0.990640 0.586012
O O15 0.088851 0.623505 0.162921
#
# Coordination Sequence:
#
# PCOD9551276 Si02
#       7
#    16  16  16  16  16  16  16
#     4  10  23  40  56  90 128 161 210 270 321 391
#     4  10  19  36  60  89 123 162 217 254 310 390
#     4   9  20  35  57  87 122 159 198 266 314 378
#     4  11  22  39  67  90 115 163 215 266 323 404
#     4  11  21  37  62  90 128 170 212 265 328 396
#     4  10  19  38  58  90 119 156 210 260 329 384
#     4  10  21  35  58  88 123 161 206 266 314 386
#
# _framework density 23.115431000000001
#
# number of rings (size 3 to 8) (size 9 to 14) (size 15 to 20)
#    0.000    1.857    2.857    1.286    0.000    3.143 
#    2.571    2.143    0.000    0.000    0.000   12.000 
#    0.000    0.000    0.000    0.000    0.000    0.000 
#
# Total GULP energy -312510.471648 kJ/mol
# GULP energy per Si atom -5580.544137 kJ/mol
# Density = 2.306282 g / cm^3
# Si number density = 23.115431 Si / 1000 Ang^3
#
#
#
# Elastic Constant Matrix: (Units=GPa)
#
#
# Indices 1 2 3 4 5 6 
#
# 1 29.1885 3.5945 15.6198 0.0000 0.0000 0.0000
# 2 3.5945 29.1885 15.6198 0.0000 0.0000 0.0000
# 3 15.6198 15.6198 105.9524 0.0000 0.0000 0.0000
# 4 0.0000 0.0000 0.0000 34.9329 0.0000 0.0000
# 5 0.0000 0.0000 0.0000 0.0000 34.9329 0.0000
# 6 0.0000 0.0000 0.0000 0.0000 0.0000 11.9754
#
#
#
# Elastic Compliance Matrix: (Units=1/GPa)
#
#
# Indices 1 2 3 4 5 6 
#
# 1 0.037280 -0.001791 -0.005232 0.000000 0.000000 0.000000
# 2 -0.001791 0.037280 -0.005232 0.000000 0.000000 0.000000
# 3 -0.005232 -0.005232 0.010981 0.000000 0.000000 0.000000
# 4 0.000000 0.000000 0.000000 0.028626 0.000000 0.000000
# 5 0.000000 0.000000 0.000000 0.000000 0.028626 0.000000
# 6 0.000000 0.000000 0.000000 0.000000 0.000000 0.083504
#
#
# Mechanical properties :
#
#
# Convention : Reuss Voigt Hill
#
# Bulk Modulus (GPa) = 16.38494 25.99973 21.19233
# Shear Modulus (GPa) = 18.43978 25.00125 21.72051
#
# Velocity S-wave (km/s) = 2.82747 3.29231 3.06870
# Velocity P-wave (km/s) = 4.21463 5.07194 4.66303
#
# Compressibility (1/GPa) = 0.06103167
#
# Stress axis : x y z
#
# Youngs Moduli (GPa) = 26.82369 26.82369 91.06786
#
# Poissons Ratio (x) = 0.04805 0.47646
# Poissons Ratio (y) = 0.04805 0.47646
# Poissons Ratio (z) = 0.14034 0.14034
#
# Static dielectric constant tensor:
#      x y z
#    x 1.875240 0.000000 0.000000 
#    y 0.000000 1.875240 0.000000 
#    z 0.000000 0.000000 1.946890 
# 
# From -- ./inp_files/7282.got.cif
#   From: 2010.05.17/outbox.cif.g08.bks.cpg/sg97_4_cif.got.tgz:7282.got - 2010.06.03 19:55:32.
