data_PCOD9551114
_publ_section_title
;
Structure prediction by ZEFSAII (Michael W. Deem and Ramdas Pophale) SiO2 
 PCOD9551114
Probable space group: P 43 21 2
;
_chemical_formula_sum "Si O2"
_cell_formula_units_Z 40
_cell_length_a 8.543312
_cell_length_b 8.543312
_cell_length_c 26.479095
_cell_angle_alpha 90.000000
_cell_angle_beta 90.000000
_cell_angle_gamma 90.000000
_cell_volume 1932.660950
_symmetry_space_group_name_H-M "P 43 21 2"
_symmetry_group_IT_number 96
_symmetry_cell_setting 'tetragonal'
loop_
_space_group_symop_operation_xyz
x,y,z
1/2-y,1/2+x,3/4+z
-x,-y,1/2+z
1/2+y,1/2-x,1/4+z
1/2+x,1/2-y,1/4-z
1/2-x,1/2+y,3/4-z
y,x,-z
-y,-x,1/2-z
loop_
_atom_site_type_symbol
_atom_site_label
_atom_site_fract_x
_atom_site_fract_y
_atom_site_fract_z
Si Si1 0.103200 0.648970 0.907646
Si Si2 0.433274 0.704477 0.866431
Si Si3 0.438849 0.041475 0.430877
Si Si4 0.130106 0.381692 0.980078
Si Si5 0.057047 0.067944 0.556073
O O1 0.249607 0.723208 0.878011
O O2 0.184049 0.532857 0.948057
O O3 0.996450 0.559903 0.867002
O O4 0.989430 0.766159 0.936608
O O5 0.523588 0.782730 0.912598
O O6 0.466435 0.789154 0.812839
O O7 0.484717 0.531131 0.852423
O O8 0.254156 0.030366 0.441128
O O9 0.549000 0.979406 0.475958
O O10 0.268611 0.268611 0.000000
O O11 0.010307 0.010307 0.500000
#
# Coordination Sequence:
#
# PCOD9551114 Si02
#       5
#     8   8   8   8   8
#     4  11  24  44  69  99 136 183 231 286 350 419
#     4  11  25  41  67  98 132 183 234 287 344 423
#     4  11  24  43  66  99 139 176 233 288 353 408
#     4  11  22  41  68  97 134 177 231 290 338 423
#     4  12  24  43  69  99 139 180 228 291 358 419
#
# _framework density 20.696853999999998
#
# number of rings (size 3 to 8) (size 9 to 14) (size 15 to 20)
#    0.000    0.800    4.000    4.200    2.800    0.000 
#    0.000    1.000    0.000    0.000    0.000    0.000 
#    0.000    0.000    0.000    0.000    0.000    0.000 
#
# Total GULP energy -223128.438572 kJ/mol
# GULP energy per Si atom -5578.210964 kJ/mol
# Density = 2.064975 g / cm^3
# Si number density = 20.696854 Si / 1000 Ang^3
#
#
#
# Elastic Constant Matrix: (Units=GPa)
#
#
# Indices 1 2 3 4 5 6 
#
# 1 70.0899 20.0824 33.3655 0.0000 0.0000 0.0000
# 2 20.0824 70.0899 33.3655 0.0000 0.0000 0.0000
# 3 33.3655 33.3655 112.8018 0.0000 0.0000 0.0000
# 4 0.0000 0.0000 0.0000 28.3964 0.0000 0.0000
# 5 0.0000 0.0000 0.0000 0.0000 28.3964 0.0000
# 6 0.0000 0.0000 0.0000 0.0000 0.0000 34.3371
#
#
#
# Elastic Compliance Matrix: (Units=1/GPa)
#
#
# Indices 1 2 3 4 5 6 
#
# 1 0.017097 -0.002900 -0.004200 0.000000 0.000000 0.000000
# 2 -0.002900 0.017097 -0.004200 0.000000 0.000000 0.000000
# 3 -0.004200 -0.004200 0.011349 0.000000 0.000000 0.000000
# 4 0.000000 0.000000 0.000000 0.035216 0.000000 0.000000
# 5 0.000000 0.000000 0.000000 0.000000 0.035216 0.000000
# 6 0.000000 0.000000 0.000000 0.000000 0.000000 0.029123
#
#
# Mechanical properties :
#
#
# Convention : Reuss Voigt Hill
#
# Bulk Modulus (GPa) = 43.57917 47.40095 45.49006
# Shear Modulus (GPa) = 28.51524 29.30387 28.90956
#
# Velocity S-wave (km/s) = 3.71584 3.76688 3.74145
# Velocity P-wave (km/s) = 6.28583 6.47081 6.37899
#
# Compressibility (1/GPa) = 0.02294674
#
# Stress axis : x y z
#
# Youngs Moduli (GPa) = 58.48860 58.48860 88.10998
#
# Poissons Ratio (x) = 0.16960 0.37002
# Poissons Ratio (y) = 0.16960 0.37002
# Poissons Ratio (z) = 0.24562 0.24562
#
# Static dielectric constant tensor:
#      x y z
#    x 1.765690 0.000000 0.000000 
#    y 0.000000 1.765690 0.000000 
#    z 0.000000 0.000000 1.770970 
# 
# From -- ./inp_files/3782.got.cif
#   From: 2010.05.17/outbox.cif.g08.bks.cpg/sg96_2_cif.got.tgz:3782.got - 2010.06.03 19:52:08.
