data_PCOD9551069
_publ_section_title
;
Structure prediction by ZEFSAII (Michael W. Deem and Ramdas Pophale) SiO2 
 PCOD9551069
Probable space group: P 43 21 2
;
_chemical_formula_sum "Si O2"
_cell_formula_units_Z 20
_cell_length_a 9.533942
_cell_length_b 9.533942
_cell_length_c 8.040436
_cell_angle_alpha 90.000000
_cell_angle_beta 90.000000
_cell_angle_gamma 90.000000
_cell_volume 730.843873
_symmetry_space_group_name_H-M "P 43 21 2"
_symmetry_group_IT_number 96
_symmetry_cell_setting 'tetragonal'
loop_
_space_group_symop_operation_xyz
x,y,z
1/2-y,1/2+x,3/4+z
-x,-y,1/2+z
1/2+y,1/2-x,1/4+z
1/2+x,1/2-y,1/4-z
1/2-x,1/2+y,3/4-z
y,x,-z
-y,-x,1/2-z
loop_
_atom_site_type_symbol
_atom_site_label
_atom_site_fract_x
_atom_site_fract_y
_atom_site_fract_z
Si Si1 0.489869 0.489869 0.500000
Si Si2 0.401483 0.301498 0.241537
Si Si3 0.134603 0.591866 0.019946
O O1 0.485837 0.338656 0.409624
O O2 0.592397 0.549089 0.641988
O O3 0.237450 0.279967 0.270590
O O4 0.199156 0.486050 0.879978
O O5 0.980399 0.622192 0.947244
#
# Coordination Sequence:
#
# PCOD9551069 Si02
#       3
#     4   8   8
#     4  10  24  46  78 100 152 200 246 302 396 438
#     4  11  26  48  75 108 151 203 244 318 380 452
#     4  12  28  47  74 112 150 198 261 310 383 456
#
# _framework density 27.365624
#
# number of rings (size 3 to 8) (size 9 to 14) (size 15 to 20)
#    0.000    0.800    4.000    0.000   16.800    0.000 
#    0.000    0.000    0.000    0.000    0.000    0.000 
#    0.000    0.000    0.000    0.000    0.000    0.000 
#
# Total GULP energy -111570.351966 kJ/mol
# GULP energy per Si atom -5578.517598 kJ/mol
# Density = 2.730334 g / cm^3
# Si number density = 27.365624 Si / 1000 Ang^3
#
#
#
# Elastic Constant Matrix: (Units=GPa)
#
#
# Indices 1 2 3 4 5 6 
#
# 1 107.8352 39.7722 7.1323 0.0000 0.0000 0.0000
# 2 39.7722 107.8352 7.1323 0.0000 0.0000 0.0000
# 3 7.1323 7.1323 33.1357 0.0000 0.0000 0.0000
# 4 0.0000 0.0000 0.0000 40.7615 0.0000 0.0000
# 5 0.0000 0.0000 0.0000 0.0000 40.7615 0.0000
# 6 0.0000 0.0000 0.0000 0.0000 0.0000 21.1634
#
#
#
# Elastic Compliance Matrix: (Units=1/GPa)
#
#
# Indices 1 2 3 4 5 6 
#
# 1 0.010805 -0.003887 -0.001489 0.000000 0.000000 0.000000
# 2 -0.003887 0.010805 -0.001489 0.000000 0.000000 0.000000
# 3 -0.001489 -0.001489 0.030820 0.000000 0.000000 0.000000
# 4 0.000000 0.000000 0.000000 0.024533 0.000000 0.000000
# 5 0.000000 0.000000 0.000000 0.000000 0.024533 0.000000
# 6 0.000000 0.000000 0.000000 0.000000 0.000000 0.047251
#
#
# Mechanical properties :
#
#
# Convention : Reuss Voigt Hill
#
# Bulk Modulus (GPa) = 25.83946 39.65330 32.74638
# Shear Modulus (GPa) = 28.50971 33.52190 31.01581
#
# Velocity S-wave (km/s) = 3.23121 3.50375 3.37023
# Velocity P-wave (km/s) = 4.83567 5.55787 5.20930
#
# Compressibility (1/GPa) = 0.03870051
#
# Stress axis : x y z
#
# Youngs Moduli (GPa) = 92.54589 92.54589 32.44641
#
# Poissons Ratio (x) = 0.35971 0.04832
# Poissons Ratio (y) = 0.35971 0.04832
# Poissons Ratio (z) = 0.13782 0.13782
#
# Static dielectric constant tensor:
#      x y z
#    x 2.161890 0.000000 0.000000 
#    y 0.000000 2.161890 0.000000 
#    z 0.000000 0.000000 2.262990 
# 
# From -- ./inp_files/934.got.cif
#   From: 2010.05.17/outbox.cif.g08.bks.cpg/sg96_1_cif.got.tgz:934.got - 2010.06.03 19:52:08.
