data_PCOD9551126
_publ_section_title
;
Structure prediction by ZEFSAII (Michael W. Deem and Ramdas Pophale) SiO2 
 PCOD9551126
Probable space group: P 43 21 2
;
_chemical_formula_sum "Si O2"
_cell_formula_units_Z 24
_cell_length_a 7.381660
_cell_length_b 7.381660
_cell_length_c 19.579825
_cell_angle_alpha 90.000000
_cell_angle_beta 90.000000
_cell_angle_gamma 90.000000
_cell_volume 1066.883212
_symmetry_space_group_name_H-M "P 43 21 2"
_symmetry_group_IT_number 96
_symmetry_cell_setting 'tetragonal'
loop_
_space_group_symop_operation_xyz
x,y,z
1/2-y,1/2+x,3/4+z
-x,-y,1/2+z
1/2+y,1/2-x,1/4+z
1/2+x,1/2-y,1/4-z
1/2-x,1/2+y,3/4-z
y,x,-z
-y,-x,1/2-z
loop_
_atom_site_type_symbol
_atom_site_label
_atom_site_fract_x
_atom_site_fract_y
_atom_site_fract_z
Si Si1 0.380877 0.459256 0.073229
Si Si2 0.547270 0.819681 0.009723
Si Si3 0.908889 0.511983 0.374785
O O1 0.469741 0.651335 0.054468
O O2 0.481827 0.308770 0.118936
O O3 0.182460 0.482552 0.101859
O O4 0.365061 0.365061 0.000000
O O5 0.479163 0.993751 0.051659
O O6 0.758904 0.758904 0.000000
O O7 0.469563 0.846008 0.933296
#
# Coordination Sequence:
#
# PCOD9551126 Si02
#       3
#     8   8   8
#     4  11  23  44  68 100 142 180 232 297 355 423
#     4  11  25  45  73 104 141 190 243 294 360 431
#     4  12  24  46  71 104 145 189 240 299 357 429
#
# _framework density 22.495432000000001
#
# number of rings (size 3 to 8) (size 9 to 14) (size 15 to 20)
#    0.000    0.667    3.333    6.000    0.000    0.000 
#    0.000    1.667    0.000    0.000    0.000    0.000 
#    0.000    0.000    0.000    0.000    0.000    0.000 
#
# Total GULP energy -133704.454693 kJ/mol
# GULP energy per Si atom -5571.018946 kJ/mol
# Density = 2.244423 g / cm^3
# Si number density = 22.495432 Si / 1000 Ang^3
#
#
#
# Elastic Constant Matrix: (Units=GPa)
#
#
# Indices 1 2 3 4 5 6 
#
# 1 80.5016 11.0195 0.3162 0.0000 0.0000 0.0000
# 2 11.0195 80.5016 0.3162 0.0000 0.0000 0.0000
# 3 0.3162 0.3162 70.6593 0.0000 0.0000 0.0000
# 4 0.0000 0.0000 0.0000 26.1324 0.0000 0.0000
# 5 0.0000 0.0000 0.0000 0.0000 26.1324 0.0000
# 6 0.0000 0.0000 0.0000 0.0000 0.0000 22.8762
#
#
#
# Elastic Compliance Matrix: (Units=1/GPa)
#
#
# Indices 1 2 3 4 5 6 
#
# 1 0.012659 -0.001733 -0.000049 0.000000 0.000000 0.000000
# 2 -0.001733 0.012659 -0.000049 0.000000 0.000000 0.000000
# 3 -0.000049 -0.000049 0.014153 0.000000 0.000000 0.000000
# 4 0.000000 0.000000 0.000000 0.038267 0.000000 0.000000
# 5 0.000000 0.000000 0.000000 0.000000 0.038267 0.000000
# 6 0.000000 0.000000 0.000000 0.000000 0.000000 0.043714
#
#
# Mechanical properties :
#
#
# Convention : Reuss Voigt Hill
#
# Bulk Modulus (GPa) = 27.92453 28.32960 28.12707
# Shear Modulus (GPa) = 28.51984 29.69559 29.10772
#
# Velocity S-wave (km/s) = 3.56449 3.63722 3.60104
# Velocity P-wave (km/s) = 5.42044 5.50091 5.46082
#
# Compressibility (1/GPa) = 0.03581081
#
# Stress axis : x y z
#
# Youngs Moduli (GPa) = 78.99214 78.99214 70.65711
#
# Poissons Ratio (x) = 0.13687 0.00345
# Poissons Ratio (y) = 0.13687 0.00345
# Poissons Ratio (z) = 0.00386 0.00386
#
# Static dielectric constant tensor:
#      x y z
#    x 1.891540 0.000000 0.000000 
#    y 0.000000 1.891540 0.000000 
#    z 0.000000 0.000000 1.930840 
# 
# From -- ./inp_files/2451.got.cif
#   From: 2010.05.17/outbox.cif.g08.bks.cpg/sg96_2_cif.got.tgz:2451.got - 2010.06.03 19:52:08.
