data_PCOD9551490
_publ_section_title
;
Structure prediction by ZEFSAII (Michael W. Deem and Ramdas Pophale) SiO2 
 PCOD9551490
Probable space group: I 4 2 2 
;
_chemical_formula_sum "Si O2"
_cell_formula_units_Z 60
_cell_length_a 18.385794
_cell_length_b 18.385794
_cell_length_c 8.169929
_cell_angle_alpha 90.000000
_cell_angle_beta 90.000000
_cell_angle_gamma 90.000000
_cell_volume 2761.741729
_symmetry_space_group_name_H-M "I 4 2 2 "
_symmetry_group_IT_number 97
_symmetry_cell_setting 'tetragonal'
loop_
_space_group_symop_operation_xyz
x,y,z
-y,x,z
-x,-y,z
y,-x,z
x,-y,-z
-x,y,-z
y,x,-z
-y,-x,-z
1/2+x,1/2+y,1/2+z
1/2-y,1/2+x,1/2+z
1/2-x,1/2-y,1/2+z
1/2+y,1/2-x,1/2+z
1/2+x,1/2-y,1/2-z
1/2-x,1/2+y,1/2-z
1/2+y,1/2+x,1/2-z
1/2-y,1/2-x,1/2-z
loop_
_atom_site_type_symbol
_atom_site_label
_atom_site_fract_x
_atom_site_fract_y
_atom_site_fract_z
Si Si1 0.634348 0.634348 0.000000
Si Si2 0.394768 0.222120 0.199607
Si Si3 0.869363 0.500000 0.000000
Si Si4 0.262668 0.500000 0.500000
Si Si5 0.000000 0.500000 0.750000
Si Si6 0.113210 0.043774 0.794883
O O1 0.631230 0.700213 0.129840
O O2 0.634974 0.562611 0.111146
O O3 0.326665 0.173336 0.250000
O O4 0.452514 0.225517 0.353666
O O5 0.433685 0.182393 0.046846
O O6 0.925969 0.496531 0.851557
O O7 0.315784 0.444387 0.403529
O O8 0.039705 0.089284 0.822679
#
# Coordination Sequence:
#
# PCOD9551490 Si02
#       6
#     8  16   8   8   4  16
#     4  12  26  49  68 108 154 200 239 286 392 456
#     4  12  29  48  74 107 151 202 242 308 370 460
#     4  11  24  50  76 116 139 184 252 316 379 410
#     4  12  26  47  72 107 146 190 256 298 368 435
#     4  10  24  46  88 110 136 182 260 326 368 422
#     4  11  23  43  74 107 139 186 245 311 354 425
#
# _framework density 21.72542
#
# number of rings (size 3 to 8) (size 9 to 14) (size 15 to 20)
#    0.000    0.533    4.000    3.200    3.733    4.267 
#    2.400    0.000    0.000    0.000    0.000    0.000 
#    0.000    0.000    0.000    0.000    0.000    0.000 
#
# Total GULP energy -167409.440225 kJ/mol
# GULP energy per Si atom -5580.314674 kJ/mol
# Density = 2.167597 g / cm^3
# Si number density = 21.725420 Si / 1000 Ang^3
#
#
#
# Elastic Constant Matrix: (Units=GPa)
#
#
# Indices 1 2 3 4 5 6 
#
# 1 90.1643 40.0381 42.3680 0.0000 0.0000 0.0000
# 2 40.0381 90.1621 42.3677 0.0000 0.0000 0.0000
# 3 42.3680 42.3677 112.3984 0.0000 0.0000 0.0000
# 4 0.0000 0.0000 0.0000 -0.7754 0.0000 0.0000
# 5 0.0000 0.0000 0.0000 0.0000 -0.7717 0.0000
# 6 0.0000 0.0000 0.0000 0.0000 0.0000 32.7621
#
#
#
# Elastic Compliance Matrix: (Units=1/GPa)
#
#
# Indices 1 2 3 4 5 6 
#
# 1 0.015063 -0.004887 -0.003836 0.000000 0.000000 0.000000
# 2 -0.004887 0.015064 -0.003836 0.000000 0.000000 0.000000
# 3 -0.003836 -0.003836 0.011789 0.000000 0.000000 0.000000
# 4 0.000000 0.000000 0.000000 -1.289595 0.000000 0.000000
# 5 0.000000 0.000000 0.000000 0.000000 -1.295897 0.000000
# 6 0.000000 0.000000 0.000000 0.000000 0.000000 0.030523
#
#
# Mechanical properties :
#
#
# Convention : Reuss Voigt Hill
#
# Bulk Modulus (GPa) = 59.52968 60.25247 59.89107
# Shear Modulus (GPa) = -2.01423 17.43973 7.71275
#
# Velocity S-wave (km/s) = -0.96392 2.83633 1.88622
# Velocity P-wave (km/s) = 5.12070 6.20646 5.68954
#
# Compressibility (1/GPa) = 0.01679834
#
# Stress axis : x y z
#
# Youngs Moduli (GPa) = 66.38629 66.38451 84.82522
#
# Poissons Ratio (x) = 0.32439 0.32540
# Poissons Ratio (y) = 0.32440 0.32541
# Poissons Ratio (z) = 0.25466 0.25466
#
# Static dielectric constant tensor:
#      x y z
#    x 1.784920 0.000000 0.000000 
#    y 0.000000 1.784930 0.000000 
#    z 0.000000 0.000000 1.881030 
# 
# From -- ./inp_files/1922.got.cif
#   From: 2010.05.17/outbox.cif.g08.bks.cpg/sg97_1_cif.got.tgz:1922.got - 2010.06.03 19:55:32.
