data_PCOD9551796
_publ_section_title
;
Structure prediction by ZEFSAII (Michael W. Deem and Ramdas Pophale) SiO2 
 PCOD9551796
Probable space group: I 41 2 2
;
_chemical_formula_sum "Si O2"
_cell_formula_units_Z 112
_cell_length_a 15.126865
_cell_length_b 15.126865
_cell_length_c 24.325617
_cell_angle_alpha 90.000000
_cell_angle_beta 90.000000
_cell_angle_gamma 90.000000
_cell_volume 5566.237421
_symmetry_space_group_name_H-M "I 41 2 2"
_symmetry_group_IT_number 98
_symmetry_cell_setting 'tetragonal'
loop_
_space_group_symop_operation_xyz
x,y,z
-y,1/2+x,1/4+z
-x,-y,z
y,1/2-x,1/4+z
x,1/2-y,1/4-z
-x,1/2+y,1/4-z
y,x,-z
-y,-x,-z
1/2+x,1/2+y,1/2+z
1/2-y,x,3/4+z
1/2-x,1/2-y,1/2+z
1/2+y,-x,3/4+z
1/2+x,-y,3/4-z
1/2-x,y,3/4-z
1/2+y,1/2+x,1/2-z
1/2-y,1/2-x,1/2-z
loop_
_atom_site_type_symbol
_atom_site_label
_atom_site_fract_x
_atom_site_fract_y
_atom_site_fract_z
Si Si1 0.192449 0.829214 0.089792
Si Si2 0.983162 0.399544 0.489872
Si Si3 0.382869 0.245729 0.782942
Si Si4 0.288877 0.424371 0.814324
Si Si5 0.485769 0.220632 0.895243
Si Si6 0.858498 0.004874 0.513567
Si Si7 0.220475 0.577786 0.486519
O O1 0.235297 0.750000 0.125000
O O2 0.104530 0.783295 0.064438
O O3 0.185987 0.919247 0.124095
O O4 0.245900 0.864576 0.037796
O O5 0.879264 0.388754 0.480426
O O6 0.000000 0.500000 0.479360
O O7 0.015683 0.374749 0.551197
O O8 0.038567 0.344189 0.445107
O O9 0.331581 0.168420 0.750000
O O10 0.316096 0.327750 0.792037
O O11 0.418677 0.221200 0.844245
O O12 0.473689 0.273333 0.751269
O O13 0.250000 0.417399 0.875000
O O14 0.217391 0.476960 0.778485
O O15 0.496753 0.316089 0.925429
O O16 0.934222 0.934222 0.500000
O O17 0.899777 0.100224 0.500000
#
# Coordination Sequence:
#
# PCOD9551796 Si02
#       7
#    16  16  16  16  16  16  16
#     4  10  20  38  64  92 128 169 209 273 330 402
#     4  11  22  42  65  93 132 169 219 278 340 409
#     4  11  24  44  66  94 132 178 225 282 337 408
#     4  11  24  42  66  95 130 174 223 278 341 409
#     4  10  23  40  66 100 133 174 228 282 339 406
#     4  10  22  42  66  97 136 175 226 282 340 409
#     4  10  22  40  63  95 129 167 220 269 338 406
#
# _framework density 20.121313000000001
#
# number of rings (size 3 to 8) (size 9 to 14) (size 15 to 20)
#    0.000    1.571    2.857    1.286    0.000    7.429 
#    2.571    5.000    0.000    0.000    0.000    0.000 
#    0.000    0.000    0.000    0.000    0.000    0.000 
#
# Total GULP energy -311964.097950 kJ/mol
# GULP energy per Si atom -5570.787463 kJ/mol
# Density = 2.007552 g / cm^3
# Si number density = 20.121313 Si / 1000 Ang^3
#
#
#
# Elastic Constant Matrix: (Units=GPa)
#
#
# Indices 1 2 3 4 5 6 
#
# 1 66.2922 41.1485 52.8133 0.0000 0.0000 0.0000
# 2 41.1485 66.2943 52.8132 0.0000 0.0000 0.0000
# 3 52.8133 52.8132 130.8562 0.0000 0.0000 0.0000
# 4 0.0000 0.0000 0.0000 26.5709 0.0000 0.0000
# 5 0.0000 0.0000 0.0000 0.0000 26.5704 0.0000
# 6 0.0000 0.0000 0.0000 0.0000 0.0000 36.3249
#
#
#
# Elastic Compliance Matrix: (Units=1/GPa)
#
#
# Indices 1 2 3 4 5 6 
#
# 1 0.027600 -0.012170 -0.006228 0.000000 0.000000 0.000000
# 2 -0.012170 0.027599 -0.006227 0.000000 0.000000 0.000000
# 3 -0.006228 -0.006227 0.012669 0.000000 0.000000 0.000000
# 4 0.000000 0.000000 0.000000 0.037635 0.000000 0.000000
# 5 0.000000 0.000000 0.000000 0.000000 0.037636 0.000000
# 6 0.000000 0.000000 0.000000 0.000000 0.000000 0.027529
#
#
# Mechanical properties :
#
#
# Convention : Reuss Voigt Hill
#
# Bulk Modulus (GPa) = 53.71044 61.88806 57.79925
# Shear Modulus (GPa) = 22.11182 25.67111 23.89147
#
# Velocity S-wave (km/s) = 3.31860 3.57573 3.44956
# Velocity P-wave (km/s) = 6.43703 6.91896 6.68234
#
# Compressibility (1/GPa) = 0.01861835
#
# Stress axis : x y z
#
# Youngs Moduli (GPa) = 36.23157 36.23335 78.93532
#
# Poissons Ratio (x) = 0.44096 0.49158
# Poissons Ratio (y) = 0.44094 0.49153
# Poissons Ratio (z) = 0.22563 0.22562
#
# Static dielectric constant tensor:
#      x y z
#    x 1.754110 0.000000 0.000000 
#    y 0.000000 1.754140 0.000000 
#    z 0.000000 0.000000 1.781570 
# 
# From -- ./inp_files/10110.got.cif
#   From: 2010.05.17/outbox.cif.g08.bks.cpg/sg98_6_cif.got.tgz:10110.got - 2010.06.03 20:00:51.
