data_PCOD9551574
_publ_section_title
;
Structure prediction by ZEFSAII (Michael W. Deem and Ramdas Pophale) SiO2 
 PCOD9551574
Probable space group: I 4 2 2 
;
_chemical_formula_sum "Si O2"
_cell_formula_units_Z 48
_cell_length_a 11.456234
_cell_length_b 11.456234
_cell_length_c 18.272901
_cell_angle_alpha 90.000000
_cell_angle_beta 90.000000
_cell_angle_gamma 90.000000
_cell_volume 2398.232327
_symmetry_space_group_name_H-M "I 4 2 2 "
_symmetry_group_IT_number 97
_symmetry_cell_setting 'tetragonal'
loop_
_space_group_symop_operation_xyz
x,y,z
-y,x,z
-x,-y,z
y,-x,z
x,-y,-z
-x,y,-z
y,x,-z
-y,-x,-z
1/2+x,1/2+y,1/2+z
1/2-y,1/2+x,1/2+z
1/2-x,1/2-y,1/2+z
1/2+y,1/2-x,1/2+z
1/2+x,1/2-y,1/2-z
1/2-x,1/2+y,1/2-z
1/2+y,1/2+x,1/2-z
1/2-y,1/2-x,1/2-z
loop_
_atom_site_type_symbol
_atom_site_label
_atom_site_fract_x
_atom_site_fract_y
_atom_site_fract_z
Si Si1 0.549436 0.308815 0.592699
Si Si2 0.635600 0.183796 0.017582
Si Si3 0.938405 0.373807 0.827451
O O1 0.631822 0.421394 0.585865
O O2 0.601202 0.213201 0.536048
O O3 0.533424 0.230418 0.665511
O O4 0.642761 0.145153 0.102368
O O5 0.500000 0.174105 0.000000
O O6 0.689908 0.310093 0.000000
O O7 0.873930 0.373930 0.750000
O O8 0.000000 0.500000 0.834402
#
# Coordination Sequence:
#
# PCOD9551574 Si02
#       3
#    16  16  16
#     4  11  24  43  74 110 134 171 238 305 349 402
#     4  12  25  44  73  99 136 187 239 286 343 427
#     4  11  24  43  66 101 141 185 224 280 358 420
#
# _framework density 20.014741999999998
#
# number of rings (size 3 to 8) (size 9 to 14) (size 15 to 20)
#    0.000    0.667    6.667    1.000    0.000    0.333 
#   12.000    0.000    0.000    0.000    0.000    0.000 
#    0.000    0.000    0.000    0.000    0.000    0.000 
#
# Total GULP energy -133652.899594 kJ/mol
# GULP energy per Si atom -5568.870816 kJ/mol
# Density = 1.996919 g / cm^3
# Si number density = 20.014742 Si / 1000 Ang^3
#
#
#
# Elastic Constant Matrix: (Units=GPa)
#
#
# Indices 1 2 3 4 5 6 
#
# 1 164.6228 55.1905 51.8181 0.0000 0.0000 0.0000
# 2 55.1905 164.6204 51.8178 0.0000 0.0000 0.0000
# 3 51.8181 51.8178 155.4937 0.0000 0.0000 0.0000
# 4 0.0000 0.0000 0.0000 24.0140 0.0000 0.0000
# 5 0.0000 0.0000 0.0000 0.0000 24.0135 0.0000
# 6 0.0000 0.0000 0.0000 0.0000 0.0000 33.4842
#
#
#
# Elastic Compliance Matrix: (Units=1/GPa)
#
#
# Indices 1 2 3 4 5 6 
#
# 1 0.007268 -0.001870 -0.001799 0.000000 0.000000 0.000000
# 2 -0.001870 0.007268 -0.001799 0.000000 0.000000 0.000000
# 3 -0.001799 -0.001799 0.007630 0.000000 0.000000 0.000000
# 4 0.000000 0.000000 0.000000 0.041642 0.000000 0.000000
# 5 0.000000 0.000000 0.000000 0.000000 0.041643 0.000000
# 6 0.000000 0.000000 0.000000 0.000000 0.000000 0.029865
#
#
# Mechanical properties :
#
#
# Convention : Reuss Voigt Hill
#
# Bulk Modulus (GPa) = 89.04710 89.15443 89.10076
# Shear Modulus (GPa) = 33.33448 38.02969 35.68208
#
# Velocity S-wave (km/s) = 4.08548 4.36372 4.22689
# Velocity P-wave (km/s) = 8.17571 8.36842 8.27263
#
# Compressibility (1/GPa) = 0.01123001
#
# Stress axis : x y z
#
# Youngs Moduli (GPa) = 137.59486 137.59281 131.06288
#
# Poissons Ratio (x) = 0.25735 0.23574
# Poissons Ratio (y) = 0.25736 0.23574
# Poissons Ratio (z) = 0.24748 0.24748
#
# Static dielectric constant tensor:
#      x y z
#    x 1.778440 0.000000 0.000000 
#    y 0.000000 1.778440 0.000000 
#    z 0.000000 0.000000 1.741850 
# 
# From -- ./inp_files/5298.got.cif
#   From: 2010.05.17/outbox.cif.g08.bks.cpg/sg97_3_cif.got.tgz:5298.got - 2010.06.03 19:55:32.
