data_PCOD9551906
_publ_section_title
;
Structure prediction by ZEFSAII (Michael W. Deem and Ramdas Pophale) SiO2 
 PCOD9551906
Probable space group: I 41 2 2
;
_chemical_formula_sum "Si O2"
_cell_formula_units_Z 96
_cell_length_a 14.488480
_cell_length_b 14.488480
_cell_length_c 21.318756
_cell_angle_alpha 90.000000
_cell_angle_beta 90.000000
_cell_angle_gamma 90.000000
_cell_volume 4475.149108
_symmetry_space_group_name_H-M "I 41 2 2"
_symmetry_group_IT_number 98
_symmetry_cell_setting 'tetragonal'
loop_
_space_group_symop_operation_xyz
x,y,z
-y,1/2+x,1/4+z
-x,-y,z
y,1/2-x,1/4+z
x,1/2-y,1/4-z
-x,1/2+y,1/4-z
y,x,-z
-y,-x,-z
1/2+x,1/2+y,1/2+z
1/2-y,x,3/4+z
1/2-x,1/2-y,1/2+z
1/2+y,-x,3/4+z
1/2+x,-y,3/4-z
1/2-x,y,3/4-z
1/2+y,1/2+x,1/2-z
1/2-y,1/2-x,1/2-z
loop_
_atom_site_type_symbol
_atom_site_label
_atom_site_fract_x
_atom_site_fract_y
_atom_site_fract_z
Si Si1 0.125966 0.248326 0.962689
Si Si2 0.006134 0.357611 0.728912
Si Si3 0.026568 0.699800 0.059230
Si Si4 0.099949 0.455517 0.907545
Si Si5 0.934430 0.331892 0.472718
Si Si6 0.049592 0.414445 0.367615
O O1 0.116357 0.346624 0.925575
O O2 0.109772 0.159960 0.918517
O O3 0.220961 0.220961 0.000000
O O4 0.039603 0.247858 0.011059
O O5 0.107554 0.392447 0.750000
O O6 0.016717 0.343368 0.654577
O O7 0.937506 0.437506 0.750000
O O8 0.959864 0.272485 0.763983
O O9 0.044165 0.750000 0.125000
O O10 0.965214 0.611294 0.079720
O O11 0.121490 0.666259 0.027469
O O12 0.000000 0.500000 0.890168
O O13 0.121050 0.509345 0.971180
O O14 0.972889 0.356890 0.404453
O O15 0.000000 0.500000 0.332188
#
# Coordination Sequence:
#
# PCOD9551906 Si02
#       6
#    16  16  16  16  16  16
#     4  12  24  41  71 104 143 188 251 303 365 446
#     4  11  24  44  69 102 146 188 248 304 364 450
#     4  11  22  45  66  99 145 189 238 308 368 438
#     4  12  22  44  71 104 148 202 229 309 390 442
#     4  11  23  43  68 100 143 192 244 296 375 438
#     4  10  22  42  65  94 135 185 238 297 368 429
#
# _framework density 21.451798
#
# number of rings (size 3 to 8) (size 9 to 14) (size 15 to 20)
#    0.000    0.833    6.667    2.000    0.000    1.000 
#    6.000    5.000    0.000    0.000    0.000    0.000 
#    0.000    0.000    0.000    0.000    0.000    0.000 
#
# Total GULP energy -267336.852989 kJ/mol
# GULP energy per Si atom -5569.517771 kJ/mol
# Density = 2.140297 g / cm^3
# Si number density = 21.451798 Si / 1000 Ang^3
#
#
#
# Elastic Constant Matrix: (Units=GPa)
#
#
# Indices 1 2 3 4 5 6 
#
# 1 98.2830 39.0717 31.5580 0.0000 0.0000 0.0000
# 2 39.0717 98.2843 31.5575 0.0000 0.0000 0.0000
# 3 31.5580 31.5575 82.2334 0.0000 0.0000 0.0000
# 4 0.0000 0.0000 0.0000 25.3950 0.0000 0.0000
# 5 0.0000 0.0000 0.0000 0.0000 25.3956 0.0000
# 6 0.0000 0.0000 0.0000 0.0000 0.0000 30.5408
#
#
#
# Elastic Compliance Matrix: (Units=1/GPa)
#
#
# Indices 1 2 3 4 5 6 
#
# 1 0.012864 -0.004025 -0.003392 0.000000 0.000000 0.000000
# 2 -0.004025 0.012864 -0.003392 0.000000 0.000000 0.000000
# 3 -0.003392 -0.003392 0.014764 0.000000 0.000000 0.000000
# 4 0.000000 0.000000 0.000000 0.039378 0.000000 0.000000
# 5 0.000000 0.000000 0.000000 0.000000 0.039377 0.000000
# 6 0.000000 0.000000 0.000000 0.000000 0.000000 0.032743
#
#
# Mechanical properties :
#
#
# Convention : Reuss Voigt Hill
#
# Bulk Modulus (GPa) = 52.98340 53.68613 53.33476
# Shear Modulus (GPa) = 27.79348 28.04051 27.91699
#
# Velocity S-wave (km/s) = 3.60338 3.61936 3.61138
# Velocity P-wave (km/s) = 6.48575 6.52281 6.50431
#
# Compressibility (1/GPa) = 0.01887384
#
# Stress axis : x y z
#
# Youngs Moduli (GPa) = 77.73692 77.73846 67.73251
#
# Poissons Ratio (x) = 0.31288 0.22976
# Poissons Ratio (y) = 0.31287 0.22975
# Poissons Ratio (z) = 0.26370 0.26369
#
# Static dielectric constant tensor:
#      x y z
#    x 1.917710 0.000000 0.000000 
#    y 0.000000 1.917710 0.000000 
#    z 0.000000 0.000000 1.775390 
# 
# From -- ./inp_files/8920.got.cif
#   From: 2010.05.17/outbox.cif.g08.bks.cpg/sg98_5_cif.got.tgz:8920.got - 2010.06.03 20:00:51.
