data_PCOD9551931
_publ_section_title
;
Structure prediction by ZEFSAII (Michael W. Deem and Ramdas Pophale) SiO2 
 PCOD9551931
Probable space group: I 41 2 2
;
_chemical_formula_sum "Si O2"
_cell_formula_units_Z 48
_cell_length_a 8.451572
_cell_length_b 8.451572
_cell_length_c 26.157332
_cell_angle_alpha 90.000000
_cell_angle_beta 90.000000
_cell_angle_gamma 90.000000
_cell_volume 1868.393879
_symmetry_space_group_name_H-M "I 41 2 2"
_symmetry_group_IT_number 98
_symmetry_cell_setting 'tetragonal'
loop_
_space_group_symop_operation_xyz
x,y,z
-y,1/2+x,1/4+z
-x,-y,z
y,1/2-x,1/4+z
x,1/2-y,1/4-z
-x,1/2+y,1/4-z
y,x,-z
-y,-x,-z
1/2+x,1/2+y,1/2+z
1/2-y,x,3/4+z
1/2-x,1/2-y,1/2+z
1/2+y,-x,3/4+z
1/2+x,-y,3/4-z
1/2-x,y,3/4-z
1/2+y,1/2+x,1/2-z
1/2-y,1/2-x,1/2-z
loop_
_atom_site_type_symbol
_atom_site_label
_atom_site_fract_x
_atom_site_fract_y
_atom_site_fract_z
Si Si1 0.000000 0.500000 0.546779
Si Si2 0.593947 0.250000 0.625000
Si Si3 0.447275 0.751629 0.286282
Si Si4 0.183944 0.195488 0.941945
O O1 0.920583 0.382452 0.506461
O O2 0.853797 0.587614 0.574320
O O3 0.704942 0.154850 0.585830
O O4 0.461433 0.161068 0.659126
O O5 0.394166 0.894166 0.250000
O O6 0.629792 0.745133 0.304304
O O7 0.148900 0.148900 0.000000
#
# Coordination Sequence:
#
# PCOD9551931 Si02
#       4
#     8   8  16  16
#     4  10  22  48  70 106 154 214 256 338 432 482
#     4  12  22  46  78 114 166 220 294 350 432 510
#     4  11  24  44  77 113 157 213 274 354 421 508
#     4  10  22  46  73 108 166 210 276 350 418 516
#
# _framework density 25.690515999999999
#
# number of rings (size 3 to 8) (size 9 to 14) (size 15 to 20)
#    0.000    1.333    6.667    0.000    0.000   11.333 
#    0.000   15.000    0.000    0.000    0.000    0.000 
#    0.000    0.000    0.000    0.000    0.000    0.000 
#
# Total GULP energy -133983.550842 kJ/mol
# GULP energy per Si atom -5582.647952 kJ/mol
# Density = 2.563204 g / cm^3
# Si number density = 25.690516 Si / 1000 Ang^3
#
#
#
# Elastic Constant Matrix: (Units=GPa)
#
#
# Indices 1 2 3 4 5 6 
#
# 1 139.7673 100.2336 65.6465 0.0000 0.0000 0.0000
# 2 100.2336 139.7674 65.6465 0.0000 0.0000 0.0000
# 3 65.6465 65.6465 157.2901 0.0000 0.0000 0.0000
# 4 0.0000 0.0000 0.0000 59.1955 0.0000 0.0000
# 5 0.0000 0.0000 0.0000 0.0000 59.1955 0.0000
# 6 0.0000 0.0000 0.0000 0.0000 0.0000 53.9694
#
#
#
# Elastic Compliance Matrix: (Units=1/GPa)
#
#
# Indices 1 2 3 4 5 6 
#
# 1 0.015347 -0.009948 -0.002254 0.000000 0.000000 0.000000
# 2 -0.009948 0.015347 -0.002254 0.000000 0.000000 0.000000
# 3 -0.002254 -0.002254 0.008239 0.000000 0.000000 0.000000
# 4 0.000000 0.000000 0.000000 0.016893 0.000000 0.000000
# 5 0.000000 0.000000 0.000000 0.000000 0.016893 0.000000
# 6 0.000000 0.000000 0.000000 0.000000 0.000000 0.018529
#
#
# Mechanical properties :
#
#
# Convention : Reuss Voigt Hill
#
# Bulk Modulus (GPa) = 99.76483 99.98644 99.87563
# Shear Modulus (GPa) = 40.48617 48.15863 44.32240
#
# Velocity S-wave (km/s) = 3.97409 4.33433 4.15811
# Velocity P-wave (km/s) = 7.74439 8.00329 7.87490
#
# Compressibility (1/GPa) = 0.01002357
#
# Stress axis : x y z
#
# Youngs Moduli (GPa) = 65.15876 65.15877 121.37806
#
# Poissons Ratio (x) = 0.64818 0.27353
# Poissons Ratio (y) = 0.64818 0.27353
# Poissons Ratio (z) = 0.14684 0.14684
#
# Static dielectric constant tensor:
#      x y z
#    x 1.842730 0.000000 0.000000 
#    y 0.000000 1.842730 0.000000 
#    z 0.000000 0.000000 2.136820 
# 
# From -- ./inp_files/11497.got.cif
#   From: 2010.05.17/outbox.cif.g08.bks.cpg/sg98_6_cif.got.tgz:11497.got - 2010.06.03 20:00:51.
