data_PCOD9551023
_publ_section_title
;
Structure prediction by ZEFSAII (Michael W. Deem and Ramdas Pophale) SiO2 
 PCOD9551023
Probable space group: P 43 21 2
;
_chemical_formula_sum "Si O2"
_cell_formula_units_Z 32
_cell_length_a 8.516796
_cell_length_b 8.516796
_cell_length_c 18.189500
_cell_angle_alpha 90.000000
_cell_angle_beta 90.000000
_cell_angle_gamma 90.000000
_cell_volume 1319.390191
_symmetry_space_group_name_H-M "P 43 21 2"
_symmetry_group_IT_number 96
_symmetry_cell_setting 'tetragonal'
loop_
_space_group_symop_operation_xyz
x,y,z
1/2-y,1/2+x,3/4+z
-x,-y,1/2+z
1/2+y,1/2-x,1/4+z
1/2+x,1/2-y,1/4-z
1/2-x,1/2+y,3/4-z
y,x,-z
-y,-x,1/2-z
loop_
_atom_site_type_symbol
_atom_site_label
_atom_site_fract_x
_atom_site_fract_y
_atom_site_fract_z
Si Si1 0.706748 0.706748 0.000000
Si Si2 0.327092 0.154401 0.252804
Si Si3 0.385144 0.955230 0.847024
Si Si4 0.416407 0.416407 0.000000
Si Si5 0.093936 0.250338 0.358009
O O1 0.520672 0.747226 0.994714
O O2 0.769623 0.800018 0.070486
O O3 0.471302 0.134254 0.308340
O O4 0.378435 0.187232 0.170141
O O5 0.218414 0.283859 0.292107
O O6 0.253129 0.950625 0.784790
O O7 0.464348 0.118395 0.874050
O O8 0.516016 0.407643 0.924273
#
# Coordination Sequence:
#
# PCOD9551023 Si02
#       5
#     4   8   8   4   8
#     4  10  23  42  75 110 144 208 261 321 396 466
#     4  11  22  46  74 106 150 203 260 321 395 465
#     4  11  25  46  73 108 154 200 260 328 389 471
#     4  12  27  46  71 112 158 204 253 333 400 456
#     4  11  25  45  73 111 153 204 265 329 386 480
#
# _framework density 24.253627000000002
#
# number of rings (size 3 to 8) (size 9 to 14) (size 15 to 20)
#    0.000    1.000    5.000    0.750    3.500    0.000 
#    0.000    1.250    0.000    0.000    0.000    0.000 
#    0.000    0.000    0.000    0.000    0.000    0.000 
#
# Total GULP energy -178472.725609 kJ/mol
# GULP energy per Si atom -5577.272675 kJ/mol
# Density = 2.419842 g / cm^3
# Si number density = 24.253627 Si / 1000 Ang^3
#
#
#
# Elastic Constant Matrix: (Units=GPa)
#
#
# Indices 1 2 3 4 5 6 
#
# 1 52.4143 18.1818 54.2982 0.0000 0.0000 0.0000
# 2 18.1818 52.4143 54.2982 0.0000 0.0000 0.0000
# 3 54.2982 54.2982 200.3884 0.0000 0.0000 0.0000
# 4 0.0000 0.0000 0.0000 51.3182 0.0000 0.0000
# 5 0.0000 0.0000 0.0000 0.0000 51.3182 0.0000
# 6 0.0000 0.0000 0.0000 0.0000 0.0000 32.5904
#
#
#
# Elastic Compliance Matrix: (Units=1/GPa)
#
#
# Indices 1 2 3 4 5 6 
#
# 1 0.026751 -0.002461 -0.006582 0.000000 0.000000 0.000000
# 2 -0.002461 0.026751 -0.006582 0.000000 0.000000 0.000000
# 3 -0.006582 -0.006582 0.008557 0.000000 0.000000 0.000000
# 4 0.000000 0.000000 0.000000 0.019486 0.000000 0.000000
# 5 0.000000 0.000000 0.000000 0.000000 0.019486 0.000000
# 6 0.000000 0.000000 0.000000 0.000000 0.000000 0.030684
#
#
# Mechanical properties :
#
#
# Convention : Reuss Voigt Hill
#
# Bulk Modulus (GPa) = 32.45749 62.08594 47.27172
# Shear Modulus (GPa) = 28.86275 38.94129 33.90202
#
# Velocity S-wave (km/s) = 3.45344 4.01132 3.74279
# Velocity P-wave (km/s) = 5.41417 6.86356 6.18149
#
# Compressibility (1/GPa) = 0.03080953
#
# Stress axis : x y z
#
# Youngs Moduli (GPa) = 37.38218 37.38218 116.86270
#
# Poissons Ratio (x) = 0.09201 0.76914
# Poissons Ratio (y) = 0.09201 0.76914
# Poissons Ratio (z) = 0.24603 0.24603
#
# Static dielectric constant tensor:
#      x y z
#    x 2.036970 0.000000 0.000000 
#    y 0.000000 2.036970 0.000000 
#    z 0.000000 0.000000 1.907010 
# 
# From -- ./inp_files/3393.got.cif
#   From: 2010.05.17/outbox.cif.g08.bks.cpg/sg96_2_cif.got.tgz:3393.got - 2010.06.03 19:52:08.
