data_PCOD9551898
_publ_section_title
;
Structure prediction by ZEFSAII (Michael W. Deem and Ramdas Pophale) SiO2 
 PCOD9551898
Probable space group: I 41 2 2
;
_chemical_formula_sum "Si O2"
_cell_formula_units_Z 40
_cell_length_a 13.019964
_cell_length_b 13.019964
_cell_length_c 11.574286
_cell_angle_alpha 90.000000
_cell_angle_beta 90.000000
_cell_angle_gamma 90.000000
_cell_volume 1962.066742
_symmetry_space_group_name_H-M "I 41 2 2"
_symmetry_group_IT_number 98
_symmetry_cell_setting 'tetragonal'
loop_
_space_group_symop_operation_xyz
x,y,z
-y,1/2+x,1/4+z
-x,-y,z
y,1/2-x,1/4+z
x,1/2-y,1/4-z
-x,1/2+y,1/4-z
y,x,-z
-y,-x,-z
1/2+x,1/2+y,1/2+z
1/2-y,x,3/4+z
1/2-x,1/2-y,1/2+z
1/2+y,-x,3/4+z
1/2+x,-y,3/4-z
1/2-x,y,3/4-z
1/2+y,1/2+x,1/2-z
1/2-y,1/2-x,1/2-z
loop_
_atom_site_type_symbol
_atom_site_label
_atom_site_fract_x
_atom_site_fract_y
_atom_site_fract_z
Si Si1 0.364301 0.635700 0.000000
Si Si2 0.869540 0.929053 0.872258
Si Si3 0.134781 0.937765 0.248349
O O1 0.244209 0.614520 0.022473
O O2 0.391239 0.575510 0.883308
O O3 0.750000 0.902334 0.875000
O O4 0.943150 0.863014 0.788685
O O5 0.885355 0.045257 0.826993
O O6 0.913401 0.913401 0.000000
#
# Coordination Sequence:
#
# PCOD9551898 Si02
#       3
#     8  16  16
#     4  10  22  41  70 104 135 186 220 302 334 399
#     4  11  24  43  65 100 140 185 226 285 345 414
#     4  10  22  40  67 103 136 174 238 284 344 408
#
# _framework density 20.386668
#
# number of rings (size 3 to 8) (size 9 to 14) (size 15 to 20)
#    0.000    1.600    0.000    4.800    5.600    3.200 
#    7.200    0.000    0.000    0.000    0.000    0.000 
#    0.000    0.000    0.000    0.000    0.000    0.000 
#
# Total GULP energy -111746.467592 kJ/mol
# GULP energy per Si atom -5587.323380 kJ/mol
# Density = 2.034027 g / cm^3
# Si number density = 20.386668 Si / 1000 Ang^3
#
#
#
# Elastic Constant Matrix: (Units=GPa)
#
#
# Indices 1 2 3 4 5 6 
#
# 1 170.4213 47.9650 63.5781 0.0000 0.0000 0.0000
# 2 47.9650 170.4240 63.5780 0.0000 0.0000 0.0000
# 3 63.5781 63.5780 195.4560 0.0000 0.0000 0.0000
# 4 0.0000 0.0000 0.0000 28.0324 0.0000 0.0000
# 5 0.0000 0.0000 0.0000 0.0000 28.0339 0.0000
# 6 0.0000 0.0000 0.0000 0.0000 0.0000 24.8123
#
#
#
# Elastic Compliance Matrix: (Units=1/GPa)
#
#
# Indices 1 2 3 4 5 6 
#
# 1 0.006908 -0.001259 -0.001837 0.000000 0.000000 0.000000
# 2 -0.001259 0.006907 -0.001837 0.000000 0.000000 0.000000
# 3 -0.001837 -0.001837 0.006312 0.000000 0.000000 0.000000
# 4 0.000000 0.000000 0.000000 0.035673 0.000000 0.000000
# 5 0.000000 0.000000 0.000000 0.000000 0.035671 0.000000
# 6 0.000000 0.000000 0.000000 0.000000 0.000000 0.040303
#
#
# Mechanical properties :
#
#
# Convention : Reuss Voigt Hill
#
# Bulk Modulus (GPa) = 97.47058 98.50482 97.98770
# Shear Modulus (GPa) = 34.46844 40.25440 37.36142
#
# Velocity S-wave (km/s) = 4.11631 4.44841 4.28558
# Velocity P-wave (km/s) = 8.39683 8.64914 8.52392
#
# Compressibility (1/GPa) = 0.01025951
#
# Stress axis : x y z
#
# Youngs Moduli (GPa) = 144.76918 144.77192 158.43777
#
# Poissons Ratio (x) = 0.18221 0.29113
# Poissons Ratio (y) = 0.18221 0.29112
# Poissons Ratio (z) = 0.26601 0.26601
#
# Static dielectric constant tensor:
#      x y z
#    x 1.728700 0.000000 0.000000 
#    y 0.000000 1.728700 0.000000 
#    z 0.000000 0.000000 1.725480 
# 
# From -- ./inp_files/4347.got.cif
#   From: 2010.05.17/outbox.cif.g08.bks.cpg/sg98_3_cif.got.tgz:4347.got - 2010.06.03 20:00:51.
