data_PCOD9551055
_publ_section_title
;
Structure prediction by ZEFSAII (Michael W. Deem and Ramdas Pophale) SiO2 
 PCOD9551055
Probable space group: P 43 21 2
;
_chemical_formula_sum "Si O2"
_cell_formula_units_Z 48
_cell_length_a 8.021759
_cell_length_b 8.021759
_cell_length_c 33.427503
_cell_angle_alpha 90.000000
_cell_angle_beta 90.000000
_cell_angle_gamma 90.000000
_cell_volume 2151.013603
_symmetry_space_group_name_H-M "P 43 21 2"
_symmetry_group_IT_number 96
_symmetry_cell_setting 'tetragonal'
loop_
_space_group_symop_operation_xyz
x,y,z
1/2-y,1/2+x,3/4+z
-x,-y,1/2+z
1/2+y,1/2-x,1/4+z
1/2+x,1/2-y,1/4-z
1/2-x,1/2+y,3/4-z
y,x,-z
-y,-x,1/2-z
loop_
_atom_site_type_symbol
_atom_site_label
_atom_site_fract_x
_atom_site_fract_y
_atom_site_fract_z
Si Si1 0.329627 0.144521 0.535207
Si Si2 0.981208 0.302115 0.087123
Si Si3 0.854425 0.989407 0.539255
Si Si4 0.669170 0.327890 0.558138
Si Si5 0.963661 0.397105 0.258775
Si Si6 0.473044 0.247657 0.863982
O O1 0.241042 0.241042 0.500000
O O2 0.493196 0.248023 0.547673
O O3 0.237991 0.090767 0.575463
O O4 0.385272 0.971584 0.515756
O O5 0.981895 0.408087 0.045781
O O6 0.064013 0.424496 0.119594
O O7 0.085313 0.136804 0.073498
O O8 0.820615 0.209763 0.104034
O O9 0.802731 0.173866 0.554131
O O10 0.687947 0.904075 0.521629
O O11 0.977029 0.977029 0.500000
O O12 0.727439 0.472355 0.527753
O O13 0.669192 0.422293 0.600354
#
# Coordination Sequence:
#
# PCOD9551055 Si02
#       6
#     8   8   8   8   8   8
#     4  11  27  42  66 102 134 174 219 285 347 397
#     4  10  24  43  65  95 127 184 223 270 332 407
#     4   9  20  40  69  95 126 179 223 275 332 404
#     4  10  24  44  65 100 135 174 223 284 339 405
#     4   9  22  42  66  91 131 171 230 268 328 411
#     4  11  27  43  68 101 137 180 226 284 341 409
#
# _framework density 22.315064
#
# number of rings (size 3 to 8) (size 9 to 14) (size 15 to 20)
#    0.000    2.000    0.000    0.000   16.333    6.000 
#    0.000    0.000    0.000    0.000    0.000    0.000 
#    0.000    0.000    0.000    0.000    0.000    0.000 
#
# Total GULP energy -267837.651568 kJ/mol
# GULP energy per Si atom -5579.951074 kJ/mol
# Density = 2.226427 g / cm^3
# Si number density = 22.315064 Si / 1000 Ang^3
#
#
#
# Elastic Constant Matrix: (Units=GPa)
#
#
# Indices 1 2 3 4 5 6 
#
# 1 50.2327 -7.5031 26.4705 0.0000 0.0000 0.0000
# 2 -7.5031 50.2327 26.4705 0.0000 0.0000 0.0000
# 3 26.4705 26.4705 72.1782 0.0000 0.0000 0.0000
# 4 0.0000 0.0000 0.0000 15.4574 0.0000 0.0000
# 5 0.0000 0.0000 0.0000 0.0000 15.4574 0.0000
# 6 0.0000 0.0000 0.0000 0.0000 0.0000 47.0426
#
#
#
# Elastic Compliance Matrix: (Units=1/GPa)
#
#
# Indices 1 2 3 4 5 6 
#
# 1 0.030106 0.012786 -0.015730 0.000000 0.000000 0.000000
# 2 0.012786 0.030106 -0.015730 0.000000 0.000000 0.000000
# 3 -0.015730 -0.015730 0.025392 0.000000 0.000000 0.000000
# 4 0.000000 0.000000 0.000000 0.064694 0.000000 0.000000
# 5 0.000000 0.000000 0.000000 0.000000 0.064694 0.000000
# 6 0.000000 0.000000 0.000000 0.000000 0.000000 0.021257
#
#
# Mechanical properties :
#
#
# Convention : Reuss Voigt Hill
#
# Bulk Modulus (GPa) = 20.72279 29.27992 25.00136
# Shear Modulus (GPa) = 17.26017 24.07187 20.66602
#
# Velocity S-wave (km/s) = 2.78416 3.28796 3.04649
# Velocity P-wave (km/s) = 4.43193 5.25013 4.85829
#
# Compressibility (1/GPa) = 0.04825605
#
# Stress axis : x y z
#
# Youngs Moduli (GPa) = 33.21563 33.21563 39.38195
#
# Poissons Ratio (x) = -0.42470 0.61949
# Poissons Ratio (y) = -0.42470 0.61949
# Poissons Ratio (z) = 0.52249 0.52249
#
# Static dielectric constant tensor:
#      x y z
#    x 1.989650 0.000000 0.000000 
#    y 0.000000 1.989650 0.000000 
#    z 0.000000 0.000000 1.901110 
# 
# From -- ./inp_files/4480.got.cif
#   From: 2010.05.17/outbox.cif.g08.bks.cpg/sg96_3_cif.got.tgz:4480.got - 2010.06.03 19:52:08.
