data_PCOD9551129
_publ_section_title
;
Structure prediction by ZEFSAII (Michael W. Deem and Ramdas Pophale) SiO2 
 PCOD9551129
Probable space group: P 43 21 2
;
_chemical_formula_sum "Si O2"
_cell_formula_units_Z 40
_cell_length_a 11.431839
_cell_length_b 11.431839
_cell_length_c 14.404833
_cell_angle_alpha 90.000000
_cell_angle_beta 90.000000
_cell_angle_gamma 90.000000
_cell_volume 1882.523588
_symmetry_space_group_name_H-M "P 43 21 2"
_symmetry_group_IT_number 96
_symmetry_cell_setting 'tetragonal'
loop_
_space_group_symop_operation_xyz
x,y,z
1/2-y,1/2+x,3/4+z
-x,-y,1/2+z
1/2+y,1/2-x,1/4+z
1/2+x,1/2-y,1/4-z
1/2-x,1/2+y,3/4-z
y,x,-z
-y,-x,1/2-z
loop_
_atom_site_type_symbol
_atom_site_label
_atom_site_fract_x
_atom_site_fract_y
_atom_site_fract_z
Si Si1 0.895204 0.376178 0.019087
Si Si2 0.496662 0.317586 0.546865
Si Si3 0.338428 0.476036 0.080289
Si Si4 0.779017 0.136030 0.985053
Si Si5 0.875120 0.490859 0.462406
O O1 0.844403 0.259874 0.969878
O O2 0.952097 0.334292 0.115805
O O3 0.782774 0.460844 0.023040
O O4 0.995099 0.456219 0.972550
O O5 0.403880 0.403880 0.500000
O O6 0.609600 0.393976 0.575180
O O7 0.437093 0.269937 0.640416
O O8 0.351532 0.429193 0.184020
O O9 0.407035 0.407035 0.000000
O O10 0.205024 0.465817 0.047058
O O11 0.647997 0.142161 0.027043
#
# Coordination Sequence:
#
# PCOD9551129 Si02
#       5
#     8   8   8   8   8
#     4  12  25  44  73 104 145 197 245 312 374 443
#     4  11  26  46  69 107 150 194 250 303 382 455
#     4  11  23  45  71 102 144 186 243 310 365 443
#     4  12  25  46  71 107 147 197 245 312 375 450
#     4  12  24  44  69 104 142 188 252 300 371 446
#
# _framework density 21.248072000000001
#
# number of rings (size 3 to 8) (size 9 to 14) (size 15 to 20)
#    0.000    0.400    6.000    3.000    0.000    0.000 
#    0.000    0.000    0.000    0.000    0.000    0.000 
#    0.000    0.000    0.000    0.000    0.000    0.000 
#
# Total GULP energy -223190.226942 kJ/mol
# GULP energy per Si atom -5579.755674 kJ/mol
# Density = 2.119971 g / cm^3
# Si number density = 21.248072 Si / 1000 Ang^3
#
#
#
# Elastic Constant Matrix: (Units=GPa)
#
#
# Indices 1 2 3 4 5 6 
#
# 1 105.6449 38.0344 9.0369 0.0000 0.0000 0.0000
# 2 38.0344 105.6449 9.0369 0.0000 0.0000 0.0000
# 3 9.0369 9.0369 70.0524 0.0000 0.0000 0.0000
# 4 0.0000 0.0000 0.0000 27.6874 0.0000 0.0000
# 5 0.0000 0.0000 0.0000 0.0000 27.6874 0.0000
# 6 0.0000 0.0000 0.0000 0.0000 0.0000 30.7028
#
#
#
# Elastic Compliance Matrix: (Units=1/GPa)
#
#
# Indices 1 2 3 4 5 6 
#
# 1 0.010933 -0.003858 -0.000913 0.000000 0.000000 0.000000
# 2 -0.003858 0.010933 -0.000913 0.000000 0.000000 0.000000
# 3 -0.000913 -0.000913 0.014511 0.000000 0.000000 0.000000
# 4 0.000000 0.000000 0.000000 0.036117 0.000000 0.000000
# 5 0.000000 0.000000 0.000000 0.000000 0.036117 0.000000
# 6 0.000000 0.000000 0.000000 0.000000 0.000000 0.032570
#
#
# Mechanical properties :
#
#
# Convention : Reuss Voigt Hill
#
# Bulk Modulus (GPa) = 39.98504 43.72877 41.85690
# Shear Modulus (GPa) = 31.07829 32.23113 31.65471
#
# Velocity S-wave (km/s) = 3.82860 3.89896 3.86394
# Velocity P-wave (km/s) = 6.19704 6.39484 6.29672
#
# Compressibility (1/GPa) = 0.02500935
#
# Stress axis : x y z
#
# Youngs Moduli (GPa) = 91.46888 91.46888 68.91560
#
# Poissons Ratio (x) = 0.35288 0.06290
# Poissons Ratio (y) = 0.35288 0.06290
# Poissons Ratio (z) = 0.08348 0.08348
#
# Static dielectric constant tensor:
#      x y z
#    x 1.804890 0.000000 0.000000 
#    y 0.000000 1.804890 0.000000 
#    z 0.000000 0.000000 1.760730 
# 
# From -- ./inp_files/2616.got.cif
#   From: 2010.05.17/outbox.cif.g08.bks.cpg/sg96_2_cif.got.tgz:2616.got - 2010.06.03 19:52:08.
