data_PCOD9551707
_publ_section_title
;
Structure prediction by ZEFSAII (Michael W. Deem and Ramdas Pophale) SiO2 
 PCOD9551707
Probable space group: I 41 2 2
;
_chemical_formula_sum "Si O2"
_cell_formula_units_Z 80
_cell_length_a 17.532199
_cell_length_b 17.532199
_cell_length_c 11.885334
_cell_angle_alpha 90.000000
_cell_angle_beta 90.000000
_cell_angle_gamma 90.000000
_cell_volume 3653.290215
_symmetry_space_group_name_H-M "I 41 2 2"
_symmetry_group_IT_number 98
_symmetry_cell_setting 'tetragonal'
loop_
_space_group_symop_operation_xyz
x,y,z
-y,1/2+x,1/4+z
-x,-y,z
y,1/2-x,1/4+z
x,1/2-y,1/4-z
-x,1/2+y,1/4-z
y,x,-z
-y,-x,-z
1/2+x,1/2+y,1/2+z
1/2-y,x,3/4+z
1/2-x,1/2-y,1/2+z
1/2+y,-x,3/4+z
1/2+x,-y,3/4-z
1/2-x,y,3/4-z
1/2+y,1/2+x,1/2-z
1/2-y,1/2-x,1/2-z
loop_
_atom_site_type_symbol
_atom_site_label
_atom_site_fract_x
_atom_site_fract_y
_atom_site_fract_z
Si Si1 0.964854 0.750000 0.125000
Si Si2 0.863332 0.163976 0.766565
Si Si3 0.809092 0.309092 0.250000
Si Si4 0.992001 0.417963 0.911518
Si Si5 0.597623 0.911975 0.627207
Si Si6 0.502403 0.247069 0.369187
O O1 0.908707 0.678705 0.133611
O O2 0.012124 0.753838 0.242623
O O3 0.780338 0.184436 0.718153
O O4 0.899730 0.094986 0.698070
O O5 0.925786 0.229400 0.791323
O O6 0.839092 0.143101 0.894539
O O7 0.957529 0.571483 0.024021
O O8 0.000000 0.500000 0.857630
O O9 0.019142 0.340999 0.847550
O O10 0.565054 0.934947 0.750000
O O11 0.681792 0.944840 0.605303
#
# Coordination Sequence:
#
# PCOD9551707 Si02
#       6
#     8  16   8  16  16  16
#     4   8  18  30  44  76 104 134 174 206 268 328
#     4  11  21  33  48  72 109 145 181 217 263 317
#     4  10  24  32  47  72 107 152 180 214 264 320
#     4  11  21  31  49  78 106 141 183 214 261 322
#     4   9  18  29  45  70 102 139 166 205 257 312
#     4  10  19  33  48  72 106 140 175 222 258 320
#
# _framework density 21.898069
#
# number of rings (size 3 to 8) (size 9 to 14) (size 15 to 20)
#    0.000    2.000    4.000    0.000    8.400    0.400 
#    0.000    0.000    0.000    0.000    5.200    0.700 
#    0.000    0.000    0.000    0.000    0.000    0.000 
#
# Total GULP energy -222813.187435 kJ/mol
# GULP energy per Si atom -5570.329686 kJ/mol
# Density = 2.184823 g / cm^3
# Si number density = 21.898069 Si / 1000 Ang^3
#
#
#
# Elastic Constant Matrix: (Units=GPa)
#
#
# Indices 1 2 3 4 5 6 
#
# 1 128.3966 63.5736 12.9309 0.0000 0.0000 0.0000
# 2 63.5736 128.3953 12.9307 0.0000 0.0000 0.0000
# 3 12.9309 12.9307 46.7908 0.0000 0.0000 0.0000
# 4 0.0000 0.0000 0.0000 -10.0796 0.0000 0.0000
# 5 0.0000 0.0000 0.0000 0.0000 -10.0796 0.0000
# 6 0.0000 0.0000 0.0000 0.0000 0.0000 37.2872
#
#
#
# Elastic Compliance Matrix: (Units=1/GPa)
#
#
# Indices 1 2 3 4 5 6 
#
# 1 0.010419 -0.005008 -0.001495 0.000000 0.000000 0.000000
# 2 -0.005008 0.010419 -0.001495 0.000000 0.000000 0.000000
# 3 -0.001495 -0.001495 0.022198 0.000000 0.000000 0.000000
# 4 0.000000 0.000000 0.000000 -0.099210 0.000000 0.000000
# 5 0.000000 0.000000 0.000000 0.000000 -0.099211 0.000000
# 6 0.000000 0.000000 0.000000 0.000000 0.000000 0.026819
#
#
# Mechanical properties :
#
#
# Convention : Reuss Voigt Hill
#
# Bulk Modulus (GPa) = 36.98444 53.60589 45.29517
# Shear Modulus (GPa) = -48.28287 17.70209 -15.29039
#
# Velocity S-wave (km/s) = -4.70072 2.84630 -2.64531
# Velocity P-wave (km/s) = 3.54067 5.94430 3.37627
#
# Compressibility (1/GPa) = 0.02703839
#
# Stress axis : x y z
#
# Youngs Moduli (GPa) = 95.98184 95.98097 45.04879
#
# Poissons Ratio (x) = 0.48068 0.06736
# Poissons Ratio (y) = 0.48069 0.06736
# Poissons Ratio (z) = 0.14352 0.14351
#
# Static dielectric constant tensor:
#      x y z
#    x 1.845480 0.000000 0.000000 
#    y 0.000000 1.845480 0.000000 
#    z 0.000000 0.000000 1.882420 
# 
# From -- ./inp_files/7634.got.cif
#   From: 2010.05.17/outbox.cif.g08.bks.cpg/sg98_4_cif.got.tgz:7634.got - 2010.06.03 20:00:51.
