data_PCOD9551622
_publ_section_title
;
Structure prediction by ZEFSAII (Michael W. Deem and Ramdas Pophale) SiO2 
 PCOD9551622
Probable space group: I 4 2 2 
;
_chemical_formula_sum "Si O2"
_cell_formula_units_Z 56
_cell_length_a 15.000000
_cell_length_b 15.000000
_cell_length_c 24.000000
_cell_angle_alpha 90.000000
_cell_angle_beta 90.000000
_cell_angle_gamma 90.000000
_cell_volume 5400.000000
_symmetry_space_group_name_H-M "I 4 2 2 "
_symmetry_group_IT_number 97
_symmetry_cell_setting 'tetragonal'
loop_
_space_group_symop_operation_xyz
x,y,z
-y,x,z
-x,-y,z
y,-x,z
x,-y,-z
-x,y,-z
y,x,-z
-y,-x,-z
1/2+x,1/2+y,1/2+z
1/2-y,1/2+x,1/2+z
1/2-x,1/2-y,1/2+z
1/2+y,1/2-x,1/2+z
1/2+x,1/2-y,1/2-z
1/2-x,1/2+y,1/2-z
1/2+y,1/2+x,1/2-z
1/2-y,1/2-x,1/2-z
loop_
_atom_site_type_symbol
_atom_site_label
_atom_site_fract_x
_atom_site_fract_y
_atom_site_fract_z
Si Si1 0.410538 0.873011 0.465002
Si Si2 0.606959 0.748495 0.818739
Si Si3 0.605785 0.983482 0.375955
Si Si4 0.798094 0.322691 0.067504
Si Si5 0.396575 0.394100 0.912801
Si Si6 0.855353 0.236581 0.877232
Si Si7 0.635060 0.438877 0.717655
O O1 0.500000 0.879233 0.500000
O O2 0.335401 0.841971 0.506897
O O3 0.414635 0.801743 0.415167
O O4 0.387666 0.965023 0.434895
O O5 0.532181 0.821323 0.836723
O O6 0.600910 0.653655 0.851779
O O7 0.698551 0.796628 0.836611
O O8 0.593047 0.715982 0.756531
O O9 0.644778 0.885472 0.389600
O O10 0.500000 0.000000 0.359616
O O11 0.693105 0.347177 0.065595
O O12 0.809033 0.220805 0.085624
O O13 0.501335 0.380369 0.926575
O O14 0.915663 0.168107 0.844021
O O15 0.613836 0.542722 0.727567
#
# Coordination Sequence:
#
# PCOD9551622 Si02
#       7
#    16  16  16  16  16  16  16
#     4  11  23  41  68  95 133 185 230 275 338 410
#     4  10  21  41  67 101 135 177 221 278 346 416
#     4  11  22  39  66 102 138 178 227 277 335 412
#     4  11  22  39  64 100 134 184 225 281 341 406
#     4  10  19  35  62  96 140 183 224 281 342 415
#     4  10  25  42  66  98 134 171 224 285 337 399
#     4  11  25  44  72  98 128 175 226 285 347 415
#
# _framework density 10.370369999999999
#
# number of rings (size 3 to 8) (size 9 to 14) (size 15 to 20)
#    0.000    1.429    2.857    2.143    4.000    1.143 
#    2.571    0.000    0.000    3.429    0.000    0.000 
#    0.000    0.000    0.000    0.000    0.000    0.000 
#
# Total GULP energy -312304.379573 kJ/mol
# GULP energy per Si atom -5576.863921 kJ/mol
# Density = 1.034677 g / cm^3
# Si number density = 10.370370 Si / 1000 Ang^3
#
#
#
# Elastic Constant Matrix: (Units=GPa)
#
#
# Indices 1 2 3 4 5 6 
#
# 1 68.5281 11.8949 30.7273 0.0000 0.0000 0.0000
# 2 11.8949 68.5281 30.7273 0.0000 0.0000 0.0000
# 3 30.7273 30.7273 57.6895 0.0000 0.0000 0.0000
# 4 0.0000 0.0000 0.0000 26.6599 0.0000 0.0000
# 5 0.0000 0.0000 0.0000 0.0000 26.6599 0.0000
# 6 0.0000 0.0000 0.0000 0.0000 0.0000 22.6271
#
#
#
# Elastic Compliance Matrix: (Units=1/GPa)
#
#
# Indices 1 2 3 4 5 6 
#
# 1 0.019313 0.001656 -0.011169 0.000000 0.000000 0.000000
# 2 0.001656 0.019313 -0.011169 0.000000 0.000000 0.000000
# 3 -0.011169 -0.011169 0.029232 0.000000 0.000000 0.000000
# 4 0.000000 0.000000 0.000000 0.037510 0.000000 0.000000
# 5 0.000000 0.000000 0.000000 0.000000 0.037510 0.000000
# 6 0.000000 0.000000 0.000000 0.000000 0.000000 0.044195
#
#
# Mechanical properties :
#
#
# Convention : Reuss Voigt Hill
#
# Bulk Modulus (GPa) = 37.74348 37.93829 37.84088
# Shear Modulus (GPa) = 21.07335 23.28244 22.17790
#
# Velocity S-wave (km/s) = 3.19099 3.35408 3.27355
# Velocity P-wave (km/s) = 5.64037 5.77331 5.70723
#
# Compressibility (1/GPa) = 0.02649464
#
# Stress axis : x y z
#
# Youngs Moduli (GPa) = 51.77839 51.77839 34.20944
#
# Poissons Ratio (x) = -0.08572 0.38207
# Poissons Ratio (y) = -0.08572 0.38207
# Poissons Ratio (z) = 0.57829 0.57829
#
# Static dielectric constant tensor:
#      x y z
#    x 1.759780 0.000000 0.000000 
#    y 0.000000 1.759780 0.000000 
#    z 0.000000 0.000000 1.796560 
# 
# From -- ./inp_files/7239.got.cif
#   From: 2010.05.17/outbox.ucp.g08.bks.cvg/sg97_4_cif.got.tgz:7239.got - 2010.06.11 10:37:40.
