data_PCOD9551541
_publ_section_title
;
Structure prediction by ZEFSAII (Michael W. Deem and Ramdas Pophale) SiO2 
 PCOD9551541
Probable space group: I 4 2 2 
;
_chemical_formula_sum "Si O2"
_cell_formula_units_Z 48
_cell_length_a 8.869483
_cell_length_b 8.869483
_cell_length_c 29.336658
_cell_angle_alpha 90.000000
_cell_angle_beta 90.000000
_cell_angle_gamma 90.000000
_cell_volume 2307.848252
_symmetry_space_group_name_H-M "I 4 2 2 "
_symmetry_group_IT_number 97
_symmetry_cell_setting 'tetragonal'
loop_
_space_group_symop_operation_xyz
x,y,z
-y,x,z
-x,-y,z
y,-x,z
x,-y,-z
-x,y,-z
y,x,-z
-y,-x,-z
1/2+x,1/2+y,1/2+z
1/2-y,1/2+x,1/2+z
1/2-x,1/2-y,1/2+z
1/2+y,1/2-x,1/2+z
1/2+x,1/2-y,1/2-z
1/2-x,1/2+y,1/2-z
1/2+y,1/2+x,1/2-z
1/2-y,1/2-x,1/2-z
loop_
_atom_site_type_symbol
_atom_site_label
_atom_site_fract_x
_atom_site_fract_y
_atom_site_fract_z
Si Si1 0.617372 0.115091 0.034146
Si Si2 0.297595 0.347774 0.294574
Si Si3 0.343554 0.699618 0.116339
O O1 0.702373 0.216557 0.069608
O O2 0.500000 0.000000 0.059195
O O3 0.500000 0.201405 0.000000
O O4 0.703053 0.000000 0.000000
O O5 0.471501 0.296411 0.294046
O O6 0.215436 0.284565 0.250000
O O7 0.220744 0.283772 0.339928
O O8 0.297212 0.525439 0.116851
#
# Coordination Sequence:
#
# PCOD9551541 Si02
#       3
#    16  16  16
#     4   6  17  36  56  83 123 174 207 258 314 377
#     4  11  26  45  67  95 129 170 218 270 332 403
#     4  11  23  37  64 100 133 170 221 273 328 397
#
# _framework density 20.798594000000001
#
# number of rings (size 3 to 8) (size 9 to 14) (size 15 to 20)
#    2.000    0.667    0.000    2.000    4.667    7.333 
#    0.000    1.667    0.000    0.000    0.000    0.000 
#    0.000    0.000    0.000    0.000    0.000    0.000 
#
# Total GULP energy -133727.215573 kJ/mol
# GULP energy per Si atom -5571.967316 kJ/mol
# Density = 2.075126 g / cm^3
# Si number density = 20.798594 Si / 1000 Ang^3
#
#
#
# Elastic Constant Matrix: (Units=GPa)
#
#
# Indices 1 2 3 4 5 6 
#
# 1 95.0508 68.6319 83.7938 0.0000 0.0000 0.0000
# 2 68.6319 95.0486 83.7942 0.0000 0.0000 0.0000
# 3 83.7938 83.7942 189.3814 0.0000 0.0000 0.0000
# 4 0.0000 0.0000 0.0000 -368.0400 -0.0003 0.0000
# 5 0.0000 0.0000 0.0000 -0.0003 -367.9690 0.0000
# 6 0.0000 0.0000 0.0000 0.0000 0.0000 27.0600
#
#
#
# Elastic Compliance Matrix: (Units=1/GPa)
#
#
# Indices 1 2 3 4 5 6 
#
# 1 0.024511 -0.013342 -0.004942 0.000000 0.000000 0.000000
# 2 -0.013342 0.024512 -0.004942 0.000000 0.000000 0.000000
# 3 -0.004942 -0.004942 0.009654 0.000000 0.000000 0.000000
# 4 0.000000 0.000000 0.000000 -0.002717 0.000000 0.000000
# 5 0.000000 0.000000 0.000000 0.000000 -0.002718 0.000000
# 6 0.000000 0.000000 0.000000 0.000000 0.000000 0.036955
#
#
# Mechanical properties :
#
#
# Convention : Reuss Voigt Hill
#
# Bulk Modulus (GPa) = 81.80395 94.65784 88.23090
# Shear Modulus (GPa) = 35.53070 -132.23908 -48.35419
#
# Velocity S-wave (km/s) = 4.13767 -7.98241 -4.82693
# Velocity P-wave (km/s) = 7.88948 6.27279 3.38349
#
# Compressibility (1/GPa) = 0.01222435
#
# Stress axis : x y z
#
# Youngs Moduli (GPa) = 40.79831 40.79653 103.58750
#
# Poissons Ratio (x) = 0.54431 0.51190
# Poissons Ratio (y) = 0.54433 0.51196
# Poissons Ratio (z) = 0.20162 0.20163
#
# Static dielectric constant tensor:
#      x y z
#    x 1.754740 0.000000 0.000000 
#    y 0.000000 1.754740 0.000000 
#    z 0.000000 0.000000 1.740540 
# 
# From -- ./inp_files/7777.got.cif
#   From: 2010.05.17/outbox.cif.g08.bks.cpg/sg97_4_cif.got.tgz:7777.got - 2010.06.03 19:55:32.
