data_PCOD9551285
_publ_section_title
;
Structure prediction by ZEFSAII (Michael W. Deem and Ramdas Pophale) SiO2 
 PCOD9551285
Probable space group: I 4 2 2 
;
_chemical_formula_sum "Si O2"
_cell_formula_units_Z 112
_cell_length_a 13.807631
_cell_length_b 13.807631
_cell_length_c 26.116082
_cell_angle_alpha 90.000000
_cell_angle_beta 90.000000
_cell_angle_gamma 90.000000
_cell_volume 4979.048631
_symmetry_space_group_name_H-M "I 4 2 2 "
_symmetry_group_IT_number 97
_symmetry_cell_setting 'tetragonal'
loop_
_space_group_symop_operation_xyz
x,y,z
-y,x,z
-x,-y,z
y,-x,z
x,-y,-z
-x,y,-z
y,x,-z
-y,-x,-z
1/2+x,1/2+y,1/2+z
1/2-y,1/2+x,1/2+z
1/2-x,1/2-y,1/2+z
1/2+y,1/2-x,1/2+z
1/2+x,1/2-y,1/2-z
1/2-x,1/2+y,1/2-z
1/2+y,1/2+x,1/2-z
1/2-y,1/2-x,1/2-z
loop_
_atom_site_type_symbol
_atom_site_label
_atom_site_fract_x
_atom_site_fract_y
_atom_site_fract_z
Si Si1 0.942444 0.150080 0.791651
Si Si2 0.168390 0.657595 0.407352
Si Si3 0.127072 0.908867 0.605240
Si Si4 0.895801 0.733560 0.008764
Si Si5 0.601685 0.263069 0.189719
Si Si6 0.101440 0.559099 0.192467
Si Si7 0.250135 0.856264 0.120043
O O1 0.897193 0.222698 0.750113
O O2 0.937184 0.199242 0.846777
O O3 0.053003 0.119908 0.784460
O O4 0.134748 0.770444 0.411018
O O5 0.154896 0.612420 0.463397
O O6 0.124779 0.604448 0.358118
O O7 0.282010 0.666047 0.395814
O O8 0.112179 0.870704 0.664416
O O9 0.021147 0.870723 0.588258
O O10 0.807661 0.807661 0.000000
O O11 0.887865 0.699298 0.067494
O O12 0.000000 0.781829 0.000000
O O13 0.505697 0.197574 0.183549
O O14 0.679947 0.201663 0.158429
O O15 0.105406 0.605406 0.250000
O O16 0.000000 0.500000 0.191955
#
# Coordination Sequence:
#
# PCOD9551285 Si02
#       7
#    16  16  16  16  16  16  16
#     4  11  26  41  65 104 143 181 232 292 357 438
#     4  10  23  45  69 100 140 185 241 291 368 434
#     4  10  19  38  72 108 140 180 226 292 365 444
#     4  10  24  45  73 100 133 183 242 310 362 434
#     4  11  23  42  65 101 140 186 229 284 355 448
#     4  11  27  41  66  99 143 190 238 293 358 443
#     4  10  25  41  71  95 134 182 229 293 358 414
#
# _framework density 22.494254999999999
#
# number of rings (size 3 to 8) (size 9 to 14) (size 15 to 20)
#    0.000    1.571    1.429    1.286   14.000    1.286 
#    0.000    0.714    3.143    2.571    0.000   27.000 
#    0.000    0.000    0.000    0.000    0.000    0.000 
#
# Total GULP energy -311948.137899 kJ/mol
# GULP energy per Si atom -5570.502462 kJ/mol
# Density = 2.244306 g / cm^3
# Si number density = 22.494255 Si / 1000 Ang^3
#
#
#
# Elastic Constant Matrix: (Units=GPa)
#
#
# Indices 1 2 3 4 5 6 
#
# 1 52.0951 24.8889 45.1020 0.0000 0.0000 0.0000
# 2 24.8889 52.0951 45.1020 0.0000 0.0000 0.0000
# 3 45.1020 45.1020 190.8602 0.0000 0.0000 0.0000
# 4 0.0000 0.0000 0.0000 10.2832 0.0000 0.0000
# 5 0.0000 0.0000 0.0000 0.0000 10.2832 0.0000
# 6 0.0000 0.0000 0.0000 0.0000 0.0000 -5.0375
#
#
#
# Elastic Compliance Matrix: (Units=1/GPa)
#
#
# Indices 1 2 3 4 5 6 
#
# 1 0.027360 -0.009396 -0.004245 0.000000 0.000000 0.000000
# 2 -0.009396 0.027360 -0.004245 0.000000 0.000000 0.000000
# 3 -0.004245 -0.004245 0.007246 0.000000 0.000000 0.000000
# 4 0.000000 0.000000 0.000000 0.097246 0.000000 0.000000
# 5 0.000000 0.000000 0.000000 0.000000 0.097246 0.000000
# 6 0.000000 0.000000 0.000000 0.000000 0.000000 -0.198510
#
#
# Mechanical properties :
#
#
# Convention : Reuss Voigt Hill
#
# Bulk Modulus (GPa) = 38.17801 58.35960 48.26880
# Shear Modulus (GPa) = 48.80344 15.10293 31.95318
#
# Velocity S-wave (km/s) = 4.66294 2.59397 3.77305
# Velocity P-wave (km/s) = 6.78232 5.91373 6.36286
#
# Compressibility (1/GPa) = 0.02619309
#
# Stress axis : x y z
#
# Youngs Moduli (GPa) = 36.54973 36.54973 138.01298
#
# Poissons Ratio (x) = 0.34343 0.58586
# Poissons Ratio (y) = 0.34343 0.58586
# Poissons Ratio (z) = 0.15515 0.15515
#
# Static dielectric constant tensor:
#      x y z
#    x 1.858660 0.000000 0.000000 
#    y 0.000000 1.858660 0.000000 
#    z 0.000000 0.000000 1.917370 
# 
# From -- ./inp_files/7264.got.cif
#   From: 2010.05.17/outbox.cif.g08.bks.cpg/sg97_4_cif.got.tgz:7264.got - 2010.06.03 19:55:32.
