data_PCOD9551264
_publ_section_title
;
Structure prediction by ZEFSAII (Michael W. Deem and Ramdas Pophale) SiO2 
 PCOD9551264
Probable space group: I 4 2 2 
;
_chemical_formula_sum "Si O2"
_cell_formula_units_Z 56
_cell_length_a 13.659959
_cell_length_b 13.659959
_cell_length_c 14.169597
_cell_angle_alpha 90.000000
_cell_angle_beta 90.000000
_cell_angle_gamma 90.000000
_cell_volume 2643.968582
_symmetry_space_group_name_H-M "I 4 2 2 "
_symmetry_group_IT_number 97
_symmetry_cell_setting 'tetragonal'
loop_
_space_group_symop_operation_xyz
x,y,z
-y,x,z
-x,-y,z
y,-x,z
x,-y,-z
-x,y,-z
y,x,-z
-y,-x,-z
1/2+x,1/2+y,1/2+z
1/2-y,1/2+x,1/2+z
1/2-x,1/2-y,1/2+z
1/2+y,1/2-x,1/2+z
1/2+x,1/2-y,1/2-z
1/2-x,1/2+y,1/2-z
1/2+y,1/2+x,1/2-z
1/2-y,1/2-x,1/2-z
loop_
_atom_site_type_symbol
_atom_site_label
_atom_site_fract_x
_atom_site_fract_y
_atom_site_fract_z
Si Si1 0.900203 0.239241 0.549014
Si Si2 0.214944 0.148962 0.910030
Si Si3 0.709707 0.042430 0.254641
Si Si4 0.317082 0.817082 0.750000
O O1 0.855853 0.144148 0.500000
O O2 0.818803 0.323464 0.541489
O O3 0.915887 0.225451 0.660092
O O4 0.000000 0.268435 0.500000
O O5 0.233600 0.056183 0.843756
O O6 0.197561 0.238068 0.834509
O O7 0.144088 0.144088 0.000000
O O8 0.611429 0.111429 0.250000
O O9 0.691818 0.930232 0.279357
#
# Coordination Sequence:
#
# PCOD9551264 Si02
#       4
#    16  16  16   8
#     4  10  19  34  58  86 119 156 203 259 312 371
#     4  10  21  39  59  88 123 169 206 251 326 383
#     4  10  21  37  59  96 121 164 215 252 322 382
#     4  12  21  40  66  85 132 164 202 278 306 375
#
# _framework density 21.180284
#
# number of rings (size 3 to 8) (size 9 to 14) (size 15 to 20)
#    0.000    1.714    4.286    3.857    0.000    1.429 
#    0.000    0.000    0.000    9.429    0.000    2.000 
#    0.000    0.000    0.000    0.000    0.000    0.000 
#
# Total GULP energy -156111.802020 kJ/mol
# GULP energy per Si atom -5575.421501 kJ/mol
# Density = 2.113208 g / cm^3
# Si number density = 21.180284 Si / 1000 Ang^3
#
#
#
# Elastic Constant Matrix: (Units=GPa)
#
#
# Indices 1 2 3 4 5 6 
#
# 1 -197.8873 264.3997 9.3994 0.0001 0.0000 0.0000
# 2 264.3997 -197.8406 9.3706 -0.0001 0.0000 0.0000
# 3 9.3994 9.3706 87.4865 0.0000 0.0000 0.0000
# 4 0.0001 -0.0001 0.0000 25.7887 0.0000 0.0000
# 5 0.0000 0.0000 0.0000 0.0000 25.7884 0.0000
# 6 0.0000 0.0000 0.0000 0.0000 0.0000 14.4367
#
#
#
# Elastic Compliance Matrix: (Units=1/GPa)
#
#
# Indices 1 2 3 4 5 6 
#
# 1 0.006667 0.008831 -0.001662 0.000000 0.000000 0.000000
# 2 0.008831 0.006669 -0.001663 0.000000 0.000000 0.000000
# 3 -0.001662 -0.001663 0.011787 0.000000 0.000000 0.000000
# 4 0.000000 0.000000 0.000000 0.038777 0.000000 0.000000
# 5 0.000000 0.000000 0.000000 0.000000 0.038777 0.000000
# 6 0.000000 0.000000 0.000000 0.000000 0.000000 0.069268
#
#
# Mechanical properties :
#
#
# Convention : Reuss Voigt Hill
#
# Bulk Modulus (GPa) = 27.67495 28.67756 28.17625
# Shear Modulus (GPa) = 28.90551 -26.22467 1.34042
#
# Velocity S-wave (km/s) = 3.69824 -3.52257 0.79639
# Velocity P-wave (km/s) = 5.59739 1.72498 3.76531
#
# Compressibility (1/GPa) = 0.03613376
#
# Stress axis : x y z
#
# Youngs Moduli (GPa) = 149.99835 149.95843 84.83895
#
# Poissons Ratio (x) = -1.32427 0.14101
# Poissons Ratio (y) = -1.32462 0.14109
# Poissons Ratio (z) = 0.24932 0.24939
#
# Static dielectric constant tensor:
#      x y z
#    x 1.792640 0.000000 0.000000 
#    y 0.000000 1.792640 0.000000 
#    z 0.000000 0.000000 1.840360 
# 
# From -- ./inp_files/4414.got.cif
#   From: 2010.05.17/outbox.cif.g08.bks.cpg/sg97_3_cif.got.tgz:4414.got - 2010.06.03 19:55:32.
