data_PCOD9551118
_publ_section_title
;
Structure prediction by ZEFSAII (Michael W. Deem and Ramdas Pophale) SiO2 
 PCOD9551118
Probable space group: P 43 21 2
;
_chemical_formula_sum "Si O2"
_cell_formula_units_Z 28
_cell_length_a 9.608938
_cell_length_b 9.608938
_cell_length_c 15.077805
_cell_angle_alpha 90.000000
_cell_angle_beta 90.000000
_cell_angle_gamma 90.000000
_cell_volume 1392.159209
_symmetry_space_group_name_H-M "P 43 21 2"
_symmetry_group_IT_number 96
_symmetry_cell_setting 'tetragonal'
loop_
_space_group_symop_operation_xyz
x,y,z
1/2-y,1/2+x,3/4+z
-x,-y,1/2+z
1/2+y,1/2-x,1/4+z
1/2+x,1/2-y,1/4-z
1/2-x,1/2+y,3/4-z
y,x,-z
-y,-x,1/2-z
loop_
_atom_site_type_symbol
_atom_site_label
_atom_site_fract_x
_atom_site_fract_y
_atom_site_fract_z
Si Si1 0.160490 0.370035 0.469235
Si Si2 0.633015 0.422950 0.050444
Si Si3 0.724940 0.122498 0.983998
Si Si4 0.046294 0.046294 0.000000
O O1 0.220509 0.220509 0.500000
O O2 0.233057 0.479593 0.533776
O O3 0.214546 0.398689 0.371252
O O4 0.995858 0.369003 0.471507
O O5 0.609286 0.407805 0.155402
O O6 0.505945 0.505945 0.000000
O O7 0.668863 0.274479 0.007898
O O8 0.883869 0.088648 0.008896
#
# Coordination Sequence:
#
# PCOD9551118 Si02
#       4
#     8   8   8   4
#     4  11  22  44  75 100 134 194 245 285 351 438
#     4  11  25  46  73 108 144 185 241 302 361 424
#     4  12  24  46  74 104 142 191 242 295 356 430
#     4  12  24  46  74 106 152 184 242 310 356 428
#
# _framework density 20.112639999999999
#
# number of rings (size 3 to 8) (size 9 to 14) (size 15 to 20)
#    0.000    0.571    7.143    3.429    0.000    2.286 
#    7.714    0.000    0.000    0.000    0.000    0.000 
#    0.000    0.000    0.000    0.000    0.000    0.000 
#
# Total GULP energy -156394.049713 kJ/mol
# GULP energy per Si atom -5585.501775 kJ/mol
# Density = 2.006686 g / cm^3
# Si number density = 20.112640 Si / 1000 Ang^3
#
#
#
# Elastic Constant Matrix: (Units=GPa)
#
#
# Indices 1 2 3 4 5 6 
#
# 1 86.7039 38.6487 -4.9932 0.0000 0.0000 0.0000
# 2 38.6487 86.7039 -4.9932 0.0000 0.0000 0.0000
# 3 -4.9932 -4.9932 90.8035 0.0000 0.0000 0.0000
# 4 0.0000 0.0000 0.0000 -1.1020 0.0000 0.0000
# 5 0.0000 0.0000 0.0000 0.0000 -1.1020 0.0000
# 6 0.0000 0.0000 0.0000 0.0000 0.0000 32.9930
#
#
#
# Elastic Compliance Matrix: (Units=1/GPa)
#
#
# Indices 1 2 3 4 5 6 
#
# 1 0.014411 -0.006398 0.000441 0.000000 0.000000 0.000000
# 2 -0.006398 0.014411 0.000441 0.000000 0.000000 0.000000
# 3 0.000441 0.000441 0.011061 0.000000 0.000000 0.000000
# 4 0.000000 0.000000 0.000000 -0.907474 0.000000 0.000000
# 5 0.000000 0.000000 0.000000 0.000000 -0.907474 0.000000
# 6 0.000000 0.000000 0.000000 0.000000 0.000000 0.030309
#
#
# Mechanical properties :
#
#
# Convention : Reuss Voigt Hill
#
# Bulk Modulus (GPa) = 34.66344 35.72624 35.19484
# Shear Modulus (GPa) = -2.90006 21.86108 9.48051
#
# Velocity S-wave (km/s) = -1.20210 3.30044 2.17346
# Velocity P-wave (km/s) = 3.91731 5.68555 4.88216
#
# Compressibility (1/GPa) = 0.02884884
#
# Stress axis : x y z
#
# Youngs Moduli (GPa) = 69.39139 69.39139 90.40576
#
# Poissons Ratio (x) = 0.44399 -0.03983
# Poissons Ratio (y) = 0.44399 -0.03983
# Poissons Ratio (z) = -0.03057 -0.03057
#
# Static dielectric constant tensor:
#      x y z
#    x 1.736270 0.000000 0.000000 
#    y 0.000000 1.736270 0.000000 
#    z 0.000000 0.000000 1.741330 
# 
# From -- ./inp_files/2971.got.cif
#   From: 2010.05.17/outbox.cif.g08.bks.cpg/sg96_2_cif.got.tgz:2971.got - 2010.06.03 19:52:08.
