data_PCOD9551284
_publ_section_title
;
Structure prediction by ZEFSAII (Michael W. Deem and Ramdas Pophale) SiO2 
 PCOD9551284
Probable space group: I 4 2 2 
;
_chemical_formula_sum "Si O2"
_cell_formula_units_Z 64
_cell_length_a 12.793021
_cell_length_b 12.793021
_cell_length_c 17.712503
_cell_angle_alpha 90.000000
_cell_angle_beta 90.000000
_cell_angle_gamma 90.000000
_cell_volume 2898.852796
_symmetry_space_group_name_H-M "I 4 2 2 "
_symmetry_group_IT_number 97
_symmetry_cell_setting 'tetragonal'
loop_
_space_group_symop_operation_xyz
x,y,z
-y,x,z
-x,-y,z
y,-x,z
x,-y,-z
-x,y,-z
y,x,-z
-y,-x,-z
1/2+x,1/2+y,1/2+z
1/2-y,1/2+x,1/2+z
1/2-x,1/2-y,1/2+z
1/2+y,1/2-x,1/2+z
1/2+x,1/2-y,1/2-z
1/2-x,1/2+y,1/2-z
1/2+y,1/2+x,1/2-z
1/2-y,1/2-x,1/2-z
loop_
_atom_site_type_symbol
_atom_site_label
_atom_site_fract_x
_atom_site_fract_y
_atom_site_fract_z
Si Si1 0.621492 0.715053 0.782367
Si Si2 0.633443 0.600826 0.380173
Si Si3 0.450867 0.115275 0.169806
Si Si4 0.253039 0.306435 0.919277
O O1 0.716694 0.783307 0.750000
O O2 0.591760 0.645741 0.710826
O O3 0.538844 0.799290 0.812364
O O4 0.665673 0.657696 0.855195
O O5 0.519443 0.641797 0.404832
O O6 0.717609 0.685165 0.407805
O O7 0.389941 0.110060 0.250000
O O8 0.378037 0.152901 0.101098
O O9 0.500000 0.000000 0.157825
O O10 0.306842 0.306842 0.000000
#
# Coordination Sequence:
#
# PCOD9551284 Si02
#       4
#    16  16  16  16
#     4  10  19  38  64  90 119 159 219 284 325 378
#     4  10  21  38  63  88 116 164 218 266 326 393
#     4  11  21  40  70  97 124 171 234 288 327 387
#     4  11  25  39  57  92 138 173 208 265 343 410
#
# _framework density 22.077698000000002
#
# number of rings (size 3 to 8) (size 9 to 14) (size 15 to 20)
#    0.000    1.500    2.500    5.250    3.500    2.000 
#    0.000    2.500    0.000    0.000    0.000    1.750 
#    0.000    0.000    0.000    0.000    0.000    0.000 
#
# Total GULP energy -178609.517356 kJ/mol
# GULP energy per Si atom -5581.547417 kJ/mol
# Density = 2.202745 g / cm^3
# Si number density = 22.077698 Si / 1000 Ang^3
#
#
#
# Elastic Constant Matrix: (Units=GPa)
#
#
# Indices 1 2 3 4 5 6 
#
# 1 39.9327 27.7140 7.3446 0.0000 0.0000 0.0000
# 2 27.7140 39.9331 7.3448 0.0000 0.0000 0.0000
# 3 7.3446 7.3448 109.4020 0.0000 0.0000 0.0000
# 4 0.0000 0.0000 0.0000 10.4502 0.0000 0.0000
# 5 0.0000 0.0000 0.0000 0.0000 10.4510 0.0000
# 6 0.0000 0.0000 0.0000 0.0000 0.0000 47.1585
#
#
#
# Elastic Compliance Matrix: (Units=1/GPa)
#
#
# Indices 1 2 3 4 5 6 
#
# 1 0.048421 -0.033420 -0.001007 0.000000 0.000000 0.000000
# 2 -0.033420 0.048421 -0.001007 0.000000 0.000000 0.000000
# 3 -0.001007 -0.001007 0.009276 0.000000 0.000000 0.000000
# 4 0.000000 0.000000 0.000000 0.095692 0.000000 0.000000
# 5 0.000000 0.000000 0.000000 0.000000 0.095684 0.000000
# 6 0.000000 0.000000 0.000000 0.000000 0.000000 0.021205
#
#
# Mechanical properties :
#
#
# Convention : Reuss Voigt Hill
#
# Bulk Modulus (GPa) = 28.36879 30.45276 29.41078
# Shear Modulus (GPa) = 12.45899 23.40290 17.93095
#
# Velocity S-wave (km/s) = 2.37813 3.25933 2.85296
# Velocity P-wave (km/s) = 4.51864 5.29034 4.91965
#
# Compressibility (1/GPa) = 0.03525000
#
# Stress axis : x y z
#
# Youngs Moduli (GPa) = 20.65216 20.65235 107.80707
#
# Poissons Ratio (x) = 0.69019 0.10857
# Poissons Ratio (y) = 0.69019 0.10858
# Poissons Ratio (z) = 0.02080 0.02080
#
# Static dielectric constant tensor:
#      x y z
#    x 1.860000 0.000000 0.000000 
#    y 0.000000 1.860000 0.000000 
#    z 0.000000 0.000000 1.890240 
# 
# From -- ./inp_files/4567.got.cif
#   From: 2010.05.17/outbox.cif.g08.bks.cpg/sg97_3_cif.got.tgz:4567.got - 2010.06.03 19:55:32.
