data_PCOD9551922
_publ_section_title
;
Structure prediction by ZEFSAII (Michael W. Deem and Ramdas Pophale) SiO2 
 PCOD9551922
Probable space group: I 41 2 2
;
_chemical_formula_sum "Si O2"
_cell_formula_units_Z 88
_cell_length_a 12.017605
_cell_length_b 12.017605
_cell_length_c 25.949074
_cell_angle_alpha 90.000000
_cell_angle_beta 90.000000
_cell_angle_gamma 90.000000
_cell_volume 3747.638701
_symmetry_space_group_name_H-M "I 41 2 2"
_symmetry_group_IT_number 98
_symmetry_cell_setting 'tetragonal'
loop_
_space_group_symop_operation_xyz
x,y,z
-y,1/2+x,1/4+z
-x,-y,z
y,1/2-x,1/4+z
x,1/2-y,1/4-z
-x,1/2+y,1/4-z
y,x,-z
-y,-x,-z
1/2+x,1/2+y,1/2+z
1/2-y,x,3/4+z
1/2-x,1/2-y,1/2+z
1/2+y,-x,3/4+z
1/2+x,-y,3/4-z
1/2-x,y,3/4-z
1/2+y,1/2+x,1/2-z
1/2-y,1/2-x,1/2-z
loop_
_atom_site_type_symbol
_atom_site_label
_atom_site_fract_x
_atom_site_fract_y
_atom_site_fract_z
Si Si1 0.694633 0.401181 0.613861
Si Si2 0.596632 0.250000 0.125000
Si Si3 0.366712 0.175164 0.895372
Si Si4 0.195509 0.398488 0.800621
Si Si5 0.888355 0.563255 0.504460
Si Si6 0.136308 0.770815 0.213878
O O1 0.819058 0.349345 0.608798
O O2 0.677050 0.530536 0.607204
O O3 0.662873 0.367934 0.672955
O O4 0.620161 0.333745 0.573702
O O5 0.516279 0.294575 0.079505
O O6 0.250000 0.131612 0.875000
O O7 0.348561 0.303215 0.911745
O O8 0.398757 0.105761 0.945742
O O9 0.117803 0.382198 0.750000
O O10 0.322977 0.368194 0.785085
O O11 0.796127 0.467990 0.499767
O O12 0.000000 0.500000 0.521900
O O13 0.240718 0.740718 0.250000
#
# Coordination Sequence:
#
# PCOD9551922 Si02
#       6
#    16   8  16  16  16  16
#     4  10  25  43  68 103 136 184 240 296 343 424
#     4  10  22  44  70 100 140 182 240 290 352 430
#     4  11  24  42  67  96 142 176 230 286 355 427
#     4  10  24  43  65 104 135 182 227 284 361 429
#     4  11  24  41  70  96 138 186 228 291 359 413
#     4  10  23  42  70 103 132 176 243 286 347 413
#
# _framework density 23.481451
#
# number of rings (size 3 to 8) (size 9 to 14) (size 15 to 20)
#    0.000    1.818    2.727    0.000   10.182    0.727 
#    0.000    2.727    0.000    0.000    0.000    0.000 
#    0.000    0.000    0.000    0.000    0.000    0.000 
#
# Total GULP energy -245945.134630 kJ/mol
# GULP energy per Si atom -5589.662151 kJ/mol
# Density = 2.342801 g / cm^3
# Si number density = 23.481451 Si / 1000 Ang^3
#
#
#
# Elastic Constant Matrix: (Units=GPa)
#
#
# Indices 1 2 3 4 5 6 
#
# 1 126.9039 26.9631 19.8186 0.0000 0.0000 0.0000
# 2 26.9631 126.9037 19.8188 0.0000 0.0000 0.0000
# 3 19.8186 19.8188 74.8812 0.0000 0.0000 0.0000
# 4 0.0000 0.0000 0.0000 26.7136 0.0000 0.0000
# 5 0.0000 0.0000 0.0000 0.0000 26.7136 0.0000
# 6 0.0000 0.0000 0.0000 0.0000 0.0000 21.4508
#
#
#
# Elastic Compliance Matrix: (Units=1/GPa)
#
#
# Indices 1 2 3 4 5 6 
#
# 1 0.008490 -0.001516 -0.001846 0.000000 0.000000 0.000000
# 2 -0.001516 0.008490 -0.001846 0.000000 0.000000 0.000000
# 3 -0.001846 -0.001846 0.014332 0.000000 0.000000 0.000000
# 4 0.000000 0.000000 0.000000 0.037434 0.000000 0.000000
# 5 0.000000 0.000000 0.000000 0.000000 0.037434 0.000000
# 6 0.000000 0.000000 0.000000 0.000000 0.000000 0.046618
#
#
# Mechanical properties :
#
#
# Convention : Reuss Voigt Hill
#
# Bulk Modulus (GPa) = 47.85361 51.32108 49.58735
# Shear Modulus (GPa) = 29.38072 32.44815 30.91443
#
# Velocity S-wave (km/s) = 3.54111 3.72137 3.63236
# Velocity P-wave (km/s) = 6.09449 6.35360 6.22540
#
# Compressibility (1/GPa) = 0.02089706
#
# Stress axis : x y z
#
# Youngs Moduli (GPa) = 117.78164 117.78139 69.77568
#
# Poissons Ratio (x) = 0.17851 0.12880
# Poissons Ratio (y) = 0.17851 0.12881
# Poissons Ratio (z) = 0.21742 0.21742
#
# Static dielectric constant tensor:
#      x y z
#    x 1.900550 0.000000 0.000000 
#    y 0.000000 1.900550 0.000000 
#    z 0.000000 0.000000 1.936980 
# 
# From -- ./inp_files/11945.got.cif
#   From: 2010.05.17/outbox.cif.g08.bks.cpg/sg98_6_cif.got.tgz:11945.got - 2010.06.03 20:00:51.
