data_PCOD9551894
_publ_section_title
;
Structure prediction by ZEFSAII (Michael W. Deem and Ramdas Pophale) SiO2 
 PCOD9551894
Probable space group: I 41 2 2
;
_chemical_formula_sum "Si O2"
_cell_formula_units_Z 64
_cell_length_a 18.374042
_cell_length_b 18.374042
_cell_length_c 9.777356
_cell_angle_alpha 90.000000
_cell_angle_beta 90.000000
_cell_angle_gamma 90.000000
_cell_volume 3300.888373
_symmetry_space_group_name_H-M "I 41 2 2"
_symmetry_group_IT_number 98
_symmetry_cell_setting 'tetragonal'
loop_
_space_group_symop_operation_xyz
x,y,z
-y,1/2+x,1/4+z
-x,-y,z
y,1/2-x,1/4+z
x,1/2-y,1/4-z
-x,1/2+y,1/4-z
y,x,-z
-y,-x,-z
1/2+x,1/2+y,1/2+z
1/2-y,x,3/4+z
1/2-x,1/2-y,1/2+z
1/2+y,-x,3/4+z
1/2+x,-y,3/4-z
1/2-x,y,3/4-z
1/2+y,1/2+x,1/2-z
1/2-y,1/2-x,1/2-z
loop_
_atom_site_type_symbol
_atom_site_label
_atom_site_fract_x
_atom_site_fract_y
_atom_site_fract_z
Si Si1 0.019404 0.416618 0.438217
Si Si2 0.933024 0.166468 0.574729
Si Si3 0.345486 0.070966 0.138485
Si Si4 0.699383 0.581489 0.505734
O O1 0.099871 0.419513 0.510019
O O2 0.025824 0.362737 0.308206
O O3 0.000000 0.500000 0.409464
O O4 0.962866 0.382032 0.547706
O O5 0.932394 0.250000 0.625000
O O6 0.859175 0.140825 0.500000
O O7 0.991598 0.150434 0.455237
O O8 0.374456 0.125545 0.250000
O O9 0.261226 0.085693 0.118604
O O10 0.658079 0.658079 0.500000
O O11 0.750000 0.562605 0.375000
#
# Coordination Sequence:
#
# PCOD9551894 Si02
#       4
#    16  16  16  16
#     4  11  22  41  67  97 135 175 226 284 337 397
#     4  11  21  38  71 102 133 169 221 287 342 410
#     4  10  22  39  63  98 128 171 224 272 338 406
#     4  12  25  42  58  90 138 183 226 262 334 414
#
# _framework density 19.388718999999998
#
# number of rings (size 3 to 8) (size 9 to 14) (size 15 to 20)
#    0.000    1.000    7.500    0.000    0.000    1.500 
#    0.000    0.000    0.000    4.500    0.000    0.000 
#    0.000    0.000    0.000    0.000    0.000    0.000 
#
# Total GULP energy -178400.398539 kJ/mol
# GULP energy per Si atom -5575.012454 kJ/mol
# Density = 1.934459 g / cm^3
# Si number density = 19.388719 Si / 1000 Ang^3
#
#
#
# Elastic Constant Matrix: (Units=GPa)
#
#
# Indices 1 2 3 4 5 6 
#
# 1 112.2799 39.4130 51.8280 0.0000 0.0000 0.0000
# 2 39.4130 112.2799 51.8280 0.0000 0.0000 0.0000
# 3 51.8280 51.8280 85.4980 0.0000 0.0000 0.0000
# 4 0.0000 0.0000 0.0000 38.8753 0.0000 0.0000
# 5 0.0000 0.0000 0.0000 0.0000 38.8915 0.0000
# 6 0.0000 0.0000 0.0000 0.0000 0.0000 6.4750
#
#
#
# Elastic Compliance Matrix: (Units=1/GPa)
#
#
# Indices 1 2 3 4 5 6 
#
# 1 0.012489 -0.001235 -0.006822 0.000000 0.000000 0.000000
# 2 -0.001235 0.012489 -0.006822 0.000000 0.000000 0.000000
# 3 -0.006822 -0.006822 0.019967 0.000000 0.000000 0.000000
# 4 0.000000 0.000000 0.000000 0.025723 0.000000 0.000000
# 5 0.000000 0.000000 0.000000 0.000000 0.025713 0.000000
# 6 0.000000 0.000000 0.000000 0.000000 0.000000 0.154441
#
#
# Mechanical properties :
#
#
# Convention : Reuss Voigt Hill
#
# Bulk Modulus (GPa) = 65.84644 66.24399 66.04521
# Shear Modulus (GPa) = 17.50445 27.98094 22.74269
#
# Velocity S-wave (km/s) = 3.00795 3.80301 3.42860
# Velocity P-wave (km/s) = 6.78960 7.31603 7.05772
#
# Compressibility (1/GPa) = 0.01518685
#
# Stress axis : x y z
#
# Youngs Moduli (GPa) = 80.07170 80.07173 50.08244
#
# Poissons Ratio (x) = 0.09888 0.34166
# Poissons Ratio (y) = 0.09888 0.34166
# Poissons Ratio (z) = 0.54625 0.54625
#
# Static dielectric constant tensor:
#      x y z
#    x 1.684770 0.000000 0.000000 
#    y 0.000000 1.684770 0.000000 
#    z 0.000000 0.000000 1.802850 
# 
# From -- ./inp_files/4859.got.cif
#   From: 2010.05.17/outbox.cif.g08.bks.cpg/sg98_3_cif.got.tgz:4859.got - 2010.06.03 20:00:51.
