data_PCOD9551947
_publ_section_title
;
Structure prediction by ZEFSAII (Michael W. Deem and Ramdas Pophale) SiO2 
 PCOD9551947
Probable space group: I 41 2 2
;
_chemical_formula_sum "Si O2"
_cell_formula_units_Z 56
_cell_length_a 16.561446
_cell_length_b 16.561446
_cell_length_c 9.521856
_cell_angle_alpha 90.000000
_cell_angle_beta 90.000000
_cell_angle_gamma 90.000000
_cell_volume 2611.668886
_symmetry_space_group_name_H-M "I 41 2 2"
_symmetry_group_IT_number 98
_symmetry_cell_setting 'tetragonal'
loop_
_space_group_symop_operation_xyz
x,y,z
-y,1/2+x,1/4+z
-x,-y,z
y,1/2-x,1/4+z
x,1/2-y,1/4-z
-x,1/2+y,1/4-z
y,x,-z
-y,-x,-z
1/2+x,1/2+y,1/2+z
1/2-y,x,3/4+z
1/2-x,1/2-y,1/2+z
1/2+y,-x,3/4+z
1/2+x,-y,3/4-z
1/2-x,y,3/4-z
1/2+y,1/2+x,1/2-z
1/2-y,1/2-x,1/2-z
loop_
_atom_site_type_symbol
_atom_site_label
_atom_site_fract_x
_atom_site_fract_y
_atom_site_fract_z
Si Si1 0.393098 0.260585 0.470441
Si Si2 0.372500 0.127501 0.250000
Si Si3 0.845954 0.052091 0.393348
Si Si4 0.487473 0.891485 0.842206
O O1 0.429490 0.250000 0.625000
O O2 0.317535 0.317535 0.500000
O O3 0.360426 0.184380 0.385456
O O4 0.463768 0.308365 0.391935
O O5 0.463793 0.143774 0.208950
O O6 0.883733 0.116268 0.500000
O O7 0.750000 0.068340 0.375000
O O8 0.901060 0.044445 0.251266
O O9 0.553710 0.946291 0.750000
O O10 0.407898 0.907898 0.750000
#
# Coordination Sequence:
#
# PCOD9551947 Si02
#       4
#    16   8  16  16
#     4  11  25  39  67 108 154 202 243 309 389 465
#     4  12  25  46  74 112 156 194 261 310 388 482
#     4  12  28  50  76 112 149 201 261 327 395 463
#     4  10  23  43  68 104 148 196 261 307 371 450
#
# _framework density 21.442228
#
# number of rings (size 3 to 8) (size 9 to 14) (size 15 to 20)
#    0.000    0.857    2.857    3.857   14.000    0.000 
#    0.000    1.429    0.000    0.000    0.000    0.000 
#    0.000    0.000    0.000    0.000    0.000    0.000 
#
# Total GULP energy -155919.125300 kJ/mol
# GULP energy per Si atom -5568.540189 kJ/mol
# Density = 2.139342 g / cm^3
# Si number density = 21.442228 Si / 1000 Ang^3
#
#
#
# Elastic Constant Matrix: (Units=GPa)
#
#
# Indices 1 2 3 4 5 6 
#
# 1 94.8999 76.7288 45.6407 0.0000 0.0000 0.0000
# 2 76.7288 94.9002 45.6345 0.0000 0.0000 0.0000
# 3 45.6407 45.6345 145.3082 0.0000 0.0000 0.0000
# 4 0.0000 0.0000 0.0000 39.5125 0.0000 0.0000
# 5 0.0000 0.0000 0.0000 0.0000 39.5116 0.0000
# 6 0.0000 0.0000 0.0000 0.0000 0.0000 10.4927
#
#
#
# Elastic Compliance Matrix: (Units=1/GPa)
#
#
# Indices 1 2 3 4 5 6 
#
# 1 0.031014 -0.024019 -0.002198 0.000000 0.000000 0.000000
# 2 -0.024019 0.031013 -0.002195 0.000000 0.000000 0.000000
# 3 -0.002198 -0.002195 0.008262 0.000000 0.000000 0.000000
# 4 0.000000 0.000000 0.000000 0.025308 0.000000 0.000000
# 5 0.000000 0.000000 0.000000 0.000000 0.025309 0.000000
# 6 0.000000 0.000000 0.000000 0.000000 0.000000 0.095305
#
#
# Mechanical properties :
#
#
# Convention : Reuss Voigt Hill
#
# Bulk Modulus (GPa) = 74.27202 74.56849 74.42025
# Shear Modulus (GPa) = 18.01645 29.04363 23.53004
#
# Velocity S-wave (km/s) = 2.90182 3.68435 3.31625
# Velocity P-wave (km/s) = 6.77797 7.27676 7.03179
#
# Compressibility (1/GPa) = 0.01346402
#
# Stress axis : x y z
#
# Youngs Moduli (GPa) = 32.24314 32.24483 121.03735
#
# Poissons Ratio (x) = 0.77448 0.26608
# Poissons Ratio (y) = 0.77444 0.26573
# Poissons Ratio (z) = 0.07088 0.07079
#
# Static dielectric constant tensor:
#      x y z
#    x 1.730440 0.000000 0.000000 
#    y 0.000000 1.730450 0.000000 
#    z 0.000000 0.000000 3.265180 
# 
# From -- ./inp_files/2972.got.cif
#   From: 2010.05.17/outbox.cif.g08.bks.cpg/sg98_2_cif.got.tgz:2972.got - 2010.06.03 20:00:51.
