data_PCOD9551834
_publ_section_title
;
Structure prediction by ZEFSAII (Michael W. Deem and Ramdas Pophale) SiO2 
 PCOD9551834
Probable space group: I 41 2 2
;
_chemical_formula_sum "Si O2"
_cell_formula_units_Z 64
_cell_length_a 14.966346
_cell_length_b 14.966346
_cell_length_c 14.578744
_cell_angle_alpha 90.000000
_cell_angle_beta 90.000000
_cell_angle_gamma 90.000000
_cell_volume 3265.514920
_symmetry_space_group_name_H-M "I 41 2 2"
_symmetry_group_IT_number 98
_symmetry_cell_setting 'tetragonal'
loop_
_space_group_symop_operation_xyz
x,y,z
-y,1/2+x,1/4+z
-x,-y,z
y,1/2-x,1/4+z
x,1/2-y,1/4-z
-x,1/2+y,1/4-z
y,x,-z
-y,-x,-z
1/2+x,1/2+y,1/2+z
1/2-y,x,3/4+z
1/2-x,1/2-y,1/2+z
1/2+y,-x,3/4+z
1/2+x,-y,3/4-z
1/2-x,y,3/4-z
1/2+y,1/2+x,1/2-z
1/2-y,1/2-x,1/2-z
loop_
_atom_site_type_symbol
_atom_site_label
_atom_site_fract_x
_atom_site_fract_y
_atom_site_fract_z
Si Si1 0.372286 0.490561 0.551642
Si Si2 0.156715 0.972899 0.254005
Si Si3 0.865012 0.994459 0.460390
Si Si4 0.735155 0.383100 0.268937
O O1 0.399801 0.399801 0.500000
O O2 0.435873 0.564128 0.500000
O O3 0.384670 0.486268 0.660927
O O4 0.275024 0.533851 0.537494
O O5 0.137522 0.867174 0.249816
O O6 0.121792 0.007973 0.350894
O O7 0.263136 0.988482 0.261315
O O8 0.902747 0.902747 0.500000
O O9 0.925921 0.074080 0.500000
O O10 0.750000 0.405620 0.375000
O O11 0.795152 0.295152 0.250000
#
# Coordination Sequence:
#
# PCOD9551834 Si02
#       4
#    16  16  16  16
#     4  10  21  37  54  88 128 159 196 246 312 361
#     4  11  21  39  62  85 121 162 200 262 296 364
#     4  10  23  39  59  91 122 161 205 249 311 364
#     4  11  20  34  56  92 124 157 201 249 302 359
#
# _framework density 19.598748000000001
#
# number of rings (size 3 to 8) (size 9 to 14) (size 15 to 20)
#    0.000    1.500    5.000    2.250    3.500    4.000 
#    4.500    0.000    0.000    6.000    0.000    1.750 
#    0.000    0.000    0.000    0.000    0.000    0.000 
#
# Total GULP energy -178604.960750 kJ/mol
# GULP energy per Si atom -5581.405023 kJ/mol
# Density = 1.955414 g / cm^3
# Si number density = 19.598748 Si / 1000 Ang^3
#
#
#
# Elastic Constant Matrix: (Units=GPa)
#
#
# Indices 1 2 3 4 5 6 
#
# 1 58.3521 54.5730 37.4673 0.0000 0.0000 0.0000
# 2 54.5730 58.3507 37.4666 0.0000 0.0000 0.0000
# 3 37.4673 37.4666 196.3896 0.0000 0.0000 0.0000
# 4 0.0000 0.0000 0.0000 8.6724 0.0000 0.0000
# 5 0.0000 0.0000 0.0000 0.0000 8.6761 0.0000
# 6 0.0000 0.0000 0.0000 0.0000 0.0000 33.0830
#
#
#
# Elastic Compliance Matrix: (Units=1/GPa)
#
#
# Indices 1 2 3 4 5 6 
#
# 1 0.137397 -0.127260 -0.001934 0.000000 0.000000 0.000000
# 2 -0.127260 0.137400 -0.001934 0.000000 0.000000 0.000000
# 3 -0.001934 -0.001934 0.005830 0.000000 0.000000 0.000000
# 4 0.000000 0.000000 0.000000 0.115308 0.000000 0.000000
# 5 0.000000 0.000000 0.000000 0.000000 0.115259 0.000000
# 6 0.000000 0.000000 0.000000 0.000000 0.000000 0.030227
#
#
# Mechanical properties :
#
#
# Convention : Reuss Voigt Hill
#
# Bulk Modulus (GPa) = 54.43417 63.56734 59.00075
# Shear Modulus (GPa) = 6.17436 22.32536 14.24986
#
# Velocity S-wave (km/s) = 1.77686 3.37875 2.69937
# Velocity P-wave (km/s) = 5.66076 6.90841 6.31547
#
# Compressibility (1/GPa) = 0.01837081
#
# Stress axis : x y z
#
# Youngs Moduli (GPa) = 7.27818 7.27801 171.52749
#
# Poissons Ratio (x) = 0.92620 0.33182
# Poissons Ratio (y) = 0.92622 0.33176
# Poissons Ratio (z) = 0.01408 0.01408
#
# Static dielectric constant tensor:
#      x y z
#    x 1.730640 0.000000 0.000000 
#    y 0.000000 1.730640 0.000000 
#    z 0.000000 0.000000 1.734910 
# 
# From -- ./inp_files/6252.got.cif
#   From: 2010.05.17/outbox.cif.g08.bks.cpg/sg98_4_cif.got.tgz:6252.got - 2010.06.03 20:00:51.
