data_PCOD9551808
_publ_section_title
;
Structure prediction by ZEFSAII (Michael W. Deem and Ramdas Pophale) SiO2 
 PCOD9551808
Probable space group: I 41 2 2
;
_chemical_formula_sum "Si O2"
_cell_formula_units_Z 64
_cell_length_a 23.041194
_cell_length_b 23.041194
_cell_length_c 5.862365
_cell_angle_alpha 90.000000
_cell_angle_beta 90.000000
_cell_angle_gamma 90.000000
_cell_volume 3112.309769
_symmetry_space_group_name_H-M "I 41 2 2"
_symmetry_group_IT_number 98
_symmetry_cell_setting 'tetragonal'
loop_
_space_group_symop_operation_xyz
x,y,z
-y,1/2+x,1/4+z
-x,-y,z
y,1/2-x,1/4+z
x,1/2-y,1/4-z
-x,1/2+y,1/4-z
y,x,-z
-y,-x,-z
1/2+x,1/2+y,1/2+z
1/2-y,x,3/4+z
1/2-x,1/2-y,1/2+z
1/2+y,-x,3/4+z
1/2+x,-y,3/4-z
1/2-x,y,3/4-z
1/2+y,1/2+x,1/2-z
1/2-y,1/2-x,1/2-z
loop_
_atom_site_type_symbol
_atom_site_label
_atom_site_fract_x
_atom_site_fract_y
_atom_site_fract_z
Si Si1 0.069435 0.690782 0.763440
Si Si2 0.898979 0.019367 0.160766
Si Si3 0.581266 0.581266 0.000000
Si Si4 0.310083 0.689918 0.000000
Si Si5 0.043443 0.185550 0.188972
O O1 0.070928 0.750000 0.625000
O O2 0.058762 0.638414 0.585348
O O3 0.130655 0.686428 0.893609
O O4 0.015870 0.696275 0.927403
O O5 0.928113 0.971104 0.321402
O O6 0.941796 0.058205 0.000000
O O7 0.853294 0.979244 0.021084
O O8 0.578169 0.641865 0.858398
O O9 0.311216 0.750000 0.125000
O O10 0.067669 0.250000 0.125000
#
# Coordination Sequence:
#
# PCOD9551808 Si02
#       5
#    16  16   8   8  16
#     4  10  20  39  59  88 122 167 223 275 317 387
#     4  11  23  41  66  95 133 177 212 269 339 392
#     4  10  26  41  64 100 138 164 222 272 332 414
#     4  10  22  38  52  77 118 164 222 279 324 358
#     4  11  22  40  67  94 132 172 217 267 335 401
#
# _framework density 20.563507000000001
#
# number of rings (size 3 to 8) (size 9 to 14) (size 15 to 20)
#    0.000    1.500    2.500    2.250    0.000    7.000 
#    9.000    0.000    0.000    0.000    0.000    0.000 
#   52.500    0.000    0.000    0.000    0.000    0.000 
#
# Total GULP energy -178370.488094 kJ/mol
# GULP energy per Si atom -5574.077753 kJ/mol
# Density = 2.051670 g / cm^3
# Si number density = 20.563507 Si / 1000 Ang^3
#
#
#
# Elastic Constant Matrix: (Units=GPa)
#
#
# Indices 1 2 3 4 5 6 
#
# 1 116.6286 58.5917 41.6893 0.0000 0.0000 0.0000
# 2 58.5917 116.6274 41.6884 0.0000 0.0000 0.0000
# 3 41.6893 41.6884 77.7736 0.0000 0.0000 0.0000
# 4 0.0000 0.0000 0.0000 29.5195 0.0000 0.0000
# 5 0.0000 0.0000 0.0000 0.0000 29.5173 0.0000
# 6 0.0000 0.0000 0.0000 0.0000 0.0000 5.6980
#
#
#
# Elastic Compliance Matrix: (Units=1/GPa)
#
#
# Indices 1 2 3 4 5 6 
#
# 1 0.012446 -0.004785 -0.004107 0.000000 0.000000 0.000000
# 2 -0.004785 0.012446 -0.004107 0.000000 0.000000 0.000000
# 3 -0.004107 -0.004107 0.017260 0.000000 0.000000 0.000000
# 4 0.000000 0.000000 0.000000 0.033876 0.000000 0.000000
# 5 0.000000 0.000000 0.000000 0.000000 0.033878 0.000000
# 6 0.000000 0.000000 0.000000 0.000000 0.000000 0.175501
#
#
# Mechanical properties :
#
#
# Convention : Reuss Voigt Hill
#
# Bulk Modulus (GPa) = 61.89536 66.10763 64.00149
# Shear Modulus (GPa) = 15.78340 24.21764 20.00052
#
# Velocity S-wave (km/s) = 2.77346 3.43549 3.12207
# Velocity P-wave (km/s) = 6.35776 6.92492 6.64739
#
# Compressibility (1/GPa) = 0.01615630
#
# Stress axis : x y z
#
# Youngs Moduli (GPa) = 80.34767 80.34751 57.93613
#
# Poissons Ratio (x) = 0.38444 0.23793
# Poissons Ratio (y) = 0.38444 0.23792
# Poissons Ratio (z) = 0.32997 0.32995
#
# Static dielectric constant tensor:
#      x y z
#    x 1.831750 0.000000 0.000000 
#    y 0.000000 1.831750 0.000000 
#    z 0.000000 0.000000 1.756630 
# 
# From -- ./inp_files/1447.got.cif
#   From: 2010.05.17/outbox.cif.g08.bks.cpg/sg98_1_cif.got.tgz:1447.got - 2010.06.03 20:00:51.
