data_PCOD9551854
_publ_section_title
;
Structure prediction by ZEFSAII (Michael W. Deem and Ramdas Pophale) SiO2 
 PCOD9551854
Probable space group: I 41 2 2
;
_chemical_formula_sum "Si O2"
_cell_formula_units_Z 64
_cell_length_a 24.968090
_cell_length_b 24.968090
_cell_length_c 5.387289
_cell_angle_alpha 90.000000
_cell_angle_beta 90.000000
_cell_angle_gamma 90.000000
_cell_volume 3358.465691
_symmetry_space_group_name_H-M "I 41 2 2"
_symmetry_group_IT_number 98
_symmetry_cell_setting 'tetragonal'
loop_
_space_group_symop_operation_xyz
x,y,z
-y,1/2+x,1/4+z
-x,-y,z
y,1/2-x,1/4+z
x,1/2-y,1/4-z
-x,1/2+y,1/4-z
y,x,-z
-y,-x,-z
1/2+x,1/2+y,1/2+z
1/2-y,x,3/4+z
1/2-x,1/2-y,1/2+z
1/2+y,-x,3/4+z
1/2+x,-y,3/4-z
1/2-x,y,3/4-z
1/2+y,1/2+x,1/2-z
1/2-y,1/2-x,1/2-z
loop_
_atom_site_type_symbol
_atom_site_label
_atom_site_fract_x
_atom_site_fract_y
_atom_site_fract_z
Si Si1 0.952416 0.632083 0.212198
Si Si2 0.705854 0.419879 0.060335
Si Si3 0.250000 0.016181 0.875000
Si Si4 0.831518 0.250000 0.125000
Si Si5 0.516995 0.397075 0.040531
O O1 0.894850 0.605151 0.250000
O O2 0.952711 0.696800 0.208587
O O3 0.986915 0.610342 0.447130
O O4 0.979150 0.613795 0.949894
O O5 0.730895 0.475260 0.162232
O O6 0.706787 0.373825 0.262516
O O7 0.648936 0.437269 0.959109
O O8 0.750000 0.397410 0.875000
O O9 0.790121 0.290121 0.250000
O O10 0.546669 0.453332 0.000000
#
# Coordination Sequence:
#
# PCOD9551854 Si02
#       5
#    16  16   8   8  16
#     4  11  23  40  62  92 125 161 199 246 306 365
#     4  10  21  39  60  77 109 151 210 252 299 366
#     4   9  20  40  60  88 114 152 200 247 286 370
#     4  11  28  38  52  80 114 156 208 275 326 356
#     4  11  24  38  62  89 123 160 203 253 309 364
#
# _framework density 19.056322000000002
#
# number of rings (size 3 to 8) (size 9 to 14) (size 15 to 20)
#    0.000    1.500    2.500    1.500    5.250    3.000 
#    0.000    0.000    0.000    0.000    0.000    7.000 
#    0.000    0.000    0.000    0.000    0.000    0.000 
#
# Total GULP energy -178301.074401 kJ/mol
# GULP energy per Si atom -5571.908575 kJ/mol
# Density = 1.901295 g / cm^3
# Si number density = 19.056322 Si / 1000 Ang^3
#
#
#
# Elastic Constant Matrix: (Units=GPa)
#
#
# Indices 1 2 3 4 5 6 
#
# 1 89.7787 66.6916 13.0676 0.0000 0.0000 0.0000
# 2 66.6916 89.7709 13.0667 0.0000 0.0000 0.0000
# 3 13.0676 13.0667 74.5874 0.0000 0.0000 0.0000
# 4 0.0000 0.0000 0.0000 -206.8976 0.0000 0.0000
# 5 0.0000 0.0000 0.0000 0.0000 -206.7898 0.0000
# 6 0.0000 0.0000 0.0000 0.0000 0.0000 201.7349
#
#
#
# Elastic Compliance Matrix: (Units=1/GPa)
#
#
# Indices 1 2 3 4 5 6 
#
# 1 0.024952 -0.018369 -0.001153 0.000000 0.000000 0.000000
# 2 -0.018369 0.024954 -0.001153 0.000000 0.000000 0.000000
# 3 -0.001153 -0.001153 0.013811 0.000000 0.000000 0.000000
# 4 0.000000 0.000000 0.000000 -0.004833 0.000000 0.000000
# 5 0.000000 0.000000 0.000000 0.000000 -0.004836 0.000000
# 6 0.000000 0.000000 0.000000 0.000000 0.000000 0.004957
#
#
# Mechanical properties :
#
#
# Convention : Reuss Voigt Hill
#
# Bulk Modulus (GPa) = 44.71248 48.86541 46.78895
# Shear Modulus (GPa) = 46.37745 -31.63642 7.37051
#
# Velocity S-wave (km/s) = 4.93861 -4.07892 1.96879
# Velocity P-wave (km/s) = 7.48559 1.87479 5.45660
#
# Compressibility (1/GPa) = 0.02236512
#
# Stress axis : x y z
#
# Youngs Moduli (GPa) = 40.07755 40.07413 72.40477
#
# Poissons Ratio (x) = 0.73612 0.08352
# Poissons Ratio (y) = 0.73618 0.08351
# Poissons Ratio (z) = 0.04623 0.04622
#
# Static dielectric constant tensor:
#      x y z
#    x 1.761310 0.000000 0.000000 
#    y 0.000000 1.761270 0.000000 
#    z 0.000000 0.000000 1.711600 
# 
# From -- ./inp_files/1454.got.cif
#   From: 2010.05.17/outbox.cif.g08.bks.cpg/sg98_1_cif.got.tgz:1454.got - 2010.06.03 20:00:51.
