data_PCOD9551006
_publ_section_title
;
Structure prediction by ZEFSAII (Michael W. Deem and Ramdas Pophale) SiO2 
 PCOD9551006
Probable space group: P 43 21 2
;
_chemical_formula_sum "Si O2"
_cell_formula_units_Z 52
_cell_length_a 19.696878
_cell_length_b 19.696878
_cell_length_c 6.502909
_cell_angle_alpha 90.000000
_cell_angle_beta 90.000000
_cell_angle_gamma 90.000000
_cell_volume 2522.914115
_symmetry_space_group_name_H-M "P 43 21 2"
_symmetry_group_IT_number 96
_symmetry_cell_setting 'tetragonal'
loop_
_space_group_symop_operation_xyz
x,y,z
1/2-y,1/2+x,3/4+z
-x,-y,1/2+z
1/2+y,1/2-x,1/4+z
1/2+x,1/2-y,1/4-z
1/2-x,1/2+y,3/4-z
y,x,-z
-y,-x,1/2-z
loop_
_atom_site_type_symbol
_atom_site_label
_atom_site_fract_x
_atom_site_fract_y
_atom_site_fract_z
Si Si1 0.679202 0.679202 0.000000
Si Si2 0.194167 0.090963 0.040788
Si Si3 0.941554 0.714473 0.835693
Si Si4 0.294170 0.785152 0.922833
Si Si5 0.965306 0.234063 0.692939
Si Si6 0.606177 0.865896 0.873851
Si Si7 0.086687 0.492733 0.921088
O O1 0.694183 0.739614 0.842229
O O2 0.690193 0.603118 0.917061
O O3 0.229182 0.146278 0.193656
O O4 0.202936 0.016846 0.138078
O O5 0.118783 0.118783 0.000000
O O6 0.236869 0.095256 0.827588
O O7 0.986952 0.664031 0.699642
O O8 0.894094 0.664214 0.972909
O O9 0.990281 0.755529 0.988818
O O10 0.246614 0.753387 0.750000
O O11 0.337152 0.854785 0.919661
O O12 0.937828 0.307666 0.767102
O O13 0.555947 0.920654 0.776783
O O14 0.044364 0.559524 0.871153
#
# Coordination Sequence:
#
# PCOD9551006 Si02
#       7
#     4   8   8   8   8   8   8
#     4  10  26  42  74 102 146 176 234 288 360 406
#     4  11  25  43  69 100 136 173 236 283 347 413
#     4  12  24  42  67  93 137 182 217 286 344 394
#     4  10  23  38  64  99 131 173 223 286 338 396
#     4  11  24  45  66 103 136 177 229 289 346 424
#     4  11  22  40  64  96 135 172 231 275 333 420
#     4  12  23  37  59  92 134 186 222 261 320 413
#
# _framework density 20.611087000000001
#
# number of rings (size 3 to 8) (size 9 to 14) (size 15 to 20)
#    0.000    0.923    3.077    3.692   10.769    0.615 
#    0.000    0.000    3.385    0.000    0.000    0.000 
#    0.000    0.000    0.000    0.000    0.000    0.000 
#
# Total GULP energy -290106.123058 kJ/mol
# GULP energy per Si atom -5578.963905 kJ/mol
# Density = 2.056418 g / cm^3
# Si number density = 20.611087 Si / 1000 Ang^3
#
#
#
# Elastic Constant Matrix: (Units=GPa)
#
#
# Indices 1 2 3 4 5 6 
#
# 1 90.4161 38.3144 25.4169 0.0000 0.0000 0.0000
# 2 38.3144 90.4154 25.4179 0.0000 0.0000 0.0000
# 3 25.4169 25.4179 44.3012 0.0000 0.0000 0.0000
# 4 0.0000 0.0000 0.0000 27.8382 0.0000 0.0000
# 5 0.0000 0.0000 0.0000 0.0000 27.8382 0.0000
# 6 0.0000 0.0000 0.0000 0.0000 0.0000 44.5741
#
#
#
# Elastic Compliance Matrix: (Units=1/GPa)
#
#
# Indices 1 2 3 4 5 6 
#
# 1 0.014618 -0.004575 -0.005762 0.000000 0.000000 0.000000
# 2 -0.004575 0.014619 -0.005763 0.000000 0.000000 0.000000
# 3 -0.005762 -0.005763 0.029185 0.000000 0.000000 0.000000
# 4 0.000000 0.000000 0.000000 0.035922 0.000000 0.000000
# 5 0.000000 0.000000 0.000000 0.000000 0.035922 0.000000
# 6 0.000000 0.000000 0.000000 0.000000 0.000000 0.022435
#
#
# Mechanical properties :
#
#
# Convention : Reuss Voigt Hill
#
# Bulk Modulus (GPa) = 38.13503 44.82569 41.48036
# Shear Modulus (GPa) = 25.82096 29.11566 27.46831
#
# Velocity S-wave (km/s) = 3.54329 3.76256 3.65457
# Velocity P-wave (km/s) = 5.93988 6.37741 6.16253
#
# Compressibility (1/GPa) = 0.02622261
#
# Stress axis : x y z
#
# Youngs Moduli (GPa) = 68.40699 68.40533 34.26399
#
# Poissons Ratio (x) = 0.31294 0.19744
# Poissons Ratio (y) = 0.31295 0.19746
# Poissons Ratio (z) = 0.39418 0.39421
#
# Static dielectric constant tensor:
#      x y z
#    x 1.737140 0.000000 0.000000 
#    y 0.000000 1.737140 0.000000 
#    z 0.000000 0.000000 1.791500 
# 
# From -- ./inp_files/703.got.cif
#   From: 2010.05.17/outbox.cif.g08.bks.cpg/sg96_1_cif.got.tgz:703.got - 2010.06.03 19:52:08.
