data_PCOD9551502
_publ_section_title
;
Structure prediction by ZEFSAII (Michael W. Deem and Ramdas Pophale) SiO2 
 PCOD9551502
Probable space group: I 4 2 2 
;
_chemical_formula_sum "Si O2"
_cell_formula_units_Z 96
_cell_length_a 18.075194
_cell_length_b 18.075194
_cell_length_c 14.624389
_cell_angle_alpha 90.000000
_cell_angle_beta 90.000000
_cell_angle_gamma 90.000000
_cell_volume 4777.972711
_symmetry_space_group_name_H-M "I 4 2 2 "
_symmetry_group_IT_number 97
_symmetry_cell_setting 'tetragonal'
loop_
_space_group_symop_operation_xyz
x,y,z
-y,x,z
-x,-y,z
y,-x,z
x,-y,-z
-x,y,-z
y,x,-z
-y,-x,-z
1/2+x,1/2+y,1/2+z
1/2-y,1/2+x,1/2+z
1/2-x,1/2-y,1/2+z
1/2+y,1/2-x,1/2+z
1/2+x,1/2-y,1/2-z
1/2-x,1/2+y,1/2-z
1/2+y,1/2+x,1/2-z
1/2-y,1/2-x,1/2-z
loop_
_atom_site_type_symbol
_atom_site_label
_atom_site_fract_x
_atom_site_fract_y
_atom_site_fract_z
Si Si1 0.984389 0.118358 0.257984
Si Si2 0.409376 0.590625 0.000000
Si Si3 0.951205 0.268501 0.363349
Si Si4 0.267998 0.298302 0.393173
Si Si5 0.654405 0.446081 0.568780
Si Si6 0.677254 0.177254 0.750000
Si Si7 0.749724 0.107352 0.433523
O O1 0.999166 0.128058 0.149707
O O2 0.921991 0.059927 0.282887
O O3 0.963025 0.191344 0.310735
O O4 0.401065 0.500000 0.000000
O O5 0.392204 0.660620 0.068724
O O6 0.901902 0.316480 0.296825
O O7 0.904839 0.263176 0.457683
O O8 0.035093 0.287072 0.389016
O O9 0.283099 0.283099 0.500000
O O10 0.298759 0.381485 0.382363
O O11 0.309423 0.242163 0.325154
O O12 0.180505 0.283014 0.387569
O O13 0.698549 0.500000 0.500000
O O14 0.593849 0.406152 0.500000
#
# Coordination Sequence:
#
# PCOD9551502 Si02
#       7
#    16   8  16  16  16   8  16
#     4  11  24  37  55  95 136 176 217 267 338 422
#     4  11  20  30  56  90 136 180 213 256 328 412
#     4  11  25  39  65  92 138 176 233 280 347 405
#     4  11  24  41  67  95 133 183 236 284 341 409
#     4  11  23  41  64  91 133 179 224 279 340 409
#     4  12  24  44  64  96 135 189 234 290 330 414
#     4  11  23  44  61  95 134 186 227 282 345 416
#
# _framework density 20.092205
#
# number of rings (size 3 to 8) (size 9 to 14) (size 15 to 20)
#    0.000    0.917    5.833    1.000    9.333    0.167 
#    3.000    0.000    0.000    0.000    0.000   11.667 
#    0.000    0.000    0.000    0.000    0.000    0.000 
#
# Total GULP energy -267388.158919 kJ/mol
# GULP energy per Si atom -5570.586644 kJ/mol
# Density = 2.004647 g / cm^3
# Si number density = 20.092205 Si / 1000 Ang^3
#
#
#
# Elastic Constant Matrix: (Units=GPa)
#
#
# Indices 1 2 3 4 5 6 
#
# 1 75.0556 33.6379 36.4437 0.0000 0.0000 0.0000
# 2 33.6379 75.0547 36.4437 0.0000 0.0000 0.0000
# 3 36.4437 36.4437 88.6610 0.0000 0.0000 0.0000
# 4 0.0000 0.0000 0.0000 31.2238 0.0000 0.0000
# 5 0.0000 0.0000 0.0000 0.0000 31.2238 0.0000
# 6 0.0000 0.0000 0.0000 0.0000 0.0000 103.5071
#
#
#
# Elastic Compliance Matrix: (Units=1/GPa)
#
#
# Indices 1 2 3 4 5 6 
#
# 1 0.018423 -0.005722 -0.005221 0.000000 0.000000 0.000000
# 2 -0.005722 0.018423 -0.005221 0.000000 0.000000 0.000000
# 3 -0.005221 -0.005221 0.015571 0.000000 0.000000 0.000000
# 4 0.000000 0.000000 0.000000 0.032027 0.000000 0.000000
# 5 0.000000 0.000000 0.000000 0.000000 0.032027 0.000000
# 6 0.000000 0.000000 0.000000 0.000000 0.000000 0.009661
#
#
# Mechanical properties :
#
#
# Convention : Reuss Voigt Hill
#
# Bulk Modulus (GPa) = 49.77563 50.20242 49.98902
# Shear Modulus (GPa) = 30.27471 42.00735 36.14103
#
# Velocity S-wave (km/s) = 3.88595 4.57741 4.24578
# Velocity P-wave (km/s) = 6.70533 7.27854 6.99781
#
# Compressibility (1/GPa) = 0.02009015
#
# Stress axis : x y z
#
# Youngs Moduli (GPa) = 54.28090 54.28011 64.22262
#
# Poissons Ratio (x) = 0.31057 0.33529
# Poissons Ratio (y) = 0.31058 0.33529
# Poissons Ratio (z) = 0.28338 0.28339
#
# Static dielectric constant tensor:
#      x y z
#    x 1.731840 0.000000 0.000000 
#    y 0.000000 1.731840 0.000000 
#    z 0.000000 0.000000 1.920330 
# 
# From -- ./inp_files/5799.got.cif
#   From: 2010.05.17/outbox.cif.g08.bks.cpg/sg97_3_cif.got.tgz:5799.got - 2010.06.03 19:55:32.
