data_PCOD9551799
_publ_section_title
;
Structure prediction by ZEFSAII (Michael W. Deem and Ramdas Pophale) SiO2 
 PCOD9551799
Probable space group: I 41 2 2
;
_chemical_formula_sum "Si O2"
_cell_formula_units_Z 108
_cell_length_a 29.291030
_cell_length_b 29.291030
_cell_length_c 5.284176
_cell_angle_alpha 90.000000
_cell_angle_beta 90.000000
_cell_angle_gamma 90.000000
_cell_volume 4533.635095
_symmetry_space_group_name_H-M "I 41 2 2"
_symmetry_group_IT_number 98
_symmetry_cell_setting 'tetragonal'
loop_
_space_group_symop_operation_xyz
x,y,z
-y,1/2+x,1/4+z
-x,-y,z
y,1/2-x,1/4+z
x,1/2-y,1/4-z
-x,1/2+y,1/4-z
y,x,-z
-y,-x,-z
1/2+x,1/2+y,1/2+z
1/2-y,x,3/4+z
1/2-x,1/2-y,1/2+z
1/2+y,-x,3/4+z
1/2+x,-y,3/4-z
1/2-x,y,3/4-z
1/2+y,1/2+x,1/2-z
1/2-y,1/2-x,1/2-z
loop_
_atom_site_type_symbol
_atom_site_label
_atom_site_fract_x
_atom_site_fract_y
_atom_site_fract_z
Si Si1 0.912943 0.523961 0.918707
Si Si2 0.000000 0.000000 0.000000
Si Si3 0.344183 0.222187 0.863395
Si Si4 0.665038 0.999474 0.075708
Si Si5 0.569485 0.826999 0.811088
Si Si6 0.305415 0.918870 0.852521
Si Si7 0.250000 0.481619 0.875000
Si Si8 0.868313 0.303993 0.649490
O O1 0.939353 0.560648 0.750000
O O2 0.881508 0.494301 0.727639
O O3 0.953342 0.501057 0.083139
O O4 0.874289 0.549517 0.082272
O O5 0.364565 0.250000 0.625000
O O6 0.297424 0.202577 0.750000
O O7 0.378683 0.180026 0.894148
O O8 0.339627 0.250000 0.125000
O O9 0.710992 0.009921 0.233447
O O10 0.671041 0.031861 0.833272
O O11 0.670864 0.947197 0.980417
O O12 0.547338 0.781073 0.933099
O O13 0.250000 0.921214 0.875000
O O14 0.319391 0.887356 0.619643
O O15 0.321753 0.899070 0.119966
O O16 0.870084 0.250000 0.625000
O O17 0.819088 0.319088 0.750000
#
# Coordination Sequence:
#
# PCOD9551799 Si02
#       8
#    16   4  16  16  16  16   8  16
#     4  11  27  47  78 103 144 192 255 317 399 469
#     4  12  26  56  76 106 144 200 254 340 386 484
#     4  12  28  49  76 111 158 214 266 333 396 482
#     4  11  24  40  72 109 145 198 241 312 385 476
#     4  11  24  43  71 113 148 191 258 326 395 461
#     4  10  22  39  69 101 146 194 236 294 377 442
#     4  10  20  38  66 106 158 180 250 306 388 446
#     4  10  22  42  68 101 144 192 245 302 359 432
#
# _framework density 23.821944999999999
#
# number of rings (size 3 to 8) (size 9 to 14) (size 15 to 20)
#    0.000    1.185    0.741    4.222   12.444    0.593 
#    0.000    5.185    3.259    0.000    0.000    0.000 
#    0.000    0.000    0.000    0.000    0.000    0.000 
#
# Total GULP energy -301579.853894 kJ/mol
# GULP energy per Si atom -5584.812109 kJ/mol
# Density = 2.376772 g / cm^3
# Si number density = 23.821945 Si / 1000 Ang^3
#
#
#
# Elastic Constant Matrix: (Units=GPa)
#
#
# Indices 1 2 3 4 5 6 
#
# 1 -69.5558 232.7026 64.9252 0.0000 0.0000 0.0000
# 2 232.7026 -69.5447 64.9328 0.0000 0.0000 0.0000
# 3 64.9252 64.9328 156.7749 0.0000 0.0000 0.0000
# 4 0.0000 0.0000 0.0000 28.5200 0.0000 0.0000
# 5 0.0000 0.0000 0.0000 0.0000 28.5207 0.0000
# 6 0.0000 0.0000 0.0000 0.0000 0.0000 23.9448
#
#
#
# Elastic Compliance Matrix: (Units=1/GPa)
#
#
# Indices 1 2 3 4 5 6 
#
# 1 0.002917 0.006226 -0.003787 0.000000 0.000000 0.000000
# 2 0.006226 0.002917 -0.003787 0.000000 0.000000 0.000000
# 3 -0.003787 -0.003787 0.009515 0.000000 0.000000 0.000000
# 4 0.000000 0.000000 0.000000 0.035063 0.000000 0.000000
# 5 0.000000 0.000000 0.000000 0.000000 0.035062 0.000000
# 6 0.000000 0.000000 0.000000 0.000000 0.000000 0.041763
#
#
# Mechanical properties :
#
#
# Convention : Reuss Voigt Hill
#
# Bulk Modulus (GPa) = 79.02182 82.53283 80.77732
# Shear Modulus (GPa) = 37.27141 -6.79529 15.23806
#
# Velocity S-wave (km/s) = 3.95977 -1.69078 2.53190
# Velocity P-wave (km/s) = 7.35869 5.55961 6.52149
#
# Compressibility (1/GPa) = 0.01265473
#
# Stress axis : x y z
#
# Youngs Moduli (GPa) = 342.78564 342.76852 105.09592
#
# Poissons Ratio (x) = -2.13402 0.39797
# Poissons Ratio (y) = -2.13413 0.39796
# Poissons Ratio (z) = 1.29804 1.29794
#
# Static dielectric constant tensor:
#      x y z
#    x 1.969670 0.000000 0.000000 
#    y 0.000000 1.969670 0.000000 
#    z 0.000000 0.000000 2.013980 
# 
# From -- ./inp_files/2077.got.cif
#   From: 2010.05.17/outbox.cif.g08.bks.cpg/sg98_2_cif.got.tgz:2077.got - 2010.06.03 20:00:51.
