data_PCOD9551403
_publ_section_title
;
Structure prediction by ZEFSAII (Michael W. Deem and Ramdas Pophale) SiO2 
 PCOD9551403
Probable space group: I 4 2 2 
;
_chemical_formula_sum "Si O2"
_cell_formula_units_Z 64
_cell_length_a 13.931773
_cell_length_b 13.931773
_cell_length_c 14.005255
_cell_angle_alpha 90.000000
_cell_angle_beta 90.000000
_cell_angle_gamma 90.000000
_cell_volume 2718.340150
_symmetry_space_group_name_H-M "I 4 2 2 "
_symmetry_group_IT_number 97
_symmetry_cell_setting 'tetragonal'
loop_
_space_group_symop_operation_xyz
x,y,z
-y,x,z
-x,-y,z
y,-x,z
x,-y,-z
-x,y,-z
y,x,-z
-y,-x,-z
1/2+x,1/2+y,1/2+z
1/2-y,1/2+x,1/2+z
1/2-x,1/2-y,1/2+z
1/2+y,1/2-x,1/2+z
1/2+x,1/2-y,1/2-z
1/2-x,1/2+y,1/2-z
1/2+y,1/2+x,1/2-z
1/2-y,1/2-x,1/2-z
loop_
_atom_site_type_symbol
_atom_site_label
_atom_site_fract_x
_atom_site_fract_y
_atom_site_fract_z
Si Si1 0.351041 0.307031 0.219061
Si Si2 0.220890 0.514391 0.351289
Si Si3 0.476069 0.220107 0.848072
Si Si4 0.314534 0.153760 0.983398
O O1 0.267477 0.232524 0.250000
O O2 0.424539 0.309568 0.308030
O O3 0.418989 0.264621 0.134658
O O4 0.304918 0.404503 0.185952
O O5 0.164879 0.492658 0.252588
O O6 0.239875 0.416975 0.407684
O O7 0.171478 0.587379 0.424013
O O8 0.415350 0.172263 0.930650
O O9 0.245968 0.245968 0.000000
#
# Coordination Sequence:
#
# PCOD9551403 Si02
#       4
#    16  16  16  16
#     4  10  21  41  67  99 139 194 244 299 383 445
#     4   9  21  35  65  99 133 189 252 305 373 443
#     4  10  22  39  68  97 142 195 248 299 386 453
#     4  11  20  38  65 100 142 195 244 313 374 454
#
# _framework density 23.543779000000001
#
# number of rings (size 3 to 8) (size 9 to 14) (size 15 to 20)
#    1.500    0.500    0.000    5.250    0.000    0.500 
#    0.000    7.500    0.000    9.000    0.000    5.250 
#    0.000    0.000    0.000    0.000    0.000    0.000 
#
# Total GULP energy -178318.418256 kJ/mol
# GULP energy per Si atom -5572.450570 kJ/mol
# Density = 2.349019 g / cm^3
# Si number density = 23.543779 Si / 1000 Ang^3
#
#
#
# Elastic Constant Matrix: (Units=GPa)
#
#
# Indices 1 2 3 4 5 6 
#
# 1 105.8265 58.8996 41.7406 0.0000 0.0000 0.0000
# 2 58.8996 105.8269 41.7395 0.0000 0.0000 0.0000
# 3 41.7406 41.7395 145.7409 0.0000 0.0000 0.0000
# 4 0.0000 0.0000 0.0000 49.2174 0.0000 0.0000
# 5 0.0000 0.0000 0.0000 0.0000 49.2172 0.0000
# 6 0.0000 0.0000 0.0000 0.0000 0.0000 17.7702
#
#
#
# Elastic Compliance Matrix: (Units=1/GPa)
#
#
# Indices 1 2 3 4 5 6 
#
# 1 0.014206 -0.007104 -0.002034 0.000000 0.000000 0.000000
# 2 -0.007104 0.014205 -0.002034 0.000000 0.000000 0.000000
# 3 -0.002034 -0.002034 0.008026 0.000000 0.000000 0.000000
# 4 0.000000 0.000000 0.000000 0.020318 0.000000 0.000000
# 5 0.000000 0.000000 0.000000 0.000000 0.020318 0.000000
# 6 0.000000 0.000000 0.000000 0.000000 0.000000 0.056274
#
#
# Mechanical properties :
#
#
# Convention : Reuss Voigt Hill
#
# Bulk Modulus (GPa) = 70.95264 71.35043 71.15153
# Shear Modulus (GPa) = 31.17415 37.57526 34.37471
#
# Velocity S-wave (km/s) = 3.64276 3.99930 3.82518
# Velocity P-wave (km/s) = 6.92061 7.19007 7.05662
#
# Compressibility (1/GPa) = 0.01409391
#
# Stress axis : x y z
#
# Youngs Moduli (GPa) = 70.39474 70.39555 124.58786
#
# Poissons Ratio (x) = 0.50010 0.25340
# Poissons Ratio (y) = 0.50009 0.25338
# Poissons Ratio (z) = 0.14318 0.14317
#
# Static dielectric constant tensor:
#      x y z
#    x 1.919370 0.000000 0.000000 
#    y 0.000000 1.919370 0.000000 
#    z 0.000000 0.000000 2.067440 
# 
# From -- ./inp_files/5475.got.cif
#   From: 2010.05.17/outbox.cif.g08.bks.cpg/sg97_3_cif.got.tgz:5475.got - 2010.06.03 19:55:32.
