data_PCOD9551407
_publ_section_title
;
Structure prediction by ZEFSAII (Michael W. Deem and Ramdas Pophale) SiO2 
 PCOD9551407
Probable space group: I 4 2 2 
;
_chemical_formula_sum "Si O2"
_cell_formula_units_Z 112
_cell_length_a 14.814078
_cell_length_b 14.814078
_cell_length_c 25.771140
_cell_angle_alpha 90.000000
_cell_angle_beta 90.000000
_cell_angle_gamma 90.000000
_cell_volume 5655.654674
_symmetry_space_group_name_H-M "I 4 2 2 "
_symmetry_group_IT_number 97
_symmetry_cell_setting 'tetragonal'
loop_
_space_group_symop_operation_xyz
x,y,z
-y,x,z
-x,-y,z
y,-x,z
x,-y,-z
-x,y,-z
y,x,-z
-y,-x,-z
1/2+x,1/2+y,1/2+z
1/2-y,1/2+x,1/2+z
1/2-x,1/2-y,1/2+z
1/2+y,1/2-x,1/2+z
1/2+x,1/2-y,1/2-z
1/2-x,1/2+y,1/2-z
1/2+y,1/2+x,1/2-z
1/2-y,1/2-x,1/2-z
loop_
_atom_site_type_symbol
_atom_site_label
_atom_site_fract_x
_atom_site_fract_y
_atom_site_fract_z
Si Si1 0.762446 0.608621 0.495319
Si Si2 0.616691 0.086436 0.102154
Si Si3 0.889803 0.096628 0.438390
Si Si4 0.780136 0.820633 0.360045
Si Si5 0.270755 0.151733 0.803576
Si Si6 0.123794 0.914662 0.268962
Si Si7 0.123857 0.412919 0.914227
O O1 0.740151 0.500000 0.500000
O O2 0.677511 0.677511 0.500000
O O3 0.806963 0.614108 0.438709
O O4 0.843335 0.633926 0.536796
O O5 0.651539 0.111952 0.159374
O O6 0.521716 0.125980 0.080323
O O7 0.606074 0.978383 0.102905
O O8 0.892447 0.107553 0.500000
O O9 0.818792 0.161972 0.412481
O O10 0.992481 0.122641 0.422422
O O11 0.732775 0.732379 0.338866
O O12 0.858010 0.836520 0.317180
O O13 0.700713 0.890347 0.372204
O O14 0.316022 0.183979 0.750000
O O15 0.183015 0.100932 0.782474
O O16 0.021665 0.880361 0.271844
#
# Coordination Sequence:
#
# PCOD9551407 Si02
#       7
#    16  16  16  16  16  16  16
#     4  10  21  42  68  97 136 173 220 274 324 394
#     4  10  22  43  65  90 131 170 221 262 325 385
#     4   9  19  35  54  85 130 169 201 242 299 374
#     4  11  22  36  61  94 124 161 210 260 322 378
#     4  10  24  40  62  90 122 163 214 273 314 379
#     4  10  23  43  66  89 120 166 213 265 334 386
#     4  10  23  39  65  97 127 175 207 262 331 395
#
# _framework density 19.803190000000001
#
# number of rings (size 3 to 8) (size 9 to 14) (size 15 to 20)
#    0.000    2.000    0.000    2.571    8.000    4.714 
#    2.571    1.429    0.000    0.000    0.000    0.000 
#    0.000    0.000    0.000    0.000    0.000    0.000 
#
# Total GULP energy -311756.574994 kJ/mol
# GULP energy per Si atom -5567.081696 kJ/mol
# Density = 1.975812 g / cm^3
# Si number density = 19.803190 Si / 1000 Ang^3
#
#
#
# Elastic Constant Matrix: (Units=GPa)
#
#
# Indices 1 2 3 4 5 6 
#
# 1 86.9136 36.0774 36.2811 0.0000 0.0000 0.0000
# 2 36.0774 86.9117 36.2794 0.0000 0.0000 0.0000
# 3 36.2811 36.2794 75.2502 0.0000 0.0000 0.0000
# 4 0.0000 0.0000 0.0000 22.2178 0.0000 0.0000
# 5 0.0000 0.0000 0.0000 0.0000 22.2177 0.0000
# 6 0.0000 0.0000 0.0000 0.0000 0.0000 28.4880
#
#
#
# Elastic Compliance Matrix: (Units=1/GPa)
#
#
# Indices 1 2 3 4 5 6 
#
# 1 0.015517 -0.004154 -0.005479 0.000000 0.000000 0.000000
# 2 -0.004154 0.015517 -0.005478 0.000000 0.000000 0.000000
# 3 -0.005479 -0.005478 0.018571 0.000000 0.000000 0.000000
# 4 0.000000 0.000000 0.000000 0.045009 0.000000 0.000000
# 5 0.000000 0.000000 0.000000 0.000000 0.045009 0.000000
# 6 0.000000 0.000000 0.000000 0.000000 0.000000 0.035103
#
#
# Mechanical properties :
#
#
# Convention : Reuss Voigt Hill
#
# Bulk Modulus (GPa) = 51.58947 51.81681 51.70314
# Shear Modulus (GPa) = 23.65080 23.94722 23.79901
#
# Velocity S-wave (km/s) = 3.45960 3.48121 3.47043
# Velocity P-wave (km/s) = 6.48584 6.51008 6.49797
#
# Compressibility (1/GPa) = 0.01938380
#
# Stress axis : x y z
#
# Youngs Moduli (GPa) = 64.44531 64.44498 53.84596
#
# Poissons Ratio (x) = 0.26772 0.29500
# Poissons Ratio (y) = 0.26772 0.29497
# Poissons Ratio (z) = 0.35306 0.35304
#
# Static dielectric constant tensor:
#      x y z
#    x 1.751880 0.000000 0.000000 
#    y 0.000000 1.751880 0.000000 
#    z 0.000000 0.000000 1.689890 
# 
# From -- ./inp_files/7248.got.cif
#   From: 2010.05.17/outbox.cif.g08.bks.cpg/sg97_4_cif.got.tgz:7248.got - 2010.06.03 19:55:32.
