data_PCOD9551680
_publ_section_title
;
Structure prediction by ZEFSAII (Michael W. Deem and Ramdas Pophale) SiO2 
 PCOD9551680
Probable space group: I 41 2 2
;
_chemical_formula_sum "Si O2"
_cell_formula_units_Z 96
_cell_length_a 13.688421
_cell_length_b 13.688421
_cell_length_c 26.687200
_cell_angle_alpha 90.000000
_cell_angle_beta 90.000000
_cell_angle_gamma 90.000000
_cell_volume 5000.457242
_symmetry_space_group_name_H-M "I 41 2 2"
_symmetry_group_IT_number 98
_symmetry_cell_setting 'tetragonal'
loop_
_space_group_symop_operation_xyz
x,y,z
-y,1/2+x,1/4+z
-x,-y,z
y,1/2-x,1/4+z
x,1/2-y,1/4-z
-x,1/2+y,1/4-z
y,x,-z
-y,-x,-z
1/2+x,1/2+y,1/2+z
1/2-y,x,3/4+z
1/2-x,1/2-y,1/2+z
1/2+y,-x,3/4+z
1/2+x,-y,3/4-z
1/2-x,y,3/4-z
1/2+y,1/2+x,1/2-z
1/2-y,1/2-x,1/2-z
loop_
_atom_site_type_symbol
_atom_site_label
_atom_site_fract_x
_atom_site_fract_y
_atom_site_fract_z
Si Si1 0.000000 0.500000 0.984786
Si Si2 0.530851 0.891214 0.640428
Si Si3 0.060521 0.268835 0.416872
Si Si4 0.785360 0.714640 0.750000
Si Si5 0.128387 0.870031 0.809590
Si Si6 0.813042 0.909712 0.689225
Si Si7 0.693200 0.041693 0.764453
O O1 0.062604 0.423085 0.953778
O O2 0.069749 0.561937 0.020621
O O3 0.625472 0.899438 0.604361
O O4 0.438341 0.858661 0.607870
O O5 0.535076 0.825907 0.690202
O O6 0.500000 0.000000 0.655876
O O7 0.118396 0.231732 0.465654
O O8 0.081258 0.200545 0.369704
O O9 0.943849 0.281550 0.426369
O O10 0.785154 0.804655 0.711251
O O11 0.234498 0.872331 0.784417
O O12 0.742578 0.986525 0.718083
O O13 0.593215 0.093215 0.750000
#
# Coordination Sequence:
#
# PCOD9551680 Si02
#       7
#     8  16  16   8  16  16  16
#     4  10  18  40  56  77 111 166 196 230 306 378
#     4  10  19  33  55  85 128 164 197 236 307 375
#     4  11  21  37  59  88 116 155 205 265 310 361
#     4  12  22  38  61  91 118 152 210 258 314 372
#     4  10  18  36  58  75 117 166 200 235 299 365
#     4  11  23  35  59  84 123 157 198 249 308 378
#     4  11  22  34  54  89 125 168 202 242 288 379
#
# _framework density 19.198243000000002
#
# number of rings (size 3 to 8) (size 9 to 14) (size 15 to 20)
#    0.000    1.333    4.167    5.000    0.000    3.000 
#    0.000    0.000    3.667    0.000    0.000    0.000 
#    0.000    0.000    0.000    0.000    0.000    0.000 
#
# Total GULP energy -267832.130237 kJ/mol
# GULP energy per Si atom -5579.836047 kJ/mol
# Density = 1.915455 g / cm^3
# Si number density = 19.198243 Si / 1000 Ang^3
#
#
#
# Elastic Constant Matrix: (Units=GPa)
#
#
# Indices 1 2 3 4 5 6 
#
# 1 54.1768 9.7949 18.3634 0.0000 0.0000 0.0000
# 2 9.7949 54.1768 18.3634 0.0000 0.0000 0.0000
# 3 18.3634 18.3634 96.7128 0.0000 0.0000 0.0000
# 4 0.0000 0.0000 0.0000 20.8671 0.0000 0.0000
# 5 0.0000 0.0000 0.0000 0.0000 20.8671 0.0000
# 6 0.0000 0.0000 0.0000 0.0000 0.0000 18.6530
#
#
#
# Elastic Compliance Matrix: (Units=1/GPa)
#
#
# Indices 1 2 3 4 5 6 
#
# 1 0.020038 -0.002494 -0.003331 0.000000 0.000000 0.000000
# 2 -0.002494 0.020038 -0.003331 0.000000 0.000000 0.000000
# 3 -0.003331 -0.003331 0.011605 0.000000 0.000000 0.000000
# 4 0.000000 0.000000 0.000000 0.047922 0.000000 0.000000
# 5 0.000000 0.000000 0.000000 0.000000 0.047922 0.000000
# 6 0.000000 0.000000 0.000000 0.000000 0.000000 0.053611
#
#
# Mechanical properties :
#
#
# Convention : Reuss Voigt Hill
#
# Bulk Modulus (GPa) = 29.96816 33.12332 31.54574
# Shear Modulus (GPa) = 21.68523 22.64708 22.16616
#
# Velocity S-wave (km/s) = 3.36451 3.43832 3.40162
# Velocity P-wave (km/s) = 5.54410 5.74922 5.64759
#
# Compressibility (1/GPa) = 0.03336875
#
# Stress axis : x y z
#
# Youngs Moduli (GPa) = 49.90505 49.90505 86.17012
#
# Poissons Ratio (x) = 0.12444 0.28706
# Poissons Ratio (y) = 0.12444 0.28706
# Poissons Ratio (z) = 0.16625 0.16625
#
# Static dielectric constant tensor:
#      x y z
#    x 1.746830 0.000000 0.000000 
#    y 0.000000 1.746830 0.000000 
#    z 0.000000 0.000000 1.687140 
# 
# From -- ./inp_files/10054.got.cif
#   From: 2010.05.17/outbox.cif.g08.bks.cpg/sg98_6_cif.got.tgz:10054.got - 2010.06.03 20:00:51.
