data_PCOD9551578
_publ_section_title
;
Structure prediction by ZEFSAII (Michael W. Deem and Ramdas Pophale) SiO2 
 PCOD9551578
Probable space group: I 4 2 2 
;
_chemical_formula_sum "Si O2"
_cell_formula_units_Z 112
_cell_length_a 14.305016
_cell_length_b 14.305016
_cell_length_c 26.235933
_cell_angle_alpha 90.000000
_cell_angle_beta 90.000000
_cell_angle_gamma 90.000000
_cell_volume 5368.750343
_symmetry_space_group_name_H-M "I 4 2 2 "
_symmetry_group_IT_number 97
_symmetry_cell_setting 'tetragonal'
loop_
_space_group_symop_operation_xyz
x,y,z
-y,x,z
-x,-y,z
y,-x,z
x,-y,-z
-x,y,-z
y,x,-z
-y,-x,-z
1/2+x,1/2+y,1/2+z
1/2-y,1/2+x,1/2+z
1/2-x,1/2-y,1/2+z
1/2+y,1/2-x,1/2+z
1/2+x,1/2-y,1/2-z
1/2-x,1/2+y,1/2-z
1/2+y,1/2+x,1/2-z
1/2-y,1/2-x,1/2-z
loop_
_atom_site_type_symbol
_atom_site_label
_atom_site_fract_x
_atom_site_fract_y
_atom_site_fract_z
Si Si1 0.930297 0.137409 0.756210
Si Si2 0.249047 0.586922 0.647355
Si Si3 0.110352 0.262914 0.508284
Si Si4 0.264528 0.082693 0.377133
Si Si5 0.097895 0.239883 0.028800
Si Si6 0.122968 0.231134 0.342847
Si Si7 0.405560 0.944465 0.809689
O O1 0.910965 0.164614 0.814182
O O2 0.898205 0.216606 0.716916
O O3 0.039720 0.120965 0.746312
O O4 0.277141 0.575981 0.588393
O O5 0.193330 0.684044 0.650268
O O6 0.180341 0.508884 0.672157
O O7 0.166196 0.166196 0.500000
O O8 0.118871 0.291890 0.567275
O O9 0.164997 0.340592 0.475538
O O10 0.000000 0.254430 0.500000
O O11 0.171194 0.136871 0.361979
O O12 0.346935 0.104527 0.338266
O O13 0.248716 0.972017 0.373492
O O14 0.161043 0.161043 0.000000
O O15 0.000000 0.249970 0.000000
O O16 0.419982 0.919982 0.750000
O O17 0.500000 0.000000 0.825295
#
# Coordination Sequence:
#
# PCOD9551578 Si02
#       7
#    16  16  16  16  16  16  16
#     4  11  26  45  65 101 142 180 231 284 341 424
#     4  12  26  44  74  99 140 187 234 288 356 418
#     4  11  24  45  67 100 137 177 237 298 348 420
#     4  12  24  43  70  94 138 180 227 286 352 413
#     4  11  26  48  72 104 141 181 244 301 355 424
#     4  12  24  43  68 103 135 187 229 277 354 422
#     4  11  25  43  67 104 141 176 230 286 344 427
#
# _framework density 20.861464999999999
#
# number of rings (size 3 to 8) (size 9 to 14) (size 15 to 20)
#    0.000    0.571    2.857    5.571    6.000    0.857 
#    0.000    1.429    0.000    0.000    0.000    0.000 
#    0.000    0.000    0.000    0.000    0.000    0.000 
#
# Total GULP energy -313267.722410 kJ/mol
# GULP energy per Si atom -5594.066472 kJ/mol
# Density = 2.081398 g / cm^3
# Si number density = 20.861465 Si / 1000 Ang^3
#
#
#
# Elastic Constant Matrix: (Units=GPa)
#
#
# Indices 1 2 3 4 5 6 
#
# 1 44.5921 32.5721 -0.2176 0.0000 0.0000 0.0000
# 2 32.5721 44.5921 -0.2176 0.0000 0.0000 0.0000
# 3 -0.2176 -0.2176 132.7370 0.0000 0.0000 0.0000
# 4 0.0000 0.0000 0.0000 23.7393 0.0000 0.0000
# 5 0.0000 0.0000 0.0000 0.0000 23.7393 0.0000
# 6 0.0000 0.0000 0.0000 0.0000 0.0000 3.3740
#
#
#
# Elastic Compliance Matrix: (Units=1/GPa)
#
#
# Indices 1 2 3 4 5 6 
#
# 1 0.048077 -0.035118 0.000021 0.000000 0.000000 0.000000
# 2 -0.035118 0.048077 0.000021 0.000000 0.000000 0.000000
# 3 0.000021 0.000021 0.007534 0.000000 0.000000 0.000000
# 4 0.000000 0.000000 0.000000 0.042124 0.000000 0.000000
# 5 0.000000 0.000000 0.000000 0.000000 0.042124 0.000000
# 6 0.000000 0.000000 0.000000 0.000000 0.000000 0.296385
#
#
# Mechanical properties :
#
#
# Convention : Reuss Voigt Hill
#
# Bulk Modulus (GPa) = 29.81715 31.79945 30.80830
# Shear Modulus (GPa) = 8.83938 22.82282 15.83110
#
# Velocity S-wave (km/s) = 2.06067 3.31118 2.75774
# Velocity P-wave (km/s) = 4.47055 5.46762 4.99403
#
# Compressibility (1/GPa) = 0.03353774
#
# Stress axis : x y z
#
# Youngs Moduli (GPa) = 20.79991 20.79991 132.73575
#
# Poissons Ratio (x) = 0.73044 -0.00282
# Poissons Ratio (y) = 0.73044 -0.00282
# Poissons Ratio (z) = -0.00044 -0.00044
#
# Static dielectric constant tensor:
#      x y z
#    x 1.770400 0.000000 0.000000 
#    y 0.000000 1.770400 0.000000 
#    z 0.000000 0.000000 1.799430 
# 
# From -- ./inp_files/7246.got.cif
#   From: 2010.05.17/outbox.cif.g08.bks.cpg/sg97_4_cif.got.tgz:7246.got - 2010.06.03 19:55:32.
