data_PCOD9551167
_publ_section_title
;
Structure prediction by ZEFSAII (Michael W. Deem and Ramdas Pophale) SiO2 
 PCOD9551167
Probable space group: P 43 21 2
;
_chemical_formula_sum "Si O2"
_cell_formula_units_Z 40
_cell_length_a 13.084647
_cell_length_b 13.084647
_cell_length_c 9.320833
_cell_angle_alpha 90.000000
_cell_angle_beta 90.000000
_cell_angle_gamma 90.000000
_cell_volume 1595.801056
_symmetry_space_group_name_H-M "P 43 21 2"
_symmetry_group_IT_number 96
_symmetry_cell_setting 'tetragonal'
loop_
_space_group_symop_operation_xyz
x,y,z
1/2-y,1/2+x,3/4+z
-x,-y,1/2+z
1/2+y,1/2-x,1/4+z
1/2+x,1/2-y,1/4-z
1/2-x,1/2+y,3/4-z
y,x,-z
-y,-x,1/2-z
loop_
_atom_site_type_symbol
_atom_site_label
_atom_site_fract_x
_atom_site_fract_y
_atom_site_fract_z
Si Si1 0.540863 0.205900 0.185705
Si Si2 0.748791 0.190105 0.410071
Si Si3 0.204422 0.445700 0.206683
Si Si4 0.754236 0.449392 0.977719
Si Si5 0.874605 0.956073 0.230521
O O1 0.424007 0.210668 0.133477
O O2 0.531924 0.212389 0.357804
O O3 0.607252 0.112882 0.116755
O O4 0.576699 0.316080 0.125524
O O5 0.760279 0.239722 0.250000
O O6 0.857907 0.210534 0.476628
O O7 0.671870 0.231240 0.528495
O O8 0.179393 0.491519 0.361583
O O9 0.274956 0.528396 0.122116
O O10 0.633011 0.455730 0.945970
O O11 0.939145 0.060856 0.250000
#
# Coordination Sequence:
#
# PCOD9551167 Si02
#       5
#     8   8   8   8   8
#     4  12  24  48  81 112 163 219 269 339 426 491
#     4  12  23  53  80 109 168 226 263 339 431 485
#     4  12  26  48  78 119 161 210 281 349 402 500
#     4  12  28  46  79 120 159 212 280 346 414 488
#     4  12  24  46  80 117 159 215 273 339 419 489
#
# _framework density 25.065783
#
# number of rings (size 3 to 8) (size 9 to 14) (size 15 to 20)
#    0.000    0.000    8.000    1.200    2.800    3.200 
#    3.600   10.000    0.000    0.000    0.000    0.000 
#    0.000    0.000    0.000    0.000    0.000    0.000 
#
# Total GULP energy -222990.475983 kJ/mol
# GULP energy per Si atom -5574.761900 kJ/mol
# Density = 2.500873 g / cm^3
# Si number density = 25.065783 Si / 1000 Ang^3
#
#
#
# Elastic Constant Matrix: (Units=GPa)
#
#
# Indices 1 2 3 4 5 6 
#
# 1 98.0938 53.9561 57.5908 0.0000 0.0000 0.0000
# 2 53.9561 98.0913 57.5909 0.0000 0.0000 0.0000
# 3 57.5908 57.5909 170.5310 0.0000 0.0000 0.0000
# 4 0.0000 0.0000 0.0000 40.7953 0.0000 0.0000
# 5 0.0000 0.0000 0.0000 0.0000 40.7953 0.0000
# 6 0.0000 0.0000 0.0000 0.0000 0.0000 36.8450
#
#
#
# Elastic Compliance Matrix: (Units=1/GPa)
#
#
# Indices 1 2 3 4 5 6 
#
# 1 0.015747 -0.006910 -0.002985 0.000000 0.000000 0.000000
# 2 -0.006910 0.015748 -0.002985 0.000000 0.000000 0.000000
# 3 -0.002985 -0.002985 0.007880 0.000000 0.000000 0.000000
# 4 0.000000 0.000000 0.000000 0.024513 0.000000 0.000000
# 5 0.000000 0.000000 0.000000 0.000000 0.024513 0.000000
# 6 0.000000 0.000000 0.000000 0.000000 0.000000 0.027141
#
#
# Mechanical properties :
#
#
# Convention : Reuss Voigt Hill
#
# Bulk Modulus (GPa) = 73.43788 78.33242 75.88515
# Shear Modulus (GPa) = 34.28470 36.85899 35.57185
#
# Velocity S-wave (km/s) = 3.70238 3.83886 3.77123
# Velocity P-wave (km/s) = 6.90206 7.13917 7.02161
#
# Compressibility (1/GPa) = 0.01361695
#
# Stress axis : x y z
#
# Youngs Moduli (GPa) = 63.50352 63.50144 126.90406
#
# Poissons Ratio (x) = 0.43877 0.37875
# Poissons Ratio (y) = 0.43878 0.37878
# Poissons Ratio (z) = 0.18953 0.18954
#
# Static dielectric constant tensor:
#      x y z
#    x 2.180480 0.000000 0.000000 
#    y 0.000000 2.180480 0.000000 
#    z 0.000000 0.000000 2.095720 
# 
# From -- ./inp_files/1270.got.cif
#   From: 2010.05.17/outbox.cif.g08.bks.cpg/sg96_1_cif.got.tgz:1270.got - 2010.06.03 19:52:08.
