data_PCOD9551303
_publ_section_title
;
Structure prediction by ZEFSAII (Michael W. Deem and Ramdas Pophale) SiO2 
 PCOD9551303
Probable space group: I 4 2 2 
;
_chemical_formula_sum "Si O2"
_cell_formula_units_Z 96
_cell_length_a 22.503250
_cell_length_b 22.503250
_cell_length_c 9.195424
_cell_angle_alpha 90.000000
_cell_angle_beta 90.000000
_cell_angle_gamma 90.000000
_cell_volume 4656.528328
_symmetry_space_group_name_H-M "I 4 2 2 "
_symmetry_group_IT_number 97
_symmetry_cell_setting 'tetragonal'
loop_
_space_group_symop_operation_xyz
x,y,z
-y,x,z
-x,-y,z
y,-x,z
x,-y,-z
-x,y,-z
y,x,-z
-y,-x,-z
1/2+x,1/2+y,1/2+z
1/2-y,1/2+x,1/2+z
1/2-x,1/2-y,1/2+z
1/2+y,1/2-x,1/2+z
1/2+x,1/2-y,1/2-z
1/2-x,1/2+y,1/2-z
1/2+y,1/2+x,1/2-z
1/2-y,1/2-x,1/2-z
loop_
_atom_site_type_symbol
_atom_site_label
_atom_site_fract_x
_atom_site_fract_y
_atom_site_fract_z
Si Si1 0.808387 0.402104 0.013863
Si Si2 0.027238 0.689954 0.227630
Si Si3 0.185942 0.595675 0.571513
Si Si4 0.973123 0.798692 0.355218
Si Si5 0.229304 0.190301 0.340444
Si Si6 0.379467 0.674682 0.360447
O O1 0.837796 0.451199 0.119931
O O2 0.779976 0.357294 0.130739
O O3 0.851943 0.362046 0.918280
O O4 0.753678 0.430136 0.922621
O O5 0.961358 0.672711 0.172942
O O6 0.021325 0.760144 0.267070
O O7 0.070761 0.681050 0.093032
O O8 0.254620 0.616108 0.596274
O O9 0.937481 0.836498 0.238054
O O10 0.000000 0.828055 0.500000
O O11 0.209805 0.209805 0.500000
O O12 0.255369 0.244632 0.250000
O O13 0.174993 0.166084 0.249050
O O14 0.365286 0.634715 0.500000
#
# Coordination Sequence:
#
# PCOD9551303 Si02
#       6
#    16  16  16  16  16  16
#     4  11  19  34  52  75 108 145 187 240 295 353
#     4   9  19  33  51  72  98 141 192 236 283 344
#     4  10  20  34  51  76 106 141 193 240 287 347
#     4   9  20  35  52  75 105 145 195 237 290 347
#     4  12  22  32  48  79 115 150 181 226 288 352
#     4  11  21  33  50  78 111 148 188 234 292 348
#
# _framework density 20.616216000000001
#
# number of rings (size 3 to 8) (size 9 to 14) (size 15 to 20)
#    0.000    1.667    1.667    5.000    0.000    2.000 
#    0.000    0.000    0.000    0.000    0.000   66.500 
#    0.000    0.000    0.000    0.000    0.000 4365.000 
#
# Total GULP energy -267915.483388 kJ/mol
# GULP energy per Si atom -5581.572571 kJ/mol
# Density = 2.056929 g / cm^3
# Si number density = 20.616216 Si / 1000 Ang^3
#
#
#
# Elastic Constant Matrix: (Units=GPa)
#
#
# Indices 1 2 3 4 5 6 
#
# 1 50.0255 26.6502 36.7543 0.0000 0.0000 0.0000
# 2 26.6502 50.0272 36.7528 0.0000 0.0000 0.0000
# 3 36.7543 36.7528 145.3019 0.0000 0.0000 0.0000
# 4 0.0000 0.0000 0.0000 39.9175 0.0000 0.0000
# 5 0.0000 0.0000 0.0000 0.0000 39.9184 0.0000
# 6 0.0000 0.0000 0.0000 0.0000 0.0000 14.5339
#
#
#
# Elastic Compliance Matrix: (Units=1/GPa)
#
#
# Indices 1 2 3 4 5 6 
#
# 1 0.029999 -0.012781 -0.004355 0.000000 0.000000 0.000000
# 2 -0.012781 0.029997 -0.004354 0.000000 0.000000 0.000000
# 3 -0.004355 -0.004354 0.009085 0.000000 0.000000 0.000000
# 4 0.000000 0.000000 0.000000 0.025052 0.000000 0.000000
# 5 0.000000 0.000000 0.000000 0.000000 0.025051 0.000000
# 6 0.000000 0.000000 0.000000 0.000000 0.000000 0.068805
#
#
# Mechanical properties :
#
#
# Convention : Reuss Voigt Hill
#
# Bulk Modulus (GPa) = 38.31548 49.51881 43.91715
# Shear Modulus (GPa) = 20.86208 28.55379 24.70793
#
# Velocity S-wave (km/s) = 3.18453 3.72562 3.46565
# Velocity P-wave (km/s) = 5.66984 6.52522 6.11251
#
# Compressibility (1/GPa) = 0.02609911
#
# Stress axis : x y z
#
# Youngs Moduli (GPa) = 33.33487 33.33693 110.06757
#
# Poissons Ratio (x) = 0.42608 0.47938
# Poissons Ratio (y) = 0.42605 0.47928
# Poissons Ratio (z) = 0.14518 0.14516
#
# Static dielectric constant tensor:
#      x y z
#    x 1.819430 0.000000 0.000000 
#    y 0.000000 1.819430 0.000000 
#    z 0.000000 0.000000 1.803700 
# 
# From -- ./inp_files/2490.got.cif
#   From: 2010.05.17/outbox.cif.g08.bks.cpg/sg97_2_cif.got.tgz:2490.got - 2010.06.03 19:55:32.
