data_PCOD9551333
_publ_section_title
;
Structure prediction by ZEFSAII (Michael W. Deem and Ramdas Pophale) SiO2 
 PCOD9551333
Probable space group: I 4 2 2 
;
_chemical_formula_sum "Si O2"
_cell_formula_units_Z 96
_cell_length_a 22.520567
_cell_length_b 22.520567
_cell_length_c 8.575027
_cell_angle_alpha 90.000000
_cell_angle_beta 90.000000
_cell_angle_gamma 90.000000
_cell_volume 4349.047362
_symmetry_space_group_name_H-M "I 4 2 2 "
_symmetry_group_IT_number 97
_symmetry_cell_setting 'tetragonal'
loop_
_space_group_symop_operation_xyz
x,y,z
-y,x,z
-x,-y,z
y,-x,z
x,-y,-z
-x,y,-z
y,x,-z
-y,-x,-z
1/2+x,1/2+y,1/2+z
1/2-y,1/2+x,1/2+z
1/2-x,1/2-y,1/2+z
1/2+y,1/2-x,1/2+z
1/2+x,1/2-y,1/2-z
1/2-x,1/2+y,1/2-z
1/2+y,1/2+x,1/2-z
1/2-y,1/2-x,1/2-z
loop_
_atom_site_type_symbol
_atom_site_label
_atom_site_fract_x
_atom_site_fract_y
_atom_site_fract_z
Si Si1 0.887971 0.703463 0.023964
Si Si2 0.189405 0.257726 0.610301
Si Si3 0.569461 0.195458 0.802042
Si Si4 0.158296 0.934145 0.424524
Si Si5 0.433882 0.206314 0.858177
Si Si6 0.839352 0.933391 0.937189
O O1 0.903746 0.683959 0.200119
O O2 0.909849 0.772336 0.028765
O O3 0.818051 0.697657 0.989718
O O4 0.919527 0.670857 0.873891
O O5 0.204351 0.204351 0.500000
O O6 0.236642 0.263358 0.750000
O O7 0.125803 0.260317 0.693451
O O8 0.502275 0.216677 0.807435
O O9 0.572021 0.168221 0.980627
O O10 0.112052 0.887949 0.500000
O O11 0.228048 0.914877 0.414921
O O12 0.144888 0.938432 0.243397
O O13 0.155179 0.000000 0.500000
O O14 0.885612 0.885612 0.000000
O O15 0.843667 0.000000 0.000000
#
# Coordination Sequence:
#
# PCOD9551333 Si02
#       6
#    16  16  16  16  16  16
#     4  10  21  38  59  82 114 152 197 244 294 357
#     4  10  23  38  56  85 122 159 199 249 309 364
#     4  10  20  37  58  81 115 147 197 244 288 353
#     4  11  22  37  53  74 105 132 187 245 299 344
#     4  10  21  37  59  83 107 154 195 241 292 344
#     4  11  23  37  58  79 105 147 192 246 297 357
#
# _framework density 22.073801
#
# number of rings (size 3 to 8) (size 9 to 14) (size 15 to 20)
#    0.000    1.667    1.667    4.000    4.667    1.000 
#    0.000    1.667    0.000    0.000    0.000    0.000 
#    0.000    0.000    0.000  345.000    0.000    0.000 
#
# Total GULP energy -267327.248668 kJ/mol
# GULP energy per Si atom -5569.317681 kJ/mol
# Density = 2.202356 g / cm^3
# Si number density = 22.073801 Si / 1000 Ang^3
#
#
#
# Elastic Constant Matrix: (Units=GPa)
#
#
# Indices 1 2 3 4 5 6 
#
# 1 81.2411 49.3806 44.3882 0.0000 0.0000 0.0000
# 2 49.3806 81.2422 44.3864 0.0000 0.0000 0.0000
# 3 44.3882 44.3864 215.9733 0.0000 0.0000 0.0000
# 4 0.0000 0.0000 0.0000 32.6407 0.0000 0.0000
# 5 0.0000 0.0000 0.0000 0.0000 32.6402 0.0000
# 6 0.0000 0.0000 0.0000 0.0000 0.0000 18.1967
#
#
#
# Elastic Compliance Matrix: (Units=1/GPa)
#
#
# Indices 1 2 3 4 5 6 
#
# 1 0.020143 -0.011244 -0.001829 0.000000 0.000000 0.000000
# 2 -0.011244 0.020142 -0.001829 0.000000 0.000000 0.000000
# 3 -0.001829 -0.001829 0.005382 0.000000 0.000000 0.000000
# 4 0.000000 0.000000 0.000000 0.030637 0.000000 0.000000
# 5 0.000000 0.000000 0.000000 0.000000 0.030637 0.000000
# 6 0.000000 0.000000 0.000000 0.000000 0.000000 0.054955
#
#
# Mechanical properties :
#
#
# Convention : Reuss Voigt Hill
#
# Bulk Modulus (GPa) = 63.03690 72.75187 67.89438
# Shear Modulus (GPa) = 25.38244 32.71562 29.04903
#
# Velocity S-wave (km/s) = 3.39468 3.85398 3.63160
# Velocity P-wave (km/s) = 6.63208 7.26872 6.95768
#
# Compressibility (1/GPa) = 0.01586372
#
# Stress axis : x y z
#
# Youngs Moduli (GPa) = 49.64581 49.64703 185.80643
#
# Poissons Ratio (x) = 0.55822 0.33985
# Poissons Ratio (y) = 0.55821 0.33978
# Poissons Ratio (z) = 0.09080 0.09079
#
# Static dielectric constant tensor:
#      x y z
#    x 1.857390 0.000000 0.000000 
#    y 0.000000 1.857390 0.000000 
#    z 0.000000 0.000000 1.935280 
# 
# From -- ./inp_files/2468.got.cif
#   From: 2010.05.17/outbox.cif.g08.bks.cpg/sg97_2_cif.got.tgz:2468.got - 2010.06.03 19:55:32.
