data_PCOD9551379
_publ_section_title
;
Structure prediction by ZEFSAII (Michael W. Deem and Ramdas Pophale) SiO2 
 PCOD9551379
Probable space group: I 4 2 2 
;
_chemical_formula_sum "Si O2"
_cell_formula_units_Z 80
_cell_length_a 27.646201
_cell_length_b 27.646201
_cell_length_c 5.170412
_cell_angle_alpha 90.000000
_cell_angle_beta 90.000000
_cell_angle_gamma 90.000000
_cell_volume 3951.810158
_symmetry_space_group_name_H-M "I 4 2 2 "
_symmetry_group_IT_number 97
_symmetry_cell_setting 'tetragonal'
loop_
_space_group_symop_operation_xyz
x,y,z
-y,x,z
-x,-y,z
y,-x,z
x,-y,-z
-x,y,-z
y,x,-z
-y,-x,-z
1/2+x,1/2+y,1/2+z
1/2-y,1/2+x,1/2+z
1/2-x,1/2-y,1/2+z
1/2+y,1/2-x,1/2+z
1/2+x,1/2-y,1/2-z
1/2-x,1/2+y,1/2-z
1/2+y,1/2+x,1/2-z
1/2-y,1/2-x,1/2-z
loop_
_atom_site_type_symbol
_atom_site_label
_atom_site_fract_x
_atom_site_fract_y
_atom_site_fract_z
Si Si1 0.119390 0.685172 0.937335
Si Si2 0.777510 0.944130 0.919832
Si Si3 0.444585 0.901537 0.516165
Si Si4 0.186709 0.762123 0.208171
Si Si5 0.316796 0.606560 0.059653
O O1 0.152899 0.652899 0.750000
O O2 0.079987 0.725368 0.851806
O O3 0.086899 0.645756 0.082283
O O4 0.156594 0.718231 0.090008
O O5 0.807104 0.932637 0.660622
O O6 0.803874 0.916609 0.160976
O O7 0.772893 0.000000 0.000000
O O8 0.500000 0.887340 0.500000
O O9 0.438608 0.938608 0.750000
O O10 0.424466 0.924466 0.250000
O O11 0.239582 0.739582 0.250000
O O12 0.152853 0.779565 0.443774
O O13 0.194870 0.805131 0.000000
O O14 0.368169 0.631832 0.000000
#
# Coordination Sequence:
#
# PCOD9551379 Si02
#       5
#    16  16  16  16  16
#     4  10  21  38  58  84 119 158 200 244 295 349
#     4  11  23  39  62  90 123 160 203 249 296 355
#     4  11  24  41  61  82 106 139 185 243 306 364
#     4  11  20  32  55  85 120 161 207 247 291 349
#     4  11  22  39  59  86 122 160 199 245 297 352
#
# _framework density 20.243887999999998
#
# number of rings (size 3 to 8) (size 9 to 14) (size 15 to 20)
#    0.000    1.200    0.000    7.800    0.000    6.000 
#    0.000    8.000    0.000    0.000    0.000    0.000 
#    0.000   28.000    0.000    0.000    0.000    0.000 
#
# Total GULP energy -223037.562017 kJ/mol
# GULP energy per Si atom -5575.939050 kJ/mol
# Density = 2.019781 g / cm^3
# Si number density = 20.243888 Si / 1000 Ang^3
#
#
#
# Elastic Constant Matrix: (Units=GPa)
#
#
# Indices 1 2 3 4 5 6 
#
# 1 29.3629 116.1199 29.4017 0.0000 0.0000 0.0000
# 2 116.1199 29.3008 29.4100 0.0000 0.0000 0.0000
# 3 29.4017 29.4100 90.9166 0.0000 0.0000 0.0000
# 4 0.0000 0.0000 0.0000 17.2838 0.0000 0.0000
# 5 0.0000 0.0000 0.0000 0.0000 17.2841 0.0000
# 6 0.0000 0.0000 0.0000 0.0000 0.0000 26.1394
#
#
#
# Elastic Compliance Matrix: (Units=1/GPa)
#
#
# Indices 1 2 3 4 5 6 
#
# 1 -0.001803 0.009716 -0.002560 0.000000 0.000000 0.000000
# 2 0.009716 -0.001809 -0.002557 0.000000 0.000000 0.000000
# 3 -0.002560 -0.002557 0.012654 0.000000 0.000000 0.000000
# 4 0.000000 0.000000 0.000000 0.057858 0.000000 0.000000
# 5 0.000000 0.000000 0.000000 0.000000 0.057857 0.000000
# 6 0.000000 0.000000 0.000000 0.000000 0.000000 0.038256
#
#
# Mechanical properties :
#
#
# Convention : Reuss Voigt Hill
#
# Bulk Modulus (GPa) = 54.82442 55.49372 55.15907
# Shear Modulus (GPa) = 31.27091 10.45137 20.86114
#
# Velocity S-wave (km/s) = 3.93454 2.27463 3.21361
# Velocity P-wave (km/s) = 6.91242 5.86265 6.40907
#
# Compressibility (1/GPa) = 0.01824005
#
# Stress axis : x y z
#
# Youngs Moduli (GPa) = -554.53150 -552.64748 79.02670
#
# Poissons Ratio (x) = 5.36948 0.20229
# Poissons Ratio (y) = 5.38779 0.20205
# Poissons Ratio (z) = -1.41947 -1.41296
#
# Static dielectric constant tensor:
#      x y z
#    x 1.783700 0.000000 0.000000 
#    y 0.000000 1.783690 0.000000 
#    z 0.000000 0.000000 1.804000 
# 
# From -- ./inp_files/980.got.cif
#   From: 2010.05.17/outbox.cif.g08.bks.cpg/sg97_1_cif.got.tgz:980.got - 2010.06.03 19:55:32.
