data_PCOD9551123
_publ_section_title
;
Structure prediction by ZEFSAII (Michael W. Deem and Ramdas Pophale) SiO2 
 PCOD9551123
Probable space group: P 43 21 2
;
_chemical_formula_sum "Si O2"
_cell_formula_units_Z 40
_cell_length_a 17.009844
_cell_length_b 17.009844
_cell_length_c 6.706702
_cell_angle_alpha 90.000000
_cell_angle_beta 90.000000
_cell_angle_gamma 90.000000
_cell_volume 1940.482234
_symmetry_space_group_name_H-M "P 43 21 2"
_symmetry_group_IT_number 96
_symmetry_cell_setting 'tetragonal'
loop_
_space_group_symop_operation_xyz
x,y,z
1/2-y,1/2+x,3/4+z
-x,-y,1/2+z
1/2+y,1/2-x,1/4+z
1/2+x,1/2-y,1/4-z
1/2-x,1/2+y,3/4-z
y,x,-z
-y,-x,1/2-z
loop_
_atom_site_type_symbol
_atom_site_label
_atom_site_fract_x
_atom_site_fract_y
_atom_site_fract_z
Si Si1 0.190731 0.334766 0.786676
Si Si2 0.907518 0.452187 0.832874
Si Si3 0.417156 0.707771 0.745722
Si Si4 0.277164 0.974914 0.659777
Si Si5 0.922718 0.196184 0.753599
O O1 0.118756 0.353704 0.642981
O O2 0.152841 0.262565 0.911962
O O3 0.262678 0.351881 0.633212
O O4 0.209067 0.401540 0.947401
O O5 0.863589 0.497619 0.658232
O O6 0.990345 0.418940 0.766337
O O7 0.378289 0.621712 0.750000
O O8 0.452848 0.736501 0.531640
O O9 0.495151 0.709172 0.881769
O O10 0.231467 0.941973 0.465138
O O11 0.893876 0.106125 0.750000
#
# Coordination Sequence:
#
# PCOD9551123 Si02
#       5
#     8   8   8   8   8
#     4  11  23  41  65 101 134 175 230 283 347 422
#     4  12  20  35  60  96 138 179 219 271 347 426
#     4  11  26  45  69 105 136 179 243 296 349 416
#     4  11  23  43  65  95 140 181 223 287 352 418
#     4  11  26  48  70  98 138 187 236 291 355 420
#
# _framework density 20.613432
#
# number of rings (size 3 to 8) (size 9 to 14) (size 15 to 20)
#    0.000    0.800    4.000    3.600    2.800    3.200 
#    3.600    0.000    0.000    0.000    0.000    0.000 
#    0.000    0.000    0.000    0.000    0.000    0.000 
#
# Total GULP energy -222767.981805 kJ/mol
# GULP energy per Si atom -5569.199545 kJ/mol
# Density = 2.056652 g / cm^3
# Si number density = 20.613432 Si / 1000 Ang^3
#
#
#
# Elastic Constant Matrix: (Units=GPa)
#
#
# Indices 1 2 3 4 5 6 
#
# 1 35.3610 41.5044 9.2319 0.0000 0.0000 0.0000
# 2 41.5044 35.3721 9.2323 0.0000 0.0000 0.0000
# 3 9.2319 9.2323 69.9277 0.0000 0.0000 0.0000
# 4 0.0000 0.0000 0.0000 216.5182 0.0000 0.0000
# 5 0.0000 0.0000 0.0000 0.0000 216.6092 0.0000
# 6 0.0000 0.0000 0.0000 0.0000 0.0000 9.6330
#
#
#
# Elastic Compliance Matrix: (Units=1/GPa)
#
#
# Indices 1 2 3 4 5 6 
#
# 1 -0.074756 0.088179 -0.001773 0.000000 0.000000 0.000000
# 2 0.088179 -0.074732 -0.001775 0.000000 0.000000 0.000000
# 3 -0.001773 -0.001775 0.014769 0.000000 0.000000 0.000000
# 4 0.000000 0.000000 0.000000 0.004619 0.000000 0.000000
# 5 0.000000 0.000000 0.000000 0.000000 0.004617 0.000000
# 6 0.000000 0.000000 0.000000 0.000000 0.000000 0.103809
#
#
# Mechanical properties :
#
#
# Convention : Reuss Voigt Hill
#
# Bulk Modulus (GPa) = 28.94886 28.95534 28.95210
# Shear Modulus (GPa) = -27.86692 93.93156 33.03232
#
# Velocity S-wave (km/s) = -3.68078 6.75774 4.00742
# Velocity P-wave (km/s) = 1.99751 8.65833 5.95721
#
# Compressibility (1/GPa) = 0.03454367
#
# Stress axis : x y z
#
# Youngs Moduli (GPa) = -13.37678 -13.38110 67.71013
#
# Poissons Ratio (x) = 1.17993 0.12003
# Poissons Ratio (y) = 1.17955 0.12017
# Poissons Ratio (z) = -0.02371 -0.02375
#
# Static dielectric constant tensor:
#      x y z
#    x 1.149330 0.000000 0.000000 
#    y 0.000000 1.148850 0.000000 
#    z 0.000000 0.000000 1.801990 
# 
# From -- ./inp_files/391.got.cif
#   From: 2010.05.17/outbox.cif.g08.bks.cpg/sg96_1_cif.got.tgz:391.got - 2010.06.03 19:52:08.
