data_PCOD9551830
_publ_section_title
;
Structure prediction by ZEFSAII (Michael W. Deem and Ramdas Pophale) SiO2 
 PCOD9551830
Probable space group: I 41 2 2
;
_chemical_formula_sum "Si O2"
_cell_formula_units_Z 88
_cell_length_a 14.204018
_cell_length_b 14.204018
_cell_length_c 23.136482
_cell_angle_alpha 90.000000
_cell_angle_beta 90.000000
_cell_angle_gamma 90.000000
_cell_volume 4667.880736
_symmetry_space_group_name_H-M "I 41 2 2"
_symmetry_group_IT_number 98
_symmetry_cell_setting 'tetragonal'
loop_
_space_group_symop_operation_xyz
x,y,z
-y,1/2+x,1/4+z
-x,-y,z
y,1/2-x,1/4+z
x,1/2-y,1/4-z
-x,1/2+y,1/4-z
y,x,-z
-y,-x,-z
1/2+x,1/2+y,1/2+z
1/2-y,x,3/4+z
1/2-x,1/2-y,1/2+z
1/2+y,-x,3/4+z
1/2+x,-y,3/4-z
1/2-x,y,3/4-z
1/2+y,1/2+x,1/2-z
1/2-y,1/2-x,1/2-z
loop_
_atom_site_type_symbol
_atom_site_label
_atom_site_fract_x
_atom_site_fract_y
_atom_site_fract_z
Si Si1 0.054214 0.682347 0.392360
Si Si2 0.985081 0.395446 0.031773
Si Si3 0.844090 0.844090 0.500000
Si Si4 0.296234 0.946549 0.263342
Si Si5 0.210046 0.835579 0.706082
Si Si6 0.844702 0.823905 0.839558
O O1 0.088973 0.578445 0.410533
O O2 0.052770 0.737419 0.453431
O O3 0.125395 0.732738 0.348611
O O4 0.943749 0.680923 0.374856
O O5 0.000000 0.500000 0.006178
O O6 0.086025 0.356731 0.048338
O O7 0.926418 0.329945 0.989410
O O8 0.834321 0.768070 0.449648
O O9 0.947167 0.824517 0.527252
O O10 0.390737 0.890737 0.250000
O O11 0.232131 0.880590 0.304660
O O12 0.276730 0.776730 0.750000
O O13 0.750000 0.835719 0.875000
#
# Coordination Sequence:
#
# PCOD9551830 Si02
#       6
#    16  16   8  16  16  16
#     4   9  20  39  56  87 117 148 198 246 299 355
#     4   9  20  39  60  79 120 158 187 244 310 357
#     4  10  21  40  56  80 123 152 202 240 286 372
#     4   9  19  37  60  83 116 155 185 248 309 345
#     4  10  21  35  62  94 115 152 205 253 295 364
#     4  10  22  37  59  81 114 162 193 241 297 355
#
# _framework density 18.852236999999999
#
# number of rings (size 3 to 8) (size 9 to 14) (size 15 to 20)
#    0.000    2.545    0.000    1.364    5.091    5.818 
#    3.273    1.818    0.000    0.000    0.000    0.000 
#    0.000    0.000    0.000    0.000    0.000    0.000 
#
# Total GULP energy -245302.507084 kJ/mol
# GULP energy per Si atom -5575.056979 kJ/mol
# Density = 1.880933 g / cm^3
# Si number density = 18.852237 Si / 1000 Ang^3
#
#
#
# Elastic Constant Matrix: (Units=GPa)
#
#
# Indices 1 2 3 4 5 6 
#
# 1 114.4659 20.2004 15.8970 0.0000 0.0000 0.0000
# 2 20.2004 114.4659 15.8970 0.0000 0.0000 0.0000
# 3 15.8970 15.8970 29.8590 0.0000 0.0000 0.0000
# 4 0.0000 0.0000 0.0000 18.6819 0.0000 0.0000
# 5 0.0000 0.0000 0.0000 0.0000 18.6819 0.0000
# 6 0.0000 0.0000 0.0000 0.0000 0.0000 36.5624
#
#
#
# Elastic Compliance Matrix: (Units=1/GPa)
#
#
# Indices 1 2 3 4 5 6 
#
# 1 0.009551 -0.001057 -0.004522 0.000000 0.000000 0.000000
# 2 -0.001057 0.009551 -0.004522 0.000000 0.000000 0.000000
# 3 -0.004522 -0.004522 0.038306 0.000000 0.000000 0.000000
# 4 0.000000 0.000000 0.000000 0.053528 0.000000 0.000000
# 5 0.000000 0.000000 0.000000 0.000000 0.053528 0.000000
# 6 0.000000 0.000000 0.000000 0.000000 0.000000 0.027350
#
#
# Mechanical properties :
#
#
# Convention : Reuss Voigt Hill
#
# Bulk Modulus (GPa) = 26.87822 40.30883 33.59353
# Shear Modulus (GPa) = 22.27993 28.57169 25.42581
#
# Velocity S-wave (km/s) = 3.44149 3.89724 3.67643
# Velocity P-wave (km/s) = 5.48453 6.45594 5.98996
#
# Compressibility (1/GPa) = 0.03720484
#
# Stress axis : x y z
#
# Youngs Moduli (GPa) = 104.70279 104.70279 26.10581
#
# Poissons Ratio (x) = 0.11072 0.11805
# Poissons Ratio (y) = 0.11072 0.11805
# Poissons Ratio (z) = 0.47345 0.47345
#
# Static dielectric constant tensor:
#      x y z
#    x 1.682730 0.000000 0.000000 
#    y 0.000000 1.682730 0.000000 
#    z 0.000000 0.000000 1.647540 
# 
# From -- ./inp_files/8804.got.cif
#   From: 2010.05.17/outbox.cif.g08.bks.cpg/sg98_5_cif.got.tgz:8804.got - 2010.06.03 20:00:51.
