data_PCOD9551381
_publ_section_title
;
Structure prediction by ZEFSAII (Michael W. Deem and Ramdas Pophale) SiO2 
 PCOD9551381
Probable space group: I 4 2 2 
;
_chemical_formula_sum "Si O2"
_cell_formula_units_Z 112
_cell_length_a 18.271582
_cell_length_b 18.271582
_cell_length_c 15.810870
_cell_angle_alpha 90.000000
_cell_angle_beta 90.000000
_cell_angle_gamma 90.000000
_cell_volume 5278.470156
_symmetry_space_group_name_H-M "I 4 2 2 "
_symmetry_group_IT_number 97
_symmetry_cell_setting 'tetragonal'
loop_
_space_group_symop_operation_xyz
x,y,z
-y,x,z
-x,-y,z
y,-x,z
x,-y,-z
-x,y,-z
y,x,-z
-y,-x,-z
1/2+x,1/2+y,1/2+z
1/2-y,1/2+x,1/2+z
1/2-x,1/2-y,1/2+z
1/2+y,1/2-x,1/2+z
1/2+x,1/2-y,1/2-z
1/2-x,1/2+y,1/2-z
1/2+y,1/2+x,1/2-z
1/2-y,1/2-x,1/2-z
loop_
_atom_site_type_symbol
_atom_site_label
_atom_site_fract_x
_atom_site_fract_y
_atom_site_fract_z
Si Si1 0.415919 0.298130 0.331349
Si Si2 0.915919 0.201870 0.831349
Si Si3 0.416855 0.696098 0.872490
Si Si4 0.196098 0.916855 0.372490
Si Si5 0.913797 0.500000 0.101416
Si Si6 0.651758 0.849216 0.597659
Si Si7 0.348242 0.849216 0.597659
O O1 0.366226 0.366226 0.361482
O O2 0.500000 0.299294 0.362245
O O3 0.418424 0.301977 0.229535
O O4 0.375767 0.222873 0.355973
O O5 0.918424 0.198023 0.729535
O O6 0.875767 0.277127 0.855973
O O7 0.500000 0.706767 0.902399
O O8 0.380132 0.619868 0.898278
O O9 0.364310 0.761954 0.900220
O O10 0.261954 0.864310 0.400220
O O11 0.881198 0.575530 0.135413
O O12 0.881198 0.424470 0.135413
O O13 0.000000 0.500000 0.113047
O O14 0.897849 0.500000 0.000000
O O15 0.627538 0.842472 0.500000
#
# Coordination Sequence:
#
# PCOD9551381 Si02
#       7
#    16  16  16  16  16  16  16
#     4  10  22  39  60  85 115 152 193 239 288 339
#     4  10  22  39  60  85 115 152 193 239 288 339
#     4  10  21  38  59  83 115 152 192 238 285 337
#     4  10  21  38  59  83 115 152 192 238 285 337
#     4   9  18  32  52  78 109 145 182 226 275 328
#     4  11  21  36  58  85 116 151 191 233 285 345
#     4  11  21  36  58  85 116 151 191 233 285 345
#
# _framework density 21.218268999999999
#
# number of rings (size 3 to 8) (size 9 to 14) (size 15 to 20)
#    0.000    1.857    1.429    2.571    0.000    6.857 
#    0.000    2.857    0.000    0.000    0.000    4.000 
#    0.000    0.000    0.000    0.000    0.000    0.000 
#
# Total GULP energy -312885.462491 kJ/mol
# GULP energy per Si atom -5587.240402 kJ/mol
# Density = 2.116997 g / cm^3
# Si number density = 21.218269 Si / 1000 Ang^3
#
#
#
# Elastic Constant Matrix: (Units=GPa)
#
#
# Indices 1 2 3 4 5 6 
#
# 1 130.0794 107.5060 20.5116 0.0000 0.0000 0.0000
# 2 107.5060 130.0794 20.5116 0.0000 0.0000 0.0000
# 3 20.5116 20.5116 33.4031 0.0000 0.0000 0.0000
# 4 0.0000 0.0000 0.0000 5.9043 0.0000 0.0000
# 5 0.0000 0.0000 0.0000 0.0000 5.9043 0.0000
# 6 0.0000 0.0000 0.0000 0.0000 0.0000 34.0675
#
#
#
# Elastic Compliance Matrix: (Units=1/GPa)
#
#
# Indices 1 2 3 4 5 6 
#
# 1 0.024504 -0.019796 -0.002891 0.000000 0.000000 0.000000
# 2 -0.019796 0.024504 -0.002891 0.000000 0.000000 0.000000
# 3 -0.002891 -0.002891 0.033488 0.000000 0.000000 0.000000
# 4 0.000000 0.000000 0.000000 0.169367 0.000000 0.000000
# 5 0.000000 0.000000 0.000000 0.000000 0.169367 0.000000
# 6 0.000000 0.000000 0.000000 0.000000 0.000000 0.029353
#
#
# Mechanical properties :
#
#
# Convention : Reuss Voigt Hill
#
# Bulk Modulus (GPa) = 31.90823 65.62445 48.76634
# Shear Modulus (GPa) = 9.76208 18.84410 14.30309
#
# Velocity S-wave (km/s) = 2.14727 2.98335 2.59915
# Velocity P-wave (km/s) = 4.60635 6.54695 5.66043
#
# Compressibility (1/GPa) = 0.03133987
#
# Stress axis : x y z
#
# Youngs Moduli (GPa) = 40.80953 40.80953 29.86147
#
# Poissons Ratio (x) = 0.80786 0.08633
# Poissons Ratio (y) = 0.80786 0.08633
# Poissons Ratio (z) = 0.11799 0.11799
#
# Static dielectric constant tensor:
#      x y z
#    x 1.755230 0.000000 0.000000 
#    y 0.000000 1.755230 0.000000 
#    z 0.000000 0.000000 1.778650 
# 
# From -- ./inp_files/6812.got.cif
#   From: 2010.05.17/outbox.cif.g08.bks.cpg/sg97_4_cif.got.tgz:6812.got - 2010.06.03 19:55:32.
