data_PCOD9551872
_publ_section_title
;
Structure prediction by ZEFSAII (Michael W. Deem and Ramdas Pophale) SiO2 
 PCOD9551872
Probable space group: I 41 2 2
;
_chemical_formula_sum "Si O2"
_cell_formula_units_Z 48
_cell_length_a 9.648550
_cell_length_b 9.648550
_cell_length_c 30.034139
_cell_angle_alpha 90.000000
_cell_angle_beta 90.000000
_cell_angle_gamma 90.000000
_cell_volume 2796.013667
_symmetry_space_group_name_H-M "I 41 2 2"
_symmetry_group_IT_number 98
_symmetry_cell_setting 'tetragonal'
loop_
_space_group_symop_operation_xyz
x,y,z
-y,1/2+x,1/4+z
-x,-y,z
y,1/2-x,1/4+z
x,1/2-y,1/4-z
-x,1/2+y,1/4-z
y,x,-z
-y,-x,-z
1/2+x,1/2+y,1/2+z
1/2-y,x,3/4+z
1/2-x,1/2-y,1/2+z
1/2+y,-x,3/4+z
1/2+x,-y,3/4-z
1/2-x,y,3/4-z
1/2+y,1/2+x,1/2-z
1/2-y,1/2-x,1/2-z
loop_
_atom_site_type_symbol
_atom_site_label
_atom_site_fract_x
_atom_site_fract_y
_atom_site_fract_z
Si Si1 0.318660 0.151037 0.037396
Si Si2 0.847460 0.382523 0.995790
Si Si3 0.750000 0.837256 0.875000
Si Si4 0.500000 0.000000 0.579504
O O1 0.479448 0.192972 0.031325
O O2 0.256039 0.192932 0.084603
O O3 0.319555 0.986506 0.026651
O O4 0.228361 0.228361 0.000000
O O5 0.728206 0.271795 0.000000
O O6 0.889519 0.434277 0.045119
O O7 0.877360 0.931109 0.857621
#
# Coordination Sequence:
#
# PCOD9551872 Si02
#       4
#    16  16   8   8
#     4  10  21  42  61  89 126 161 203 262 305 368
#     4  10  22  44  62  89 122 166 214 252 317 366
#     4  12  22  42  64  94 128 164 208 260 316 362
#     4  10  24  40  63  96 122 160 219 254 304 384
#
# _framework density 17.167297999999999
#
# number of rings (size 3 to 8) (size 9 to 14) (size 15 to 20)
#    0.000    2.000    6.667    0.000    4.667    1.333 
#   12.000    0.000    0.000    0.000    0.000    0.000 
#    0.000    0.000    0.000    0.000    0.000    0.000 
#
# Total GULP energy -133884.425822 kJ/mol
# GULP energy per Si atom -5578.517743 kJ/mol
# Density = 1.712822 g / cm^3
# Si number density = 17.167298 Si / 1000 Ang^3
#
#
#
# Elastic Constant Matrix: (Units=GPa)
#
#
# Indices 1 2 3 4 5 6 
#
# 1 113.8367 110.1684 76.7043 0.0000 0.0000 0.0000
# 2 110.1684 113.8363 76.7069 0.0000 0.0000 0.0000
# 3 76.7043 76.7069 148.0862 0.0000 0.0000 0.0000
# 4 0.0000 0.0000 0.0000 17.3409 0.0000 0.0000
# 5 0.0000 0.0000 0.0000 0.0000 17.3378 0.0000
# 6 0.0000 0.0000 0.0000 0.0000 0.0000 45.6774
#
#
#
# Elastic Compliance Matrix: (Units=1/GPa)
#
#
# Indices 1 2 3 4 5 6 
#
# 1 0.139766 -0.132851 -0.003580 0.000000 0.000000 0.000000
# 2 -0.132851 0.139772 -0.003587 0.000000 0.000000 0.000000
# 3 -0.003580 -0.003587 0.010465 0.000000 0.000000 0.000000
# 4 0.000000 0.000000 0.000000 0.057667 0.000000 0.000000
# 5 0.000000 0.000000 0.000000 0.000000 0.057677 0.000000
# 6 0.000000 0.000000 0.000000 0.000000 0.000000 0.021893
#
#
# Mechanical properties :
#
#
# Convention : Reuss Voigt Hill
#
# Bulk Modulus (GPa) = 100.32365 100.32429 100.32397
# Shear Modulus (GPa) = 7.03631 23.54989 15.29310
#
# Velocity S-wave (km/s) = 2.02671 3.70778 2.98791
# Velocity P-wave (km/s) = 8.00265 8.76905 8.39460
#
# Compressibility (1/GPa) = 0.00996774
#
# Stress axis : x y z
#
# Youngs Moduli (GPa) = 7.15480 7.15450 95.55391
#
# Poissons Ratio (x) = 0.95048 0.34206
# Poissons Ratio (y) = 0.95052 0.34280
# Poissons Ratio (z) = 0.02561 0.02567
#
# Static dielectric constant tensor:
#      x y z
#    x 1.576750 0.000000 0.000000 
#    y 0.000000 1.576750 0.000000 
#    z 0.000000 0.000000 1.570210 
# 
# From -- ./inp_files/11326.got.cif
#   From: 2010.05.17/outbox.cif.g08.bks.cpg/sg98_6_cif.got.tgz:11326.got - 2010.06.03 20:00:51.
