data_PCOD9551191
_publ_section_title
;
Structure prediction by ZEFSAII (Michael W. Deem and Ramdas Pophale) SiO2 
 PCOD9551191
Probable space group: P 43 21 2
;
_chemical_formula_sum "Si O2"
_cell_formula_units_Z 16
_cell_length_a 9.928184
_cell_length_b 9.928184
_cell_length_c 7.224652
_cell_angle_alpha 90.000000
_cell_angle_beta 90.000000
_cell_angle_gamma 90.000000
_cell_volume 712.125549
_symmetry_space_group_name_H-M "P 43 21 2"
_symmetry_group_IT_number 96
_symmetry_cell_setting 'tetragonal'
loop_
_space_group_symop_operation_xyz
x,y,z
1/2-y,1/2+x,3/4+z
-x,-y,1/2+z
1/2+y,1/2-x,1/4+z
1/2+x,1/2-y,1/4-z
1/2-x,1/2+y,3/4-z
y,x,-z
-y,-x,1/2-z
loop_
_atom_site_type_symbol
_atom_site_label
_atom_site_fract_x
_atom_site_fract_y
_atom_site_fract_z
Si Si1 0.675129 0.528038 0.752645
Si Si2 0.696097 0.311269 0.467924
O O1 0.517651 0.482349 0.750000
O O2 0.728647 0.455901 0.565311
O O3 0.711930 0.681170 0.765364
O O4 0.730117 0.439878 0.924293
O O5 0.685595 0.314406 0.250000
#
# Coordination Sequence:
#
# PCOD9551191 Si02
#       2
#     8   8
#     4   8  21  38  57  93 115 164 202 243 308 360
#     4   9  19  40  58  89 123 158 201 252 301 360
#
# _framework density 22.467948
#
# number of rings (size 3 to 8) (size 9 to 14) (size 15 to 20)
#    3.000    0.000    0.000    0.000    0.000    8.000 
#   18.000    0.000    0.000    0.000    0.000    0.000 
#    0.000    0.000    0.000    0.000    0.000    0.000 
#
# Total GULP energy -89147.053577 kJ/mol
# GULP energy per Si atom -5571.690849 kJ/mol
# Density = 2.241681 g / cm^3
# Si number density = 22.467948 Si / 1000 Ang^3
#
#
#
# Elastic Constant Matrix: (Units=GPa)
#
#
# Indices 1 2 3 4 5 6 
#
# 1 -98.3236 256.2646 53.7288 0.0000 0.0000 0.0000
# 2 256.2646 -98.3424 53.7204 0.0000 0.0000 0.0000
# 3 53.7288 53.7204 229.7353 0.0000 0.0000 0.0000
# 4 0.0000 0.0000 0.0000 24.4820 0.0000 0.0000
# 5 0.0000 0.0000 0.0000 0.0000 24.4824 0.0000
# 6 0.0000 0.0000 0.0000 0.0000 0.0000 32.1966
#
#
#
# Elastic Compliance Matrix: (Units=1/GPa)
#
#
# Indices 1 2 3 4 5 6 
#
# 1 0.002355 0.005175 -0.001761 0.000000 0.000000 0.000000
# 2 0.005175 0.002355 -0.001761 0.000000 0.000000 0.000000
# 3 -0.001761 -0.001761 0.005176 0.000000 0.000000 0.000000
# 4 0.000000 0.000000 0.000000 0.040846 0.000000 0.000000
# 5 0.000000 0.000000 0.000000 0.000000 0.040846 0.000000
# 6 0.000000 0.000000 0.000000 0.000000 0.000000 0.031059
#
#
# Mechanical properties :
#
#
# Convention : Reuss Voigt Hill
#
# Bulk Modulus (GPa) = 75.80001 84.49964 80.14983
# Shear Modulus (GPa) = 40.41105 -5.81076 17.30014
#
# Velocity S-wave (km/s) = 4.24560 -1.60992 2.77788
# Velocity P-wave (km/s) = 7.60550 5.85105 6.78522
#
# Compressibility (1/GPa) = 0.01319261
#
# Stress axis : x y z
#
# Youngs Moduli (GPa) = 424.61933 424.67619 193.18371
#
# Poissons Ratio (x) = -2.19770 0.34017
# Poissons Ratio (y) = -2.19740 0.34018
# Poissons Ratio (z) = 0.74770 0.74782
#
# Static dielectric constant tensor:
#      x y z
#    x 1.864170 0.000000 0.000000 
#    y 0.000000 1.864170 0.000000 
#    z 0.000000 0.000000 1.926200 
# 
# From -- ./inp_files/58.got.cif
#   From: 2010.05.17/outbox.cif.g08.bks.cpg/sg96_1_cif.got.tgz:58.got - 2010.06.03 19:52:08.
