data_PCOD9551989
_publ_section_title
;
Structure prediction by ZEFSAII (Michael W. Deem and Ramdas Pophale) SiO2 
 PCOD9551989
Probable space group: I 41 2 2
;
_chemical_formula_sum "Si O2"
_cell_formula_units_Z 88
_cell_length_a 18.480729
_cell_length_b 18.480729
_cell_length_c 12.583639
_cell_angle_alpha 90.000000
_cell_angle_beta 90.000000
_cell_angle_gamma 90.000000
_cell_volume 4297.782647
_symmetry_space_group_name_H-M "I 41 2 2"
_symmetry_group_IT_number 98
_symmetry_cell_setting 'tetragonal'
loop_
_space_group_symop_operation_xyz
x,y,z
-y,1/2+x,1/4+z
-x,-y,z
y,1/2-x,1/4+z
x,1/2-y,1/4-z
-x,1/2+y,1/4-z
y,x,-z
-y,-x,-z
1/2+x,1/2+y,1/2+z
1/2-y,x,3/4+z
1/2-x,1/2-y,1/2+z
1/2+y,-x,3/4+z
1/2+x,-y,3/4-z
1/2-x,y,3/4-z
1/2+y,1/2+x,1/2-z
1/2-y,1/2-x,1/2-z
loop_
_atom_site_type_symbol
_atom_site_label
_atom_site_fract_x
_atom_site_fract_y
_atom_site_fract_z
Si Si1 0.826612 0.673389 0.250000
Si Si2 0.170446 0.328953 0.926396
Si Si3 0.544912 0.651052 0.332263
Si Si4 0.268839 0.731162 0.000000
Si Si5 0.500000 0.000000 0.987169
Si Si6 0.028440 0.384834 0.834554
Si Si7 0.761748 0.439295 0.753441
O O1 0.738574 0.665461 0.257939
O O2 0.841726 0.609207 0.166594
O O3 0.250000 0.321533 0.875000
O O4 0.097019 0.329968 0.855873
O O5 0.164533 0.408253 0.975798
O O6 0.509233 0.572237 0.330609
O O7 0.480248 0.707831 0.326773
O O8 0.250000 0.756906 0.875000
O O9 0.252483 0.645998 0.997825
O O10 0.571036 0.998267 0.062719
O O11 0.059043 0.440958 0.750000
O O12 0.963761 0.340302 0.784246
O O13 0.750000 0.463507 0.875000
#
# Coordination Sequence:
#
# PCOD9551989 Si02
#       7
#     8  16  16   8   8  16  16
#     4  12  24  37  62  88 138 181 228 262 324 422
#     4  11  22  38  61  93 135 181 220 271 330 418
#     4  11  23  43  61  96 131 181 230 281 342 420
#     4  10  26  48  79 106 134 177 238 306 376 434
#     4  10  25  39  64  86 134 170 226 277 343 394
#     4  11  22  36  61  98 130 168 215 278 342 409
#     4  11  23  41  68  97 135 171 222 290 358 422
#
# _framework density 20.475674999999999
#
# number of rings (size 3 to 8) (size 9 to 14) (size 15 to 20)
#    0.000    1.091    1.818    5.727    8.909    0.364 
#    0.000    1.818    0.000    0.000    0.000    0.000 
#    0.000    0.000    0.000    0.000    0.000    0.000 
#
# Total GULP energy -245065.946049 kJ/mol
# GULP energy per Si atom -5569.680592 kJ/mol
# Density = 2.042907 g / cm^3
# Si number density = 20.475675 Si / 1000 Ang^3
#
#
#
# Elastic Constant Matrix: (Units=GPa)
#
#
# Indices 1 2 3 4 5 6 
#
# 1 57.2813 82.2531 22.8929 0.0000 0.0000 0.0000
# 2 82.2531 57.2782 22.8926 0.0000 0.0000 0.0000
# 3 22.8929 22.8926 48.7290 0.0000 0.0000 0.0000
# 4 0.0000 0.0000 0.0000 41.7009 0.0000 0.0000
# 5 0.0000 0.0000 0.0000 0.0000 41.7061 0.0000
# 6 0.0000 0.0000 0.0000 0.0000 0.0000 36.3179
#
#
#
# Elastic Compliance Matrix: (Units=1/GPa)
#
#
# Indices 1 2 3 4 5 6 
#
# 1 -0.015784 0.024258 -0.003981 0.000000 0.000000 0.000000
# 2 0.024258 -0.015785 -0.003980 0.000000 0.000000 0.000000
# 3 -0.003981 -0.003980 0.024262 0.000000 0.000000 0.000000
# 4 0.000000 0.000000 0.000000 0.023980 0.000000 0.000000
# 5 0.000000 0.000000 0.000000 0.000000 0.023977 0.000000
# 6 0.000000 0.000000 0.000000 0.000000 0.000000 0.027535
#
#
# Mechanical properties :
#
#
# Convention : Reuss Voigt Hill
#
# Bulk Modulus (GPa) = 39.54855 46.59621 43.07238
# Shear Modulus (GPa) = 113.58664 26.29498 69.94081
#
# Velocity S-wave (km/s) = 7.45616 3.58747 5.85083
# Velocity P-wave (km/s) = 9.66864 6.32188 8.16850
#
# Compressibility (1/GPa) = 0.02528538
#
# Stress axis : x y z
#
# Youngs Moduli (GPa) = -63.35365 -63.34977 41.21713
#
# Poissons Ratio (x) = 1.53673 0.16407
# Poissons Ratio (y) = 1.53682 0.16406
# Poissons Ratio (z) = -0.25219 -0.25216
#
# Static dielectric constant tensor:
#      x y z
#    x 1.736920 0.000000 0.000000 
#    y 0.000000 1.736930 0.000000 
#    z 0.000000 0.000000 1.971170 
# 
# From -- ./inp_files/6573.got.cif
#   From: 2010.05.17/outbox.cif.g08.bks.cpg/sg98_4_cif.got.tgz:6573.got - 2010.06.03 20:00:51.
