data_PCOD9551540
_publ_section_title
;
Structure prediction by ZEFSAII (Michael W. Deem and Ramdas Pophale) SiO2 
 PCOD9551540
Probable space group: I 4 2 2 
;
_chemical_formula_sum "Si O2"
_cell_formula_units_Z 56
_cell_length_a 23.274783
_cell_length_b 23.274783
_cell_length_c 5.659446
_cell_angle_alpha 90.000000
_cell_angle_beta 90.000000
_cell_angle_gamma 90.000000
_cell_volume 3065.809754
_symmetry_space_group_name_H-M "I 4 2 2 "
_symmetry_group_IT_number 97
_symmetry_cell_setting 'tetragonal'
loop_
_space_group_symop_operation_xyz
x,y,z
-y,x,z
-x,-y,z
y,-x,z
x,-y,-z
-x,y,-z
y,x,-z
-y,-x,-z
1/2+x,1/2+y,1/2+z
1/2-y,1/2+x,1/2+z
1/2-x,1/2-y,1/2+z
1/2+y,1/2-x,1/2+z
1/2+x,1/2-y,1/2-z
1/2-x,1/2+y,1/2-z
1/2+y,1/2+x,1/2-z
1/2-y,1/2-x,1/2-z
loop_
_atom_site_type_symbol
_atom_site_label
_atom_site_fract_x
_atom_site_fract_y
_atom_site_fract_z
Si Si1 0.031644 0.243406 0.751374
Si Si2 0.848278 0.348278 0.750000
Si Si3 0.248211 0.163530 0.117009
Si Si4 0.632527 0.947008 0.397162
O O1 0.101930 0.233152 0.758543
O O2 0.029193 0.312746 0.741407
O O3 0.000000 0.224867 0.500000
O O4 0.000000 0.224846 0.000000
O O5 0.792803 0.350810 0.588102
O O6 0.905661 0.345150 0.600237
O O7 0.285651 0.214350 0.250000
O O8 0.192882 0.192882 0.000000
O O9 0.592938 0.907063 0.250000
O O10 0.598571 0.000000 0.500000
#
# Coordination Sequence:
#
# PCOD9551540 Si02
#       4
#    16   8  16  16
#     4  11  23  40  62  82 114 163 207 246 308 383
#     4  12  20  40  53  80 116 146 208 248 331 370
#     4  12  23  36  59  92 124 161 201 268 322 387
#     4  11  23  35  56  70 105 149 207 263 307 357
#
# _framework density 18.265972999999999
#
# number of rings (size 3 to 8) (size 9 to 14) (size 15 to 20)
#    0.000    0.571    7.143    3.429    0.000    0.000 
#    0.000    2.143    0.000    0.000    0.000    0.000 
#    0.000    0.571    0.000   12.000    0.000    2.286 
#
# Total GULP energy -155875.319244 kJ/mol
# GULP energy per Si atom -5566.975687 kJ/mol
# Density = 1.822440 g / cm^3
# Si number density = 18.265973 Si / 1000 Ang^3
#
#
#
# Elastic Constant Matrix: (Units=GPa)
#
#
# Indices 1 2 3 4 5 6 
#
# 1 45.0972 72.2692 40.7722 0.0000 0.0000 0.0000
# 2 72.2692 45.0742 40.7953 0.0000 0.0000 0.0000
# 3 40.7722 40.7953 105.2175 0.0000 0.0000 0.0000
# 4 0.0000 0.0000 0.0000 -76.1323 0.0000 0.0000
# 5 0.0000 0.0000 0.0000 0.0000 -76.1161 0.0000
# 6 0.0000 0.0000 0.0000 0.0000 0.0000 12.1874
#
#
#
# Elastic Compliance Matrix: (Units=1/GPa)
#
#
# Indices 1 2 3 4 5 6 
#
# 1 -0.012553 0.024225 -0.004528 0.000000 0.000000 0.000000
# 2 0.024225 -0.012571 -0.004513 0.000000 0.000000 0.000000
# 3 -0.004528 -0.004513 0.013009 0.000000 0.000000 0.000000
# 4 0.000000 0.000000 0.000000 -0.013135 0.000000 0.000000
# 5 0.000000 0.000000 0.000000 0.000000 -0.013138 0.000000
# 6 0.000000 0.000000 0.000000 0.000000 0.000000 0.082052
#
#
# Mechanical properties :
#
#
# Convention : Reuss Voigt Hill
#
# Bulk Modulus (GPa) = 54.78830 55.89582 55.34206
# Shear Modulus (GPa) = 257.97472 -25.24205 116.36634
#
# Velocity S-wave (km/s) = 11.89702 -3.72145 7.99030
# Velocity P-wave (km/s) = 14.79116 3.49313 10.74664
#
# Compressibility (1/GPa) = 0.01825207
#
# Stress axis : x y z
#
# Youngs Moduli (GPa) = -79.66204 -79.55111 76.87081
#
# Poissons Ratio (x) = 1.92714 0.34809
# Poissons Ratio (y) = 1.92983 0.34695
# Poissons Ratio (z) = -0.36073 -0.35905
#
# Static dielectric constant tensor:
#      x y z
#    x 1.701690 0.000000 0.000000 
#    y 0.000000 1.701640 0.000000 
#    z 0.000000 0.000000 1.748200 
# 
# From -- ./inp_files/689.got.cif
#   From: 2010.05.17/outbox.cif.g08.bks.cpg/sg97_1_cif.got.tgz:689.got - 2010.06.03 19:55:32.
