data_PCOD9551910
_publ_section_title
;
Structure prediction by ZEFSAII (Michael W. Deem and Ramdas Pophale) SiO2 
 PCOD9551910
Probable space group: I 41 2 2
;
_chemical_formula_sum "Si O2"
_cell_formula_units_Z 44
_cell_length_a 15.857239
_cell_length_b 15.857239
_cell_length_c 8.249468
_cell_angle_alpha 90.000000
_cell_angle_beta 90.000000
_cell_angle_gamma 90.000000
_cell_volume 2074.345464
_symmetry_space_group_name_H-M "I 41 2 2"
_symmetry_group_IT_number 98
_symmetry_cell_setting 'tetragonal'
loop_
_space_group_symop_operation_xyz
x,y,z
-y,1/2+x,1/4+z
-x,-y,z
y,1/2-x,1/4+z
x,1/2-y,1/4-z
-x,1/2+y,1/4-z
y,x,-z
-y,-x,-z
1/2+x,1/2+y,1/2+z
1/2-y,x,3/4+z
1/2-x,1/2-y,1/2+z
1/2+y,-x,3/4+z
1/2+x,-y,3/4-z
1/2-x,y,3/4-z
1/2+y,1/2+x,1/2-z
1/2-y,1/2-x,1/2-z
loop_
_atom_site_type_symbol
_atom_site_label
_atom_site_fract_x
_atom_site_fract_y
_atom_site_fract_z
Si Si1 0.327375 0.672626 0.000000
Si Si2 0.555660 0.629742 0.259207
Si Si3 0.014459 0.315726 0.849256
Si Si4 0.500000 0.500000 0.500000
O O1 0.250000 0.672293 0.875000
O O2 0.413154 0.682569 0.891253
O O3 0.636640 0.568970 0.235409
O O4 0.558139 0.724586 0.325524
O O5 0.497938 0.579542 0.382312
O O6 0.523451 0.639206 0.076389
#
# Coordination Sequence:
#
# PCOD9551910 Si02
#       4
#     8  16  16   4
#     4  12  24  42  64 102 134 180 234 284 340 408
#     4  10  22  42  71  94 136 173 235 278 355 408
#     4  10  22  47  68  97 130 191 225 283 345 425
#     4  12  24  36  64 108 122 182 216 290 326 422
#
# _framework density 21.211511000000002
#
# number of rings (size 3 to 8) (size 9 to 14) (size 15 to 20)
#    0.000    1.455    3.636    2.182    0.000    5.818 
#    0.000   14.545    0.000    0.000    0.000    0.000 
#    0.000    0.000    0.000    0.000    0.000    0.000 
#
# Total GULP energy -122599.385504 kJ/mol
# GULP energy per Si atom -5572.699341 kJ/mol
# Density = 2.116323 g / cm^3
# Si number density = 21.211511 Si / 1000 Ang^3
#
#
#
# Elastic Constant Matrix: (Units=GPa)
#
#
# Indices 1 2 3 4 5 6 
#
# 1 48.9453 168.6328 50.5770 0.0000 0.0000 0.0000
# 2 168.6328 48.9492 50.5756 0.0000 0.0000 0.0000
# 3 50.5770 50.5756 62.7856 0.0000 0.0000 0.0000
# 4 0.0000 0.0000 0.0000 -60.8637 0.0000 0.0000
# 5 0.0000 0.0000 0.0000 0.0000 -60.8697 0.0000
# 6 0.0000 0.0000 0.0000 0.0000 0.0000 22.6871
#
#
#
# Elastic Compliance Matrix: (Units=1/GPa)
#
#
# Indices 1 2 3 4 5 6 
#
# 1 -0.000504 0.007851 -0.005919 0.000000 0.000000 0.000000
# 2 0.007851 -0.000504 -0.005919 0.000000 0.000000 0.000000
# 3 -0.005919 -0.005919 0.025463 0.000000 0.000000 0.000000
# 4 0.000000 0.000000 0.000000 -0.016430 0.000000 0.000000
# 5 0.000000 0.000000 0.000000 0.000000 -0.016429 0.000000
# 6 0.000000 0.000000 0.000000 0.000000 0.000000 0.044078
#
#
# Mechanical properties :
#
#
# Convention : Reuss Voigt Hill
#
# Bulk Modulus (GPa) = 60.66886 77.80567 69.23726
# Shear Modulus (GPa) = 101.74733 -27.08295 37.33219
#
# Velocity S-wave (km/s) = 6.93341 -3.57712 4.19978
# Velocity P-wave (km/s) = 9.63120 4.43841 7.49865
#
# Compressibility (1/GPa) = 0.01648292
#
# Stress axis : x y z
#
# Youngs Moduli (GPa) = -1984.24422 -1985.73951 39.27277
#
# Poissons Ratio (x) = 15.59093 0.23244
# Poissons Ratio (y) = 15.57919 0.23246
# Poissons Ratio (z) = -11.74392 -11.75376
#
# Static dielectric constant tensor:
#      x y z
#    x 1.854840 0.000000 0.000000 
#    y 0.000000 1.854840 0.000000 
#    z 0.000000 0.000000 1.743260 
# 
# From -- ./inp_files/2615.got.cif
#   From: 2010.05.17/outbox.cif.g08.bks.cpg/sg98_2_cif.got.tgz:2615.got - 2010.06.03 20:00:51.
