data_PCOD9551010
_publ_section_title
;
Structure prediction by ZEFSAII (Michael W. Deem and Ramdas Pophale) SiO2 
 PCOD9551010
Probable space group: P 43 21 2
;
_chemical_formula_sum "Si O2"
_cell_formula_units_Z 36
_cell_length_a 12.434978
_cell_length_b 12.434978
_cell_length_c 9.891260
_cell_angle_alpha 90.000000
_cell_angle_beta 90.000000
_cell_angle_gamma 90.000000
_cell_volume 1529.472456
_symmetry_space_group_name_H-M "P 43 21 2"
_symmetry_group_IT_number 96
_symmetry_cell_setting 'tetragonal'
loop_
_space_group_symop_operation_xyz
x,y,z
1/2-y,1/2+x,3/4+z
-x,-y,1/2+z
1/2+y,1/2-x,1/4+z
1/2+x,1/2-y,1/4-z
1/2-x,1/2+y,3/4-z
y,x,-z
-y,-x,1/2-z
loop_
_atom_site_type_symbol
_atom_site_label
_atom_site_fract_x
_atom_site_fract_y
_atom_site_fract_z
Si Si1 0.300388 0.433667 0.893725
Si Si2 0.070906 0.111813 0.760956
Si Si3 0.963601 0.429827 0.266981
Si Si4 0.307918 0.692083 0.250000
Si Si5 0.712057 0.078576 0.627032
O O1 0.186097 0.431350 0.965551
O O2 0.290846 0.383339 0.745341
O O3 0.375896 0.375896 0.000000
O O4 0.347931 0.554584 0.883393
O O5 0.143424 0.128403 0.627811
O O6 0.015748 0.224734 0.795988
O O7 0.969315 0.030686 0.750000
O O8 0.959621 0.431832 0.428476
O O9 0.883347 0.519270 0.203369
O O10 0.319567 0.819444 0.216619
#
# Coordination Sequence:
#
# PCOD9551010 Si02
#       5
#     8   8   8   4   8
#     4  10  24  43  72 105 144 202 258 323 401 467
#     4  11  25  44  74 109 152 201 267 326 394 477
#     4  10  23  41  64  99 139 191 243 315 379 465
#     4  12  28  46  76 114 150 220 262 340 410 492
#     4  11  24  47  70 105 155 195 263 327 401 478
#
# _framework density 23.537527999999998
#
# number of rings (size 3 to 8) (size 9 to 14) (size 15 to 20)
#    0.000    1.333    1.111    3.333    9.333    7.111 
#    0.000    0.000    0.000    0.000    0.000    0.000 
#    0.000    0.000    0.000    0.000    0.000    0.000 
#
# Total GULP energy -200942.845760 kJ/mol
# GULP energy per Si atom -5581.745716 kJ/mol
# Density = 2.348396 g / cm^3
# Si number density = 23.537528 Si / 1000 Ang^3
#
#
#
# Elastic Constant Matrix: (Units=GPa)
#
#
# Indices 1 2 3 4 5 6 
#
# 1 61.7567 39.2956 16.1352 0.0000 0.0000 0.0000
# 2 39.2956 61.7577 16.1368 0.0000 0.0000 0.0000
# 3 16.1352 16.1368 86.6836 0.0000 0.0000 0.0000
# 4 0.0000 0.0000 0.0000 37.4621 0.0000 0.0000
# 5 0.0000 0.0000 0.0000 0.0000 37.4631 0.0000
# 6 0.0000 0.0000 0.0000 0.0000 0.0000 35.2509
#
#
#
# Elastic Compliance Matrix: (Units=1/GPa)
#
#
# Indices 1 2 3 4 5 6 
#
# 1 0.027521 -0.017000 -0.001958 0.000000 0.000000 0.000000
# 2 -0.017000 0.027521 -0.001959 0.000000 0.000000 0.000000
# 3 -0.001958 -0.001959 0.012265 0.000000 0.000000 0.000000
# 4 0.000000 0.000000 0.000000 0.026694 0.000000 0.000000
# 5 0.000000 0.000000 0.000000 0.000000 0.026693 0.000000
# 6 0.000000 0.000000 0.000000 0.000000 0.000000 0.028368
#
#
# Mechanical properties :
#
#
# Convention : Reuss Voigt Hill
#
# Bulk Modulus (GPa) = 39.25592 39.25923 39.25757
# Shear Modulus (GPa) = 25.07698 31.27724 28.17711
#
# Velocity S-wave (km/s) = 3.26759 3.64926 3.46369
# Velocity P-wave (km/s) = 5.56331 5.87126 5.71936
#
# Compressibility (1/GPa) = 0.02547386
#
# Stress axis : x y z
#
# Youngs Moduli (GPa) = 36.33599 36.33629 81.53044
#
# Poissons Ratio (x) = 0.61770 0.15965
# Poissons Ratio (y) = 0.61769 0.15971
# Poissons Ratio (z) = 0.07115 0.07118
#
# Static dielectric constant tensor:
#      x y z
#    x 1.961930 0.000000 0.000000 
#    y 0.000000 1.961930 0.000000 
#    z 0.000000 0.000000 2.029790 
# 
# From -- ./inp_files/2013.got.cif
#   From: 2010.05.17/outbox.cif.g08.bks.cpg/sg96_2_cif.got.tgz:2013.got - 2010.06.03 19:52:08.
