data_PCOD9551233
_publ_section_title
;
Structure prediction by ZEFSAII (Michael W. Deem and Ramdas Pophale) SiO2 
 PCOD9551233
Probable space group: I 4 2 2 
;
_chemical_formula_sum "Si O2"
_cell_formula_units_Z 112
_cell_length_a 14.594442
_cell_length_b 14.594442
_cell_length_c 27.605934
_cell_angle_alpha 90.000000
_cell_angle_beta 90.000000
_cell_angle_gamma 90.000000
_cell_volume 5880.001478
_symmetry_space_group_name_H-M "I 4 2 2 "
_symmetry_group_IT_number 97
_symmetry_cell_setting 'tetragonal'
loop_
_space_group_symop_operation_xyz
x,y,z
-y,x,z
-x,-y,z
y,-x,z
x,-y,-z
-x,y,-z
y,x,-z
-y,-x,-z
1/2+x,1/2+y,1/2+z
1/2-y,1/2+x,1/2+z
1/2-x,1/2-y,1/2+z
1/2+y,1/2-x,1/2+z
1/2+x,1/2-y,1/2-z
1/2-x,1/2+y,1/2-z
1/2+y,1/2+x,1/2-z
1/2-y,1/2-x,1/2-z
loop_
_atom_site_type_symbol
_atom_site_label
_atom_site_fract_x
_atom_site_fract_y
_atom_site_fract_z
Si Si1 0.927779 0.685259 0.107493
Si Si2 0.509464 0.104288 0.175152
Si Si3 0.564259 0.636716 0.889359
Si Si4 0.183059 0.630823 0.376056
Si Si5 0.729886 0.390647 0.789086
Si Si6 0.701126 0.666423 0.312837
Si Si7 0.251135 0.704744 0.945151
O O1 0.902768 0.589403 0.134394
O O2 0.904902 0.763599 0.147147
O O3 0.857597 0.702619 0.064176
O O4 0.034561 0.683733 0.095922
O O5 0.414545 0.136525 0.151000
O O6 0.543708 0.180691 0.212966
O O7 0.500000 0.000000 0.193546
O O8 0.458046 0.617687 0.897541
O O9 0.577619 0.669439 0.834131
O O10 0.609185 0.709988 0.924888
O O11 0.263853 0.629292 0.335941
O O12 0.205563 0.716434 0.410529
O O13 0.679561 0.381258 0.737976
O O14 0.769769 0.290570 0.802504
O O15 0.277412 0.722589 0.000000
#
# Coordination Sequence:
#
# PCOD9551233 Si02
#       7
#    16  16  16  16  16  16  16
#     4   9  19  37  56  86 116 143 190 244 292 357
#     4   9  17  33  58  83 115 150 187 240 295 349
#     4  11  23  39  59  82 115 158 198 240 288 353
#     4  10  19  37  59  82 114 154 189 236 302 348
#     4  10  18  34  54  80 122 149 194 234 274 346
#     4   9  19  33  53  82 114 155 184 228 284 338
#     4  11  23  39  60  82 111 152 192 245 307 357
#
# _framework density 19.047612999999998
#
# number of rings (size 3 to 8) (size 9 to 14) (size 15 to 20)
#    0.000    2.143    4.286    0.857    0.000    2.286 
#    2.571   12.143    0.000    9.429    0.000    4.000 
#    0.000    0.000    0.000    0.000    0.000    0.000 
#
# Total GULP energy -312494.722722 kJ/mol
# GULP energy per Si atom -5580.262906 kJ/mol
# Density = 1.900426 g / cm^3
# Si number density = 19.047613 Si / 1000 Ang^3
#
#
#
# Elastic Constant Matrix: (Units=GPa)
#
#
# Indices 1 2 3 4 5 6 
#
# 1 64.1648 33.2523 14.7908 0.0000 0.0000 0.0000
# 2 33.2523 64.1649 14.7910 0.0000 0.0000 0.0000
# 3 14.7908 14.7910 82.0906 0.0000 0.0000 0.0000
# 4 0.0000 0.0000 0.0000 7.0822 0.0000 0.0000
# 5 0.0000 0.0000 0.0000 0.0000 7.0818 0.0000
# 6 0.0000 0.0000 0.0000 0.0000 0.0000 23.7151
#
#
#
# Elastic Compliance Matrix: (Units=1/GPa)
#
#
# Indices 1 2 3 4 5 6 
#
# 1 0.021604 -0.010745 -0.001957 0.000000 0.000000 0.000000
# 2 -0.010745 0.021604 -0.001957 0.000000 0.000000 0.000000
# 3 -0.001957 -0.001957 0.012887 0.000000 0.000000 0.000000
# 4 0.000000 0.000000 0.000000 0.141199 0.000000 0.000000
# 5 0.000000 0.000000 0.000000 0.000000 0.141207 0.000000
# 6 0.000000 0.000000 0.000000 0.000000 0.000000 0.042167
#
#
# Mechanical properties :
#
#
# Convention : Reuss Voigt Hill
#
# Bulk Modulus (GPa) = 37.34285 37.34316 37.34301
# Shear Modulus (GPa) = 11.93571 17.41491 14.67531
#
# Velocity S-wave (km/s) = 2.50596 3.02699 2.77872
# Velocity P-wave (km/s) = 5.29346 5.64488 5.47199
#
# Compressibility (1/GPa) = 0.02677889
#
# Stress axis : x y z
#
# Youngs Moduli (GPa) = 46.28711 46.28715 77.59916
#
# Poissons Ratio (x) = 0.49736 0.15183
# Poissons Ratio (y) = 0.49736 0.15183
# Poissons Ratio (z) = 0.09056 0.09057
#
# Static dielectric constant tensor:
#      x y z
#    x 1.672000 0.000000 0.000000 
#    y 0.000000 1.672000 0.000000 
#    z 0.000000 0.000000 1.660350 
# 
# From -- ./inp_files/7671.got.cif
#   From: 2010.05.17/outbox.cif.g08.bks.cpg/sg97_4_cif.got.tgz:7671.got - 2010.06.03 19:55:32.
