data_PCOD9551049
_publ_section_title
;
Structure prediction by ZEFSAII (Michael W. Deem and Ramdas Pophale) SiO2 
 PCOD9551049
Probable space group: P 43 21 2
;
_chemical_formula_sum "Si O2"
_cell_formula_units_Z 52
_cell_length_a 15.219680
_cell_length_b 15.219680
_cell_length_c 8.691306
_cell_angle_alpha 90.000000
_cell_angle_beta 90.000000
_cell_angle_gamma 90.000000
_cell_volume 2013.242469
_symmetry_space_group_name_H-M "P 43 21 2"
_symmetry_group_IT_number 96
_symmetry_cell_setting 'tetragonal'
loop_
_space_group_symop_operation_xyz
x,y,z
1/2-y,1/2+x,3/4+z
-x,-y,1/2+z
1/2+y,1/2-x,1/4+z
1/2+x,1/2-y,1/4-z
1/2-x,1/2+y,3/4-z
y,x,-z
-y,-x,1/2-z
loop_
_atom_site_type_symbol
_atom_site_label
_atom_site_fract_x
_atom_site_fract_y
_atom_site_fract_z
Si Si1 0.952587 0.669694 0.594230
Si Si2 0.116200 0.625449 0.400817
Si Si3 0.364966 0.432420 0.246371
Si Si4 0.763178 0.120362 0.364017
Si Si5 0.404513 0.599359 0.080288
Si Si6 0.928946 0.332364 0.575297
Si Si7 0.337018 0.662983 0.750000
O O1 0.782512 0.530442 0.440586
O O2 0.905761 0.600900 0.704788
O O3 0.013394 0.627420 0.459525
O O4 0.161926 0.689892 0.523409
O O5 0.152022 0.528217 0.380253
O O6 0.125590 0.664083 0.231691
O O7 0.384936 0.496502 0.103065
O O8 0.387610 0.492698 0.389934
O O9 0.262443 0.414745 0.255777
O O10 0.340918 0.412763 0.772971
O O11 0.812070 0.187930 0.250000
O O12 0.621556 0.238767 0.213386
O O13 0.365661 0.634340 0.250000
O O14 0.379775 0.635560 0.914848
#
# Coordination Sequence:
#
# PCOD9551049 Si02
#       7
#     8   8   8   8   8   8   4
#     4  10  28  48  84 130 158 237 282 368 449 541
#     4  10  29  47  82 118 158 229 292 353 453 534
#     4   9  22  48  78 115 169 222 283 363 434 529
#     4  10  23  50  81 126 168 215 302 358 454 523
#     4   8  22  40  81 121 166 233 281 350 460 520
#     4  12  26  51  79 114 176 224 299 361 444 541
#     4  12  20  50  78 126 180 208 308 356 442 538
#
# _framework density 25.828979
#
# number of rings (size 3 to 8) (size 9 to 14) (size 15 to 20)
#    1.846    0.000    0.000    1.846    6.462    3.077 
#    6.923    1.538    0.000    0.000    0.000    0.000 
#    0.000    0.000    0.000    0.000    0.000    0.000 
#
# Total GULP energy -290240.213445 kJ/mol
# GULP energy per Si atom -5581.542566 kJ/mol
# Density = 2.577019 g / cm^3
# Si number density = 25.828979 Si / 1000 Ang^3
#
#
#
# Elastic Constant Matrix: (Units=GPa)
#
#
# Indices 1 2 3 4 5 6 
#
# 1 123.7798 -47.9151 24.4617 0.0000 0.0000 0.0000
# 2 -47.9151 123.7813 24.4612 0.0000 0.0000 0.0000
# 3 24.4617 24.4612 158.7113 0.0000 0.0000 0.0000
# 4 0.0000 0.0000 0.0000 43.6514 0.0000 0.0000
# 5 0.0000 0.0000 0.0000 0.0000 43.6511 0.0000
# 6 0.0000 0.0000 0.0000 0.0000 0.0000 46.9789
#
#
#
# Elastic Compliance Matrix: (Units=1/GPa)
#
#
# Indices 1 2 3 4 5 6 
#
# 1 0.010230 0.004406 -0.002256 0.000000 0.000000 0.000000
# 2 0.004406 0.010230 -0.002256 0.000000 0.000000 0.000000
# 3 -0.002256 -0.002256 0.006996 0.000000 0.000000 0.000000
# 4 0.000000 0.000000 0.000000 0.022909 0.000000 0.000000
# 5 0.000000 0.000000 0.000000 0.000000 0.022909 0.000000
# 6 0.000000 0.000000 0.000000 0.000000 0.000000 0.021286
#
#
# Mechanical properties :
#
#
# Convention : Reuss Voigt Hill
#
# Bulk Modulus (GPa) = 36.70422 45.36532 41.03477
# Shear Modulus (GPa) = 48.14491 53.87391 51.00941
#
# Velocity S-wave (km/s) = 4.32208 4.57200 4.44880
# Velocity P-wave (km/s) = 6.25687 6.74335 6.50466
#
# Compressibility (1/GPa) = 0.02724482
#
# Stress axis : x y z
#
# Youngs Moduli (GPa) = 97.75034 97.75166 142.93703
#
# Poissons Ratio (x) = -0.43068 0.32243
# Poissons Ratio (y) = -0.43067 0.32243
# Poissons Ratio (z) = 0.22050 0.22050
#
# Static dielectric constant tensor:
#      x y z
#    x 2.064810 0.000000 0.000000 
#    y 0.000000 2.064810 0.000000 
#    z 0.000000 0.000000 2.054580 
# 
# From -- ./inp_files/1568.got.cif
#   From: 2010.05.17/outbox.cif.g08.bks.cpg/sg96_1_cif.got.tgz:1568.got - 2010.06.03 19:52:08.
