data_PCOD9551737
_publ_section_title
;
Structure prediction by ZEFSAII (Michael W. Deem and Ramdas Pophale) SiO2 
 PCOD9551737
Probable space group: I 41 2 2
;
_chemical_formula_sum "Si O2"
_cell_formula_units_Z 112
_cell_length_a 17.915738
_cell_length_b 17.915738
_cell_length_c 18.465879
_cell_angle_alpha 90.000000
_cell_angle_beta 90.000000
_cell_angle_gamma 90.000000
_cell_volume 5927.060917
_symmetry_space_group_name_H-M "I 41 2 2"
_symmetry_group_IT_number 98
_symmetry_cell_setting 'tetragonal'
loop_
_space_group_symop_operation_xyz
x,y,z
-y,1/2+x,1/4+z
-x,-y,z
y,1/2-x,1/4+z
x,1/2-y,1/4-z
-x,1/2+y,1/4-z
y,x,-z
-y,-x,-z
1/2+x,1/2+y,1/2+z
1/2-y,x,3/4+z
1/2-x,1/2-y,1/2+z
1/2+y,-x,3/4+z
1/2+x,-y,3/4-z
1/2-x,y,3/4-z
1/2+y,1/2+x,1/2-z
1/2-y,1/2-x,1/2-z
loop_
_atom_site_type_symbol
_atom_site_label
_atom_site_fract_x
_atom_site_fract_y
_atom_site_fract_z
Si Si1 0.808491 0.989091 0.322530
Si Si2 0.305950 0.917712 0.054849
Si Si3 0.407026 0.846721 0.863706
Si Si4 0.422066 0.039034 0.546873
Si Si5 0.331857 0.987126 0.897591
Si Si6 0.735850 0.141316 0.497497
Si Si7 0.437843 0.564614 0.913899
O O1 0.750000 0.947853 0.375000
O O2 0.764738 0.055463 0.279643
O O3 0.865418 0.031791 0.374953
O O4 0.862780 0.945811 0.267103
O O5 0.218010 0.931775 0.060279
O O6 0.319091 0.828368 0.050347
O O7 0.357233 0.950377 0.120279
O O8 0.332575 0.952090 0.978816
O O9 0.478055 0.882143 0.903312
O O10 0.358505 0.919420 0.845327
O O11 0.361049 0.798370 0.922372
O O12 0.446868 0.108862 0.594866
O O13 0.500000 0.000000 0.520229
O O14 0.250000 0.011050 0.875000
O O15 0.811082 0.188919 0.500000
O O16 0.500000 0.500000 0.904253
O O17 0.427171 0.572830 0.000000
#
# Coordination Sequence:
#
# PCOD9551737 Si02
#       7
#    16  16  16  16  16  16  16
#     4  10  20  30  51  80 111 155 190 224 271 340
#     4  10  21  33  52  79 114 149 187 235 281 336
#     4   9  20  32  53  80 112 150 186 232 278 339
#     4   9  18  39  56  75 112 153 195 230 280 344
#     4  10  21  37  59  81 106 152 196 237 293 346
#     4   9  20  29  42  72 120 162 178 211 267 343
#     4  10  21  35  52  77 117 158 194 227 266 342
#
# _framework density 18.896381000000002
#
# number of rings (size 3 to 8) (size 9 to 14) (size 15 to 20)
#    0.000    2.429    0.000    3.857   12.000    0.000 
#    0.000    0.714    0.000    2.571    0.000    8.000 
#    0.000    0.000    0.000    0.000    0.000    0.000 
#
# Total GULP energy -312081.608535 kJ/mol
# GULP energy per Si atom -5572.885867 kJ/mol
# Density = 1.885337 g / cm^3
# Si number density = 18.896381 Si / 1000 Ang^3
#
#
#
# Elastic Constant Matrix: (Units=GPa)
#
#
# Indices 1 2 3 4 5 6 
#
# 1 85.9300 48.7742 21.5696 0.0000 0.0000 0.0000
# 2 48.7742 85.9312 21.5698 0.0000 0.0000 0.0000
# 3 21.5696 21.5698 56.5209 0.0000 0.0000 0.0000
# 4 0.0000 0.0000 0.0000 24.8002 0.0000 0.0000
# 5 0.0000 0.0000 0.0000 0.0000 24.7998 0.0000
# 6 0.0000 0.0000 0.0000 0.0000 0.0000 27.9956
#
#
#
# Elastic Compliance Matrix: (Units=1/GPa)
#
#
# Indices 1 2 3 4 5 6 
#
# 1 0.017685 -0.009228 -0.003227 0.000000 0.000000 0.000000
# 2 -0.009228 0.017685 -0.003227 0.000000 0.000000 0.000000
# 3 -0.003227 -0.003227 0.020156 0.000000 0.000000 0.000000
# 4 0.000000 0.000000 0.000000 0.040322 0.000000 0.000000
# 5 0.000000 0.000000 0.000000 0.000000 0.040323 0.000000
# 6 0.000000 0.000000 0.000000 0.000000 0.000000 0.035720
#
#
# Mechanical properties :
#
#
# Convention : Reuss Voigt Hill
#
# Bulk Modulus (GPa) = 41.38984 45.80100 43.59542
# Shear Modulus (GPa) = 23.66181 24.61702 24.13942
#
# Velocity S-wave (km/s) = 3.54247 3.61326 3.57804
# Velocity P-wave (km/s) = 6.21958 6.45741 6.33961
#
# Compressibility (1/GPa) = 0.02416052
#
# Stress axis : x y z
#
# Youngs Moduli (GPa) = 56.54392 56.54473 49.61315
#
# Poissons Ratio (x) = 0.52179 0.16013
# Poissons Ratio (y) = 0.52179 0.16013
# Poissons Ratio (z) = 0.18249 0.18250
#
# Static dielectric constant tensor:
#      x y z
#    x 1.683900 0.000000 0.000000 
#    y 0.000000 1.683900 0.000000 
#    z 0.000000 0.000000 1.728900 
# 
# From -- ./inp_files/9087.got.cif
#   From: 2010.05.17/outbox.cif.g08.bks.cpg/sg98_5_cif.got.tgz:9087.got - 2010.06.03 20:00:51.
