data_PCOD9551683
_publ_section_title
;
Structure prediction by ZEFSAII (Michael W. Deem and Ramdas Pophale) SiO2 
 PCOD9551683
Probable space group: I 41 2 2
;
_chemical_formula_sum "Si O2"
_cell_formula_units_Z 48
_cell_length_a 9.045455
_cell_length_b 9.045455
_cell_length_c 27.267675
_cell_angle_alpha 90.000000
_cell_angle_beta 90.000000
_cell_angle_gamma 90.000000
_cell_volume 2231.048153
_symmetry_space_group_name_H-M "I 41 2 2"
_symmetry_group_IT_number 98
_symmetry_cell_setting 'tetragonal'
loop_
_space_group_symop_operation_xyz
x,y,z
-y,1/2+x,1/4+z
-x,-y,z
y,1/2-x,1/4+z
x,1/2-y,1/4-z
-x,1/2+y,1/4-z
y,x,-z
-y,-x,-z
1/2+x,1/2+y,1/2+z
1/2-y,x,3/4+z
1/2-x,1/2-y,1/2+z
1/2+y,-x,3/4+z
1/2+x,-y,3/4-z
1/2-x,y,3/4-z
1/2+y,1/2+x,1/2-z
1/2-y,1/2-x,1/2-z
loop_
_atom_site_type_symbol
_atom_site_label
_atom_site_fract_x
_atom_site_fract_y
_atom_site_fract_z
Si Si1 0.026911 0.165885 0.341937
Si Si2 0.785417 0.844820 0.549972
Si Si3 0.500000 0.500000 0.313199
Si Si4 0.337934 0.750000 0.625000
O O1 0.079269 0.163128 0.399384
O O2 0.169662 0.231577 0.313347
O O3 0.865868 0.244217 0.341844
O O4 0.000000 0.000000 0.325246
O O5 0.873037 0.873037 0.500000
O O6 0.632373 0.923036 0.536095
O O7 0.634785 0.436810 0.345314
#
# Coordination Sequence:
#
# PCOD9551683 Si02
#       4
#    16  16   8   8
#     4  10  21  39  62  90 123 165 206 256 319 372
#     4  10  22  38  61  88 126 166 206 263 307 383
#     4  10  20  36  58  90 115 160 201 254 308 366
#     4  10  18  36  62  84 120 156 200 252 308 368
#
# _framework density 21.514554
#
# number of rings (size 3 to 8) (size 9 to 14) (size 15 to 20)
#    0.000    2.000    0.000    6.000    2.333    0.667 
#    0.000    3.333    0.000    0.000    0.000    0.000 
#    0.000    0.000    0.000    0.000    0.000    0.000 
#
# Total GULP energy -133621.653555 kJ/mol
# GULP energy per Si atom -5567.568898 kJ/mol
# Density = 2.146559 g / cm^3
# Si number density = 21.514554 Si / 1000 Ang^3
#
#
#
# Elastic Constant Matrix: (Units=GPa)
#
#
# Indices 1 2 3 4 5 6 
#
# 1 125.9930 65.9199 22.8921 0.0000 0.0000 0.0000
# 2 65.9199 125.9930 22.8921 0.0000 0.0000 0.0000
# 3 22.8921 22.8921 98.2712 0.0000 0.0000 0.0000
# 4 0.0000 0.0000 0.0000 1.5269 0.0000 0.0000
# 5 0.0000 0.0000 0.0000 0.0000 1.5269 0.0000
# 6 0.0000 0.0000 0.0000 0.0000 0.0000 48.1924
#
#
#
# Elastic Compliance Matrix: (Units=1/GPa)
#
#
# Indices 1 2 3 4 5 6 
#
# 1 0.011082 -0.005565 -0.001285 0.000000 0.000000 0.000000
# 2 -0.005565 0.011082 -0.001285 0.000000 0.000000 0.000000
# 3 -0.001285 -0.001285 0.010775 0.000000 0.000000 0.000000
# 4 0.000000 0.000000 0.000000 0.654918 0.000000 0.000000
# 5 0.000000 0.000000 0.000000 0.000000 0.654918 0.000000
# 6 0.000000 0.000000 0.000000 0.000000 0.000000 0.020750
#
#
# Mechanical properties :
#
#
# Convention : Reuss Voigt Hill
#
# Bulk Modulus (GPa) = 59.99396 63.74062 61.86729
# Shear Modulus (GPa) = 3.60919 26.15279 14.88099
#
# Velocity S-wave (km/s) = 1.29661 3.49031 2.63282
# Velocity P-wave (km/s) = 5.49431 6.77747 6.16934
#
# Compressibility (1/GPa) = 0.01666834
#
# Stress axis : x y z
#
# Youngs Moduli (GPa) = 90.23772 90.23772 92.80985
#
# Poissons Ratio (x) = 0.50213 0.11928
# Poissons Ratio (y) = 0.50213 0.11928
# Poissons Ratio (z) = 0.11598 0.11598
#
# Static dielectric constant tensor:
#      x y z
#    x 1.818570 0.000000 0.000000 
#    y 0.000000 1.818570 0.000000 
#    z 0.000000 0.000000 1.807490 
# 
# From -- ./inp_files/11473.got.cif
#   From: 2010.05.17/outbox.cif.g08.bks.cpg/sg98_6_cif.got.tgz:11473.got - 2010.06.03 20:00:51.
