data_PCOD9551876
_publ_section_title
;
Structure prediction by ZEFSAII (Michael W. Deem and Ramdas Pophale) SiO2 
 PCOD9551876
Probable space group: I 41 2 2
;
_chemical_formula_sum "Si O2"
_cell_formula_units_Z 64
_cell_length_a 11.265264
_cell_length_b 11.265264
_cell_length_c 23.816587
_cell_angle_alpha 90.000000
_cell_angle_beta 90.000000
_cell_angle_gamma 90.000000
_cell_volume 3022.471910
_symmetry_space_group_name_H-M "I 41 2 2"
_symmetry_group_IT_number 98
_symmetry_cell_setting 'tetragonal'
loop_
_space_group_symop_operation_xyz
x,y,z
-y,1/2+x,1/4+z
-x,-y,z
y,1/2-x,1/4+z
x,1/2-y,1/4-z
-x,1/2+y,1/4-z
y,x,-z
-y,-x,-z
1/2+x,1/2+y,1/2+z
1/2-y,x,3/4+z
1/2-x,1/2-y,1/2+z
1/2+y,-x,3/4+z
1/2+x,-y,3/4-z
1/2-x,y,3/4-z
1/2+y,1/2+x,1/2-z
1/2-y,1/2-x,1/2-z
loop_
_atom_site_type_symbol
_atom_site_label
_atom_site_fract_x
_atom_site_fract_y
_atom_site_fract_z
Si Si1 0.549456 0.153875 0.693882
Si Si2 0.820770 0.103414 0.164768
Si Si3 0.311800 0.188201 0.750000
Si Si4 0.101889 0.750000 0.625000
Si Si5 0.637407 0.958795 0.477191
O O1 0.592013 0.092013 0.750000
O O2 0.614479 0.281359 0.691636
O O3 0.600772 0.083963 0.640675
O O4 0.409768 0.171013 0.700948
O O5 0.690967 0.145301 0.145057
O O6 0.820449 0.003354 0.211436
O O7 0.181389 0.161789 0.725855
O O8 0.024465 0.792504 0.677477
O O9 0.500000 0.000000 0.472448
#
# Coordination Sequence:
#
# PCOD9551876 Si02
#       5
#    16  16   8   8  16
#     4  10  21  43  69 103 133 183 240 310 372 440
#     4  10  22  45  77  96 137 193 253 306 375 449
#     4  12  27  42  67 110 156 182 246 308 393 450
#     4  10  24  46  76  96 138 204 252 296 378 448
#     4  12  26  47  68 109 152 193 251 310 376 462
#
# _framework density 21.174720000000001
#
# number of rings (size 3 to 8) (size 9 to 14) (size 15 to 20)
#    0.000    1.500    2.500    4.125    0.000    6.000 
#    0.000    1.250    0.000    0.000    0.000    0.000 
#    0.000    0.000    0.000    0.000    0.000    0.000 
#
# Total GULP energy -178943.232547 kJ/mol
# GULP energy per Si atom -5591.976017 kJ/mol
# Density = 2.112653 g / cm^3
# Si number density = 21.174720 Si / 1000 Ang^3
#
#
#
# Elastic Constant Matrix: (Units=GPa)
#
#
# Indices 1 2 3 4 5 6 
#
# 1 124.9343 64.5805 72.1659 0.0000 0.0000 0.0000
# 2 64.5805 124.9340 72.1652 0.0000 0.0000 0.0000
# 3 72.1659 72.1652 165.9348 0.0000 0.0000 0.0000
# 4 0.0000 0.0000 0.0000 53.9325 0.0000 0.0000
# 5 0.0000 0.0000 0.0000 0.0000 53.9330 0.0000
# 6 0.0000 0.0000 0.0000 0.0000 0.0000 25.7943
#
#
#
# Elastic Compliance Matrix: (Units=1/GPa)
#
#
# Indices 1 2 3 4 5 6 
#
# 1 0.012229 -0.004340 -0.003431 0.000000 0.000000 0.000000
# 2 -0.004340 0.012229 -0.003431 0.000000 0.000000 0.000000
# 3 -0.003431 -0.003431 0.009011 0.000000 0.000000 0.000000
# 4 0.000000 0.000000 0.000000 0.018542 0.000000 0.000000
# 5 0.000000 0.000000 0.000000 0.000000 0.018542 0.000000
# 6 0.000000 0.000000 0.000000 0.000000 0.000000 0.038768
#
#
# Mechanical properties :
#
#
# Convention : Reuss Voigt Hill
#
# Bulk Modulus (GPa) = 90.37108 92.62515 91.49811
# Shear Modulus (GPa) = 36.92370 40.52472 38.72421
#
# Velocity S-wave (km/s) = 4.18037 4.37948 4.28108
# Velocity P-wave (km/s) = 8.12847 8.33134 8.23053
#
# Compressibility (1/GPa) = 0.01106549
#
# Stress axis : x y z
#
# Youngs Moduli (GPa) = 81.76973 81.77005 110.97478
#
# Poissons Ratio (x) = 0.35485 0.38080
# Poissons Ratio (y) = 0.35484 0.38079
# Poissons Ratio (z) = 0.28058 0.28058
#
# Static dielectric constant tensor:
#      x y z
#    x 1.783460 0.000000 0.000000 
#    y 0.000000 1.783460 0.000000 
#    z 0.000000 0.000000 1.747190 
# 
# From -- ./inp_files/9894.got.cif
#   From: 2010.05.17/outbox.cif.g08.bks.cpg/sg98_5_cif.got.tgz:9894.got - 2010.06.03 20:00:51.
