data_PCOD9551635
_publ_section_title
;
Structure prediction by ZEFSAII (Michael W. Deem and Ramdas Pophale) SiO2 
 PCOD9551635
Probable space group: I 41 2 2
;
_chemical_formula_sum "Si O2"
_cell_formula_units_Z 64
_cell_length_a 10.809936
_cell_length_b 10.809936
_cell_length_c 22.375095
_cell_angle_alpha 90.000000
_cell_angle_beta 90.000000
_cell_angle_gamma 90.000000
_cell_volume 2614.635379
_symmetry_space_group_name_H-M "I 41 2 2"
_symmetry_group_IT_number 98
_symmetry_cell_setting 'tetragonal'
loop_
_space_group_symop_operation_xyz
x,y,z
-y,1/2+x,1/4+z
-x,-y,z
y,1/2-x,1/4+z
x,1/2-y,1/4-z
-x,1/2+y,1/4-z
y,x,-z
-y,-x,-z
1/2+x,1/2+y,1/2+z
1/2-y,x,3/4+z
1/2-x,1/2-y,1/2+z
1/2+y,-x,3/4+z
1/2+x,-y,3/4-z
1/2-x,y,3/4-z
1/2+y,1/2+x,1/2-z
1/2-y,1/2-x,1/2-z
loop_
_atom_site_type_symbol
_atom_site_label
_atom_site_fract_x
_atom_site_fract_y
_atom_site_fract_z
Si Si1 0.266842 0.042200 0.618013
Si Si2 0.977581 0.647051 0.504877
Si Si3 0.021071 0.250000 0.125000
Si Si4 0.273963 0.028107 0.746871
Si Si5 0.250000 0.059169 0.375000
O O1 0.289030 0.975928 0.555341
O O2 0.387458 0.131374 0.623941
O O3 0.259406 0.970536 0.681022
O O4 0.148148 0.131812 0.613124
O O5 0.827468 0.639708 0.503201
O O6 0.014032 0.715687 0.565283
O O7 0.000000 0.500000 0.506386
O O8 0.958544 0.254248 0.190267
O O9 0.405428 0.094573 0.750000
#
# Coordination Sequence:
#
# PCOD9551635 Si02
#       5
#    16  16   8  16   8
#     4   8  13  23  40  60  83 115 147 179 231 285
#     4  10  17  24  39  65  93 116 151 197 235 285
#     4   7  10  18  36  60  78 103 142 175 214 276
#     4   8  13  23  41  61  85 119 148 179 233 284
#     4   9  16  28  44  60  90 129 150 185 256 300
#
# _framework density 24.477599999999999
#
# number of rings (size 3 to 8) (size 9 to 14) (size 15 to 20)
#    0.000    3.500    0.000    5.250    0.000    0.000 
#    0.000    0.000    0.000   30.750    0.000    0.000 
#    0.000  168.000    0.000    0.000    0.000    0.000 
#
# Total GULP energy -178247.945784 kJ/mol
# GULP energy per Si atom -5570.248306 kJ/mol
# Density = 2.442189 g / cm^3
# Si number density = 24.477600 Si / 1000 Ang^3
#
#
#
# Elastic Constant Matrix: (Units=GPa)
#
#
# Indices 1 2 3 4 5 6 
#
# 1 28.7885 26.8812 23.1599 0.0000 0.0000 0.0000
# 2 26.8812 28.7895 23.1597 0.0000 0.0000 0.0000
# 3 23.1599 23.1597 369.7038 0.0000 0.0000 0.0000
# 4 0.0000 0.0000 0.0000 -24.0341 0.0000 0.0000
# 5 0.0000 0.0000 0.0000 0.0000 -24.0340 0.0000
# 6 0.0000 0.0000 0.0000 0.0000 0.0000 26.6833
#
#
#
# Elastic Compliance Matrix: (Units=1/GPa)
#
#
# Indices 1 2 3 4 5 6 
#
# 1 0.271553 -0.252597 -0.001188 0.000000 0.000000 0.000000
# 2 -0.252597 0.271543 -0.001187 0.000000 0.000000 0.000000
# 3 -0.001188 -0.001187 0.002854 0.000000 0.000000 0.000000
# 4 0.000000 0.000000 0.000000 -0.041608 0.000000 0.000000
# 5 0.000000 0.000000 0.000000 0.000000 -0.041608 0.000000
# 6 0.000000 0.000000 0.000000 0.000000 0.000000 0.037477
#
#
# Mechanical properties :
#
#
# Convention : Reuss Voigt Hill
#
# Bulk Modulus (GPa) = 27.77287 63.74260 45.75773
# Shear Modulus (GPa) = 4.89162 19.32845 12.11004
#
# Velocity S-wave (km/s) = 1.41518 2.81310 2.22669
# Velocity P-wave (km/s) = 3.74716 6.05385 5.03440
#
# Compressibility (1/GPa) = 0.03600636
#
# Stress axis : x y z
#
# Youngs Moduli (GPa) = 3.68252 3.68266 350.43396
#
# Poissons Ratio (x) = 0.93023 0.41618
# Poissons Ratio (y) = 0.93019 0.41585
# Poissons Ratio (z) = 0.00437 0.00437
#
# Static dielectric constant tensor:
#      x y z
#    x 1.964130 0.000000 0.000000 
#    y 0.000000 1.964130 0.000000 
#    z 0.000000 0.000000 2.101670 
# 
# From -- ./inp_files/8645.got.cif
#   From: 2010.05.17/outbox.cif.g08.bks.cpg/sg98_5_cif.got.tgz:8645.got - 2010.06.03 20:00:51.
