data_PCOD9551031
_publ_section_title
;
Structure prediction by ZEFSAII (Michael W. Deem and Ramdas Pophale) SiO2 
 PCOD9551031
Probable space group: P 43 21 2
;
_chemical_formula_sum "Si O2"
_cell_formula_units_Z 36
_cell_length_a 7.266005
_cell_length_b 7.266005
_cell_length_c 25.131052
_cell_angle_alpha 90.000000
_cell_angle_beta 90.000000
_cell_angle_gamma 90.000000
_cell_volume 1326.789584
_symmetry_space_group_name_H-M "P 43 21 2"
_symmetry_group_IT_number 96
_symmetry_cell_setting 'tetragonal'
loop_
_space_group_symop_operation_xyz
x,y,z
1/2-y,1/2+x,3/4+z
-x,-y,1/2+z
1/2+y,1/2-x,1/4+z
1/2+x,1/2-y,1/4-z
1/2-x,1/2+y,3/4-z
y,x,-z
-y,-x,1/2-z
loop_
_atom_site_type_symbol
_atom_site_label
_atom_site_fract_x
_atom_site_fract_y
_atom_site_fract_z
Si Si1 0.813519 0.254513 0.044678
Si Si2 0.313381 0.973146 0.062648
Si Si3 0.661968 0.338033 0.750000
Si Si4 0.155057 0.921718 0.840989
Si Si5 0.216561 0.056096 0.390327
O O1 0.615381 0.330848 0.061088
O O2 0.923693 0.237754 0.099351
O O3 0.805995 0.046322 0.021514
O O4 0.903411 0.360535 0.995852
O O5 0.463947 0.895064 0.103805
O O6 0.129167 0.878866 0.086821
O O7 0.299599 0.192413 0.061456
O O8 0.672740 0.233241 0.693441
O O9 0.944312 0.866141 0.850983
#
# Coordination Sequence:
#
# PCOD9551031 Si02
#       5
#     8   8   4   8   8
#     4  10  23  45  70 104 138 199 235 304 373 440
#     4  11  25  44  71 108 144 188 247 301 375 441
#     4   8  20  42  66  94 142 180 230 290 368 418
#     4  11  23  48  68 102 147 184 247 293 371 448
#     4  10  23  44  68 103 142 189 238 302 368 444
#
# _framework density 27.133168000000001
#
# number of rings (size 3 to 8) (size 9 to 14) (size 15 to 20)
#    0.000    1.778    2.222    0.000    6.222    4.444 
#    4.000    0.000    0.000    0.000    0.000    0.000 
#    0.000    0.000    0.000    0.000    0.000    0.000 
#
# Total GULP energy -201310.690164 kJ/mol
# GULP energy per Si atom -5591.963616 kJ/mol
# Density = 2.707141 g / cm^3
# Si number density = 27.133168 Si / 1000 Ang^3
#
#
#
# Elastic Constant Matrix: (Units=GPa)
#
#
# Indices 1 2 3 4 5 6 
#
# 1 63.5291 27.3196 -1.4120 0.0000 0.0000 0.0000
# 2 27.3196 63.5297 -1.4121 0.0000 0.0000 0.0000
# 3 -1.4120 -1.4121 134.1213 0.0000 0.0000 0.0000
# 4 0.0000 0.0000 0.0000 45.4049 0.0000 0.0000
# 5 0.0000 0.0000 0.0000 0.0000 45.4048 0.0000
# 6 0.0000 0.0000 0.0000 0.0000 0.0000 26.2715
#
#
#
# Elastic Compliance Matrix: (Units=1/GPa)
#
#
# Indices 1 2 3 4 5 6 
#
# 1 0.019314 -0.008303 0.000116 0.000000 0.000000 0.000000
# 2 -0.008303 0.019314 0.000116 0.000000 0.000000 0.000000
# 3 0.000116 0.000116 0.007458 0.000000 0.000000 0.000000
# 4 0.000000 0.000000 0.000000 0.022024 0.000000 0.000000
# 5 0.000000 0.000000 0.000000 0.000000 0.022024 0.000000
# 6 0.000000 0.000000 0.000000 0.000000 0.000000 0.038064
#
#
# Mechanical properties :
#
#
# Convention : Reuss Voigt Hill
#
# Bulk Modulus (GPa) = 33.39587 34.46347 33.92967
# Shear Modulus (GPa) = 32.39982 39.19523 35.79752
#
# Velocity S-wave (km/s) = 3.45933 3.80485 3.63619
# Velocity P-wave (km/s) = 5.31891 5.65965 5.49192
#
# Compressibility (1/GPa) = 0.02994382
#
# Stress axis : x y z
#
# Youngs Moduli (GPa) = 51.77601 51.77650 134.07738
#
# Poissons Ratio (x) = 0.42990 -0.01554
# Poissons Ratio (y) = 0.42990 -0.01554
# Poissons Ratio (z) = -0.00600 -0.00600
#
# Static dielectric constant tensor:
#      x y z
#    x 2.190590 0.000000 0.000000 
#    y 0.000000 2.190590 0.000000 
#    z 0.000000 0.000000 2.083110 
# 
# From -- ./inp_files/4084.got.cif
#   From: 2010.05.17/outbox.cif.g08.bks.cpg/sg96_3_cif.got.tgz:4084.got - 2010.06.03 19:52:08.
