data_PCOD9551223
_publ_section_title
;
Structure prediction by ZEFSAII (Michael W. Deem and Ramdas Pophale) SiO2 
 PCOD9551223
Probable space group: I 4 2 2 
;
_chemical_formula_sum "Si O2"
_cell_formula_units_Z 96
_cell_length_a 15.190770
_cell_length_b 15.190770
_cell_length_c 26.589689
_cell_angle_alpha 90.000000
_cell_angle_beta 90.000000
_cell_angle_gamma 90.000000
_cell_volume 6135.823158
_symmetry_space_group_name_H-M "I 4 2 2 "
_symmetry_group_IT_number 97
_symmetry_cell_setting 'tetragonal'
loop_
_space_group_symop_operation_xyz
x,y,z
-y,x,z
-x,-y,z
y,-x,z
x,-y,-z
-x,y,-z
y,x,-z
-y,-x,-z
1/2+x,1/2+y,1/2+z
1/2-y,1/2+x,1/2+z
1/2-x,1/2-y,1/2+z
1/2+y,1/2-x,1/2+z
1/2+x,1/2-y,1/2-z
1/2-x,1/2+y,1/2-z
1/2+y,1/2+x,1/2-z
1/2-y,1/2-x,1/2-z
loop_
_atom_site_type_symbol
_atom_site_label
_atom_site_fract_x
_atom_site_fract_y
_atom_site_fract_z
Si Si1 0.497130 0.788158 0.141017
Si Si2 0.386212 0.924648 0.810569
Si Si3 0.126486 0.339160 0.191166
Si Si4 0.451287 0.361457 0.213063
Si Si5 0.500793 0.354841 0.060277
Si Si6 0.670009 0.280479 0.708232
O O1 0.540452 0.882217 0.153669
O O2 0.398120 0.803189 0.161031
O O3 0.552782 0.720083 0.175445
O O4 0.497346 0.738707 0.087903
O O5 0.410447 0.910447 0.750000
O O6 0.298721 0.869403 0.823284
O O7 0.365460 0.026328 0.819730
O O8 0.138303 0.361698 0.250000
O O9 0.149601 0.236412 0.184319
O O10 0.551523 0.393063 0.206566
O O11 0.414723 0.324100 0.265379
O O12 0.585333 0.415587 0.074445
O O13 0.500000 0.346276 0.000000
O O14 0.730702 0.230702 0.750000
#
# Coordination Sequence:
#
# PCOD9551223 Si02
#       6
#    16  16  16  16  16  16
#     4  12  21  30  51  73 101 134 175 213 256 311
#     4  11  20  33  45  68 103 139 176 211 249 307
#     4  11  21  31  48  67 103 142 178 210 253 303
#     4  11  20  29  42  65  95 129 169 212 250 288
#     4   9  20  38  57  78 105 134 170 222 276 319
#     4  10  18  31  43  62  92 131 175 216 241 285
#
# _framework density 15.645822000000001
#
# number of rings (size 3 to 8) (size 9 to 14) (size 15 to 20)
#    0.000    1.333    5.000    5.000    2.333    1.333 
#    0.000    0.000    0.000    2.000    0.000    0.000 
#    0.000    0.000    0.000    0.000    0.000    5.000 
#
# Total GULP energy -267268.839032 kJ/mol
# GULP energy per Si atom -5568.100813 kJ/mol
# Density = 1.561021 g / cm^3
# Si number density = 15.645822 Si / 1000 Ang^3
#
#
#
# Elastic Constant Matrix: (Units=GPa)
#
#
# Indices 1 2 3 4 5 6 
#
# 1 79.4879 26.9718 16.9050 0.0000 0.0000 0.0000
# 2 26.9718 79.4874 16.9047 0.0000 0.0000 0.0000
# 3 16.9050 16.9047 36.1532 0.0000 0.0000 0.0000
# 4 0.0000 0.0000 0.0000 18.8950 0.0000 0.0000
# 5 0.0000 0.0000 0.0000 0.0000 18.8951 0.0000
# 6 0.0000 0.0000 0.0000 0.0000 0.0000 29.5230
#
#
#
# Elastic Compliance Matrix: (Units=1/GPa)
#
#
# Indices 1 2 3 4 5 6 
#
# 1 0.015037 -0.004005 -0.005158 0.000000 0.000000 0.000000
# 2 -0.004005 0.015037 -0.005158 0.000000 0.000000 0.000000
# 3 -0.005158 -0.005158 0.032484 0.000000 0.000000 0.000000
# 4 0.000000 0.000000 0.000000 0.052924 0.000000 0.000000
# 5 0.000000 0.000000 0.000000 0.000000 0.052924 0.000000
# 6 0.000000 0.000000 0.000000 0.000000 0.000000 0.033872
#
#
# Mechanical properties :
#
#
# Convention : Reuss Voigt Hill
#
# Bulk Modulus (GPa) = 29.48635 35.18794 32.33715
# Shear Modulus (GPa) = 20.64201 22.41911 21.53056
#
# Velocity S-wave (km/s) = 3.63620 3.78949 3.71364
# Velocity P-wave (km/s) = 6.04287 6.45648 6.25310
#
# Compressibility (1/GPa) = 0.03391399
#
# Stress axis : x y z
#
# Youngs Moduli (GPa) = 66.50437 66.50421 30.78453
#
# Poissons Ratio (x) = 0.26636 0.15879
# Poissons Ratio (y) = 0.26637 0.15879
# Poissons Ratio (z) = 0.34304 0.34304
#
# Static dielectric constant tensor:
#      x y z
#    x 1.553500 0.000000 0.000000 
#    y 0.000000 1.553500 0.000000 
#    z 0.000000 0.000000 1.508120 
# 
# From -- ./inp_files/8143.got.cif
#   From: 2010.05.17/outbox.cif.g08.bks.cpg/sg97_5_cif.got.tgz:8143.got - 2010.06.03 19:55:32.
