data_PCOD9551008
_publ_section_title
;
Structure prediction by ZEFSAII (Michael W. Deem and Ramdas Pophale) SiO2 
 PCOD9551008
Probable space group: P 43 21 2
;
_chemical_formula_sum "Si O2"
_cell_formula_units_Z 60
_cell_length_a 18.297819
_cell_length_b 18.297819
_cell_length_c 8.788217
_cell_angle_alpha 90.000000
_cell_angle_beta 90.000000
_cell_angle_gamma 90.000000
_cell_volume 2942.384517
_symmetry_space_group_name_H-M "P 43 21 2"
_symmetry_group_IT_number 96
_symmetry_cell_setting 'tetragonal'
loop_
_space_group_symop_operation_xyz
x,y,z
1/2-y,1/2+x,3/4+z
-x,-y,1/2+z
1/2+y,1/2-x,1/4+z
1/2+x,1/2-y,1/4-z
1/2-x,1/2+y,3/4-z
y,x,-z
-y,-x,1/2-z
loop_
_atom_site_type_symbol
_atom_site_label
_atom_site_fract_x
_atom_site_fract_y
_atom_site_fract_z
Si Si1 0.190896 0.190896 0.000000
Si Si2 0.407613 0.814548 0.271672
Si Si3 0.569575 0.313328 0.006003
Si Si4 0.586567 0.696466 0.923516
Si Si5 0.304453 0.824460 0.975742
Si Si6 0.308909 0.929170 0.434389
Si Si7 0.027440 0.080012 0.837831
Si Si8 0.899329 0.226069 0.266793
O O1 0.114189 0.203773 0.087994
O O2 0.248966 0.200602 0.135370
O O3 0.405454 0.737644 0.364387
O O4 0.370993 0.873281 0.383914
O O5 0.491842 0.833722 0.241501
O O6 0.364824 0.817149 0.109213
O O7 0.481604 0.302322 0.016300
O O8 0.588249 0.399051 0.989075
O O9 0.644190 0.733623 0.811649
O O10 0.514208 0.654757 0.874033
O O11 0.633961 0.633961 0.000000
O O12 0.560457 0.759033 0.036596
O O13 0.298565 0.882177 0.835503
O O14 0.255882 0.896675 0.562403
O O15 0.047206 0.047206 0.000000
O O16 0.974986 0.025015 0.750000
O O17 0.838919 0.161082 0.250000
#
# Coordination Sequence:
#
# PCOD9551008 Si02
#       8
#     4   8   8   8   8   8   8   8
#     4  12  26  40  62  98 134 176 230 286 334 400
#     4  10  25  44  70  97 137 176 230 294 345 416
#     4  11  25  43  66  99 142 177 225 283 339 405
#     4  10  23  40  63  93 129 176 223 268 325 424
#     4  11  24  40  68  94 130 175 228 279 343 393
#     4  10  23  47  67 100 131 177 234 283 348 406
#     4  11  24  44  63  97 141 184 225 273 341 418
#     4  11  22  43  70  99 136 184 224 275 337 424
#
# _framework density 20.391624
#
# number of rings (size 3 to 8) (size 9 to 14) (size 15 to 20)
#    0.000    1.333    1.333    2.800    5.600    6.400 
#    3.600    2.667    0.000    0.000    0.000    0.000 
#    0.000    0.000    0.000    0.000    0.000    0.000 
#
# Total GULP energy -334542.077086 kJ/mol
# GULP energy per Si atom -5575.701285 kJ/mol
# Density = 2.034521 g / cm^3
# Si number density = 20.391624 Si / 1000 Ang^3
#
#
#
# Elastic Constant Matrix: (Units=GPa)
#
#
# Indices 1 2 3 4 5 6 
#
# 1 78.2099 115.8450 55.9315 0.0000 0.0000 0.0000
# 2 115.8450 78.2080 55.9373 0.0000 0.0000 0.0000
# 3 55.9315 55.9373 107.6232 0.0000 0.0000 0.0000
# 4 0.0000 0.0000 0.0000 33.8786 0.0000 0.0000
# 5 0.0000 0.0000 0.0000 0.0000 33.8785 0.0000
# 6 0.0000 0.0000 0.0000 0.0000 0.0000 39.9486
#
#
#
# Elastic Compliance Matrix: (Units=1/GPa)
#
#
# Indices 1 2 3 4 5 6 
#
# 1 -0.009606 0.016964 -0.003825 0.000000 0.000000 0.000000
# 2 0.016964 -0.009607 -0.003823 0.000000 0.000000 0.000000
# 3 -0.003825 -0.003823 0.013266 0.000000 0.000000 0.000000
# 4 0.000000 0.000000 0.000000 0.029517 0.000000 0.000000
# 5 0.000000 0.000000 0.000000 0.000000 0.029517 0.000000
# 6 0.000000 0.000000 0.000000 0.000000 0.000000 0.025032
#
#
# Mechanical properties :
#
#
# Convention : Reuss Voigt Hill
#
# Bulk Modulus (GPa) = 78.82721 79.94096 79.38409
# Shear Modulus (GPa) = 78.47221 23.96297 51.21759
#
# Velocity S-wave (km/s) = 6.21016 3.43175 5.01712
# Velocity P-wave (km/s) = 9.49537 7.41556 8.51917
#
# Compressibility (1/GPa) = 0.01268598
#
# Stress axis : x y z
#
# Youngs Moduli (GPa) = -104.10642 -104.08955 75.37800
#
# Poissons Ratio (x) = 1.76577 0.28833
# Poissons Ratio (y) = 1.76606 0.28816
# Poissons Ratio (z) = -0.39821 -0.39792
#
# Static dielectric constant tensor:
#      x y z
#    x 1.746870 0.000000 0.000000 
#    y 0.000000 1.746870 0.000000 
#    z 0.000000 0.000000 1.972780 
# 
# From -- ./inp_files/1629.got.cif
#   From: 2010.05.17/outbox.cif.g08.bks.cpg/sg96_1_cif.got.tgz:1629.got - 2010.06.03 19:52:08.
