data_PCOD9551014
_publ_section_title
;
Structure prediction by ZEFSAII (Michael W. Deem and Ramdas Pophale) SiO2 
 PCOD9551014
Probable space group: P 43 21 2
;
_chemical_formula_sum "Si O2"
_cell_formula_units_Z 36
_cell_length_a 9.628873
_cell_length_b 9.628873
_cell_length_c 18.756891
_cell_angle_alpha 90.000000
_cell_angle_beta 90.000000
_cell_angle_gamma 90.000000
_cell_volume 1739.048811
_symmetry_space_group_name_H-M "P 43 21 2"
_symmetry_group_IT_number 96
_symmetry_cell_setting 'tetragonal'
loop_
_space_group_symop_operation_xyz
x,y,z
1/2-y,1/2+x,3/4+z
-x,-y,1/2+z
1/2+y,1/2-x,1/4+z
1/2+x,1/2-y,1/4-z
1/2-x,1/2+y,3/4-z
y,x,-z
-y,-x,1/2-z
loop_
_atom_site_type_symbol
_atom_site_label
_atom_site_fract_x
_atom_site_fract_y
_atom_site_fract_z
Si Si1 0.960235 0.039765 0.250000
Si Si2 0.029635 0.692105 0.397477
Si Si3 0.097100 0.203325 0.137656
Si Si4 0.766845 0.820121 0.215195
Si Si5 0.471349 0.960112 0.709882
O O1 0.849889 0.035166 0.314825
O O2 0.919801 0.892833 0.214888
O O3 0.182733 0.737648 0.419946
O O4 0.983698 0.579777 0.457358
O O5 0.926724 0.822722 0.395765
O O6 0.021794 0.612915 0.322277
O O7 0.200231 0.259593 0.200004
O O8 0.058583 0.316787 0.080821
O O9 0.653421 0.934262 0.193994
#
# Coordination Sequence:
#
# PCOD9551014 Si02
#       5
#     4   8   8   8   8
#     4   8  20  44  62  96 134 176 226 288 364 400
#     4  12  24  44  67  99 141 181 238 294 369 422
#     4  10  23  41  71  98 134 181 231 297 351 423
#     4  10  24  39  67  98 137 178 228 295 356 420
#     4  12  24  43  69 101 136 184 241 292 352 438
#
# _framework density 20.700973000000001
#
# number of rings (size 3 to 8) (size 9 to 14) (size 15 to 20)
#    1.333    0.000    4.444    0.667    9.333    0.000 
#    0.000    0.000    0.000    0.000    0.000    0.000 
#    0.000    0.000    0.000    0.000    0.000    0.000 
#
# Total GULP energy -200611.680901 kJ/mol
# GULP energy per Si atom -5572.546692 kJ/mol
# Density = 2.065386 g / cm^3
# Si number density = 20.700973 Si / 1000 Ang^3
#
#
#
# Elastic Constant Matrix: (Units=GPa)
#
#
# Indices 1 2 3 4 5 6 
#
# 1 83.1888 40.4695 5.0604 0.0000 0.0000 0.0000
# 2 40.4695 83.1888 5.0604 0.0000 0.0000 0.0000
# 3 5.0604 5.0604 47.6173 0.0000 0.0000 0.0000
# 4 0.0000 0.0000 0.0000 33.4211 0.0000 0.0000
# 5 0.0000 0.0000 0.0000 0.0000 33.4211 0.0000
# 6 0.0000 0.0000 0.0000 0.0000 0.0000 37.7579
#
#
#
# Elastic Compliance Matrix: (Units=1/GPa)
#
#
# Indices 1 2 3 4 5 6 
#
# 1 0.015783 -0.007625 -0.000867 0.000000 0.000000 0.000000
# 2 -0.007625 0.015783 -0.000867 0.000000 0.000000 0.000000
# 3 -0.000867 -0.000867 0.021185 0.000000 0.000000 0.000000
# 4 0.000000 0.000000 0.000000 0.029921 0.000000 0.000000
# 5 0.000000 0.000000 0.000000 0.000000 0.029921 0.000000
# 6 0.000000 0.000000 0.000000 0.000000 0.000000 0.026484
#
#
# Mechanical properties :
#
#
# Convention : Reuss Voigt Hill
#
# Bulk Modulus (GPa) = 29.38345 35.01952 32.20148
# Shear Modulus (GPa) = 29.56107 31.81364 30.68736
#
# Velocity S-wave (km/s) = 3.78299 3.92448 3.85439
# Velocity P-wave (km/s) = 5.77117 6.12282 5.94960
#
# Compressibility (1/GPa) = 0.03403276
#
# Stress axis : x y z
#
# Youngs Moduli (GPa) = 63.35853 63.35853 47.20308
#
# Poissons Ratio (x) = 0.48314 0.04092
# Poissons Ratio (y) = 0.48314 0.04092
# Poissons Ratio (z) = 0.05493 0.05493
#
# Static dielectric constant tensor:
#      x y z
#    x 1.764680 0.000000 0.000000 
#    y 0.000000 1.764680 0.000000 
#    z 0.000000 0.000000 1.768920 
# 
# From -- ./inp_files/3455.got.cif
#   From: 2010.05.17/outbox.cif.g08.bks.cpg/sg96_2_cif.got.tgz:3455.got - 2010.06.03 19:52:08.
