data_PCOD9551321
_publ_section_title
;
Structure prediction by ZEFSAII (Michael W. Deem and Ramdas Pophale) SiO2 
 PCOD9551321
Probable space group: I 4 2 2 
;
_chemical_formula_sum "Si O2"
_cell_formula_units_Z 96
_cell_length_a 24.028444
_cell_length_b 24.028444
_cell_length_c 8.746107
_cell_angle_alpha 90.000000
_cell_angle_beta 90.000000
_cell_angle_gamma 90.000000
_cell_volume 5049.705873
_symmetry_space_group_name_H-M "I 4 2 2 "
_symmetry_group_IT_number 97
_symmetry_cell_setting 'tetragonal'
loop_
_space_group_symop_operation_xyz
x,y,z
-y,x,z
-x,-y,z
y,-x,z
x,-y,-z
-x,y,-z
y,x,-z
-y,-x,-z
1/2+x,1/2+y,1/2+z
1/2-y,1/2+x,1/2+z
1/2-x,1/2-y,1/2+z
1/2+y,1/2-x,1/2+z
1/2+x,1/2-y,1/2-z
1/2-x,1/2+y,1/2-z
1/2+y,1/2+x,1/2-z
1/2-y,1/2-x,1/2-z
loop_
_atom_site_type_symbol
_atom_site_label
_atom_site_fract_x
_atom_site_fract_y
_atom_site_fract_z
Si Si1 0.687442 0.162166 0.595909
Si Si2 0.811469 0.176448 0.672212
Si Si3 0.215815 0.367499 0.326572
Si Si4 0.054190 0.731033 0.591181
Si Si5 0.874322 0.914204 0.168316
Si Si6 0.859769 0.025268 0.343111
O O1 0.653017 0.153017 0.750000
O O2 0.747063 0.188089 0.640913
O O3 0.650551 0.205521 0.498982
O O4 0.708040 0.106592 0.507468
O O5 0.834086 0.165915 0.500000
O O6 0.841322 0.227978 0.755660
O O7 0.822283 0.123394 0.778609
O O8 0.165032 0.334969 0.250000
O O9 0.213090 0.430359 0.264764
O O10 0.046322 0.797736 0.611245
O O11 0.000000 0.711444 0.500000
O O12 0.923971 0.895063 0.279672
O O13 0.859727 0.977659 0.211167
O O14 0.896191 0.896191 0.000000
O O15 0.883095 0.000000 0.500000
#
# Coordination Sequence:
#
# PCOD9551321 Si02
#       6
#    16  16  16  16  16  16
#     4  11  24  35  59  92 127 162 207 261 322 394
#     4  12  20  36  56  85 123 167 207 248 322 394
#     4  10  20  36  55  85 124 159 207 252 306 393
#     4  10  20  40  61  85 121 169 211 252 316 387
#     4  12  26  40  61  89 123 158 219 284 329 374
#     4  11  22  43  64  82 112 165 219 271 325 389
#
# _framework density 19.011008
#
# number of rings (size 3 to 8) (size 9 to 14) (size 15 to 20)
#    0.000    1.000    5.000    4.500    2.333    0.333 
#    0.000    2.500    0.000    0.000    0.000    0.000 
#    0.000   18.000    0.000    0.000    0.000    0.000 
#
# Total GULP energy -267379.764637 kJ/mol
# GULP energy per Si atom -5570.411763 kJ/mol
# Density = 1.896774 g / cm^3
# Si number density = 19.011008 Si / 1000 Ang^3
#
#
#
# Elastic Constant Matrix: (Units=GPa)
#
#
# Indices 1 2 3 4 5 6 
#
# 1 66.8075 35.8905 32.6653 0.0000 0.0000 0.0000
# 2 35.8905 66.8127 32.6708 0.0000 0.0000 0.0000
# 3 32.6653 32.6708 108.6260 0.0000 0.0000 0.0000
# 4 0.0000 0.0000 0.0000 31.9008 0.0000 0.0000
# 5 0.0000 0.0000 0.0000 0.0000 31.9015 0.0000
# 6 0.0000 0.0000 0.0000 0.0000 0.0000 21.2334
#
#
#
# Elastic Compliance Matrix: (Units=1/GPa)
#
#
# Indices 1 2 3 4 5 6 
#
# 1 0.022192 -0.010151 -0.003620 0.000000 0.000000 0.000000
# 2 -0.010151 0.022191 -0.003622 0.000000 0.000000 0.000000
# 3 -0.003620 -0.003622 0.011384 0.000000 0.000000 0.000000
# 4 0.000000 0.000000 0.000000 0.031347 0.000000 0.000000
# 5 0.000000 0.000000 0.000000 0.000000 0.031346 0.000000
# 6 0.000000 0.000000 0.000000 0.000000 0.000000 0.047096
#
#
# Mechanical properties :
#
#
# Convention : Reuss Voigt Hill
#
# Bulk Modulus (GPa) = 47.66235 49.41102 48.53669
# Shear Modulus (GPa) = 24.11554 26.40845 25.26199
#
# Velocity S-wave (km/s) = 3.56547 3.73112 3.64924
# Velocity P-wave (km/s) = 6.48656 6.67899 6.58348
#
# Compressibility (1/GPa) = 0.02098092
#
# Stress axis : x y z
#
# Youngs Moduli (GPa) = 45.06185 45.06339 87.84321
#
# Poissons Ratio (x) = 0.45742 0.31803
# Poissons Ratio (y) = 0.45741 0.31815
# Poissons Ratio (z) = 0.16314 0.16321
#
# Static dielectric constant tensor:
#      x y z
#    x 1.702620 0.000000 0.000000 
#    y 0.000000 1.702640 0.000000 
#    z 0.000000 0.000000 1.820530 
# 
# From -- ./inp_files/2472.got.cif
#   From: 2010.05.17/outbox.cif.g08.bks.cpg/sg97_2_cif.got.tgz:2472.got - 2010.06.03 19:55:32.
