data_PCOD9551086
_publ_section_title
;
Structure prediction by ZEFSAII (Michael W. Deem and Ramdas Pophale) SiO2 
 PCOD9551086
Probable space group: P 43 21 2
;
_chemical_formula_sum "Si O2"
_cell_formula_units_Z 44
_cell_length_a 14.618094
_cell_length_b 14.618094
_cell_length_c 7.284999
_cell_angle_alpha 90.000000
_cell_angle_beta 90.000000
_cell_angle_gamma 90.000000
_cell_volume 1556.721763
_symmetry_space_group_name_H-M "P 43 21 2"
_symmetry_group_IT_number 96
_symmetry_cell_setting 'tetragonal'
loop_
_space_group_symop_operation_xyz
x,y,z
1/2-y,1/2+x,3/4+z
-x,-y,1/2+z
1/2+y,1/2-x,1/4+z
1/2+x,1/2-y,1/4-z
1/2-x,1/2+y,3/4-z
y,x,-z
-y,-x,1/2-z
loop_
_atom_site_type_symbol
_atom_site_label
_atom_site_fract_x
_atom_site_fract_y
_atom_site_fract_z
Si Si1 0.008367 0.008367 0.000000
Si Si2 0.943541 0.795192 0.500017
Si Si3 0.820428 0.012265 0.887524
Si Si4 0.607008 0.211416 0.910167
Si Si5 0.109938 0.435100 0.660490
Si Si6 0.807394 0.218225 0.031065
O O1 0.987494 0.925421 0.136884
O O2 0.114864 0.997709 0.941332
O O3 0.115161 0.705271 0.489353
O O4 0.936246 0.710030 0.635733
O O5 0.844622 0.844622 0.500000
O O6 0.782753 0.956420 0.056534
O O7 0.773131 0.975838 0.704227
O O8 0.815834 0.119020 0.932379
O O9 0.601856 0.123840 0.781257
O O10 0.709705 0.246511 0.943455
O O11 0.035176 0.414504 0.820869
O O12 0.799054 0.200947 0.250000
#
# Coordination Sequence:
#
# PCOD9551086 Si02
#       6
#     4   8   8   8   8   8
#     4  10  26  42  78 126 174 234 284 380 502 568
#     4  10  26  46  81 125 185 236 291 381 495 593
#     4  12  28  53  83 135 191 238 309 395 497 588
#     4  12  29  54  89 138 183 248 308 400 489 585
#     4  12  33  66  96 131 189 265 342 399 474 583
#     4  12  33  57  95 144 190 253 326 410 498 584
#
# _framework density 28.264524000000002
#
# number of rings (size 3 to 8) (size 9 to 14) (size 15 to 20)
#    0.545    0.000    0.000    3.818   15.273   11.636 
#    3.273    0.000    0.000    0.000    0.000    0.000 
#    0.000    0.000    0.000    0.000    0.000    0.000 
#
# Total GULP energy -245970.850586 kJ/mol
# GULP energy per Si atom -5590.246604 kJ/mol
# Density = 2.820019 g / cm^3
# Si number density = 28.264524 Si / 1000 Ang^3
#
#
#
# Elastic Constant Matrix: (Units=GPa)
#
#
# Indices 1 2 3 4 5 6 
#
# 1 159.9970 41.1026 62.6313 0.0000 0.0000 0.0000
# 2 41.1026 159.9969 62.6313 0.0000 0.0000 0.0000
# 3 62.6313 62.6313 234.1747 0.0000 0.0000 0.0000
# 4 0.0000 0.0000 0.0000 132.0534 0.0000 0.0000
# 5 0.0000 0.0000 0.0000 0.0000 132.0529 0.0000
# 6 0.0000 0.0000 0.0000 0.0000 0.0000 28.7683
#
#
#
# Elastic Compliance Matrix: (Units=1/GPa)
#
#
# Indices 1 2 3 4 5 6 
#
# 1 0.007189 -0.001222 -0.001596 0.000000 0.000000 0.000000
# 2 -0.001222 0.007189 -0.001596 0.000000 0.000000 0.000000
# 3 -0.001596 -0.001596 0.005124 0.000000 0.000000 0.000000
# 4 0.000000 0.000000 0.000000 0.007573 0.000000 0.000000
# 5 0.000000 0.000000 0.000000 0.000000 0.007573 0.000000
# 6 0.000000 0.000000 0.000000 0.000000 0.000000 0.034760
#
#
# Mechanical properties :
#
#
# Convention : Reuss Voigt Hill
#
# Bulk Modulus (GPa) = 93.68548 98.54434 96.11491
# Shear Modulus (GPa) = 61.13012 84.42851 72.77931
#
# Velocity S-wave (km/s) = 4.65562 5.47135 5.07989
# Velocity P-wave (km/s) = 7.88148 8.65188 8.27565
#
# Compressibility (1/GPa) = 0.01067401
#
# Stress axis : x y z
#
# Youngs Moduli (GPa) = 139.10625 139.10615 195.16238
#
# Poissons Ratio (x) = 0.17000 0.31144
# Poissons Ratio (y) = 0.17000 0.31144
# Poissons Ratio (z) = 0.22199 0.22199
#
# Static dielectric constant tensor:
#      x y z
#    x 2.296870 0.000000 0.000000 
#    y 0.000000 2.296870 0.000000 
#    z 0.000000 0.000000 2.343920 
# 
# From -- ./inp_files/2136.got.cif
#   From: 2010.05.17/outbox.cif.g08.bks.cpg/sg96_2_cif.got.tgz:2136.got - 2010.06.03 19:52:08.
