data_PCOD9551225
_publ_section_title
;
Structure prediction by ZEFSAII (Michael W. Deem and Ramdas Pophale) SiO2 
 PCOD9551225
Probable space group: I 4 2 2 
;
_chemical_formula_sum "Si O2"
_cell_formula_units_Z 96
_cell_length_a 18.079640
_cell_length_b 18.079640
_cell_length_c 14.165631
_cell_angle_alpha 90.000000
_cell_angle_beta 90.000000
_cell_angle_gamma 90.000000
_cell_volume 4630.367721
_symmetry_space_group_name_H-M "I 4 2 2 "
_symmetry_group_IT_number 97
_symmetry_cell_setting 'tetragonal'
loop_
_space_group_symop_operation_xyz
x,y,z
-y,x,z
-x,-y,z
y,-x,z
x,-y,-z
-x,y,-z
y,x,-z
-y,-x,-z
1/2+x,1/2+y,1/2+z
1/2-y,1/2+x,1/2+z
1/2-x,1/2-y,1/2+z
1/2+y,1/2-x,1/2+z
1/2+x,1/2-y,1/2-z
1/2-x,1/2+y,1/2-z
1/2+y,1/2+x,1/2-z
1/2-y,1/2-x,1/2-z
loop_
_atom_site_type_symbol
_atom_site_label
_atom_site_fract_x
_atom_site_fract_y
_atom_site_fract_z
Si Si1 0.574316 0.869798 0.967019
Si Si2 0.305571 0.783545 0.919262
Si Si3 0.027838 0.230032 0.343479
Si Si4 0.402731 0.806749 0.322565
Si Si5 0.849036 0.847305 0.897199
Si Si6 0.876522 0.838888 0.690405
O O1 0.543707 0.797684 0.911946
O O2 0.627495 0.915710 0.896645
O O3 0.500000 0.909780 0.000000
O O4 0.625581 0.832175 0.046098
O O5 0.240544 0.841410 0.903410
O O6 0.325881 0.733184 0.829621
O O7 0.273252 0.726749 0.000000
O O8 0.032783 0.271424 0.241288
O O9 0.093844 0.170932 0.350153
O O10 0.952791 0.185259 0.356750
O O11 0.341418 0.841418 0.250000
O O12 0.372263 0.735698 0.378098
O O13 0.890933 0.861242 0.799517
O O14 0.875094 0.875094 0.000000
#
# Coordination Sequence:
#
# PCOD9551225 Si02
#       6
#    16  16  16  16  16  16
#     4  11  18  29  53  84 114 142 172 217 294 358
#     4  11  17  29  54  80 109 135 176 228 284 336
#     4  10  21  33  51  76 113 154 185 230 269 335
#     4   9  17  32  49  73 108 141 175 224 282 320
#     4  10  18  31  53  76 101 136 180 245 277 306
#     4  11  21  34  49  77 112 148 189 226 278 327
#
# _framework density 20.732696000000001
#
# number of rings (size 3 to 8) (size 9 to 14) (size 15 to 20)
#    0.000    1.667    6.667    2.500    0.000    0.333 
#    0.000    3.333    0.000    0.000    0.000    7.000 
#    0.000    0.000    0.000    0.000    0.000    0.000 
#
# Total GULP energy -267416.663969 kJ/mol
# GULP energy per Si atom -5571.180499 kJ/mol
# Density = 2.068551 g / cm^3
# Si number density = 20.732696 Si / 1000 Ang^3
#
#
#
# Elastic Constant Matrix: (Units=GPa)
#
#
# Indices 1 2 3 4 5 6 
#
# 1 34.0896 21.6949 -11.6752 0.0000 0.0000 0.0000
# 2 21.6949 34.0907 -11.6759 0.0000 0.0000 0.0000
# 3 -11.6752 -11.6759 44.4086 0.0000 0.0000 0.0000
# 4 0.0000 0.0000 0.0000 21.4525 0.0000 0.0000
# 5 0.0000 0.0000 0.0000 0.0000 21.4524 0.0000
# 6 0.0000 0.0000 0.0000 0.0000 0.0000 9.2270
#
#
#
# Elastic Compliance Matrix: (Units=1/GPa)
#
#
# Indices 1 2 3 4 5 6 
#
# 1 0.050410 -0.030267 0.005295 0.000000 0.000000 0.000000
# 2 -0.030267 0.050409 0.005296 0.000000 0.000000 0.000000
# 3 0.005295 0.005296 0.025303 0.000000 0.000000 0.000000
# 4 0.000000 0.000000 0.000000 0.046615 0.000000 0.000000
# 5 0.000000 0.000000 0.000000 0.000000 0.046615 0.000000
# 6 0.000000 0.000000 0.000000 0.000000 0.000000 0.108377
#
#
# Mechanical properties :
#
#
# Convention : Reuss Voigt Hill
#
# Bulk Modulus (GPa) = 11.52456 12.14184 11.83320
# Shear Modulus (GPa) = 12.62621 18.04274 15.33448
#
# Velocity S-wave (km/s) = 2.47047 2.95321 2.72256
# Velocity P-wave (km/s) = 3.70248 4.18302 3.95006
#
# Compressibility (1/GPa) = 0.08677118
#
# Stress axis : x y z
#
# Youngs Moduli (GPa) = 19.83739 19.83789 39.52137
#
# Poissons Ratio (x) = 0.60042 -0.20928
# Poissons Ratio (y) = 0.60041 -0.20931
# Poissons Ratio (z) = -0.10505 -0.10507
#
# Static dielectric constant tensor:
#      x y z
#    x 1.734650 0.000000 0.000000 
#    y 0.000000 1.734650 0.000000 
#    z 0.000000 0.000000 1.882070 
# 
# From -- ./inp_files/5748.got.cif
#   From: 2010.05.17/outbox.cif.g08.bks.cpg/sg97_3_cif.got.tgz:5748.got - 2010.06.03 19:55:32.
