data_PCOD9551963
_publ_section_title
;
Structure prediction by ZEFSAII (Michael W. Deem and Ramdas Pophale) SiO2 
 PCOD9551963
Probable space group: I 41 2 2
;
_chemical_formula_sum "Si O2"
_cell_formula_units_Z 56
_cell_length_a 13.732538
_cell_length_b 13.732538
_cell_length_c 12.760157
_cell_angle_alpha 90.000000
_cell_angle_beta 90.000000
_cell_angle_gamma 90.000000
_cell_volume 2406.343582
_symmetry_space_group_name_H-M "I 41 2 2"
_symmetry_group_IT_number 98
_symmetry_cell_setting 'tetragonal'
loop_
_space_group_symop_operation_xyz
x,y,z
-y,1/2+x,1/4+z
-x,-y,z
y,1/2-x,1/4+z
x,1/2-y,1/4-z
-x,1/2+y,1/4-z
y,x,-z
-y,-x,-z
1/2+x,1/2+y,1/2+z
1/2-y,x,3/4+z
1/2-x,1/2-y,1/2+z
1/2+y,-x,3/4+z
1/2+x,-y,3/4-z
1/2-x,y,3/4-z
1/2+y,1/2+x,1/2-z
1/2-y,1/2-x,1/2-z
loop_
_atom_site_type_symbol
_atom_site_label
_atom_site_fract_x
_atom_site_fract_y
_atom_site_fract_z
Si Si1 0.272518 0.404195 0.066246
Si Si2 0.250000 0.957271 0.375000
Si Si3 0.050398 0.898338 0.300540
Si Si4 0.529485 0.250000 0.625000
Si Si5 0.130600 0.130600 0.000000
O O1 0.351596 0.462608 0.133171
O O2 0.195864 0.362712 0.146740
O O3 0.319143 0.319143 0.000000
O O4 0.235093 0.478653 0.979223
O O5 0.145277 0.905411 0.374979
O O6 0.078715 0.824617 0.206577
O O7 0.000000 0.000000 0.263532
O O8 0.470029 0.172989 0.699741
#
# Coordination Sequence:
#
# PCOD9551963 Si02
#       5
#    16   8  16   8   8
#     4  11  24  43  69 107 150 191 243 327 391 468
#     4  12  24  41  75 108 138 208 260 312 392 482
#     4  11  23  47  72 108 153 196 256 321 394 469
#     4  10  24  45  71 102 154 198 246 322 386 464
#     4  10  24  40  65 112 146 191 250 302 398 468
#
# _framework density 23.271823999999999
#
# number of rings (size 3 to 8) (size 9 to 14) (size 15 to 20)
#    0.000    1.143    2.857    2.571    6.000    0.000 
#    0.000   19.286    0.000    0.000    0.000    0.000 
#    0.000    0.000    0.000    0.000    0.000    0.000 
#
# Total GULP energy -156202.197789 kJ/mol
# GULP energy per Si atom -5578.649921 kJ/mol
# Density = 2.321886 g / cm^3
# Si number density = 23.271824 Si / 1000 Ang^3
#
#
#
# Elastic Constant Matrix: (Units=GPa)
#
#
# Indices 1 2 3 4 5 6 
#
# 1 72.2875 29.4993 31.0591 0.0000 0.0000 0.0000
# 2 29.4993 72.2875 31.0591 0.0000 0.0000 0.0000
# 3 31.0591 31.0591 140.3347 0.0000 0.0000 0.0000
# 4 0.0000 0.0000 0.0000 25.0725 0.0000 0.0000
# 5 0.0000 0.0000 0.0000 0.0000 25.0725 0.0000
# 6 0.0000 0.0000 0.0000 0.0000 0.0000 18.2373
#
#
#
# Elastic Compliance Matrix: (Units=1/GPa)
#
#
# Indices 1 2 3 4 5 6 
#
# 1 0.017365 -0.006006 -0.002514 0.000000 0.000000 0.000000
# 2 -0.006006 0.017365 -0.002514 0.000000 0.000000 0.000000
# 3 -0.002514 -0.002514 0.008239 0.000000 0.000000 0.000000
# 4 0.000000 0.000000 0.000000 0.039884 0.000000 0.000000
# 5 0.000000 0.000000 0.000000 0.000000 0.039884 0.000000
# 6 0.000000 0.000000 0.000000 0.000000 0.000000 0.054833
#
#
# Mechanical properties :
#
#
# Convention : Reuss Voigt Hill
#
# Bulk Modulus (GPa) = 47.84638 52.01606 49.93122
# Shear Modulus (GPa) = 24.20087 26.56262 25.38174
#
# Velocity S-wave (km/s) = 3.22828 3.38214 3.30610
# Velocity P-wave (km/s) = 5.87368 6.13611 6.00633
#
# Compressibility (1/GPa) = 0.02090022
#
# Stress axis : x y z
#
# Youngs Moduli (GPa) = 57.58778 57.58778 121.38007
#
# Poissons Ratio (x) = 0.34588 0.30514
# Poissons Ratio (y) = 0.34588 0.30514
# Poissons Ratio (z) = 0.14477 0.14477
#
# Static dielectric constant tensor:
#      x y z
#    x 1.948880 0.000000 0.000000 
#    y 0.000000 1.948880 0.000000 
#    z 0.000000 0.000000 1.835360 
# 
# From -- ./inp_files/4706.got.cif
#   From: 2010.05.17/outbox.cif.g08.bks.cpg/sg98_3_cif.got.tgz:4706.got - 2010.06.03 20:00:51.
