data_PCOD9551987
_publ_section_title
;
Structure prediction by ZEFSAII (Michael W. Deem and Ramdas Pophale) SiO2 
 PCOD9551987
Probable space group: I 41 2 2
;
_chemical_formula_sum "Si O2"
_cell_formula_units_Z 60
_cell_length_a 17.831981
_cell_length_b 17.831981
_cell_length_c 8.065190
_cell_angle_alpha 90.000000
_cell_angle_beta 90.000000
_cell_angle_gamma 90.000000
_cell_volume 2564.565458
_symmetry_space_group_name_H-M "I 41 2 2"
_symmetry_group_IT_number 98
_symmetry_cell_setting 'tetragonal'
loop_
_space_group_symop_operation_xyz
x,y,z
-y,1/2+x,1/4+z
-x,-y,z
y,1/2-x,1/4+z
x,1/2-y,1/4-z
-x,1/2+y,1/4-z
y,x,-z
-y,-x,-z
1/2+x,1/2+y,1/2+z
1/2-y,x,3/4+z
1/2-x,1/2-y,1/2+z
1/2+y,-x,3/4+z
1/2+x,-y,3/4-z
1/2-x,y,3/4-z
1/2+y,1/2+x,1/2-z
1/2-y,1/2-x,1/2-z
loop_
_atom_site_type_symbol
_atom_site_label
_atom_site_fract_x
_atom_site_fract_y
_atom_site_fract_z
Si Si1 0.116625 0.739848 0.296606
Si Si2 0.000000 0.500000 0.250000
Si Si3 0.793985 0.842823 0.165694
Si Si4 0.144227 0.499470 0.007376
Si Si5 0.886893 0.113108 0.500000
O O1 0.189720 0.689720 0.250000
O O2 0.063672 0.697492 0.421094
O O3 0.129485 0.821756 0.367649
O O4 0.072985 0.750000 0.125000
O O5 0.072280 0.498127 0.129056
O O6 0.820904 0.783696 0.312017
O O7 0.808584 0.923350 0.243020
O O8 0.844982 0.844982 0.000000
O O9 0.120991 0.530984 0.828449
#
# Coordination Sequence:
#
# PCOD9551987 Si02
#       5
#    16   4  16  16   8
#     4  12  26  45  77 108 158 213 266 320 393 479
#     4  12  24  50  78 108 152 212 260 328 416 486
#     4  10  24  51  83 114 155 203 265 329 398 472
#     4  12  26  48  77 113 164 209 261 328 409 470
#     4  12  28  49  71 122 154 211 266 329 392 484
#
# _framework density 23.395776000000001
#
# number of rings (size 3 to 8) (size 9 to 14) (size 15 to 20)
#    0.000    0.533    5.333    0.800    5.600    2.667 
#   19.200    2.667    0.000    0.000    0.000    0.000 
#    0.000    0.000    0.000    0.000    0.000    0.000 
#
# Total GULP energy -167346.568854 kJ/mol
# GULP energy per Si atom -5578.218962 kJ/mol
# Density = 2.334253 g / cm^3
# Si number density = 23.395776 Si / 1000 Ang^3
#
#
#
# Elastic Constant Matrix: (Units=GPa)
#
#
# Indices 1 2 3 4 5 6 
#
# 1 150.2267 77.5923 60.8157 0.0000 0.0000 0.0000
# 2 77.5923 150.2251 60.8147 0.0000 0.0000 0.0000
# 3 60.8157 60.8147 128.5292 0.0000 0.0000 0.0000
# 4 0.0000 0.0000 0.0000 24.8491 0.0000 0.0000
# 5 0.0000 0.0000 0.0000 0.0000 24.8500 0.0000
# 6 0.0000 0.0000 0.0000 0.0000 0.0000 4.1769
#
#
#
# Elastic Compliance Matrix: (Units=1/GPa)
#
#
# Indices 1 2 3 4 5 6 
#
# 1 0.009820 -0.003947 -0.002779 0.000000 0.000000 0.000000
# 2 -0.003947 0.009820 -0.002779 0.000000 0.000000 0.000000
# 3 -0.002779 -0.002779 0.010410 0.000000 0.000000 0.000000
# 4 0.000000 0.000000 0.000000 0.040243 0.000000 0.000000
# 5 0.000000 0.000000 0.000000 0.000000 0.040242 0.000000
# 6 0.000000 0.000000 0.000000 0.000000 0.000000 0.239415
#
#
# Mechanical properties :
#
#
# Convention : Reuss Voigt Hill
#
# Bulk Modulus (GPa) = 90.57487 91.93629 91.25558
# Shear Modulus (GPa) = 13.41775 26.09240 19.75508
#
# Velocity S-wave (km/s) = 2.39741 3.34318 2.90899
# Velocity P-wave (km/s) = 6.81628 7.36776 7.09738
#
# Compressibility (1/GPa) = 0.01104059
#
# Stress axis : x y z
#
# Youngs Moduli (GPa) = 101.82882 101.82832 96.06042
#
# Poissons Ratio (x) = 0.40195 0.26695
# Poissons Ratio (y) = 0.40195 0.26694
# Poissons Ratio (z) = 0.28298 0.28297
#
# Static dielectric constant tensor:
#      x y z
#    x 1.913510 0.000000 0.000000 
#    y 0.000000 1.913520 0.000000 
#    z 0.000000 0.000000 1.956150 
# 
# From -- ./inp_files/3079.got.cif
#   From: 2010.05.17/outbox.cif.g08.bks.cpg/sg98_2_cif.got.tgz:3079.got - 2010.06.03 20:00:51.
