data_PCOD9551399
_publ_section_title
;
Structure prediction by ZEFSAII (Michael W. Deem and Ramdas Pophale) SiO2 
 PCOD9551399
Probable space group: I 4 2 2 
;
_chemical_formula_sum "Si O2"
_cell_formula_units_Z 88
_cell_length_a 14.417409
_cell_length_b 14.417409
_cell_length_c 22.294928
_cell_angle_alpha 90.000000
_cell_angle_beta 90.000000
_cell_angle_gamma 90.000000
_cell_volume 4634.261240
_symmetry_space_group_name_H-M "I 4 2 2 "
_symmetry_group_IT_number 97
_symmetry_cell_setting 'tetragonal'
loop_
_space_group_symop_operation_xyz
x,y,z
-y,x,z
-x,-y,z
y,-x,z
x,-y,-z
-x,y,-z
y,x,-z
-y,-x,-z
1/2+x,1/2+y,1/2+z
1/2-y,1/2+x,1/2+z
1/2-x,1/2-y,1/2+z
1/2+y,1/2-x,1/2+z
1/2+x,1/2-y,1/2-z
1/2-x,1/2+y,1/2-z
1/2+y,1/2+x,1/2-z
1/2-y,1/2-x,1/2-z
loop_
_atom_site_type_symbol
_atom_site_label
_atom_site_fract_x
_atom_site_fract_y
_atom_site_fract_z
Si Si1 0.100439 0.881053 0.237301
Si Si2 0.986978 0.236519 0.432796
Si Si3 0.946570 0.409313 0.064145
Si Si4 0.861206 0.771268 0.884627
Si Si5 0.390368 0.390368 0.500000
Si Si6 0.180201 0.163727 0.636296
O O1 0.120804 0.830548 0.174840
O O2 0.155503 0.839780 0.293627
O O3 0.989441 0.874896 0.241299
O O4 0.943571 0.339779 0.441330
O O5 0.917191 0.169067 0.398381
O O6 0.000000 0.201120 0.500000
O O7 0.079716 0.238111 0.392593
O O8 0.934759 0.312443 0.100602
O O9 0.000000 0.500000 0.090784
O O10 0.000000 0.392656 0.000000
O O11 0.855888 0.839299 0.941126
O O12 0.760588 0.727835 0.877091
O O13 0.500000 0.374377 0.500000
#
# Coordination Sequence:
#
# PCOD9551399 Si02
#       6
#    16  16  16  16   8  16
#     4  11  23  45  67  89 127 179 223 279 345 398
#     4  11  22  38  65  96 129 166 210 266 337 396
#     4  10  21  40  64  96 138 176 212 267 341 412
#     4  11  25  38  67  98 132 172 227 277 338 413
#     4  11  24  42  64 102 136 169 222 286 346 413
#     4  11  24  41  63  94 130 169 222 276 329 407
#
# _framework density 18.989003
#
# number of rings (size 3 to 8) (size 9 to 14) (size 15 to 20)
#    0.000    1.182    3.636    2.727    5.091    4.727 
#    0.000    0.909    0.000    4.364    0.000    0.000 
#    0.000    0.000    0.000    0.000    0.000    0.000 
#
# Total GULP energy -245402.474371 kJ/mol
# GULP energy per Si atom -5577.328963 kJ/mol
# Density = 1.894578 g / cm^3
# Si number density = 18.989003 Si / 1000 Ang^3
#
#
#
# Elastic Constant Matrix: (Units=GPa)
#
#
# Indices 1 2 3 4 5 6 
#
# 1 56.8379 64.9329 59.0900 0.0000 0.0000 0.0000
# 2 64.9329 56.8379 59.0900 0.0000 0.0000 0.0000
# 3 59.0900 59.0900 176.3485 0.0000 0.0000 0.0000
# 4 0.0000 0.0000 0.0000 23.6658 0.0000 0.0000
# 5 0.0000 0.0000 0.0000 0.0000 23.6658 0.0000
# 6 0.0000 0.0000 0.0000 0.0000 0.0000 25.9212
#
#
#
# Elastic Compliance Matrix: (Units=1/GPa)
#
#
# Indices 1 2 3 4 5 6 
#
# 1 -0.055681 0.067851 -0.004078 0.000000 0.000000 0.000000
# 2 0.067851 -0.055681 -0.004078 0.000000 0.000000 0.000000
# 3 -0.004078 -0.004078 0.008403 0.000000 0.000000 0.000000
# 4 0.000000 0.000000 0.000000 0.042255 0.000000 0.000000
# 5 0.000000 0.000000 0.000000 0.000000 0.042255 0.000000
# 6 0.000000 0.000000 0.000000 0.000000 0.000000 0.038578
#
#
# Mechanical properties :
#
#
# Convention : Reuss Voigt Hill
#
# Bulk Modulus (GPa) = 60.85834 72.91667 66.88751
# Shear Modulus (GPa) = -53.31377 21.77799 -15.76789
#
# Velocity S-wave (km/s) = -5.30444 3.39023 -2.88474
# Velocity P-wave (km/s) = 2.32320 7.33537 4.91988
#
# Compressibility (1/GPa) = 0.01643160
#
# Stress axis : x y z
#
# Youngs Moduli (GPa) = -17.95935 -17.95935 119.00109
#
# Poissons Ratio (x) = 1.21856 0.48526
# Poissons Ratio (y) = 1.21856 0.48526
# Poissons Ratio (z) = -0.07323 -0.07323
#
# Static dielectric constant tensor:
#      x y z
#    x 1.763120 0.000000 0.000000 
#    y 0.000000 1.763120 0.000000 
#    z 0.000000 0.000000 1.746740 
# 
# From -- ./inp_files/6549.got.cif
#   From: 2010.05.17/outbox.cif.g08.bks.cpg/sg97_4_cif.got.tgz:6549.got - 2010.06.03 19:55:32.
