data_PCOD9551481
_publ_section_title
;
Structure prediction by ZEFSAII (Michael W. Deem and Ramdas Pophale) SiO2 
 PCOD9551481
Probable space group: I 4 2 2 
;
_chemical_formula_sum "Si O2"
_cell_formula_units_Z 96
_cell_length_a 15.240397
_cell_length_b 15.240397
_cell_length_c 18.932925
_cell_angle_alpha 90.000000
_cell_angle_beta 90.000000
_cell_angle_gamma 90.000000
_cell_volume 4397.544823
_symmetry_space_group_name_H-M "I 4 2 2 "
_symmetry_group_IT_number 97
_symmetry_cell_setting 'tetragonal'
loop_
_space_group_symop_operation_xyz
x,y,z
-y,x,z
-x,-y,z
y,-x,z
x,-y,-z
-x,y,-z
y,x,-z
-y,-x,-z
1/2+x,1/2+y,1/2+z
1/2-y,1/2+x,1/2+z
1/2-x,1/2-y,1/2+z
1/2+y,1/2-x,1/2+z
1/2+x,1/2-y,1/2-z
1/2-x,1/2+y,1/2-z
1/2+y,1/2+x,1/2-z
1/2-y,1/2-x,1/2-z
loop_
_atom_site_type_symbol
_atom_site_label
_atom_site_fract_x
_atom_site_fract_y
_atom_site_fract_z
Si Si1 0.104495 0.902458 0.768209
Si Si2 0.255187 0.402212 0.490213
Si Si3 0.673835 0.231993 0.347211
Si Si4 0.647502 0.802474 0.102852
Si Si5 0.897825 0.397825 0.750000
Si Si6 0.869689 0.943543 0.400765
Si Si7 0.102297 0.397704 0.750000
O O1 0.158805 0.819766 0.798933
O O2 0.122758 0.919611 0.684489
O O3 0.003817 0.880420 0.791377
O O4 0.286071 0.500000 0.500000
O O5 0.334162 0.334162 0.500000
O O6 0.228406 0.395979 0.409243
O O7 0.178306 0.372704 0.544214
O O8 0.766955 0.243986 0.382349
O O9 0.664737 0.138330 0.310837
O O10 0.578993 0.729285 0.078227
O O11 0.624165 0.845788 0.178281
O O12 0.883101 0.499320 0.735005
O O13 0.956176 0.889437 0.422913
#
# Coordination Sequence:
#
# PCOD9551481 Si02
#       7
#    16  16  16  16   8  16   8
#     4   9  19  32  56  98 133 163 207 269 340 391
#     4  10  24  43  63  92 131 174 221 268 321 396
#     4  11  23  38  64  88 127 168 217 264 325 385
#     4  11  23  40  65  94 126 178 212 265 336 394
#     4  11  25  40  60  96 125 165 220 278 314 391
#     4   9  19  36  64 103 136 158 207 279 342 398
#     4  11  25  40  62  92 129 165 220 268 330 393
#
# _framework density 21.830362999999998
#
# number of rings (size 3 to 8) (size 9 to 14) (size 15 to 20)
#    0.000    1.833    0.000    4.500   14.000    0.167 
#    0.000    0.833    3.667    3.000    0.000   10.500 
#    0.000    0.000    0.000    0.000    0.000    0.000 
#
# Total GULP energy -267563.519318 kJ/mol
# GULP energy per Si atom -5574.239986 kJ/mol
# Density = 2.178068 g / cm^3
# Si number density = 21.830363 Si / 1000 Ang^3
#
#
#
# Elastic Constant Matrix: (Units=GPa)
#
#
# Indices 1 2 3 4 5 6 
#
# 1 34.5984 40.2197 1.8708 0.0000 0.0000 0.0000
# 2 40.2197 34.5999 1.8707 0.0000 0.0000 0.0000
# 3 1.8708 1.8707 54.1821 0.0000 0.0000 0.0000
# 4 0.0000 0.0000 0.0000 0.0681 0.0000 0.0000
# 5 0.0000 0.0000 0.0000 0.0000 0.0676 0.0000
# 6 0.0000 0.0000 0.0000 0.0000 0.0000 17.7947
#
#
#
# Elastic Compliance Matrix: (Units=1/GPa)
#
#
# Indices 1 2 3 4 5 6 
#
# 1 -0.082267 0.095653 -0.000462 -0.000008 -0.000002 0.000000
# 2 0.095653 -0.082263 -0.000463 0.000007 0.000001 0.000000
# 3 -0.000462 -0.000463 0.018488 -0.000001 0.000000 0.000000
# 4 -0.000008 0.000007 -0.000001 14.692493 -0.000398 -0.000002
# 5 -0.000002 0.000001 0.000000 -0.000398 14.782130 0.000000
# 6 0.000000 0.000000 0.000000 -0.000002 0.000000 0.056196
#
#
# Mechanical properties :
#
#
# Convention : Reuss Voigt Hill
#
# Bulk Modulus (GPa) = 23.03269 23.47810 23.25539
# Shear Modulus (GPa) = 0.17118 8.88070 4.52594
#
# Velocity S-wave (km/s) = 0.28032 2.01913 1.44143
# Velocity P-wave (km/s) = 3.26779 4.02666 3.66691
#
# Compressibility (1/GPa) = 0.04341656
#
# Stress axis : x y z
#
# Youngs Moduli (GPa) = -12.15561 -12.15616 54.08856
#
# Poissons Ratio (x) = 1.16278 0.02499
# Poissons Ratio (y) = 1.16273 0.02502
# Poissons Ratio (z) = -0.00562 -0.00562
#
# Static dielectric constant tensor:
#      x y z
#    x 1.902000 0.000000 0.000000 
#    y 0.000000 1.901990 0.000000 
#    z 0.000000 0.000000 2.133390 
# 
# From -- ./inp_files/6681.got.cif
#   From: 2010.05.17/outbox.cif.g08.bks.cpg/sg97_4_cif.got.tgz:6681.got - 2010.06.03 19:55:32.
