data_PCOD9551649
_publ_section_title
;
Structure prediction by ZEFSAII (Michael W. Deem and Ramdas Pophale) SiO2 
 PCOD9551649
Probable space group: I 41 2 2
;
_chemical_formula_sum "Si O2"
_cell_formula_units_Z 48
_cell_length_a 7.776783
_cell_length_b 7.776783
_cell_length_c 32.676450
_cell_angle_alpha 90.000000
_cell_angle_beta 90.000000
_cell_angle_gamma 90.000000
_cell_volume 1976.217905
_symmetry_space_group_name_H-M "I 41 2 2"
_symmetry_group_IT_number 98
_symmetry_cell_setting 'tetragonal'
loop_
_space_group_symop_operation_xyz
x,y,z
-y,1/2+x,1/4+z
-x,-y,z
y,1/2-x,1/4+z
x,1/2-y,1/4-z
-x,1/2+y,1/4-z
y,x,-z
-y,-x,-z
1/2+x,1/2+y,1/2+z
1/2-y,x,3/4+z
1/2-x,1/2-y,1/2+z
1/2+y,-x,3/4+z
1/2+x,-y,3/4-z
1/2-x,y,3/4-z
1/2+y,1/2+x,1/2-z
1/2-y,1/2-x,1/2-z
loop_
_atom_site_type_symbol
_atom_site_label
_atom_site_fract_x
_atom_site_fract_y
_atom_site_fract_z
Si Si1 0.709315 0.991251 0.156876
Si Si2 0.287369 0.357553 0.185317
Si Si3 0.687546 0.204207 0.042262
O O1 0.781920 0.835806 0.184722
O O2 0.738872 0.936251 0.110232
O O3 0.500000 0.000000 0.160369
O O4 0.770488 0.174490 0.173118
O O5 0.490478 0.327789 0.194228
O O6 0.230879 0.515783 0.213090
O O7 0.694962 0.305039 0.000000
#
# Coordination Sequence:
#
# PCOD9551649 Si02
#       3
#    16  16  16
#     4   9  15  27  47  69 108 158 198 240 283 355
#     4   9  17  28  45  71 116 157 189 240 297 351
#     4  10  18  27  46  79 117 143 194 250 299 341
#
# _framework density 24.288820999999999
#
# number of rings (size 3 to 8) (size 9 to 14) (size 15 to 20)
#    0.000    2.667    3.333    1.000    0.000    6.000 
#    0.000    0.000    0.000    0.000    0.000   18.667 
#  120.000    0.000    0.000    0.000    0.000    0.000 
#
# Total GULP energy -133712.176574 kJ/mol
# GULP energy per Si atom -5571.340691 kJ/mol
# Density = 2.423354 g / cm^3
# Si number density = 24.288821 Si / 1000 Ang^3
#
#
#
# Elastic Constant Matrix: (Units=GPa)
#
#
# Indices 1 2 3 4 5 6 
#
# 1 77.3782 17.0424 13.2291 0.0000 0.0000 0.0000
# 2 17.0424 77.3776 13.2292 0.0000 0.0000 0.0000
# 3 13.2291 13.2292 65.3118 0.0000 0.0000 0.0000
# 4 0.0000 0.0000 0.0000 -6.5071 0.0000 0.0000
# 5 0.0000 0.0000 0.0000 0.0000 -6.5062 0.0000
# 6 0.0000 0.0000 0.0000 0.0000 0.0000 -6.9045
#
#
#
# Elastic Compliance Matrix: (Units=1/GPa)
#
#
# Indices 1 2 3 4 5 6 
#
# 1 0.013901 -0.002673 -0.002274 0.000000 0.000000 0.000000
# 2 -0.002673 0.013901 -0.002274 0.000000 0.000000 0.000000
# 3 -0.002274 -0.002274 0.016233 0.000000 0.000000 0.000000
# 4 0.000000 0.000000 0.000000 -0.153677 0.000000 0.000000
# 5 0.000000 0.000000 0.000000 0.000000 -0.153701 0.000000
# 6 0.000000 0.000000 0.000000 0.000000 0.000000 -0.144833
#
#
# Mechanical properties :
#
#
# Convention : Reuss Voigt Hill
#
# Bulk Modulus (GPa) = 33.79326 34.11880 33.95603
# Shear Modulus (GPa) = -13.02526 7.78758 -2.61884
#
# Velocity S-wave (km/s) = -2.31825 1.79254 -1.03949
# Velocity P-wave (km/s) = 2.60338 4.28508 3.54538
#
# Compressibility (1/GPa) = 0.02959170
#
# Stress axis : x y z
#
# Youngs Moduli (GPa) = 71.93700 71.93639 61.60479
#
# Poissons Ratio (x) = 0.19228 0.14011
# Poissons Ratio (y) = 0.19228 0.14011
# Poissons Ratio (z) = 0.16361 0.16361
#
# Static dielectric constant tensor:
#      x y z
#    x 1.975100 0.000000 0.000000 
#    y 0.000000 1.975100 0.000000 
#    z 0.000000 0.000000 1.963880 
# 
# From -- ./inp_files/11294.got.cif
#   From: 2010.05.17/outbox.cif.g08.bks.cpg/sg98_6_cif.got.tgz:11294.got - 2010.06.03 20:00:51.
