data_PCOD9551708
_publ_section_title
;
Structure prediction by ZEFSAII (Michael W. Deem and Ramdas Pophale) SiO2 
 PCOD9551708
Probable space group: I 41 2 2
;
_chemical_formula_sum "Si O2"
_cell_formula_units_Z 88
_cell_length_a 30.797530
_cell_length_b 30.797530
_cell_length_c 5.762978
_cell_angle_alpha 90.000000
_cell_angle_beta 90.000000
_cell_angle_gamma 90.000000
_cell_volume 5466.114636
_symmetry_space_group_name_H-M "I 41 2 2"
_symmetry_group_IT_number 98
_symmetry_cell_setting 'tetragonal'
loop_
_space_group_symop_operation_xyz
x,y,z
-y,1/2+x,1/4+z
-x,-y,z
y,1/2-x,1/4+z
x,1/2-y,1/4-z
-x,1/2+y,1/4-z
y,x,-z
-y,-x,-z
1/2+x,1/2+y,1/2+z
1/2-y,x,3/4+z
1/2-x,1/2-y,1/2+z
1/2+y,-x,3/4+z
1/2+x,-y,3/4-z
1/2-x,y,3/4-z
1/2+y,1/2+x,1/2-z
1/2-y,1/2-x,1/2-z
loop_
_atom_site_type_symbol
_atom_site_label
_atom_site_fract_x
_atom_site_fract_y
_atom_site_fract_z
Si Si1 0.480208 0.636673 0.767515
Si Si2 0.263825 0.540970 0.127405
Si Si3 0.558537 0.768720 0.877461
Si Si4 0.367905 0.064312 0.707732
Si Si5 0.070014 0.492317 0.888553
Si Si6 0.437184 0.562817 0.500000
O O1 0.466245 0.684498 0.845666
O O2 0.529396 0.637095 0.666610
O O3 0.448853 0.611660 0.583580
O O4 0.482966 0.605135 0.984267
O O5 0.250000 0.562166 0.375000
O O6 0.240557 0.493484 0.126224
O O7 0.250000 0.560348 0.875000
O O8 0.574170 0.750000 0.625000
O O9 0.567066 0.819761 0.889601
O O10 0.574619 0.750000 0.125000
O O11 0.388833 0.111168 0.750000
O O12 0.402718 0.041576 0.540971
O O13 0.035135 0.464866 0.750000
O O14 0.050529 0.529239 0.049401
#
# Coordination Sequence:
#
# PCOD9551708 Si02
#       6
#    16  16  16  16  16   8
#     4  11  21  37  50  72 101 138 180 227 276 316
#     4  10  19  33  56  75  96 129 168 228 277 323
#     4  10  19  33  53  76 101 131 165 217 279 329
#     4  11  21  34  51  78 102 135 175 225 281 330
#     4  11  22  36  50  65  99 144 187 229 266 310
#     4  10  26  35  48  70  98 142 192 230 262 318
#
# _framework density 16.099186
#
# number of rings (size 3 to 8) (size 9 to 14) (size 15 to 20)
#    0.000    1.455    5.455    2.727    2.545    2.182 
#    0.000    0.000    0.000    0.000    0.000    0.000 
#    0.000    1.455    0.000    0.000    0.000    0.000 
#
# Total GULP energy -245155.512978 kJ/mol
# GULP energy per Si atom -5571.716204 kJ/mol
# Density = 1.606254 g / cm^3
# Si number density = 16.099186 Si / 1000 Ang^3
#
#
#
# Elastic Constant Matrix: (Units=GPa)
#
#
# Indices 1 2 3 4 5 6 
#
# 1 44.9933 32.2174 11.8408 0.0000 0.0000 0.0000
# 2 32.2174 44.9917 11.8392 0.0000 0.0000 0.0000
# 3 11.8408 11.8392 102.0775 0.0000 0.0000 0.0000
# 4 0.0000 0.0000 0.0000 15.3277 0.0000 0.0000
# 5 0.0000 0.0000 0.0000 0.0000 15.3286 0.0000
# 6 0.0000 0.0000 0.0000 0.0000 0.0000 8.7287
#
#
#
# Elastic Compliance Matrix: (Units=1/GPa)
#
#
# Indices 1 2 3 4 5 6 
#
# 1 0.045853 -0.032424 -0.001558 0.000000 0.000000 0.000000
# 2 -0.032424 0.045854 -0.001557 0.000000 0.000000 0.000000
# 3 -0.001558 -0.001557 0.010158 0.000000 0.000000 0.000000
# 4 0.000000 0.000000 0.000000 0.065241 0.000000 0.000000
# 5 0.000000 0.000000 0.000000 0.000000 0.065237 0.000000
# 6 0.000000 0.000000 0.000000 0.000000 0.000000 0.114564
#
#
# Mechanical properties :
#
#
# Convention : Reuss Voigt Hill
#
# Bulk Modulus (GPa) = 32.48233 33.76193 33.12213
# Shear Modulus (GPa) = 11.67548 16.95469 14.31508
#
# Velocity S-wave (km/s) = 2.69592 3.24873 2.98515
# Velocity P-wave (km/s) = 5.46908 5.92360 5.70087
#
# Compressibility (1/GPa) = 0.03078597
#
# Stress axis : x y z
#
# Youngs Moduli (GPa) = 21.80900 21.80834 98.44625
#
# Poissons Ratio (x) = 0.70711 0.15340
# Poissons Ratio (y) = 0.70713 0.15330
# Poissons Ratio (z) = 0.03398 0.03396
#
# Static dielectric constant tensor:
#      x y z
#    x 1.533550 0.000000 0.000000 
#    y 0.000000 1.533550 0.000000 
#    z 0.000000 0.000000 1.676260 
# 
# From -- ./inp_files/1927.got.cif
#   From: 2010.05.17/outbox.cif.g08.bks.cpg/sg98_1_cif.got.tgz:1927.got - 2010.06.03 20:00:51.
