data_PCOD9551343
_publ_section_title
;
Structure prediction by ZEFSAII (Michael W. Deem and Ramdas Pophale) SiO2 
 PCOD9551343
Probable space group: I 4 2 2 
;
_chemical_formula_sum "Si O2"
_cell_formula_units_Z 116
_cell_length_a 17.956557
_cell_length_b 17.956557
_cell_length_c 17.487164
_cell_angle_alpha 90.000000
_cell_angle_beta 90.000000
_cell_angle_gamma 90.000000
_cell_volume 5638.525124
_symmetry_space_group_name_H-M "I 4 2 2 "
_symmetry_group_IT_number 97
_symmetry_cell_setting 'tetragonal'
loop_
_space_group_symop_operation_xyz
x,y,z
-y,x,z
-x,-y,z
y,-x,z
x,-y,-z
-x,y,-z
y,x,-z
-y,-x,-z
1/2+x,1/2+y,1/2+z
1/2-y,1/2+x,1/2+z
1/2-x,1/2-y,1/2+z
1/2+y,1/2-x,1/2+z
1/2+x,1/2-y,1/2-z
1/2-x,1/2+y,1/2-z
1/2+y,1/2+x,1/2-z
1/2-y,1/2-x,1/2-z
loop_
_atom_site_type_symbol
_atom_site_label
_atom_site_fract_x
_atom_site_fract_y
_atom_site_fract_z
Si Si1 0.545563 0.382880 0.872709
Si Si2 0.500000 0.000000 0.250000
Si Si3 0.307593 0.548934 0.295868
Si Si4 0.479758 0.831650 0.803883
Si Si5 0.682422 0.610932 0.343916
Si Si6 0.285693 0.805619 0.055513
Si Si7 0.135856 0.269441 0.304077
Si Si8 0.574610 0.227452 0.951907
O O1 0.593578 0.458515 0.884396
O O2 0.550983 0.352247 0.785324
O O3 0.571864 0.315141 0.927438
O O4 0.496414 0.081427 0.209274
O O5 0.220324 0.542438 0.269421
O O6 0.330125 0.616344 0.351473
O O7 0.334795 0.475432 0.340045
O O8 0.555532 0.792260 0.833492
O O9 0.422837 0.817539 0.872166
O O10 0.751542 0.623821 0.400761
O O11 0.705457 0.628353 0.256539
O O12 0.306975 0.754026 0.128514
O O13 0.223095 0.776906 0.000000
O O14 0.358639 0.801749 0.004255
O O15 0.163589 0.336412 0.250000
O O16 0.500000 0.213045 0.000000
#
# Coordination Sequence:
#
# PCOD9551343 Si02
#       8
#    16   4  16  16  16  16  16  16
#     4  10  21  36  60 103 144 172 210 269 348 427
#     4  12  24  44  70  92 124 160 238 296 348 380
#     4  10  20  37  68 100 132 167 216 281 345 410
#     4  10  22  38  65  93 125 163 220 282 338 396
#     4  10  22  40  65  97 131 170 224 279 341 404
#     4  11  25  39  62  87 129 181 222 269 324 404
#     4   9  18  39  64  87 121 167 210 273 335 397
#     4  11  24  37  61  88 133 181 222 257 338 420
#
# _framework density 20.572755999999998
#
# number of rings (size 3 to 8) (size 9 to 14) (size 15 to 20)
#    0.000    1.793    3.448    0.000    5.793    1.379 
#    1.241    1.724    3.034    0.000    0.000    0.966 
#    0.000    0.000    0.000    0.000    0.000    0.000 
#
# Total GULP energy -323018.911571 kJ/mol
# GULP energy per Si atom -5569.291579 kJ/mol
# Density = 2.052593 g / cm^3
# Si number density = 20.572756 Si / 1000 Ang^3
#
#
#
# Elastic Constant Matrix: (Units=GPa)
#
#
# Indices 1 2 3 4 5 6 
#
# 1 94.2231 30.0322 30.8922 0.0000 0.0000 0.0000
# 2 30.0322 94.2202 30.8935 0.0000 0.0000 0.0000
# 3 30.8922 30.8935 68.4385 0.0000 0.0000 0.0000
# 4 0.0000 0.0000 0.0000 19.2169 0.0000 0.0000
# 5 0.0000 0.0000 0.0000 0.0000 19.2138 0.0000
# 6 0.0000 0.0000 0.0000 0.0000 0.0000 13.3306
#
#
#
# Elastic Compliance Matrix: (Units=1/GPa)
#
#
# Indices 1 2 3 4 5 6 
#
# 1 0.012978 -0.002601 -0.004684 0.000000 0.000000 0.000000
# 2 -0.002601 0.012978 -0.004685 0.000000 0.000000 0.000000
# 3 -0.004684 -0.004685 0.018841 0.000000 0.000000 0.000000
# 4 0.000000 0.000000 0.000000 0.052037 0.000000 0.000000
# 5 0.000000 0.000000 0.000000 0.000000 0.052046 0.000000
# 6 0.000000 0.000000 0.000000 0.000000 0.000000 0.075015
#
#
# Mechanical properties :
#
#
# Convention : Reuss Voigt Hill
#
# Bulk Modulus (GPa) = 47.94300 48.94642 48.44471
# Shear Modulus (GPa) = 19.62425 21.35652 20.49038
#
# Velocity S-wave (km/s) = 3.09187 3.22545 3.15936
# Velocity P-wave (km/s) = 6.00840 6.14124 6.07519
#
# Compressibility (1/GPa) = 0.02085810
#
# Stress axis : x y z
#
# Youngs Moduli (GPa) = 77.05478 77.05092 53.07684
#
# Poissons Ratio (x) = 0.20039 0.24861
# Poissons Ratio (y) = 0.20040 0.24864
# Poissons Ratio (z) = 0.36092 0.36095
#
# Static dielectric constant tensor:
#      x y z
#    x 1.806960 0.000000 0.000000 
#    y 0.000000 1.806970 0.000000 
#    z 0.000000 0.000000 1.732800 
# 
# From -- ./inp_files/5915.got.cif
#   From: 2010.05.17/outbox.cif.g08.bks.cpg/sg97_3_cif.got.tgz:5915.got - 2010.06.03 19:55:32.
