data_PCOD9551521
_publ_section_title
;
Structure prediction by ZEFSAII (Michael W. Deem and Ramdas Pophale) SiO2 
 PCOD9551521
Probable space group: I 4 2 2 
;
_chemical_formula_sum "Si O2"
_cell_formula_units_Z 60
_cell_length_a 11.762331
_cell_length_b 11.762331
_cell_length_c 20.522304
_cell_angle_alpha 90.000000
_cell_angle_beta 90.000000
_cell_angle_gamma 90.000000
_cell_volume 2839.310639
_symmetry_space_group_name_H-M "I 4 2 2 "
_symmetry_group_IT_number 97
_symmetry_cell_setting 'tetragonal'
loop_
_space_group_symop_operation_xyz
x,y,z
-y,x,z
-x,-y,z
y,-x,z
x,-y,-z
-x,y,-z
y,x,-z
-y,-x,-z
1/2+x,1/2+y,1/2+z
1/2-y,1/2+x,1/2+z
1/2-x,1/2-y,1/2+z
1/2+y,1/2-x,1/2+z
1/2+x,1/2-y,1/2-z
1/2-x,1/2+y,1/2-z
1/2+y,1/2+x,1/2-z
1/2-y,1/2-x,1/2-z
loop_
_atom_site_type_symbol
_atom_site_label
_atom_site_fract_x
_atom_site_fract_y
_atom_site_fract_z
Si Si1 0.834168 0.924677 0.211177
Si Si2 0.493014 0.775980 0.160913
Si Si3 0.763149 0.719581 0.882035
Si Si4 0.500000 0.000000 0.750000
Si Si5 0.636138 0.636138 0.500000
O O1 0.737145 0.851087 0.178338
O O2 0.946345 0.855548 0.189786
O O3 0.813348 0.950339 0.287411
O O4 0.365732 0.750631 0.137568
O O5 0.585399 0.775054 0.103216
O O6 0.490746 0.891245 0.202903
O O7 0.808999 0.801292 0.938113
O O8 0.500000 0.654834 0.500000
#
# Coordination Sequence:
#
# PCOD9551521 Si02
#       5
#    16  16  16   4   8
#     4  11  21  40  67  98 139 186 228 283 351 419
#     4  12  25  40  67 105 149 185 229 293 364 429
#     4  12  26  46  68 104 143 189 241 294 351 427
#     4  12  24  36  64 114 148 180 228 292 370 432
#     4  11  28  54  78  99 130 190 248 293 348 430
#
# _framework density 21.131891
#
# number of rings (size 3 to 8) (size 9 to 14) (size 15 to 20)
#    0.000    0.400    5.333    3.200    3.733    3.733 
#    0.000    1.333    0.000    1.600    0.000    0.000 
#    0.000    0.000    0.000    0.000    0.000    0.000 
#
# Total GULP energy -167363.078139 kJ/mol
# GULP energy per Si atom -5578.769271 kJ/mol
# Density = 2.108379 g / cm^3
# Si number density = 21.131891 Si / 1000 Ang^3
#
#
#
# Elastic Constant Matrix: (Units=GPa)
#
#
# Indices 1 2 3 4 5 6 
#
# 1 -4318.2432 4558.0689 56.2214 0.0000 0.0000 0.0000
# 2 4558.0689-4318.2432 56.2214 0.0000 0.0000 0.0000
# 3 56.2214 56.2214 96.3595 0.0000 0.0000 0.0000
# 4 0.0000 0.0000 0.0000 32.4165 0.0000 0.0000
# 5 0.0000 0.0000 0.0000 0.0000 32.4165 0.0000
# 6 0.0000 0.0000 0.0000 0.0000 0.0000 22.6310
#
#
#
# Elastic Compliance Matrix: (Units=1/GPa)
#
#
# Indices 1 2 3 4 5 6 
#
# 1 0.002814 0.002926 -0.003349 0.000000 0.000000 0.000000
# 2 0.002926 0.002814 -0.003349 0.000000 0.000000 0.000000
# 3 -0.003349 -0.003349 0.014286 0.000000 0.000000 0.000000
# 4 0.000000 0.000000 0.000000 0.030848 0.000000 0.000000
# 5 0.000000 0.000000 0.000000 0.000000 0.030848 0.000000
# 6 0.000000 0.000000 0.000000 0.000000 0.000000 0.044187
#
#
# Mechanical properties :
#
#
# Convention : Reuss Voigt Hill
#
# Bulk Modulus (GPa) = 80.84302 88.98847 84.91575
# Shear Modulus (GPa) = 36.37331 -863.21641 -413.42155
#
# Velocity S-wave (km/s) = 4.15330 -20.23306 -14.00226
# Velocity P-wave (km/s) = 7.83194 22.44177 14.87101
#
# Compressibility (1/GPa) = 0.01236965
#
# Stress axis : x y z
#
# Youngs Moduli (GPa) = 355.41695 355.41695 70.00003
#
# Poissons Ratio (x) = -1.04004 0.23443
# Poissons Ratio (y) = -1.04004 0.23443
# Poissons Ratio (z) = 1.19027 1.19027
#
# Static dielectric constant tensor:
#      x y z
#    x 1.808190 0.000000 0.000000 
#    y 0.000000 1.808190 0.000000 
#    z 0.000000 0.000000 1.825610 
# 
# From -- ./inp_files/6348.got.cif
#   From: 2010.05.17/outbox.cif.g08.bks.cpg/sg97_4_cif.got.tgz:6348.got - 2010.06.03 19:55:32.
