data_PCOD9551556
_publ_section_title
;
Structure prediction by ZEFSAII (Michael W. Deem and Ramdas Pophale) SiO2 
 PCOD9551556
Probable space group: I 4 2 2 
;
_chemical_formula_sum "Si O2"
_cell_formula_units_Z 48
_cell_length_a 14.333980
_cell_length_b 14.333980
_cell_length_c 11.176830
_cell_angle_alpha 90.000000
_cell_angle_beta 90.000000
_cell_angle_gamma 90.000000
_cell_volume 2296.424828
_symmetry_space_group_name_H-M "I 4 2 2 "
_symmetry_group_IT_number 97
_symmetry_cell_setting 'tetragonal'
loop_
_space_group_symop_operation_xyz
x,y,z
-y,x,z
-x,-y,z
y,-x,z
x,-y,-z
-x,y,-z
y,x,-z
-y,-x,-z
1/2+x,1/2+y,1/2+z
1/2-y,1/2+x,1/2+z
1/2-x,1/2-y,1/2+z
1/2+y,1/2-x,1/2+z
1/2+x,1/2-y,1/2-z
1/2-x,1/2+y,1/2-z
1/2+y,1/2+x,1/2-z
1/2-y,1/2-x,1/2-z
loop_
_atom_site_type_symbol
_atom_site_label
_atom_site_fract_x
_atom_site_fract_y
_atom_site_fract_z
Si Si1 0.098855 0.347581 0.940718
Si Si2 0.741608 0.055068 0.696661
Si Si3 0.758745 0.841331 0.640366
O O1 0.081172 0.269992 0.836741
O O2 0.140892 0.433676 0.866550
O O3 0.178891 0.325756 0.038727
O O4 0.000000 0.365792 0.000000
O O5 0.803920 0.134735 0.633329
O O6 0.769311 0.950048 0.671625
O O7 0.714978 0.785023 0.750000
#
# Coordination Sequence:
#
# PCOD9551556 Si02
#       3
#    16  16  16
#     4  11  23  43  67 102 135 174 226 283 339 401
#     4  11  26  43  70 103 133 187 227 280 346 407
#     4  12  24  44  70  98 139 177 229 283 341 409
#
# _framework density 20.902056000000002
#
# number of rings (size 3 to 8) (size 9 to 14) (size 15 to 20)
#    0.000    0.667    6.667    2.000    0.000    3.333 
#    0.000    0.000    0.000    4.000    0.000    0.000 
#    0.000    0.000    0.000    0.000    0.000    0.000 
#
# Total GULP energy -133817.652629 kJ/mol
# GULP energy per Si atom -5575.735526 kJ/mol
# Density = 2.085448 g / cm^3
# Si number density = 20.902056 Si / 1000 Ang^3
#
#
#
# Elastic Constant Matrix: (Units=GPa)
#
#
# Indices 1 2 3 4 5 6 
#
# 1 150.6424 86.1098 40.9735 0.0000 0.0000 0.0000
# 2 86.1098 150.6428 40.9721 0.0000 0.0000 0.0000
# 3 40.9735 40.9721 81.1899 0.0000 0.0000 0.0000
# 4 0.0000 0.0000 0.0000 26.7858 0.0000 0.0000
# 5 0.0000 0.0000 0.0000 0.0000 26.7857 0.0000
# 6 0.0000 0.0000 0.0000 0.0000 0.0000 15.9588
#
#
#
# Elastic Compliance Matrix: (Units=1/GPa)
#
#
# Indices 1 2 3 4 5 6 
#
# 1 0.010307 -0.005189 -0.002583 0.000000 0.000000 0.000000
# 2 -0.005189 0.010307 -0.002583 0.000000 0.000000 0.000000
# 3 -0.002583 -0.002583 0.014924 0.000000 0.000000 0.000000
# 4 0.000000 0.000000 0.000000 0.037333 0.000000 0.000000
# 5 0.000000 0.000000 0.000000 0.000000 0.037333 0.000000
# 6 0.000000 0.000000 0.000000 0.000000 0.000000 0.062661
#
#
# Mechanical properties :
#
#
# Convention : Reuss Voigt Hill
#
# Bulk Modulus (GPa) = 67.43877 79.84289 73.64083
# Shear Modulus (GPa) = 25.18675 28.20070 26.69373
#
# Velocity S-wave (km/s) = 3.47506 3.67711 3.57751
# Velocity P-wave (km/s) = 6.95957 7.50398 7.23689
#
# Compressibility (1/GPa) = 0.01482827
#
# Stress axis : x y z
#
# Youngs Moduli (GPa) = 97.02192 97.02329 67.00816
#
# Poissons Ratio (x) = 0.50347 0.17307
# Poissons Ratio (y) = 0.50346 0.17305
# Poissons Ratio (z) = 0.25060 0.25057
#
# Static dielectric constant tensor:
#      x y z
#    x 1.739110 0.000000 0.000000 
#    y 0.000000 1.739110 0.000000 
#    z 0.000000 0.000000 1.886830 
# 
# From -- ./inp_files/3050.got.cif
#   From: 2010.05.17/outbox.cif.g08.bks.cpg/sg97_2_cif.got.tgz:3050.got - 2010.06.03 19:55:32.
