data_PCOD9551529
_publ_section_title
;
Structure prediction by ZEFSAII (Michael W. Deem and Ramdas Pophale) SiO2 
 PCOD9551529
Probable space group: I 4 2 2 
;
_chemical_formula_sum "Si O2"
_cell_formula_units_Z 88
_cell_length_a 17.716866
_cell_length_b 17.716866
_cell_length_c 14.864669
_cell_angle_alpha 90.000000
_cell_angle_beta 90.000000
_cell_angle_gamma 90.000000
_cell_volume 4665.831425
_symmetry_space_group_name_H-M "I 4 2 2 "
_symmetry_group_IT_number 97
_symmetry_cell_setting 'tetragonal'
loop_
_space_group_symop_operation_xyz
x,y,z
-y,x,z
-x,-y,z
y,-x,z
x,-y,-z
-x,y,-z
y,x,-z
-y,-x,-z
1/2+x,1/2+y,1/2+z
1/2-y,1/2+x,1/2+z
1/2-x,1/2-y,1/2+z
1/2+y,1/2-x,1/2+z
1/2+x,1/2-y,1/2-z
1/2-x,1/2+y,1/2-z
1/2+y,1/2+x,1/2-z
1/2-y,1/2-x,1/2-z
loop_
_atom_site_type_symbol
_atom_site_label
_atom_site_fract_x
_atom_site_fract_y
_atom_site_fract_z
Si Si1 0.225380 0.622086 0.187094
Si Si2 0.269049 0.192827 0.655077
Si Si3 0.500000 0.841178 0.500000
Si Si4 0.515369 0.728311 0.331988
Si Si5 0.411211 0.837560 0.007263
Si Si6 0.659169 0.641149 0.395037
O O1 0.166141 0.666141 0.250000
O O2 0.295695 0.680759 0.178290
O O3 0.239629 0.541016 0.234599
O O4 0.191623 0.618015 0.088303
O O5 0.312874 0.187127 0.750000
O O6 0.289727 0.127227 0.586714
O O7 0.300034 0.271378 0.612893
O O8 0.516792 0.790192 0.412071
O O9 0.575181 0.888203 0.519617
O O10 0.584338 0.671878 0.349366
O O11 0.435676 0.687701 0.348466
O O12 0.500000 0.829900 0.000000
O O13 0.636903 0.636903 0.500000
#
# Coordination Sequence:
#
# PCOD9551529 Si02
#       6
#    16  16   8  16  16  16
#     4  11  22  41  65  91 122 171 224 271 323 400
#     4  11  22  41  68  93 123 172 236 267 325 403
#     4  12  21  42  60  91 128 172 220 264 339 396
#     4  12  23  37  65  93 131 165 215 274 337 406
#     4  12  26  39  63  94 131 171 218 276 334 402
#     4  12  21  38  64  95 126 167 210 275 339 397
#
# _framework density 18.860519
#
# number of rings (size 3 to 8) (size 9 to 14) (size 15 to 20)
#    0.000    0.364    9.091    1.909    2.545    0.364 
#    0.000    0.909    0.000    0.000    0.000    0.000 
#    0.000    1.455    0.000    0.000    0.000    0.000 
#
# Total GULP energy -245674.615738 kJ/mol
# GULP energy per Si atom -5583.513994 kJ/mol
# Density = 1.881759 g / cm^3
# Si number density = 18.860519 Si / 1000 Ang^3
#
#
#
# Elastic Constant Matrix: (Units=GPa)
#
#
# Indices 1 2 3 4 5 6 
#
# 1 96.7599 39.3714 45.2727 0.0000 0.0000 0.0000
# 2 39.3714 96.7597 45.2727 0.0000 0.0000 0.0000
# 3 45.2727 45.2727 139.3508 0.0000 0.0000 0.0000
# 4 0.0000 0.0000 0.0000 31.7038 0.0000 0.0000
# 5 0.0000 0.0000 0.0000 0.0000 31.7038 0.0000
# 6 0.0000 0.0000 0.0000 0.0000 0.0000 21.0194
#
#
#
# Elastic Compliance Matrix: (Units=1/GPa)
#
#
# Indices 1 2 3 4 5 6 
#
# 1 0.013398 -0.004027 -0.003044 0.000000 0.000000 0.000000
# 2 -0.004027 0.013398 -0.003044 0.000000 0.000000 0.000000
# 3 -0.003044 -0.003044 0.009154 0.000000 0.000000 0.000000
# 4 0.000000 0.000000 0.000000 0.031542 0.000000 0.000000
# 5 0.000000 0.000000 0.000000 0.000000 0.031542 0.000000
# 6 0.000000 0.000000 0.000000 0.000000 0.000000 0.047575
#
#
# Mechanical properties :
#
#
# Convention : Reuss Voigt Hill
#
# Bulk Modulus (GPa) = 63.62040 65.85601 64.73821
# Shear Modulus (GPa) = 29.05614 30.41564 29.73589
#
# Velocity S-wave (km/s) = 3.92928 4.02015 3.97498
# Velocity P-wave (km/s) = 7.37502 7.51944 7.44758
#
# Compressibility (1/GPa) = 0.01571823
#
# Stress axis : x y z
#
# Youngs Moduli (GPa) = 74.63834 74.63805 109.23840
#
# Poissons Ratio (x) = 0.30058 0.33257
# Poissons Ratio (y) = 0.30058 0.33257
# Poissons Ratio (z) = 0.22723 0.22723
#
# Static dielectric constant tensor:
#      x y z
#    x 1.665890 0.000000 0.000000 
#    y 0.000000 1.665890 0.000000 
#    z 0.000000 0.000000 1.667520 
# 
# From -- ./inp_files/4866.got.cif
#   From: 2010.05.17/outbox.cif.g08.bks.cpg/sg97_3_cif.got.tgz:4866.got - 2010.06.03 19:55:32.
