data_PCOD9551868
_publ_section_title
;
Structure prediction by ZEFSAII (Michael W. Deem and Ramdas Pophale) SiO2 
 PCOD9551868
Probable space group: I 41 2 2
;
_chemical_formula_sum "Si O2"
_cell_formula_units_Z 72
_cell_length_a 19.857507
_cell_length_b 19.857507
_cell_length_c 8.586364
_cell_angle_alpha 90.000000
_cell_angle_beta 90.000000
_cell_angle_gamma 90.000000
_cell_volume 3385.780069
_symmetry_space_group_name_H-M "I 41 2 2"
_symmetry_group_IT_number 98
_symmetry_cell_setting 'tetragonal'
loop_
_space_group_symop_operation_xyz
x,y,z
-y,1/2+x,1/4+z
-x,-y,z
y,1/2-x,1/4+z
x,1/2-y,1/4-z
-x,1/2+y,1/4-z
y,x,-z
-y,-x,-z
1/2+x,1/2+y,1/2+z
1/2-y,x,3/4+z
1/2-x,1/2-y,1/2+z
1/2+y,-x,3/4+z
1/2+x,-y,3/4-z
1/2-x,y,3/4-z
1/2+y,1/2+x,1/2-z
1/2-y,1/2-x,1/2-z
loop_
_atom_site_type_symbol
_atom_site_label
_atom_site_fract_x
_atom_site_fract_y
_atom_site_fract_z
Si Si1 0.410682 0.158957 0.384879
Si Si2 0.534203 0.572076 0.339042
Si Si3 0.199683 0.934642 0.600122
Si Si4 0.155427 0.906272 0.244950
Si Si5 0.666709 0.750000 0.625000
O O1 0.354919 0.145082 0.250000
O O2 0.423442 0.083497 0.444387
O O3 0.483511 0.194195 0.355954
O O4 0.377792 0.199408 0.524828
O O5 0.500000 0.500000 0.334058
O O6 0.575218 0.575218 0.500000
O O7 0.473102 0.623356 0.327742
O O8 0.172814 0.920106 0.425830
O O9 0.154141 0.898937 0.734237
O O10 0.273886 0.900572 0.596641
O O11 0.711013 0.788988 0.750000
#
# Coordination Sequence:
#
# PCOD9551868 Si02
#       5
#    16  16  16  16   8
#     4  12  25  43  74 103 136 185 238 297 357 426
#     4  11  23  40  66 102 144 177 231 302 357 412
#     4  10  22  39  70 103 136 183 238 295 354 426
#     4  10  21  41  67 101 140 183 238 293 354 430
#     4  12  30  50  68  98 146 188 230 278 354 446
#
# _framework density 21.265408000000001
#
# number of rings (size 3 to 8) (size 9 to 14) (size 15 to 20)
#    0.000    1.111    4.444    1.333    6.222    0.444 
#    0.000    0.000    0.000   32.000    0.000    0.000 
#    0.000    0.000    0.000    0.000    0.000    0.000 
#
# Total GULP energy -200807.785628 kJ/mol
# GULP energy per Si atom -5577.994045 kJ/mol
# Density = 2.121701 g / cm^3
# Si number density = 21.265408 Si / 1000 Ang^3
#
#
#
# Elastic Constant Matrix: (Units=GPa)
#
#
# Indices 1 2 3 4 5 6 
#
# 1 70.4960 61.8891 33.7144 0.0000 0.0000 0.0000
# 2 61.8891 70.4897 33.7250 0.0000 0.0000 0.0000
# 3 33.7144 33.7250 74.9355 0.0000 0.0000 0.0000
# 4 0.0000 0.0000 0.0000 16.2118 0.0000 0.0000
# 5 0.0000 0.0000 0.0000 0.0000 16.2112 0.0000
# 6 0.0000 0.0000 0.0000 0.0000 0.0000 15.6643
#
#
#
# Elastic Compliance Matrix: (Units=1/GPa)
#
#
# Indices 1 2 3 4 5 6 
#
# 1 0.063005 -0.053214 -0.004398 0.000000 0.000000 0.000000
# 2 -0.053214 0.063023 -0.004422 0.000000 0.000000 0.000000
# 3 -0.004398 -0.004422 0.017314 0.000000 0.000000 0.000000
# 4 0.000000 0.000000 0.000000 0.061683 0.000000 0.000000
# 5 0.000000 0.000000 0.000000 0.000000 0.061686 0.000000
# 6 0.000000 0.000000 0.000000 0.000000 0.000000 0.063840
#
#
# Mechanical properties :
#
#
# Convention : Reuss Voigt Hill
#
# Bulk Modulus (GPa) = 51.88201 52.73089 52.30645
# Shear Modulus (GPa) = 10.84495 15.39031 13.11763
#
# Velocity S-wave (km/s) = 2.26073 2.69313 2.48635
# Velocity P-wave (km/s) = 5.59150 5.87546 5.73524
#
# Compressibility (1/GPa) = 0.01927450
#
# Stress axis : x y z
#
# Youngs Moduli (GPa) = 15.87168 15.86713 57.75765
#
# Poissons Ratio (x) = 0.84435 0.25401
# Poissons Ratio (y) = 0.84459 0.25542
# Poissons Ratio (z) = 0.06980 0.07017
#
# Static dielectric constant tensor:
#      x y z
#    x 1.812740 0.000000 0.000000 
#    y 0.000000 1.812740 0.000000 
#    z 0.000000 0.000000 1.691850 
# 
# From -- ./inp_files/3387.got.cif
#   From: 2010.05.17/outbox.cif.g08.bks.cpg/sg98_2_cif.got.tgz:3387.got - 2010.06.03 20:00:51.
