data_PCOD9551904
_publ_section_title
;
Structure prediction by ZEFSAII (Michael W. Deem and Ramdas Pophale) SiO2 
 PCOD9551904
Probable space group: I 41 2 2
;
_chemical_formula_sum "Si O2"
_cell_formula_units_Z 72
_cell_length_a 18.013439
_cell_length_b 18.013439
_cell_length_c 10.408420
_cell_angle_alpha 90.000000
_cell_angle_beta 90.000000
_cell_angle_gamma 90.000000
_cell_volume 3377.365595
_symmetry_space_group_name_H-M "I 41 2 2"
_symmetry_group_IT_number 98
_symmetry_cell_setting 'tetragonal'
loop_
_space_group_symop_operation_xyz
x,y,z
-y,1/2+x,1/4+z
-x,-y,z
y,1/2-x,1/4+z
x,1/2-y,1/4-z
-x,1/2+y,1/4-z
y,x,-z
-y,-x,-z
1/2+x,1/2+y,1/2+z
1/2-y,x,3/4+z
1/2-x,1/2-y,1/2+z
1/2+y,-x,3/4+z
1/2+x,-y,3/4-z
1/2-x,y,3/4-z
1/2+y,1/2+x,1/2-z
1/2-y,1/2-x,1/2-z
loop_
_atom_site_type_symbol
_atom_site_label
_atom_site_fract_x
_atom_site_fract_y
_atom_site_fract_z
Si Si1 0.832014 0.412642 0.365758
Si Si2 0.057689 0.182054 0.526729
Si Si3 0.293012 0.293012 0.500000
Si Si4 0.538266 0.799113 0.821900
Si Si5 0.585645 0.024325 0.474640
O O1 0.750000 0.379417 0.375000
O O2 0.871630 0.371630 0.250000
O O3 0.818044 0.494040 0.307039
O O4 0.889421 0.410104 0.483103
O O5 0.076976 0.250000 0.625000
O O6 0.129287 0.129287 0.500000
O O7 0.021233 0.224575 0.404611
O O8 0.997861 0.128627 0.595366
O O9 0.269337 0.250000 0.625000
O O10 0.378487 0.284618 0.467445
O O11 0.522412 0.868913 0.916223
O O12 0.500000 0.000000 0.470453
#
# Coordination Sequence:
#
# PCOD9551904 Si02
#       5
#    16  16   8  16  16
#     4  10  22  43  67  91 125 169 227 295 359 432
#     4  10  24  41  64 100 147 188 237 301 369 447
#     4  12  28  38  63  96 136 196 243 288 352 436
#     4  10  23  41  64  94 136 183 236 297 353 434
#     4  10  22  41  69  98 131 181 239 298 363 435
#
# _framework density 21.318390999999998
#
# number of rings (size 3 to 8) (size 9 to 14) (size 15 to 20)
#    0.000    1.778    0.000    2.000   10.889    3.556 
#    0.000    5.556    0.000    0.000    0.000    0.000 
#    0.000    0.000    0.000    0.000    0.000    0.000 
#
# Total GULP energy -200960.890187 kJ/mol
# GULP energy per Si atom -5582.246950 kJ/mol
# Density = 2.126987 g / cm^3
# Si number density = 21.318391 Si / 1000 Ang^3
#
#
#
# Elastic Constant Matrix: (Units=GPa)
#
#
# Indices 1 2 3 4 5 6 
#
# 1 189.6710 4.3069 54.0043 0.0000 0.0000 0.0000
# 2 4.3069 189.6710 54.0043 0.0000 0.0000 0.0000
# 3 54.0043 54.0043 79.6532 0.0000 0.0000 0.0000
# 4 0.0000 0.0000 0.0000 29.3239 0.0000 0.0000
# 5 0.0000 0.0000 0.0000 0.0000 29.3239 0.0000
# 6 0.0000 0.0000 0.0000 0.0000 0.0000 35.7094
#
#
#
# Elastic Compliance Matrix: (Units=1/GPa)
#
#
# Indices 1 2 3 4 5 6 
#
# 1 0.006838 0.001443 -0.005615 0.000000 0.000000 0.000000
# 2 0.001443 0.006838 -0.005615 0.000000 0.000000 0.000000
# 3 -0.005615 -0.005615 0.020168 0.000000 0.000000 0.000000
# 4 0.000000 0.000000 0.000000 0.034102 0.000000 0.000000
# 5 0.000000 0.000000 0.000000 0.000000 0.034102 0.000000
# 6 0.000000 0.000000 0.000000 0.000000 0.000000 0.028004
#
#
# Mechanical properties :
#
#
# Convention : Reuss Voigt Hill
#
# Bulk Modulus (GPa) = 70.06803 75.95848 73.01325
# Shear Modulus (GPa) = 32.38715 41.98342 37.18528
#
# Velocity S-wave (km/s) = 3.90194 4.44255 4.18099
# Velocity P-wave (km/s) = 7.29650 7.87546 7.59150
#
# Compressibility (1/GPa) = 0.01427184
#
# Stress axis : x y z
#
# Youngs Moduli (GPa) = 146.23690 146.23690 49.58316
#
# Poissons Ratio (x) = -0.21108 0.27840
# Poissons Ratio (y) = -0.21108 0.27840
# Poissons Ratio (z) = 0.82111 0.82111
#
# Static dielectric constant tensor:
#      x y z
#    x 1.701930 0.000000 0.000000 
#    y 0.000000 1.701930 0.000000 
#    z 0.000000 0.000000 1.875310 
# 
# From -- ./inp_files/4977.got.cif
#   From: 2010.05.17/outbox.cif.g08.bks.cpg/sg98_3_cif.got.tgz:4977.got - 2010.06.03 20:00:51.
