data_PCOD9551438
_publ_section_title
;
Structure prediction by ZEFSAII (Michael W. Deem and Ramdas Pophale) SiO2 
 PCOD9551438
Probable space group: I 4 2 2 
;
_chemical_formula_sum "Si O2"
_cell_formula_units_Z 72
_cell_length_a 10.664108
_cell_length_b 10.664108
_cell_length_c 32.817004
_cell_angle_alpha 90.000000
_cell_angle_beta 90.000000
_cell_angle_gamma 90.000000
_cell_volume 3732.054691
_symmetry_space_group_name_H-M "I 4 2 2 "
_symmetry_group_IT_number 97
_symmetry_cell_setting 'tetragonal'
loop_
_space_group_symop_operation_xyz
x,y,z
-y,x,z
-x,-y,z
y,-x,z
x,-y,-z
-x,y,-z
y,x,-z
-y,-x,-z
1/2+x,1/2+y,1/2+z
1/2-y,1/2+x,1/2+z
1/2-x,1/2-y,1/2+z
1/2+y,1/2-x,1/2+z
1/2+x,1/2-y,1/2-z
1/2-x,1/2+y,1/2-z
1/2+y,1/2+x,1/2-z
1/2-y,1/2-x,1/2-z
loop_
_atom_site_type_symbol
_atom_site_label
_atom_site_fract_x
_atom_site_fract_y
_atom_site_fract_z
Si Si1 0.412999 0.689222 0.875430
Si Si2 0.139329 0.546525 0.418265
Si Si3 0.500000 0.708506 0.500000
Si Si4 0.774769 0.277613 0.201563
Si Si5 0.031987 0.649706 0.831353
O O1 0.338830 0.559609 0.883493
O O2 0.366948 0.808913 0.901877
O O3 0.389184 0.721618 0.827525
O O4 0.214632 0.516718 0.458608
O O5 0.182366 0.466132 0.379117
O O6 0.000000 0.500000 0.426550
O O7 0.379382 0.620619 0.500000
O O8 0.784406 0.284406 0.250000
O O9 0.689983 0.159138 0.189838
O O10 0.918362 0.271095 0.187174
O O11 0.000000 0.500000 0.827659
#
# Coordination Sequence:
#
# PCOD9551438 Si02
#       5
#    16  16   8  16  16
#     4  10  22  41  68  98 131 177 225 279 333 399
#     4  10  22  43  70  95 126 172 219 268 339 401
#     4  11  27  42  66 100 131 169 210 270 326 405
#     4  11  24  37  63  94 132 177 225 278 334 398
#     4  10  24  42  65  92 130 179 222 278 337 398
#
# _framework density 19.292323
#
# number of rings (size 3 to 8) (size 9 to 14) (size 15 to 20)
#    0.000    1.667    0.000    4.333   15.556    0.444 
#    0.000    0.000    0.000    0.000    0.000    0.000 
#    0.000    0.000    0.000    0.000    0.000    0.000 
#
# Total GULP energy -200822.811970 kJ/mol
# GULP energy per Si atom -5578.411444 kJ/mol
# Density = 1.924841 g / cm^3
# Si number density = 19.292323 Si / 1000 Ang^3
#
#
#
# Elastic Constant Matrix: (Units=GPa)
#
#
# Indices 1 2 3 4 5 6 
#
# 1 75.6419 46.5879 64.0121 0.0000 0.0000 0.0000
# 2 46.5879 75.6420 64.0122 0.0000 0.0000 0.0000
# 3 64.0121 64.0122 186.9770 0.0000 0.0000 0.0000
# 4 0.0000 0.0000 0.0000 0.5402 0.0000 0.0000
# 5 0.0000 0.0000 0.0000 0.0000 0.5423 0.0000
# 6 0.0000 0.0000 0.0000 0.0000 0.0000 31.2988
#
#
#
# Elastic Compliance Matrix: (Units=1/GPa)
#
#
# Indices 1 2 3 4 5 6 
#
# 1 0.023587 -0.010832 -0.004367 0.000000 0.000000 0.000000
# 2 -0.010832 0.023587 -0.004367 0.000000 0.000000 0.000000
# 3 -0.004367 -0.004367 0.008338 0.000000 0.000000 0.000000
# 4 0.000000 0.000000 0.000000 1.851180 0.000004 0.000000
# 5 0.000000 0.000000 0.000000 0.000004 1.844006 0.000000
# 6 0.000000 0.000000 0.000000 0.000000 0.000000 0.031950
#
#
# Mechanical properties :
#
#
# Convention : Reuss Voigt Hill
#
# Bulk Modulus (GPa) = 61.04504 76.38726 68.71615
# Shear Modulus (GPa) = 1.30642 17.38618 9.34630
#
# Velocity S-wave (km/s) = 0.82380 3.00525 2.20343
# Velocity P-wave (km/s) = 5.71101 7.19184 6.49378
#
# Compressibility (1/GPa) = 0.01638135
#
# Stress axis : x y z
#
# Youngs Moduli (GPa) = 42.39654 42.39657 119.93028
#
# Poissons Ratio (x) = 0.45923 0.52370
# Poissons Ratio (y) = 0.45923 0.52370
# Poissons Ratio (z) = 0.18513 0.18513
#
# Static dielectric constant tensor:
#      x y z
#    x 1.703500 0.000000 0.000000 
#    y 0.000000 1.703500 0.000000 
#    z 0.000000 0.000000 1.777590 
# 
# From -- ./inp_files/7584.got.cif
#   From: 2010.05.17/outbox.cif.g08.bks.cpg/sg97_4_cif.got.tgz:7584.got - 2010.06.03 19:55:32.
