data_PCOD9551669
_publ_section_title
;
Structure prediction by ZEFSAII (Michael W. Deem and Ramdas Pophale) SiO2 
 PCOD9551669
Probable space group: I 41 2 2
;
_chemical_formula_sum "Si O2"
_cell_formula_units_Z 72
_cell_length_a 27.939439
_cell_length_b 27.939439
_cell_length_c 5.166637
_cell_angle_alpha 90.000000
_cell_angle_beta 90.000000
_cell_angle_gamma 90.000000
_cell_volume 4033.140142
_symmetry_space_group_name_H-M "I 41 2 2"
_symmetry_group_IT_number 98
_symmetry_cell_setting 'tetragonal'
loop_
_space_group_symop_operation_xyz
x,y,z
-y,1/2+x,1/4+z
-x,-y,z
y,1/2-x,1/4+z
x,1/2-y,1/4-z
-x,1/2+y,1/4-z
y,x,-z
-y,-x,-z
1/2+x,1/2+y,1/2+z
1/2-y,x,3/4+z
1/2-x,1/2-y,1/2+z
1/2+y,-x,3/4+z
1/2+x,-y,3/4-z
1/2-x,y,3/4-z
1/2+y,1/2+x,1/2-z
1/2-y,1/2-x,1/2-z
loop_
_atom_site_type_symbol
_atom_site_label
_atom_site_fract_x
_atom_site_fract_y
_atom_site_fract_z
Si Si1 0.823505 0.750000 0.625000
Si Si2 0.803079 0.348023 0.491776
Si Si3 0.382341 0.335907 0.258508
Si Si4 0.458364 0.806397 0.592315
Si Si5 0.808322 0.509529 0.902665
O O1 0.788009 0.711992 0.750000
O O2 0.857630 0.783518 0.797438
O O3 0.750000 0.337337 0.375000
O O4 0.836253 0.336253 0.250000
O O5 0.808145 0.404965 0.524764
O O6 0.818630 0.318630 0.750000
O O7 0.368257 0.368257 0.500000
O O8 0.438414 0.326703 0.229059
O O9 0.360173 0.360173 0.000000
O O10 0.467910 0.750000 0.625000
O O11 0.493789 0.826849 0.377928
O O12 0.470767 0.824007 0.880023
O O13 0.750000 0.510802 0.875000
#
# Coordination Sequence:
#
# PCOD9551669 Si02
#       5
#     8  16  16  16  16
#     4  10  20  34  46  66  98 148 186 222 262 314
#     4  11  22  37  56  84 119 155 186 214 244 290
#     4  11  22  33  49  72 101 135 182 230 274 333
#     4   9  19  33  55  75 102 138 178 221 266 312
#     4  10  18  34  51  73  99 135 177 225 285 322
#
# _framework density 17.852096
#
# number of rings (size 3 to 8) (size 9 to 14) (size 15 to 20)
#    0.000    1.778    1.111    4.000    0.000    7.111 
#    0.000    0.000    0.000    0.000    0.000    0.000 
#    0.000   62.222    0.000    0.000    0.000    0.000 
#
# Total GULP energy -200478.460357 kJ/mol
# GULP energy per Si atom -5568.846121 kJ/mol
# Density = 1.781146 g / cm^3
# Si number density = 17.852096 Si / 1000 Ang^3
#
#
#
# Elastic Constant Matrix: (Units=GPa)
#
#
# Indices 1 2 3 4 5 6 
#
# 1 41.7536 41.1343 43.1494 0.0000 0.0000 0.0000
# 2 41.1343 41.7532 43.1510 0.0000 0.0000 0.0000
# 3 43.1494 43.1510 131.5047 0.0000 0.0000 0.0000
# 4 0.0000 0.0000 0.0000 23.9341 0.0000 0.0000
# 5 0.0000 0.0000 0.0000 0.0000 23.9330 0.0000
# 6 0.0000 0.0000 0.0000 0.0000 0.0000 10.3547
#
#
#
# Elastic Compliance Matrix: (Units=1/GPa)
#
#
# Indices 1 2 3 4 5 6 
#
# 1 0.816726 -0.798422 -0.005996 0.000000 0.000000 0.000000
# 2 -0.798422 0.816768 -0.006030 0.000000 0.000000 0.000000
# 3 -0.005996 -0.006030 0.011550 0.000000 0.000000 0.000000
# 4 0.000000 0.000000 0.000000 0.041781 0.000000 0.000000
# 5 0.000000 0.000000 0.000000 0.000000 0.041783 0.000000
# 6 0.000000 0.000000 0.000000 0.000000 0.000000 0.096575
#
#
# Mechanical properties :
#
#
# Convention : Reuss Voigt Hill
#
# Bulk Modulus (GPa) = 41.41025 52.20899 46.80962
# Shear Modulus (GPa) = 1.44754 17.48280 9.46517
#
# Velocity S-wave (km/s) = 0.90145 3.13279 2.30510
# Velocity P-wave (km/s) = 4.93256 6.51112 5.77602
#
# Compressibility (1/GPa) = 0.02414861
#
# Stress axis : x y z
#
# Youngs Moduli (GPa) = 1.22440 1.22434 86.57785
#
# Poissons Ratio (x) = 0.97754 0.51912
# Poissons Ratio (y) = 0.97759 0.52205
# Poissons Ratio (z) = 0.00734 0.00738
#
# Static dielectric constant tensor:
#      x y z
#    x 1.727150 0.000000 0.000000 
#    y 0.000000 1.727150 0.000000 
#    z 0.000000 0.000000 1.657670 
# 
# From -- ./inp_files/1645.got.cif
#   From: 2010.05.17/outbox.cif.g08.bks.cpg/sg98_1_cif.got.tgz:1645.got - 2010.06.03 20:00:51.
