data_PCOD9551902
_publ_section_title
;
Structure prediction by ZEFSAII (Michael W. Deem and Ramdas Pophale) SiO2 
 PCOD9551902
Probable space group: I 41 2 2
;
_chemical_formula_sum "Si O2"
_cell_formula_units_Z 104
_cell_length_a 18.300499
_cell_length_b 18.300499
_cell_length_c 16.752275
_cell_angle_alpha 90.000000
_cell_angle_beta 90.000000
_cell_angle_gamma 90.000000
_cell_volume 5610.475332
_symmetry_space_group_name_H-M "I 41 2 2"
_symmetry_group_IT_number 98
_symmetry_cell_setting 'tetragonal'
loop_
_space_group_symop_operation_xyz
x,y,z
-y,1/2+x,1/4+z
-x,-y,z
y,1/2-x,1/4+z
x,1/2-y,1/4-z
-x,1/2+y,1/4-z
y,x,-z
-y,-x,-z
1/2+x,1/2+y,1/2+z
1/2-y,x,3/4+z
1/2-x,1/2-y,1/2+z
1/2+y,-x,3/4+z
1/2+x,-y,3/4-z
1/2-x,y,3/4-z
1/2+y,1/2+x,1/2-z
1/2-y,1/2-x,1/2-z
loop_
_atom_site_type_symbol
_atom_site_label
_atom_site_fract_x
_atom_site_fract_y
_atom_site_fract_z
Si Si1 0.196009 0.860307 0.241814
Si Si2 0.430859 0.167998 0.155507
Si Si3 0.033974 0.673784 0.807716
Si Si4 0.707532 0.815054 0.956210
Si Si5 0.953944 0.426821 0.569228
Si Si6 0.250000 0.748194 0.375000
Si Si7 0.598114 0.722416 0.866027
O O1 0.270775 0.907759 0.230872
O O2 0.122062 0.905217 0.258733
O O3 0.211130 0.803631 0.313508
O O4 0.197037 0.810451 0.164131
O O5 0.423603 0.250000 0.125000
O O6 0.476043 0.159745 0.237026
O O7 0.481696 0.127159 0.093141
O O8 0.351193 0.133626 0.152039
O O9 0.058672 0.599757 0.853486
O O10 0.988149 0.717705 0.874352
O O11 0.750000 0.833533 0.875000
O O12 0.630195 0.787750 0.920928
O O13 0.745997 0.745997 0.000000
O O14 0.717633 0.875967 0.024123
O O15 0.000000 0.500000 0.546334
#
# Coordination Sequence:
#
# PCOD9551902 Si02
#       7
#    16  16  16  16  16   8  16
#     4  11  22  41  64  96 122 171 210 280 324 397
#     4  12  22  34  53  84 124 172 206 247 317 397
#     4  12  23  35  56  86 127 165 206 252 324 406
#     4   9  18  34  53  75 107 155 213 265 296 347
#     4  12  25  39  57  89 134 170 210 258 337 408
#     4  10  22  40  70  92 124 160 230 270 328 374
#     4  11  21  33  53  81 118 163 210 253 309 384
#
# _framework density 18.536753000000001
#
# number of rings (size 3 to 8) (size 9 to 14) (size 15 to 20)
#    0.000    0.923    4.615    5.077    2.154    0.615 
#    0.000    0.000    1.692    0.000    0.000    2.154 
#    0.000    0.000    0.000    0.000    0.000    0.000 
#
# Total GULP energy -289791.571666 kJ/mol
# GULP energy per Si atom -5572.914840 kJ/mol
# Density = 1.849456 g / cm^3
# Si number density = 18.536753 Si / 1000 Ang^3
#
#
#
# Elastic Constant Matrix: (Units=GPa)
#
#
# Indices 1 2 3 4 5 6 
#
# 1 62.5468 39.3382 32.8975 0.0000 0.0000 0.0000
# 2 39.3382 62.5468 32.8975 0.0000 0.0000 0.0000
# 3 32.8975 32.8975 92.6417 0.0000 0.0000 0.0000
# 4 0.0000 0.0000 0.0000 16.0264 0.0000 0.0000
# 5 0.0000 0.0000 0.0000 0.0000 16.0264 0.0000
# 6 0.0000 0.0000 0.0000 0.0000 0.0000 31.7378
#
#
#
# Elastic Compliance Matrix: (Units=1/GPa)
#
#
# Indices 1 2 3 4 5 6 
#
# 1 0.027911 -0.015176 -0.004522 0.000000 0.000000 0.000000
# 2 -0.015176 0.027911 -0.004522 0.000000 0.000000 0.000000
# 3 -0.004522 -0.004522 0.014006 0.000000 0.000000 0.000000
# 4 0.000000 0.000000 0.000000 0.062397 0.000000 0.000000
# 5 0.000000 0.000000 0.000000 0.000000 0.062397 0.000000
# 6 0.000000 0.000000 0.000000 0.000000 0.000000 0.031508
#
#
# Mechanical properties :
#
#
# Convention : Reuss Voigt Hill
#
# Bulk Modulus (GPa) = 46.75651 47.55571 47.15611
# Shear Modulus (GPa) = 17.74926 20.26495 19.00711
#
# Velocity S-wave (km/s) = 3.09773 3.30999 3.20562
# Velocity P-wave (km/s) = 6.17034 6.34969 6.26066
#
# Compressibility (1/GPa) = 0.02138739
#
# Stress axis : x y z
#
# Youngs Moduli (GPa) = 35.82758 35.82758 71.39725
#
# Poissons Ratio (x) = 0.54372 0.32289
# Poissons Ratio (y) = 0.54372 0.32289
# Poissons Ratio (z) = 0.16203 0.16203
#
# Static dielectric constant tensor:
#      x y z
#    x 1.663500 0.000000 0.000000 
#    y 0.000000 1.663500 0.000000 
#    z 0.000000 0.000000 1.682800 
# 
# From -- ./inp_files/7767.got.cif
#   From: 2010.05.17/outbox.cif.g08.bks.cpg/sg98_4_cif.got.tgz:7767.got - 2010.06.03 20:00:51.
