data_PCOD9551100
_publ_section_title
;
Structure prediction by ZEFSAII (Michael W. Deem and Ramdas Pophale) SiO2 
 PCOD9551100
Probable space group: P 43 21 2
;
_chemical_formula_sum "Si O2"
_cell_formula_units_Z 52
_cell_length_a 17.229161
_cell_length_b 17.229161
_cell_length_c 8.480212
_cell_angle_alpha 90.000000
_cell_angle_beta 90.000000
_cell_angle_gamma 90.000000
_cell_volume 2517.299956
_symmetry_space_group_name_H-M "P 43 21 2"
_symmetry_group_IT_number 96
_symmetry_cell_setting 'tetragonal'
loop_
_space_group_symop_operation_xyz
x,y,z
1/2-y,1/2+x,3/4+z
-x,-y,1/2+z
1/2+y,1/2-x,1/4+z
1/2+x,1/2-y,1/4-z
1/2-x,1/2+y,3/4-z
y,x,-z
-y,-x,1/2-z
loop_
_atom_site_type_symbol
_atom_site_label
_atom_site_fract_x
_atom_site_fract_y
_atom_site_fract_z
Si Si1 0.671650 0.328351 0.750000
Si Si2 0.544597 0.918355 0.752275
Si Si3 0.215662 0.808209 0.928369
Si Si4 0.959052 0.253470 0.906170
Si Si5 0.171215 0.574652 0.220678
Si Si6 0.365919 0.702675 0.909885
Si Si7 0.910477 0.307488 0.557406
O O1 0.760150 0.361684 0.737644
O O2 0.639708 0.346592 0.573158
O O3 0.536307 0.827144 0.727889
O O4 0.556078 0.969611 0.600187
O O5 0.618263 0.929366 0.871145
O O6 0.187676 0.812325 0.750000
O O7 0.304421 0.774677 0.931128
O O8 0.204641 0.888844 0.020002
O O9 0.161195 0.742834 0.001896
O O10 0.930109 0.281609 0.735190
O O11 0.044984 0.223300 0.873233
O O12 0.202393 0.487634 0.204831
O O13 0.117442 0.603884 0.078170
O O14 0.337744 0.662257 0.750000
#
# Coordination Sequence:
#
# PCOD9551100 Si02
#       7
#     4   8   8   8   8   8   8
#     4  12  20  42  66  92 134 184 232 280 342 422
#     4  11  21  39  56  92 139 176 218 274 351 427
#     4  11  25  44  67 102 138 177 241 288 352 425
#     4  11  22  43  68  95 132 181 229 291 354 410
#     4  11  21  36  67  96 127 176 234 272 346 428
#     4  11  24  43  69 104 136 183 238 292 352 420
#     4  11  22  40  70  96 135 184 226 281 347 435
#
# _framework density 20.657055
#
# number of rings (size 3 to 8) (size 9 to 14) (size 15 to 20)
#    0.000    0.923    6.154    3.231    0.000    1.231 
#   11.077    0.000    1.692    0.000    0.000    0.000 
#    0.000    0.000    0.000    0.000    0.000    0.000 
#
# Total GULP energy -290147.685611 kJ/mol
# GULP energy per Si atom -5579.763185 kJ/mol
# Density = 2.061004 g / cm^3
# Si number density = 20.657055 Si / 1000 Ang^3
#
#
#
# Elastic Constant Matrix: (Units=GPa)
#
#
# Indices 1 2 3 4 5 6 
#
# 1 79.5420 50.0342 38.3803 0.0000 0.0000 0.0000
# 2 50.0342 79.5383 38.3820 0.0000 0.0000 0.0000
# 3 38.3803 38.3820 76.8035 0.0000 0.0000 0.0000
# 4 0.0000 0.0000 0.0000 14.9276 0.0000 0.0000
# 5 0.0000 0.0000 0.0000 0.0000 14.9282 0.0000
# 6 0.0000 0.0000 0.0000 0.0000 0.0000 26.8995
#
#
#
# Elastic Compliance Matrix: (Units=1/GPa)
#
#
# Indices 1 2 3 4 5 6 
#
# 1 0.022426 -0.011464 -0.005478 0.000000 0.000000 0.000000
# 2 -0.011464 0.022428 -0.005480 0.000000 0.000000 0.000000
# 3 -0.005478 -0.005480 0.018496 0.000000 0.000000 0.000000
# 4 0.000000 0.000000 0.000000 0.066990 0.000000 0.000000
# 5 0.000000 0.000000 0.000000 0.000000 0.066987 0.000000
# 6 0.000000 0.000000 0.000000 0.000000 0.000000 0.037175
#
#
# Mechanical properties :
#
#
# Convention : Reuss Voigt Hill
#
# Bulk Modulus (GPa) = 54.03143 54.38633 54.20888
# Shear Modulus (GPa) = 17.51218 18.62355 18.06787
#
# Velocity S-wave (km/s) = 2.91479 3.00585 2.96067
# Velocity P-wave (km/s) = 6.12708 6.19937 6.16334
#
# Compressibility (1/GPa) = 0.01850775
#
# Stress axis : x y z
#
# Youngs Moduli (GPa) = 44.59039 44.58643 54.06575
#
# Poissons Ratio (x) = 0.51114 0.29616
# Poissons Ratio (y) = 0.51119 0.29626
# Poissons Ratio (z) = 0.24426 0.24431
#
# Static dielectric constant tensor:
#      x y z
#    x 1.775520 0.000000 0.000000 
#    y 0.000000 1.775530 0.000000 
#    z 0.000000 0.000000 1.777090 
# 
# From -- ./inp_files/1569.got.cif
#   From: 2010.05.17/outbox.cif.g08.bks.cpg/sg96_1_cif.got.tgz:1569.got - 2010.06.03 19:52:08.
