data_PCOD9551820
_publ_section_title
;
Structure prediction by ZEFSAII (Michael W. Deem and Ramdas Pophale) SiO2 
 PCOD9551820
Probable space group: I 41 2 2
;
_chemical_formula_sum "Si O2"
_cell_formula_units_Z 96
_cell_length_a 19.256007
_cell_length_b 19.256007
_cell_length_c 11.910207
_cell_angle_alpha 90.000000
_cell_angle_beta 90.000000
_cell_angle_gamma 90.000000
_cell_volume 4416.230979
_symmetry_space_group_name_H-M "I 41 2 2"
_symmetry_group_IT_number 98
_symmetry_cell_setting 'tetragonal'
loop_
_space_group_symop_operation_xyz
x,y,z
-y,1/2+x,1/4+z
-x,-y,z
y,1/2-x,1/4+z
x,1/2-y,1/4-z
-x,1/2+y,1/4-z
y,x,-z
-y,-x,-z
1/2+x,1/2+y,1/2+z
1/2-y,x,3/4+z
1/2-x,1/2-y,1/2+z
1/2+y,-x,3/4+z
1/2+x,-y,3/4-z
1/2-x,y,3/4-z
1/2+y,1/2+x,1/2-z
1/2-y,1/2-x,1/2-z
loop_
_atom_site_type_symbol
_atom_site_label
_atom_site_fract_x
_atom_site_fract_y
_atom_site_fract_z
Si Si1 0.126496 0.387324 0.618640
Si Si2 0.403792 0.548597 0.118790
Si Si3 0.783297 0.216704 0.000000
Si Si4 0.435841 0.752237 0.425370
Si Si5 0.079299 0.079299 0.000000
Si Si6 0.919652 0.756542 0.009168
Si Si7 0.495222 0.375902 0.290965
O O1 0.127478 0.372523 0.750000
O O2 0.101315 0.467080 0.608766
O O3 0.205697 0.382791 0.576938
O O4 0.070218 0.350843 0.536547
O O5 0.324870 0.576621 0.112444
O O6 0.448243 0.586615 0.213595
O O7 0.439251 0.560750 0.000000
O O8 0.750000 0.237201 0.875000
O O9 0.865351 0.229998 0.984786
O O10 0.500297 0.769430 0.507824
O O11 0.466048 0.690741 0.346547
O O12 0.161809 0.071466 0.995698
O O13 0.035172 0.070782 0.885998
O O14 0.880117 0.750000 0.125000
#
# Coordination Sequence:
#
# PCOD9551820 Si02
#       7
#    16  16   8  16   8  16  16
#     4  11  22  41  68 106 139 184 235 295 362 429
#     4  11  23  41  67  99 145 182 234 304 362 422
#     4  12  26  48  70  99 140 186 251 298 360 444
#     4  10  25  43  66  98 137 187 232 295 359 436
#     4  10  22  42  67 108 132 180 228 288 349 438
#     4  10  20  41  71  91 139 179 222 290 357 419
#     4  11  22  42  70 103 136 182 239 289 361 432
#
# _framework density 21.737991999999998
#
# number of rings (size 3 to 8) (size 9 to 14) (size 15 to 20)
#    0.000    1.333    3.333    2.000    1.167    2.000 
#    9.000    0.000    1.833    0.000    0.000    0.000 
#    0.000    0.000    0.000    0.000    0.000    0.000 
#
# Total GULP energy -267331.100182 kJ/mol
# GULP energy per Si atom -5569.397920 kJ/mol
# Density = 2.168852 g / cm^3
# Si number density = 21.737992 Si / 1000 Ang^3
#
#
#
# Elastic Constant Matrix: (Units=GPa)
#
#
# Indices 1 2 3 4 5 6 
#
# 1 323.0732 -209.8947 51.5578 0.0000 0.0000 0.0000
# 2 -209.8947 323.0900 51.5584 0.0000 0.0000 0.0000
# 3 51.5578 51.5584 172.7060 0.0000 0.0000 0.0000
# 4 0.0000 0.0000 0.0000 32.6285 0.0000 0.0000
# 5 0.0000 0.0000 0.0000 0.0000 32.6299 0.0000
# 6 0.0000 0.0000 0.0000 0.0000 0.0000 16.7632
#
#
#
# Elastic Compliance Matrix: (Units=1/GPa)
#
#
# Indices 1 2 3 4 5 6 
#
# 1 0.007006 0.005130 -0.003623 0.000000 0.000000 0.000000
# 2 0.005130 0.007006 -0.003623 0.000000 0.000000 0.000000
# 3 -0.003623 -0.003623 0.007953 0.000000 0.000000 0.000000
# 4 0.000000 0.000000 0.000000 0.030648 0.000000 0.000000
# 5 0.000000 0.000000 0.000000 0.000000 0.030647 0.000000
# 6 0.000000 0.000000 0.000000 0.000000 0.000000 0.059654
#
#
# Mechanical properties :
#
#
# Convention : Reuss Voigt Hill
#
# Bulk Modulus (GPa) = 56.39252 67.25693 61.82472
# Shear Modulus (GPa) = 32.66755 78.11417 55.39086
#
# Velocity S-wave (km/s) = 3.88078 6.00103 5.05336
# Velocity P-wave (km/s) = 6.78814 8.88952 7.90893
#
# Compressibility (1/GPa) = 0.01773285
#
# Stress axis : x y z
#
# Youngs Moduli (GPa) = 142.73437 142.74199 125.73513
#
# Poissons Ratio (x) = -0.73221 0.45552
# Poissons Ratio (y) = -0.73217 0.45551
# Poissons Ratio (z) = 0.51711 0.51712
#
# Static dielectric constant tensor:
#      x y z
#    x 1.826690 0.000000 0.000000 
#    y 0.000000 1.826700 0.000000 
#    z 0.000000 0.000000 2.018250 
# 
# From -- ./inp_files/5368.got.cif
#   From: 2010.05.17/outbox.cif.g08.bks.cpg/sg98_3_cif.got.tgz:5368.got - 2010.06.03 20:00:51.
