data_PCOD9551678
_publ_section_title
;
Structure prediction by ZEFSAII (Michael W. Deem and Ramdas Pophale) SiO2 
 PCOD9551678
Probable space group: I 41 2 2
;
_chemical_formula_sum "Si O2"
_cell_formula_units_Z 100
_cell_length_a 32.419548
_cell_length_b 32.419548
_cell_length_c 5.863932
_cell_angle_alpha 90.000000
_cell_angle_beta 90.000000
_cell_angle_gamma 90.000000
_cell_volume 6163.151401
_symmetry_space_group_name_H-M "I 41 2 2"
_symmetry_group_IT_number 98
_symmetry_cell_setting 'tetragonal'
loop_
_space_group_symop_operation_xyz
x,y,z
-y,1/2+x,1/4+z
-x,-y,z
y,1/2-x,1/4+z
x,1/2-y,1/4-z
-x,1/2+y,1/4-z
y,x,-z
-y,-x,-z
1/2+x,1/2+y,1/2+z
1/2-y,x,3/4+z
1/2-x,1/2-y,1/2+z
1/2+y,-x,3/4+z
1/2+x,-y,3/4-z
1/2-x,y,3/4-z
1/2+y,1/2+x,1/2-z
1/2-y,1/2-x,1/2-z
loop_
_atom_site_type_symbol
_atom_site_label
_atom_site_fract_x
_atom_site_fract_y
_atom_site_fract_z
Si Si1 0.429460 0.134674 0.301576
Si Si2 0.502476 0.647867 0.316680
Si Si3 0.052943 0.727749 0.873478
Si Si4 0.137630 0.930551 0.533827
Si Si5 0.413627 0.000649 0.951896
Si Si6 0.500000 0.000000 0.750000
Si Si7 0.967007 0.793338 0.200959
O O1 0.385676 0.114325 0.250000
O O2 0.458126 0.099856 0.418331
O O3 0.433200 0.174360 0.464056
O O4 0.456805 0.148342 0.087017
O O5 0.503938 0.605167 0.451009
O O6 0.507895 0.684366 0.497532
O O7 0.458949 0.647587 0.187323
O O8 0.062051 0.750000 0.625000
O O9 0.075938 0.683358 0.884721
O O10 0.059424 0.750000 0.125000
O O11 0.003740 0.716624 0.870124
O O12 0.110479 0.889522 0.500000
O O13 0.109340 0.961846 0.682905
O O14 0.461441 0.997429 0.918375
O O15 0.949064 0.750000 0.125000
#
# Coordination Sequence:
#
# PCOD9551678 Si02
#       7
#    16  16  16  16  16   4  16
#     4  10  20  32  48  67  98 133 183 227 272 319
#     4  10  18  36  49  70 104 134 189 227 275 317
#     4  11  22  38  58  81 108 140 183 232 283 336
#     4  11  21  34  52  77 103 139 180 234 282 332
#     4  10  21  33  43  68  93 142 187 230 272 305
#     4  12  20  32  46  60 100 150 192 236 258 304
#     4  10  20  32  53  74  95 134 182 225 277 328
#
# _framework density 16.225465
#
# number of rings (size 3 to 8) (size 9 to 14) (size 15 to 20)
#    0.000    1.600    4.800    3.840    0.000    3.200 
#    0.000    3.200    0.000    0.000    0.000    0.000 
#    0.000    1.280    0.000    0.320   42.560    0.000 
#
# Total GULP energy -278450.805992 kJ/mol
# GULP energy per Si atom -5569.016120 kJ/mol
# Density = 1.618853 g / cm^3
# Si number density = 16.225465 Si / 1000 Ang^3
#
#
#
# Elastic Constant Matrix: (Units=GPa)
#
#
# Indices 1 2 3 4 5 6 
#
# 1 118.8528 35.8348 35.1619 0.0000 0.0000 0.0000
# 2 35.8348 118.8489 35.1628 0.0000 0.0000 0.0000
# 3 35.1619 35.1628 71.0508 0.0000 0.0000 0.0000
# 4 0.0000 0.0000 0.0000 3.1000 0.0000 0.0000
# 5 0.0000 0.0000 0.0000 0.0000 3.1035 0.0000
# 6 0.0000 0.0000 0.0000 0.0000 0.0000 18.6306
#
#
#
# Elastic Compliance Matrix: (Units=1/GPa)
#
#
# Indices 1 2 3 4 5 6 
#
# 1 0.010193 -0.001852 -0.004128 0.000000 0.000000 0.000000
# 2 -0.001852 0.010194 -0.004128 0.000000 0.000000 0.000000
# 3 -0.004128 -0.004128 0.018160 0.000000 0.000000 0.000000
# 4 0.000000 0.000000 0.000000 0.322580 0.000000 0.000000
# 5 0.000000 0.000000 0.000000 0.000000 0.322216 0.000000
# 6 0.000000 0.000000 0.000000 0.000000 0.000000 0.053675
#
#
# Mechanical properties :
#
#
# Convention : Reuss Voigt Hill
#
# Bulk Modulus (GPa) = 54.55278 57.89681 56.22479
# Shear Modulus (GPa) = 6.55011 18.47302 12.51156
#
# Velocity S-wave (km/s) = 2.01139 3.37786 2.77989
# Velocity P-wave (km/s) = 6.25212 7.13956 6.71053
#
# Compressibility (1/GPa) = 0.01833087
#
# Stress axis : x y z
#
# Youngs Moduli (GPa) = 98.10236 98.09771 55.06498
#
# Poissons Ratio (x) = 0.18170 0.22730
# Poissons Ratio (y) = 0.18170 0.22733
# Poissons Ratio (z) = 0.40496 0.40498
#
# Static dielectric constant tensor:
#      x y z
#    x 1.557400 0.000000 0.000000 
#    y 0.000000 1.557400 0.000000 
#    z 0.000000 0.000000 1.638280 
# 
# From -- ./inp_files/2010.got.cif
#   From: 2010.05.17/outbox.cif.g08.bks.cpg/sg98_2_cif.got.tgz:2010.got - 2010.06.03 20:00:51.
