data_PCOD9551971
_publ_section_title
;
Structure prediction by ZEFSAII (Michael W. Deem and Ramdas Pophale) SiO2 
 PCOD9551971
Probable space group: I 41 2 2
;
_chemical_formula_sum "Si O2"
_cell_formula_units_Z 96
_cell_length_a 14.918792
_cell_length_b 14.918792
_cell_length_c 20.553141
_cell_angle_alpha 90.000000
_cell_angle_beta 90.000000
_cell_angle_gamma 90.000000
_cell_volume 4574.519883
_symmetry_space_group_name_H-M "I 41 2 2"
_symmetry_group_IT_number 98
_symmetry_cell_setting 'tetragonal'
loop_
_space_group_symop_operation_xyz
x,y,z
-y,1/2+x,1/4+z
-x,-y,z
y,1/2-x,1/4+z
x,1/2-y,1/4-z
-x,1/2+y,1/4-z
y,x,-z
-y,-x,-z
1/2+x,1/2+y,1/2+z
1/2-y,x,3/4+z
1/2-x,1/2-y,1/2+z
1/2+y,-x,3/4+z
1/2+x,-y,3/4-z
1/2-x,y,3/4-z
1/2+y,1/2+x,1/2-z
1/2-y,1/2-x,1/2-z
loop_
_atom_site_type_symbol
_atom_site_label
_atom_site_fract_x
_atom_site_fract_y
_atom_site_fract_z
Si Si1 0.750000 0.316660 0.375000
Si Si2 0.414976 0.317709 0.944476
Si Si3 0.824037 0.410449 0.626431
Si Si4 0.961345 0.189696 0.224679
Si Si5 0.000000 0.500000 0.006594
Si Si6 0.473818 0.355834 0.143424
Si Si7 0.334199 0.274661 0.699096
O O1 0.668023 0.247861 0.370331
O O2 0.757867 0.383564 0.436792
O O3 0.518059 0.300085 0.931746
O O4 0.384130 0.375736 0.882427
O O5 0.363974 0.225699 0.959236
O O6 0.388005 0.388005 0.000000
O O7 0.814007 0.445707 0.552221
O O8 0.929598 0.387227 0.636101
O O9 0.060157 0.223995 0.209249
O O10 0.968053 0.085561 0.203000
O O11 0.913099 0.522562 0.961043
O O12 0.475267 0.250000 0.125000
O O13 0.314832 0.250000 0.625000
O O14 0.294811 0.205190 0.750000
#
# Coordination Sequence:
#
# PCOD9551971 Si02
#       7
#     8  16  16  16   8  16  16
#     4  12  26  46  70 104 138 194 260 292 356 436
#     4  11  24  39  67 104 140 173 230 291 366 447
#     4  11  24  46  68  98 147 189 232 302 359 438
#     4  11  24  46  68  95 138 187 242 292 357 423
#     4  10  24  42  67  92 137 188 222 294 358 438
#     4  11  21  40  66  97 133 180 221 280 366 430
#     4  11  24  43  70 102 132 178 233 300 362 428
#
# _framework density 20.985807999999999
#
# number of rings (size 3 to 8) (size 9 to 14) (size 15 to 20)
#    0.000    1.000    5.000    2.000    7.000    2.667 
#    3.000    0.000    0.000    1.000    0.000    0.000 
#    0.000    0.000    0.000    0.000    0.000    0.000 
#
# Total GULP energy -267570.053316 kJ/mol
# GULP energy per Si atom -5574.376111 kJ/mol
# Density = 2.093804 g / cm^3
# Si number density = 20.985808 Si / 1000 Ang^3
#
#
#
# Elastic Constant Matrix: (Units=GPa)
#
#
# Indices 1 2 3 4 5 6 
#
# 1 133.1307 47.8533 21.7940 0.0000 0.0000 0.0000
# 2 47.8533 133.1315 21.7940 0.0000 0.0000 0.0000
# 3 21.7940 21.7940 50.8831 0.0000 0.0000 0.0000
# 4 0.0000 0.0000 0.0000 54.6130 0.0000 0.0000
# 5 0.0000 0.0000 0.0000 0.0000 54.4603 0.0000
# 6 0.0000 0.0000 0.0000 0.0000 0.0000 -7.3627
#
#
#
# Elastic Compliance Matrix: (Units=1/GPa)
#
#
# Indices 1 2 3 4 5 6 
#
# 1 0.008944 -0.002783 -0.002639 0.000000 0.000000 0.000000
# 2 -0.002783 0.008944 -0.002639 0.000000 0.000000 0.000000
# 3 -0.002639 -0.002639 0.021913 0.000000 0.000000 0.000000
# 4 0.000000 0.000000 0.000000 0.018311 0.000000 0.000000
# 5 0.000000 0.000000 0.000000 0.000000 0.018362 0.000000
# 6 0.000000 0.000000 0.000000 0.000000 0.000000 -0.135821
#
#
# Mechanical properties :
#
#
# Convention : Reuss Voigt Hill
#
# Bulk Modulus (GPa) = 42.22986 55.55864 48.89425
# Shear Modulus (GPa) = -141.50940 35.38905 -53.06018
#
# Velocity S-wave (km/s) = -8.22055 4.11095 -5.03376
# Velocity P-wave (km/s) = 8.36280 7.00465 3.23043
#
# Compressibility (1/GPa) = 0.02367993
#
# Stress axis : x y z
#
# Youngs Moduli (GPa) = 111.81120 111.81191 45.63428
#
# Poissons Ratio (x) = 0.31115 0.12042
# Poissons Ratio (y) = 0.31114 0.12042
# Poissons Ratio (z) = 0.29505 0.29505
#
# Static dielectric constant tensor:
#      x y z
#    x 1.756010 0.000000 0.000000 
#    y 0.000000 1.756210 0.000000 
#    z 0.000000 0.000000 2.403190 
# 
# From -- ./inp_files/8975.got.cif
#   From: 2010.05.17/outbox.cif.g08.bks.cpg/sg98_5_cif.got.tgz:8975.got - 2010.06.03 20:00:51.
