data_PCOD9551633
_publ_section_title
;
Structure prediction by ZEFSAII (Michael W. Deem and Ramdas Pophale) SiO2 
 PCOD9551633
Probable space group: I 41 2 2
;
_chemical_formula_sum "Si O2"
_cell_formula_units_Z 68
_cell_length_a 11.299598
_cell_length_b 11.299598
_cell_length_c 28.486494
_cell_angle_alpha 90.000000
_cell_angle_beta 90.000000
_cell_angle_gamma 90.000000
_cell_volume 3637.181618
_symmetry_space_group_name_H-M "I 41 2 2"
_symmetry_group_IT_number 98
_symmetry_cell_setting 'tetragonal'
loop_
_space_group_symop_operation_xyz
x,y,z
-y,1/2+x,1/4+z
-x,-y,z
y,1/2-x,1/4+z
x,1/2-y,1/4-z
-x,1/2+y,1/4-z
y,x,-z
-y,-x,-z
1/2+x,1/2+y,1/2+z
1/2-y,x,3/4+z
1/2-x,1/2-y,1/2+z
1/2+y,-x,3/4+z
1/2+x,-y,3/4-z
1/2-x,y,3/4-z
1/2+y,1/2+x,1/2-z
1/2-y,1/2-x,1/2-z
loop_
_atom_site_type_symbol
_atom_site_label
_atom_site_fract_x
_atom_site_fract_y
_atom_site_fract_z
Si Si1 0.000000 0.000000 0.500000
Si Si2 0.679395 0.579063 0.683487
Si Si3 0.265979 0.734021 0.500000
Si Si4 0.823285 0.415572 0.421544
Si Si5 0.753851 0.498948 0.964061
Si Si6 0.250000 0.145944 0.375000
O O1 0.887821 0.998034 0.466375
O O2 0.666092 0.440903 0.669674
O O3 0.550019 0.635701 0.678215
O O4 0.708414 0.570738 0.739054
O O5 0.770810 0.653249 0.651532
O O6 0.259252 0.628339 0.463626
O O7 0.140294 0.721551 0.527694
O O8 0.750000 0.403888 0.375000
O O9 0.798344 0.561060 0.916774
#
# Coordination Sequence:
#
# PCOD9551633 Si02
#       6
#     4  16   8  16  16   8
#     4  10  16  36  52  76 120 148 168 250 298 316
#     4  10  21  39  58  86 120 155 193 251 286 347
#     4   9  22  39  58  85 122 155 188 252 293 349
#     4  10  21  39  61  81 119 159 196 237 301 346
#     4  10  21  36  58  86 118 149 194 243 298 345
#     4  12  20  36  62  90 110 162 198 236 296 368
#
# _framework density 18.695793999999999
#
# number of rings (size 3 to 8) (size 9 to 14) (size 15 to 20)
#    0.000    1.882    3.529    0.000    1.647    1.882 
#    0.000    4.706    0.000    0.000    0.000    0.000 
#    0.000    0.000    0.000    0.000    0.000    0.000 
#
# Total GULP energy -189510.979994 kJ/mol
# GULP energy per Si atom -5573.852353 kJ/mol
# Density = 1.865324 g / cm^3
# Si number density = 18.695794 Si / 1000 Ang^3
#
#
#
# Elastic Constant Matrix: (Units=GPa)
#
#
# Indices 1 2 3 4 5 6 
#
# 1 3.8419 62.6280 51.8475 0.0000 0.0000 0.0000
# 2 62.6280 3.8423 51.8481 0.0000 0.0000 0.0000
# 3 51.8475 51.8481 151.7956 0.0000 0.0000 0.0000
# 4 0.0000 0.0000 0.0000 28.4854 0.0000 0.0000
# 5 0.0000 0.0000 0.0000 0.0000 28.4883 0.0000
# 6 0.0000 0.0000 0.0000 0.0000 0.0000 17.0779
#
#
#
# Elastic Compliance Matrix: (Units=1/GPa)
#
#
# Indices 1 2 3 4 5 6 
#
# 1 0.007597 0.024608 -0.011000 0.000000 0.000000 0.000000
# 2 0.024608 0.007597 -0.011000 0.000000 0.000000 0.000000
# 3 -0.011000 -0.011000 0.014102 0.000000 0.000000 0.000000
# 4 0.000000 0.000000 0.000000 0.035106 0.000000 0.000000
# 5 0.000000 0.000000 0.000000 0.000000 0.035102 0.000000
# 6 0.000000 0.000000 0.000000 0.000000 0.000000 0.058555
#
#
# Mechanical properties :
#
#
# Convention : Reuss Voigt Hill
#
# Bulk Modulus (GPa) = 28.97572 54.68079 41.82826
# Shear Modulus (GPa) = 30.42344 14.35405 22.38875
#
# Velocity S-wave (km/s) = 4.03834 2.77387 3.46429
# Velocity P-wave (km/s) = 6.10544 6.29049 6.19866
#
# Compressibility (1/GPa) = 0.03451165
#
# Stress axis : x y z
#
# Youngs Moduli (GPa) = 131.63323 131.63418 70.91128
#
# Poissons Ratio (x) = -3.23922 0.78002
# Poissons Ratio (y) = -3.23919 0.78001
# Poissons Ratio (z) = 1.44796 1.44796
#
# Static dielectric constant tensor:
#      x y z
#    x 1.567110 0.000000 0.000000 
#    y 0.000000 1.567080 0.000000 
#    z 0.000000 0.000000 1.697030 
# 
# From -- ./inp_files/10873.got.cif
#   From: 2010.05.17/outbox.cif.g08.bks.cpg/sg98_6_cif.got.tgz:10873.got - 2010.06.03 20:00:51.
