data_PCOD9551811
_publ_section_title
;
Structure prediction by ZEFSAII (Michael W. Deem and Ramdas Pophale) SiO2 
 PCOD9551811
Probable space group: I 41 2 2
;
_chemical_formula_sum "Si O2"
_cell_formula_units_Z 88
_cell_length_a 12.793569
_cell_length_b 12.793569
_cell_length_c 27.896339
_cell_angle_alpha 90.000000
_cell_angle_beta 90.000000
_cell_angle_gamma 90.000000
_cell_volume 4565.944661
_symmetry_space_group_name_H-M "I 41 2 2"
_symmetry_group_IT_number 98
_symmetry_cell_setting 'tetragonal'
loop_
_space_group_symop_operation_xyz
x,y,z
-y,1/2+x,1/4+z
-x,-y,z
y,1/2-x,1/4+z
x,1/2-y,1/4-z
-x,1/2+y,1/4-z
y,x,-z
-y,-x,-z
1/2+x,1/2+y,1/2+z
1/2-y,x,3/4+z
1/2-x,1/2-y,1/2+z
1/2+y,-x,3/4+z
1/2+x,-y,3/4-z
1/2-x,y,3/4-z
1/2+y,1/2+x,1/2-z
1/2-y,1/2-x,1/2-z
loop_
_atom_site_type_symbol
_atom_site_label
_atom_site_fract_x
_atom_site_fract_y
_atom_site_fract_z
Si Si1 0.218771 0.429357 0.279297
Si Si2 0.886001 0.043082 0.716582
Si Si3 0.495072 0.241852 0.376179
Si Si4 0.750000 0.800879 0.875000
Si Si5 0.745703 0.364647 0.716502
Si Si6 0.871203 0.175069 0.081898
O O1 0.142861 0.357140 0.250000
O O2 0.312474 0.463405 0.245292
O O3 0.254821 0.369345 0.326833
O O4 0.164265 0.536582 0.294612
O O5 0.885279 0.148863 0.747904
O O6 0.847364 0.040134 0.661582
O O7 0.000000 0.000000 0.717292
O O8 0.367794 0.247220 0.377181
O O9 0.545835 0.237920 0.323121
O O10 0.560913 0.338883 0.399465
O O11 0.845003 0.345003 0.750000
O O12 0.717462 0.252309 0.690779
O O13 0.909518 0.250000 0.125000
#
# Coordination Sequence:
#
# PCOD9551811 Si02
#       6
#    16  16  16   8  16  16
#     4  11  22  40  62  95 133 172 219 267 334 406
#     4  11  23  42  66  96 134 178 220 272 347 404
#     4  11  23  41  66  95 136 174 223 273 341 405
#     4  12  24  42  58  92 144 186 214 256 332 428
#     4  10  20  39  70  99 127 164 229 292 333 387
#     4   9  19  37  61  95 126 163 212 279 333 389
#
# _framework density 19.273119999999999
#
# number of rings (size 3 to 8) (size 9 to 14) (size 15 to 20)
#    0.000    1.455    4.545    1.091    0.000    0.727 
#    3.273    1.818    0.000    0.000    0.000    0.000 
#    0.000    0.000    0.000    0.000    0.000    0.000 
#
# Total GULP energy -245112.338247 kJ/mol
# GULP energy per Si atom -5570.734960 kJ/mol
# Density = 1.922925 g / cm^3
# Si number density = 19.273120 Si / 1000 Ang^3
#
#
#
# Elastic Constant Matrix: (Units=GPa)
#
#
# Indices 1 2 3 4 5 6 
#
# 1 95.3785 53.1144 55.7049 0.0000 0.0000 0.0000
# 2 53.1144 95.3800 55.7020 0.0000 0.0000 0.0000
# 3 55.7049 55.7020 109.7313 0.0000 0.0000 0.0000
# 4 0.0000 0.0000 0.0000 27.7434 0.0000 0.0000
# 5 0.0000 0.0000 0.0000 0.0000 27.7451 0.0000
# 6 0.0000 0.0000 0.0000 0.0000 0.0000 -0.1049
#
#
#
# Elastic Compliance Matrix: (Units=1/GPa)
#
#
# Indices 1 2 3 4 5 6 
#
# 1 0.017269 -0.006392 -0.005522 0.000000 0.000000 0.000000
# 2 -0.006392 0.017268 -0.005521 0.000000 0.000000 0.000000
# 3 -0.005522 -0.005521 0.014719 0.000000 0.000000 0.000000
# 4 0.000000 0.000000 0.000000 0.036045 0.000000 0.000000
# 5 0.000000 0.000000 0.000000 0.000000 0.036042 0.000000
# 6 0.000000 0.000000 0.000000 0.000000 0.000000 -9.533678
#
#
# Mechanical properties :
#
#
# Convention : Reuss Voigt Hill
#
# Bulk Modulus (GPa) = 69.50861 69.94803 69.72832
# Shear Modulus (GPa) = -0.53347 20.14130 9.80392
#
# Velocity S-wave (km/s) = -0.52668 3.23622 2.25785
# Velocity P-wave (km/s) = 5.98109 7.09479 6.56161
#
# Compressibility (1/GPa) = 0.01438671
#
# Stress axis : x y z
#
# Youngs Moduli (GPa) = 57.90692 57.91080 67.93994
#
# Poissons Ratio (x) = 0.37015 0.37516
# Poissons Ratio (y) = 0.37013 0.37508
# Poissons Ratio (z) = 0.31976 0.31971
#
# Static dielectric constant tensor:
#      x y z
#    x 1.677690 0.000000 0.000000 
#    y 0.000000 1.677690 0.000000 
#    z 0.000000 0.000000 1.657720 
# 
# From -- ./inp_files/11939.got.cif
#   From: 2010.05.17/outbox.cif.g08.bks.cpg/sg98_6_cif.got.tgz:11939.got - 2010.06.03 20:00:51.
