data_PCOD9551850
_publ_section_title
;
Structure prediction by ZEFSAII (Michael W. Deem and Ramdas Pophale) SiO2 
 PCOD9551850
Probable space group: I 41 2 2
;
_chemical_formula_sum "Si O2"
_cell_formula_units_Z 88
_cell_length_a 13.633304
_cell_length_b 13.633304
_cell_length_c 22.817368
_cell_angle_alpha 90.000000
_cell_angle_beta 90.000000
_cell_angle_gamma 90.000000
_cell_volume 4240.995235
_symmetry_space_group_name_H-M "I 41 2 2"
_symmetry_group_IT_number 98
_symmetry_cell_setting 'tetragonal'
loop_
_space_group_symop_operation_xyz
x,y,z
-y,1/2+x,1/4+z
-x,-y,z
y,1/2-x,1/4+z
x,1/2-y,1/4-z
-x,1/2+y,1/4-z
y,x,-z
-y,-x,-z
1/2+x,1/2+y,1/2+z
1/2-y,x,3/4+z
1/2-x,1/2-y,1/2+z
1/2+y,-x,3/4+z
1/2+x,-y,3/4-z
1/2-x,y,3/4-z
1/2+y,1/2+x,1/2-z
1/2-y,1/2-x,1/2-z
loop_
_atom_site_type_symbol
_atom_site_label
_atom_site_fract_x
_atom_site_fract_y
_atom_site_fract_z
Si Si1 0.528554 0.112017 0.366737
Si Si2 0.574801 0.250000 0.125000
Si Si3 0.221850 0.433620 0.186959
Si Si4 0.933724 0.221850 0.496215
Si Si5 0.482328 0.386580 0.325335
Si Si6 0.397061 0.241830 0.561902
O O1 0.644151 0.128286 0.382630
O O2 0.460144 0.174929 0.408765
O O3 0.514608 0.148297 0.299766
O O4 0.500000 0.000000 0.372249
O O5 0.524224 0.231165 0.188110
O O6 0.145875 0.486846 0.143344
O O7 0.192648 0.318840 0.183769
O O8 0.042076 0.276148 0.244462
O O9 0.824558 0.175443 0.500000
O O10 0.943134 0.324818 0.463753
O O11 0.500000 0.500000 0.318779
O O12 0.370611 0.364655 0.304709
O O13 0.449393 0.250000 0.625000
#
# Coordination Sequence:
#
# PCOD9551850 Si02
#       6
#    16   8  16  16  16  16
#     4  10  22  41  64  95 135 178 215 269 334 402
#     4  10  22  36  62  90 128 172 226 260 328 412
#     4   9  20  40  63  89 135 167 214 284 320 391
#     4   9  21  41  57  91 135 167 212 274 318 398
#     4  10  21  38  68  93 126 180 220 271 329 405
#     4   9  19  38  62  97 130 165 219 281 329 390
#
# _framework density 20.749845000000001
#
# number of rings (size 3 to 8) (size 9 to 14) (size 15 to 20)
#    0.000    2.545    0.000    0.000    5.091    3.273 
#    8.182   12.727   54.000    0.000    0.000    0.000 
#    0.000    0.000    0.000    0.000    0.000    0.000 
#
# Total GULP energy -245002.731786 kJ/mol
# GULP energy per Si atom -5568.243904 kJ/mol
# Density = 2.070262 g / cm^3
# Si number density = 20.749845 Si / 1000 Ang^3
#
#
#
# Elastic Constant Matrix: (Units=GPa)
#
#
# Indices 1 2 3 4 5 6 
#
# 1 87.3534 56.7435 57.4639 0.0000 0.0000 0.0000
# 2 56.7435 87.3545 57.4623 0.0000 0.0000 0.0000
# 3 57.4639 57.4623 158.2637 0.0000 0.0000 0.0000
# 4 0.0000 0.0000 0.0000 16.2156 0.0000 0.0000
# 5 0.0000 0.0000 0.0000 0.0000 16.2160 0.0000
# 6 0.0000 0.0000 0.0000 0.0000 0.0000 12.3111
#
#
#
# Elastic Compliance Matrix: (Units=1/GPa)
#
#
# Indices 1 2 3 4 5 6 
#
# 1 0.021219 -0.011450 -0.003547 0.000000 0.000000 0.000000
# 2 -0.011450 0.021218 -0.003547 0.000000 0.000000 0.000000
# 3 -0.003547 -0.003547 0.008894 0.000000 0.000000 0.000000
# 4 0.000000 0.000000 0.000000 0.061669 0.000000 0.000000
# 5 0.000000 0.000000 0.000000 0.000000 0.061667 0.000000
# 6 0.000000 0.000000 0.000000 0.000000 0.000000 0.081228
#
#
# Mechanical properties :
#
#
# Convention : Reuss Voigt Hill
#
# Bulk Modulus (GPa) = 70.20499 75.14566 72.67532
# Shear Modulus (GPa) = 16.79370 19.70200 18.24785
#
# Velocity S-wave (km/s) = 2.84798 3.08474 2.96872
# Velocity P-wave (km/s) = 6.68746 6.99865 6.84482
#
# Compressibility (1/GPa) = 0.01424400
#
# Stress axis : x y z
#
# Youngs Moduli (GPa) = 47.12773 47.12933 112.43353
#
# Poissons Ratio (x) = 0.53963 0.39881
# Poissons Ratio (y) = 0.53961 0.39875
# Poissons Ratio (z) = 0.16717 0.16714
#
# Static dielectric constant tensor:
#      x y z
#    x 1.749500 0.000000 0.000000 
#    y 0.000000 1.749500 0.000000 
#    z 0.000000 0.000000 1.847190 
# 
# From -- ./inp_files/9993.got.cif
#   From: 2010.05.17/outbox.cif.g08.bks.cpg/sg98_5_cif.got.tgz:9993.got - 2010.06.03 20:00:51.
