data_PCOD9551852
_publ_section_title
;
Structure prediction by ZEFSAII (Michael W. Deem and Ramdas Pophale) SiO2 
 PCOD9551852
Probable space group: I 41 2 2
;
_chemical_formula_sum "Si O2"
_cell_formula_units_Z 96
_cell_length_a 15.036099
_cell_length_b 15.036099
_cell_length_c 18.286697
_cell_angle_alpha 90.000000
_cell_angle_beta 90.000000
_cell_angle_gamma 90.000000
_cell_volume 4134.334599
_symmetry_space_group_name_H-M "I 41 2 2"
_symmetry_group_IT_number 98
_symmetry_cell_setting 'tetragonal'
loop_
_space_group_symop_operation_xyz
x,y,z
-y,1/2+x,1/4+z
-x,-y,z
y,1/2-x,1/4+z
x,1/2-y,1/4-z
-x,1/2+y,1/4-z
y,x,-z
-y,-x,-z
1/2+x,1/2+y,1/2+z
1/2-y,x,3/4+z
1/2-x,1/2-y,1/2+z
1/2+y,-x,3/4+z
1/2+x,-y,3/4-z
1/2-x,y,3/4-z
1/2+y,1/2+x,1/2-z
1/2-y,1/2-x,1/2-z
loop_
_atom_site_type_symbol
_atom_site_label
_atom_site_fract_x
_atom_site_fract_y
_atom_site_fract_z
Si Si1 0.493979 0.783763 0.328852
Si Si2 0.661608 0.434527 0.441734
Si Si3 0.559453 0.077634 0.088660
Si Si4 0.643841 0.343049 0.701315
Si Si5 0.256257 0.402941 0.520857
Si Si6 0.293251 0.407811 0.806501
O O1 0.466315 0.885167 0.345848
O O2 0.401781 0.729937 0.316862
O O3 0.548526 0.743982 0.398841
O O4 0.552678 0.769414 0.256409
O O5 0.585982 0.414019 0.500000
O O6 0.626788 0.427943 0.359892
O O7 0.736774 0.356908 0.446474
O O8 0.715168 0.521247 0.464121
O O9 0.489317 0.156706 0.097315
O O10 0.500000 0.000000 0.054536
O O11 0.631633 0.111914 0.031525
O O12 0.323473 0.323473 0.500000
O O13 0.157660 0.362535 0.517387
O O14 0.250000 0.356013 0.875000
#
# Coordination Sequence:
#
# PCOD9551852 Si02
#       6
#    16  16  16  16  16  16
#     4  11  24  47  71 110 141 183 245 301 361 446
#     4  11  21  42  65 103 147 191 242 298 362 431
#     4  11  21  45  72  99 140 185 236 296 360 422
#     4  10  21  38  70  99 146 183 230 297 364 428
#     4  12  27  44  69 103 147 193 240 292 366 438
#     4  11  28  49  72 103 142 192 242 303 367 433
#
# _framework density 23.220182000000001
#
# number of rings (size 3 to 8) (size 9 to 14) (size 15 to 20)
#    0.000    1.000    5.000    0.000    2.333    6.333 
#    9.000    0.833    0.000    0.000    0.000    0.000 
#    0.000    0.000    0.000    0.000    0.000    0.000 
#
# Total GULP energy -267890.845173 kJ/mol
# GULP energy per Si atom -5581.059274 kJ/mol
# Density = 2.316733 g / cm^3
# Si number density = 23.220182 Si / 1000 Ang^3
#
#
#
# Elastic Constant Matrix: (Units=GPa)
#
#
# Indices 1 2 3 4 5 6 
#
# 1 77.1248 27.6507 11.9654 0.0000 0.0000 0.0000
# 2 27.6507 77.1223 11.9644 0.0000 0.0000 0.0000
# 3 11.9654 11.9644 59.5790 0.0000 0.0000 0.0000
# 4 0.0000 0.0000 0.0000 21.9559 0.0000 0.0000
# 5 0.0000 0.0000 0.0000 0.0000 21.9561 0.0000
# 6 0.0000 0.0000 0.0000 0.0000 0.0000 34.7740
#
#
#
# Elastic Compliance Matrix: (Units=1/GPa)
#
#
# Indices 1 2 3 4 5 6 
#
# 1 0.015108 -0.005105 -0.002009 0.000000 0.000000 0.000000
# 2 -0.005105 0.015108 -0.002009 0.000000 0.000000 0.000000
# 3 -0.002009 -0.002009 0.017591 0.000000 0.000000 0.000000
# 4 0.000000 0.000000 0.000000 0.045546 0.000000 0.000000
# 5 0.000000 0.000000 0.000000 0.000000 0.045545 0.000000
# 6 0.000000 0.000000 0.000000 0.000000 0.000000 0.028757
#
#
# Mechanical properties :
#
#
# Convention : Reuss Voigt Hill
#
# Bulk Modulus (GPa) = 33.82711 35.22080 34.52396
# Shear Modulus (GPa) = 25.54209 26.55359 26.04784
#
# Velocity S-wave (km/s) = 3.32022 3.38532 3.35293
# Velocity P-wave (km/s) = 5.41277 5.52102 5.46716
#
# Compressibility (1/GPa) = 0.02956209
#
# Stress axis : x y z
#
# Youngs Moduli (GPa) = 66.19052 66.18866 56.84628
#
# Poissons Ratio (x) = 0.33789 0.11420
# Poissons Ratio (y) = 0.33790 0.11419
# Poissons Ratio (z) = 0.13298 0.13296
#
# Static dielectric constant tensor:
#      x y z
#    x 1.907330 0.000000 0.000000 
#    y 0.000000 1.907330 0.000000 
#    z 0.000000 0.000000 1.918750 
# 
# From -- ./inp_files/8940.got.cif
#   From: 2010.05.17/outbox.cif.g08.bks.cpg/sg98_5_cif.got.tgz:8940.got - 2010.06.03 20:00:51.
