data_PCOD9551015
_publ_section_title
;
Structure prediction by ZEFSAII (Michael W. Deem and Ramdas Pophale) SiO2 
 PCOD9551015
Probable space group: P 43 21 2
;
_chemical_formula_sum "Si O2"
_cell_formula_units_Z 60
_cell_length_a 16.640728
_cell_length_b 16.640728
_cell_length_c 9.637414
_cell_angle_alpha 90.000000
_cell_angle_beta 90.000000
_cell_angle_gamma 90.000000
_cell_volume 2668.733206
_symmetry_space_group_name_H-M "P 43 21 2"
_symmetry_group_IT_number 96
_symmetry_cell_setting 'tetragonal'
loop_
_space_group_symop_operation_xyz
x,y,z
1/2-y,1/2+x,3/4+z
-x,-y,1/2+z
1/2+y,1/2-x,1/4+z
1/2+x,1/2-y,1/4-z
1/2-x,1/2+y,3/4-z
y,x,-z
-y,-x,1/2-z
loop_
_atom_site_type_symbol
_atom_site_label
_atom_site_fract_x
_atom_site_fract_y
_atom_site_fract_z
Si Si1 0.482616 0.368737 0.407286
Si Si2 0.003094 0.115547 0.169844
Si Si3 0.820644 0.622076 0.697599
Si Si4 0.701085 0.996636 0.270248
Si Si5 0.899165 0.290219 0.758200
Si Si6 0.344464 0.167105 0.209700
Si Si7 0.570631 0.989816 0.706320
Si Si8 0.246542 0.753459 0.750000
O O1 0.420269 0.420269 0.500000
O O2 0.567733 0.412623 0.431660
O O3 0.474471 0.376638 0.240487
O O4 0.464028 0.278174 0.453634
O O5 0.936571 0.063430 0.250000
O O6 0.014800 0.203486 0.231163
O O7 0.826402 0.534498 0.626744
O O8 0.910406 0.660875 0.695743
O O9 0.782336 0.626711 0.849794
O O10 0.759156 0.669705 0.597144
O O11 0.688211 0.068769 0.384691
O O12 0.929826 0.382501 0.758434
O O13 0.840123 0.289845 0.891602
O O14 0.358635 0.073562 0.222101
O O15 0.268780 0.184142 0.111571
O O16 0.535243 0.999136 0.555121
#
# Coordination Sequence:
#
# PCOD9551015 Si02
#       8
#     8   8   8   8   8   8   8   4
#     4  10  23  41  73 104 139 177 228 295 355 428
#     4  10  23  45  73 106 135 182 237 291 358 430
#     4  11  29  45  70 104 142 191 238 299 363 432
#     4  11  26  45  69 104 142 186 245 289 358 439
#     4  11  25  42  67 103 140 186 231 296 360 420
#     4  10  24  42  69  99 136 181 238 285 351 427
#     4  10  25  41  67  97 139 182 234 286 341 425
#     4  10  26  46  70  96 134 194 236 296 354 432
#
# _framework density 22.482576999999999
#
# number of rings (size 3 to 8) (size 9 to 14) (size 15 to 20)
#    0.000    1.600    1.333    0.000   20.533    2.133 
#    0.000    0.000    2.933    0.000    0.000    0.000 
#    0.000    0.000    0.000    0.000    0.000    0.000 
#
# Total GULP energy -334622.358368 kJ/mol
# GULP energy per Si atom -5577.039306 kJ/mol
# Density = 2.243141 g / cm^3
# Si number density = 22.482577 Si / 1000 Ang^3
#
#
#
# Elastic Constant Matrix: (Units=GPa)
#
#
# Indices 1 2 3 4 5 6 
#
# 1 71.2312 67.7738 52.3352 0.0000 0.0000 0.0000
# 2 67.7738 71.2323 52.3354 0.0000 0.0000 0.0000
# 3 52.3352 52.3354 159.2626 0.0000 0.0000 0.0000
# 4 0.0000 0.0000 0.0000 24.9656 0.0000 0.0000
# 5 0.0000 0.0000 0.0000 0.0000 24.9654 0.0000
# 6 0.0000 0.0000 0.0000 0.0000 0.0000 28.1504
#
#
#
# Elastic Compliance Matrix: (Units=1/GPa)
#
#
# Indices 1 2 3 4 5 6 
#
# 1 0.149377 -0.139817 -0.003141 0.000000 0.000000 0.000000
# 2 -0.139817 0.149375 -0.003141 0.000000 0.000000 0.000000
# 3 -0.003141 -0.003141 0.008343 0.000000 0.000000 0.000000
# 4 0.000000 0.000000 0.000000 0.040055 0.000000 0.000000
# 5 0.000000 0.000000 0.000000 0.000000 0.040055 0.000000
# 6 0.000000 0.000000 0.000000 0.000000 0.000000 0.035524
#
#
# Mechanical properties :
#
#
# Convention : Reuss Voigt Hill
#
# Bulk Modulus (GPa) = 67.12781 71.84611 69.48696
# Shear Modulus (GPa) = 6.94547 24.23506 15.59026
#
# Velocity S-wave (km/s) = 1.75954 3.28677 2.63618
# Velocity P-wave (km/s) = 5.83528 6.81392 6.34350
#
# Compressibility (1/GPa) = 0.01489695
#
# Stress axis : x y z
#
# Youngs Moduli (GPa) = 6.69446 6.69456 119.85440
#
# Poissons Ratio (x) = 0.93601 0.37651
# Poissons Ratio (y) = 0.93600 0.37649
# Poissons Ratio (z) = 0.02103 0.02103
#
# Static dielectric constant tensor:
#      x y z
#    x 1.873610 0.000000 0.000000 
#    y 0.000000 1.873610 0.000000 
#    z 0.000000 0.000000 1.941580 
# 
# From -- ./inp_files/1634.got.cif
#   From: 2010.05.17/outbox.cif.g08.bks.cpg/sg96_1_cif.got.tgz:1634.got - 2010.06.03 19:52:08.
