data_PCOD9551681
_publ_section_title
;
Structure prediction by ZEFSAII (Michael W. Deem and Ramdas Pophale) SiO2 
 PCOD9551681
Probable space group: I 41 2 2
;
_chemical_formula_sum "Si O2"
_cell_formula_units_Z 96
_cell_length_a 28.282775
_cell_length_b 28.282775
_cell_length_c 6.368234
_cell_angle_alpha 90.000000
_cell_angle_beta 90.000000
_cell_angle_gamma 90.000000
_cell_volume 5094.048204
_symmetry_space_group_name_H-M "I 41 2 2"
_symmetry_group_IT_number 98
_symmetry_cell_setting 'tetragonal'
loop_
_space_group_symop_operation_xyz
x,y,z
-y,1/2+x,1/4+z
-x,-y,z
y,1/2-x,1/4+z
x,1/2-y,1/4-z
-x,1/2+y,1/4-z
y,x,-z
-y,-x,-z
1/2+x,1/2+y,1/2+z
1/2-y,x,3/4+z
1/2-x,1/2-y,1/2+z
1/2+y,-x,3/4+z
1/2+x,-y,3/4-z
1/2-x,y,3/4-z
1/2+y,1/2+x,1/2-z
1/2-y,1/2-x,1/2-z
loop_
_atom_site_type_symbol
_atom_site_label
_atom_site_fract_x
_atom_site_fract_y
_atom_site_fract_z
Si Si1 0.200288 0.075975 0.271526
Si Si2 0.048026 0.622125 0.793748
Si Si3 0.250000 0.818212 0.875000
Si Si4 0.032702 0.704971 0.467329
Si Si5 0.443065 0.379681 0.878234
Si Si6 0.890989 0.178450 0.128938
Si Si7 0.370875 0.129126 0.750000
O O1 0.250000 0.089281 0.375000
O O2 0.163439 0.068063 0.462765
O O3 0.177639 0.116044 0.121653
O O4 0.206412 0.023769 0.163215
O O5 0.072014 0.572014 0.750000
O O6 0.040380 0.655615 0.591639
O O7 0.998242 0.618426 0.909722
O O8 0.082828 0.650052 0.943869
O O9 0.284127 0.784127 0.750000
O O10 0.215401 0.855107 0.761503
O O11 0.040666 0.750000 0.625000
O O12 0.070007 0.702719 0.275434
O O13 0.412084 0.375132 0.671694
O O14 0.426251 0.426251 0.000000
O O15 0.857992 0.142009 0.000000
#
# Coordination Sequence:
#
# PCOD9551681 Si02
#       7
#    16  16   8  16  16  16   8
#     4   9  19  34  57  89 121 151 194 232 285 340
#     4  11  21  35  57  80 111 150 187 245 297 352
#     4  10  24  42  54  74 104 142 192 252 306 376
#     4  10  20  36  56  80 110 144 186 249 296 351
#     4   9  20  36  56  83 120 156 194 235 285 342
#     4  11  21  37  54  78 101 137 196 242 307 367
#     4  10  18  36  58  83 126 156 188 238 282 334
#
# _framework density 18.845521999999999
#
# number of rings (size 3 to 8) (size 9 to 14) (size 15 to 20)
#    0.000    2.000    1.667    2.000    0.000    1.667 
#    6.000    5.000    0.000    1.000    0.000    0.000 
#   90.000    0.000    0.000    0.000    0.000    0.000 
#
# Total GULP energy -267560.440227 kJ/mol
# GULP energy per Si atom -5574.175838 kJ/mol
# Density = 1.880263 g / cm^3
# Si number density = 18.845522 Si / 1000 Ang^3
#
#
#
# Elastic Constant Matrix: (Units=GPa)
#
#
# Indices 1 2 3 4 5 6 
#
# 1 86.8486 63.1356 21.1312 0.0000 0.0000 0.0000
# 2 63.1356 86.8502 21.1303 0.0000 0.0000 0.0000
# 3 21.1312 21.1303 38.6996 0.0000 0.0000 0.0000
# 4 0.0000 0.0000 0.0000 24.0953 0.0000 0.0000
# 5 0.0000 0.0000 0.0000 0.0000 24.0961 0.0000
# 6 0.0000 0.0000 0.0000 0.0000 0.0000 33.7349
#
#
#
# Elastic Compliance Matrix: (Units=1/GPa)
#
#
# Indices 1 2 3 4 5 6 
#
# 1 0.025025 -0.017145 -0.004303 0.000000 0.000000 0.000000
# 2 -0.017145 0.025024 -0.004302 0.000000 0.000000 0.000000
# 3 -0.004303 -0.004302 0.030538 0.000000 0.000000 0.000000
# 4 0.000000 0.000000 0.000000 0.041502 0.000000 0.000000
# 5 0.000000 0.000000 0.000000 0.000000 0.041500 0.000000
# 6 0.000000 0.000000 0.000000 0.000000 0.000000 0.029643
#
#
# Mechanical properties :
#
#
# Convention : Reuss Voigt Hill
#
# Bulk Modulus (GPa) = 34.37845 47.02141 40.69993
# Shear Modulus (GPa) = 19.65190 23.51871 21.58531
#
# Velocity S-wave (km/s) = 3.23273 3.53650 3.38802
# Velocity P-wave (km/s) = 5.67590 6.45607 6.07852
#
# Compressibility (1/GPa) = 0.02908799
#
# Stress axis : x y z
#
# Youngs Moduli (GPa) = 39.96002 39.96143 32.74560
#
# Poissons Ratio (x) = 0.68514 0.14091
# Poissons Ratio (y) = 0.68511 0.14086
# Poissons Ratio (z) = 0.17196 0.17190
#
# Static dielectric constant tensor:
#      x y z
#    x 1.688250 0.000000 0.000000 
#    y 0.000000 1.688250 0.000000 
#    z 0.000000 0.000000 1.650960 
# 
# From -- ./inp_files/2008.got.cif
#   From: 2010.05.17/outbox.cif.g08.bks.cpg/sg98_2_cif.got.tgz:2008.got - 2010.06.03 20:00:51.
