data_PCOD9551934
_publ_section_title
;
Structure prediction by ZEFSAII (Michael W. Deem and Ramdas Pophale) SiO2 
 PCOD9551934
Probable space group: I 41 2 2
;
_chemical_formula_sum "Si O2"
_cell_formula_units_Z 52
_cell_length_a 18.816562
_cell_length_b 18.816562
_cell_length_c 6.566191
_cell_angle_alpha 90.000000
_cell_angle_beta 90.000000
_cell_angle_gamma 90.000000
_cell_volume 2324.845320
_symmetry_space_group_name_H-M "I 41 2 2"
_symmetry_group_IT_number 98
_symmetry_cell_setting 'tetragonal'
loop_
_space_group_symop_operation_xyz
x,y,z
-y,1/2+x,1/4+z
-x,-y,z
y,1/2-x,1/4+z
x,1/2-y,1/4-z
-x,1/2+y,1/4-z
y,x,-z
-y,-x,-z
1/2+x,1/2+y,1/2+z
1/2-y,x,3/4+z
1/2-x,1/2-y,1/2+z
1/2+y,-x,3/4+z
1/2+x,-y,3/4-z
1/2-x,y,3/4-z
1/2+y,1/2+x,1/2-z
1/2-y,1/2-x,1/2-z
loop_
_atom_site_type_symbol
_atom_site_label
_atom_site_fract_x
_atom_site_fract_y
_atom_site_fract_z
Si Si1 0.000000 0.000000 0.500000
Si Si2 0.855089 0.250000 0.625000
Si Si3 0.622743 0.552668 0.299162
Si Si4 0.675562 0.675562 0.000000
Si Si5 0.923639 0.188349 0.998366
O O1 0.932275 0.989630 0.650780
O O2 0.804317 0.304317 0.750000
O O3 0.910547 0.210499 0.770260
O O4 0.584385 0.584385 0.500000
O O5 0.661852 0.613009 0.165596
O O6 0.677777 0.497463 0.392879
O O7 0.671391 0.750000 0.125000
O O8 0.883271 0.250000 0.125000
O O9 0.887441 0.112560 0.000000
#
# Coordination Sequence:
#
# PCOD9551934 Si02
#       5
#     4   8  16   8  16
#     4  10  22  52  80 106 164 196 254 318 404 468
#     4  12  24  46  70 108 160 216 266 320 378 460
#     4  11  27  50  78 114 153 202 258 328 397 487
#     4  11  30  53  84 114 156 199 264 343 420 494
#     4  12  26  44  72 109 154 206 259 314 384 462
#
# _framework density 22.367080000000001
#
# number of rings (size 3 to 8) (size 9 to 14) (size 15 to 20)
#    0.000    0.615    3.077    3.231    6.462    7.385 
#    2.769    0.000    0.000    0.000    0.000    0.000 
#    0.000    0.000    0.000    0.000    0.000    0.000 
#
# Total GULP energy -145084.619802 kJ/mol
# GULP energy per Si atom -5580.177685 kJ/mol
# Density = 2.231617 g / cm^3
# Si number density = 22.367080 Si / 1000 Ang^3
#
#
#
# Elastic Constant Matrix: (Units=GPa)
#
#
# Indices 1 2 3 4 5 6 
#
# 1 161.0245 71.4129 96.7977 0.0000 0.0000 0.0000
# 2 71.4129 161.0232 96.7979 0.0000 0.0000 0.0000
# 3 96.7977 96.7979 194.3550 0.0000 0.0000 0.0000
# 4 0.0000 0.0000 0.0000 71.6107 0.0000 0.0000
# 5 0.0000 0.0000 0.0000 0.0000 71.6148 0.0000
# 6 0.0000 0.0000 0.0000 0.0000 0.0000-1790.5663
#
#
#
# Elastic Compliance Matrix: (Units=1/GPa)
#
#
# Indices 1 2 3 4 5 6 
#
# 1 0.009256 -0.001904 -0.003662 0.000000 0.000000 0.000000
# 2 -0.001904 0.009256 -0.003662 0.000000 0.000000 0.000000
# 3 -0.003662 -0.003662 0.008793 0.000000 0.000000 0.000000
# 4 0.000000 0.000000 0.000000 0.013964 0.000000 0.000000
# 5 0.000000 0.000000 0.000000 0.000000 0.013964 0.000000
# 6 0.000000 0.000000 0.000000 0.000000 0.000000 -0.000558
#
#
# Mechanical properties :
#
#
# Convention : Reuss Voigt Hill
#
# Bulk Modulus (GPa) = 112.99419 116.26887 114.63153
# Shear Modulus (GPa) = 65.72260 -312.70854 -123.49297
#
# Velocity S-wave (km/s) = 5.42655 -11.83685 -7.43853
# Velocity P-wave (km/s) = 9.48109 11.60688 4.73438
#
# Compressibility (1/GPa) = 0.00885001
#
# Stress axis : x y z
#
# Youngs Moduli (GPa) = 108.04251 108.04108 113.73248
#
# Poissons Ratio (x) = 0.20567 0.41644
# Poissons Ratio (y) = 0.20568 0.41645
# Poissons Ratio (z) = 0.39561 0.39561
#
# Static dielectric constant tensor:
#      x y z
#    x 1.860670 0.000000 0.000000 
#    y 0.000000 1.860660 0.000000 
#    z 0.000000 0.000000 2.307410 
# 
# From -- ./inp_files/1006.got.cif
#   From: 2010.05.17/outbox.cif.g08.bks.cpg/sg98_1_cif.got.tgz:1006.got - 2010.06.03 20:00:51.
