data_PCOD9551775
_publ_section_title
;
Structure prediction by ZEFSAII (Michael W. Deem and Ramdas Pophale) SiO2 
 PCOD9551775
Probable space group: I 41 2 2
;
_chemical_formula_sum "Si O2"
_cell_formula_units_Z 56
_cell_length_a 16.350794
_cell_length_b 16.350794
_cell_length_c 10.443227
_cell_angle_alpha 90.000000
_cell_angle_beta 90.000000
_cell_angle_gamma 90.000000
_cell_volume 2791.980702
_symmetry_space_group_name_H-M "I 41 2 2"
_symmetry_group_IT_number 98
_symmetry_cell_setting 'tetragonal'
loop_
_space_group_symop_operation_xyz
x,y,z
-y,1/2+x,1/4+z
-x,-y,z
y,1/2-x,1/4+z
x,1/2-y,1/4-z
-x,1/2+y,1/4-z
y,x,-z
-y,-x,-z
1/2+x,1/2+y,1/2+z
1/2-y,x,3/4+z
1/2-x,1/2-y,1/2+z
1/2+y,-x,3/4+z
1/2+x,-y,3/4-z
1/2-x,y,3/4-z
1/2+y,1/2+x,1/2-z
1/2-y,1/2-x,1/2-z
loop_
_atom_site_type_symbol
_atom_site_label
_atom_site_fract_x
_atom_site_fract_y
_atom_site_fract_z
Si Si1 0.750000 0.310440 0.375000
Si Si2 0.814977 0.929850 0.757953
Si Si3 0.796435 0.949193 0.241661
Si Si4 0.418881 0.587895 0.646881
O O1 0.743530 0.256471 0.500000
O O2 0.670717 0.366240 0.362459
O O3 0.750000 0.932121 0.875000
O O4 0.862991 0.844415 0.753506
O O5 0.766143 0.947556 0.627586
O O6 0.883923 0.998866 0.783064
O O7 0.750000 0.963304 0.375000
O O8 0.863471 0.019557 0.213573
O O9 0.436438 0.563563 0.500000
#
# Coordination Sequence:
#
# PCOD9551775 Si02
#       4
#     8  16  16  16
#     4  10  20  36  62  94 132 168 216 274 338 404
#     4  12  24  46  72 101 135 187 239 281 339 410
#     4  12  28  44  69 103 144 183 227 288 350 407
#     4  11  22  45  69 101 134 175 237 285 339 413
#
# _framework density 20.057445000000001
#
# number of rings (size 3 to 8) (size 9 to 14) (size 15 to 20)
#    0.000    0.571    4.286    4.286    2.000    5.714 
#    0.000    2.857    0.000    0.000    0.000    0.000 
#    0.000    0.000    0.000    0.000    0.000    0.000 
#
# Total GULP energy -156629.974970 kJ/mol
# GULP energy per Si atom -5593.927678 kJ/mol
# Density = 2.001179 g / cm^3
# Si number density = 20.057445 Si / 1000 Ang^3
#
#
#
# Elastic Constant Matrix: (Units=GPa)
#
#
# Indices 1 2 3 4 5 6 
#
# 1 64.9788 117.4482 73.2149 0.0000 0.0000 0.0000
# 2 117.4482 64.9822 73.2141 0.0000 0.0000 0.0000
# 3 73.2149 73.2141 193.4441 0.0000 0.0000 0.0000
# 4 0.0000 0.0000 0.0000 -371.7919 0.0000 0.0000
# 5 0.0000 0.0000 0.0000 0.0000 -368.8159 0.0000
# 6 0.0000 0.0000 0.0000 0.0000 0.0000 52.4604
#
#
#
# Elastic Compliance Matrix: (Units=1/GPa)
#
#
# Indices 1 2 3 4 5 6 
#
# 1 -0.005593 0.013466 -0.002980 0.000000 0.000000 0.000000
# 2 0.013466 -0.005593 -0.002980 0.000000 0.000000 0.000000
# 3 -0.002980 -0.002980 0.007425 0.000000 0.000000 0.000000
# 4 0.000000 0.000000 0.000000 -0.002690 0.000000 0.000000
# 5 0.000000 0.000000 0.000000 0.000000 -0.002711 0.000000
# 6 0.000000 0.000000 0.000000 0.000000 0.000000 0.019062
#
#
# Mechanical properties :
#
#
# Convention : Reuss Voigt Hill
#
# Bulk Modulus (GPa) = 88.87045 94.57327 91.72186
# Shear Modulus (GPa) = -3671.02827 -133.66095 -1902.34461
#
# Velocity S-wave (km/s) = -42.82792 -8.17213 -30.83030
# Velocity P-wave (km/s) = 49.00241 6.46463 34.95016
#
# Compressibility (1/GPa) = 0.01125233
#
# Stress axis : x y z
#
# Youngs Moduli (GPa) = -178.78738 -178.80714 134.67745
#
# Poissons Ratio (x) = 2.40789 0.40131
# Poissons Ratio (y) = 2.40763 0.40135
# Poissons Ratio (z) = -0.53275 -0.53286
#
# Static dielectric constant tensor:
#      x y z
#    x 1.978570 0.000000 0.000000 
#    y 0.000000 1.976310 0.000000 
#    z 0.000000 0.000000 1.676320 
# 
# From -- ./inp_files/2898.got.cif
#   From: 2010.05.17/outbox.cif.g08.bks.cpg/sg98_2_cif.got.tgz:2898.got - 2010.06.03 20:00:51.
