data_PCOD9551718
_publ_section_title
;
Structure prediction by ZEFSAII (Michael W. Deem and Ramdas Pophale) SiO2 
 PCOD9551718
Probable space group: I 41 2 2
;
_chemical_formula_sum "Si O2"
_cell_formula_units_Z 56
_cell_length_a 18.257070
_cell_length_b 18.257070
_cell_length_c 9.033848
_cell_angle_alpha 90.000000
_cell_angle_beta 90.000000
_cell_angle_gamma 90.000000
_cell_volume 3011.167681
_symmetry_space_group_name_H-M "I 41 2 2"
_symmetry_group_IT_number 98
_symmetry_cell_setting 'tetragonal'
loop_
_space_group_symop_operation_xyz
x,y,z
-y,1/2+x,1/4+z
-x,-y,z
y,1/2-x,1/4+z
x,1/2-y,1/4-z
-x,1/2+y,1/4-z
y,x,-z
-y,-x,-z
1/2+x,1/2+y,1/2+z
1/2-y,x,3/4+z
1/2-x,1/2-y,1/2+z
1/2+y,-x,3/4+z
1/2+x,-y,3/4-z
1/2-x,y,3/4-z
1/2+y,1/2+x,1/2-z
1/2-y,1/2-x,1/2-z
loop_
_atom_site_type_symbol
_atom_site_label
_atom_site_fract_x
_atom_site_fract_y
_atom_site_fract_z
Si Si1 0.576762 0.031330 0.486142
Si Si2 0.501536 0.180895 0.538386
Si Si3 0.057865 0.319683 0.718652
Si Si4 0.581438 0.581438 0.500000
O O1 0.560196 0.115913 0.515668
O O2 0.500000 0.000000 0.423133
O O3 0.640107 0.005847 0.376353
O O4 0.585553 0.988463 0.641161
O O5 0.531726 0.250000 0.625000
O O6 0.473019 0.203280 0.377487
O O7 0.433477 0.147382 0.635206
O O8 0.083670 0.250000 0.625000
O O9 0.121656 0.378345 0.750000
#
# Coordination Sequence:
#
# PCOD9551718 Si02
#       4
#    16  16  16   8
#     4  10  19  37  64  92 121 164 217 273 310 384
#     4  11  22  34  60  94 128 157 211 276 330 373
#     4  12  24  40  63  91 131 173 226 267 326 383
#     4  10  19  34  60  90 124 158 214 266 316 375
#
# _framework density 18.597436999999999
#
# number of rings (size 3 to 8) (size 9 to 14) (size 15 to 20)
#    0.000    1.143    5.714    6.429    0.000    0.000 
#    0.000    1.429    0.000    0.000    0.000   32.000 
#    0.000    0.000    0.000    0.000    0.000    0.000 
#
# Total GULP energy -156222.096812 kJ/mol
# GULP energy per Si atom -5579.360600 kJ/mol
# Density = 1.855511 g / cm^3
# Si number density = 18.597437 Si / 1000 Ang^3
#
#
#
# Elastic Constant Matrix: (Units=GPa)
#
#
# Indices 1 2 3 4 5 6 
#
# 1 97.4477 24.4350 36.9626 0.0000 0.0000 0.0000
# 2 24.4350 97.4483 36.9629 0.0000 0.0000 0.0000
# 3 36.9626 36.9629 153.4895 0.0000 0.0000 0.0000
# 4 0.0000 0.0000 0.0000 24.2331 0.0000 0.0000
# 5 0.0000 0.0000 0.0000 0.0000 24.2331 0.0000
# 6 0.0000 0.0000 0.0000 0.0000 0.0000 10.3319
#
#
#
# Elastic Compliance Matrix: (Units=1/GPa)
#
#
# Indices 1 2 3 4 5 6 
#
# 1 0.011652 -0.002044 -0.002314 0.000000 0.000000 0.000000
# 2 -0.002044 0.011652 -0.002314 0.000000 0.000000 0.000000
# 3 -0.002314 -0.002314 0.007629 0.000000 0.000000 0.000000
# 4 0.000000 0.000000 0.000000 0.041266 0.000000 0.000000
# 5 0.000000 0.000000 0.000000 0.000000 0.041266 0.000000
# 6 0.000000 0.000000 0.000000 0.000000 0.000000 0.096788
#
#
# Mechanical properties :
#
#
# Convention : Reuss Voigt Hill
#
# Bulk Modulus (GPa) = 56.84928 60.56739 58.70834
# Shear Modulus (GPa) = 21.79028 28.42794 25.10911
#
# Velocity S-wave (km/s) = 3.42670 3.91397 3.67841
# Velocity P-wave (km/s) = 6.80375 7.28449 7.04822
#
# Compressibility (1/GPa) = 0.01759037
#
# Stress axis : x y z
#
# Youngs Moduli (GPa) = 85.82143 85.82191 131.07055
#
# Poissons Ratio (x) = 0.17543 0.30326
# Poissons Ratio (y) = 0.17543 0.30326
# Poissons Ratio (z) = 0.19857 0.19857
#
# Static dielectric constant tensor:
#      x y z
#    x 1.669250 0.000000 0.000000 
#    y 0.000000 1.669260 0.000000 
#    z 0.000000 0.000000 1.693960 
# 
# From -- ./inp_files/2980.got.cif
#   From: 2010.05.17/outbox.cif.g08.bks.cpg/sg98_2_cif.got.tgz:2980.got - 2010.06.03 20:00:51.
