data_PCOD9551137
_publ_section_title
;
Structure prediction by ZEFSAII (Michael W. Deem and Ramdas Pophale) SiO2 
 PCOD9551137
Probable space group: P 43 21 2
;
_chemical_formula_sum "Si O2"
_cell_formula_units_Z 40
_cell_length_a 9.357663
_cell_length_b 9.357663
_cell_length_c 19.340587
_cell_angle_alpha 90.000000
_cell_angle_beta 90.000000
_cell_angle_gamma 90.000000
_cell_volume 1693.575072
_symmetry_space_group_name_H-M "P 43 21 2"
_symmetry_group_IT_number 96
_symmetry_cell_setting 'tetragonal'
loop_
_space_group_symop_operation_xyz
x,y,z
1/2-y,1/2+x,3/4+z
-x,-y,1/2+z
1/2+y,1/2-x,1/4+z
1/2+x,1/2-y,1/4-z
1/2-x,1/2+y,3/4-z
y,x,-z
-y,-x,1/2-z
loop_
_atom_site_type_symbol
_atom_site_label
_atom_site_fract_x
_atom_site_fract_y
_atom_site_fract_z
Si Si1 0.179254 0.489704 0.532522
Si Si2 0.369189 0.617759 0.067512
Si Si3 0.600511 0.683023 0.188145
Si Si4 0.861696 0.469576 0.184910
Si Si5 0.321305 0.678696 0.250000
Si Si6 0.164071 0.835930 0.750000
O O1 0.319330 0.569039 0.504752
O O2 0.118028 0.549747 0.603340
O O3 0.205145 0.322331 0.545637
O O4 0.069529 0.519690 0.470363
O O5 0.483879 0.659901 0.126795
O O6 0.209429 0.684880 0.073725
O O7 0.360575 0.449712 0.060572
O O8 0.709923 0.551396 0.193595
O O9 0.494398 0.693676 0.254718
O O10 0.858442 0.321116 0.222353
#
# Coordination Sequence:
#
# PCOD9551137 Si02
#       6
#     8   8   8   8   4   4
#     4  11  24  44  68  98 141 187 240 297 363 443
#     4  11  24  45  70 101 139 186 239 301 363 438
#     4  11  24  43  70 102 139 184 240 294 361 439
#     4  11  26  45  67 103 145 189 241 303 370 442
#     4  12  22  40  70 100 134 182 234 290 352 428
#     4  12  26  42  68 102 142 184 234 302 370 424
#
# _framework density 23.618675
#
# number of rings (size 3 to 8) (size 9 to 14) (size 15 to 20)
#    0.000    0.800    0.000    8.400    0.000    8.000 
#    0.000    0.000    0.000    0.000    0.000    0.000 
#    0.000    0.000    0.000    0.000    0.000    0.000 
#
# Total GULP energy -223246.367351 kJ/mol
# GULP energy per Si atom -5581.159184 kJ/mol
# Density = 2.356492 g / cm^3
# Si number density = 23.618675 Si / 1000 Ang^3
#
#
#
# Elastic Constant Matrix: (Units=GPa)
#
#
# Indices 1 2 3 4 5 6 
#
# 1 117.1857 43.1250 10.6955 0.0000 0.0000 0.0000
# 2 43.1250 117.1829 10.6947 0.0000 0.0000 0.0000
# 3 10.6955 10.6947 79.2586 0.0000 0.0000 0.0000
# 4 0.0000 0.0000 0.0000 29.4758 0.0000 0.0000
# 5 0.0000 0.0000 0.0000 0.0000 29.4752 0.0000
# 6 0.0000 0.0000 0.0000 0.0000 0.0000 34.1577
#
#
#
# Elastic Compliance Matrix: (Units=1/GPa)
#
#
# Indices 1 2 3 4 5 6 
#
# 1 0.009927 -0.003575 -0.000857 0.000000 0.000000 0.000000
# 2 -0.003575 0.009928 -0.000857 0.000000 0.000000 0.000000
# 3 -0.000857 -0.000857 0.012848 0.000000 0.000000 0.000000
# 4 0.000000 0.000000 0.000000 0.033926 0.000000 0.000000
# 5 0.000000 0.000000 0.000000 0.000000 0.033927 0.000000
# 6 0.000000 0.000000 0.000000 0.000000 0.000000 0.029276
#
#
# Mechanical properties :
#
#
# Convention : Reuss Voigt Hill
#
# Bulk Modulus (GPa) = 45.19941 49.18418 47.19180
# Shear Modulus (GPa) = 33.83271 35.22922 34.53097
#
# Velocity S-wave (km/s) = 3.78889 3.86629 3.82778
# Velocity P-wave (km/s) = 6.19028 6.38752 6.28967
#
# Compressibility (1/GPa) = 0.02212418
#
# Stress axis : x y z
#
# Youngs Moduli (GPa) = 100.73144 100.72914 77.83154
#
# Poissons Ratio (x) = 0.36013 0.06672
# Poissons Ratio (y) = 0.36013 0.06671
# Poissons Ratio (z) = 0.08635 0.08634
#
# Static dielectric constant tensor:
#      x y z
#    x 1.892500 0.000000 0.000000 
#    y 0.000000 1.892510 0.000000 
#    z 0.000000 0.000000 2.015740 
# 
# From -- ./inp_files/3874.got.cif
#   From: 2010.05.17/outbox.cif.g08.bks.cpg/sg96_2_cif.got.tgz:3874.got - 2010.06.03 19:52:08.
