data_PCOD9551595
_publ_section_title
;
Structure prediction by ZEFSAII (Michael W. Deem and Ramdas Pophale) SiO2 
 PCOD9551595
Probable space group: I 4 2 2 
;
_chemical_formula_sum "Si O2"
_cell_formula_units_Z 40
_cell_length_a 8.430781
_cell_length_b 8.430781
_cell_length_c 24.809180
_cell_angle_alpha 90.000000
_cell_angle_beta 90.000000
_cell_angle_gamma 90.000000
_cell_volume 1763.388590
_symmetry_space_group_name_H-M "I 4 2 2 "
_symmetry_group_IT_number 97
_symmetry_cell_setting 'tetragonal'
loop_
_space_group_symop_operation_xyz
x,y,z
-y,x,z
-x,-y,z
y,-x,z
x,-y,-z
-x,y,-z
y,x,-z
-y,-x,-z
1/2+x,1/2+y,1/2+z
1/2-y,1/2+x,1/2+z
1/2-x,1/2-y,1/2+z
1/2+y,1/2-x,1/2+z
1/2+x,1/2-y,1/2-z
1/2-x,1/2+y,1/2-z
1/2+y,1/2+x,1/2-z
1/2-y,1/2-x,1/2-z
loop_
_atom_site_type_symbol
_atom_site_label
_atom_site_fract_x
_atom_site_fract_y
_atom_site_fract_z
Si Si1 0.500000 0.768618 0.500000
Si Si2 0.073209 0.745721 0.704870
Si Si3 0.423759 0.758908 0.079539
O O1 0.356072 0.643929 0.500000
O O2 0.587866 0.874363 0.545757
O O3 0.122078 0.622078 0.750000
O O4 0.089774 0.696664 0.642609
O O5 0.897063 0.811888 0.711785
O O6 0.309569 0.603092 0.069587
#
# Coordination Sequence:
#
# PCOD9551595 Si02
#       3
#     8  16  16
#     4  11  26  41  60  94 132 170 220 288 346 390
#     4   9  19  37  63  96 132 171 218 269 322 387
#     4   9  21  44  69  92 128 184 236 276 334 412
#
# _framework density 22.683596999999999
#
# number of rings (size 3 to 8) (size 9 to 14) (size 15 to 20)
#    0.000    2.600    0.000    2.400    0.000   10.400 
#    0.000   14.000    0.000    0.000    0.000    0.000 
#    0.000    0.000    0.000    0.000    0.000    0.000 
#
# Total GULP energy -111401.806869 kJ/mol
# GULP energy per Si atom -5570.090343 kJ/mol
# Density = 2.263197 g / cm^3
# Si number density = 22.683597 Si / 1000 Ang^3
#
#
#
# Elastic Constant Matrix: (Units=GPa)
#
#
# Indices 1 2 3 4 5 6 
#
# 1 90.4999 153.9718 121.5280 0.0000 0.0000 0.0000
# 2 153.9718 90.4999 121.5290 0.0000 0.0000 0.0000
# 3 121.5280 121.5290 184.1076 0.0000 0.0000 0.0000
# 4 0.0000 0.0000 0.0000 48.8628 0.0000 0.0000
# 5 0.0000 0.0000 0.0000 0.0000 48.8612 0.0000
# 6 0.0000 0.0000 0.0000 0.0000 0.0000 53.4061
#
#
#
# Elastic Compliance Matrix: (Units=1/GPa)
#
#
# Indices 1 2 3 4 5 6 
#
# 1 -0.001927 0.013828 -0.007856 0.000000 0.000000 0.000000
# 2 0.013828 -0.001927 -0.007855 0.000000 0.000000 0.000000
# 3 -0.007856 -0.007855 0.015802 0.000000 0.000000 0.000000
# 4 0.000000 0.000000 0.000000 0.020465 0.000000 0.000000
# 5 0.000000 0.000000 0.000000 0.000000 0.020466 0.000000
# 6 0.000000 0.000000 0.000000 0.000000 0.000000 0.018724
#
#
# Mechanical properties :
#
#
# Convention : Reuss Voigt Hill
#
# Bulk Modulus (GPa) = 122.22793 128.79610 125.51202
# Shear Modulus (GPa) = 64.02305 28.09793 46.06049
#
# Velocity S-wave (km/s) = 5.31843 3.52332 4.51107
# Velocity P-wave (km/s) = 9.57680 8.57055 9.08761
#
# Compressibility (1/GPa) = 0.00818144
#
# Stress axis : x y z
#
# Youngs Moduli (GPa) = -518.88938 -518.81932 63.28236
#
# Poissons Ratio (x) = 7.17407 0.49711
# Poissons Ratio (y) = 7.17504 0.49710
# Poissons Ratio (z) = -4.07614 -4.07545
#
# Static dielectric constant tensor:
#      x y z
#    x 1.869750 0.000000 0.000000 
#    y 0.000000 1.869750 0.000000 
#    z 0.000000 0.000000 1.889680 
# 
# From -- ./inp_files/6931.got.cif
#   From: 2010.05.17/outbox.cif.g08.bks.cpg/sg97_4_cif.got.tgz:6931.got - 2010.06.03 19:55:32.
