data_PCOD9551917
_publ_section_title
;
Structure prediction by ZEFSAII (Michael W. Deem and Ramdas Pophale) SiO2 
 PCOD9551917
Probable space group: I 41 2 2
;
_chemical_formula_sum "Si O2"
_cell_formula_units_Z 52
_cell_length_a 18.275329
_cell_length_b 18.275329
_cell_length_c 6.670345
_cell_angle_alpha 90.000000
_cell_angle_beta 90.000000
_cell_angle_gamma 90.000000
_cell_volume 2227.812852
_symmetry_space_group_name_H-M "I 41 2 2"
_symmetry_group_IT_number 98
_symmetry_cell_setting 'tetragonal'
loop_
_space_group_symop_operation_xyz
x,y,z
-y,1/2+x,1/4+z
-x,-y,z
y,1/2-x,1/4+z
x,1/2-y,1/4-z
-x,1/2+y,1/4-z
y,x,-z
-y,-x,-z
1/2+x,1/2+y,1/2+z
1/2-y,x,3/4+z
1/2-x,1/2-y,1/2+z
1/2+y,-x,3/4+z
1/2+x,-y,3/4-z
1/2-x,y,3/4-z
1/2+y,1/2+x,1/2-z
1/2-y,1/2-x,1/2-z
loop_
_atom_site_type_symbol
_atom_site_label
_atom_site_fract_x
_atom_site_fract_y
_atom_site_fract_z
Si Si1 0.000000 0.000000 0.500000
Si Si2 0.250000 0.015120 0.375000
Si Si3 0.815266 0.063636 0.007205
Si Si4 0.559857 0.639521 0.787464
Si Si5 0.173031 0.326970 0.250000
O O1 0.986876 0.929742 0.360962
O O2 0.204698 0.960290 0.230929
O O3 0.301869 0.059240 0.218813
O O4 0.884824 0.115177 0.000000
O O5 0.750000 0.099398 0.875000
O O6 0.828542 0.988397 0.889951
O O7 0.638696 0.625373 0.685940
O O8 0.250000 0.328776 0.375000
#
# Coordination Sequence:
#
# PCOD9551917 Si02
#       5
#     4   8  16  16   8
#     4  12  28  44  84 116 146 198 268 318 416 458
#     4  10  22  48  76 102 152 198 246 316 404 450
#     4  10  22  43  70 106 149 191 246 314 389 468
#     4  11  27  46  77 112 149 199 256 334 382 472
#     4  12  30  54  74 110 160 216 268 324 386 466
#
# _framework density 23.341277999999999
#
# number of rings (size 3 to 8) (size 9 to 14) (size 15 to 20)
#    0.000    1.231    0.000    4.615   12.923    4.923 
#    5.538    0.000    0.000    0.000    0.000    0.000 
#    0.000    0.000    0.000    0.000    0.000    0.000 
#
# Total GULP energy -144883.013409 kJ/mol
# GULP energy per Si atom -5572.423593 kJ/mol
# Density = 2.328815 g / cm^3
# Si number density = 23.341278 Si / 1000 Ang^3
#
#
#
# Elastic Constant Matrix: (Units=GPa)
#
#
# Indices 1 2 3 4 5 6 
#
# 1 113.9528 60.0902 90.1132 0.0000 0.0000 0.0000
# 2 60.0902 113.9570 90.1137 0.0000 0.0000 0.0000
# 3 90.1132 90.1137 225.5142 0.0000 0.0000 0.0000
# 4 0.0000 0.0000 0.0000 51.9168 0.0000 0.0000
# 5 0.0000 0.0000 0.0000 0.0000 51.9129 0.0000
# 6 0.0000 0.0000 0.0000 0.0000 0.0000 18.3873
#
#
#
# Elastic Compliance Matrix: (Units=1/GPa)
#
#
# Indices 1 2 3 4 5 6 
#
# 1 0.014183 -0.004382 -0.003917 0.000000 0.000000 0.000000
# 2 -0.004382 0.014183 -0.003916 0.000000 0.000000 0.000000
# 3 -0.003917 -0.003916 0.007564 0.000000 0.000000 0.000000
# 4 0.000000 0.000000 0.000000 0.019262 0.000000 0.000000
# 5 0.000000 0.000000 0.000000 0.000000 0.019263 0.000000
# 6 0.000000 0.000000 0.000000 0.000000 0.000000 0.054385
#
#
# Mechanical properties :
#
#
# Convention : Reuss Voigt Hill
#
# Bulk Modulus (GPa) = 86.95033 103.78424 95.36729
# Shear Modulus (GPa) = 31.82610 38.65053 35.23832
#
# Velocity S-wave (km/s) = 3.69658 4.07367 3.88970
# Velocity P-wave (km/s) = 7.45334 8.16620 7.81790
#
# Compressibility (1/GPa) = 0.01150082
#
# Stress axis : x y z
#
# Youngs Moduli (GPa) = 70.50461 70.50797 132.20000
#
# Poissons Ratio (x) = 0.30896 0.51777
# Poissons Ratio (y) = 0.30894 0.51774
# Poissons Ratio (z) = 0.27614 0.27614
#
# Static dielectric constant tensor:
#      x y z
#    x 2.038130 0.000000 0.000000 
#    y 0.000000 2.038130 0.000000 
#    z 0.000000 0.000000 1.975910 
# 
# From -- ./inp_files/1017.got.cif
#   From: 2010.05.17/outbox.cif.g08.bks.cpg/sg98_1_cif.got.tgz:1017.got - 2010.06.03 20:00:51.
