data_PCOD9551430
_publ_section_title
;
Structure prediction by ZEFSAII (Michael W. Deem and Ramdas Pophale) SiO2 
 PCOD9551430
Probable space group: I 4 2 2 
;
_chemical_formula_sum "Si O2"
_cell_formula_units_Z 88
_cell_length_a 15.198567
_cell_length_b 15.198567
_cell_length_c 19.108200
_cell_angle_alpha 90.000000
_cell_angle_beta 90.000000
_cell_angle_gamma 90.000000
_cell_volume 4413.926153
_symmetry_space_group_name_H-M "I 4 2 2 "
_symmetry_group_IT_number 97
_symmetry_cell_setting 'tetragonal'
loop_
_space_group_symop_operation_xyz
x,y,z
-y,x,z
-x,-y,z
y,-x,z
x,-y,-z
-x,y,-z
y,x,-z
-y,-x,-z
1/2+x,1/2+y,1/2+z
1/2-y,1/2+x,1/2+z
1/2-x,1/2-y,1/2+z
1/2+y,1/2-x,1/2+z
1/2+x,1/2-y,1/2-z
1/2-x,1/2+y,1/2-z
1/2+y,1/2+x,1/2-z
1/2-y,1/2-x,1/2-z
loop_
_atom_site_type_symbol
_atom_site_label
_atom_site_fract_x
_atom_site_fract_y
_atom_site_fract_z
Si Si1 0.254056 0.132440 0.378463
Si Si2 0.863778 0.044763 0.731672
Si Si3 0.915633 0.561193 0.666470
Si Si4 0.318424 0.306684 0.423542
Si Si5 0.892989 0.892989 0.500000
Si Si6 0.501514 0.725296 0.375074
O O1 0.215059 0.084215 0.311487
O O2 0.351318 0.087404 0.382983
O O3 0.279499 0.234905 0.370258
O O4 0.176391 0.128489 0.436885
O O5 0.837080 0.035383 0.812132
O O6 0.946384 0.106281 0.713813
O O7 0.915995 0.584005 0.750000
O O8 0.825781 0.509006 0.650106
O O9 0.000000 0.500000 0.653147
O O10 0.283065 0.283065 0.500000
O O11 0.296938 0.404194 0.399105
O O12 0.422864 0.292070 0.431461
O O13 0.000000 0.881931 0.500000
#
# Coordination Sequence:
#
# PCOD9551430 Si02
#       6
#    16  16  16  16   8  16
#     4  11  23  43  66  94 136 177 223 280 334 408
#     4  11  22  39  63  99 132 166 218 283 345 400
#     4  10  22  41  64  97 135 174 224 278 338 409
#     4  11  24  43  66  97 135 181 225 274 335 412
#     4  11  24  44  68  96 128 175 228 280 342 401
#     4  11  22  40  67  96 136 173 223 277 342 400
#
# _framework density 19.936897999999999
#
# number of rings (size 3 to 8) (size 9 to 14) (size 15 to 20)
#    0.000    1.182    4.545    1.636    0.000    4.727 
#    0.000    0.909    0.000    0.000    0.000    0.000 
#    0.000    0.000    0.000    0.000    0.000    0.000 
#
# Total GULP energy -245013.847139 kJ/mol
# GULP energy per Si atom -5568.496526 kJ/mol
# Density = 1.989152 g / cm^3
# Si number density = 19.936898 Si / 1000 Ang^3
#
#
#
# Elastic Constant Matrix: (Units=GPa)
#
#
# Indices 1 2 3 4 5 6 
#
# 1 114.7510 78.0835 25.6361 0.0000 0.0000 0.0000
# 2 78.0835 114.7513 25.6360 0.0000 0.0000 0.0000
# 3 25.6361 25.6360 54.0163 0.0000 0.0000 0.0000
# 4 0.0000 0.0000 0.0000 21.2591 0.0000 0.0000
# 5 0.0000 0.0000 0.0000 0.0000 21.2592 0.0000
# 6 0.0000 0.0000 0.0000 0.0000 0.0000 28.7115
#
#
#
# Elastic Compliance Matrix: (Units=1/GPa)
#
#
# Indices 1 2 3 4 5 6 
#
# 1 0.016603 -0.010669 -0.002817 0.000000 0.000000 0.000000
# 2 -0.010669 0.016603 -0.002817 0.000000 0.000000 0.000000
# 3 -0.002817 -0.002817 0.021186 0.000000 0.000000 0.000000
# 4 0.000000 0.000000 0.000000 0.047039 0.000000 0.000000
# 5 0.000000 0.000000 0.000000 0.000000 0.047038 0.000000
# 6 0.000000 0.000000 0.000000 0.000000 0.000000 0.034829
#
#
# Mechanical properties :
#
#
# Convention : Reuss Voigt Hill
#
# Bulk Modulus (GPa) = 45.89381 60.24777 53.07079
# Shear Modulus (GPa) = 22.40481 24.52348 23.46415
#
# Velocity S-wave (km/s) = 3.35593 3.51102 3.43435
# Velocity P-wave (km/s) = 6.17137 6.83529 6.51180
#
# Compressibility (1/GPa) = 0.02178943
#
# Stress axis : x y z
#
# Youngs Moduli (GPa) = 60.22874 60.22896 47.20002
#
# Poissons Ratio (x) = 0.64256 0.13294
# Poissons Ratio (y) = 0.64256 0.13294
# Poissons Ratio (z) = 0.16964 0.16964
#
# Static dielectric constant tensor:
#      x y z
#    x 1.709620 0.000000 0.000000 
#    y 0.000000 1.709620 0.000000 
#    z 0.000000 0.000000 1.774700 
# 
# From -- ./inp_files/6561.got.cif
#   From: 2010.05.17/outbox.cif.g08.bks.cpg/sg97_4_cif.got.tgz:6561.got - 2010.06.03 19:55:32.
