data_PCOD9551467
_publ_section_title
;
Structure prediction by ZEFSAII (Michael W. Deem and Ramdas Pophale) SiO2 
 PCOD9551467
Probable space group: I 4 2 2 
;
_chemical_formula_sum "Si O2"
_cell_formula_units_Z 80
_cell_length_a 16.284689
_cell_length_b 16.284689
_cell_length_c 14.470988
_cell_angle_alpha 90.000000
_cell_angle_beta 90.000000
_cell_angle_gamma 90.000000
_cell_volume 3837.577165
_symmetry_space_group_name_H-M "I 4 2 2 "
_symmetry_group_IT_number 97
_symmetry_cell_setting 'tetragonal'
loop_
_space_group_symop_operation_xyz
x,y,z
-y,x,z
-x,-y,z
y,-x,z
x,-y,-z
-x,y,-z
y,x,-z
-y,-x,-z
1/2+x,1/2+y,1/2+z
1/2-y,1/2+x,1/2+z
1/2-x,1/2-y,1/2+z
1/2+y,1/2-x,1/2+z
1/2+x,1/2-y,1/2-z
1/2-x,1/2+y,1/2-z
1/2+y,1/2+x,1/2-z
1/2-y,1/2-x,1/2-z
loop_
_atom_site_type_symbol
_atom_site_label
_atom_site_fract_x
_atom_site_fract_y
_atom_site_fract_z
Si Si1 0.860423 0.500000 0.500000
Si Si2 0.724910 0.261291 0.109299
Si Si3 0.743599 0.547430 0.842338
Si Si4 0.365871 0.500000 0.000000
Si Si5 0.628652 0.918916 0.647039
Si Si6 0.894532 0.708670 0.828277
O O1 0.906190 0.439548 0.569793
O O2 0.816941 0.437472 0.424492
O O3 0.721571 0.358033 0.136064
O O4 0.651457 0.200065 0.136451
O O5 0.813287 0.237797 0.152149
O O6 0.736014 0.263987 0.000000
O O7 0.684725 0.496294 0.906788
O O8 0.831098 0.507913 0.868666
O O9 0.741511 0.539706 0.732376
O O10 0.421265 0.421265 0.000000
O O11 0.591567 0.908434 0.750000
O O12 0.859745 0.640256 0.750000
#
# Coordination Sequence:
#
# PCOD9551467 Si02
#       6
#     8  16  16   8  16  16
#     4  12  24  46  67  96 140 179 224 283 340 414
#     4  11  22  42  70  95 132 187 233 285 340 405
#     4  11  22  40  65  98 132 179 227 279 346 410
#     4  11  24  40  64 101 138 176 230 299 362 420
#     4  12  24  42  70 102 140 187 233 282 352 415
#     4  10  23  43  66  94 131 175 230 275 334 407
#
# _framework density 20.846488000000001
#
# number of rings (size 3 to 8) (size 9 to 14) (size 15 to 20)
#    0.000    0.900    4.000    4.800    2.800    0.000 
#    0.000   11.000    0.000    0.000    0.000    0.000 
#    0.000    1.600    0.000    0.000    0.000    0.000 
#
# Total GULP energy -222763.591617 kJ/mol
# GULP energy per Si atom -5569.089790 kJ/mol
# Density = 2.079904 g / cm^3
# Si number density = 20.846488 Si / 1000 Ang^3
#
#
#
# Elastic Constant Matrix: (Units=GPa)
#
#
# Indices 1 2 3 4 5 6 
#
# 1 67.0664 45.8080 39.1444 0.0000 0.0000 0.0000
# 2 45.8080 67.0664 39.1443 0.0000 0.0000 0.0000
# 3 39.1444 39.1443 180.2623 0.0000 0.0000 0.0000
# 4 0.0000 0.0000 0.0000 26.2010 0.0000 0.0000
# 5 0.0000 0.0000 0.0000 0.0000 26.2009 0.0000
# 6 0.0000 0.0000 0.0000 0.0000 0.0000 631.0431
#
#
#
# Elastic Compliance Matrix: (Units=1/GPa)
#
#
# Indices 1 2 3 4 5 6 
#
# 1 0.028735 -0.018305 -0.002265 0.000000 0.000000 0.000000
# 2 -0.018305 0.028735 -0.002265 0.000000 0.000000 0.000000
# 3 -0.002265 -0.002265 0.006531 0.000000 0.000000 0.000000
# 4 0.000000 0.000000 0.000000 0.038166 0.000000 0.000000
# 5 0.000000 0.000000 0.000000 0.000000 0.038167 0.000000
# 6 0.000000 0.000000 0.000000 0.000000 0.000000 0.001585
#
#
# Mechanical properties :
#
#
# Convention : Reuss Voigt Hill
#
# Bulk Modulus (GPa) = 54.54942 62.50983 58.52963
# Shear Modulus (GPa) = 25.81314 149.37556 87.59435
#
# Velocity S-wave (km/s) = 3.52269 8.47411 6.48922
# Velocity P-wave (km/s) = 6.53986 11.21599 9.18064
#
# Compressibility (1/GPa) = 0.01833200
#
# Stress axis : x y z
#
# Youngs Moduli (GPa) = 34.80043 34.80046 153.11205
#
# Poissons Ratio (x) = 0.63702 0.34680
# Poissons Ratio (y) = 0.63702 0.34679
# Poissons Ratio (z) = 0.07882 0.07882
#
# Static dielectric constant tensor:
#      x y z
#    x 1.880140 0.000000 0.000000 
#    y 0.000000 1.880140 0.000000 
#    z 0.000000 0.000000 1.771080 
# 
# From -- ./inp_files/4798.got.cif
#   From: 2010.05.17/outbox.cif.g08.bks.cpg/sg97_3_cif.got.tgz:4798.got - 2010.06.03 19:55:32.
