data_PCOD9551052
_publ_section_title
;
Structure prediction by ZEFSAII (Michael W. Deem and Ramdas Pophale) SiO2 
 PCOD9551052
Probable space group: P 43 21 2
;
_chemical_formula_sum "Si O2"
_cell_formula_units_Z 60
_cell_length_a 17.419651
_cell_length_b 17.419651
_cell_length_c 8.804846
_cell_angle_alpha 90.000000
_cell_angle_beta 90.000000
_cell_angle_gamma 90.000000
_cell_volume 2671.779811
_symmetry_space_group_name_H-M "P 43 21 2"
_symmetry_group_IT_number 96
_symmetry_cell_setting 'tetragonal'
loop_
_space_group_symop_operation_xyz
x,y,z
1/2-y,1/2+x,3/4+z
-x,-y,1/2+z
1/2+y,1/2-x,1/4+z
1/2+x,1/2-y,1/4-z
1/2-x,1/2+y,3/4-z
y,x,-z
-y,-x,1/2-z
loop_
_atom_site_type_symbol
_atom_site_label
_atom_site_fract_x
_atom_site_fract_y
_atom_site_fract_z
Si Si1 0.953547 0.558807 0.953513
Si Si2 0.390278 0.206960 0.462160
Si Si3 0.994131 0.005869 0.750000
Si Si4 0.461789 0.747482 0.754416
Si Si5 0.396357 0.457927 0.764359
Si Si6 0.957409 0.317052 0.267096
Si Si7 0.642012 0.715860 0.271644
Si Si8 0.797823 0.311043 0.085213
O O1 0.949507 0.476492 0.876847
O O2 0.015282 0.609941 0.863831
O O3 0.870861 0.595066 0.946102
O O4 0.467957 0.232124 0.371828
O O5 0.367415 0.264637 0.595174
O O6 0.323755 0.187959 0.341317
O O7 0.916084 0.012915 0.654505
O O8 0.047388 0.973121 0.615289
O O9 0.479053 0.663950 0.682182
O O10 0.475571 0.800706 0.606356
O O11 0.382348 0.750696 0.846299
O O12 0.357685 0.375952 0.779748
O O13 0.929784 0.251267 0.386094
O O14 0.879361 0.323151 0.170582
O O15 0.725205 0.739524 0.340895
#
# Coordination Sequence:
#
# PCOD9551052 Si02
#       8
#     8   8   4   8   8   8   8   8
#     4  12  26  42  67  98 143 184 233 293 357 430
#     4  11  24  44  70 108 141 192 242 300 366 442
#     4  10  24  42  68 106 130 176 246 296 354 430
#     4  11  24  44  73 103 147 186 239 294 380 431
#     4  11  22  45  75  99 138 188 239 299 367 440
#     4  11  24  44  67 106 136 191 238 297 351 443
#     4  12  23  47  76 104 140 193 255 292 368 448
#     4  11  25  42  73 104 141 187 240 301 361 445
#
# _framework density 22.456941
#
# number of rings (size 3 to 8) (size 9 to 14) (size 15 to 20)
#    0.000    0.800    4.000    4.000    5.600    0.000 
#    4.800    1.333    5.867    0.000    0.000    0.000 
#    0.000    0.000    0.000    0.000    0.000    0.000 
#
# Total GULP energy -334426.843760 kJ/mol
# GULP energy per Si atom -5573.780729 kJ/mol
# Density = 2.240583 g / cm^3
# Si number density = 22.456941 Si / 1000 Ang^3
#
#
#
# Elastic Constant Matrix: (Units=GPa)
#
#
# Indices 1 2 3 4 5 6 
#
# 1 26.9791 52.4590 13.8954 0.0000 0.0000 0.0000
# 2 52.4590 26.9791 13.8954 0.0000 0.0000 0.0000
# 3 13.8954 13.8954 103.5109 0.0000 0.0000 0.0000
# 4 0.0000 0.0000 0.0000 37.2146 0.0000 0.0000
# 5 0.0000 0.0000 0.0000 0.0000 37.2146 0.0000
# 6 0.0000 0.0000 0.0000 0.0000 0.0000 20.5477
#
#
#
# Elastic Compliance Matrix: (Units=1/GPa)
#
#
# Indices 1 2 3 4 5 6 
#
# 1 -0.013019 0.026228 -0.001773 0.000000 0.000000 0.000000
# 2 0.026228 -0.013019 -0.001773 0.000000 0.000000 0.000000
# 3 -0.001773 -0.001773 0.010137 0.000000 0.000000 0.000000
# 4 0.000000 0.000000 0.000000 0.026871 0.000000 0.000000
# 5 0.000000 0.000000 0.000000 0.000000 0.026871 0.000000
# 6 0.000000 0.000000 0.000000 0.000000 0.000000 0.048667
#
#
# Mechanical properties :
#
#
# Convention : Reuss Voigt Hill
#
# Bulk Modulus (GPa) = 33.94233 35.32987 34.63610
# Shear Modulus (GPa) = 98.10383 24.14333 61.12358
#
# Velocity S-wave (km/s) = 6.61666 3.28242 5.22276
# Velocity P-wave (km/s) = 8.57442 5.48927 7.19906
#
# Compressibility (1/GPa) = 0.02946174
#
# Stress axis : x y z
#
# Youngs Moduli (GPa) = -76.81102 -76.81102 98.64970
#
# Poissons Ratio (x) = 2.01458 0.17492
# Poissons Ratio (y) = 2.01458 0.17492
# Poissons Ratio (z) = -0.13620 -0.13620
#
# Static dielectric constant tensor:
#      x y z
#    x 1.866330 0.000000 0.000000 
#    y 0.000000 1.866330 0.000000 
#    z 0.000000 0.000000 1.898160 
# 
# From -- ./inp_files/1626.got.cif
#   From: 2010.05.17/outbox.cif.g08.bks.cpg/sg96_1_cif.got.tgz:1626.got - 2010.06.03 19:52:08.
