data_PCOD9551550
_publ_section_title
;
Structure prediction by ZEFSAII (Michael W. Deem and Ramdas Pophale) SiO2 
 PCOD9551550
Probable space group: I 4 2 2 
;
_chemical_formula_sum "Si O2"
_cell_formula_units_Z 64
_cell_length_a 10.752003
_cell_length_b 10.752003
_cell_length_c 24.832763
_cell_angle_alpha 90.000000
_cell_angle_beta 90.000000
_cell_angle_gamma 90.000000
_cell_volume 2870.805684
_symmetry_space_group_name_H-M "I 4 2 2 "
_symmetry_group_IT_number 97
_symmetry_cell_setting 'tetragonal'
loop_
_space_group_symop_operation_xyz
x,y,z
-y,x,z
-x,-y,z
y,-x,z
x,-y,-z
-x,y,-z
y,x,-z
-y,-x,-z
1/2+x,1/2+y,1/2+z
1/2-y,1/2+x,1/2+z
1/2-x,1/2-y,1/2+z
1/2+y,1/2-x,1/2+z
1/2+x,1/2-y,1/2-z
1/2-x,1/2+y,1/2-z
1/2+y,1/2+x,1/2-z
1/2-y,1/2-x,1/2-z
loop_
_atom_site_type_symbol
_atom_site_label
_atom_site_fract_x
_atom_site_fract_y
_atom_site_fract_z
Si Si1 0.855285 0.645025 0.017825
Si Si2 0.258893 0.388234 0.702735
Si Si3 0.105701 0.332893 0.144295
Si Si4 0.481893 0.306994 0.806686
O O1 0.863797 0.646997 0.082457
O O2 0.827890 0.500000 0.000000
O O3 0.749368 0.749368 0.000000
O O4 0.000000 0.673927 0.000000
O O5 0.191913 0.308088 0.750000
O O6 0.173924 0.462959 0.660969
O O7 0.336907 0.297807 0.664738
O O8 0.314688 0.495175 0.742575
O O9 0.171707 0.440129 0.178541
O O10 0.605998 0.370552 0.828236
#
# Coordination Sequence:
#
# PCOD9551550 Si02
#       4
#    16  16  16  16
#     4  11  28  54  80 114 151 200 279 343 390 467
#     4  12  23  43  65 110 146 187 235 284 364 467
#     4  12  26  44  75 101 144 199 235 303 386 430
#     4  11  23  42  63 100 150 182 229 285 350 460
#
# _framework density 22.293392000000001
#
# number of rings (size 3 to 8) (size 9 to 14) (size 15 to 20)
#    0.000    0.500    5.000    2.250    3.500    7.000 
#    0.000    2.500    0.000    0.000    0.000    0.000 
#    0.000    0.000    0.000    0.000    0.000    0.000 
#
# Total GULP energy -178218.018957 kJ/mol
# GULP energy per Si atom -5569.313092 kJ/mol
# Density = 2.224265 g / cm^3
# Si number density = 22.293392 Si / 1000 Ang^3
#
#
#
# Elastic Constant Matrix: (Units=GPa)
#
#
# Indices 1 2 3 4 5 6 
#
# 1 76.4028 82.2365 28.1996 0.0000 0.0000 0.0000
# 2 82.2365 76.3932 28.1979 0.0000 0.0000 0.0000
# 3 28.1996 28.1979 144.5415 0.0000 0.0000 0.0000
# 4 0.0000 0.0000 0.0000 26.4083 0.0000 0.0000
# 5 0.0000 0.0000 0.0000 0.0000 26.4083 0.0000
# 6 0.0000 0.0000 0.0000 0.0000 0.0000 60.8699
#
#
#
# Elastic Compliance Matrix: (Units=1/GPa)
#
#
# Indices 1 2 3 4 5 6 
#
# 1 -0.082246 0.089024 -0.001321 0.000000 0.000000 0.000000
# 2 0.089024 -0.082256 -0.001321 0.000000 0.000000 0.000000
# 3 -0.001321 -0.001321 0.007434 0.000000 0.000000 0.000000
# 4 0.000000 0.000000 0.000000 0.037867 0.000000 0.000000
# 5 0.000000 0.000000 0.000000 0.000000 0.037867 0.000000
# 6 0.000000 0.000000 0.000000 0.000000 0.000000 0.016428
#
#
# Mechanical properties :
#
#
# Convention : Reuss Voigt Hill
#
# Bulk Modulus (GPa) = 63.71304 63.84505 63.77904
# Shear Modulus (GPa) = -21.51126 33.31753 5.90313
#
# Velocity S-wave (km/s) = -3.10968 3.87007 1.62901
# Velocity P-wave (km/s) = 3.96836 6.97644 5.67532
#
# Compressibility (1/GPa) = 0.01569538
#
# Stress axis : x y z
#
# Youngs Moduli (GPa) = -12.15871 -12.15717 134.51632
#
# Poissons Ratio (x) = 1.08228 0.17776
# Poissons Ratio (y) = 1.08242 0.17776
# Poissons Ratio (z) = -0.01607 -0.01607
#
# Static dielectric constant tensor:
#      x y z
#    x 1.976550 0.000000 0.000000 
#    y 0.000000 1.976560 0.000000 
#    z 0.000000 0.000000 1.778660 
# 
# From -- ./inp_files/6330.got.cif
#   From: 2010.05.17/outbox.cif.g08.bks.cpg/sg97_4_cif.got.tgz:6330.got - 2010.06.03 19:55:32.
