data_PCOD9551070
_publ_section_title
;
Structure prediction by ZEFSAII (Michael W. Deem and Ramdas Pophale) SiO2 
 PCOD9551070
Probable space group: P 43 21 2
;
_chemical_formula_sum "Si O2"
_cell_formula_units_Z 56
_cell_length_a 11.032936
_cell_length_b 11.032936
_cell_length_c 19.180535
_cell_angle_alpha 90.000000
_cell_angle_beta 90.000000
_cell_angle_gamma 90.000000
_cell_volume 2334.763604
_symmetry_space_group_name_H-M "P 43 21 2"
_symmetry_group_IT_number 96
_symmetry_cell_setting 'tetragonal'
loop_
_space_group_symop_operation_xyz
x,y,z
1/2-y,1/2+x,3/4+z
-x,-y,1/2+z
1/2+y,1/2-x,1/4+z
1/2+x,1/2-y,1/4-z
1/2-x,1/2+y,3/4-z
y,x,-z
-y,-x,1/2-z
loop_
_atom_site_type_symbol
_atom_site_label
_atom_site_fract_x
_atom_site_fract_y
_atom_site_fract_z
Si Si1 0.549277 0.976839 0.355022
Si Si2 0.863279 0.070199 0.508315
Si Si3 0.228881 0.716471 0.923489
Si Si4 0.071995 0.185540 0.569933
Si Si5 0.705563 0.865402 0.548239
Si Si6 0.578881 0.382171 0.521999
Si Si7 0.131789 0.448909 0.519531
O O1 0.635790 0.064031 0.309452
O O2 0.524344 0.049188 0.425861
O O3 0.624085 0.856010 0.365321
O O4 0.434999 0.947044 0.305739
O O5 0.827284 0.153842 0.443765
O O6 0.926964 0.164442 0.560886
O O7 0.741676 0.002754 0.530329
O O8 0.955221 0.955221 0.500000
O O9 0.339260 0.731123 0.871320
O O10 0.290020 0.645526 0.987656
O O11 0.120344 0.120344 0.500000
O O12 0.098749 0.128224 0.644652
O O13 0.123802 0.318995 0.557983
O O14 0.763372 0.763372 0.500000
O O15 0.503466 0.503466 0.500000
O O16 0.497791 0.265999 0.496431
#
# Coordination Sequence:
#
# PCOD9551070 Si02
#       7
#     8   8   8   8   8   8   8
#     4  12  26  45  73 108 149 201 255 327 392 473
#     4  10  24  47  74 102 144 197 252 317 388 467
#     4  12  26  47  75 109 152 200 263 325 391 483
#     4  11  25  46  76 113 151 203 260 325 399 480
#     4  11  25  45  74 101 145 199 251 311 390 465
#     4  12  27  48  77 116 160 206 264 335 404 490
#     4  12  24  48  75 109 153 201 264 323 400 472
#
# _framework density 23.985296999999999
#
# number of rings (size 3 to 8) (size 9 to 14) (size 15 to 20)
#    0.000    0.571    4.286    3.000    4.000    2.857 
#    5.143    0.000    0.000    0.000    0.000    0.000 
#    0.000    0.000    0.000    0.000    0.000    0.000 
#
# Total GULP energy -312737.466843 kJ/mol
# GULP energy per Si atom -5584.597622 kJ/mol
# Density = 2.393071 g / cm^3
# Si number density = 23.985297 Si / 1000 Ang^3
#
#
#
# Elastic Constant Matrix: (Units=GPa)
#
#
# Indices 1 2 3 4 5 6 
#
# 1 33.3262 51.3317 20.2247 0.0000 0.0000 0.0000
# 2 51.3317 33.3262 20.2247 0.0000 0.0000 0.0000
# 3 20.2247 20.2247 119.2312 0.0000 0.0000 0.0000
# 4 0.0000 0.0000 0.0000 19.0499 0.0000 0.0000
# 5 0.0000 0.0000 0.0000 0.0000 19.0499 0.0000
# 6 0.0000 0.0000 0.0000 0.0000 0.0000 29.8350
#
#
#
# Elastic Compliance Matrix: (Units=1/GPa)
#
#
# Indices 1 2 3 4 5 6 
#
# 1 -0.021342 0.034196 -0.002180 0.000000 0.000000 0.000000
# 2 0.034196 -0.021342 -0.002180 0.000000 0.000000 0.000000
# 3 -0.002180 -0.002180 0.009127 0.000000 0.000000 0.000000
# 4 0.000000 0.000000 0.000000 0.052494 0.000000 0.000000
# 5 0.000000 0.000000 0.000000 0.000000 0.052494 0.000000
# 6 0.000000 0.000000 0.000000 0.000000 0.000000 0.033518
#
#
# Mechanical properties :
#
#
# Convention : Reuss Voigt Hill
#
# Bulk Modulus (GPa) = 38.29466 41.04956 39.67211
# Shear Modulus (GPa) = 92.62602 19.86046 56.24324
#
# Velocity S-wave (km/s) = 6.22107 2.88067 4.84768
# Velocity P-wave (km/s) = 8.22209 5.31187 6.92166
#
# Compressibility (1/GPa) = 0.02611330
#
# Stress axis : x y z
#
# Youngs Moduli (GPa) = -46.85524 -46.85524 109.56786
#
# Poissons Ratio (x) = 1.60228 0.23890
# Poissons Ratio (y) = 1.60228 0.23890
# Poissons Ratio (z) = -0.10216 -0.10216
#
# Static dielectric constant tensor:
#      x y z
#    x 2.037600 0.000000 0.000000 
#    y 0.000000 2.037600 0.000000 
#    z 0.000000 0.000000 1.867130 
# 
# From -- ./inp_files/3541.got.cif
#   From: 2010.05.17/outbox.cif.g08.bks.cpg/sg96_2_cif.got.tgz:3541.got - 2010.06.03 19:52:08.
