data_PCOD9551813
_publ_section_title
;
Structure prediction by ZEFSAII (Michael W. Deem and Ramdas Pophale) SiO2 
 PCOD9551813
Probable space group: I 41 2 2
;
_chemical_formula_sum "Si O2"
_cell_formula_units_Z 76
_cell_length_a 14.144419
_cell_length_b 14.144419
_cell_length_c 20.465958
_cell_angle_alpha 90.000000
_cell_angle_beta 90.000000
_cell_angle_gamma 90.000000
_cell_volume 4094.513473
_symmetry_space_group_name_H-M "I 41 2 2"
_symmetry_group_IT_number 98
_symmetry_cell_setting 'tetragonal'
loop_
_space_group_symop_operation_xyz
x,y,z
-y,1/2+x,1/4+z
-x,-y,z
y,1/2-x,1/4+z
x,1/2-y,1/4-z
-x,1/2+y,1/4-z
y,x,-z
-y,-x,-z
1/2+x,1/2+y,1/2+z
1/2-y,x,3/4+z
1/2-x,1/2-y,1/2+z
1/2+y,-x,3/4+z
1/2+x,-y,3/4-z
1/2-x,y,3/4-z
1/2+y,1/2+x,1/2-z
1/2-y,1/2-x,1/2-z
loop_
_atom_site_type_symbol
_atom_site_label
_atom_site_fract_x
_atom_site_fract_y
_atom_site_fract_z
Si Si1 0.274464 0.814878 0.562899
Si Si2 0.000000 0.000000 0.288335
Si Si3 0.997660 0.863008 0.037248
Si Si4 0.932901 0.358675 0.646272
Si Si5 0.358636 0.519897 0.310005
Si Si6 0.500000 0.000000 0.250000
O O1 0.300142 0.750000 0.625000
O O2 0.247901 0.752100 0.500000
O O3 0.176822 0.865604 0.581862
O O4 0.367311 0.876274 0.550924
O O5 0.922952 0.047417 0.334131
O O6 0.039234 0.078726 0.239567
O O7 0.005982 0.750099 0.038838
O O8 0.996443 0.883213 0.115074
O O9 0.084981 0.915020 0.000000
O O10 0.907246 0.907246 0.000000
O O11 0.949606 0.250000 0.625000
O O12 0.994193 0.407087 0.703896
#
# Coordination Sequence:
#
# PCOD9551813 Si02
#       6
#    16   8  16  16  16   4
#     4  11  20  35  63  96 122 153 197 265 325 368
#     4  11  24  37  59  92 121 162 210 258 305 376
#     4  10  21  38  62  89 127 158 194 254 319 375
#     4  10  22  39  61  89 124 158 201 256 317 365
#     4  11  22  37  59  92 124 159 210 246 316 373
#     4  10  20  40  60  92 126 156 196 256 312 376
#
# _framework density 18.561423999999999
#
# number of rings (size 3 to 8) (size 9 to 14) (size 15 to 20)
#    0.000    1.474    3.158    4.421    2.947    0.000 
#    0.000    0.000    6.947    0.000    0.000    0.000 
#    0.000    0.000    0.000    0.000    0.000    0.000 
#
# Total GULP energy -211819.998303 kJ/mol
# GULP energy per Si atom -5574.210482 kJ/mol
# Density = 1.851918 g / cm^3
# Si number density = 18.561424 Si / 1000 Ang^3
#
#
#
# Elastic Constant Matrix: (Units=GPa)
#
#
# Indices 1 2 3 4 5 6 
#
# 1 83.2914 38.1060 43.3786 0.0000 0.0000 0.0000
# 2 38.1060 83.2927 43.3788 0.0000 0.0000 0.0000
# 3 43.3786 43.3788 147.3134 0.0000 0.0000 0.0000
# 4 0.0000 0.0000 0.0000 37.3699 0.0000 0.0000
# 5 0.0000 0.0000 0.0000 0.0000 37.3699 0.0000
# 6 0.0000 0.0000 0.0000 0.0000 0.0000 31.4400
#
#
#
# Elastic Compliance Matrix: (Units=1/GPa)
#
#
# Indices 1 2 3 4 5 6 
#
# 1 0.016282 -0.005849 -0.003072 0.000000 0.000000 0.000000
# 2 -0.005849 0.016282 -0.003072 0.000000 0.000000 0.000000
# 3 -0.003072 -0.003072 0.008598 0.000000 0.000000 0.000000
# 4 0.000000 0.000000 0.000000 0.026760 0.000000 0.000000
# 5 0.000000 0.000000 0.000000 0.000000 0.026760 0.000000
# 6 0.000000 0.000000 0.000000 0.000000 0.000000 0.031807
#
#
# Mechanical properties :
#
#
# Convention : Reuss Voigt Hill
#
# Bulk Modulus (GPa) = 58.22495 62.62492 60.42494
# Shear Modulus (GPa) = 32.01067 33.83823 32.92445
#
# Velocity S-wave (km/s) = 4.15731 4.27434 4.21623
# Velocity P-wave (km/s) = 7.38114 7.62709 7.50512
#
# Compressibility (1/GPa) = 0.01717477
#
# Stress axis : x y z
#
# Youngs Moduli (GPa) = 61.41785 61.41887 116.31272
#
# Poissons Ratio (x) = 0.35923 0.35733
# Poissons Ratio (y) = 0.35923 0.35732
# Poissons Ratio (z) = 0.18868 0.18868
#
# Static dielectric constant tensor:
#      x y z
#    x 1.657000 0.000000 0.000000 
#    y 0.000000 1.657000 0.000000 
#    z 0.000000 0.000000 1.692620 
# 
# From -- ./inp_files/8736.got.cif
#   From: 2010.05.17/outbox.cif.g08.bks.cpg/sg98_5_cif.got.tgz:8736.got - 2010.06.03 20:00:51.
