data_PCOD9551332
_publ_section_title
;
Structure prediction by ZEFSAII (Michael W. Deem and Ramdas Pophale) SiO2 
 PCOD9551332
Probable space group: I 4 2 2 
;
_chemical_formula_sum "Si O2"
_cell_formula_units_Z 68
_cell_length_a 16.666047
_cell_length_b 16.666047
_cell_length_c 12.831188
_cell_angle_alpha 90.000000
_cell_angle_beta 90.000000
_cell_angle_gamma 90.000000
_cell_volume 3563.953858
_symmetry_space_group_name_H-M "I 4 2 2 "
_symmetry_group_IT_number 97
_symmetry_cell_setting 'tetragonal'
loop_
_space_group_symop_operation_xyz
x,y,z
-y,x,z
-x,-y,z
y,-x,z
x,-y,-z
-x,y,-z
y,x,-z
-y,-x,-z
1/2+x,1/2+y,1/2+z
1/2-y,1/2+x,1/2+z
1/2-x,1/2-y,1/2+z
1/2+y,1/2-x,1/2+z
1/2+x,1/2-y,1/2-z
1/2-x,1/2+y,1/2-z
1/2+y,1/2+x,1/2-z
1/2-y,1/2-x,1/2-z
loop_
_atom_site_type_symbol
_atom_site_label
_atom_site_fract_x
_atom_site_fract_y
_atom_site_fract_z
Si Si1 0.057917 0.363810 0.658479
Si Si2 0.276483 0.093729 0.731007
Si Si3 0.851013 0.281604 0.511981
Si Si4 0.216695 0.089285 0.952378
Si Si5 0.500000 0.000000 0.500000
O O1 0.119927 0.380074 0.750000
O O2 0.090906 0.293894 0.584989
O O3 0.044104 0.439058 0.580369
O O4 0.977746 0.340728 0.721075
O O5 0.323103 0.176898 0.750000
O O6 0.250377 0.100922 0.611921
O O7 0.215705 0.082520 0.826116
O O8 0.780677 0.219324 0.500000
O O9 0.802792 0.366583 0.526414
O O10 0.146679 0.146679 0.000000
O O11 0.214572 0.000000 0.000000
#
# Coordination Sequence:
#
# PCOD9551332 Si02
#       5
#    16  16  16  16   4
#     4  12  23  34  59  87 122 163 197 245 304 371
#     4  10  20  37  56  83 121 151 190 245 292 351
#     4  10  22  38  56  82 117 155 199 238 291 363
#     4  10  22  38  59  83 110 149 197 249 300 355
#     4  12  22  36  56  94 124 160 206 240 314 360
#
# _framework density 19.079933
#
# number of rings (size 3 to 8) (size 9 to 14) (size 15 to 20)
#    0.000    1.412    2.353    3.176    4.941    6.824 
#    0.000    0.000    0.000    0.000    0.000    0.000 
#    0.000    1.882    0.000    0.000    0.000    0.000 
#
# Total GULP energy -189357.729264 kJ/mol
# GULP energy per Si atom -5569.344978 kJ/mol
# Density = 1.903651 g / cm^3
# Si number density = 19.079933 Si / 1000 Ang^3
#
#
#
# Elastic Constant Matrix: (Units=GPa)
#
#
# Indices 1 2 3 4 5 6 
#
# 1 62.7231 18.6564 42.3844 0.0000 0.0000 0.0000
# 2 18.6564 62.7192 42.3797 0.0000 0.0000 0.0000
# 3 42.3844 42.3797 171.8890 0.0000 0.0000 0.0000
# 4 0.0000 0.0000 0.0000 12.8827 0.0000 0.0000
# 5 0.0000 0.0000 0.0000 0.0000 12.8858 0.0000
# 6 0.0000 0.0000 0.0000 0.0000 0.0000 17.4045
#
#
#
# Elastic Compliance Matrix: (Units=1/GPa)
#
#
# Indices 1 2 3 4 5 6 
#
# 1 0.019614 -0.003079 -0.004077 0.000000 0.000000 0.000000
# 2 -0.003079 0.019615 -0.004077 0.000000 0.000000 0.000000
# 3 -0.004077 -0.004077 0.007828 0.000000 0.000000 0.000000
# 4 0.000000 0.000000 0.000000 0.077624 0.000000 0.000000
# 5 0.000000 0.000000 0.000000 0.000000 0.077605 0.000000
# 6 0.000000 0.000000 0.000000 0.000000 0.000000 0.057457
#
#
# Mechanical properties :
#
#
# Convention : Reuss Voigt Hill
#
# Bulk Modulus (GPa) = 40.66633 56.01911 48.34272
# Shear Modulus (GPa) = 17.21730 21.56198 19.38964
#
# Velocity S-wave (km/s) = 3.00722 3.36532 3.19130
# Velocity P-wave (km/s) = 5.78081 6.67267 6.24269
#
# Compressibility (1/GPa) = 0.02459037
#
# Stress axis : x y z
#
# Youngs Moduli (GPa) = 50.98362 50.98202 127.74324
#
# Poissons Ratio (x) = 0.15699 0.52084
# Poissons Ratio (y) = 0.15700 0.52078
# Poissons Ratio (z) = 0.20787 0.20784
#
# Static dielectric constant tensor:
#      x y z
#    x 1.607360 0.000000 0.000000 
#    y 0.000000 1.607400 0.000000 
#    z 0.000000 0.000000 1.717160 
# 
# From -- ./inp_files/3566.got.cif
#   From: 2010.05.17/outbox.cif.g08.bks.cpg/sg97_2_cif.got.tgz:3566.got - 2010.06.03 19:55:32.
