data_PCOD9551791
_publ_section_title
;
Structure prediction by ZEFSAII (Michael W. Deem and Ramdas Pophale) SiO2 
 PCOD9551791
Probable space group: I 41 2 2
;
_chemical_formula_sum "Si O2"
_cell_formula_units_Z 96
_cell_length_a 20.437966
_cell_length_b 20.437966
_cell_length_c 11.000959
_cell_angle_alpha 90.000000
_cell_angle_beta 90.000000
_cell_angle_gamma 90.000000
_cell_volume 4595.215581
_symmetry_space_group_name_H-M "I 41 2 2"
_symmetry_group_IT_number 98
_symmetry_cell_setting 'tetragonal'
loop_
_space_group_symop_operation_xyz
x,y,z
-y,1/2+x,1/4+z
-x,-y,z
y,1/2-x,1/4+z
x,1/2-y,1/4-z
-x,1/2+y,1/4-z
y,x,-z
-y,-x,-z
1/2+x,1/2+y,1/2+z
1/2-y,x,3/4+z
1/2-x,1/2-y,1/2+z
1/2+y,-x,3/4+z
1/2+x,-y,3/4-z
1/2-x,y,3/4-z
1/2+y,1/2+x,1/2-z
1/2-y,1/2-x,1/2-z
loop_
_atom_site_type_symbol
_atom_site_label
_atom_site_fract_x
_atom_site_fract_y
_atom_site_fract_z
Si Si1 0.750000 0.460427 0.375000
Si Si2 0.746476 0.569976 0.169873
Si Si3 0.662299 0.162299 0.250000
Si Si4 0.653572 0.504570 0.752735
Si Si5 0.080606 0.750000 0.625000
Si Si6 0.909845 0.123070 0.249966
Si Si7 0.405048 0.049681 0.118990
Si Si8 0.714152 0.785849 0.750000
O O1 0.757239 0.510182 0.262659
O O2 0.815361 0.420617 0.411138
O O3 0.791940 0.548433 0.059636
O O4 0.670519 0.573400 0.131165
O O5 0.770499 0.637737 0.228001
O O6 0.734688 0.131838 0.267286
O O7 0.644015 0.129723 0.121097
O O8 0.689837 0.470047 0.866585
O O9 0.625515 0.439251 0.688140
O O10 0.594772 0.551725 0.782837
O O11 0.977846 0.098079 0.310322
O O12 0.439286 0.060715 0.250000
O O13 0.735190 0.750000 0.625000
#
# Coordination Sequence:
#
# PCOD9551791 Si02
#       8
#     8  16   8  16   8  16  16   8
#     4  10  22  44  65  89 134 174 216 278 368 422
#     4  11  24  42  62  90 133 181 223 287 350 424
#     4  10  20  40  65  92 130 170 222 282 345 408
#     4  11  22  38  65  94 130 169 228 277 343 418
#     4  10  20  38  59  93 130 168 212 286 348 410
#     4  10  22  39  66  99 131 176 222 286 356 422
#     4  11  22  39  64  96 131 174 228 294 354 409
#     4  12  26  46  68  97 136 186 241 290 346 424
#
# _framework density 20.891293999999998
#
# number of rings (size 3 to 8) (size 9 to 14) (size 15 to 20)
#    0.000    1.333    0.833    6.500    3.500    1.333 
#    3.000    3.333    0.000    0.000    0.000    0.000 
#    0.000    0.000    0.000    0.000    0.000    0.000 
#
# Total GULP energy -267298.769024 kJ/mol
# GULP energy per Si atom -5568.724355 kJ/mol
# Density = 2.084374 g / cm^3
# Si number density = 20.891294 Si / 1000 Ang^3
#
#
#
# Elastic Constant Matrix: (Units=GPa)
#
#
# Indices 1 2 3 4 5 6 
#
# 1 94.0998 56.0166 18.2331 0.0000 0.0000 0.0000
# 2 56.0166 94.1006 18.2326 0.0000 0.0000 0.0000
# 3 18.2331 18.2326 51.7770 0.0000 0.0000 0.0000
# 4 0.0000 0.0000 0.0000 28.4129 0.0000 0.0000
# 5 0.0000 0.0000 0.0000 0.0000 28.4123 0.0000
# 6 0.0000 0.0000 0.0000 0.0000 0.0000 76.8932
#
#
#
# Elastic Compliance Matrix: (Units=1/GPa)
#
#
# Indices 1 2 3 4 5 6 
#
# 1 0.016771 -0.009487 -0.002565 0.000000 0.000000 0.000000
# 2 -0.009487 0.016771 -0.002565 0.000000 0.000000 0.000000
# 3 -0.002565 -0.002565 0.021120 0.000000 0.000000 0.000000
# 4 0.000000 0.000000 0.000000 0.035195 0.000000 0.000000
# 5 0.000000 0.000000 0.000000 0.000000 0.035196 0.000000
# 6 0.000000 0.000000 0.000000 0.000000 0.000000 0.013005
#
#
# Mechanical properties :
#
#
# Convention : Reuss Voigt Hill
#
# Bulk Modulus (GPa) = 39.32584 47.21578 43.27081
# Shear Modulus (GPa) = 28.44631 36.57667 32.51149
#
# Velocity S-wave (km/s) = 3.69404 4.18881 3.94918
# Velocity P-wave (km/s) = 6.08765 6.78561 6.44608
#
# Compressibility (1/GPa) = 0.02542858
#
# Stress axis : x y z
#
# Youngs Moduli (GPa) = 59.62529 59.62606 47.34800
#
# Poissons Ratio (x) = 0.56565 0.12146
# Poissons Ratio (y) = 0.56565 0.12145
# Poissons Ratio (z) = 0.15296 0.15294
#
# Static dielectric constant tensor:
#      x y z
#    x 1.857620 0.000000 0.000000 
#    y 0.000000 1.857620 0.000000 
#    z 0.000000 0.000000 1.806680 
# 
# From -- ./inp_files/5378.got.cif
#   From: 2010.05.17/outbox.cif.g08.bks.cpg/sg98_3_cif.got.tgz:5378.got - 2010.06.03 20:00:51.
