data_PCOD9551711
_publ_section_title
;
Structure prediction by ZEFSAII (Michael W. Deem and Ramdas Pophale) SiO2 
 PCOD9551711
Probable space group: I 41 2 2
;
_chemical_formula_sum "Si O2"
_cell_formula_units_Z 96
_cell_length_a 26.102931
_cell_length_b 26.102931
_cell_length_c 9.862457
_cell_angle_alpha 90.000000
_cell_angle_beta 90.000000
_cell_angle_gamma 90.000000
_cell_volume 6719.913356
_symmetry_space_group_name_H-M "I 41 2 2"
_symmetry_group_IT_number 98
_symmetry_cell_setting 'tetragonal'
loop_
_space_group_symop_operation_xyz
x,y,z
-y,1/2+x,1/4+z
-x,-y,z
y,1/2-x,1/4+z
x,1/2-y,1/4-z
-x,1/2+y,1/4-z
y,x,-z
-y,-x,-z
1/2+x,1/2+y,1/2+z
1/2-y,x,3/4+z
1/2-x,1/2-y,1/2+z
1/2+y,-x,3/4+z
1/2+x,-y,3/4-z
1/2-x,y,3/4-z
1/2+y,1/2+x,1/2-z
1/2-y,1/2-x,1/2-z
loop_
_atom_site_type_symbol
_atom_site_label
_atom_site_fract_x
_atom_site_fract_y
_atom_site_fract_z
Si Si1 0.046489 0.458558 0.593320
Si Si2 0.556757 0.280203 0.254015
Si Si3 0.967570 0.391167 0.082405
Si Si4 0.112638 0.515008 0.103273
Si Si5 0.711746 0.090968 0.997463
Si Si6 0.330912 0.692236 0.147561
O O1 0.056254 0.443747 0.750000
O O2 0.092979 0.489021 0.524412
O O3 0.000000 0.500000 0.595590
O O4 0.027930 0.413587 0.491848
O O5 0.526169 0.329579 0.305325
O O6 0.568007 0.239015 0.370543
O O7 0.612895 0.300670 0.208926
O O8 0.534338 0.250000 0.125000
O O9 0.923877 0.435212 0.083505
O O10 0.991763 0.387946 0.233576
O O11 0.938619 0.340034 0.038248
O O12 0.750000 0.083887 0.875000
O O13 0.701018 0.151627 0.016573
O O14 0.309979 0.750000 0.125000
O O15 0.333411 0.666589 0.000000
#
# Coordination Sequence:
#
# PCOD9551711 Si02
#       6
#    16  16  16  16  16  16
#     4   9  19  32  50  77  91 115 150 190 250 300
#     4  11  22  35  50  68  91 128 162 202 260 291
#     4  10  20  33  52  69  95 121 151 207 247 300
#     4  10  19  34  51  69  95 120 157 197 248 300
#     4  12  23  36  52  69  92 122 171 209 254 306
#     4  11  22  37  46  62  85 121 165 212 263 288
#
# _framework density 14.285899000000001
#
# number of rings (size 3 to 8) (size 9 to 14) (size 15 to 20)
#    0.000    1.500    6.667    0.500    2.333    3.333 
#    0.000    0.000    0.000    0.000    0.000    0.000 
#    0.000    0.000    0.000    0.000    0.000    5.000 
#
# Total GULP energy -267548.513876 kJ/mol
# GULP energy per Si atom -5573.927372 kJ/mol
# Density = 1.425338 g / cm^3
# Si number density = 14.285899 Si / 1000 Ang^3
#
#
#
# Elastic Constant Matrix: (Units=GPa)
#
#
# Indices 1 2 3 4 5 6 
#
# 1 59.9341 37.1464 38.7320 0.0000 0.0000 0.0000
# 2 37.1464 59.9346 38.7322 0.0000 0.0000 0.0000
# 3 38.7320 38.7322 113.1001 0.0000 0.0000 0.0000
# 4 0.0000 0.0000 0.0000 19.2446 0.0000 0.0000
# 5 0.0000 0.0000 0.0000 0.0000 19.2451 0.0000
# 6 0.0000 0.0000 0.0000 0.0000 0.0000 20.8481
#
#
#
# Elastic Compliance Matrix: (Units=1/GPa)
#
#
# Indices 1 2 3 4 5 6 
#
# 1 0.029028 -0.014854 -0.004854 0.000000 0.000000 0.000000
# 2 -0.014854 0.029028 -0.004854 0.000000 0.000000 0.000000
# 3 -0.004854 -0.004854 0.012166 0.000000 0.000000 0.000000
# 4 0.000000 0.000000 0.000000 0.051963 0.000000 0.000000
# 5 0.000000 0.000000 0.000000 0.000000 0.051961 0.000000
# 6 0.000000 0.000000 0.000000 0.000000 0.000000 0.047966
#
#
# Mechanical properties :
#
#
# Convention : Reuss Voigt Hill
#
# Bulk Modulus (GPa) = 47.39748 51.35443 49.37596
# Shear Modulus (GPa) = 17.96813 19.75811 18.86312
#
# Velocity S-wave (km/s) = 3.55033 3.72297 3.63767
# Velocity P-wave (km/s) = 7.07505 7.38284 7.23058
#
# Compressibility (1/GPa) = 0.02109817
#
# Stress axis : x y z
#
# Youngs Moduli (GPa) = 34.44896 34.44923 82.19439
#
# Poissons Ratio (x) = 0.51173 0.39897
# Poissons Ratio (y) = 0.51172 0.39897
# Poissons Ratio (z) = 0.16721 0.16721
#
# Static dielectric constant tensor:
#      x y z
#    x 1.453560 0.000000 0.000000 
#    y 0.000000 1.453560 0.000000 
#    z 0.000000 0.000000 1.480200 
# 
# From -- ./inp_files/3835.got.cif
#   From: 2010.05.17/outbox.cif.g08.bks.cpg/sg98_2_cif.got.tgz:3835.got - 2010.06.03 20:00:51.
