data_PCOD9551610
_publ_section_title
;
Structure prediction by ZEFSAII (Michael W. Deem and Ramdas Pophale) SiO2 
 PCOD9551610
Probable space group: I 4 2 2 
;
_chemical_formula_sum "Si O2"
_cell_formula_units_Z 88
_cell_length_a 13.918688
_cell_length_b 13.918688
_cell_length_c 30.395550
_cell_angle_alpha 90.000000
_cell_angle_beta 90.000000
_cell_angle_gamma 90.000000
_cell_volume 5888.526122
_symmetry_space_group_name_H-M "I 4 2 2 "
_symmetry_group_IT_number 97
_symmetry_cell_setting 'tetragonal'
loop_
_space_group_symop_operation_xyz
x,y,z
-y,x,z
-x,-y,z
y,-x,z
x,-y,-z
-x,y,-z
y,x,-z
-y,-x,-z
1/2+x,1/2+y,1/2+z
1/2-y,1/2+x,1/2+z
1/2-x,1/2-y,1/2+z
1/2+y,1/2-x,1/2+z
1/2+x,1/2-y,1/2-z
1/2-x,1/2+y,1/2-z
1/2+y,1/2+x,1/2-z
1/2-y,1/2-x,1/2-z
loop_
_atom_site_type_symbol
_atom_site_label
_atom_site_fract_x
_atom_site_fract_y
_atom_site_fract_z
Si Si1 0.707875 0.011803 0.275124
Si Si2 0.788335 0.188987 0.707392
Si Si3 0.711790 0.011388 0.170092
Si Si4 0.116959 0.111830 0.051200
Si Si5 0.000000 0.500000 0.677297
Si Si6 0.317397 0.701278 0.637142
O O1 0.777881 0.924423 0.287414
O O2 0.698088 0.012665 0.222551
O O3 0.758681 0.109819 0.289594
O O4 0.601419 0.998738 0.295838
O O5 0.729793 0.229793 0.750000
O O6 0.743023 0.214716 0.660111
O O7 0.778226 0.923086 0.156065
O O8 0.602531 0.002640 0.152059
O O9 0.766302 0.106749 0.155905
O O10 0.182663 0.169470 0.085378
O O11 0.002945 0.130698 0.058589
O O12 0.134509 0.134509 0.000000
#
# Coordination Sequence:
#
# PCOD9551610 Si02
#       6
#    16  16  16  16   8  16
#     4  12  21  35  48  70 104 141 180 215 249 294
#     4  12  22  34  49  73 102 136 180 213 251 302
#     4  12  21  31  49  72 101 138 175 211 253 297
#     4   9  18  32  50  73 101 131 164 206 259 319
#     4  12  21  32  52  66  97 150 185 212 238 296
#     4  12  21  32  50  78 102 134 171 208 253 310
#
# _framework density 14.944317
#
# number of rings (size 3 to 8) (size 9 to 14) (size 15 to 20)
#    0.000    0.545    9.091    2.182    0.000    0.727 
#    0.000    1.818    0.000    0.000    0.000    6.364 
#    0.000    0.000    0.000    1.636    0.000    0.000 
#
# Total GULP energy -245258.560362 kJ/mol
# GULP energy per Si atom -5574.058190 kJ/mol
# Density = 1.491030 g / cm^3
# Si number density = 14.944317 Si / 1000 Ang^3
#
#
#
# Elastic Constant Matrix: (Units=GPa)
#
#
# Indices 1 2 3 4 5 6 
#
# 1 55.7029 9.1415 15.8318 0.0000 0.0000 0.0000
# 2 9.1415 55.7029 15.8318 0.0000 0.0000 0.0000
# 3 15.8318 15.8318 70.8483 0.0000 0.0000 0.0000
# 4 0.0000 0.0000 0.0000 13.6491 0.0000 0.0000
# 5 0.0000 0.0000 0.0000 0.0000 13.6491 0.0000
# 6 0.0000 0.0000 0.0000 0.0000 0.0000 28.3806
#
#
#
# Elastic Compliance Matrix: (Units=1/GPa)
#
#
# Indices 1 2 3 4 5 6 
#
# 1 0.019394 -0.002083 -0.003868 0.000000 0.000000 0.000000
# 2 -0.002083 0.019394 -0.003868 0.000000 0.000000 0.000000
# 3 -0.003868 -0.003868 0.015843 0.000000 0.000000 0.000000
# 4 0.000000 0.000000 0.000000 0.073265 0.000000 0.000000
# 5 0.000000 0.000000 0.000000 0.000000 0.073265 0.000000
# 6 0.000000 0.000000 0.000000 0.000000 0.000000 0.035235
#
#
# Mechanical properties :
#
#
# Convention : Reuss Voigt Hill
#
# Bulk Modulus (GPa) = 28.57841 29.31826 28.94834
# Shear Modulus (GPa) = 18.67765 20.56567 19.62166
#
# Velocity S-wave (km/s) = 3.53911 3.71368 3.62744
# Velocity P-wave (km/s) = 5.98875 6.16843 6.07925
#
# Compressibility (1/GPa) = 0.03499144
#
# Stress axis : x y z
#
# Youngs Moduli (GPa) = 51.56314 51.56314 63.11759
#
# Poissons Ratio (x) = 0.10742 0.24415
# Poissons Ratio (y) = 0.10742 0.24415
# Poissons Ratio (z) = 0.19946 0.19946
#
# Static dielectric constant tensor:
#      x y z
#    x 1.528430 0.000000 0.000000 
#    y 0.000000 1.528430 0.000000 
#    z 0.000000 0.000000 1.481110 
# 
# From -- ./inp_files/7630.got.cif
#   From: 2010.05.17/outbox.cif.g08.bks.cpg/sg97_4_cif.got.tgz:7630.got - 2010.06.03 19:55:32.
