data_PCOD9551127
_publ_section_title
;
Structure prediction by ZEFSAII (Michael W. Deem and Ramdas Pophale) SiO2 
 PCOD9551127
Probable space group: P 43 21 2
;
_chemical_formula_sum "Si O2"
_cell_formula_units_Z 36
_cell_length_a 12.690843
_cell_length_b 12.690843
_cell_length_c 10.572640
_cell_angle_alpha 90.000000
_cell_angle_beta 90.000000
_cell_angle_gamma 90.000000
_cell_volume 1702.802925
_symmetry_space_group_name_H-M "P 43 21 2"
_symmetry_group_IT_number 96
_symmetry_cell_setting 'tetragonal'
loop_
_space_group_symop_operation_xyz
x,y,z
1/2-y,1/2+x,3/4+z
-x,-y,1/2+z
1/2+y,1/2-x,1/4+z
1/2+x,1/2-y,1/4-z
1/2-x,1/2+y,3/4-z
y,x,-z
-y,-x,1/2-z
loop_
_atom_site_type_symbol
_atom_site_label
_atom_site_fract_x
_atom_site_fract_y
_atom_site_fract_z
Si Si1 0.675952 0.963801 0.073464
Si Si2 0.845607 0.845607 0.500000
Si Si3 0.936759 0.246332 0.943102
Si Si4 0.851231 0.463864 0.954869
Si Si5 0.700883 0.789526 0.273764
O O1 0.552236 0.936347 0.081018
O O2 0.722931 0.884230 0.175819
O O3 0.694651 0.087396 0.090173
O O4 0.705780 0.936528 0.927655
O O5 0.791650 0.792167 0.378264
O O6 0.969404 0.818943 0.505958
O O7 0.913234 0.361643 0.003031
O O8 0.980449 0.274696 0.804024
O O9 0.822095 0.194438 0.951433
#
# Coordination Sequence:
#
# PCOD9551127 Si02
#       5
#     8   4   8   8   8
#     4   9  22  40  71 108 130 187 238 306 359 440
#     4  12  28  40  68 104 140 200 230 324 360 432
#     4  11  23  45  65 107 140 190 243 303 370 435
#     4   9  20  41  73 101 131 185 249 303 341 443
#     4  11  25  44  73 104 148 184 250 306 369 444
#
# _framework density 21.141614000000001
#
# number of rings (size 3 to 8) (size 9 to 14) (size 15 to 20)
#    0.000    1.778    2.222    0.000   12.444    8.000 
#    0.000    6.667   14.667    0.000    0.000    0.000 
#    0.000    0.000    0.000    0.000    0.000    0.000 
#
# Total GULP energy -200829.831270 kJ/mol
# GULP energy per Si atom -5578.606424 kJ/mol
# Density = 2.109350 g / cm^3
# Si number density = 21.141614 Si / 1000 Ang^3
#
#
#
# Elastic Constant Matrix: (Units=GPa)
#
#
# Indices 1 2 3 4 5 6 
#
# 1 89.7614 15.1785 31.9457 0.0000 0.0000 0.0000
# 2 15.1785 89.7614 31.9457 0.0000 0.0000 0.0000
# 3 31.9457 31.9457 98.7982 0.0000 0.0000 0.0000
# 4 0.0000 0.0000 0.0000 23.4181 0.0000 0.0000
# 5 0.0000 0.0000 0.0000 0.0000 23.4181 0.0000
# 6 0.0000 0.0000 0.0000 0.0000 0.0000 30.4276
#
#
#
# Elastic Compliance Matrix: (Units=1/GPa)
#
#
# Indices 1 2 3 4 5 6 
#
# 1 0.012636 -0.000771 -0.003836 0.000000 0.000000 0.000000
# 2 -0.000771 0.012636 -0.003836 0.000000 0.000000 0.000000
# 3 -0.003836 -0.003836 0.012603 0.000000 0.000000 0.000000
# 4 0.000000 0.000000 0.000000 0.042702 0.000000 0.000000
# 5 0.000000 0.000000 0.000000 0.000000 0.042702 0.000000
# 6 0.000000 0.000000 0.000000 0.000000 0.000000 0.032865
#
#
# Mechanical properties :
#
#
# Convention : Reuss Voigt Hill
#
# Bulk Modulus (GPa) = 47.64892 48.49563 48.07228
# Shear Modulus (GPa) = 27.77332 28.73618 28.25475
#
# Velocity S-wave (km/s) = 3.62840 3.69076 3.65972
# Velocity P-wave (km/s) = 6.33567 6.41487 6.37539
#
# Compressibility (1/GPa) = 0.02098683
#
# Stress axis : x y z
#
# Youngs Moduli (GPa) = 79.13603 79.13603 79.34846
#
# Poissons Ratio (x) = 0.06105 0.30442
# Poissons Ratio (y) = 0.06105 0.30442
# Poissons Ratio (z) = 0.30360 0.30360
#
# Static dielectric constant tensor:
#      x y z
#    x 1.782400 0.000000 0.000000 
#    y 0.000000 1.782400 0.000000 
#    z 0.000000 0.000000 1.833170 
# 
# From -- ./inp_files/2011.got.cif
#   From: 2010.05.17/outbox.cif.g08.bks.cpg/sg96_2_cif.got.tgz:2011.got - 2010.06.03 19:52:08.
