data_PCOD9551413
_publ_section_title
;
Structure prediction by ZEFSAII (Michael W. Deem and Ramdas Pophale) SiO2 
 PCOD9551413
Probable space group: I 4 2 2 
;
_chemical_formula_sum "Si O2"
_cell_formula_units_Z 88
_cell_length_a 19.042383
_cell_length_b 19.042383
_cell_length_c 13.555980
_cell_angle_alpha 90.000000
_cell_angle_beta 90.000000
_cell_angle_gamma 90.000000
_cell_volume 4915.565769
_symmetry_space_group_name_H-M "I 4 2 2 "
_symmetry_group_IT_number 97
_symmetry_cell_setting 'tetragonal'
loop_
_space_group_symop_operation_xyz
x,y,z
-y,x,z
-x,-y,z
y,-x,z
x,-y,-z
-x,y,-z
y,x,-z
-y,-x,-z
1/2+x,1/2+y,1/2+z
1/2-y,1/2+x,1/2+z
1/2-x,1/2-y,1/2+z
1/2+y,1/2-x,1/2+z
1/2+x,1/2-y,1/2-z
1/2-x,1/2+y,1/2-z
1/2+y,1/2+x,1/2-z
1/2-y,1/2-x,1/2-z
loop_
_atom_site_type_symbol
_atom_site_label
_atom_site_fract_x
_atom_site_fract_y
_atom_site_fract_z
Si Si1 0.417012 0.847460 0.504830
Si Si2 0.053008 0.224924 0.367733
Si Si3 0.616447 0.500000 0.000000
Si Si4 0.190651 0.190651 0.500000
Si Si5 0.652430 0.000000 0.500000
Si Si6 0.761316 0.361063 0.683372
Si Si7 0.817449 0.274024 0.142833
O O1 0.500000 0.848294 0.500000
O O2 0.390085 0.927830 0.515976
O O3 0.387148 0.809072 0.406707
O O4 0.388960 0.799809 0.594560
O O5 0.999452 0.164582 0.402212
O O6 0.121514 0.203925 0.433993
O O7 0.019120 0.296495 0.408500
O O8 0.078420 0.233071 0.256057
O O9 0.566691 0.566691 0.000000
O O10 0.194962 0.256371 0.573293
O O11 0.811132 0.311132 0.750000
O O12 0.698996 0.309207 0.647883
O O13 0.806258 0.306258 0.250000
#
# Coordination Sequence:
#
# PCOD9551413 Si02
#       7
#    16  16   8   8   8  16  16
#     4  12  25  40  55  87 127 168 201 243 307 377
#     4  11  21  35  65  87 114 161 202 252 313 366
#     4  10  22  37  55  90 132 154 186 254 322 382
#     4  12  16  36  61  90 112 144 209 260 312 338
#     4  11  21  39  61  77 123 170 206 238 295 373
#     4  11  19  40  64  86 114 151 205 266 308 345
#     4  11  20  36  65  87 111 151 208 268 305 348
#
# _framework density 17.902312999999999
#
# number of rings (size 3 to 8) (size 9 to 14) (size 15 to 20)
#    0.000    0.818   10.000    0.273    0.000    1.455 
#    3.273    0.000    0.000    0.000    0.000    0.000 
#    0.000    1.455    0.000    0.000    0.000    0.000 
#
# Total GULP energy -245520.532131 kJ/mol
# GULP energy per Si atom -5580.012094 kJ/mol
# Density = 1.786157 g / cm^3
# Si number density = 17.902313 Si / 1000 Ang^3
#
#
#
# Elastic Constant Matrix: (Units=GPa)
#
#
# Indices 1 2 3 4 5 6 
#
# 1 113.9217 58.3197 41.1157 0.0000 0.0000 0.0000
# 2 58.3197 113.9217 41.1157 0.0000 0.0000 0.0000
# 3 41.1157 41.1157 89.0262 0.0000 0.0000 0.0000
# 4 0.0000 0.0000 0.0000 26.2517 0.0000 0.0000
# 5 0.0000 0.0000 0.0000 0.0000 26.2517 0.0000
# 6 0.0000 0.0000 0.0000 0.0000 0.0000 32.8458
#
#
#
# Elastic Compliance Matrix: (Units=1/GPa)
#
#
# Indices 1 2 3 4 5 6 
#
# 1 0.012716 -0.005268 -0.003440 0.000000 0.000000 0.000000
# 2 -0.005268 0.012716 -0.003440 0.000000 0.000000 0.000000
# 3 -0.003440 -0.003440 0.014410 0.000000 0.000000 0.000000
# 4 0.000000 0.000000 0.000000 0.038093 0.000000 0.000000
# 5 0.000000 0.000000 0.000000 0.000000 0.038093 0.000000
# 6 0.000000 0.000000 0.000000 0.000000 0.000000 0.030445
#
#
# Mechanical properties :
#
#
# Convention : Reuss Voigt Hill
#
# Bulk Modulus (GPa) = 64.32184 66.44128 65.38156
# Shear Modulus (GPa) = 28.41683 28.82440 28.62062
#
# Velocity S-wave (km/s) = 3.98845 4.01695 4.00273
# Velocity P-wave (km/s) = 7.56424 7.66214 7.61334
#
# Compressibility (1/GPa) = 0.01554682
#
# Stress axis : x y z
#
# Youngs Moduli (GPa) = 78.63800 78.63800 69.39685
#
# Poissons Ratio (x) = 0.41430 0.23871
# Poissons Ratio (y) = 0.41430 0.23871
# Poissons Ratio (z) = 0.27050 0.27050
#
# Static dielectric constant tensor:
#      x y z
#    x 1.650870 0.000000 0.000000 
#    y 0.000000 1.650870 0.000000 
#    z 0.000000 0.000000 1.631730 
# 
# From -- ./inp_files/4907.got.cif
#   From: 2010.05.17/outbox.cif.g08.bks.cpg/sg97_3_cif.got.tgz:4907.got - 2010.06.03 19:55:32.
