data_PCOD9551304
_publ_section_title
;
Structure prediction by ZEFSAII (Michael W. Deem and Ramdas Pophale) SiO2 
 PCOD9551304
Probable space group: I 4 2 2 
;
_chemical_formula_sum "Si O2"
_cell_formula_units_Z 116
_cell_length_a 28.066256
_cell_length_b 28.066256
_cell_length_c 8.608362
_cell_angle_alpha 90.000000
_cell_angle_beta 90.000000
_cell_angle_gamma 90.000000
_cell_volume 6780.933513
_symmetry_space_group_name_H-M "I 4 2 2 "
_symmetry_group_IT_number 97
_symmetry_cell_setting 'tetragonal'
loop_
_space_group_symop_operation_xyz
x,y,z
-y,x,z
-x,-y,z
y,-x,z
x,-y,-z
-x,y,-z
y,x,-z
-y,-x,-z
1/2+x,1/2+y,1/2+z
1/2-y,1/2+x,1/2+z
1/2-x,1/2-y,1/2+z
1/2+y,1/2-x,1/2+z
1/2+x,1/2-y,1/2-z
1/2-x,1/2+y,1/2-z
1/2+y,1/2+x,1/2-z
1/2-y,1/2-x,1/2-z
loop_
_atom_site_type_symbol
_atom_site_label
_atom_site_fract_x
_atom_site_fract_y
_atom_site_fract_z
Si Si1 0.500000 0.000000 0.250000
Si Si2 0.668531 0.904880 0.186189
Si Si3 0.595122 0.168531 0.313810
Si Si4 0.112844 0.499999 0.312065
Si Si5 0.945186 0.867711 0.187701
Si Si6 0.236570 0.944665 0.314093
Si Si7 0.867711 0.054814 0.812299
Si Si8 0.236570 0.944665 0.685907
O O1 0.500000 0.058409 0.261461
O O2 0.640894 0.859106 0.250000
O O3 0.722177 0.911960 0.244443
O O4 0.639759 0.952232 0.240742
O O5 0.667754 0.904025 1.000000
O O6 0.640896 0.140896 0.250000
O O7 0.547770 0.139757 0.259258
O O8 0.588040 0.222177 0.255557
O O9 0.113194 0.500000 0.500000
O O10 0.932167 0.816126 0.255283
O O11 0.908734 0.908734 0.237430
O O12 1.000000 0.878038 0.233383
O O13 0.943915 0.864944 1.000000
O O14 0.238088 0.942806 0.500000
O O15 0.245419 1.000000 0.265289
O O16 0.816126 0.067833 0.744717
#
# Coordination Sequence:
#
# PCOD9551304 Si02
#       8
#     4  16  16  16  16  16  16  16
#     4  12  18  36  44  66 100 140 178 208 274 336
#     4  11  21  35  51  73 100 134 178 226 277 324
#     4  11  21  35  51  73 100 134 178 226 277 324
#     4  10  21  31  45  66  95 133 171 215 266 321
#     4   9  18  33  55  84 116 149 180 213 255 307
#     4  10  20  34  53  77 104 140 183 227 269 315
#     4   9  18  33  55  84 116 149 180 213 255 307
#     4  10  20  34  53  77 104 140 183 227 269 315
#
# _framework density 17.10679
#
# number of rings (size 3 to 8) (size 9 to 14) (size 15 to 20)
#    0.000    1.931    2.759    1.862    0.000    1.931 
#    0.000    1.379    0.000    0.828    0.000    3.862 
#    0.000    0.000    0.000    0.000    0.000    0.000 
#
# Total GULP energy -323237.150702 kJ/mol
# GULP energy per Si atom -5573.054322 kJ/mol
# Density = 1.706785 g / cm^3
# Si number density = 17.106790 Si / 1000 Ang^3
#
#
#
# Elastic Constant Matrix: (Units=GPa)
#
#
# Indices 1 2 3 4 5 6 
#
# 1 132.1629 101.4467 34.9585 0.0000 0.0000 0.0000
# 2 101.4467 132.1641 34.9586 0.0000 0.0000 0.0000
# 3 34.9585 34.9586 30.9316 0.0000 0.0000 0.0000
# 4 0.0000 0.0000 0.0000 22.5839 0.0000 0.0000
# 5 0.0000 0.0000 0.0000 0.0000 22.5835 0.0000
# 6 0.0000 0.0000 0.0000 0.0000 0.0000 25.4790
#
#
#
# Elastic Compliance Matrix: (Units=1/GPa)
#
#
# Indices 1 2 3 4 5 6 
#
# 1 0.019512 -0.013043 -0.007311 0.000000 0.000000 0.000000
# 2 -0.013043 0.019512 -0.007311 0.000000 0.000000 0.000000
# 3 -0.007311 -0.007311 0.048855 0.000000 0.000000 0.000000
# 4 0.000000 0.000000 0.000000 0.044279 0.000000 0.000000
# 5 0.000000 0.000000 0.000000 0.000000 0.044280 0.000000
# 6 0.000000 0.000000 0.000000 0.000000 0.000000 0.039248
#
#
# Mechanical properties :
#
#
# Convention : Reuss Voigt Hill
#
# Bulk Modulus (GPa) = 30.72321 70.88735 50.80528
# Shear Modulus (GPa) = 17.73892 22.38892 20.06392
#
# Velocity S-wave (km/s) = 3.22367 3.62162 3.42842
# Velocity P-wave (km/s) = 5.64400 7.68221 6.74059
#
# Compressibility (1/GPa) = 0.03254868
#
# Stress axis : x y z
#
# Youngs Moduli (GPa) = 51.24991 51.25053 20.46888
#
# Poissons Ratio (x) = 0.66848 0.14965
# Poissons Ratio (y) = 0.66847 0.14964
# Poissons Ratio (z) = 0.37469 0.37468
#
# Static dielectric constant tensor:
#      x y z
#    x 1.567810 0.000000 0.000000 
#    y 0.000000 1.567810 0.000000 
#    z 0.000000 0.000000 1.583270 
# 
# From -- ./inp_files/2648.got.cif
#   From: 2010.05.17/outbox.cif.g08.bks.cpg/sg97_2_cif.got.tgz:2648.got - 2010.06.03 19:55:32.
