data_PCOD9551788
_publ_section_title
;
Structure prediction by ZEFSAII (Michael W. Deem and Ramdas Pophale) SiO2 
 PCOD9551788
Probable space group: I 41 2 2
;
_chemical_formula_sum "Si O2"
_cell_formula_units_Z 48
_cell_length_a 16.667900
_cell_length_b 16.667900
_cell_length_c 9.580720
_cell_angle_alpha 90.000000
_cell_angle_beta 90.000000
_cell_angle_gamma 90.000000
_cell_volume 2661.705000
_symmetry_space_group_name_H-M "I 41 2 2"
_symmetry_group_IT_number 98
_symmetry_cell_setting 'tetragonal'
loop_
_space_group_symop_operation_xyz
x,y,z
-y,1/2+x,1/4+z
-x,-y,z
y,1/2-x,1/4+z
x,1/2-y,1/4-z
-x,1/2+y,1/4-z
y,x,-z
-y,-x,-z
1/2+x,1/2+y,1/2+z
1/2-y,x,3/4+z
1/2-x,1/2-y,1/2+z
1/2+y,-x,3/4+z
1/2+x,-y,3/4-z
1/2-x,y,3/4-z
1/2+y,1/2+x,1/2-z
1/2-y,1/2-x,1/2-z
loop_
_atom_site_type_symbol
_atom_site_label
_atom_site_fract_x
_atom_site_fract_y
_atom_site_fract_z
Si Si1 0.108478 0.250000 0.625000
Si Si2 0.972278 0.250000 0.125000
Si Si3 0.000000 0.500000 0.008312
Si Si4 0.407418 0.907418 0.750000
Si Si5 0.340397 0.423382 0.150345
O O1 0.063580 0.293049 0.754431
O O2 0.158004 0.172550 0.677359
O O3 0.922241 0.316384 0.207057
O O4 0.029601 0.205893 0.232407
O O5 0.064346 0.539625 0.116071
O O6 0.042129 0.430963 0.916076
#
# Coordination Sequence:
#
# PCOD9551788 Si02
#       5
#     8   8   8   8  16
#     4  10  22  33  48  79 116 144 180 224 282 325
#     4  10  20  37  62  81 108 146 190 234 276 333
#     4   9  18  35  58  82 114 154 190 222 278 344
#     4   9  18  34  60  90 110 142 190 235 282 334
#     4  10  21  36  54  81 114 148 185 232 277 332
#
# _framework density 18.033555
#
# number of rings (size 3 to 8) (size 9 to 14) (size 15 to 20)
#    0.000    2.333    0.000    2.000    0.000   12.000 
#    0.000    0.000    0.000   26.000    0.000    0.000 
#    0.000    0.000    0.000    0.000    0.000    0.000 
#
# Total GULP energy -133629.762992 kJ/mol
# GULP energy per Si atom -5567.906791 kJ/mol
# Density = 1.799251 g / cm^3
# Si number density = 18.033555 Si / 1000 Ang^3
#
#
#
# Elastic Constant Matrix: (Units=GPa)
#
#
# Indices 1 2 3 4 5 6 
#
# 1 138.4795 74.4907 59.4102 0.0000 0.0000 0.0000
# 2 74.4907 138.4795 59.4102 0.0000 0.0000 0.0000
# 3 59.4102 59.4102 108.3774 0.0000 0.0000 0.0000
# 4 0.0000 0.0000 0.0000 28.3752 0.0000 0.0000
# 5 0.0000 0.0000 0.0000 0.0000 28.3752 0.0000
# 6 0.0000 0.0000 0.0000 0.0000 0.0000 17.9447
#
#
#
# Elastic Compliance Matrix: (Units=1/GPa)
#
#
# Indices 1 2 3 4 5 6 
#
# 1 0.011196 -0.004432 -0.003708 0.000000 0.000000 0.000000
# 2 -0.004432 0.011196 -0.003708 0.000000 0.000000 0.000000
# 3 -0.003708 -0.003708 0.013292 0.000000 0.000000 0.000000
# 4 0.000000 0.000000 0.000000 0.035242 0.000000 0.000000
# 5 0.000000 0.000000 0.000000 0.000000 0.035242 0.000000
# 6 0.000000 0.000000 0.000000 0.000000 0.000000 0.055727
#
#
# Mechanical properties :
#
#
# Convention : Reuss Voigt Hill
#
# Bulk Modulus (GPa) = 83.41143 85.77320 84.59231
# Shear Modulus (GPa) = 26.37308 27.74068 27.05688
#
# Velocity S-wave (km/s) = 3.82834 3.92635 3.87765
# Velocity P-wave (km/s) = 8.11760 8.25962 8.18892
#
# Compressibility (1/GPa) = 0.01198877
#
# Stress axis : x y z
#
# Youngs Moduli (GPa) = 89.31753 89.31753 75.23124
#
# Poissons Ratio (x) = 0.39583 0.27896
# Poissons Ratio (y) = 0.39583 0.27896
# Poissons Ratio (z) = 0.33119 0.33119
#
# Static dielectric constant tensor:
#      x y z
#    x 1.618630 0.000000 0.000000 
#    y 0.000000 1.618630 0.000000 
#    z 0.000000 0.000000 1.642500 
# 
# From -- ./inp_files/2848.got.cif
#   From: 2010.05.17/outbox.cif.g08.bks.cpg/sg98_2_cif.got.tgz:2848.got - 2010.06.03 20:00:51.
