data_PCOD9551104
_publ_section_title
;
Structure prediction by ZEFSAII (Michael W. Deem and Ramdas Pophale) SiO2 
 PCOD9551104
Probable space group: P 43 21 2
;
_chemical_formula_sum "Si O2"
_cell_formula_units_Z 56
_cell_length_a 11.158153
_cell_length_b 11.158153
_cell_length_c 22.162008
_cell_angle_alpha 90.000000
_cell_angle_beta 90.000000
_cell_angle_gamma 90.000000
_cell_volume 2759.267030
_symmetry_space_group_name_H-M "P 43 21 2"
_symmetry_group_IT_number 96
_symmetry_cell_setting 'tetragonal'
loop_
_space_group_symop_operation_xyz
x,y,z
1/2-y,1/2+x,3/4+z
-x,-y,1/2+z
1/2+y,1/2-x,1/4+z
1/2+x,1/2-y,1/4-z
1/2-x,1/2+y,3/4-z
y,x,-z
-y,-x,1/2-z
loop_
_atom_site_type_symbol
_atom_site_label
_atom_site_fract_x
_atom_site_fract_y
_atom_site_fract_z
Si Si1 0.304846 0.181332 0.442152
Si Si2 0.266181 0.003677 0.867584
Si Si3 0.794858 0.271220 0.946184
Si Si4 0.304678 0.029947 0.731859
Si Si5 0.331223 0.472629 0.257444
Si Si6 0.624407 0.735056 0.366578
Si Si7 0.954542 0.575224 0.282355
O O1 0.250267 0.250267 0.500000
O O2 0.277936 0.226167 0.375406
O O3 0.446112 0.171193 0.449828
O O4 0.249982 0.048210 0.446767
O O5 0.167662 0.904018 0.887634
O O6 0.374644 0.957789 0.909519
O O7 0.269461 0.979137 0.796557
O O8 0.279269 0.152095 0.869981
O O9 0.663862 0.247121 0.974699
O O10 0.866661 0.153408 0.965114
O O11 0.866848 0.379567 0.977302
O O12 0.254633 0.955032 0.675669
O O13 0.448758 0.016753 0.732799
O O14 0.447489 0.552512 0.250000
O O15 0.258045 0.453209 0.195034
#
# Coordination Sequence:
#
# PCOD9551104 Si02
#       7
#     8   8   8   8   8   8   8
#     4  11  25  42  71 101 138 181 238 295 358 426
#     4  11  21  42  65  99 139 180 239 284 356 423
#     4  12  24  45  71 103 137 188 239 296 361 434
#     4  11  22  41  71  92 136 184 235 291 354 421
#     4  11  23  47  68  97 136 183 234 291 359 427
#     4  11  23  43  67  98 137 187 231 294 357 428
#     4  11  23  42  66  99 138 183 232 293 354 430
#
# _framework density 20.295245000000001
#
# number of rings (size 3 to 8) (size 9 to 14) (size 15 to 20)
#    0.000    0.857    4.286    3.000    2.000    2.286 
#    7.714    0.000    0.000    0.000    0.000    0.000 
#    0.000    0.000    0.000    0.000    0.000    0.000 
#
# Total GULP energy -311877.943845 kJ/mol
# GULP energy per Si atom -5569.248997 kJ/mol
# Density = 2.024905 g / cm^3
# Si number density = 20.295245 Si / 1000 Ang^3
#
#
#
# Elastic Constant Matrix: (Units=GPa)
#
#
# Indices 1 2 3 4 5 6 
#
# 1 59.1188 29.7518 17.4005 0.0000 0.0000 0.0000
# 2 29.7518 59.1193 17.4004 0.0000 0.0000 0.0000
# 3 17.4005 17.4004 133.2838 0.0000 0.0000 0.0000
# 4 0.0000 0.0000 0.0000 27.0297 0.0000 0.0000
# 5 0.0000 0.0000 0.0000 0.0000 27.0297 0.0000
# 6 0.0000 0.0000 0.0000 0.0000 0.0000 42.9681
#
#
#
# Elastic Compliance Matrix: (Units=1/GPa)
#
#
# Indices 1 2 3 4 5 6 
#
# 1 0.022955 -0.011097 -0.001548 0.000000 0.000000 0.000000
# 2 -0.011097 0.022955 -0.001548 0.000000 0.000000 0.000000
# 3 -0.001548 -0.001548 0.007907 0.000000 0.000000 0.000000
# 4 0.000000 0.000000 0.000000 0.036996 0.000000 0.000000
# 5 0.000000 0.000000 0.000000 0.000000 0.036996 0.000000
# 6 0.000000 0.000000 0.000000 0.000000 0.000000 0.023273
#
#
# Mechanical properties :
#
#
# Convention : Reuss Voigt Hill
#
# Bulk Modulus (GPa) = 39.32139 42.29193 40.80666
# Shear Modulus (GPa) = 26.60344 31.87012 29.23678
#
# Velocity S-wave (km/s) = 3.62445 3.96703 3.79961
# Velocity P-wave (km/s) = 6.07719 6.47045 6.27690
#
# Compressibility (1/GPa) = 0.02543145
#
# Stress axis : x y z
#
# Youngs Moduli (GPa) = 43.56320 43.56362 126.47001
#
# Poissons Ratio (x) = 0.48340 0.19580
# Poissons Ratio (y) = 0.48340 0.19579
# Poissons Ratio (z) = 0.06744 0.06744
#
# Static dielectric constant tensor:
#      x y z
#    x 1.778380 0.000000 0.000000 
#    y 0.000000 1.778380 0.000000 
#    z 0.000000 0.000000 1.707030 
# 
# From -- ./inp_files/3561.got.cif
#   From: 2010.05.17/outbox.cif.g08.bks.cpg/sg96_2_cif.got.tgz:3561.got - 2010.06.03 19:52:08.
