data_PCOD9551442
_publ_section_title
;
Structure prediction by ZEFSAII (Michael W. Deem and Ramdas Pophale) SiO2 
 PCOD9551442
Probable space group: I 4 2 2 
;
_chemical_formula_sum "Si O2"
_cell_formula_units_Z 48
_cell_length_a 8.176016
_cell_length_b 8.176016
_cell_length_c 34.371756
_cell_angle_alpha 90.000000
_cell_angle_beta 90.000000
_cell_angle_gamma 90.000000
_cell_volume 2297.656941
_symmetry_space_group_name_H-M "I 4 2 2 "
_symmetry_group_IT_number 97
_symmetry_cell_setting 'tetragonal'
loop_
_space_group_symop_operation_xyz
x,y,z
-y,x,z
-x,-y,z
y,-x,z
x,-y,-z
-x,y,-z
y,x,-z
-y,-x,-z
1/2+x,1/2+y,1/2+z
1/2-y,1/2+x,1/2+z
1/2-x,1/2-y,1/2+z
1/2+y,1/2-x,1/2+z
1/2+x,1/2-y,1/2-z
1/2-x,1/2+y,1/2-z
1/2+y,1/2+x,1/2-z
1/2-y,1/2-x,1/2-z
loop_
_atom_site_type_symbol
_atom_site_label
_atom_site_fract_x
_atom_site_fract_y
_atom_site_fract_z
Si Si1 0.500000 0.000000 0.427979
Si Si2 0.903181 0.258405 0.868624
Si Si3 0.500000 0.768000 0.500000
Si Si4 0.752286 0.385965 0.790190
O O1 0.624636 0.093721 0.398993
O O2 0.467076 0.137843 0.459963
O O3 0.863338 0.327171 0.826009
O O4 0.092971 0.202973 0.873765
O O5 0.343789 0.656212 0.500000
O O6 0.708969 0.578068 0.792142
O O7 0.839817 0.339817 0.750000
#
# Coordination Sequence:
#
# PCOD9551442 Si02
#       4
#     8  16   8  16
#     4  11  22  38  65  96 126 160 205 262 318 381
#     4  11  23  40  64  93 126 169 219 271 332 400
#     4  10  22  42  68  96 126 164 208 254 316 396
#     4  11  24  41  62  92 130 174 226 284 344 403
#
# _framework density 20.890846
#
# number of rings (size 3 to 8) (size 9 to 14) (size 15 to 20)
#    0.000    1.167    0.000    6.000    0.000    8.667 
#    0.000    0.000    0.000   34.000    0.000    0.000 
#    0.000    0.000    0.000    0.000    0.000    0.000 
#
# Total GULP energy -133846.829877 kJ/mol
# GULP energy per Si atom -5576.951245 kJ/mol
# Density = 2.084330 g / cm^3
# Si number density = 20.890846 Si / 1000 Ang^3
#
#
#
# Elastic Constant Matrix: (Units=GPa)
#
#
# Indices 1 2 3 4 5 6 
#
# 1 108.2793 46.1645 66.3987 0.0000 0.0000 0.0000
# 2 46.1645 108.2781 66.3989 0.0000 0.0000 0.0000
# 3 66.3987 66.3989 192.7615 0.0000 0.0000 0.0000
# 4 0.0000 0.0000 0.0000 4.7615 0.0000 0.0000
# 5 0.0000 0.0000 0.0000 0.0000 4.7490 0.0000
# 6 0.0000 0.0000 0.0000 0.0000 0.0000 24.2537
#
#
#
# Elastic Compliance Matrix: (Units=1/GPa)
#
#
# Indices 1 2 3 4 5 6 
#
# 1 0.012649 -0.003450 -0.003169 0.000000 0.000000 0.000000
# 2 -0.003450 0.012650 -0.003169 0.000000 0.000000 0.000000
# 3 -0.003169 -0.003169 0.007371 0.000000 0.000000 0.000000
# 4 0.000000 0.000000 0.000000 0.210016 0.000000 0.000000
# 5 0.000000 0.000000 0.000000 0.000000 0.210569 0.000000
# 6 0.000000 0.000000 0.000000 0.000000 0.000000 0.041231
#
#
# Mechanical properties :
#
#
# Convention : Reuss Voigt Hill
#
# Bulk Modulus (GPa) = 76.36775 85.24921 80.80848
# Shear Modulus (GPa) = 9.64458 22.10996 15.87727
#
# Velocity S-wave (km/s) = 2.15097 3.25677 2.75982
# Velocity P-wave (km/s) = 6.54247 7.41873 6.99434
#
# Compressibility (1/GPa) = 0.01309453
#
# Stress axis : x y z
#
# Youngs Moduli (GPa) = 79.05498 79.05373 135.66863
#
# Poissons Ratio (x) = 0.27272 0.42992
# Poissons Ratio (y) = 0.27273 0.42993
# Poissons Ratio (z) = 0.25052 0.25052
#
# Static dielectric constant tensor:
#      x y z
#    x 1.770790 0.000000 0.000000 
#    y 0.000000 1.770790 0.000000 
#    z 0.000000 0.000000 1.704660 
# 
# From -- ./inp_files/7839.got.cif
#   From: 2010.05.17/outbox.cif.g08.bks.cpg/sg97_4_cif.got.tgz:7839.got - 2010.06.03 19:55:32.
