data_PCOD9551575
_publ_section_title
;
Structure prediction by ZEFSAII (Michael W. Deem and Ramdas Pophale) SiO2 
 PCOD9551575
Probable space group: I 4 2 2 
;
_chemical_formula_sum "Si O2"
_cell_formula_units_Z 56
_cell_length_a 14.394483
_cell_length_b 14.394483
_cell_length_c 11.869138
_cell_angle_alpha 90.000000
_cell_angle_beta 90.000000
_cell_angle_gamma 90.000000
_cell_volume 2459.298934
_symmetry_space_group_name_H-M "I 4 2 2 "
_symmetry_group_IT_number 97
_symmetry_cell_setting 'tetragonal'
loop_
_space_group_symop_operation_xyz
x,y,z
-y,x,z
-x,-y,z
y,-x,z
x,-y,-z
-x,y,-z
y,x,-z
-y,-x,-z
1/2+x,1/2+y,1/2+z
1/2-y,1/2+x,1/2+z
1/2-x,1/2-y,1/2+z
1/2+y,1/2-x,1/2+z
1/2+x,1/2-y,1/2-z
1/2-x,1/2+y,1/2-z
1/2+y,1/2+x,1/2-z
1/2-y,1/2-x,1/2-z
loop_
_atom_site_type_symbol
_atom_site_label
_atom_site_fract_x
_atom_site_fract_y
_atom_site_fract_z
Si Si1 0.745392 0.500000 0.000000
Si Si2 0.642235 0.563833 0.799830
Si Si3 0.556084 0.905671 0.123738
Si Si4 0.235740 0.097497 0.061516
O O1 0.684213 0.570836 0.926137
O O2 0.822116 0.484477 0.901056
O O3 0.545633 0.618516 0.791725
O O4 0.703456 0.592447 0.692379
O O5 0.590207 0.909794 0.250000
O O6 0.652603 0.893450 0.056431
O O7 0.500000 0.000000 0.107502
O O8 0.180131 0.180131 0.000000
O O9 0.210537 0.000000 0.000000
#
# Coordination Sequence:
#
# PCOD9551575 Si02
#       4
#     8  16  16  16
#     4  12  23  45  70  98 146 192 252 311 375 456
#     4  11  24  43  69 104 144 190 243 309 391 459
#     4  11  25  48  75 105 149 203 255 315 390 470
#     4  12  24  43  72 107 144 191 252 319 387 462
#
# _framework density 22.770717000000001
#
# number of rings (size 3 to 8) (size 9 to 14) (size 15 to 20)
#    0.000    0.571    5.714    3.000    0.000    3.714 
#    0.000    0.000    0.000    0.000    0.000    0.000 
#    0.000    0.000    0.000    0.000    0.000    0.000 
#
# Total GULP energy -155950.708815 kJ/mol
# GULP energy per Si atom -5569.668172 kJ/mol
# Density = 2.271889 g / cm^3
# Si number density = 22.770717 Si / 1000 Ang^3
#
#
#
# Elastic Constant Matrix: (Units=GPa)
#
#
# Indices 1 2 3 4 5 6 
#
# 1 141.5535 66.8689 54.7232 0.0000 0.0000 0.0000
# 2 66.8689 141.5535 54.7232 0.0000 0.0000 0.0000
# 3 54.7232 54.7232 168.6857 0.0000 0.0000 0.0000
# 4 0.0000 0.0000 0.0000 32.2213 0.0000 0.0000
# 5 0.0000 0.0000 0.0000 0.0000 32.2209 0.0000
# 6 0.0000 0.0000 0.0000 0.0000 0.0000 96.8716
#
#
#
# Elastic Compliance Matrix: (Units=1/GPa)
#
#
# Indices 1 2 3 4 5 6 
#
# 1 0.009586 -0.003803 -0.001876 0.000000 0.000000 0.000000
# 2 -0.003803 0.009586 -0.001876 0.000000 0.000000 0.000000
# 3 -0.001876 -0.001876 0.007145 0.000000 0.000000 0.000000
# 4 0.000000 0.000000 0.000000 0.031035 0.000000 0.000000
# 5 0.000000 0.000000 0.000000 0.000000 0.031036 0.000000
# 6 0.000000 0.000000 0.000000 0.000000 0.000000 0.010323
#
#
# Mechanical properties :
#
#
# Convention : Reuss Voigt Hill
#
# Bulk Modulus (GPa) = 89.22769 89.38037 89.30403
# Shear Modulus (GPa) = 42.53188 50.62793 46.57991
#
# Velocity S-wave (km/s) = 4.32653 4.72039 4.52774
# Velocity P-wave (km/s) = 8.01429 8.30945 8.16320
#
# Compressibility (1/GPa) = 0.01120728
#
# Stress axis : x y z
#
# Youngs Moduli (GPa) = 104.31464 104.31457 139.94952
#
# Poissons Ratio (x) = 0.39674 0.26256
# Poissons Ratio (y) = 0.39674 0.26256
# Poissons Ratio (z) = 0.19570 0.19570
#
# Static dielectric constant tensor:
#      x y z
#    x 1.912170 0.000000 0.000000 
#    y 0.000000 1.912180 0.000000 
#    z 0.000000 0.000000 1.923480 
# 
# From -- ./inp_files/3248.got.cif
#   From: 2010.05.17/outbox.cif.g08.bks.cpg/sg97_2_cif.got.tgz:3248.got - 2010.06.03 19:55:32.
