data_PCOD9551509
_publ_section_title
;
Structure prediction by ZEFSAII (Michael W. Deem and Ramdas Pophale) SiO2 
 PCOD9551509
Probable space group: I 4 2 2 
;
_chemical_formula_sum "Si O2"
_cell_formula_units_Z 56
_cell_length_a 16.349654
_cell_length_b 16.349654
_cell_length_c 8.923373
_cell_angle_alpha 90.000000
_cell_angle_beta 90.000000
_cell_angle_gamma 90.000000
_cell_volume 2385.317419
_symmetry_space_group_name_H-M "I 4 2 2 "
_symmetry_group_IT_number 97
_symmetry_cell_setting 'tetragonal'
loop_
_space_group_symop_operation_xyz
x,y,z
-y,x,z
-x,-y,z
y,-x,z
x,-y,-z
-x,y,-z
y,x,-z
-y,-x,-z
1/2+x,1/2+y,1/2+z
1/2-y,1/2+x,1/2+z
1/2-x,1/2-y,1/2+z
1/2+y,1/2-x,1/2+z
1/2+x,1/2-y,1/2-z
1/2-x,1/2+y,1/2-z
1/2+y,1/2+x,1/2-z
1/2-y,1/2-x,1/2-z
loop_
_atom_site_type_symbol
_atom_site_label
_atom_site_fract_x
_atom_site_fract_y
_atom_site_fract_z
Si Si1 0.597741 0.402260 0.500000
Si Si2 0.767961 0.416095 0.401379
Si Si3 0.171565 0.265860 0.396303
Si Si4 0.981448 0.641825 0.331131
O O1 0.605554 0.500000 0.500000
O O2 0.672834 0.388029 0.381868
O O3 0.771206 0.500000 0.500000
O O4 0.807212 0.344633 0.500829
O O5 0.820607 0.442327 0.258056
O O6 0.189061 0.189061 0.500000
O O7 0.228356 0.271645 0.250000
O O8 0.080377 0.281161 0.342119
O O9 0.930964 0.569037 0.250000
O O10 0.000000 0.615109 0.500000
#
# Coordination Sequence:
#
# PCOD9551509 Si02
#       4
#     8  16  16  16
#     4   9  20  36  70 104 140 186 236 302 361 422
#     4  11  20  43  69  98 143 185 242 298 360 448
#     4  11  24  42  67 105 138 191 241 295 367 436
#     4  11  26  47  69 105 147 191 242 308 376 450
#
# _framework density 23.476958
#
# number of rings (size 3 to 8) (size 9 to 14) (size 15 to 20)
#    0.000    1.286    7.143    0.000    4.000    0.000 
#    0.000    8.571    0.000    0.000    0.000    8.000 
#    0.000    0.000    0.000    0.000    0.000    0.000 
#
# Total GULP energy -156133.979361 kJ/mol
# GULP energy per Si atom -5576.213549 kJ/mol
# Density = 2.342352 g / cm^3
# Si number density = 23.476958 Si / 1000 Ang^3
#
#
#
# Elastic Constant Matrix: (Units=GPa)
#
#
# Indices 1 2 3 4 5 6 
#
# 1 95.5395 55.6692 47.7251 0.0000 0.0000 0.0000
# 2 55.6692 95.5403 47.7237 0.0000 0.0000 0.0000
# 3 47.7251 47.7237 163.2783 0.0000 0.0000 0.0000
# 4 0.0000 0.0000 0.0000 40.4902 0.0000 0.0000
# 5 0.0000 0.0000 0.0000 0.0000 40.4897 0.0000
# 6 0.0000 0.0000 0.0000 0.0000 0.0000 9.4229
#
#
#
# Elastic Compliance Matrix: (Units=1/GPa)
#
#
# Indices 1 2 3 4 5 6 
#
# 1 0.016596 -0.008486 -0.002371 0.000000 0.000000 0.000000
# 2 -0.008486 0.016595 -0.002370 0.000000 0.000000 0.000000
# 3 -0.002371 -0.002370 0.007510 0.000000 0.000000 0.000000
# 4 0.000000 0.000000 0.000000 0.024697 0.000000 0.000000
# 5 0.000000 0.000000 0.000000 0.000000 0.024698 0.000000
# 6 0.000000 0.000000 0.000000 0.000000 0.000000 0.106125
#
#
# Mechanical properties :
#
#
# Convention : Reuss Voigt Hill
#
# Bulk Modulus (GPa) = 70.18533 72.95492 71.57013
# Shear Modulus (GPa) = 21.98550 31.62988 26.80769
#
# Velocity S-wave (km/s) = 3.06350 3.67450 3.38283
# Velocity P-wave (km/s) = 6.51719 7.01037 6.76827
#
# Compressibility (1/GPa) = 0.01424799
#
# Stress axis : x y z
#
# Youngs Moduli (GPa) = 60.25718 60.25843 133.15290
#
# Poissons Ratio (x) = 0.51134 0.31564
# Poissons Ratio (y) = 0.51133 0.31560
# Poissons Ratio (z) = 0.14284 0.14282
#
# Static dielectric constant tensor:
#      x y z
#    x 1.950250 0.000000 0.000000 
#    y 0.000000 1.950290 0.000000 
#    z 0.000000 0.000000 1.909640 
# 
# From -- ./inp_files/1859.got.cif
#   From: 2010.05.17/outbox.cif.g08.bks.cpg/sg97_1_cif.got.tgz:1859.got - 2010.06.03 19:55:32.
