data_PCOD9551370
_publ_section_title
;
Structure prediction by ZEFSAII (Michael W. Deem and Ramdas Pophale) SiO2 
 PCOD9551370
Probable space group: I 4 2 2 
;
_chemical_formula_sum "Si O2"
_cell_formula_units_Z 88
_cell_length_a 18.631611
_cell_length_b 18.631611
_cell_length_c 15.010218
_cell_angle_alpha 90.000000
_cell_angle_beta 90.000000
_cell_angle_gamma 90.000000
_cell_volume 5210.600972
_symmetry_space_group_name_H-M "I 4 2 2 "
_symmetry_group_IT_number 97
_symmetry_cell_setting 'tetragonal'
loop_
_space_group_symop_operation_xyz
x,y,z
-y,x,z
-x,-y,z
y,-x,z
x,-y,-z
-x,y,-z
y,x,-z
-y,-x,-z
1/2+x,1/2+y,1/2+z
1/2-y,1/2+x,1/2+z
1/2-x,1/2-y,1/2+z
1/2+y,1/2-x,1/2+z
1/2+x,1/2-y,1/2-z
1/2-x,1/2+y,1/2-z
1/2+y,1/2+x,1/2-z
1/2-y,1/2-x,1/2-z
loop_
_atom_site_type_symbol
_atom_site_label
_atom_site_fract_x
_atom_site_fract_y
_atom_site_fract_z
Si Si1 0.761652 0.335621 0.831115
Si Si2 0.822601 0.500000 0.500000
Si Si3 0.230646 0.343424 0.501039
Si Si4 0.564199 0.056104 0.144530
Si Si5 0.213373 0.513733 0.898430
Si Si6 0.782071 0.354755 0.169322
O O1 0.812483 0.312483 0.750000
O O2 0.806081 0.306136 0.915758
O O3 0.749508 0.419402 0.848991
O O4 0.687051 0.293144 0.817177
O O5 0.775464 0.571530 0.507651
O O6 0.872374 0.480539 0.586428
O O7 0.310250 0.310250 0.500000
O O8 0.183600 0.314318 0.582696
O O9 0.574178 0.074178 0.250000
O O10 0.538428 0.130003 0.099444
O O11 0.500000 0.000000 0.140804
O O12 0.221904 0.439233 0.846288
O O13 0.237660 0.500000 0.000000
O O14 0.834186 0.334186 0.250000
#
# Coordination Sequence:
#
# PCOD9551370 Si02
#       6
#    16   8  16  16  16  16
#     4  10  21  39  54  80 113 148 193 236 283 347
#     4  12  21  36  54  75 112 150 184 228 288 345
#     4  10  21  36  54  78 108 146 193 235 279 340
#     4  11  23  32  48  79 116 142 174 221 279 345
#     4  12  21  34  55  80 110 148 190 235 288 339
#     4  10  22  36  57  80 112 152 191 232 286 355
#
# _framework density 16.888646999999999
#
# number of rings (size 3 to 8) (size 9 to 14) (size 15 to 20)
#    0.000    1.273    3.636    3.000    5.091    0.000 
#    0.000    0.000    0.000    0.818    0.000    1.273 
#    0.000    8.727    0.000    0.000    0.000    0.727 
#
# Total GULP energy -245401.738183 kJ/mol
# GULP energy per Si atom -5577.312231 kJ/mol
# Density = 1.685021 g / cm^3
# Si number density = 16.888647 Si / 1000 Ang^3
#
#
#
# Elastic Constant Matrix: (Units=GPa)
#
#
# Indices 1 2 3 4 5 6 
#
# 1 117.0399 65.0122 23.8090 0.0000 0.0000 0.0000
# 2 65.0122 117.0399 23.8090 0.0000 0.0000 0.0000
# 3 23.8090 23.8090 113.6808 0.0000 0.0000 0.0000
# 4 0.0000 0.0000 0.0000 19.8739 0.0000 0.0000
# 5 0.0000 0.0000 0.0000 0.0000 19.8739 0.0000
# 6 0.0000 0.0000 0.0000 0.0000 0.0000 30.4454
#
#
#
# Elastic Compliance Matrix: (Units=1/GPa)
#
#
# Indices 1 2 3 4 5 6 
#
# 1 0.012516 -0.006705 -0.001217 0.000000 0.000000 0.000000
# 2 -0.006705 0.012516 -0.001217 0.000000 0.000000 0.000000
# 3 -0.001217 -0.001217 0.009306 0.000000 0.000000 0.000000
# 4 0.000000 0.000000 0.000000 0.050317 0.000000 0.000000
# 5 0.000000 0.000000 0.000000 0.000000 0.050317 0.000000
# 6 0.000000 0.000000 0.000000 0.000000 0.000000 0.032846
#
#
# Mechanical properties :
#
#
# Convention : Reuss Voigt Hill
#
# Bulk Modulus (GPa) = 62.26441 63.66899 62.96670
# Shear Modulus (GPa) = 26.11654 29.71399 27.91526
#
# Velocity S-wave (km/s) = 3.93669 4.19908 4.07000
# Velocity P-wave (km/s) = 7.59019 7.82884 7.71044
#
# Compressibility (1/GPa) = 0.01606054
#
# Stress axis : x y z
#
# Youngs Moduli (GPa) = 79.89834 79.89834 107.45322
#
# Poissons Ratio (x) = 0.53569 0.13078
# Poissons Ratio (y) = 0.53569 0.13078
# Poissons Ratio (z) = 0.09724 0.09724
#
# Static dielectric constant tensor:
#      x y z
#    x 1.577320 0.000000 0.000000 
#    y 0.000000 1.577320 0.000000 
#    z 0.000000 0.000000 1.609490 
# 
# From -- ./inp_files/4829.got.cif
#   From: 2010.05.17/outbox.cif.g08.bks.cpg/sg97_3_cif.got.tgz:4829.got - 2010.06.03 19:55:32.
