data_PCOD9551347
_publ_section_title
;
Structure prediction by ZEFSAII (Michael W. Deem and Ramdas Pophale) SiO2 
 PCOD9551347
Probable space group: I 4 2 2 
;
_chemical_formula_sum "Si O2"
_cell_formula_units_Z 120
_cell_length_a 17.785930
_cell_length_b 17.785930
_cell_length_c 20.529790
_cell_angle_alpha 90.000000
_cell_angle_beta 90.000000
_cell_angle_gamma 90.000000
_cell_volume 6494.379520
_symmetry_space_group_name_H-M "I 4 2 2 "
_symmetry_group_IT_number 97
_symmetry_cell_setting 'tetragonal'
loop_
_space_group_symop_operation_xyz
x,y,z
-y,x,z
-x,-y,z
y,-x,z
x,-y,-z
-x,y,-z
y,x,-z
-y,-x,-z
1/2+x,1/2+y,1/2+z
1/2-y,1/2+x,1/2+z
1/2-x,1/2-y,1/2+z
1/2+y,1/2-x,1/2+z
1/2+x,1/2-y,1/2-z
1/2-x,1/2+y,1/2-z
1/2+y,1/2+x,1/2-z
1/2-y,1/2-x,1/2-z
loop_
_atom_site_type_symbol
_atom_site_label
_atom_site_fract_x
_atom_site_fract_y
_atom_site_fract_z
Si Si1 0.175361 0.187762 0.190876
Si Si2 0.000000 0.182199 0.000000
Si Si3 0.945886 0.889637 0.874126
Si Si4 0.707726 0.684526 0.839078
Si Si5 0.794199 0.431795 0.082764
Si Si6 0.972750 0.582935 0.924249
Si Si7 0.792033 0.581663 0.400302
Si Si8 0.274279 0.107810 0.562793
O O1 0.171356 0.104201 0.161619
O O2 0.252294 0.227645 0.168938
O O3 0.169586 0.182578 0.268395
O O4 0.112191 0.242072 0.159149
O O5 0.951691 0.132698 0.050190
O O6 0.052979 0.235157 0.043962
O O7 0.032395 0.904283 0.858022
O O8 0.748907 0.608554 0.860153
O O9 0.649517 0.711494 0.894447
O O10 0.883102 0.413438 0.081142
O O11 0.786480 0.521748 0.084808
O O12 0.761646 0.399449 0.014499
O O13 0.000000 0.500000 0.903128
O O14 0.014093 0.650115 0.886566
O O15 0.000000 0.590389 0.000000
O O16 0.843454 0.650382 0.425341
#
# Coordination Sequence:
#
# PCOD9551347 Si02
#       8
#    16   8  16  16  16  16  16  16
#     4  10  24  42  56  84 120 170 217 255 308 361
#     4  12  22  35  59  98 124 176 204 252 309 364
#     4  11  24  40  58  85 129 171 214 258 297 358
#     4  10  24  41  62  85 117 163 213 261 306 382
#     4  11  20  36  62  95 122 159 199 258 324 375
#     4  11  18  32  57  98 136 159 196 252 321 388
#     4  11  20  35  58  90 126 168 200 252 306 377
#     4  10  20  38  61  89 123 152 198 260 320 370
#
# _framework density 18.477515
#
# number of rings (size 3 to 8) (size 9 to 14) (size 15 to 20)
#    0.000    1.333    4.667    1.600    3.733    1.600 
#    0.000    0.000    0.000    0.400    0.000    1.867 
#    0.000    0.000    0.000    0.000    0.000    0.000 
#
# Total GULP energy -334783.043405 kJ/mol
# GULP energy per Si atom -5579.717390 kJ/mol
# Density = 1.843546 g / cm^3
# Si number density = 18.477515 Si / 1000 Ang^3
#
#
#
# Elastic Constant Matrix: (Units=GPa)
#
#
# Indices 1 2 3 4 5 6 
#
# 1 70.9105 16.2171 35.5086 0.0000 0.0000 0.0000
# 2 16.2171 70.9105 35.5086 0.0000 0.0000 0.0000
# 3 35.5086 35.5086 78.5633 0.0000 0.0000 0.0000
# 4 0.0000 0.0000 0.0000 22.4237 0.0000 0.0000
# 5 0.0000 0.0000 0.0000 0.0000 22.4237 0.0000
# 6 0.0000 0.0000 0.0000 0.0000 0.0000 13.2698
#
#
#
# Elastic Compliance Matrix: (Units=1/GPa)
#
#
# Indices 1 2 3 4 5 6 
#
# 1 0.018228 -0.000056 -0.008213 0.000000 0.000000 0.000000
# 2 -0.000056 0.018228 -0.008213 0.000000 0.000000 0.000000
# 3 -0.008213 -0.008213 0.020153 0.000000 0.000000 0.000000
# 4 0.000000 0.000000 0.000000 0.044596 0.000000 0.000000
# 5 0.000000 0.000000 0.000000 0.000000 0.044596 0.000000
# 6 0.000000 0.000000 0.000000 0.000000 0.000000 0.075359
#
#
# Mechanical properties :
#
#
# Convention : Reuss Voigt Hill
#
# Bulk Modulus (GPa) = 42.29426 43.87255 43.08340
# Shear Modulus (GPa) = 19.08356 20.50008 19.79182
#
# Velocity S-wave (km/s) = 3.21721 3.33447 3.27636
# Velocity P-wave (km/s) = 6.06134 6.21452 6.13841
#
# Compressibility (1/GPa) = 0.02364387
#
# Stress axis : x y z
#
# Youngs Moduli (GPa) = 54.86095 54.86095 49.62040
#
# Poissons Ratio (x) = 0.00306 0.40755
# Poissons Ratio (y) = 0.00306 0.40755
# Poissons Ratio (z) = 0.45059 0.45059
#
# Static dielectric constant tensor:
#      x y z
#    x 1.644580 0.000000 0.000000 
#    y 0.000000 1.644580 0.000000 
#    z 0.000000 0.000000 1.633990 
# 
# From -- ./inp_files/6852.got.cif
#   From: 2010.05.17/outbox.cif.g08.bks.cpg/sg97_4_cif.got.tgz:6852.got - 2010.06.03 19:55:32.
