data_PCOD9551729
_publ_section_title
;
Structure prediction by ZEFSAII (Michael W. Deem and Ramdas Pophale) SiO2 
 PCOD9551729
Probable space group: I 41 2 2
;
_chemical_formula_sum "Si O2"
_cell_formula_units_Z 92
_cell_length_a 24.380235
_cell_length_b 24.380235
_cell_length_c 8.688311
_cell_angle_alpha 90.000000
_cell_angle_beta 90.000000
_cell_angle_gamma 90.000000
_cell_volume 5164.296077
_symmetry_space_group_name_H-M "I 41 2 2"
_symmetry_group_IT_number 98
_symmetry_cell_setting 'tetragonal'
loop_
_space_group_symop_operation_xyz
x,y,z
-y,1/2+x,1/4+z
-x,-y,z
y,1/2-x,1/4+z
x,1/2-y,1/4-z
-x,1/2+y,1/4-z
y,x,-z
-y,-x,-z
1/2+x,1/2+y,1/2+z
1/2-y,x,3/4+z
1/2-x,1/2-y,1/2+z
1/2+y,-x,3/4+z
1/2+x,-y,3/4-z
1/2-x,y,3/4-z
1/2+y,1/2+x,1/2-z
1/2-y,1/2-x,1/2-z
loop_
_atom_site_type_symbol
_atom_site_label
_atom_site_fract_x
_atom_site_fract_y
_atom_site_fract_z
Si Si1 0.000000 0.000000 0.500000
Si Si2 0.889174 0.979260 0.681010
Si Si3 0.420280 0.357108 0.261607
Si Si4 0.290759 0.019794 0.259544
Si Si5 0.797371 0.797371 0.500000
Si Si6 0.591277 0.002522 0.737809
Si Si7 0.257255 0.391464 0.556838
O O1 0.947822 0.997304 0.613278
O O2 0.892735 0.912637 0.697185
O O3 0.844756 0.004311 0.566076
O O4 0.876156 0.997321 0.853702
O O5 0.433864 0.316301 0.122817
O O6 0.478005 0.375479 0.343187
O O7 0.386191 0.320074 0.381972
O O8 0.250000 0.988403 0.375000
O O9 0.259368 0.048245 0.118348
O O10 0.794010 0.750000 0.625000
O O11 0.783226 0.850638 0.601938
O O12 0.560821 0.060821 0.750000
O O13 0.542647 0.957354 0.750000
O O14 0.250000 0.385429 0.375000
#
# Coordination Sequence:
#
# PCOD9551729 Si02
#       7
#     4  16  16  16   8  16  16
#     4  12  20  30  58  76 116 132 170 228 284 358
#     4  11  20  32  53  79 100 138 169 220 289 340
#     4  10  19  37  53  73 102 131 174 227 286 345
#     4  10  21  35  53  73  97 133 180 222 264 338
#     4  12  26  43  54  70  88 117 173 244 298 337
#     4   9  18  31  50  78 106 129 163 213 277 354
#     4  11  25  41  58  72  96 135 181 238 295 346
#
# _framework density 17.814626000000001
#
# number of rings (size 3 to 8) (size 9 to 14) (size 15 to 20)
#    0.000    1.565    1.739    5.217    4.870    0.000 
#    4.696    0.000    0.000    0.000    0.000    0.000 
#    0.000    0.000    0.000    0.000    0.000    0.000 
#
# Total GULP energy -256332.031684 kJ/mol
# GULP energy per Si atom -5572.435471 kJ/mol
# Density = 1.777408 g / cm^3
# Si number density = 17.814626 Si / 1000 Ang^3
#
#
#
# Elastic Constant Matrix: (Units=GPa)
#
#
# Indices 1 2 3 4 5 6 
#
# 1 51.4064 24.8552 21.9876 0.0000 0.0000 0.0000
# 2 24.8552 51.4068 21.9883 0.0000 0.0000 0.0000
# 3 21.9876 21.9883 122.7171 0.0000 0.0000 0.0000
# 4 0.0000 0.0000 0.0000 21.3996 0.0000 0.0000
# 5 0.0000 0.0000 0.0000 0.0000 21.3997 0.0000
# 6 0.0000 0.0000 0.0000 0.0000 0.0000 19.4183
#
#
#
# Elastic Compliance Matrix: (Units=1/GPa)
#
#
# Indices 1 2 3 4 5 6 
#
# 1 0.026143 -0.011520 -0.002620 0.000000 0.000000 0.000000
# 2 -0.011520 0.026143 -0.002620 0.000000 0.000000 0.000000
# 3 -0.002620 -0.002620 0.009088 0.000000 0.000000 0.000000
# 4 0.000000 0.000000 0.000000 0.046730 0.000000 0.000000
# 5 0.000000 0.000000 0.000000 0.000000 0.046730 0.000000
# 6 0.000000 0.000000 0.000000 0.000000 0.000000 0.051498
#
#
# Mechanical properties :
#
#
# Convention : Reuss Voigt Hill
#
# Bulk Modulus (GPa) = 35.90113 40.35471 38.12792
# Shear Modulus (GPa) = 20.06936 22.89015 21.47975
#
# Velocity S-wave (km/s) = 3.36008 3.58845 3.47614
# Velocity P-wave (km/s) = 5.93716 6.31435 6.12866
#
# Compressibility (1/GPa) = 0.02785427
#
# Stress axis : x y z
#
# Youngs Moduli (GPa) = 38.25079 38.25092 110.03790
#
# Poissons Ratio (x) = 0.44063 0.28831
# Poissons Ratio (y) = 0.44063 0.28833
# Poissons Ratio (z) = 0.10022 0.10023
#
# Static dielectric constant tensor:
#      x y z
#    x 1.672620 0.000000 0.000000 
#    y 0.000000 1.672620 0.000000 
#    z 0.000000 0.000000 1.686510 
# 
# From -- ./inp_files/3875.got.cif
#   From: 2010.05.17/outbox.cif.g08.bks.cpg/sg98_2_cif.got.tgz:3875.got - 2010.06.03 20:00:51.
