data_PCOD9551039
_publ_section_title
;
Structure prediction by ZEFSAII (Michael W. Deem and Ramdas Pophale) SiO2 
 PCOD9551039
Probable space group: P 43 21 2
;
_chemical_formula_sum "Si O2"
_cell_formula_units_Z 40
_cell_length_a 11.780102
_cell_length_b 11.780102
_cell_length_c 12.210619
_cell_angle_alpha 90.000000
_cell_angle_beta 90.000000
_cell_angle_gamma 90.000000
_cell_volume 1694.477405
_symmetry_space_group_name_H-M "P 43 21 2"
_symmetry_group_IT_number 96
_symmetry_cell_setting 'tetragonal'
loop_
_space_group_symop_operation_xyz
x,y,z
1/2-y,1/2+x,3/4+z
-x,-y,1/2+z
1/2+y,1/2-x,1/4+z
1/2+x,1/2-y,1/4-z
1/2-x,1/2+y,3/4-z
y,x,-z
-y,-x,1/2-z
loop_
_atom_site_type_symbol
_atom_site_label
_atom_site_fract_x
_atom_site_fract_y
_atom_site_fract_z
Si Si1 0.646359 0.883277 0.975212
Si Si2 0.226313 0.883166 0.434010
Si Si3 0.104104 0.342787 0.773449
Si Si4 0.692981 0.607575 0.383959
Si Si5 0.029184 0.089736 0.848206
O O1 0.663956 0.800468 0.080992
O O2 0.514107 0.908312 0.989944
O O3 0.725108 0.993222 0.969035
O O4 0.656128 0.840287 0.848571
O O5 0.213667 0.821141 0.549800
O O6 0.094853 0.897511 0.401056
O O7 0.072325 0.213361 0.809387
O O8 0.174035 0.408255 0.866076
O O9 0.653751 0.653751 0.500000
O O10 0.627947 0.490316 0.351854
O O11 0.991241 0.008760 0.750000
#
# Coordination Sequence:
#
# PCOD9551039 Si02
#       5
#     8   8   8   8   8
#     4  10  23  45  78 117 147 194 259 336 393 468
#     4  11  24  49  78 117 154 201 264 333 399 479
#     4  11  24  48  75 110 160 201 255 331 409 461
#     4  11  28  46  67 108 153 215 257 319 391 479
#     4  11  22  48  78 110 152 201 262 327 402 473
#
# _framework density 23.606100000000001
#
# number of rings (size 3 to 8) (size 9 to 14) (size 15 to 20)
#    0.000    1.200    4.000    1.800    0.000    6.400 
#   36.000    0.000    0.000    0.000    0.000    0.000 
#    0.000    0.000    0.000    0.000    0.000    0.000 
#
# Total GULP energy -222765.395112 kJ/mol
# GULP energy per Si atom -5569.134878 kJ/mol
# Density = 2.355237 g / cm^3
# Si number density = 23.606100 Si / 1000 Ang^3
#
#
#
# Elastic Constant Matrix: (Units=GPa)
#
#
# Indices 1 2 3 4 5 6 
#
# 1 100.1973 53.5634 44.4560 0.0000 0.0000 0.0000
# 2 53.5634 100.1877 44.4548 0.0000 0.0000 0.0000
# 3 44.4560 44.4548 133.5144 0.0000 0.0000 0.0000
# 4 0.0000 0.0000 0.0000 43.9698 0.0000 0.0000
# 5 0.0000 0.0000 0.0000 0.0000 43.9700 0.0000
# 6 0.0000 0.0000 0.0000 0.0000 0.0000 53.9262
#
#
#
# Elastic Compliance Matrix: (Units=1/GPa)
#
#
# Indices 1 2 3 4 5 6 
#
# 1 0.014749 -0.006696 -0.002682 0.000000 0.000000 0.000000
# 2 -0.006696 0.014751 -0.002682 0.000000 0.000000 0.000000
# 3 -0.002682 -0.002682 0.009276 0.000000 0.000000 0.000000
# 4 0.000000 0.000000 0.000000 0.022743 0.000000 0.000000
# 5 0.000000 0.000000 0.000000 0.000000 0.022743 0.000000
# 6 0.000000 0.000000 0.000000 0.000000 0.000000 0.018544
#
#
# Mechanical properties :
#
#
# Convention : Reuss Voigt Hill
#
# Bulk Modulus (GPa) = 68.22462 68.76089 68.49275
# Shear Modulus (GPa) = 37.93325 41.13486 39.53406
#
# Velocity S-wave (km/s) = 4.01300 4.17892 4.09680
# Velocity P-wave (km/s) = 7.10184 7.24404 7.17330
#
# Compressibility (1/GPa) = 0.01465746
#
# Stress axis : x y z
#
# Youngs Moduli (GPa) = 67.79894 67.79191 107.80764
#
# Poissons Ratio (x) = 0.45391 0.28911
# Poissons Ratio (y) = 0.45396 0.28915
# Poissons Ratio (z) = 0.18182 0.18182
#
# Static dielectric constant tensor:
#      x y z
#    x 2.029370 0.000000 0.000000 
#    y 0.000000 2.029360 0.000000 
#    z 0.000000 0.000000 1.909490 
# 
# From -- ./inp_files/2041.got.cif
#   From: 2010.05.17/outbox.cif.g08.bks.cpg/sg96_2_cif.got.tgz:2041.got - 2010.06.03 19:52:08.
