data_PCOD9551682
_publ_section_title
;
Structure prediction by ZEFSAII (Michael W. Deem and Ramdas Pophale) SiO2 
 PCOD9551682
Probable space group: I 41 2 2
;
_chemical_formula_sum "Si O2"
_cell_formula_units_Z 48
_cell_length_a 15.271085
_cell_length_b 15.271085
_cell_length_c 6.750206
_cell_angle_alpha 90.000000
_cell_angle_beta 90.000000
_cell_angle_gamma 90.000000
_cell_volume 1574.188791
_symmetry_space_group_name_H-M "I 41 2 2"
_symmetry_group_IT_number 98
_symmetry_cell_setting 'tetragonal'
loop_
_space_group_symop_operation_xyz
x,y,z
-y,1/2+x,1/4+z
-x,-y,z
y,1/2-x,1/4+z
x,1/2-y,1/4-z
-x,1/2+y,1/4-z
y,x,-z
-y,-x,-z
1/2+x,1/2+y,1/2+z
1/2-y,x,3/4+z
1/2-x,1/2-y,1/2+z
1/2+y,-x,3/4+z
1/2+x,-y,3/4-z
1/2-x,y,3/4-z
1/2+y,1/2+x,1/2-z
1/2-y,1/2-x,1/2-z
loop_
_atom_site_type_symbol
_atom_site_label
_atom_site_fract_x
_atom_site_fract_y
_atom_site_fract_z
Si Si1 0.345967 0.948227 0.624785
Si Si2 0.150611 0.557806 0.620909
Si Si3 0.380141 0.234200 0.397592
O O1 0.249313 0.902926 0.629266
O O2 0.370963 0.934462 0.376449
O O3 0.564345 0.125823 0.629827
O O4 0.317502 0.053250 0.611333
O O5 0.159870 0.454225 0.609853
O O6 0.150012 0.250000 0.125000
O O7 0.310498 0.189503 0.250000
#
# Coordination Sequence:
#
# PCOD9551682 Si02
#       3
#    16  16  16
#     4  10  18  36  61 109 173 243 314 397 518 602
#     4  10  20  33  63 109 179 236 317 393 510 603
#     4  10  22  41  68 113 181 247 326 422 507 604
#
# _framework density 30.491896000000001
#
# number of rings (size 3 to 8) (size 9 to 14) (size 15 to 20)
#    2.000    0.000    3.333    2.000    0.000    4.667 
#    0.000    0.000    0.000    8.000    0.000    0.000 
#   30.000    0.000    0.000    0.000    0.000    0.000 
#
# Total GULP energy -133649.455602 kJ/mol
# GULP energy per Si atom -5568.727317 kJ/mol
# Density = 3.042250 g / cm^3
# Si number density = 30.491896 Si / 1000 Ang^3
#
#
#
# Elastic Constant Matrix: (Units=GPa)
#
#
# Indices 1 2 3 4 5 6 
#
# 1 159.7977 169.6371 156.9553 0.0000 0.0000 0.0000
# 2 169.6371 159.7977 156.9553 0.0000 0.0000 0.0000
# 3 156.9553 156.9553 421.9537 0.0000 0.0000 0.0000
# 4 0.0000 0.0000 0.0000 108.0862 0.0000 0.0000
# 5 0.0000 0.0000 0.0000 0.0000 108.0857 0.0000
# 6 0.0000 0.0000 0.0000 0.0000 0.0000 229.2144
#
#
#
# Elastic Compliance Matrix: (Units=1/GPa)
#
#
# Indices 1 2 3 4 5 6 
#
# 1 -0.048465 0.053167 -0.001749 0.000000 0.000000 0.000000
# 2 0.053167 -0.048465 -0.001749 0.000000 0.000000 0.000000
# 3 -0.001749 -0.001749 0.003671 0.000000 0.000000 0.000000
# 4 0.000000 0.000000 0.000000 0.009252 0.000000 0.000000
# 5 0.000000 0.000000 0.000000 0.000000 0.009252 0.000000
# 6 0.000000 0.000000 0.000000 0.000000 0.000000 0.004363
#
#
# Mechanical properties :
#
#
# Convention : Reuss Voigt Hill
#
# Bulk Modulus (GPa) = 164.49649 189.84939 177.17294
# Shear Modulus (GPa) = -29.81442 106.27735 38.23146
#
# Velocity S-wave (km/s) = -3.13034 5.91016 3.54478
# Velocity P-wave (km/s) = 6.40307 10.43890 8.65939
#
# Compressibility (1/GPa) = 0.00607916
#
# Stress axis : x y z
#
# Youngs Moduli (GPa) = -20.63343 -20.63344 272.39471
#
# Poissons Ratio (x) = 1.09702 0.47643
# Poissons Ratio (y) = 1.09702 0.47644
# Poissons Ratio (z) = -0.03609 -0.03609
#
# Static dielectric constant tensor:
#      x y z
#    x 2.224950 0.000000 0.000000 
#    y 0.000000 2.224940 0.000000 
#    z 0.000000 0.000000 2.892130 
# 
# From -- ./inp_files/4555.got.cif
#   From: 2010.05.17/outbox.cif.g08.bks.cpg/sg98_3_cif.got.tgz:4555.got - 2010.06.03 20:00:51.
