data_PCOD9551073
_publ_section_title
;
Structure prediction by ZEFSAII (Michael W. Deem and Ramdas Pophale) SiO2 
 PCOD9551073
Probable space group: P 43 21 2
;
_chemical_formula_sum "Si O2"
_cell_formula_units_Z 12
_cell_length_a 8.469378
_cell_length_b 8.469378
_cell_length_c 6.366325
_cell_angle_alpha 90.000000
_cell_angle_beta 90.000000
_cell_angle_gamma 90.000000
_cell_volume 456.658808
_symmetry_space_group_name_H-M "P 43 21 2"
_symmetry_group_IT_number 96
_symmetry_cell_setting 'tetragonal'
loop_
_space_group_symop_operation_xyz
x,y,z
1/2-y,1/2+x,3/4+z
-x,-y,1/2+z
1/2+y,1/2-x,1/4+z
1/2+x,1/2-y,1/4-z
1/2-x,1/2+y,3/4-z
y,x,-z
-y,-x,1/2-z
loop_
_atom_site_type_symbol
_atom_site_label
_atom_site_fract_x
_atom_site_fract_y
_atom_site_fract_z
Si Si1 0.501231 0.229018 0.135996
Si Si2 0.066098 0.066098 0.500000
O O1 0.421719 0.374194 0.262005
O O2 0.613610 0.124255 0.278867
O O3 0.593460 0.318846 0.945525
#
# Coordination Sequence:
#
# PCOD9551073 Si02
#       2
#     8   4
#     4  11  26  46  74 108 143 186 238 293 352 420
#     4  10  24  48  72 102 142 188 232 288 352 418
#
# _framework density 26.277823000000001
#
# number of rings (size 3 to 8) (size 9 to 14) (size 15 to 20)
#    0.000    1.333    0.000    4.000    0.000   26.667 
#    0.000    0.000    0.000    0.000    0.000    0.000 
#    0.000    0.000    0.000    0.000    0.000    0.000 
#
# Total GULP energy -67051.386503 kJ/mol
# GULP energy per Si atom -5587.615542 kJ/mol
# Density = 2.621801 g / cm^3
# Si number density = 26.277823 Si / 1000 Ang^3
#
#
#
# Elastic Constant Matrix: (Units=GPa)
#
#
# Indices 1 2 3 4 5 6 
#
# 1 167.9537 114.1337 78.6514 0.0000 0.0000 0.0000
# 2 114.1337 167.9537 78.6514 0.0000 0.0000 0.0000
# 3 78.6514 78.6514 103.9210 0.0000 0.0000 0.0000
# 4 0.0000 0.0000 0.0000 88.5843 0.0000 0.0000
# 5 0.0000 0.0000 0.0000 0.0000 88.5843 0.0000
# 6 0.0000 0.0000 0.0000 0.0000 0.0000 64.6089
#
#
#
# Elastic Compliance Matrix: (Units=1/GPa)
#
#
# Indices 1 2 3 4 5 6 
#
# 1 0.012357 -0.006223 -0.004642 0.000000 0.000000 0.000000
# 2 -0.006223 0.012357 -0.004642 0.000000 0.000000 0.000000
# 3 -0.004642 -0.004642 0.016649 0.000000 0.000000 0.000000
# 4 0.000000 0.000000 0.000000 0.011289 0.000000 0.000000
# 5 0.000000 0.000000 0.000000 0.000000 0.011289 0.000000
# 6 0.000000 0.000000 0.000000 0.000000 0.000000 0.015478
#
#
# Mechanical properties :
#
#
# Convention : Reuss Voigt Hill
#
# Bulk Modulus (GPa) = 96.63675 109.18905 102.91290
# Shear Modulus (GPa) = 43.90448 59.58164 51.74306
#
# Velocity S-wave (km/s) = 4.09195 4.76686 4.44224
# Velocity P-wave (km/s) = 7.69287 8.48170 8.09690
#
# Compressibility (1/GPa) = 0.01034803
#
# Stress axis : x y z
#
# Youngs Moduli (GPa) = 80.92543 80.92543 60.06193
#
# Poissons Ratio (x) = 0.50363 0.27882
# Poissons Ratio (y) = 0.50363 0.27882
# Poissons Ratio (z) = 0.37567 0.37567
#
# Static dielectric constant tensor:
#      x y z
#    x 2.070110 0.000000 0.000000 
#    y 0.000000 2.070110 0.000000 
#    z 0.000000 0.000000 2.165710 
# 
# From -- ./inp_files/877.got.cif
#   From: 2010.05.17/outbox.cif.g08.bks.cpg/sg96_1_cif.got.tgz:877.got - 2010.06.03 19:52:08.
