data_PCOD9551195
_publ_section_title
;
Structure prediction by ZEFSAII (Michael W. Deem and Ramdas Pophale) SiO2 
 PCOD9551195
Probable space group: P 43 21 2
;
_chemical_formula_sum "Si O2"
_cell_formula_units_Z 52
_cell_length_a 21.000000
_cell_length_b 21.000000
_cell_length_c 6.000000
_cell_angle_alpha 90.000000
_cell_angle_beta 90.000000
_cell_angle_gamma 90.000000
_cell_volume 2646.000000
_symmetry_space_group_name_H-M "P 43 21 2"
_symmetry_group_IT_number 96
_symmetry_cell_setting 'tetragonal'
loop_
_space_group_symop_operation_xyz
x,y,z
1/2-y,1/2+x,3/4+z
-x,-y,1/2+z
1/2+y,1/2-x,1/4+z
1/2+x,1/2-y,1/4-z
1/2-x,1/2+y,3/4-z
y,x,-z
-y,-x,1/2-z
loop_
_atom_site_type_symbol
_atom_site_label
_atom_site_fract_x
_atom_site_fract_y
_atom_site_fract_z
Si Si1 0.362852 0.637149 0.750000
Si Si2 0.192524 0.914984 0.294652
Si Si3 0.478506 0.093198 0.494221
Si Si4 0.399275 0.752769 0.449314
Si Si5 0.447647 0.649545 0.136277
Si Si6 0.175170 0.383586 0.212689
Si Si7 0.968504 0.288578 0.067274
O O1 0.364497 0.697803 0.590909
O O2 0.359083 0.571248 0.618657
O O3 0.140586 0.859415 0.250000
O O4 0.253600 0.889691 0.434479
O O5 0.158727 0.976624 0.410406
O O6 0.228662 0.943411 0.076316
O O7 0.539543 0.060242 0.607055
O O8 0.433980 0.125870 0.679721
O O9 0.493313 0.153166 0.335581
O O10 0.413733 0.715399 0.218393
O O11 0.356049 0.815538 0.476129
O O12 0.470394 0.768799 0.537076
O O13 0.410524 0.589477 0.250000
O O14 0.184773 0.408761 0.960694
#
# Coordination Sequence:
#
# PCOD9551195 Si02
#       7
#     4   8   8   8   8   8   8
#     4  10  22  40  70  96 124 170 222 270 324 402
#     4  11  25  45  67  99 139 174 224 291 350 409
#     4  11  26  39  62  96 135 176 231 271 324 393
#     4  11  22  39  70  92 131 173 224 266 331 396
#     4  10  22  44  67  96 129 174 223 278 335 410
#     4  11  25  42  65  97 136 181 218 276 338 402
#     4  11  23  43  65  94 136 181 218 278 341 391
#
# _framework density 19.652304999999998
#
# number of rings (size 3 to 8) (size 9 to 14) (size 15 to 20)
#    0.000    1.231    3.077    1.846    6.462    6.154 
#    1.385    0.000    0.000    0.000    0.000    0.000 
#    0.000    0.000    0.000    0.000    0.000    0.000 
#
# Total GULP energy -290101.343299 kJ/mol
# GULP energy per Si atom -5578.871987 kJ/mol
# Density = 1.960758 g / cm^3
# Si number density = 19.652305 Si / 1000 Ang^3
#
#
#
# Elastic Constant Matrix: (Units=GPa)
#
#
# Indices 1 2 3 4 5 6 
#
# 1 111.4303 57.7139 18.9900 0.0000 0.0000 0.0000
# 2 57.7139 111.4293 18.9890 0.0000 0.0000 0.0000
# 3 18.9900 18.9890 47.2698 0.0000 0.0000 0.0000
# 4 0.0000 0.0000 0.0000 27.0193 0.0000 0.0000
# 5 0.0000 0.0000 0.0000 0.0000 27.0183 0.0000
# 6 0.0000 0.0000 0.0000 0.0000 0.0000 42.7962
#
#
#
# Elastic Compliance Matrix: (Units=1/GPa)
#
#
# Indices 1 2 3 4 5 6 
#
# 1 0.012557 -0.006059 -0.002611 0.000000 0.000000 0.000000
# 2 -0.006059 0.012557 -0.002610 0.000000 0.000000 0.000000
# 3 -0.002611 -0.002610 0.023253 0.000000 0.000000 0.000000
# 4 0.000000 0.000000 0.000000 0.037011 0.000000 0.000000
# 5 0.000000 0.000000 0.000000 0.000000 0.037012 0.000000
# 6 0.000000 0.000000 0.000000 0.000000 0.000000 0.023367
#
#
# Mechanical properties :
#
#
# Convention : Reuss Voigt Hill
#
# Bulk Modulus (GPa) = 38.74908 51.27946 45.01427
# Shear Modulus (GPa) = 28.26150 30.99586 29.62868
#
# Velocity S-wave (km/s) = 3.79631 3.97572 3.88705
# Velocity P-wave (km/s) = 6.24308 6.87206 6.56511
#
# Compressibility (1/GPa) = 0.02580707
#
# Stress axis : x y z
#
# Youngs Moduli (GPa) = 79.63446 79.63434 43.00592
#
# Poissons Ratio (x) = 0.48251 0.11228
# Poissons Ratio (y) = 0.48251 0.11226
# Poissons Ratio (z) = 0.20790 0.20787
#
# Static dielectric constant tensor:
#      x y z
#    x 1.666030 0.000000 0.000000 
#    y 0.000000 1.666030 0.000000 
#    z 0.000000 0.000000 1.787030 
# 
# From -- ./inp_files/683.got.cif
#   From: 2010.05.17/outbox.ucp.g08.bks.cvg/sg96_1_cif.got.tgz:683.got - 2010.06.11 10:37:29.
