data_PCOD9551251
_publ_section_title
;
Structure prediction by ZEFSAII (Michael W. Deem and Ramdas Pophale) SiO2 
 PCOD9551251
Probable space group: I 4 2 2 
;
_chemical_formula_sum "Si O2"
_cell_formula_units_Z 56
_cell_length_a 13.700754
_cell_length_b 13.700754
_cell_length_c 11.897256
_cell_angle_alpha 90.000000
_cell_angle_beta 90.000000
_cell_angle_gamma 90.000000
_cell_volume 2233.241778
_symmetry_space_group_name_H-M "I 4 2 2 "
_symmetry_group_IT_number 97
_symmetry_cell_setting 'tetragonal'
loop_
_space_group_symop_operation_xyz
x,y,z
-y,x,z
-x,-y,z
y,-x,z
x,-y,-z
-x,y,-z
y,x,-z
-y,-x,-z
1/2+x,1/2+y,1/2+z
1/2-y,1/2+x,1/2+z
1/2-x,1/2-y,1/2+z
1/2+y,1/2-x,1/2+z
1/2+x,1/2-y,1/2-z
1/2-x,1/2+y,1/2-z
1/2+y,1/2+x,1/2-z
1/2-y,1/2-x,1/2-z
loop_
_atom_site_type_symbol
_atom_site_label
_atom_site_fract_x
_atom_site_fract_y
_atom_site_fract_z
Si Si1 0.857098 0.592615 0.628947
Si Si2 0.995314 0.761919 0.616102
Si Si3 0.609205 0.109205 0.250000
Si Si4 0.946342 0.850495 0.850827
O O1 0.855876 0.644125 0.750000
O O2 0.927771 0.669772 0.573786
O O3 0.892497 0.482605 0.661395
O O4 0.747945 0.585449 0.587551
O O5 0.000000 0.820090 0.500000
O O6 0.086877 0.707319 0.679410
O O7 0.948566 0.825312 0.716815
O O8 0.880486 0.942926 0.876075
#
# Coordination Sequence:
#
# PCOD9551251 Si02
#       4
#    16  16   8  16
#     4   8  15  30  48  77 101 134 182 219 272 332
#     4  10  19  32  52  82 112 140 177 234 285 345
#     4   8  15  30  48  74 102 138 174 217 282 331
#     4   9  18  34  54  75 109 151 185 225 279 338
#
# _framework density 25.075652999999999
#
# number of rings (size 3 to 8) (size 9 to 14) (size 15 to 20)
#    0.000    3.714    0.000    3.857    0.000    3.429 
#   30.857    1.429    0.000    0.000    0.000    2.000 
#    0.000   36.571    0.000    0.000    0.000    0.000 
#
# Total GULP energy -155880.529363 kJ/mol
# GULP energy per Si atom -5567.161763 kJ/mol
# Density = 2.501858 g / cm^3
# Si number density = 25.075653 Si / 1000 Ang^3
#
#
#
# Elastic Constant Matrix: (Units=GPa)
#
#
# Indices 1 2 3 4 5 6 
#
# 1 103.5841 34.5710 4.3287 0.0000 0.0000 0.0000
# 2 34.5710 103.5842 4.3291 0.0000 0.0000 0.0000
# 3 4.3287 4.3291 88.7051 0.0000 0.0000 0.0000
# 4 0.0000 0.0000 0.0000 6.7627 0.0000 0.0000
# 5 0.0000 0.0000 0.0000 0.0000 6.7621 0.0000
# 6 0.0000 0.0000 0.0000 0.0000 0.0000 0.8223
#
#
#
# Elastic Compliance Matrix: (Units=1/GPa)
#
#
# Indices 1 2 3 4 5 6 
#
# 1 0.010875 -0.003615 -0.000354 0.000000 0.000000 0.000000
# 2 -0.003615 0.010875 -0.000354 0.000000 0.000000 0.000000
# 3 -0.000354 -0.000354 0.011308 0.000000 0.000000 0.000000
# 4 0.000000 0.000000 0.000000 0.147869 0.000000 0.000000
# 5 0.000000 0.000000 0.000000 0.000000 0.147882 0.000000
# 6 0.000000 0.000000 0.000000 0.000000 0.000000 1.216140
#
#
# Mechanical properties :
#
#
# Convention : Reuss Voigt Hill
#
# Bulk Modulus (GPa) = 40.96426 42.48120 41.72273
# Shear Modulus (GPa) = 3.20157 19.71240 11.45698
#
# Velocity S-wave (km/s) = 1.13117 2.80682 2.13983
# Velocity P-wave (km/s) = 4.25180 5.24236 4.77284
#
# Compressibility (1/GPa) = 0.02441153
#
# Stress axis : x y z
#
# Youngs Moduli (GPa) = 91.95209 91.95216 88.43378
#
# Poissons Ratio (x) = 0.33239 0.03133
# Poissons Ratio (y) = 0.33239 0.03134
# Poissons Ratio (z) = 0.03258 0.03258
#
# Static dielectric constant tensor:
#      x y z
#    x 2.077000 0.000000 0.000000 
#    y 0.000000 2.077000 0.000000 
#    z 0.000000 0.000000 2.202110 
# 
# From -- ./inp_files/5378.got.cif
#   From: 2010.05.17/outbox.cif.g08.bks.cpg/sg97_3_cif.got.tgz:5378.got - 2010.06.03 19:55:32.
