data_PCOD9551212
_publ_section_title
;
Structure prediction by ZEFSAII (Michael W. Deem and Ramdas Pophale) SiO2 
 PCOD9551212
Probable space group: I 4 2 2 
;
_chemical_formula_sum "Si O2"
_cell_formula_units_Z 128
_cell_length_a 23.335893
_cell_length_b 23.335893
_cell_length_c 12.656994
_cell_angle_alpha 90.000000
_cell_angle_beta 90.000000
_cell_angle_gamma 90.000000
_cell_volume 6892.542042
_symmetry_space_group_name_H-M "I 4 2 2 "
_symmetry_group_IT_number 97
_symmetry_cell_setting 'tetragonal'
loop_
_space_group_symop_operation_xyz
x,y,z
-y,x,z
-x,-y,z
y,-x,z
x,-y,-z
-x,y,-z
y,x,-z
-y,-x,-z
1/2+x,1/2+y,1/2+z
1/2-y,1/2+x,1/2+z
1/2-x,1/2-y,1/2+z
1/2+y,1/2-x,1/2+z
1/2+x,1/2-y,1/2-z
1/2-x,1/2+y,1/2-z
1/2+y,1/2+x,1/2-z
1/2-y,1/2-x,1/2-z
loop_
_atom_site_type_symbol
_atom_site_label
_atom_site_fract_x
_atom_site_fract_y
_atom_site_fract_z
Si Si1 0.179161 0.626776 0.646716
Si Si2 0.099865 0.528331 0.167870
Si Si3 0.777556 0.140373 0.882493
Si Si4 0.398687 0.804074 0.788692
Si Si5 0.418722 0.064175 0.958069
Si Si6 0.225752 0.685815 0.029461
Si Si7 0.542326 0.578540 0.623009
Si Si8 0.694980 0.604672 0.379501
O O1 0.145523 0.645523 0.750000
O O2 0.143133 0.578864 0.584992
O O3 0.180845 0.683359 0.571469
O O4 0.242277 0.602794 0.670428
O O5 0.054407 0.554407 0.250000
O O6 0.163849 0.540047 0.208383
O O7 0.080884 0.466080 0.129098
O O8 0.100264 0.567156 0.062194
O O9 0.744630 0.101476 0.799870
O O10 0.736479 0.194565 0.904641
O O11 0.836427 0.165944 0.841445
O O12 0.791604 0.110909 0.994619
O O13 0.354376 0.854376 0.750000
O O14 0.370443 0.778650 0.896226
O O15 0.425860 0.000000 0.000000
O O16 0.287953 0.712048 0.000000
O O17 0.477696 0.573762 0.668126
O O18 0.559949 0.559949 0.500000
O O19 0.559991 0.644106 0.635352
#
# Coordination Sequence:
#
# PCOD9551212 Si02
#       8
#    16  16  16  16  16  16  16  16
#     4  11  24  38  54  82 120 151 190 249 306 364
#     4  10  21  39  65  81 103 142 203 260 313 362
#     4   9  16  28  49  77 109 142 185 229 274 340
#     4   9  18  30  53  81 102 135 188 246 284 344
#     4  11  25  43  59  83 107 149 203 261 319 370
#     4  10  17  31  51  75 103 140 186 227 276 349
#     4   9  17  32  55  82 113 154 195 231 282 349
#     4  10  18  34  52  82 117 158 190 231 285 359
#
# _framework density 18.570796999999999
#
# number of rings (size 3 to 8) (size 9 to 14) (size 15 to 20)
#    0.000    2.125    5.000    1.125    5.250    0.500 
#    2.250    1.250    0.000    0.000    0.000    0.000 
#    0.000    0.000    0.000    0.000    0.000    8.750 
#
# Total GULP energy -356281.648659 kJ/mol
# GULP energy per Si atom -5566.900760 kJ/mol
# Density = 1.852853 g / cm^3
# Si number density = 18.570797 Si / 1000 Ang^3
#
#
#
# Elastic Constant Matrix: (Units=GPa)
#
#
# Indices 1 2 3 4 5 6 
#
# 1 61.2114 65.0314 18.7062 0.0000 0.0000 0.0000
# 2 65.0314 61.2121 18.7062 0.0000 0.0000 0.0000
# 3 18.7062 18.7062 37.8728 0.0000 0.0000 0.0000
# 4 0.0000 0.0000 0.0000 18.5484 0.0000 0.0000
# 5 0.0000 0.0000 0.0000 0.0000 18.5479 0.0000
# 6 0.0000 0.0000 0.0000 0.0000 0.0000 4.0325
#
#
#
# Elastic Compliance Matrix: (Units=1/GPa)
#
#
# Indices 1 2 3 4 5 6 
#
# 1 -0.126262 0.135541 -0.004583 0.000000 0.000000 0.000000
# 2 0.135541 -0.126260 -0.004584 0.000000 0.000000 0.000000
# 3 -0.004583 -0.004584 0.030932 0.000000 0.000000 0.000000
# 4 0.000000 0.000000 0.000000 0.053913 0.000000 0.000000
# 5 0.000000 0.000000 0.000000 0.000000 0.053914 0.000000
# 6 0.000000 0.000000 0.000000 0.000000 0.000000 0.247984
#
#
# Mechanical properties :
#
#
# Convention : Reuss Voigt Hill
#
# Bulk Modulus (GPa) = 32.09510 40.57599 36.33555
# Shear Modulus (GPa) = -46.23599 12.08260 -17.07670
#
# Velocity S-wave (km/s) = -4.99512 2.55350 -3.03569
# Velocity P-wave (km/s) = 3.99352 5.53088 2.70577
#
# Compressibility (1/GPa) = 0.03115740
#
# Stress axis : x y z
#
# Youngs Moduli (GPa) = -7.92004 -7.92016 32.32924
#
# Poissons Ratio (x) = 1.07350 0.14816
# Poissons Ratio (y) = 1.07349 0.14820
# Poissons Ratio (z) = -0.03630 -0.03631
#
# Static dielectric constant tensor:
#      x y z
#    x 1.703590 0.000000 0.000000 
#    y 0.000000 1.703590 0.000000 
#    z 0.000000 0.000000 1.697290 
# 
# From -- ./inp_files/4057.got.cif
#   From: 2010.05.17/outbox.cif.g08.bks.cpg/sg97_3_cif.got.tgz:4057.got - 2010.06.03 19:55:32.
