data_PCOD9551654
_publ_section_title
;
Structure prediction by ZEFSAII (Michael W. Deem and Ramdas Pophale) SiO2 
 PCOD9551654
Probable space group: I 41 2 2
;
_chemical_formula_sum "Si O2"
_cell_formula_units_Z 80
_cell_length_a 29.588632
_cell_length_b 29.588632
_cell_length_c 5.335525
_cell_angle_alpha 90.000000
_cell_angle_beta 90.000000
_cell_angle_gamma 90.000000
_cell_volume 4671.183542
_symmetry_space_group_name_H-M "I 41 2 2"
_symmetry_group_IT_number 98
_symmetry_cell_setting 'tetragonal'
loop_
_space_group_symop_operation_xyz
x,y,z
-y,1/2+x,1/4+z
-x,-y,z
y,1/2-x,1/4+z
x,1/2-y,1/4-z
-x,1/2+y,1/4-z
y,x,-z
-y,-x,-z
1/2+x,1/2+y,1/2+z
1/2-y,x,3/4+z
1/2-x,1/2-y,1/2+z
1/2+y,-x,3/4+z
1/2+x,-y,3/4-z
1/2-x,y,3/4-z
1/2+y,1/2+x,1/2-z
1/2-y,1/2-x,1/2-z
loop_
_atom_site_type_symbol
_atom_site_label
_atom_site_fract_x
_atom_site_fract_y
_atom_site_fract_z
Si Si1 0.697856 0.529058 0.871529
Si Si2 0.633216 0.112649 0.995635
Si Si3 0.565712 0.607701 0.249088
Si Si4 0.965929 0.431899 0.498647
Si Si5 0.802507 0.028777 0.869856
O O1 0.750000 0.543836 0.875000
O O2 0.661317 0.566555 0.799077
O O3 0.691752 0.491960 0.648139
O O4 0.690104 0.508216 0.148810
O O5 0.641542 0.141542 0.750000
O O6 0.579240 0.099657 0.998695
O O7 0.663060 0.068052 0.959013
O O8 0.639412 0.139412 0.250000
O O9 0.590373 0.590373 0.500000
O O10 0.512697 0.594327 0.262259
O O11 0.584590 0.584590 0.000000
O O12 0.961381 0.461381 0.250000
O O13 0.960944 0.460944 0.750000
O O14 0.750000 0.043845 0.875000
#
# Coordination Sequence:
#
# PCOD9551654 Si02
#       5
#    16  16  16  16  16
#     4  10  20  36  55  72  95 132 173 215 262 301
#     4  10  18  29  47  68  96 130 164 206 256 302
#     4  12  24  35  49  72 103 134 171 210 244 296
#     4  10  19  31  45  62  94 135 172 201 235 282
#     4  10  19  33  54  75  96 129 177 226 262 297
#
# _framework density 17.126280000000001
#
# number of rings (size 3 to 8) (size 9 to 14) (size 15 to 20)
#    0.000    1.600    0.000    8.400    0.000    2.400 
#    0.000    0.000    0.000    0.000    0.000    0.000 
#    0.000    3.200    0.000    0.000    0.000    0.000 
#
# Total GULP energy -223014.271837 kJ/mol
# GULP energy per Si atom -5575.356796 kJ/mol
# Density = 1.708730 g / cm^3
# Si number density = 17.126280 Si / 1000 Ang^3
#
#
#
# Elastic Constant Matrix: (Units=GPa)
#
#
# Indices 1 2 3 4 5 6 
#
# 1 71.7460 39.3530 25.2793 0.0000 0.0000 0.0000
# 2 39.3530 71.7460 25.2793 0.0000 0.0000 0.0000
# 3 25.2793 25.2793 147.7146 0.0000 0.0000 0.0000
# 4 0.0000 0.0000 0.0000 15.1652 0.0000 0.0000
# 5 0.0000 0.0000 0.0000 0.0000 15.1652 0.0000
# 6 0.0000 0.0000 0.0000 0.0000 0.0000 12.4618
#
#
#
# Elastic Compliance Matrix: (Units=1/GPa)
#
#
# Indices 1 2 3 4 5 6 
#
# 1 0.020316 -0.010555 -0.001670 0.000000 0.000000 0.000000
# 2 -0.010555 0.020316 -0.001670 0.000000 0.000000 0.000000
# 3 -0.001670 -0.001670 0.007342 0.000000 0.000000 0.000000
# 4 0.000000 0.000000 0.000000 0.065941 0.000000 0.000000
# 5 0.000000 0.000000 0.000000 0.000000 0.065941 0.000000
# 6 0.000000 0.000000 0.000000 0.000000 0.000000 0.080245
#
#
# Mechanical properties :
#
#
# Convention : Reuss Voigt Hill
#
# Bulk Modulus (GPa) = 49.54916 52.33665 50.94291
# Shear Modulus (GPa) = 16.97107 21.97809 19.47458
#
# Velocity S-wave (km/s) = 3.15133 3.58620 3.37577
# Velocity P-wave (km/s) = 6.49890 6.91183 6.70854
#
# Compressibility (1/GPa) = 0.02018197
#
# Stress axis : x y z
#
# Youngs Moduli (GPa) = 49.22224 49.22224 136.21050
#
# Poissons Ratio (x) = 0.51953 0.22754
# Poissons Ratio (y) = 0.51953 0.22754
# Poissons Ratio (z) = 0.08223 0.08223
#
# Static dielectric constant tensor:
#      x y z
#    x 1.598460 0.000000 0.000000 
#    y 0.000000 1.598460 0.000000 
#    z 0.000000 0.000000 1.668050 
# 
# From -- ./inp_files/1870.got.cif
#   From: 2010.05.17/outbox.cif.g08.bks.cpg/sg98_1_cif.got.tgz:1870.got - 2010.06.03 20:00:51.
