data_PCOD9551781
_publ_section_title
;
Structure prediction by ZEFSAII (Michael W. Deem and Ramdas Pophale) SiO2 
 PCOD9551781
Probable space group: I 41 2 2
;
_chemical_formula_sum "Si O2"
_cell_formula_units_Z 96
_cell_length_a 24.412639
_cell_length_b 24.412639
_cell_length_c 8.941514
_cell_angle_alpha 90.000000
_cell_angle_beta 90.000000
_cell_angle_gamma 90.000000
_cell_volume 5328.936179
_symmetry_space_group_name_H-M "I 41 2 2"
_symmetry_group_IT_number 98
_symmetry_cell_setting 'tetragonal'
loop_
_space_group_symop_operation_xyz
x,y,z
-y,1/2+x,1/4+z
-x,-y,z
y,1/2-x,1/4+z
x,1/2-y,1/4-z
-x,1/2+y,1/4-z
y,x,-z
-y,-x,-z
1/2+x,1/2+y,1/2+z
1/2-y,x,3/4+z
1/2-x,1/2-y,1/2+z
1/2+y,-x,3/4+z
1/2+x,-y,3/4-z
1/2-x,y,3/4-z
1/2+y,1/2+x,1/2-z
1/2-y,1/2-x,1/2-z
loop_
_atom_site_type_symbol
_atom_site_label
_atom_site_fract_x
_atom_site_fract_y
_atom_site_fract_z
Si Si1 0.986594 0.741719 0.444980
Si Si2 0.612151 0.267089 0.294788
Si Si3 0.936384 0.861220 0.915757
Si Si4 0.839135 0.491941 0.460765
Si Si5 0.366650 0.692024 0.704454
Si Si6 0.551808 0.960315 0.075553
O O1 0.984924 0.750000 0.625000
O O2 0.939804 0.696984 0.414736
O O3 0.048895 0.720741 0.416077
O O4 0.984462 0.791741 0.323432
O O5 0.633278 0.212624 0.376050
O O6 0.648670 0.319899 0.328792
O O7 0.614107 0.250000 0.125000
O O8 0.950084 0.909529 0.794012
O O9 0.881792 0.881792 0.000000
O O10 0.977990 0.849560 0.053210
O O11 0.828014 0.428334 0.427929
O O12 0.895493 0.502436 0.545396
O O13 0.357196 0.750000 0.625000
O O14 0.556299 0.943702 0.250000
O O15 0.500000 0.000000 0.055382
#
# Coordination Sequence:
#
# PCOD9551781 Si02
#       6
#    16  16  16  16  16  16
#     4  10  20  37  58  82 113 158 198 245 295 359
#     4  10  22  36  51  74 101 145 202 252 306 343
#     4  10  21  36  58  84 116 149 192 239 296 354
#     4  10  21  37  56  82 118 151 198 240 297 366
#     4  11  22  36  52  76 104 148 197 254 303 340
#     4  10  22  39  56  87 119 153 192 242 302 363
#
# _framework density 18.014852999999999
#
# number of rings (size 3 to 8) (size 9 to 14) (size 15 to 20)
#    0.000    1.833    0.000    4.500    2.333    5.000 
#    6.000    0.000    0.000    0.000    0.000    0.000 
#    0.000   94.667    0.000    0.000    0.000    0.000 
#
# Total GULP energy -267202.405608 kJ/mol
# GULP energy per Si atom -5566.716783 kJ/mol
# Density = 1.797385 g / cm^3
# Si number density = 18.014853 Si / 1000 Ang^3
#
#
#
# Elastic Constant Matrix: (Units=GPa)
#
#
# Indices 1 2 3 4 5 6 
#
# 1 88.3134 59.6077 33.4724 0.0000 0.0000 0.0000
# 2 59.6077 88.3133 33.4725 0.0000 0.0000 0.0000
# 3 33.4724 33.4725 104.5342 0.0000 0.0000 0.0000
# 4 0.0000 0.0000 0.0000 28.8840 0.0000 0.0000
# 5 0.0000 0.0000 0.0000 0.0000 28.8842 0.0000
# 6 0.0000 0.0000 0.0000 0.0000 0.0000 40.9079
#
#
#
# Elastic Compliance Matrix: (Units=1/GPa)
#
#
# Indices 1 2 3 4 5 6 
#
# 1 0.021371 -0.013465 -0.002532 0.000000 0.000000 0.000000
# 2 -0.013465 0.021371 -0.002532 0.000000 0.000000 0.000000
# 3 -0.002532 -0.002532 0.011188 0.000000 0.000000 0.000000
# 4 0.000000 0.000000 0.000000 0.034621 0.000000 0.000000
# 5 0.000000 0.000000 0.000000 0.000000 0.034621 0.000000
# 6 0.000000 0.000000 0.000000 0.000000 0.000000 0.024445
#
#
# Mechanical properties :
#
#
# Convention : Reuss Voigt Hill
#
# Bulk Modulus (GPa) = 59.26498 59.36289 59.31393
# Shear Modulus (GPa) = 26.27454 30.04244 28.15849
#
# Velocity S-wave (km/s) = 3.82317 4.08812 3.95786
# Velocity P-wave (km/s) = 7.24279 7.43689 7.34048
#
# Compressibility (1/GPa) = 0.01687337
#
# Stress axis : x y z
#
# Youngs Moduli (GPa) = 46.79203 46.79188 89.38546
#
# Poissons Ratio (x) = 0.63006 0.22628
# Poissons Ratio (y) = 0.63006 0.22629
# Poissons Ratio (z) = 0.11846 0.11846
#
# Static dielectric constant tensor:
#      x y z
#    x 1.616570 0.000000 0.000000 
#    y 0.000000 1.616570 0.000000 
#    z 0.000000 0.000000 1.806900 
# 
# From -- ./inp_files/3706.got.cif
#   From: 2010.05.17/outbox.cif.g08.bks.cpg/sg98_2_cif.got.tgz:3706.got - 2010.06.03 20:00:51.
