data_PCOD9551679
_publ_section_title
;
Structure prediction by ZEFSAII (Michael W. Deem and Ramdas Pophale) SiO2 
 PCOD9551679
Probable space group: I 41 2 2
;
_chemical_formula_sum "Si O2"
_cell_formula_units_Z 68
_cell_length_a 14.009660
_cell_length_b 14.009660
_cell_length_c 19.794780
_cell_angle_alpha 90.000000
_cell_angle_beta 90.000000
_cell_angle_gamma 90.000000
_cell_volume 3885.132819
_symmetry_space_group_name_H-M "I 41 2 2"
_symmetry_group_IT_number 98
_symmetry_cell_setting 'tetragonal'
loop_
_space_group_symop_operation_xyz
x,y,z
-y,1/2+x,1/4+z
-x,-y,z
y,1/2-x,1/4+z
x,1/2-y,1/4-z
-x,1/2+y,1/4-z
y,x,-z
-y,-x,-z
1/2+x,1/2+y,1/2+z
1/2-y,x,3/4+z
1/2-x,1/2-y,1/2+z
1/2+y,-x,3/4+z
1/2+x,-y,3/4-z
1/2-x,y,3/4-z
1/2+y,1/2+x,1/2-z
1/2-y,1/2-x,1/2-z
loop_
_atom_site_type_symbol
_atom_site_label
_atom_site_fract_x
_atom_site_fract_y
_atom_site_fract_z
Si Si1 0.000000 0.500000 0.585881
Si Si2 0.135959 0.505428 0.710511
Si Si3 0.066154 0.156654 0.767121
Si Si4 0.000000 0.500000 0.250000
Si Si5 0.218656 0.218656 0.000000
Si Si6 0.149983 0.437461 0.352877
O O1 0.090817 0.507954 0.635876
O O2 0.015696 0.407642 0.539213
O O3 0.081631 0.418370 0.750000
O O4 0.248383 0.491078 0.713134
O O5 0.098697 0.598697 0.750000
O O6 0.170176 0.194259 0.742749
O O7 0.088191 0.091257 0.832322
O O8 0.090841 0.497268 0.298926
O O9 0.179698 0.160136 0.935768
O O10 0.250000 0.483382 0.375000
#
# Coordination Sequence:
#
# PCOD9551679 Si02
#       6
#     8  16  16   4   8  16
#     4  10  22  32  54  88 114 144 188 234 280 340
#     4   9  20  35  50  84 117 147 184 220 285 352
#     4  11  18  34  55  85 116 146 183 232 282 332
#     4  10  18  36  52  78 122 152 160 252 288 310
#     4   9  18  31  55  86 115 140 176 238 285 326
#     4   9  19  31  52  86 110 141 191 222 284 346
#
# _framework density 17.502618999999999
#
# number of rings (size 3 to 8) (size 9 to 14) (size 15 to 20)
#    0.000    2.588    1.176    2.118    0.000    3.765 
#    0.000    0.000    0.000    0.000  119.294    0.000 
#    0.000    0.000    0.000    0.000    0.000    0.000 
#
# Total GULP energy -189576.945896 kJ/mol
# GULP energy per Si atom -5575.792526 kJ/mol
# Density = 1.746278 g / cm^3
# Si number density = 17.502619 Si / 1000 Ang^3
#
#
#
# Elastic Constant Matrix: (Units=GPa)
#
#
# Indices 1 2 3 4 5 6 
#
# 1 86.8543 67.5277 59.9941 0.0000 0.0000 0.0000
# 2 67.5277 86.8547 59.9940 0.0000 0.0000 0.0000
# 3 59.9941 59.9940 129.7422 0.0000 0.0000 0.0000
# 4 0.0000 0.0000 0.0000 15.2249 0.0000 0.0000
# 5 0.0000 0.0000 0.0000 0.0000 15.2257 0.0000
# 6 0.0000 0.0000 0.0000 0.0000 0.0000 20.4301
#
#
#
# Elastic Compliance Matrix: (Units=1/GPa)
#
#
# Indices 1 2 3 4 5 6 
#
# 1 0.030927 -0.020815 -0.004676 0.000000 0.000000 0.000000
# 2 -0.020815 0.030926 -0.004676 0.000000 0.000000 0.000000
# 3 -0.004676 -0.004676 0.012032 0.000000 0.000000 0.000000
# 4 0.000000 0.000000 0.000000 0.065682 0.000000 0.000000
# 5 0.000000 0.000000 0.000000 0.000000 0.065679 0.000000
# 6 0.000000 0.000000 0.000000 0.000000 0.000000 0.048947
#
#
# Mechanical properties :
#
#
# Convention : Reuss Voigt Hill
#
# Bulk Modulus (GPa) = 73.78966 75.38697 74.58831
# Shear Modulus (GPa) = 15.67189 17.90516 16.78853
#
# Velocity S-wave (km/s) = 2.99557 3.20191 3.10046
# Velocity P-wave (km/s) = 7.36311 7.53889 7.45152
#
# Compressibility (1/GPa) = 0.01355203
#
# Stress axis : x y z
#
# Youngs Moduli (GPa) = 32.33460 32.33491 83.11400
#
# Poissons Ratio (x) = 0.67305 0.38861
# Poissons Ratio (y) = 0.67305 0.38860
# Poissons Ratio (z) = 0.15119 0.15118
#
# Static dielectric constant tensor:
#      x y z
#    x 1.592790 0.000000 0.000000 
#    y 0.000000 1.592790 0.000000 
#    z 0.000000 0.000000 1.614810 
# 
# From -- ./inp_files/8667.got.cif
#   From: 2010.05.17/outbox.cif.g08.bks.cpg/sg98_5_cif.got.tgz:8667.got - 2010.06.03 20:00:51.
