data_PCOD9551612
_publ_section_title
;
Structure prediction by ZEFSAII (Michael W. Deem and Ramdas Pophale) SiO2 
 PCOD9551612
Probable space group: I 4 2 2 
;
_chemical_formula_sum "Si O2"
_cell_formula_units_Z 40
_cell_length_a 18.895082
_cell_length_b 18.895082
_cell_length_c 5.085261
_cell_angle_alpha 90.000000
_cell_angle_beta 90.000000
_cell_angle_gamma 90.000000
_cell_volume 1815.560853
_symmetry_space_group_name_H-M "I 4 2 2 "
_symmetry_group_IT_number 97
_symmetry_cell_setting 'tetragonal'
loop_
_space_group_symop_operation_xyz
x,y,z
-y,x,z
-x,-y,z
y,-x,z
x,-y,-z
-x,y,-z
y,x,-z
-y,-x,-z
1/2+x,1/2+y,1/2+z
1/2-y,1/2+x,1/2+z
1/2-x,1/2-y,1/2+z
1/2+y,1/2-x,1/2+z
1/2+x,1/2-y,1/2-z
1/2-x,1/2+y,1/2-z
1/2+y,1/2+x,1/2-z
1/2-y,1/2-x,1/2-z
loop_
_atom_site_type_symbol
_atom_site_label
_atom_site_fract_x
_atom_site_fract_y
_atom_site_fract_z
Si Si1 0.000000 0.207977 0.500000
Si Si2 0.803553 0.500000 0.500000
Si Si3 0.794465 0.705536 0.750000
Si Si4 0.134621 0.365380 0.250000
Si Si5 0.657699 0.342302 0.000000
O O1 0.021875 0.253092 0.758042
O O2 0.925597 0.168808 0.563825
O O3 0.851542 0.556564 0.351275
O O4 0.837173 0.677844 0.498993
O O5 0.711290 0.685507 0.770045
#
# Coordination Sequence:
#
# PCOD9551612 Si02
#       5
#     8   8   8   8   8
#     4  12  28  43  78 107 170 204 268 336 408 475
#     4  12  24  48  72 118 150 208 256 338 408 484
#     4  12  25  42  80 110 146 206 280 334 389 484
#     4  12  23  46  78 112 152 203 262 337 407 484
#     4  12  26  49  72 124 152 217 268 340 406 492
#
# _framework density 22.031759000000001
#
# number of rings (size 3 to 8) (size 9 to 14) (size 15 to 20)
#    0.000    0.000    8.000    1.200    0.000    5.200 
#    0.000    0.000    0.000   26.400    0.000    0.000 
#    0.000    0.000    0.000    0.000    0.000    0.000 
#
# Total GULP energy -111502.747741 kJ/mol
# GULP energy per Si atom -5575.137387 kJ/mol
# Density = 2.198161 g / cm^3
# Si number density = 22.031759 Si / 1000 Ang^3
#
#
#
# Elastic Constant Matrix: (Units=GPa)
#
#
# Indices 1 2 3 4 5 6 
#
# 1 175.8115 77.4145 53.5762 0.0000 0.0000 0.0000
# 2 77.4145 175.8184 53.5776 0.0000 0.0000 0.0000
# 3 53.5762 53.5776 193.3483 0.0000 0.0000 0.0000
# 4 0.0000 0.0000 0.0000 36.1915 0.0000 0.0000
# 5 0.0000 0.0000 0.0000 0.0000 36.1914 0.0000
# 6 0.0000 0.0000 0.0000 0.0000 0.0000 19.6692
#
#
#
# Elastic Compliance Matrix: (Units=1/GPa)
#
#
# Indices 1 2 3 4 5 6 
#
# 1 0.007318 -0.002845 -0.001240 0.000000 0.000000 0.000000
# 2 -0.002845 0.007318 -0.001240 0.000000 0.000000 0.000000
# 3 -0.001240 -0.001240 0.005859 0.000000 0.000000 0.000000
# 4 0.000000 0.000000 0.000000 0.027631 0.000000 0.000000
# 5 0.000000 0.000000 0.000000 0.000000 0.027631 0.000000
# 6 0.000000 0.000000 0.000000 0.000000 0.000000 0.050841
#
#
# Mechanical properties :
#
#
# Convention : Reuss Voigt Hill
#
# Bulk Modulus (GPa) = 101.54755 101.56830 101.55793
# Shear Modulus (GPa) = 35.58015 42.43774 39.00894
#
# Velocity S-wave (km/s) = 4.02300 4.39362 4.21239
# Velocity P-wave (km/s) = 8.23231 8.48171 8.35794
#
# Compressibility (1/GPa) = 0.00984760
#
# Stress axis : x y z
#
# Youngs Moduli (GPa) = 136.64597 136.65118 170.67725
#
# Poissons Ratio (x) = 0.38871 0.21158
# Poissons Ratio (y) = 0.38869 0.21157
# Poissons Ratio (z) = 0.16939 0.16939
#
# Static dielectric constant tensor:
#      x y z
#    x 1.940620 0.000000 0.000000 
#    y 0.000000 1.940600 0.000000 
#    z 0.000000 0.000000 1.822680 
# 
# From -- ./inp_files/403.got.cif
#   From: 2010.05.17/outbox.cif.g08.bks.cpg/sg97_1_cif.got.tgz:403.got - 2010.06.03 19:55:32.
