data_PCOD9551881
_publ_section_title
;
Structure prediction by ZEFSAII (Michael W. Deem and Ramdas Pophale) SiO2 
 PCOD9551881
Probable space group: I 41 2 2
;
_chemical_formula_sum "Si O2"
_cell_formula_units_Z 80
_cell_length_a 16.205640
_cell_length_b 16.205640
_cell_length_c 19.598035
_cell_angle_alpha 90.000000
_cell_angle_beta 90.000000
_cell_angle_gamma 90.000000
_cell_volume 5146.890195
_symmetry_space_group_name_H-M "I 41 2 2"
_symmetry_group_IT_number 98
_symmetry_cell_setting 'tetragonal'
loop_
_space_group_symop_operation_xyz
x,y,z
-y,1/2+x,1/4+z
-x,-y,z
y,1/2-x,1/4+z
x,1/2-y,1/4-z
-x,1/2+y,1/4-z
y,x,-z
-y,-x,-z
1/2+x,1/2+y,1/2+z
1/2-y,x,3/4+z
1/2-x,1/2-y,1/2+z
1/2+y,-x,3/4+z
1/2+x,-y,3/4-z
1/2-x,y,3/4-z
1/2+y,1/2+x,1/2-z
1/2-y,1/2-x,1/2-z
loop_
_atom_site_type_symbol
_atom_site_label
_atom_site_fract_x
_atom_site_fract_y
_atom_site_fract_z
Si Si1 0.590451 0.194751 0.801557
Si Si2 0.374176 0.943009 0.552760
Si Si3 0.798921 0.924041 0.973385
Si Si4 0.775995 0.161113 0.296022
Si Si5 0.445710 0.120493 0.579804
O O1 0.628091 0.128091 0.750000
O O2 0.594535 0.165480 0.878998
O O3 0.496250 0.205136 0.779083
O O4 0.647847 0.274458 0.793945
O O5 0.313847 0.919442 0.490865
O O6 0.464551 0.900715 0.548628
O O7 0.390906 0.039901 0.565505
O O8 0.856640 0.954142 0.910031
O O9 0.705264 0.910811 0.950184
O O10 0.842294 0.842294 0.000000
O O11 0.796455 0.203546 0.500000
O O12 0.750000 0.149839 0.375000
#
# Coordination Sequence:
#
# PCOD9551881 Si02
#       5
#    16  16  16  16  16
#     4  11  20  29  49  81 119 146 170 212 269 334
#     4  11  20  35  51  77 113 146 184 220 268 331
#     4  11  20  33  51  79 114 145 176 211 268 337
#     4  11  22  34  54  80 109 147 185 233 282 326
#     4  10  22  32  52  80 107 148 182 215 266 333
#
# _framework density 15.543365
#
# number of rings (size 3 to 8) (size 9 to 14) (size 15 to 20)
#    0.000    1.200    8.000    0.000    0.000    0.400 
#    0.000    0.000    4.400    0.000    0.000    8.400 
#    0.000    0.000    0.000    0.000    0.000    0.000 
#
# Total GULP energy -222944.813447 kJ/mol
# GULP energy per Si atom -5573.620336 kJ/mol
# Density = 1.550799 g / cm^3
# Si number density = 15.543365 Si / 1000 Ang^3
#
#
#
# Elastic Constant Matrix: (Units=GPa)
#
#
# Indices 1 2 3 4 5 6 
#
# 1 71.7970 22.1327 26.0481 0.0000 0.0000 0.0000
# 2 22.1327 71.7975 26.0482 0.0000 0.0000 0.0000
# 3 26.0481 26.0482 92.8880 0.0000 0.0000 0.0000
# 4 0.0000 0.0000 0.0000 25.2018 0.0000 0.0000
# 5 0.0000 0.0000 0.0000 0.0000 25.2017 0.0000
# 6 0.0000 0.0000 0.0000 0.0000 0.0000 20.2815
#
#
#
# Elastic Compliance Matrix: (Units=1/GPa)
#
#
# Indices 1 2 3 4 5 6 
#
# 1 0.016371 -0.003764 -0.003535 0.000000 0.000000 0.000000
# 2 -0.003764 0.016371 -0.003535 0.000000 0.000000 0.000000
# 3 -0.003535 -0.003535 0.012748 0.000000 0.000000 0.000000
# 4 0.000000 0.000000 0.000000 0.039680 0.000000 0.000000
# 5 0.000000 0.000000 0.000000 0.000000 0.039680 0.000000
# 6 0.000000 0.000000 0.000000 0.000000 0.000000 0.049306
#
#
# Mechanical properties :
#
#
# Convention : Reuss Voigt Hill
#
# Bulk Modulus (GPa) = 41.97945 42.77117 42.37531
# Shear Modulus (GPa) = 24.53794 24.95388 24.74591
#
# Velocity S-wave (km/s) = 3.97757 4.01114 3.99439
# Velocity P-wave (km/s) = 6.93983 7.00210 6.97103
#
# Compressibility (1/GPa) = 0.02382118
#
# Stress axis : x y z
#
# Youngs Moduli (GPa) = 61.08319 61.08363 78.44088
#
# Poissons Ratio (x) = 0.22992 0.27732
# Poissons Ratio (y) = 0.22992 0.27731
# Poissons Ratio (z) = 0.21595 0.21595
#
# Static dielectric constant tensor:
#      x y z
#    x 1.513400 0.000000 0.000000 
#    y 0.000000 1.513400 0.000000 
#    z 0.000000 0.000000 1.534250 
# 
# From -- ./inp_files/6422.got.cif
#   From: 2010.05.17/outbox.cif.g08.bks.cpg/sg98_4_cif.got.tgz:6422.got - 2010.06.03 20:00:51.
