data_PCOD9551793
_publ_section_title
;
Structure prediction by ZEFSAII (Michael W. Deem and Ramdas Pophale) SiO2 
 PCOD9551793
Probable space group: I 41 2 2
;
_chemical_formula_sum "Si O2"
_cell_formula_units_Z 88
_cell_length_a 18.447845
_cell_length_b 18.447845
_cell_length_c 14.117198
_cell_angle_alpha 90.000000
_cell_angle_beta 90.000000
_cell_angle_gamma 90.000000
_cell_volume 4804.406965
_symmetry_space_group_name_H-M "I 41 2 2"
_symmetry_group_IT_number 98
_symmetry_cell_setting 'tetragonal'
loop_
_space_group_symop_operation_xyz
x,y,z
-y,1/2+x,1/4+z
-x,-y,z
y,1/2-x,1/4+z
x,1/2-y,1/4-z
-x,1/2+y,1/4-z
y,x,-z
-y,-x,-z
1/2+x,1/2+y,1/2+z
1/2-y,x,3/4+z
1/2-x,1/2-y,1/2+z
1/2+y,-x,3/4+z
1/2+x,-y,3/4-z
1/2-x,y,3/4-z
1/2+y,1/2+x,1/2-z
1/2-y,1/2-x,1/2-z
loop_
_atom_site_type_symbol
_atom_site_label
_atom_site_fract_x
_atom_site_fract_y
_atom_site_fract_z
Si Si1 0.058688 0.750000 0.625000
Si Si2 0.082150 0.373244 0.418966
Si Si3 0.410148 0.895752 0.362106
Si Si4 0.670760 0.670760 0.500000
Si Si5 0.675176 0.833706 0.092765
Si Si6 0.725422 0.979951 0.178053
Si Si7 0.000000 0.000000 0.748444
O O1 0.105247 0.824175 0.635974
O O2 0.007812 0.766190 0.535128
O O3 0.145281 0.373041 0.341687
O O4 0.109677 0.351047 0.523398
O O5 0.047645 0.450257 0.433889
O O6 0.029630 0.306991 0.389269
O O7 0.415840 0.915840 0.250000
O O8 0.458608 0.823142 0.372211
O O9 0.447619 0.954259 0.429789
O O10 0.753909 0.661320 0.527062
O O11 0.671746 0.750000 0.125000
O O12 0.687542 0.900256 0.166623
#
# Coordination Sequence:
#
# PCOD9551793 Si02
#       7
#     8  16  16   8  16  16   8
#     4  10  20  38  60  92 122 158 210 258 318 380
#     4  11  23  38  60  86 123 160 211 258 308 372
#     4  10  21  37  59  89 123 162 199 253 315 377
#     4  10  22  39  54  84 116 167 210 252 306 360
#     4  11  22  38  58  87 129 169 205 249 301 380
#     4  10  21  37  57  88 121 165 198 255 307 371
#     4  12  21  39  58  90 120 162 204 257 311 372
#
# _framework density 18.316516
#
# number of rings (size 3 to 8) (size 9 to 14) (size 15 to 20)
#    0.000    1.455    3.636    3.000    1.273    0.364 
#    9.818    0.000    0.000    0.000   33.091    0.000 
#    0.000    0.000    0.000    0.000    0.000    0.000 
#
# Total GULP energy -245374.072260 kJ/mol
# GULP energy per Si atom -5576.683460 kJ/mol
# Density = 1.827483 g / cm^3
# Si number density = 18.316516 Si / 1000 Ang^3
#
#
#
# Elastic Constant Matrix: (Units=GPa)
#
#
# Indices 1 2 3 4 5 6 
#
# 1 107.3187 62.7331 22.6684 0.0000 0.0000 0.0000
# 2 62.7331 107.3187 22.6684 0.0000 0.0000 0.0000
# 3 22.6684 22.6684 40.2196 0.0000 0.0000 0.0000
# 4 0.0000 0.0000 0.0000 9.8813 0.0000 0.0000
# 5 0.0000 0.0000 0.0000 0.0000 9.8813 0.0000
# 6 0.0000 0.0000 0.0000 0.0000 0.0000 27.5087
#
#
#
# Elastic Compliance Matrix: (Units=1/GPa)
#
#
# Indices 1 2 3 4 5 6 
#
# 1 0.014675 -0.007754 -0.003900 0.000000 0.000000 0.000000
# 2 -0.007754 0.014675 -0.003900 0.000000 0.000000 0.000000
# 3 -0.003900 -0.003900 0.029260 0.000000 0.000000 0.000000
# 4 0.000000 0.000000 0.000000 0.101201 0.000000 0.000000
# 5 0.000000 0.000000 0.000000 0.000000 0.101201 0.000000
# 6 0.000000 0.000000 0.000000 0.000000 0.000000 0.036352
#
#
# Mechanical properties :
#
#
# Convention : Reuss Voigt Hill
#
# Bulk Modulus (GPa) = 36.36465 52.33298 44.34882
# Shear Modulus (GPa) = 14.80865 19.24008 17.02437
#
# Velocity S-wave (km/s) = 2.84647 3.24454 3.05200
# Velocity P-wave (km/s) = 5.54074 6.53219 6.05679
#
# Compressibility (1/GPa) = 0.02749923
#
# Stress axis : x y z
#
# Youngs Moduli (GPa) = 68.14494 68.14494 34.17608
#
# Poissons Ratio (x) = 0.52841 0.13330
# Poissons Ratio (y) = 0.52841 0.13330
# Poissons Ratio (z) = 0.26580 0.26580
#
# Static dielectric constant tensor:
#      x y z
#    x 1.674870 0.000000 0.000000 
#    y 0.000000 1.674870 0.000000 
#    z 0.000000 0.000000 1.655580 
# 
# From -- ./inp_files/6561.got.cif
#   From: 2010.05.17/outbox.cif.g08.bks.cpg/sg98_4_cif.got.tgz:6561.got - 2010.06.03 20:00:51.
