data_PCOD9551296
_publ_section_title
;
Structure prediction by ZEFSAII (Michael W. Deem and Ramdas Pophale) SiO2 
 PCOD9551296
Probable space group: I 4 2 2 
;
_chemical_formula_sum "Si O2"
_cell_formula_units_Z 96
_cell_length_a 27.617907
_cell_length_b 27.617907
_cell_length_c 6.267696
_cell_angle_alpha 90.000000
_cell_angle_beta 90.000000
_cell_angle_gamma 90.000000
_cell_volume 4780.677522
_symmetry_space_group_name_H-M "I 4 2 2 "
_symmetry_group_IT_number 97
_symmetry_cell_setting 'tetragonal'
loop_
_space_group_symop_operation_xyz
x,y,z
-y,x,z
-x,-y,z
y,-x,z
x,-y,-z
-x,y,-z
y,x,-z
-y,-x,-z
1/2+x,1/2+y,1/2+z
1/2-y,1/2+x,1/2+z
1/2-x,1/2-y,1/2+z
1/2+y,1/2-x,1/2+z
1/2+x,1/2-y,1/2-z
1/2-x,1/2+y,1/2-z
1/2+y,1/2+x,1/2-z
1/2-y,1/2-x,1/2-z
loop_
_atom_site_type_symbol
_atom_site_label
_atom_site_fract_x
_atom_site_fract_y
_atom_site_fract_z
Si Si1 0.292669 0.888132 0.131975
Si Si2 0.447830 0.625183 0.114752
Si Si3 0.237251 0.060083 0.214100
Si Si4 0.355890 0.855890 0.750000
Si Si5 0.671346 0.051753 0.508709
Si Si6 0.000000 0.846077 0.000000
Si Si7 0.790914 0.131129 0.459973
O O1 0.327122 0.918668 0.288642
O O2 0.252540 0.864505 0.290156
O O3 0.264673 0.930181 0.004255
O O4 0.319896 0.853719 0.958299
O O5 0.462691 0.622148 0.363287
O O6 0.412812 0.672438 0.104790
O O7 0.500000 0.628473 0.000000
O O8 0.417170 0.582831 0.000000
O O9 0.274747 0.042128 0.392172
O O10 0.190373 0.028712 0.159187
O O11 0.225734 0.113055 0.307904
O O12 0.349706 0.910233 0.672889
O O13 0.646755 0.000000 0.500000
O O14 0.820813 0.179188 0.500000
#
# Coordination Sequence:
#
# PCOD9551296 Si02
#       7
#    16  16  16   8  16   8  16
#     4  10  20  38  59  94 128 166 208 264 333 391
#     4  11  24  40  58  86 126 170 220 280 343 413
#     4  10  20  32  59  92 119 156 198 264 336 387
#     4  10  22  38  60  98 129 176 206 256 338 392
#     4  10  21  36  62  96 131 161 209 258 317 382
#     4  12  20  36  62  87 128 162 211 272 356 396
#     4  10  21  37  57  90 123 160 213 278 325 388
#
# _framework density 20.080835
#
# number of rings (size 3 to 8) (size 9 to 14) (size 15 to 20)
#    0.000    1.667    3.333    1.500    2.333    3.500 
#    0.000    0.000    0.000    1.000  156.000    8.167 
#    0.000    0.000    0.000    0.000    0.000    0.000 
#
# Total GULP energy -267326.007846 kJ/mol
# GULP energy per Si atom -5569.291830 kJ/mol
# Density = 2.003513 g / cm^3
# Si number density = 20.080835 Si / 1000 Ang^3
#
#
#
# Elastic Constant Matrix: (Units=GPa)
#
#
# Indices 1 2 3 4 5 6 
#
# 1 83.4925 56.3316 42.9885 0.0000 0.0000 0.0000
# 2 56.3316 83.4896 42.9867 0.0000 0.0000 0.0000
# 3 42.9885 42.9867 96.6192 0.0000 0.0000 0.0000
# 4 0.0000 0.0000 0.0000 17.7365 0.0000 0.0000
# 5 0.0000 0.0000 0.0000 0.0000 17.7334 0.0000
# 6 0.0000 0.0000 0.0000 0.0000 0.0000 20.9137
#
#
#
# Elastic Compliance Matrix: (Units=1/GPa)
#
#
# Indices 1 2 3 4 5 6 
#
# 1 0.023332 -0.013487 -0.004381 0.000000 0.000000 0.000000
# 2 -0.013487 0.023333 -0.004380 0.000000 0.000000 0.000000
# 3 -0.004381 -0.004380 0.014248 0.000000 0.000000 0.000000
# 4 0.000000 0.000000 0.000000 0.056381 0.000000 0.000000
# 5 0.000000 0.000000 0.000000 0.000000 0.056391 0.000000
# 6 0.000000 0.000000 0.000000 0.000000 0.000000 0.047816
#
#
# Mechanical properties :
#
#
# Convention : Reuss Voigt Hill
#
# Bulk Modulus (GPa) = 60.91272 60.91278 60.91275
# Shear Modulus (GPa) = 18.41837 19.36301 18.89069
#
# Velocity S-wave (km/s) = 3.03184 3.10861 3.07046
# Velocity P-wave (km/s) = 6.53113 6.57908 6.55515
#
# Compressibility (1/GPa) = 0.01641693
#
# Stress axis : x y z
#
# Youngs Moduli (GPa) = 42.85918 42.85833 70.18672
#
# Poissons Ratio (x) = 0.57803 0.30746
# Poissons Ratio (y) = 0.57805 0.30743
# Poissons Ratio (z) = 0.18775 0.18772
#
# Static dielectric constant tensor:
#      x y z
#    x 1.761540 0.000000 0.000000 
#    y 0.000000 1.761530 0.000000 
#    z 0.000000 0.000000 1.783640 
# 
# From -- ./inp_files/1124.got.cif
#   From: 2010.05.17/outbox.cif.g08.bks.cpg/sg97_1_cif.got.tgz:1124.got - 2010.06.03 19:55:32.
