data_PCOD9551154
_publ_section_title
;
Structure prediction by ZEFSAII (Michael W. Deem and Ramdas Pophale) SiO2 
 PCOD9551154
Probable space group: P 43 21 2
;
_chemical_formula_sum "Si O2"
_cell_formula_units_Z 40
_cell_length_a 15.811337
_cell_length_b 15.811337
_cell_length_c 6.840087
_cell_angle_alpha 90.000000
_cell_angle_beta 90.000000
_cell_angle_gamma 90.000000
_cell_volume 1710.010654
_symmetry_space_group_name_H-M "P 43 21 2"
_symmetry_group_IT_number 96
_symmetry_cell_setting 'tetragonal'
loop_
_space_group_symop_operation_xyz
x,y,z
1/2-y,1/2+x,3/4+z
-x,-y,1/2+z
1/2+y,1/2-x,1/4+z
1/2+x,1/2-y,1/4-z
1/2-x,1/2+y,3/4-z
y,x,-z
-y,-x,1/2-z
loop_
_atom_site_type_symbol
_atom_site_label
_atom_site_fract_x
_atom_site_fract_y
_atom_site_fract_z
Si Si1 0.596492 0.596492 0.500000
Si Si2 0.382597 0.966611 0.932317
Si Si3 0.275303 0.944766 0.564692
Si Si4 0.429876 0.570125 0.750000
Si Si5 0.715964 0.157522 0.709511
Si Si6 0.694100 0.402976 0.902529
O O1 0.588203 0.689934 0.413729
O O2 0.521745 0.580992 0.655156
O O3 0.462493 0.916378 0.834470
O O4 0.332830 0.986815 0.731281
O O5 0.314619 0.913010 0.057504
O O6 0.315276 0.872574 0.425070
O O7 0.245585 0.016433 0.416032
O O8 0.353023 0.581334 0.601147
O O9 0.813021 0.186980 0.750000
O O10 0.673110 0.239610 0.610764
O O11 0.620418 0.379583 0.750000
#
# Coordination Sequence:
#
# PCOD9551154 Si02
#       6
#     4   8   8   4   8   8
#     4  12  26  44  81 112 156 211 254 336 398 496
#     4  12  30  50  82 118 157 213 270 331 401 484
#     4  12  26  47  73 114 155 202 261 326 397 472
#     4  12  26  48  73 114 154 207 266 320 414 480
#     4  11  27  47  77 112 156 205 260 331 395 467
#     4  11  25  46  75 105 152 204 255 326 395 477
#
# _framework density 23.391666000000001
#
# number of rings (size 3 to 8) (size 9 to 14) (size 15 to 20)
#    0.000    0.400    2.000    4.800   14.000    3.200 
#    0.000    0.000    0.000    0.000    0.000    0.000 
#    0.000    0.000    0.000    0.000    0.000    0.000 
#
# Total GULP energy -223488.534960 kJ/mol
# GULP energy per Si atom -5587.213374 kJ/mol
# Density = 2.333843 g / cm^3
# Si number density = 23.391666 Si / 1000 Ang^3
#
#
#
# Elastic Constant Matrix: (Units=GPa)
#
#
# Indices 1 2 3 4 5 6 
#
# 1 110.3494 26.4184 58.2188 0.0000 0.0000 0.0000
# 2 26.4184 110.3395 58.2277 0.0000 0.0000 0.0000
# 3 58.2188 58.2277 142.5812 0.0000 0.0000 0.0000
# 4 0.0000 0.0000 0.0000 51.3315 0.0000 0.0000
# 5 0.0000 0.0000 0.0000 0.0000 51.3335 0.0000
# 6 0.0000 0.0000 0.0000 0.0000 0.0000 28.9429
#
#
#
# Elastic Compliance Matrix: (Units=1/GPa)
#
#
# Indices 1 2 3 4 5 6 
#
# 1 0.011561 -0.000353 -0.004576 0.000000 0.000000 0.000000
# 2 -0.000353 0.011563 -0.004578 0.000000 0.000000 0.000000
# 3 -0.004576 -0.004578 0.010752 0.000000 0.000000 0.000000
# 4 0.000000 0.000000 0.000000 0.019481 0.000000 0.000000
# 5 0.000000 0.000000 0.000000 0.000000 0.019480 0.000000
# 6 0.000000 0.000000 0.000000 0.000000 0.000000 0.034551
#
#
# Mechanical properties :
#
#
# Convention : Reuss Voigt Hill
#
# Bulk Modulus (GPa) = 67.28968 72.11111 69.70040
# Shear Modulus (GPa) = 38.06396 41.01526 39.53961
#
# Velocity S-wave (km/s) = 4.03829 4.19192 4.11582
# Velocity P-wave (km/s) = 7.11145 7.37050 7.24213
#
# Compressibility (1/GPa) = 0.01486112
#
# Stress axis : x y z
#
# Youngs Moduli (GPa) = 86.49678 86.47957 93.00710
#
# Poissons Ratio (x) = 0.03053 0.42565
# Poissons Ratio (y) = 0.03053 0.42580
# Poissons Ratio (z) = 0.39585 0.39592
#
# Static dielectric constant tensor:
#      x y z
#    x 1.875080 0.000000 0.000000 
#    y 0.000000 1.875100 0.000000 
#    z 0.000000 0.000000 1.887750 
# 
# From -- ./inp_files/438.got.cif
#   From: 2010.05.17/outbox.cif.g08.bks.cpg/sg96_1_cif.got.tgz:438.got - 2010.06.03 19:52:08.
