data_PCOD9551883
_publ_section_title
;
Structure prediction by ZEFSAII (Michael W. Deem and Ramdas Pophale) SiO2 
 PCOD9551883
Probable space group: I 41 2 2
;
_chemical_formula_sum "Si O2"
_cell_formula_units_Z 56
_cell_length_a 13.673073
_cell_length_b 13.673073
_cell_length_c 14.633891
_cell_angle_alpha 90.000000
_cell_angle_beta 90.000000
_cell_angle_gamma 90.000000
_cell_volume 2735.848730
_symmetry_space_group_name_H-M "I 41 2 2"
_symmetry_group_IT_number 98
_symmetry_cell_setting 'tetragonal'
loop_
_space_group_symop_operation_xyz
x,y,z
-y,1/2+x,1/4+z
-x,-y,z
y,1/2-x,1/4+z
x,1/2-y,1/4-z
-x,1/2+y,1/4-z
y,x,-z
-y,-x,-z
1/2+x,1/2+y,1/2+z
1/2-y,x,3/4+z
1/2-x,1/2-y,1/2+z
1/2+y,-x,3/4+z
1/2+x,-y,3/4-z
1/2-x,y,3/4-z
1/2+y,1/2+x,1/2-z
1/2-y,1/2-x,1/2-z
loop_
_atom_site_type_symbol
_atom_site_label
_atom_site_fract_x
_atom_site_fract_y
_atom_site_fract_z
Si Si1 0.881601 0.250000 0.125000
Si Si2 0.424954 0.764725 0.422279
Si Si3 0.425400 0.229171 0.264803
Si Si4 0.482464 0.613743 0.143027
O O1 0.814308 0.347558 0.133338
O O2 0.940642 0.249390 0.219650
O O3 0.525125 0.765141 0.364030
O O4 0.371190 0.869132 0.413489
O O5 0.318098 0.181903 0.250000
O O6 0.445809 0.330345 0.212820
O O7 0.492867 0.154844 0.206354
O O8 0.500000 0.500000 0.148629
#
# Coordination Sequence:
#
# PCOD9551883 Si02
#       4
#     8  16  16  16
#     4  10  22  34  58  84 128 166 216 278 326 406
#     4  11  20  35  54  89 125 166 211 271 345 389
#     4  11  22  36  61  97 134 164 213 282 357 403
#     4  11  22  36  59  97 132 171 215 277 347 413
#
# _framework density 20.468966999999999
#
# number of rings (size 3 to 8) (size 9 to 14) (size 15 to 20)
#    0.000    1.143    5.714    2.571    4.000    0.000 
#    0.000    0.000    0.000    6.857    0.000    0.000 
#    0.000    0.000    0.000    0.000    0.000    0.000 
#
# Total GULP energy -156313.765379 kJ/mol
# GULP energy per Si atom -5582.634478 kJ/mol
# Density = 2.042238 g / cm^3
# Si number density = 20.468967 Si / 1000 Ang^3
#
#
#
# Elastic Constant Matrix: (Units=GPa)
#
#
# Indices 1 2 3 4 5 6 
#
# 1 73.3480 14.3724 36.9598 0.0000 0.0000 0.0000
# 2 14.3724 73.3451 36.9604 0.0000 0.0000 0.0000
# 3 36.9598 36.9604 165.3210 0.0000 0.0000 0.0000
# 4 0.0000 0.0000 0.0000 16.8141 0.0000 0.0000
# 5 0.0000 0.0000 0.0000 0.0000 16.8145 0.0000
# 6 0.0000 0.0000 0.0000 0.0000 0.0000 18.9060
#
#
#
# Elastic Compliance Matrix: (Units=1/GPa)
#
#
# Indices 1 2 3 4 5 6 
#
# 1 0.015501 -0.001455 -0.003140 0.000000 0.000000 0.000000
# 2 -0.001455 0.015502 -0.003140 0.000000 0.000000 0.000000
# 3 -0.003140 -0.003140 0.007453 0.000000 0.000000 0.000000
# 4 0.000000 0.000000 0.000000 0.059474 0.000000 0.000000
# 5 0.000000 0.000000 0.000000 0.000000 0.059472 0.000000
# 6 0.000000 0.000000 0.000000 0.000000 0.000000 0.052893
#
#
# Mechanical properties :
#
#
# Convention : Reuss Voigt Hill
#
# Bulk Modulus (GPa) = 43.50755 54.28880 48.89817
# Shear Modulus (GPa) = 21.41986 25.42170 23.42078
#
# Velocity S-wave (km/s) = 3.23841 3.52797 3.38629
# Velocity P-wave (km/s) = 5.94008 6.57081 6.26339
#
# Compressibility (1/GPa) = 0.02298452
#
# Stress axis : x y z
#
# Youngs Moduli (GPa) = 64.51167 64.50853 134.17507
#
# Poissons Ratio (x) = 0.09387 0.42133
# Poissons Ratio (y) = 0.09387 0.42136
# Poissons Ratio (z) = 0.20258 0.20258
#
# Static dielectric constant tensor:
#      x y z
#    x 1.756980 0.000000 0.000000 
#    y 0.000000 1.756980 0.000000 
#    z 0.000000 0.000000 1.763300 
# 
# From -- ./inp_files/6148.got.cif
#   From: 2010.05.17/outbox.cif.g08.bks.cpg/sg98_4_cif.got.tgz:6148.got - 2010.06.03 20:00:51.
