data_PCOD9551030
_publ_section_title
;
Structure prediction by ZEFSAII (Michael W. Deem and Ramdas Pophale) SiO2 
 PCOD9551030
Probable space group: P 43 21 2
;
_chemical_formula_sum "Si O2"
_cell_formula_units_Z 56
_cell_length_a 10.402124
_cell_length_b 10.402124
_cell_length_c 20.362079
_cell_angle_alpha 90.000000
_cell_angle_beta 90.000000
_cell_angle_gamma 90.000000
_cell_volume 2203.262137
_symmetry_space_group_name_H-M "P 43 21 2"
_symmetry_group_IT_number 96
_symmetry_cell_setting 'tetragonal'
loop_
_space_group_symop_operation_xyz
x,y,z
1/2-y,1/2+x,3/4+z
-x,-y,1/2+z
1/2+y,1/2-x,1/4+z
1/2+x,1/2-y,1/4-z
1/2-x,1/2+y,3/4-z
y,x,-z
-y,-x,1/2-z
loop_
_atom_site_type_symbol
_atom_site_label
_atom_site_fract_x
_atom_site_fract_y
_atom_site_fract_z
Si Si1 0.570341 0.592815 0.300229
Si Si2 0.904542 0.780874 0.839176
Si Si3 0.271674 0.599152 0.537388
Si Si4 0.642112 0.061115 0.998179
Si Si5 0.188889 0.335117 0.575647
Si Si6 0.689554 0.332851 0.180691
Si Si7 0.594083 0.035261 0.552502
O O1 0.464005 0.535996 0.250000
O O2 0.511785 0.646816 0.368355
O O3 0.623961 0.719515 0.263351
O O4 0.651517 0.464522 0.315134
O O5 0.858797 0.861986 0.774861
O O6 0.930519 0.643081 0.807253
O O7 0.791200 0.754134 0.891898
O O8 0.288277 0.448609 0.558402
O O9 0.285322 0.686448 0.603061
O O10 0.124577 0.596934 0.511558
O O11 0.531711 0.052805 0.052789
O O12 0.678984 0.913553 0.982396
O O13 0.093853 0.377180 0.634166
O O14 0.734813 0.265188 0.250000
O O15 0.772187 0.462193 0.190622
#
# Coordination Sequence:
#
# PCOD9551030 Si02
#       7
#     8   8   8   8   8   8   8
#     4  11  24  41  65 100 138 178 223 292 359 410
#     4  11  23  40  66  99 131 174 233 299 338 418
#     4   9  21  39  64  93 126 182 222 278 341 420
#     4  11  22  41  65  99 134 180 229 293 355 410
#     4   9  19  38  64  91 130 170 227 281 359 411
#     4  10  23  44  67  97 137 184 223 277 358 429
#     4   9  20  42  68  96 131 180 230 287 347 422
#
# _framework density 25.416857
#
# number of rings (size 3 to 8) (size 9 to 14) (size 15 to 20)
#    0.000    2.000    1.429    0.857   12.000    0.571 
#   10.286    5.714    0.000    0.000    0.000    0.000 
#    0.000    0.000    0.000    0.000    0.000    0.000 
#
# Total GULP energy -312123.223516 kJ/mol
# GULP energy per Si atom -5573.628991 kJ/mol
# Density = 2.535901 g / cm^3
# Si number density = 25.416857 Si / 1000 Ang^3
#
#
#
# Elastic Constant Matrix: (Units=GPa)
#
#
# Indices 1 2 3 4 5 6 
#
# 1 34.3697 -2.7042 19.5204 0.0000 0.0000 0.0000
# 2 -2.7042 34.3700 19.5207 0.0000 0.0000 0.0000
# 3 19.5204 19.5207 147.4985 0.0000 0.0000 0.0000
# 4 0.0000 0.0000 0.0000 44.5950 0.0000 0.0000
# 5 0.0000 0.0000 0.0000 0.0000 44.5950 0.0000
# 6 0.0000 0.0000 0.0000 0.0000 0.0000 19.4247
#
#
#
# Elastic Compliance Matrix: (Units=1/GPa)
#
#
# Indices 1 2 3 4 5 6 
#
# 1 0.032355 0.005382 -0.004994 0.000000 0.000000 0.000000
# 2 0.005382 0.032355 -0.004994 0.000000 0.000000 0.000000
# 3 -0.004994 -0.004994 0.008102 0.000000 0.000000 0.000000
# 4 0.000000 0.000000 0.000000 0.022424 0.000000 0.000000
# 5 0.000000 0.000000 0.000000 0.000000 0.022424 0.000000
# 6 0.000000 0.000000 0.000000 0.000000 0.000000 0.051481
#
#
# Mechanical properties :
#
#
# Convention : Reuss Voigt Hill
#
# Bulk Modulus (GPa) = 15.72339 32.10132 23.91236
# Shear Modulus (GPa) = 25.05588 33.71636 29.38612
#
# Velocity S-wave (km/s) = 3.14315 3.64611 3.40393
# Velocity P-wave (km/s) = 4.40138 5.51207 4.98774
#
# Compressibility (1/GPa) = 0.06359951
#
# Stress axis : x y z
#
# Youngs Moduli (GPa) = 30.90671 30.90692 123.43134
#
# Poissons Ratio (x) = -0.16635 0.61646
# Poissons Ratio (y) = -0.16635 0.61646
# Poissons Ratio (z) = 0.15436 0.15436
#
# Static dielectric constant tensor:
#      x y z
#    x 2.053670 0.000000 0.000000 
#    y 0.000000 2.053670 0.000000 
#    z 0.000000 0.000000 2.088830 
# 
# From -- ./inp_files/3542.got.cif
#   From: 2010.05.17/outbox.cif.g08.bks.cpg/sg96_2_cif.got.tgz:3542.got - 2010.06.03 19:52:08.
