data_PCOD9551169
_publ_section_title
;
Structure prediction by ZEFSAII (Michael W. Deem and Ramdas Pophale) SiO2 
 PCOD9551169
Probable space group: P 43 21 2
;
_chemical_formula_sum "Si O2"
_cell_formula_units_Z 44
_cell_length_a 7.066706
_cell_length_b 7.066706
_cell_length_c 35.792031
_cell_angle_alpha 90.000000
_cell_angle_beta 90.000000
_cell_angle_gamma 90.000000
_cell_volume 1787.394388
_symmetry_space_group_name_H-M "P 43 21 2"
_symmetry_group_IT_number 96
_symmetry_cell_setting 'tetragonal'
loop_
_space_group_symop_operation_xyz
x,y,z
1/2-y,1/2+x,3/4+z
-x,-y,1/2+z
1/2+y,1/2-x,1/4+z
1/2+x,1/2-y,1/4-z
1/2-x,1/2+y,3/4-z
y,x,-z
-y,-x,1/2-z
loop_
_atom_site_type_symbol
_atom_site_label
_atom_site_fract_x
_atom_site_fract_y
_atom_site_fract_z
Si Si1 0.312968 0.277190 0.244640
Si Si2 0.834453 0.905848 0.882996
Si Si3 0.935598 0.064403 0.750000
Si Si4 0.644988 0.111491 0.075492
Si Si5 0.760914 0.571920 0.174532
Si Si6 0.999243 0.324413 0.812446
O O1 0.404418 0.322765 0.283913
O O2 0.239621 0.430760 0.215298
O O3 0.446737 0.407784 0.354924
O O4 0.434167 0.125362 0.219300
O O5 0.968603 0.734831 0.895170
O O6 0.757719 0.870662 0.841558
O O7 0.645469 0.914361 0.909092
O O8 0.874879 0.847749 0.753884
O O9 0.818373 0.120125 0.713407
O O10 0.420792 0.087681 0.074650
O O11 0.711783 0.326937 0.081576
#
# Coordination Sequence:
#
# PCOD9551169 Si02
#       6
#     8   8   4   8   8   8
#     4   8  20  38  67  99 131 176 234 286 336 426
#     4  12  24  42  69 100 141 186 228 301 361 417
#     4   6  14  34  66  86 120 172 218 268 342 400
#     4   9  23  47  62 101 136 179 244 284 344 431
#     4  12  24  40  70 105 139 182 241 287 362 429
#     4   8  20  40  66  95 132 185 226 285 353 416
#
# _framework density 24.616838000000001
#
# number of rings (size 3 to 8) (size 9 to 14) (size 15 to 20)
#    2.182    0.000    1.818    1.091    2.545    0.727 
#    3.273   12.727    0.000    0.000    0.000    0.000 
#    0.000    0.000    0.000    0.000    0.000    0.000 
#
# Total GULP energy -245046.627463 kJ/mol
# GULP energy per Si atom -5569.241533 kJ/mol
# Density = 2.456081 g / cm^3
# Si number density = 24.616838 Si / 1000 Ang^3
#
#
#
# Elastic Constant Matrix: (Units=GPa)
#
#
# Indices 1 2 3 4 5 6 
#
# 1 83.3411 10.6623 22.3776 0.0000 0.0000 0.0000
# 2 10.6623 83.3408 22.3777 0.0000 0.0000 0.0000
# 3 22.3776 22.3777 129.3441 0.0000 0.0000 0.0000
# 4 0.0000 0.0000 0.0000 23.9500 0.0000 0.0000
# 5 0.0000 0.0000 0.0000 0.0000 23.9500 0.0000
# 6 0.0000 0.0000 0.0000 0.0000 0.0000 20.2248
#
#
#
# Elastic Compliance Matrix: (Units=1/GPa)
#
#
# Indices 1 2 3 4 5 6 
#
# 1 0.012676 -0.001083 -0.002006 0.000000 0.000000 0.000000
# 2 -0.001083 0.012676 -0.002006 0.000000 0.000000 0.000000
# 3 -0.002006 -0.002006 0.008425 0.000000 0.000000 0.000000
# 4 0.000000 0.000000 0.000000 0.041754 0.000000 0.000000
# 5 0.000000 0.000000 0.000000 0.000000 0.041754 0.000000
# 6 0.000000 0.000000 0.000000 0.000000 0.000000 0.049444
#
#
# Mechanical properties :
#
#
# Convention : Reuss Voigt Hill
#
# Bulk Modulus (GPa) = 42.39384 45.20680 43.80032
# Shear Modulus (GPa) = 27.05912 29.66553 28.36232
#
# Velocity S-wave (km/s) = 3.31903 3.47521 3.39802
# Velocity P-wave (km/s) = 5.65215 5.87425 5.76427
#
# Compressibility (1/GPa) = 0.02358833
#
# Stress axis : x y z
#
# Youngs Moduli (GPa) = 78.88936 78.88901 118.68999
#
# Poissons Ratio (x) = 0.08545 0.23805
# Poissons Ratio (y) = 0.08545 0.23805
# Poissons Ratio (z) = 0.15822 0.15823
#
# Static dielectric constant tensor:
#      x y z
#    x 2.007960 0.000000 0.000000 
#    y 0.000000 2.007960 0.000000 
#    z 0.000000 0.000000 2.012560 
# 
# From -- ./inp_files/4403.got.cif
#   From: 2010.05.17/outbox.cif.g08.bks.cpg/sg96_3_cif.got.tgz:4403.got - 2010.06.03 19:52:08.
