data_PCOD9551548
_publ_section_title
;
Structure prediction by ZEFSAII (Michael W. Deem and Ramdas Pophale) SiO2 
 PCOD9551548
Probable space group: I 4 2 2 
;
_chemical_formula_sum "Si O2"
_cell_formula_units_Z 64
_cell_length_a 10.776322
_cell_length_b 10.776322
_cell_length_c 22.356573
_cell_angle_alpha 90.000000
_cell_angle_beta 90.000000
_cell_angle_gamma 90.000000
_cell_volume 2596.249056
_symmetry_space_group_name_H-M "I 4 2 2 "
_symmetry_group_IT_number 97
_symmetry_cell_setting 'tetragonal'
loop_
_space_group_symop_operation_xyz
x,y,z
-y,x,z
-x,-y,z
y,-x,z
x,-y,-z
-x,y,-z
y,x,-z
-y,-x,-z
1/2+x,1/2+y,1/2+z
1/2-y,1/2+x,1/2+z
1/2-x,1/2-y,1/2+z
1/2+y,1/2-x,1/2+z
1/2+x,1/2-y,1/2-z
1/2-x,1/2+y,1/2-z
1/2+y,1/2+x,1/2-z
1/2-y,1/2-x,1/2-z
loop_
_atom_site_type_symbol
_atom_site_label
_atom_site_fract_x
_atom_site_fract_y
_atom_site_fract_z
Si Si1 0.936160 0.812596 0.860028
Si Si2 0.992710 0.205955 0.395832
Si Si3 0.699963 0.994092 0.739167
Si Si4 0.340721 0.861886 0.969674
O O1 0.953480 0.793299 0.789179
O O2 0.889076 0.704501 0.901074
O O3 0.074690 0.848600 0.877087
O O4 0.997706 0.251345 0.327706
O O5 0.975423 0.309164 0.446172
O O6 0.114302 0.123397 0.404777
O O7 0.586813 0.086813 0.750000
O O8 0.644029 0.855972 0.750000
O O9 0.239843 0.760158 0.000000
O O10 0.338031 0.000000 0.000000
#
# Coordination Sequence:
#
# PCOD9551548 Si02
#       4
#    16  16  16  16
#     4  11  23  41  71 108 152 198 250 324 406 466
#     4  11  27  52  79 111 160 213 264 324 401 482
#     4  11  24  42  73 115 152 189 255 328 398 477
#     4  12  26  47  78 111 157 216 271 335 390 473
#
# _framework density 24.650946000000001
#
# number of rings (size 3 to 8) (size 9 to 14) (size 15 to 20)
#    0.000    0.750    5.000    1.500    3.500    5.250 
#    0.000    5.000    0.000    0.000    0.000    0.000 
#    0.000    0.000    0.000    0.000    0.000    0.000 
#
# Total GULP energy -178539.682472 kJ/mol
# GULP energy per Si atom -5579.365077 kJ/mol
# Density = 2.459484 g / cm^3
# Si number density = 24.650946 Si / 1000 Ang^3
#
#
#
# Elastic Constant Matrix: (Units=GPa)
#
#
# Indices 1 2 3 4 5 6 
#
# 1 20.6830 7.0038 2.4917 0.0000 0.0000 0.0000
# 2 7.0038 20.6817 2.4905 0.0000 0.0000 0.0000
# 3 2.4917 2.4905 148.3833 0.0000 0.0000 0.0000
# 4 0.0000 0.0000 0.0000 30.9869 0.0000 0.0000
# 5 0.0000 0.0000 0.0000 0.0000 30.9871 0.0000
# 6 0.0000 0.0000 0.0000 0.0000 0.0000 49.9630
#
#
#
# Elastic Compliance Matrix: (Units=1/GPa)
#
#
# Indices 1 2 3 4 5 6 
#
# 1 0.054666 -0.018439 -0.000608 0.000000 0.000000 0.000000
# 2 -0.018439 0.054669 -0.000608 0.000000 0.000000 0.000000
# 3 -0.000608 -0.000608 0.006760 0.000000 0.000000 0.000000
# 4 0.000000 0.000000 0.000000 0.032272 0.000000 0.000000
# 5 0.000000 0.000000 0.000000 0.000000 0.032272 0.000000
# 6 0.000000 0.000000 0.000000 0.000000 0.000000 0.020015
#
#
# Mechanical properties :
#
#
# Convention : Reuss Voigt Hill
#
# Bulk Modulus (GPa) = 13.02354 23.74665 18.38510
# Shear Modulus (GPa) = 18.82822 34.23820 26.53321
#
# Velocity S-wave (km/s) = 2.76668 3.73087 3.28435
# Velocity P-wave (km/s) = 3.93709 5.31161 4.67514
#
# Compressibility (1/GPa) = 0.07678404
#
# Stress axis : x y z
#
# Youngs Moduli (GPa) = 18.29290 18.29179 147.93505
#
# Poissons Ratio (x) = 0.33728 0.09001
# Poissons Ratio (y) = 0.33730 0.08994
# Poissons Ratio (z) = 0.01113 0.01112
#
# Static dielectric constant tensor:
#      x y z
#    x 2.005420 0.000000 0.000000 
#    y 0.000000 2.005410 0.000000 
#    z 0.000000 0.000000 2.392680 
# 
# From -- ./inp_files/6291.got.cif
#   From: 2010.05.17/outbox.cif.g08.bks.cpg/sg97_4_cif.got.tgz:6291.got - 2010.06.03 19:55:32.
