data_PCOD9551634
_publ_section_title
;
Structure prediction by ZEFSAII (Michael W. Deem and Ramdas Pophale) SiO2 
 PCOD9551634
Probable space group: I 41 2 2
;
_chemical_formula_sum "Si O2"
_cell_formula_units_Z 116
_cell_length_a 17.791645
_cell_length_b 17.791645
_cell_length_c 17.010422
_cell_angle_alpha 90.000000
_cell_angle_beta 90.000000
_cell_angle_gamma 90.000000
_cell_volume 5384.523748
_symmetry_space_group_name_H-M "I 41 2 2"
_symmetry_group_IT_number 98
_symmetry_cell_setting 'tetragonal'
loop_
_space_group_symop_operation_xyz
x,y,z
-y,1/2+x,1/4+z
-x,-y,z
y,1/2-x,1/4+z
x,1/2-y,1/4-z
-x,1/2+y,1/4-z
y,x,-z
-y,-x,-z
1/2+x,1/2+y,1/2+z
1/2-y,x,3/4+z
1/2-x,1/2-y,1/2+z
1/2+y,-x,3/4+z
1/2+x,-y,3/4-z
1/2-x,y,3/4-z
1/2+y,1/2+x,1/2-z
1/2-y,1/2-x,1/2-z
loop_
_atom_site_type_symbol
_atom_site_label
_atom_site_fract_x
_atom_site_fract_y
_atom_site_fract_z
Si Si1 0.947831 0.070341 0.778018
Si Si2 0.143470 0.828321 0.581530
Si Si3 0.630567 0.659053 0.854395
Si Si4 0.536926 0.193215 0.443707
Si Si5 0.651995 0.513690 0.592571
Si Si6 0.314520 0.173165 0.579238
Si Si7 0.500000 0.000000 0.750000
Si Si8 0.998336 0.910506 0.600218
O O1 0.861321 0.047582 0.768156
O O2 0.962509 0.142693 0.830274
O O3 0.976614 0.088151 0.691165
O O4 0.000000 0.000000 0.803382
O O5 0.134876 0.750000 0.625000
O O6 0.185328 0.814673 0.500000
O O7 0.181909 0.891402 0.637129
O O8 0.061560 0.861384 0.558937
O O9 0.539836 0.666221 0.848381
O O10 0.660684 0.666982 0.763069
O O11 0.666165 0.724865 0.906545
O O12 0.634988 0.579445 0.898193
O O13 0.515959 0.279042 0.458528
O O14 0.657635 0.599366 0.623059
O O15 0.576056 0.501552 0.547627
O O16 0.338725 0.250000 0.625000
O O17 0.000000 0.000000 0.579438
#
# Coordination Sequence:
#
# PCOD9551634 Si02
#       8
#    16  16  16  16  16  16   4  16
#     4  10  16  38  68  93 125 179 228 279 333 420
#     4  11  26  44  69 103 144 182 236 300 360 417
#     4  11  21  42  67  99 136 186 234 278 345 424
#     4  10  23  41  69  96 129 184 237 275 355 412
#     4  11  24  42  68  97 139 180 233 294 351 423
#     4  11  25  40  67 100 147 182 228 291 356 421
#     4  12  28  44  60 112 140 176 246 296 352 436
#     4  10  19  41  70  98 132 183 238 276 346 421
#
# _framework density 21.543223999999999
#
# number of rings (size 3 to 8) (size 9 to 14) (size 15 to 20)
#    0.000    1.379    6.207    0.414    7.724    0.828 
#    1.241    3.448    0.000    0.828    0.000    0.000 
#    0.000    0.000    0.000    0.000    0.000    0.000 
#
# Total GULP energy -323578.551526 kJ/mol
# GULP energy per Si atom -5578.940544 kJ/mol
# Density = 2.149419 g / cm^3
# Si number density = 21.543224 Si / 1000 Ang^3
#
#
#
# Elastic Constant Matrix: (Units=GPa)
#
#
# Indices 1 2 3 4 5 6 
#
# 1 131.5663 48.0763 43.4026 0.0000 0.0000 0.0000
# 2 48.0763 131.5675 43.4030 0.0000 0.0000 0.0000
# 3 43.4026 43.4030 70.5248 0.0000 0.0000 0.0000
# 4 0.0000 0.0000 0.0000 10.2498 0.0000 0.0000
# 5 0.0000 0.0000 0.0000 0.0000 10.2498 0.0000
# 6 0.0000 0.0000 0.0000 0.0000 0.0000 24.2319
#
#
#
# Elastic Compliance Matrix: (Units=1/GPa)
#
#
# Indices 1 2 3 4 5 6 
#
# 1 0.009950 -0.002027 -0.004876 0.000000 0.000000 0.000000
# 2 -0.002027 0.009950 -0.004876 0.000000 0.000000 0.000000
# 3 -0.004876 -0.004876 0.020181 0.000000 0.000000 0.000000
# 4 0.000000 0.000000 0.000000 0.097563 0.000000 0.000000
# 5 0.000000 0.000000 0.000000 0.000000 0.097563 0.000000
# 6 0.000000 0.000000 0.000000 0.000000 0.000000 0.041268
#
#
# Mechanical properties :
#
#
# Convention : Reuss Voigt Hill
#
# Bulk Modulus (GPa) = 60.52216 67.04693 63.78455
# Shear Modulus (GPa) = 16.36447 22.19808 19.28128
#
# Velocity S-wave (km/s) = 2.75909 3.21346 2.99491
# Velocity P-wave (km/s) = 6.18906 6.70508 6.45223
#
# Compressibility (1/GPa) = 0.01652287
#
# Stress axis : x y z
#
# Youngs Moduli (GPa) = 100.50202 100.50271 49.55211
#
# Poissons Ratio (x) = 0.20376 0.24160
# Poissons Ratio (y) = 0.20376 0.24161
# Poissons Ratio (z) = 0.49003 0.49003
#
# Static dielectric constant tensor:
#      x y z
#    x 1.826190 0.000000 0.000000 
#    y 0.000000 1.826190 0.000000 
#    z 0.000000 0.000000 1.777230 
# 
# From -- ./inp_files/7828.got.cif
#   From: 2010.05.17/outbox.cif.g08.bks.cpg/sg98_4_cif.got.tgz:7828.got - 2010.06.03 20:00:51.
