data_PCOD9551247
_publ_section_title
;
Structure prediction by ZEFSAII (Michael W. Deem and Ramdas Pophale) SiO2 
 PCOD9551247
Probable space group: I 4 2 2 
;
_chemical_formula_sum "Si O2"
_cell_formula_units_Z 96
_cell_length_a 25.872197
_cell_length_b 25.872197
_cell_length_c 7.754107
_cell_angle_alpha 90.000000
_cell_angle_beta 90.000000
_cell_angle_gamma 90.000000
_cell_volume 5190.371081
_symmetry_space_group_name_H-M "I 4 2 2 "
_symmetry_group_IT_number 97
_symmetry_cell_setting 'tetragonal'
loop_
_space_group_symop_operation_xyz
x,y,z
-y,x,z
-x,-y,z
y,-x,z
x,-y,-z
-x,y,-z
y,x,-z
-y,-x,-z
1/2+x,1/2+y,1/2+z
1/2-y,1/2+x,1/2+z
1/2-x,1/2-y,1/2+z
1/2+y,1/2-x,1/2+z
1/2+x,1/2-y,1/2-z
1/2-x,1/2+y,1/2-z
1/2+y,1/2+x,1/2-z
1/2-y,1/2-x,1/2-z
loop_
_atom_site_type_symbol
_atom_site_label
_atom_site_fract_x
_atom_site_fract_y
_atom_site_fract_z
Si Si1 0.078425 0.921576 0.000000
Si Si2 0.694569 0.632467 0.794677
Si Si3 0.897882 0.756203 0.356538
Si Si4 0.701509 0.560327 0.497743
Si Si5 0.103688 0.941458 0.662095
Si Si6 0.194793 0.000000 0.500000
Si Si7 0.690897 0.190897 0.250000
Si Si8 0.783777 0.216224 0.000000
O O1 0.139542 0.933654 0.017034
O O2 0.049730 0.931815 0.175431
O O3 0.719511 0.586907 0.676082
O O4 0.635122 0.613123 0.812054
O O5 0.703316 0.680034 0.665902
O O6 0.717074 0.635232 0.987795
O O7 0.907205 0.777938 0.164078
O O8 0.866925 0.703663 0.315285
O O9 0.954508 0.768743 0.434356
O O10 0.715535 0.500000 0.500000
O O11 0.067927 0.932074 0.500000
O O12 0.151573 0.980534 0.638284
O O13 0.728096 0.206015 0.087395
#
# Coordination Sequence:
#
# PCOD9551247 Si02
#       8
#     8  16  16  16  16   8   8   8
#     4  10  19  30  48  79  99 136 188 246 295 340
#     4  10  21  33  54  77 113 150 205 242 291 361
#     4  11  22  39  55  82 110 160 201 251 301 363
#     4  11  21  36  57  81 113 152 204 258 301 358
#     4  10  20  32  54  82 108 143 192 256 291 359
#     4  10  22  38  58  81 116 156 209 244 314 352
#     4  12  26  36  58  80 128 158 207 246 300 377
#     4  12  23  40  50  90 117 173 197 246 307 366
#
# _framework density 18.495787
#
# number of rings (size 3 to 8) (size 9 to 14) (size 15 to 20)
#    0.000    1.333    1.667    8.000    4.667    0.000 
#    0.000    0.000    0.000    0.500    0.000    4.667 
#    0.000    0.167    0.000    2.250    1.333    0.000 
#
# Total GULP energy -267301.077956 kJ/mol
# GULP energy per Si atom -5568.772457 kJ/mol
# Density = 1.845369 g / cm^3
# Si number density = 18.495787 Si / 1000 Ang^3
#
#
#
# Elastic Constant Matrix: (Units=GPa)
#
#
# Indices 1 2 3 4 5 6 
#
# 1 71.3301 43.3661 24.9581 0.0000 0.0000 0.0000
# 2 43.3661 71.3299 24.9582 0.0000 0.0000 0.0000
# 3 24.9581 24.9582 145.7902 0.0000 0.0000 0.0000
# 4 0.0000 0.0000 0.0000 17.5319 0.0000 0.0000
# 5 0.0000 0.0000 0.0000 0.0000 17.5320 0.0000
# 6 0.0000 0.0000 0.0000 0.0000 0.0000 23.9064
#
#
#
# Elastic Compliance Matrix: (Units=1/GPa)
#
#
# Indices 1 2 3 4 5 6 
#
# 1 0.022590 -0.013170 -0.001613 0.000000 0.000000 0.000000
# 2 -0.013170 0.022591 -0.001613 0.000000 0.000000 0.000000
# 3 -0.001613 -0.001613 0.007411 0.000000 0.000000 0.000000
# 4 0.000000 0.000000 0.000000 0.057039 0.000000 0.000000
# 5 0.000000 0.000000 0.000000 0.000000 0.057039 0.000000
# 6 0.000000 0.000000 0.000000 0.000000 0.000000 0.041830
#
#
# Mechanical properties :
#
#
# Convention : Reuss Voigt Hill
#
# Bulk Modulus (GPa) = 50.50109 52.77945 51.64027
# Shear Modulus (GPa) = 20.17018 24.80525 22.48772
#
# Velocity S-wave (km/s) = 3.30590 3.66612 3.49066
# Velocity P-wave (km/s) = 6.47575 6.82044 6.65033
#
# Compressibility (1/GPa) = 0.01980155
#
# Stress axis : x y z
#
# Youngs Moduli (GPa) = 44.26651 44.26638 134.92831
#
# Poissons Ratio (x) = 0.58298 0.21760
# Poissons Ratio (y) = 0.58299 0.21760
# Poissons Ratio (z) = 0.07139 0.07139
#
# Static dielectric constant tensor:
#      x y z
#    x 1.685630 0.000000 0.000000 
#    y 0.000000 1.685640 0.000000 
#    z 0.000000 0.000000 1.794180 
# 
# From -- ./inp_files/2539.got.cif
#   From: 2010.05.17/outbox.cif.g08.bks.cpg/sg97_2_cif.got.tgz:2539.got - 2010.06.03 19:55:32.
