data_PCOD9551397
_publ_section_title
;
Structure prediction by ZEFSAII (Michael W. Deem and Ramdas Pophale) SiO2 
 PCOD9551397
Probable space group: I 4 2 2 
;
_chemical_formula_sum "Si O2"
_cell_formula_units_Z 116
_cell_length_a 17.817872
_cell_length_b 17.817872
_cell_length_c 18.053640
_cell_angle_alpha 90.000000
_cell_angle_beta 90.000000
_cell_angle_gamma 90.000000
_cell_volume 5731.607570
_symmetry_space_group_name_H-M "I 4 2 2 "
_symmetry_group_IT_number 97
_symmetry_cell_setting 'tetragonal'
loop_
_space_group_symop_operation_xyz
x,y,z
-y,x,z
-x,-y,z
y,-x,z
x,-y,-z
-x,y,-z
y,x,-z
-y,-x,-z
1/2+x,1/2+y,1/2+z
1/2-y,1/2+x,1/2+z
1/2-x,1/2-y,1/2+z
1/2+y,1/2-x,1/2+z
1/2+x,1/2-y,1/2-z
1/2-x,1/2+y,1/2-z
1/2+y,1/2+x,1/2-z
1/2-y,1/2-x,1/2-z
loop_
_atom_site_type_symbol
_atom_site_label
_atom_site_fract_x
_atom_site_fract_y
_atom_site_fract_z
Si Si1 0.621023 0.685584 0.147788
Si Si2 0.160227 0.662182 0.076784
Si Si3 0.887916 0.498379 0.881728
Si Si4 0.195540 0.115131 0.175478
Si Si5 0.944936 0.780356 0.173262
Si Si6 0.500000 0.000000 0.750000
Si Si7 0.846170 0.568162 0.445502
Si Si8 0.955458 0.220395 0.651660
O O1 0.644662 0.755008 0.097644
O O2 0.628985 0.706147 0.235814
O O3 0.531983 0.674190 0.139496
O O4 0.672050 0.615278 0.127681
O O5 0.114990 0.584510 0.092489
O O6 0.135452 0.730084 0.129654
O O7 0.142223 0.677460 0.991292
O O8 0.926889 0.499526 0.801738
O O9 0.931287 0.434451 0.927181
O O10 0.802259 0.468940 0.882237
O O11 0.124007 0.165173 0.153507
O O12 0.182919 0.026719 0.161308
O O13 0.938778 0.703423 0.127840
O O14 0.943073 0.765490 0.260902
O O15 0.826858 0.500000 0.500000
#
# Coordination Sequence:
#
# PCOD9551397 Si02
#       8
#    16  16  16  16  16   4  16  16
#     4   9  20  37  64  91 122 157 198 254 317 363
#     4  11  23  39  59  85 122 166 198 251 310 370
#     4  11  25  38  60  88 124 162 210 254 312 368
#     4  10  21  40  63  90 121 156 210 255 311 364
#     4  10  22  40  63  92 122 163 203 260 305 371
#     4  12  24  36  62  88 120 168 206 260 308 372
#     4  12  24  43  59  86 126 164 213 250 303 379
#     4   9  20  40  62  92 123 152 206 260 308 373
#
# _framework density 20.238648999999999
#
# number of rings (size 3 to 8) (size 9 to 14) (size 15 to 20)
#    0.000    1.655    1.379    2.483    7.724    1.655 
#    0.000    2.759    0.000    0.000    0.000    0.000 
#    0.000    4.414    0.000    0.000    0.000    0.000 
#
# Total GULP energy -323989.854259 kJ/mol
# GULP energy per Si atom -5586.031970 kJ/mol
# Density = 2.019258 g / cm^3
# Si number density = 20.238649 Si / 1000 Ang^3
#
#
#
# Elastic Constant Matrix: (Units=GPa)
#
#
# Indices 1 2 3 4 5 6 
#
# 1 83.9527 51.9564 13.6182 0.0000 0.0000 0.0000
# 2 51.9564 83.9527 13.6182 0.0000 0.0000 0.0000
# 3 13.6182 13.6182 16.7293 0.0000 0.0000 0.0000
# 4 0.0000 0.0000 0.0000 18.6296 0.0000 0.0000
# 5 0.0000 0.0000 0.0000 0.0000 18.6296 0.0000
# 6 0.0000 0.0000 0.0000 0.0000 0.0000 32.3221
#
#
#
# Elastic Compliance Matrix: (Units=1/GPa)
#
#
# Indices 1 2 3 4 5 6 
#
# 1 0.020023 -0.011231 -0.007157 0.000000 0.000000 0.000000
# 2 -0.011231 0.020023 -0.007157 0.000000 0.000000 0.000000
# 3 -0.007157 -0.007157 0.071428 0.000000 0.000000 0.000000
# 4 0.000000 0.000000 0.000000 0.053678 0.000000 0.000000
# 5 0.000000 0.000000 0.000000 0.000000 0.053678 0.000000
# 6 0.000000 0.000000 0.000000 0.000000 0.000000 0.030939
#
#
# Mechanical properties :
#
#
# Convention : Reuss Voigt Hill
#
# Bulk Modulus (GPa) = 16.56082 38.11336 27.33709
# Shear Modulus (GPa) = 15.57703 20.94573 18.26138
#
# Velocity S-wave (km/s) = 2.77730 3.22053 3.00709
# Velocity P-wave (km/s) = 4.29942 5.71856 5.05900
#
# Compressibility (1/GPa) = 0.06038349
#
# Stress axis : x y z
#
# Youngs Moduli (GPa) = 49.94287 49.94287 14.00020
#
# Poissons Ratio (x) = 0.56089 0.10020
# Poissons Ratio (y) = 0.56089 0.10020
# Poissons Ratio (z) = 0.35745 0.35745
#
# Static dielectric constant tensor:
#      x y z
#    x 1.711530 0.000000 0.000000 
#    y 0.000000 1.711530 0.000000 
#    z 0.000000 0.000000 1.720450 
# 
# From -- ./inp_files/5912.got.cif
#   From: 2010.05.17/outbox.cif.g08.bks.cpg/sg97_3_cif.got.tgz:5912.got - 2010.06.03 19:55:32.
