data_PCOD9551734
_publ_section_title
;
Structure prediction by ZEFSAII (Michael W. Deem and Ramdas Pophale) SiO2 
 PCOD9551734
Probable space group: I 41 2 2
;
_chemical_formula_sum "Si O2"
_cell_formula_units_Z 96
_cell_length_a 14.355151
_cell_length_b 14.355151
_cell_length_c 20.968669
_cell_angle_alpha 90.000000
_cell_angle_beta 90.000000
_cell_angle_gamma 90.000000
_cell_volume 4321.021174
_symmetry_space_group_name_H-M "I 41 2 2"
_symmetry_group_IT_number 98
_symmetry_cell_setting 'tetragonal'
loop_
_space_group_symop_operation_xyz
x,y,z
-y,1/2+x,1/4+z
-x,-y,z
y,1/2-x,1/4+z
x,1/2-y,1/4-z
-x,1/2+y,1/4-z
y,x,-z
-y,-x,-z
1/2+x,1/2+y,1/2+z
1/2-y,x,3/4+z
1/2-x,1/2-y,1/2+z
1/2+y,-x,3/4+z
1/2+x,-y,3/4-z
1/2-x,y,3/4-z
1/2+y,1/2+x,1/2-z
1/2-y,1/2-x,1/2-z
loop_
_atom_site_type_symbol
_atom_site_label
_atom_site_fract_x
_atom_site_fract_y
_atom_site_fract_z
Si Si1 0.790028 0.513677 0.520310
Si Si2 0.955123 0.648994 0.479085
Si Si3 0.147047 0.505344 0.772986
Si Si4 0.844720 0.222971 0.058245
Si Si5 0.434857 0.915495 0.098448
Si Si6 0.891432 0.007863 0.083350
O O1 0.859189 0.596744 0.499761
O O2 0.777289 0.437982 0.463236
O O3 0.833624 0.459041 0.582523
O O4 0.686645 0.544687 0.541254
O O5 0.966307 0.758512 0.492263
O O6 0.031371 0.609303 0.527858
O O7 0.979142 0.624177 0.406661
O O8 0.103305 0.603305 0.750000
O O9 0.156943 0.532586 0.847848
O O10 0.071563 0.428438 0.750000
O O11 0.802295 0.250000 0.125000
O O12 0.869671 0.115430 0.068951
O O13 0.773411 0.226590 0.000000
O O14 0.500000 0.000000 0.120419
O O15 0.000000 0.000000 0.069047
#
# Coordination Sequence:
#
# PCOD9551734 Si02
#       6
#    16  16  16  16  16  16
#     4  10  23  42  70 101 134 191 243 302 361 447
#     4  11  23  40  70 103 139 183 249 302 372 448
#     4  11  22  40  65  97 143 186 226 295 370 452
#     4  10  21  40  65  96 137 187 242 303 371 434
#     4  10  19  39  65  93 138 185 231 292 377 438
#     4  11  23  43  69  96 141 195 242 303 384 444
#
# _framework density 22.21697
#
# number of rings (size 3 to 8) (size 9 to 14) (size 15 to 20)
#    0.000    1.500    1.667    5.000    2.333    3.000 
#    3.000   16.667    0.000    0.000    0.000    0.000 
#    0.000    0.000    0.000    0.000    0.000    0.000 
#
# Total GULP energy -267566.265845 kJ/mol
# GULP energy per Si atom -5574.297205 kJ/mol
# Density = 2.216640 g / cm^3
# Si number density = 22.216970 Si / 1000 Ang^3
#
#
#
# Elastic Constant Matrix: (Units=GPa)
#
#
# Indices 1 2 3 4 5 6 
#
# 1 107.5325 75.6144 45.4798 0.0000 0.0000 0.0000
# 2 75.6144 107.5322 45.4790 0.0000 0.0000 0.0000
# 3 45.4798 45.4790 168.1403 0.0000 0.0000 0.0000
# 4 0.0000 0.0000 0.0000 27.1116 0.0000 0.0000
# 5 0.0000 0.0000 0.0000 0.0000 27.1113 0.0000
# 6 0.0000 0.0000 0.0000 0.0000 0.0000 30.0869
#
#
#
# Elastic Compliance Matrix: (Units=1/GPa)
#
#
# Indices 1 2 3 4 5 6 
#
# 1 0.018819 -0.012511 -0.001706 0.000000 0.000000 0.000000
# 2 -0.012511 0.018819 -0.001706 0.000000 0.000000 0.000000
# 3 -0.001706 -0.001706 0.006870 0.000000 0.000000 0.000000
# 4 0.000000 0.000000 0.000000 0.036885 0.000000 0.000000
# 5 0.000000 0.000000 0.000000 0.000000 0.036885 0.000000
# 6 0.000000 0.000000 0.000000 0.000000 0.000000 0.033237
#
#
# Mechanical properties :
#
#
# Convention : Reuss Voigt Hill
#
# Bulk Modulus (GPa) = 78.98318 79.59459 79.28889
# Shear Modulus (GPa) = 26.65499 31.30410 28.97954
#
# Velocity S-wave (km/s) = 3.46751 3.75776 3.61555
# Velocity P-wave (km/s) = 7.18746 7.39807 7.29352
#
# Compressibility (1/GPa) = 0.01266092
#
# Stress axis : x y z
#
# Youngs Moduli (GPa) = 53.13809 53.13819 145.55327
#
# Poissons Ratio (x) = 0.66484 0.24833
# Poissons Ratio (y) = 0.66484 0.24831
# Poissons Ratio (z) = 0.09066 0.09065
#
# Static dielectric constant tensor:
#      x y z
#    x 1.859230 0.000000 0.000000 
#    y 0.000000 1.859220 0.000000 
#    z 0.000000 0.000000 2.075250 
# 
# From -- ./inp_files/8926.got.cif
#   From: 2010.05.17/outbox.cif.g08.bks.cpg/sg98_5_cif.got.tgz:8926.got - 2010.06.03 20:00:51.
