data_PCOD9551093
_publ_section_title
;
Structure prediction by ZEFSAII (Michael W. Deem and Ramdas Pophale) SiO2 
 PCOD9551093
Probable space group: P 43 21 2
;
_chemical_formula_sum "Si O2"
_cell_formula_units_Z 60
_cell_length_a 11.459693
_cell_length_b 11.459693
_cell_length_c 20.830751
_cell_angle_alpha 90.000000
_cell_angle_beta 90.000000
_cell_angle_gamma 90.000000
_cell_volume 2735.589286
_symmetry_space_group_name_H-M "P 43 21 2"
_symmetry_group_IT_number 96
_symmetry_cell_setting 'tetragonal'
loop_
_space_group_symop_operation_xyz
x,y,z
1/2-y,1/2+x,3/4+z
-x,-y,1/2+z
1/2+y,1/2-x,1/4+z
1/2+x,1/2-y,1/4-z
1/2-x,1/2+y,3/4-z
y,x,-z
-y,-x,1/2-z
loop_
_atom_site_type_symbol
_atom_site_label
_atom_site_fract_x
_atom_site_fract_y
_atom_site_fract_z
Si Si1 0.294343 0.999259 0.339274
Si Si2 0.594217 0.388221 0.824835
Si Si3 0.893294 0.106707 0.750000
Si Si4 0.091885 0.723351 0.725328
Si Si5 0.458247 0.760096 0.648183
Si Si6 0.525519 0.382217 0.372334
Si Si7 0.512321 0.162796 0.896762
Si Si8 0.537346 0.816226 0.784402
O O1 0.219599 0.910857 0.294891
O O2 0.385133 0.929531 0.383839
O O3 0.206822 0.076323 0.382451
O O4 0.367085 0.084826 0.293431
O O5 0.621747 0.378254 0.750000
O O6 0.509757 0.497831 0.837861
O O7 0.535344 0.270275 0.849768
O O8 0.997507 0.106995 0.802319
O O9 0.198176 0.801825 0.750000
O O10 0.127733 0.590957 0.710341
O O11 0.039671 0.773516 0.660799
O O12 0.995446 0.714342 0.781441
O O13 0.360932 0.659658 0.646523
O O14 0.531489 0.761462 0.713687
O O15 0.400827 0.887109 0.638247
O O16 0.450494 0.279753 0.339891
#
# Coordination Sequence:
#
# PCOD9551093 Si02
#       8
#     8   8   4   8   8   8   8   8
#     4  11  27  48  74 106 144 196 245 302 366 444
#     4  11  27  46  73 105 150 193 243 301 366 447
#     4  10  28  48  74 106 150 200 246 302 362 452
#     4  11  24  43  74 108 149 189 243 307 368 431
#     4  11  24  44  77 104 147 189 242 313 365 441
#     4  11  25  47  71 110 147 192 247 300 370 438
#     4  11  26  47  71 110 143 191 245 299 373 436
#     4  11  24  46  72 108 143 188 250 302 368 436
#
# _framework density 21.933119000000001
#
# number of rings (size 3 to 8) (size 9 to 14) (size 15 to 20)
#    0.000    1.067    1.333    3.600   13.067    0.000 
#    2.400    0.000    0.000    0.000    0.000    0.000 
#    0.000    0.000    0.000    0.000    0.000    0.000 
#
# Total GULP energy -335592.230235 kJ/mol
# GULP energy per Si atom -5593.203837 kJ/mol
# Density = 2.188320 g / cm^3
# Si number density = 21.933119 Si / 1000 Ang^3
#
#
#
# Elastic Constant Matrix: (Units=GPa)
#
#
# Indices 1 2 3 4 5 6 
#
# 1 85.0129 25.1005 34.5753 0.0000 0.0000 0.0000
# 2 25.1005 85.0129 34.5754 0.0000 0.0000 0.0000
# 3 34.5753 34.5754 144.4663 0.0000 0.0000 0.0000
# 4 0.0000 0.0000 0.0000 32.6652 0.0000 0.0000
# 5 0.0000 0.0000 0.0000 0.0000 32.6653 0.0000
# 6 0.0000 0.0000 0.0000 0.0000 0.0000 24.0242
#
#
#
# Elastic Compliance Matrix: (Units=1/GPa)
#
#
# Indices 1 2 3 4 5 6 
#
# 1 0.013689 -0.003002 -0.002558 0.000000 0.000000 0.000000
# 2 -0.003002 0.013689 -0.002558 0.000000 0.000000 0.000000
# 3 -0.002558 -0.002558 0.008146 0.000000 0.000000 0.000000
# 4 0.000000 0.000000 0.000000 0.030614 0.000000 0.000000
# 5 0.000000 0.000000 0.000000 0.000000 0.030614 0.000000
# 6 0.000000 0.000000 0.000000 0.000000 0.000000 0.041625
#
#
# Mechanical properties :
#
#
# Convention : Reuss Voigt Hill
#
# Bulk Modulus (GPa) = 51.83910 55.88827 53.86369
# Shear Modulus (GPa) = 31.04774 32.55367 31.80070
#
# Velocity S-wave (km/s) = 3.76648 3.85674 3.81188
# Velocity P-wave (km/s) = 6.52699 6.73566 6.63215
#
# Compressibility (1/GPa) = 0.01929046
#
# Stress axis : x y z
#
# Youngs Moduli (GPa) = 73.04878 73.04876 122.75319
#
# Poissons Ratio (x) = 0.21926 0.31400
# Poissons Ratio (y) = 0.21926 0.31400
# Poissons Ratio (z) = 0.18686 0.18686
#
# Static dielectric constant tensor:
#      x y z
#    x 1.823200 0.000000 0.000000 
#    y 0.000000 1.823200 0.000000 
#    z 0.000000 0.000000 1.861390 
# 
# From -- ./inp_files/3635.got.cif
#   From: 2010.05.17/outbox.cif.g08.bks.cpg/sg96_2_cif.got.tgz:3635.got - 2010.06.03 19:52:08.
