data_PCOD9551042
_publ_section_title
;
Structure prediction by ZEFSAII (Michael W. Deem and Ramdas Pophale) SiO2 
 PCOD9551042
Probable space group: P 43 21 2
;
_chemical_formula_sum "Si O2"
_cell_formula_units_Z 44
_cell_length_a 8.554033
_cell_length_b 8.554033
_cell_length_c 26.291260
_cell_angle_alpha 90.000000
_cell_angle_beta 90.000000
_cell_angle_gamma 90.000000
_cell_volume 1923.770420
_symmetry_space_group_name_H-M "P 43 21 2"
_symmetry_group_IT_number 96
_symmetry_cell_setting 'tetragonal'
loop_
_space_group_symop_operation_xyz
x,y,z
1/2-y,1/2+x,3/4+z
-x,-y,1/2+z
1/2+y,1/2-x,1/4+z
1/2+x,1/2-y,1/4-z
1/2-x,1/2+y,3/4-z
y,x,-z
-y,-x,1/2-z
loop_
_atom_site_type_symbol
_atom_site_label
_atom_site_fract_x
_atom_site_fract_y
_atom_site_fract_z
Si Si1 0.420814 0.579187 0.250000
Si Si2 0.117005 0.068895 0.090257
Si Si3 0.429733 0.135605 0.501074
Si Si4 0.095400 0.066144 0.323200
Si Si5 0.572719 0.873158 0.443768
Si Si6 0.607846 0.882586 0.887141
O O1 0.469272 0.468486 0.296436
O O2 0.238654 0.564511 0.233956
O O3 0.122199 0.249292 0.074334
O O4 0.030067 0.030987 0.143627
O O5 0.289217 0.003076 0.099711
O O6 0.492669 0.277862 0.534133
O O7 0.548470 0.992556 0.490771
O O8 0.192415 0.399668 0.556861
O O9 0.218810 0.122278 0.366236
O O10 0.000211 0.204709 0.296428
O O11 0.462835 0.947423 0.399089
#
# Coordination Sequence:
#
# PCOD9551042 Si02
#       6
#     4   8   8   8   8   8
#     4  12  24  44  74 102 140 202 252 310 386 466
#     4  12  25  43  72 104 154 193 253 318 383 457
#     4  10  25  44  73 108 139 199 267 303 383 478
#     4  12  23  47  77 105 152 204 252 323 377 464
#     4  10  26  45  68 111 147 194 249 319 385 444
#     4  10  23  46  68 109 146 197 256 301 388 463
#
# _framework density 22.871751
#
# number of rings (size 3 to 8) (size 9 to 14) (size 15 to 20)
#    1.091    0.000    1.818    4.364    7.636    0.000 
#    3.273    2.727    0.000    0.000    0.000    0.000 
#    0.000    0.000    0.000    0.000    0.000    0.000 
#
# Total GULP energy -245564.074159 kJ/mol
# GULP energy per Si atom -5581.001685 kJ/mol
# Density = 2.281969 g / cm^3
# Si number density = 22.871751 Si / 1000 Ang^3
#
#
#
# Elastic Constant Matrix: (Units=GPa)
#
#
# Indices 1 2 3 4 5 6 
#
# 1 88.3896 33.7489 25.5878 0.0000 0.0000 0.0000
# 2 33.7489 88.3892 25.5877 0.0000 0.0000 0.0000
# 3 25.5878 25.5877 113.0159 0.0000 0.0000 0.0000
# 4 0.0000 0.0000 0.0000 34.7125 0.0000 0.0000
# 5 0.0000 0.0000 0.0000 0.0000 34.7123 0.0000
# 6 0.0000 0.0000 0.0000 0.0000 0.0000 36.3308
#
#
#
# Elastic Compliance Matrix: (Units=1/GPa)
#
#
# Indices 1 2 3 4 5 6 
#
# 1 0.013673 -0.004628 -0.002048 0.000000 0.000000 0.000000
# 2 -0.004628 0.013674 -0.002048 0.000000 0.000000 0.000000
# 3 -0.002048 -0.002048 0.009776 0.000000 0.000000 0.000000
# 4 0.000000 0.000000 0.000000 0.028808 0.000000 0.000000
# 5 0.000000 0.000000 0.000000 0.000000 0.028808 0.000000
# 6 0.000000 0.000000 0.000000 0.000000 0.000000 0.027525
#
#
# Mechanical properties :
#
#
# Convention : Reuss Voigt Hill
#
# Bulk Modulus (GPa) = 50.82644 51.07152 50.94898
# Shear Modulus (GPa) = 34.18338 34.80914 34.49626
#
# Velocity S-wave (km/s) = 3.87016 3.90542 3.88783
# Velocity P-wave (km/s) = 6.49934 6.53563 6.51751
#
# Compressibility (1/GPa) = 0.01967480
#
# Stress axis : x y z
#
# Youngs Moduli (GPa) = 73.13436 73.13406 102.29470
#
# Poissons Ratio (x) = 0.33846 0.20950
# Poissons Ratio (y) = 0.33846 0.20950
# Poissons Ratio (z) = 0.14978 0.14978
#
# Static dielectric constant tensor:
#      x y z
#    x 1.878830 0.000000 0.000000 
#    y 0.000000 1.878830 0.000000 
#    z 0.000000 0.000000 1.907430 
# 
# From -- ./inp_files/4378.got.cif
#   From: 2010.05.17/outbox.cif.g08.bks.cpg/sg96_3_cif.got.tgz:4378.got - 2010.06.03 19:52:08.
