data_PCOD9551837
_publ_section_title
;
Structure prediction by ZEFSAII (Michael W. Deem and Ramdas Pophale) SiO2 
 PCOD9551837
Probable space group: I 41 2 2
;
_chemical_formula_sum "Si O2"
_cell_formula_units_Z 128
_cell_length_a 19.949604
_cell_length_b 19.949604
_cell_length_c 15.468703
_cell_angle_alpha 90.000000
_cell_angle_beta 90.000000
_cell_angle_gamma 90.000000
_cell_volume 6156.338056
_symmetry_space_group_name_H-M "I 41 2 2"
_symmetry_group_IT_number 98
_symmetry_cell_setting 'tetragonal'
loop_
_space_group_symop_operation_xyz
x,y,z
-y,1/2+x,1/4+z
-x,-y,z
y,1/2-x,1/4+z
x,1/2-y,1/4-z
-x,1/2+y,1/4-z
y,x,-z
-y,-x,-z
1/2+x,1/2+y,1/2+z
1/2-y,x,3/4+z
1/2-x,1/2-y,1/2+z
1/2+y,-x,3/4+z
1/2+x,-y,3/4-z
1/2-x,y,3/4-z
1/2+y,1/2+x,1/2-z
1/2-y,1/2-x,1/2-z
loop_
_atom_site_type_symbol
_atom_site_label
_atom_site_fract_x
_atom_site_fract_y
_atom_site_fract_z
Si Si1 0.528397 0.828397 0.627483
Si Si2 0.088435 0.736173 0.908965
Si Si3 0.020666 0.623263 0.295524
Si Si4 0.097758 0.019574 0.240902
Si Si5 0.649063 0.657782 0.264861
Si Si6 0.391971 0.532777 0.219716
Si Si7 0.323943 0.197762 0.339156
Si Si8 0.700647 0.202926 0.954435
O O1 0.513861 0.750000 0.625000
O O2 0.532210 0.862440 0.720246
O O3 0.599109 0.838921 0.582003
O O4 0.471654 0.861575 0.566758
O O5 0.050469 0.802020 0.942162
O O6 0.130136 0.769514 0.830409
O O7 0.040559 0.670422 0.904141
O O8 0.143422 0.707266 0.976664
O O9 0.074751 0.574751 0.250000
O O10 0.995064 0.594478 0.387197
O O11 0.160631 0.069011 0.252784
O O12 0.035788 0.063819 0.278891
O O13 0.091674 0.947141 0.284892
O O14 0.675289 0.725732 0.307597
O O15 0.685024 0.635597 0.175978
O O16 0.159366 0.159366 0.500000
O O17 0.250000 0.179129 0.375000
O O18 0.750000 0.183870 0.875000
O O19 0.734040 0.265961 0.000000
#
# Coordination Sequence:
#
# PCOD9551837 Si02
#       8
#    16  16  16  16  16  16  16  16
#     4  11  22  35  52  85 127 162 206 245 298 382
#     4  11  21  35  63  87 122 167 212 260 319 386
#     4  12  23  36  58  86 131 174 213 249 308 389
#     4  10  23  38  53  80 122 168 208 251 302 369
#     4  10  22  37  59  87 120 157 198 257 321 369
#     4  10  21  38  51  75 118 165 209 249 292 364
#     4   9  19  40  66  90 113 146 199 262 323 377
#     4   9  19  33  55  88 116 147 201 267 322 371
#
# _framework density 20.79158
#
# number of rings (size 3 to 8) (size 9 to 14) (size 15 to 20)
#    0.000    1.750    2.500    2.250    3.500    2.000 
#    0.000    0.000    0.000   14.250    0.000    4.375 
#    0.000    0.000    0.000    0.000    0.000    0.000 
#
# Total GULP energy -356431.600262 kJ/mol
# GULP energy per Si atom -5569.243754 kJ/mol
# Density = 2.074426 g / cm^3
# Si number density = 20.791580 Si / 1000 Ang^3
#
#
#
# Elastic Constant Matrix: (Units=GPa)
#
#
# Indices 1 2 3 4 5 6 
#
# 1 59.9223 15.6639 26.3210 0.0000 0.0000 0.0000
# 2 15.6639 59.9232 26.3273 0.0000 0.0000 0.0000
# 3 26.3210 26.3273 56.0642 0.0000 0.0000 0.0000
# 4 0.0000 0.0000 0.0000 24.1040 0.0000 0.0000
# 5 0.0000 0.0000 0.0000 0.0000 24.1036 0.0000
# 6 0.0000 0.0000 0.0000 0.0000 0.0000 29.8076
#
#
#
# Elastic Compliance Matrix: (Units=1/GPa)
#
#
# Indices 1 2 3 4 5 6 
#
# 1 0.021126 -0.001468 -0.009229 0.000000 0.000000 0.000000
# 2 -0.001468 0.021128 -0.009233 0.000000 0.000000 0.000000
# 3 -0.009229 -0.009233 0.026505 0.000000 0.000000 0.000000
# 4 0.000000 0.000000 0.000000 0.041487 0.000000 0.000000
# 5 0.000000 0.000000 0.000000 0.000000 0.041488 0.000000
# 6 0.000000 0.000000 0.000000 0.000000 0.000000 0.033548
#
#
# Mechanical properties :
#
#
# Convention : Reuss Voigt Hill
#
# Bulk Modulus (GPa) = 34.60127 34.72601 34.66364
# Shear Modulus (GPa) = 21.29715 22.77621 22.03668
#
# Velocity S-wave (km/s) = 3.20397 3.31335 3.25912
# Velocity P-wave (km/s) = 5.51047 5.60143 5.55613
#
# Compressibility (1/GPa) = 0.02890067
#
# Stress axis : x y z
#
# Youngs Moduli (GPa) = 47.33568 47.33063 37.72874
#
# Poissons Ratio (x) = 0.06946 0.34820
# Poissons Ratio (y) = 0.06947 0.34833
# Poissons Ratio (z) = 0.43686 0.43698
#
# Static dielectric constant tensor:
#      x y z
#    x 1.841760 0.000000 0.000000 
#    y 0.000000 1.841770 0.000000 
#    z 0.000000 0.000000 1.754020 
# 
# From -- ./inp_files/7918.got.cif
#   From: 2010.05.17/outbox.cif.g08.bks.cpg/sg98_4_cif.got.tgz:7918.got - 2010.06.03 20:00:51.
