data_PCOD9551632
_publ_section_title
;
Structure prediction by ZEFSAII (Michael W. Deem and Ramdas Pophale) SiO2 
 PCOD9551632
Probable space group: I 41 2 2
;
_chemical_formula_sum "Si O2"
_cell_formula_units_Z 84
_cell_length_a 12.163287
_cell_length_b 12.163287
_cell_length_c 27.743434
_cell_angle_alpha 90.000000
_cell_angle_beta 90.000000
_cell_angle_gamma 90.000000
_cell_volume 4104.517620
_symmetry_space_group_name_H-M "I 41 2 2"
_symmetry_group_IT_number 98
_symmetry_cell_setting 'tetragonal'
loop_
_space_group_symop_operation_xyz
x,y,z
-y,1/2+x,1/4+z
-x,-y,z
y,1/2-x,1/4+z
x,1/2-y,1/4-z
-x,1/2+y,1/4-z
y,x,-z
-y,-x,-z
1/2+x,1/2+y,1/2+z
1/2-y,x,3/4+z
1/2-x,1/2-y,1/2+z
1/2+y,-x,3/4+z
1/2+x,-y,3/4-z
1/2-x,y,3/4-z
1/2+y,1/2+x,1/2-z
1/2-y,1/2-x,1/2-z
loop_
_atom_site_type_symbol
_atom_site_label
_atom_site_fract_x
_atom_site_fract_y
_atom_site_fract_z
Si Si1 0.174085 0.134123 0.684716
Si Si2 0.883203 0.869138 0.428443
Si Si3 0.000000 0.500000 0.503985
Si Si4 0.750000 0.085341 0.875000
Si Si5 0.465376 0.666360 0.327248
Si Si6 0.093824 0.077782 0.918218
Si Si7 0.500000 0.000000 0.250000
O O1 0.171259 0.263853 0.694505
O O2 0.128981 0.120352 0.629697
O O3 0.302103 0.103339 0.690398
O O4 0.095171 0.059003 0.716068
O O5 0.982332 0.782830 0.437107
O O6 0.904666 0.977113 0.460504
O O7 0.950908 0.406708 0.469616
O O8 0.649417 0.159406 0.893951
O O9 0.799837 0.999464 0.914071
O O10 0.554444 0.609022 0.363306
O O11 0.000000 0.000000 0.939408
#
# Coordination Sequence:
#
# PCOD9551632 Si02
#       7
#    16  16   8   8  16  16   4
#     4  10  22  38  66  90 129 165 220 254 340 386
#     4  10  22  42  60  91 119 175 208 270 315 405
#     4  12  21  36  58 103 122 165 210 284 311 400
#     4  10  16  34  62  92 122 168 210 256 312 406
#     4  10  20  36  61  91 126 159 215 258 330 379
#     4   9  17  35  61  91 120 166 206 257 312 399
#     4  12  22  40  64  84 122 156 226 256 322 368
#
# _framework density 20.465254999999999
#
# number of rings (size 3 to 8) (size 9 to 14) (size 15 to 20)
#    0.000    1.905    2.857    4.000    0.000    0.000 
#    0.000   13.333    0.000    3.429    0.000    0.000 
#    0.000    0.000    0.000    0.000    0.000    0.000 
#
# Total GULP energy -233978.711557 kJ/mol
# GULP energy per Si atom -5570.921704 kJ/mol
# Density = 2.041868 g / cm^3
# Si number density = 20.465255 Si / 1000 Ang^3
#
#
#
# Elastic Constant Matrix: (Units=GPa)
#
#
# Indices 1 2 3 4 5 6 
#
# 1 114.0962 71.2647 39.1060 0.0000 0.0000 0.0000
# 2 71.2647 114.0962 39.1060 0.0000 0.0000 0.0000
# 3 39.1060 39.1060 74.6994 0.0000 0.0000 0.0000
# 4 0.0000 0.0000 0.0000 16.1698 0.0000 0.0000
# 5 0.0000 0.0000 0.0000 0.0000 16.1698 0.0000
# 6 0.0000 0.0000 0.0000 0.0000 0.0000 34.5374
#
#
#
# Elastic Compliance Matrix: (Units=1/GPa)
#
#
# Indices 1 2 3 4 5 6 
#
# 1 0.015136 -0.008211 -0.003625 0.000000 0.000000 0.000000
# 2 -0.008211 0.015136 -0.003625 0.000000 0.000000 0.000000
# 3 -0.003625 -0.003625 0.017182 0.000000 0.000000 0.000000
# 4 0.000000 0.000000 0.000000 0.061844 0.000000 0.000000
# 5 0.000000 0.000000 0.000000 0.000000 0.061844 0.000000
# 6 0.000000 0.000000 0.000000 0.000000 0.000000 0.028954
#
#
# Mechanical properties :
#
#
# Convention : Reuss Voigt Hill
#
# Bulk Modulus (GPa) = 60.49148 66.87170 63.68159
# Shear Modulus (GPa) = 21.13906 23.60307 22.37106
#
# Velocity S-wave (km/s) = 3.21740 3.39975 3.30983
# Velocity P-wave (km/s) = 6.58973 6.93957 6.76691
#
# Compressibility (1/GPa) = 0.01653125
#
# Stress axis : x y z
#
# Youngs Moduli (GPa) = 66.06828 66.06828 58.19877
#
# Poissons Ratio (x) = 0.54251 0.21097
# Poissons Ratio (y) = 0.54251 0.21097
# Poissons Ratio (z) = 0.23950 0.23950
#
# Static dielectric constant tensor:
#      x y z
#    x 1.747730 0.000000 0.000000 
#    y 0.000000 1.747730 0.000000 
#    z 0.000000 0.000000 1.770910 
# 
# From -- ./inp_files/11984.got.cif
#   From: 2010.05.17/outbox.cif.g08.bks.cpg/sg98_6_cif.got.tgz:11984.got - 2010.06.03 20:00:51.
