data_PCOD9551428
_publ_section_title
;
Structure prediction by ZEFSAII (Michael W. Deem and Ramdas Pophale) SiO2 
 PCOD9551428
Probable space group: I 4 2 2 
;
_chemical_formula_sum "Si O2"
_cell_formula_units_Z 108
_cell_length_a 15.559155
_cell_length_b 15.559155
_cell_length_c 23.084065
_cell_angle_alpha 90.000000
_cell_angle_beta 90.000000
_cell_angle_gamma 90.000000
_cell_volume 5588.359068
_symmetry_space_group_name_H-M "I 4 2 2 "
_symmetry_group_IT_number 97
_symmetry_cell_setting 'tetragonal'
loop_
_space_group_symop_operation_xyz
x,y,z
-y,x,z
-x,-y,z
y,-x,z
x,-y,-z
-x,y,-z
y,x,-z
-y,-x,-z
1/2+x,1/2+y,1/2+z
1/2-y,1/2+x,1/2+z
1/2-x,1/2-y,1/2+z
1/2+y,1/2-x,1/2+z
1/2+x,1/2-y,1/2-z
1/2-x,1/2+y,1/2-z
1/2+y,1/2+x,1/2-z
1/2-y,1/2-x,1/2-z
loop_
_atom_site_type_symbol
_atom_site_label
_atom_site_fract_x
_atom_site_fract_y
_atom_site_fract_z
Si Si1 0.092024 0.819971 0.303866
Si Si2 0.540709 0.824333 0.272200
Si Si3 0.132206 0.282683 0.298021
Si Si4 0.630243 0.156077 0.074828
Si Si5 0.500000 0.500000 0.204565
Si Si6 0.061887 0.281425 0.578020
Si Si7 0.525018 0.099405 0.603057
Si Si8 0.706073 0.293928 0.000000
O O1 0.091866 0.761327 0.246232
O O2 0.184757 0.859449 0.316981
O O3 0.066587 0.757644 0.357332
O O4 0.026769 0.897731 0.296595
O O5 0.593910 0.906090 0.250000
O O6 0.452805 0.811916 0.236455
O O7 0.527645 0.841504 0.339821
O O8 0.204259 0.295742 0.250000
O O9 0.141795 0.336689 0.356191
O O10 0.538053 0.202407 0.062561
O O11 0.700956 0.211649 0.041848
O O12 0.626337 0.054734 0.062465
O O13 0.099457 0.378663 0.577460
O O14 0.120335 0.217941 0.539179
O O15 0.500000 0.000000 0.619129
#
# Coordination Sequence:
#
# PCOD9551428 Si02
#       8
#    16  16  16  16   4  16  16   8
#     4  12  23  40  58  87 133 175 217 262 316 391
#     4  12  21  35  63  98 129 171 209 261 331 403
#     4  12  23  36  63  95 133 169 207 264 332 395
#     4  11  22  42  63  95 128 167 217 274 332 390
#     4  12  24  40  56  77 124 188 220 253 324 384
#     4  11  23  43  63  92 123 171 221 279 325 386
#     4  10  22  40  67  97 132 163 211 271 344 406
#     4  12  26  40  64  85 126 173 222 268 318 386
#
# _framework density 19.325887000000002
#
# number of rings (size 3 to 8) (size 9 to 14) (size 15 to 20)
#    0.000    0.593    7.407    1.778    0.000    0.593 
#    0.000    2.222    0.000    0.889    0.000    0.000 
#    0.000    1.185    0.000    0.000    0.000    0.000 
#
# Total GULP energy -300825.897988 kJ/mol
# GULP energy per Si atom -5570.849963 kJ/mol
# Density = 1.928190 g / cm^3
# Si number density = 19.325887 Si / 1000 Ang^3
#
#
#
# Elastic Constant Matrix: (Units=GPa)
#
#
# Indices 1 2 3 4 5 6 
#
# 1 103.8371 40.0928 25.3769 0.0000 0.0000 0.0000
# 2 40.0928 103.8371 25.3762 0.0000 0.0000 0.0000
# 3 25.3769 25.3762 71.3485 0.0000 0.0000 0.0000
# 4 0.0000 0.0000 0.0000 29.2771 0.0000 0.0000
# 5 0.0000 0.0000 0.0000 0.0000 29.2770 0.0000
# 6 0.0000 0.0000 0.0000 0.0000 0.0000 36.4818
#
#
#
# Elastic Compliance Matrix: (Units=1/GPa)
#
#
# Indices 1 2 3 4 5 6 
#
# 1 0.011816 -0.003872 -0.002826 0.000000 0.000000 0.000000
# 2 -0.003872 0.011816 -0.002825 0.000000 0.000000 0.000000
# 3 -0.002826 -0.002825 0.016026 0.000000 0.000000 0.000000
# 4 0.000000 0.000000 0.000000 0.034156 0.000000 0.000000
# 5 0.000000 0.000000 0.000000 0.000000 0.034157 0.000000
# 6 0.000000 0.000000 0.000000 0.000000 0.000000 0.027411
#
#
# Mechanical properties :
#
#
# Convention : Reuss Voigt Hill
#
# Bulk Modulus (GPa) = 48.51560 51.19049 49.85304
# Shear Modulus (GPa) = 30.99863 31.55230 31.27547
#
# Velocity S-wave (km/s) = 4.00934 4.04498 4.02720
# Velocity P-wave (km/s) = 6.82580 6.95424 6.89031
#
# Compressibility (1/GPa) = 0.02061193
#
# Stress axis : x y z
#
# Youngs Moduli (GPa) = 84.63134 84.63183 62.40019
#
# Poissons Ratio (x) = 0.32767 0.17632
# Poissons Ratio (y) = 0.32767 0.17631
# Poissons Ratio (z) = 0.23913 0.23912
#
# Static dielectric constant tensor:
#      x y z
#    x 1.696620 0.000000 0.000000 
#    y 0.000000 1.696620 0.000000 
#    z 0.000000 0.000000 1.743030 
# 
# From -- ./inp_files/7304.got.cif
#   From: 2010.05.17/outbox.cif.g08.bks.cpg/sg97_4_cif.got.tgz:7304.got - 2010.06.03 19:55:32.
