data_PCOD9551984
_publ_section_title
;
Structure prediction by ZEFSAII (Michael W. Deem and Ramdas Pophale) SiO2 
 PCOD9551984
Probable space group: I 41 2 2
;
_chemical_formula_sum "Si O2"
_cell_formula_units_Z 48
_cell_length_a 8.434185
_cell_length_b 8.434185
_cell_length_c 26.933674
_cell_angle_alpha 90.000000
_cell_angle_beta 90.000000
_cell_angle_gamma 90.000000
_cell_volume 1915.939737
_symmetry_space_group_name_H-M "I 41 2 2"
_symmetry_group_IT_number 98
_symmetry_cell_setting 'tetragonal'
loop_
_space_group_symop_operation_xyz
x,y,z
-y,1/2+x,1/4+z
-x,-y,z
y,1/2-x,1/4+z
x,1/2-y,1/4-z
-x,1/2+y,1/4-z
y,x,-z
-y,-x,-z
1/2+x,1/2+y,1/2+z
1/2-y,x,3/4+z
1/2-x,1/2-y,1/2+z
1/2+y,-x,3/4+z
1/2+x,-y,3/4-z
1/2-x,y,3/4-z
1/2+y,1/2+x,1/2-z
1/2-y,1/2-x,1/2-z
loop_
_atom_site_type_symbol
_atom_site_label
_atom_site_fract_x
_atom_site_fract_y
_atom_site_fract_z
Si Si1 0.846013 0.884108 0.281768
Si Si2 0.827467 0.177059 0.559124
Si Si3 0.822263 0.466428 0.144528
O O1 0.708531 0.791470 0.250000
O O2 0.917698 0.744470 0.314212
O O3 0.762675 0.007781 0.318448
O O4 0.000000 0.000000 0.261770
O O5 0.839375 0.160626 0.500000
O O6 0.691633 0.299179 0.576087
O O7 0.788165 0.034433 0.595573
O O8 0.000000 0.500000 0.129748
#
# Coordination Sequence:
#
# PCOD9551984 Si02
#       3
#    16  16  16
#     4  10  24  49  79 121 168 227 286 354 443 523
#     4  10  24  50  73 110 165 214 274 346 433 510
#     4  10  24  47  78 118 156 210 283 352 410 525
#
# _framework density 25.052980000000002
#
# number of rings (size 3 to 8) (size 9 to 14) (size 15 to 20)
#    0.000    2.000    0.000    0.000    9.333    4.667 
#   42.000    0.000    0.000    0.000    0.000    0.000 
#    0.000    0.000    0.000    0.000    0.000    0.000 
#
# Total GULP energy -133678.111051 kJ/mol
# GULP energy per Si atom -5569.921294 kJ/mol
# Density = 2.499596 g / cm^3
# Si number density = 25.052980 Si / 1000 Ang^3
#
#
#
# Elastic Constant Matrix: (Units=GPa)
#
#
# Indices 1 2 3 4 5 6 
#
# 1 93.8436 50.2960 10.4295 0.0000 0.0000 0.0000
# 2 50.2960 93.8424 10.4277 0.0000 0.0000 0.0000
# 3 10.4295 10.4277 99.4504 0.0000 0.0000 0.0000
# 4 0.0000 0.0000 0.0000 36.4609 0.0000 0.0000
# 5 0.0000 0.0000 0.0000 0.0000 36.4613 0.0000
# 6 0.0000 0.0000 0.0000 0.0000 0.0000 37.3583
#
#
#
# Elastic Compliance Matrix: (Units=1/GPa)
#
#
# Indices 1 2 3 4 5 6 
#
# 1 0.015004 -0.007960 -0.000739 0.000000 0.000000 0.000000
# 2 -0.007960 0.015004 -0.000739 0.000000 0.000000 0.000000
# 3 -0.000739 -0.000739 0.010210 0.000000 0.000000 0.000000
# 4 0.000000 0.000000 0.000000 0.027427 0.000000 0.000000
# 5 0.000000 0.000000 0.000000 0.000000 0.027426 0.000000
# 6 0.000000 0.000000 0.000000 0.000000 0.000000 0.026768
#
#
# Mechanical properties :
#
#
# Convention : Reuss Voigt Hill
#
# Bulk Modulus (GPa) = 46.85027 47.71588 47.28307
# Shear Modulus (GPa) = 33.82309 36.45499 35.13904
#
# Velocity S-wave (km/s) = 3.67831 3.81874 3.74918
# Velocity P-wave (km/s) = 6.06473 6.20733 6.13645
#
# Compressibility (1/GPa) = 0.02134460
#
# Stress axis : x y z
#
# Youngs Moduli (GPa) = 66.64853 66.64793 97.94133
#
# Poissons Ratio (x) = 0.53048 0.07237
# Poissons Ratio (y) = 0.53049 0.07233
# Poissons Ratio (z) = 0.04925 0.04922
#
# Static dielectric constant tensor:
#      x y z
#    x 2.160300 0.000000 0.000000 
#    y 0.000000 2.160300 0.000000 
#    z 0.000000 0.000000 2.035460 
# 
# From -- ./inp_files/11273.got.cif
#   From: 2010.05.17/outbox.cif.g08.bks.cpg/sg98_6_cif.got.tgz:11273.got - 2010.06.03 20:00:51.
