data_PCOD9551477
_publ_section_title
;
Structure prediction by ZEFSAII (Michael W. Deem and Ramdas Pophale) SiO2 
 PCOD9551477
Probable space group: I 4 2 2 
;
_chemical_formula_sum "Si O2"
_cell_formula_units_Z 96
_cell_length_a 13.673962
_cell_length_b 13.673962
_cell_length_c 24.786047
_cell_angle_alpha 90.000000
_cell_angle_beta 90.000000
_cell_angle_gamma 90.000000
_cell_volume 4634.426579
_symmetry_space_group_name_H-M "I 4 2 2 "
_symmetry_group_IT_number 97
_symmetry_cell_setting 'tetragonal'
loop_
_space_group_symop_operation_xyz
x,y,z
-y,x,z
-x,-y,z
y,-x,z
x,-y,-z
-x,y,-z
y,x,-z
-y,-x,-z
1/2+x,1/2+y,1/2+z
1/2-y,1/2+x,1/2+z
1/2-x,1/2-y,1/2+z
1/2+y,1/2-x,1/2+z
1/2+x,1/2-y,1/2-z
1/2-x,1/2+y,1/2-z
1/2+y,1/2+x,1/2-z
1/2-y,1/2-x,1/2-z
loop_
_atom_site_type_symbol
_atom_site_label
_atom_site_fract_x
_atom_site_fract_y
_atom_site_fract_z
Si Si1 0.100411 0.722132 0.206958
Si Si2 0.734394 0.385365 0.745112
Si Si3 0.134440 0.907695 0.358579
Si Si4 0.225141 0.391190 0.503215
Si Si5 0.087411 0.419639 0.894799
Si Si6 0.936588 0.725247 0.445537
O O1 0.151645 0.651645 0.250000
O O2 0.172974 0.815744 0.204545
O O3 0.085553 0.652536 0.155712
O O4 0.996470 0.762708 0.226691
O O5 0.843300 0.343300 0.750000
O O6 0.688399 0.373168 0.804668
O O7 0.185028 0.883616 0.415789
O O8 0.024571 0.871371 0.356429
O O9 0.268652 0.500000 0.500000
O O10 0.309132 0.309132 0.500000
O O11 0.154909 0.402303 0.555246
O O12 0.145036 0.355895 0.459259
O O13 0.180926 0.489702 0.901435
O O14 0.000000 0.500000 0.896427
O O15 0.000000 0.747110 0.500000
#
# Coordination Sequence:
#
# PCOD9551477 Si02
#       6
#    16  16  16  16  16  16
#     4  11  26  43  67 103 138 186 243 297 368 436
#     4  11  25  43  66  98 145 182 245 300 359 446
#     4  11  24  43  69  97 139 192 228 287 382 441
#     4  11  25  45  72 103 144 190 241 297 369 440
#     4  11  24  44  71  99 135 181 240 302 367 424
#     4  10  24  41  69 101 142 178 239 300 359 437
#
# _framework density 20.714535999999999
#
# number of rings (size 3 to 8) (size 9 to 14) (size 15 to 20)
#    0.000    1.167    3.333    1.000   11.667    1.833 
#    0.000    0.833    0.000    2.000    0.000    0.000 
#    0.000    0.000    0.000    0.000    0.000    0.000 
#
# Total GULP energy -267825.459266 kJ/mol
# GULP energy per Si atom -5579.697068 kJ/mol
# Density = 2.066739 g / cm^3
# Si number density = 20.714536 Si / 1000 Ang^3
#
#
#
# Elastic Constant Matrix: (Units=GPa)
#
#
# Indices 1 2 3 4 5 6 
#
# 1 -202.4776 359.0941 36.0972 0.0000 0.0000 0.0000
# 2 359.0941 -202.4776 36.0972 0.0000 0.0000 0.0000
# 3 36.0972 36.0972 63.0390 0.0000 0.0000 0.0000
# 4 0.0000 0.0000 0.0000 31.1084 0.0000 0.0000
# 5 0.0000 0.0000 0.0000 0.0000 31.1084 0.0000
# 6 0.0000 0.0000 0.0000 0.0000 0.0000 40.0032
#
#
#
# Elastic Compliance Matrix: (Units=1/GPa)
#
#
# Indices 1 2 3 4 5 6 
#
# 1 0.003447 0.005228 -0.004967 0.000000 0.000000 0.000000
# 2 0.005228 0.003447 -0.004967 0.000000 0.000000 0.000000
# 3 -0.004967 -0.004967 0.021552 0.000000 0.000000 0.000000
# 4 0.000000 0.000000 0.000000 0.032146 0.000000 0.000000
# 5 0.000000 0.000000 0.000000 0.000000 0.032146 0.000000
# 6 0.000000 0.000000 0.000000 0.000000 0.000000 0.024998
#
#
# Mechanical properties :
#
#
# Convention : Reuss Voigt Hill
#
# Bulk Modulus (GPa) = 52.54253 57.85120 55.19687
# Shear Modulus (GPa) = 37.45507 -31.10299 3.17604
#
# Velocity S-wave (km/s) = 4.25685 -3.87913 1.23958
# Velocity P-wave (km/s) = 7.04139 2.81512 5.36219
#
# Compressibility (1/GPa) = 0.01903220
#
# Stress axis : x y z
#
# Youngs Moduli (GPa) = 290.10436 290.10436 46.39945
#
# Poissons Ratio (x) = -1.51659 0.23048
# Poissons Ratio (y) = -1.51659 0.23048
# Poissons Ratio (z) = 1.44105 1.44105
#
# Static dielectric constant tensor:
#      x y z
#    x 1.424410 0.000000 0.000000 
#    y 0.000000 1.424410 0.000000 
#    z 0.000000 0.000000 1.798540 
# 
# From -- ./inp_files/6597.got.cif
#   From: 2010.05.17/outbox.cif.g08.bks.cpg/sg97_4_cif.got.tgz:6597.got - 2010.06.03 19:55:32.
