data_PCOD9551818
_publ_section_title
;
Structure prediction by ZEFSAII (Michael W. Deem and Ramdas Pophale) SiO2 
 PCOD9551818
Probable space group: I 41 2 2
;
_chemical_formula_sum "Si O2"
_cell_formula_units_Z 96
_cell_length_a 21.362112
_cell_length_b 21.362112
_cell_length_c 9.156295
_cell_angle_alpha 90.000000
_cell_angle_beta 90.000000
_cell_angle_gamma 90.000000
_cell_volume 4178.382095
_symmetry_space_group_name_H-M "I 41 2 2"
_symmetry_group_IT_number 98
_symmetry_cell_setting 'tetragonal'
loop_
_space_group_symop_operation_xyz
x,y,z
-y,1/2+x,1/4+z
-x,-y,z
y,1/2-x,1/4+z
x,1/2-y,1/4-z
-x,1/2+y,1/4-z
y,x,-z
-y,-x,-z
1/2+x,1/2+y,1/2+z
1/2-y,x,3/4+z
1/2-x,1/2-y,1/2+z
1/2+y,-x,3/4+z
1/2+x,-y,3/4-z
1/2-x,y,3/4-z
1/2+y,1/2+x,1/2-z
1/2-y,1/2-x,1/2-z
loop_
_atom_site_type_symbol
_atom_site_label
_atom_site_fract_x
_atom_site_fract_y
_atom_site_fract_z
Si Si1 0.776070 0.088148 0.730692
Si Si2 0.401949 0.905221 0.576369
Si Si3 0.452722 0.272023 0.460730
Si Si4 0.186234 0.934477 0.429641
Si Si5 0.446936 0.139705 0.340664
Si Si6 0.412914 0.048113 0.597493
O O1 0.750000 0.124434 0.875000
O O2 0.843478 0.060809 0.779749
O O3 0.790722 0.109313 0.565033
O O4 0.730998 0.028605 0.712630
O O5 0.394861 0.894861 0.750000
O O6 0.344176 0.901722 0.460818
O O7 0.422040 0.976318 0.550067
O O8 0.433065 0.250000 0.625000
O O9 0.432543 0.212397 0.366885
O O10 0.437636 0.339634 0.390869
O O11 0.250000 0.966495 0.375000
O O12 0.140946 0.987678 0.498599
O O13 0.392896 0.107105 0.250000
O O14 0.402174 0.057717 0.012957
O O15 0.447014 0.052987 0.750000
#
# Coordination Sequence:
#
# PCOD9551818 Si02
#       6
#    16  16  16  16  16  16
#     4  10  22  41  68  94 132 187 236 283 351 442
#     4  12  24  41  64 103 144 181 235 290 362 436
#     4  10  20  41  67  91 132 187 243 282 362 443
#     4  11  23  44  69 100 142 190 246 299 373 452
#     4  11  23  39  67 101 137 183 233 304 363 427
#     4  12  25  44  69 105 140 191 237 296 370 444
#
# _framework density 22.975401000000002
#
# number of rings (size 3 to 8) (size 9 to 14) (size 15 to 20)
#    0.000    1.000    3.333    5.500    2.333    0.333 
#    0.000    0.000    0.000    3.000    0.000   26.833 
#    0.000    0.000    0.000    0.000    0.000    0.000 
#
# Total GULP energy -267317.722001 kJ/mol
# GULP energy per Si atom -5569.119208 kJ/mol
# Density = 2.292311 g / cm^3
# Si number density = 22.975401 Si / 1000 Ang^3
#
#
#
# Elastic Constant Matrix: (Units=GPa)
#
#
# Indices 1 2 3 4 5 6 
#
# 1 78.5218 50.5712 42.6314 0.0000 0.0000 0.0000
# 2 50.5712 78.5261 42.6290 0.0000 0.0000 0.0000
# 3 42.6314 42.6290 171.5882 0.0000 0.0000 0.0000
# 4 0.0000 0.0000 0.0000 43.6800 0.0000 0.0000
# 5 0.0000 0.0000 0.0000 0.0000 43.6809 0.0000
# 6 0.0000 0.0000 0.0000 0.0000 0.0000 6.3960
#
#
#
# Elastic Compliance Matrix: (Units=1/GPa)
#
#
# Indices 1 2 3 4 5 6 
#
# 1 0.022522 -0.013254 -0.002303 0.000000 0.000000 0.000000
# 2 -0.013254 0.022520 -0.002302 0.000000 0.000000 0.000000
# 3 -0.002303 -0.002302 0.006972 0.000000 0.000000 0.000000
# 4 0.000000 0.000000 0.000000 0.022894 0.000000 0.000000
# 5 0.000000 0.000000 0.000000 0.000000 0.022893 0.000000
# 6 0.000000 0.000000 0.000000 0.000000 0.000000 0.156349
#
#
# Mechanical properties :
#
#
# Convention : Reuss Voigt Hill
#
# Bulk Modulus (GPa) = 61.36369 66.69992 64.03181
# Shear Modulus (GPa) = 16.93203 31.60500 24.26852
#
# Velocity S-wave (km/s) = 2.71765 3.71293 3.25358
# Velocity P-wave (km/s) = 6.05094 6.89023 6.48418
#
# Compressibility (1/GPa) = 0.01629628
#
# Stress axis : x y z
#
# Youngs Moduli (GPa) = 44.40174 44.40536 143.43326
#
# Poissons Ratio (x) = 0.58855 0.33029
# Poissons Ratio (y) = 0.58850 0.33015
# Poissons Ratio (z) = 0.10225 0.10221
#
# Static dielectric constant tensor:
#      x y z
#    x 1.932100 0.000000 0.000000 
#    y 0.000000 1.932100 0.000000 
#    z 0.000000 0.000000 2.059850 
# 
# From -- ./inp_files/3688.got.cif
#   From: 2010.05.17/outbox.cif.g08.bks.cpg/sg98_2_cif.got.tgz:3688.got - 2010.06.03 20:00:51.
