data_PCOD9551893
_publ_section_title
;
Structure prediction by ZEFSAII (Michael W. Deem and Ramdas Pophale) SiO2 
 PCOD9551893
Probable space group: I 41 2 2
;
_chemical_formula_sum "Si O2"
_cell_formula_units_Z 72
_cell_length_a 10.802865
_cell_length_b 10.802865
_cell_length_c 28.825664
_cell_angle_alpha 90.000000
_cell_angle_beta 90.000000
_cell_angle_gamma 90.000000
_cell_volume 3364.009533
_symmetry_space_group_name_H-M "I 41 2 2"
_symmetry_group_IT_number 98
_symmetry_cell_setting 'tetragonal'
loop_
_space_group_symop_operation_xyz
x,y,z
-y,1/2+x,1/4+z
-x,-y,z
y,1/2-x,1/4+z
x,1/2-y,1/4-z
-x,1/2+y,1/4-z
y,x,-z
-y,-x,-z
1/2+x,1/2+y,1/2+z
1/2-y,x,3/4+z
1/2-x,1/2-y,1/2+z
1/2+y,-x,3/4+z
1/2+x,-y,3/4-z
1/2-x,y,3/4-z
1/2+y,1/2+x,1/2-z
1/2-y,1/2-x,1/2-z
loop_
_atom_site_type_symbol
_atom_site_label
_atom_site_fract_x
_atom_site_fract_y
_atom_site_fract_z
Si Si1 0.750000 0.791066 0.875000
Si Si2 0.930186 0.290546 0.784604
Si Si3 0.489532 0.647544 0.861520
Si Si4 0.883904 0.594848 0.458843
Si Si5 0.257729 0.588519 0.233430
O O1 0.627785 0.708485 0.863039
O O2 0.795982 0.881246 0.834291
O O3 0.900748 0.400748 0.750000
O O4 0.926035 0.327568 0.838399
O O5 0.837113 0.181952 0.766747
O O6 0.061024 0.226949 0.777867
O O7 0.500000 0.500000 0.853392
O O8 0.407452 0.709607 0.820672
O O9 0.806655 0.543162 0.501154
O O10 0.000000 0.500000 0.448482
O O11 0.120458 0.620458 0.250000
#
# Coordination Sequence:
#
# PCOD9551893 Si02
#       5
#     8  16  16  16  16
#     4  10  24  40  62  94 124 162 210 256 314 380
#     4   9  20  38  62  91 123 165 210 260 325 389
#     4  11  24  42  63  92 129 168 214 273 326 385
#     4   9  19  39  62  88 124 161 202 258 311 372
#     4  10  22  39  63  93 127 168 210 261 323 387
#
# _framework density 21.403030000000001
#
# number of rings (size 3 to 8) (size 9 to 14) (size 15 to 20)
#    0.000    2.222    0.000    2.000    0.000   15.556 
#    0.000    7.778    0.000    0.000    0.000    0.000 
#    0.000    0.000    0.000    0.000    0.000    0.000 
#
# Total GULP energy -200508.999688 kJ/mol
# GULP energy per Si atom -5569.694436 kJ/mol
# Density = 2.135432 g / cm^3
# Si number density = 21.403030 Si / 1000 Ang^3
#
#
#
# Elastic Constant Matrix: (Units=GPa)
#
#
# Indices 1 2 3 4 5 6 
#
# 1 39.3862 31.6154 65.1640 0.0000 0.0000 0.0000
# 2 31.6154 39.3862 65.1640 0.0000 0.0000 0.0000
# 3 65.1640 65.1640 173.4333 0.0000 0.0000 0.0000
# 4 0.0000 0.0000 0.0000 -132.3015 0.0001 0.0000
# 5 0.0000 0.0000 0.0000 0.0001 -132.3016 0.0000
# 6 0.0000 0.0000 0.0000 0.0000 0.0000 8.3502
#
#
#
# Elastic Compliance Matrix: (Units=1/GPa)
#
#
# Indices 1 2 3 4 5 6 
#
# 1 0.087036 -0.041651 -0.017053 0.000000 0.000000 0.000000
# 2 -0.041651 0.087036 -0.017053 0.000000 0.000000 0.000000
# 3 -0.017053 -0.017053 0.018580 0.000000 0.000000 0.000000
# 4 0.000000 0.000000 0.000000 -0.007558 0.000000 0.000000
# 5 0.000000 0.000000 0.000000 0.000000 -0.007558 0.000000
# 6 0.000000 0.000000 0.000000 0.000000 0.000000 0.119758
#
#
# Mechanical properties :
#
#
# Convention : Reuss Voigt Hill
#
# Bulk Modulus (GPa) = 24.30695 64.01026 44.15861
# Shear Modulus (GPa) = 10.81038 -45.23309 -17.21136
#
# Velocity S-wave (km/s) = 2.24985 -4.60216 -2.83884
# Velocity P-wave (km/s) = 4.25800 1.31614 3.15141
#
# Compressibility (1/GPa) = 0.04114049
#
# Stress axis : x y z
#
# Youngs Moduli (GPa) = 11.48948 11.48949 53.82072
#
# Poissons Ratio (x) = 0.47855 0.91778
# Poissons Ratio (y) = 0.47855 0.91778
# Poissons Ratio (z) = 0.19593 0.19593
#
# Static dielectric constant tensor:
#      x y z
#    x 3.026290 0.000000 0.000000 
#    y 0.000000 3.026290 0.000000 
#    z 0.000000 0.000000 1.805870 
# 
# From -- ./inp_files/10772.got.cif
#   From: 2010.05.17/outbox.cif.g08.bks.cpg/sg98_6_cif.got.tgz:10772.got - 2010.06.03 20:00:51.
