data_PCOD9551685
_publ_section_title
;
Structure prediction by ZEFSAII (Michael W. Deem and Ramdas Pophale) SiO2 
 PCOD9551685
Probable space group: I 41 2 2
;
_chemical_formula_sum "Si O2"
_cell_formula_units_Z 48
_cell_length_a 8.478977
_cell_length_b 8.478977
_cell_length_c 26.535514
_cell_angle_alpha 90.000000
_cell_angle_beta 90.000000
_cell_angle_gamma 90.000000
_cell_volume 1907.719060
_symmetry_space_group_name_H-M "I 41 2 2"
_symmetry_group_IT_number 98
_symmetry_cell_setting 'tetragonal'
loop_
_space_group_symop_operation_xyz
x,y,z
-y,1/2+x,1/4+z
-x,-y,z
y,1/2-x,1/4+z
x,1/2-y,1/4-z
-x,1/2+y,1/4-z
y,x,-z
-y,-x,-z
1/2+x,1/2+y,1/2+z
1/2-y,x,3/4+z
1/2-x,1/2-y,1/2+z
1/2+y,-x,3/4+z
1/2+x,-y,3/4-z
1/2-x,y,3/4-z
1/2+y,1/2+x,1/2-z
1/2-y,1/2-x,1/2-z
loop_
_atom_site_type_symbol
_atom_site_label
_atom_site_fract_x
_atom_site_fract_y
_atom_site_fract_z
Si Si1 0.725249 0.833954 0.048733
Si Si2 0.008843 0.183832 0.854678
Si Si3 0.937876 0.319767 0.679894
O O1 0.778360 0.672742 0.076724
O O2 0.739763 0.973446 0.089216
O O3 0.541725 0.793415 0.034791
O O4 0.835733 0.835733 0.000000
O O5 0.859666 0.253267 0.823900
O O6 0.000000 0.000000 0.861418
O O7 0.977488 0.250000 0.625000
O O8 0.000000 0.500000 0.685907
#
# Coordination Sequence:
#
# PCOD9551685 Si02
#       3
#    16  16  16
#     4  10  21  41  63  91 123 165 220 266 312 390
#     4  10  22  39  61  90 130 166 209 267 336 378
#     4  10  18  37  64  85 116 168 204 257 308 387
#
# _framework density 25.160934999999998
#
# number of rings (size 3 to 8) (size 9 to 14) (size 15 to 20)
#    0.000    2.000    6.667    0.000    4.667    6.667 
#    6.000    0.000    0.000    0.000    0.000    0.000 
#    0.000    0.000    0.000    0.000    0.000    0.000 
#
# Total GULP energy -133746.502778 kJ/mol
# GULP energy per Si atom -5572.770949 kJ/mol
# Density = 2.510367 g / cm^3
# Si number density = 25.160935 Si / 1000 Ang^3
#
#
#
# Elastic Constant Matrix: (Units=GPa)
#
#
# Indices 1 2 3 4 5 6 
#
# 1 101.0035 23.7838 0.1088 0.0000 0.0000 0.0000
# 2 23.7838 101.0035 0.1088 0.0000 0.0000 0.0000
# 3 0.1088 0.1088 81.0231 0.0000 0.0000 0.0000
# 4 0.0000 0.0000 0.0000 13.5043 0.0000 0.0000
# 5 0.0000 0.0000 0.0000 0.0000 13.5043 0.0000
# 6 0.0000 0.0000 0.0000 0.0000 0.0000 12.3167
#
#
#
# Elastic Compliance Matrix: (Units=1/GPa)
#
#
# Indices 1 2 3 4 5 6 
#
# 1 0.010482 -0.002468 -0.000011 0.000000 0.000000 0.000000
# 2 -0.002468 0.010482 -0.000011 0.000000 0.000000 0.000000
# 3 -0.000011 -0.000011 0.012342 0.000000 0.000000 0.000000
# 4 0.000000 0.000000 0.000000 0.074050 0.000000 0.000000
# 5 0.000000 0.000000 0.000000 0.000000 0.074050 0.000000
# 6 0.000000 0.000000 0.000000 0.000000 0.000000 0.081190
#
#
# Mechanical properties :
#
#
# Convention : Reuss Voigt Hill
#
# Bulk Modulus (GPa) = 35.30269 36.78144 36.04207
# Shear Modulus (GPa) = 18.04933 25.13366 21.59149
#
# Velocity S-wave (km/s) = 2.68125 3.16399 2.93257
# Velocity P-wave (km/s) = 4.86279 5.29131 5.08157
#
# Compressibility (1/GPa) = 0.02832645
#
# Stress axis : x y z
#
# Youngs Moduli (GPa) = 95.40292 95.40292 81.02293
#
# Poissons Ratio (x) = 0.23547 0.00087
# Poissons Ratio (y) = 0.23547 0.00087
# Poissons Ratio (z) = 0.00103 0.00103
#
# Static dielectric constant tensor:
#      x y z
#    x 2.073920 0.000000 0.000000 
#    y 0.000000 2.073920 0.000000 
#    z 0.000000 0.000000 1.993990 
# 
# From -- ./inp_files/11263.got.cif
#   From: 2010.05.17/outbox.cif.g08.bks.cpg/sg98_6_cif.got.tgz:11263.got - 2010.06.03 20:00:51.
