data_PCOD9551786
_publ_section_title
;
Structure prediction by ZEFSAII (Michael W. Deem and Ramdas Pophale) SiO2 
 PCOD9551786
Probable space group: I 41 2 2
;
_chemical_formula_sum "Si O2"
_cell_formula_units_Z 108
_cell_length_a 30.178127
_cell_length_b 30.178127
_cell_length_c 5.274210
_cell_angle_alpha 90.000000
_cell_angle_beta 90.000000
_cell_angle_gamma 90.000000
_cell_volume 4803.325099
_symmetry_space_group_name_H-M "I 41 2 2"
_symmetry_group_IT_number 98
_symmetry_cell_setting 'tetragonal'
loop_
_space_group_symop_operation_xyz
x,y,z
-y,1/2+x,1/4+z
-x,-y,z
y,1/2-x,1/4+z
x,1/2-y,1/4-z
-x,1/2+y,1/4-z
y,x,-z
-y,-x,-z
1/2+x,1/2+y,1/2+z
1/2-y,x,3/4+z
1/2-x,1/2-y,1/2+z
1/2+y,-x,3/4+z
1/2+x,-y,3/4-z
1/2-x,y,3/4-z
1/2+y,1/2+x,1/2-z
1/2-y,1/2-x,1/2-z
loop_
_atom_site_type_symbol
_atom_site_label
_atom_site_fract_x
_atom_site_fract_y
_atom_site_fract_z
Si Si1 0.618504 0.381497 0.000000
Si Si2 0.500000 0.500000 0.000000
Si Si3 0.105490 0.723390 0.870752
Si Si4 0.534339 0.409920 0.753581
Si Si5 0.335842 0.202759 0.995460
Si Si6 0.737081 0.491212 0.625120
Si Si7 0.133317 0.405881 0.011337
Si Si8 0.360469 0.508211 0.741774
O O1 0.671069 0.386309 0.068496
O O2 0.595001 0.411499 0.223034
O O3 0.508827 0.455900 0.827173
O O4 0.122379 0.750000 0.625000
O O5 0.052272 0.731413 0.878142
O O6 0.121501 0.750000 0.125000
O O7 0.517472 0.395107 0.481779
O O8 0.521918 0.375999 0.979398
O O9 0.340649 0.250000 0.125000
O O10 0.322798 0.177203 0.250000
O O11 0.303183 0.196818 0.750000
O O12 0.380226 0.178179 0.912021
O O13 0.750000 0.517050 0.375000
O O14 0.686942 0.474062 0.646576
O O15 0.750000 0.517283 0.875000
O O16 0.101005 0.398995 0.250000
O O17 0.145343 0.456251 0.985364
O O18 0.111410 0.388591 0.750000
#
# Coordination Sequence:
#
# PCOD9551786 Si02
#       8
#     8   4  16  16  16  16  16  16
#     4  11  24  45  70 102 142 184 228 286 370 412
#     4  10  28  46  60  98 132 186 232 306 332 386
#     4  10  21  38  65  95 132 171 217 273 335 412
#     4  11  26  42  67  96 137 179 238 286 343 414
#     4  10  21  39  61  90 128 167 221 285 353 429
#     4  10  20  37  60  94 130 158 213 276 338 401
#     4  10  23  41  63  94 128 175 226 277 349 424
#     4  12  24  42  70  98 131 184 230 290 347 424
#
# _framework density 22.484425000000002
#
# number of rings (size 3 to 8) (size 9 to 14) (size 15 to 20)
#    0.000    1.481    0.000    5.778    3.111    5.926 
#    0.000    2.963    0.000    0.889    0.000    0.000 
#    0.000    0.000    0.000    0.000    0.000    0.000 
#
# Total GULP energy -300630.869542 kJ/mol
# GULP energy per Si atom -5567.238325 kJ/mol
# Density = 2.243325 g / cm^3
# Si number density = 22.484425 Si / 1000 Ang^3
#
#
#
# Elastic Constant Matrix: (Units=GPa)
#
#
# Indices 1 2 3 4 5 6 
#
# 1 128.0143 41.4689 34.1230 0.0000 0.0000 0.0000
# 2 41.4689 128.0167 34.1109 0.0000 0.0000 0.0000
# 3 34.1230 34.1109 175.8767 0.0000 0.0000 0.0000
# 4 0.0000 0.0000 0.0000 127.5702 0.0000 0.0000
# 5 0.0000 0.0000 0.0000 0.0000 127.5845 0.0000
# 6 0.0000 0.0000 0.0000 0.0000 0.0000 7.2420
#
#
#
# Elastic Compliance Matrix: (Units=1/GPa)
#
#
# Indices 1 2 3 4 5 6 
#
# 1 0.008978 -0.002577 -0.001242 0.000000 0.000000 0.000000
# 2 -0.002577 0.008977 -0.001241 0.000000 0.000000 0.000000
# 3 -0.001242 -0.001241 0.006167 0.000000 0.000000 0.000000
# 4 0.000000 0.000000 0.000000 0.007839 0.000000 0.000000
# 5 0.000000 0.000000 0.000000 0.000000 0.007838 0.000000
# 6 0.000000 0.000000 0.000000 0.000000 0.000000 0.138083
#
#
# Mechanical properties :
#
#
# Convention : Reuss Voigt Hill
#
# Bulk Modulus (GPa) = 71.42040 72.36815 71.89427
# Shear Modulus (GPa) = 25.95118 73.95969 49.95543
#
# Velocity S-wave (km/s) = 3.40102 5.74153 4.71869
# Velocity P-wave (km/s) = 6.87429 8.72979 7.85701
#
# Compressibility (1/GPa) = 0.01400160
#
# Stress axis : x y z
#
# Youngs Moduli (GPa) = 111.38917 111.39573 162.14133
#
# Poissons Ratio (x) = 0.28709 0.20137
# Poissons Ratio (y) = 0.28707 0.20123
# Poissons Ratio (z) = 0.13834 0.13825
#
# Static dielectric constant tensor:
#      x y z
#    x 1.578590 0.000000 0.000000 
#    y 0.000000 1.577690 0.000000 
#    z 0.000000 0.000000 1.960110 
# 
# From -- ./inp_files/2086.got.cif
#   From: 2010.05.17/outbox.cif.g08.bks.cpg/sg98_2_cif.got.tgz:2086.got - 2010.06.03 20:00:51.
