data_PCOD9551880
_publ_section_title
;
Structure prediction by ZEFSAII (Michael W. Deem and Ramdas Pophale) SiO2 
 PCOD9551880
Probable space group: I 41 2 2
;
_chemical_formula_sum "Si O2"
_cell_formula_units_Z 72
_cell_length_a 22.220173
_cell_length_b 22.220173
_cell_length_c 8.452195
_cell_angle_alpha 90.000000
_cell_angle_beta 90.000000
_cell_angle_gamma 90.000000
_cell_volume 4173.153696
_symmetry_space_group_name_H-M "I 41 2 2"
_symmetry_group_IT_number 98
_symmetry_cell_setting 'tetragonal'
loop_
_space_group_symop_operation_xyz
x,y,z
-y,1/2+x,1/4+z
-x,-y,z
y,1/2-x,1/4+z
x,1/2-y,1/4-z
-x,1/2+y,1/4-z
y,x,-z
-y,-x,-z
1/2+x,1/2+y,1/2+z
1/2-y,x,3/4+z
1/2-x,1/2-y,1/2+z
1/2+y,-x,3/4+z
1/2+x,-y,3/4-z
1/2-x,y,3/4-z
1/2+y,1/2+x,1/2-z
1/2-y,1/2-x,1/2-z
loop_
_atom_site_type_symbol
_atom_site_label
_atom_site_fract_x
_atom_site_fract_y
_atom_site_fract_z
Si Si1 0.594204 0.779041 0.952199
Si Si2 0.899655 0.832482 0.259206
Si Si3 0.427283 0.927283 0.750000
Si Si4 0.507327 0.305799 0.519445
Si Si5 0.000000 0.000000 0.745733
Si Si6 0.572315 0.927686 0.250000
O O1 0.620694 0.732906 0.821251
O O2 0.525476 0.786562 0.892852
O O3 0.599284 0.750000 0.125000
O O4 0.627626 0.843068 0.957422
O O5 0.950396 0.829274 0.124996
O O6 0.929721 0.863616 0.413890
O O7 0.444691 0.857650 0.763078
O O8 0.467616 0.951077 0.604245
O O9 0.530726 0.250000 0.625000
O O10 0.972797 0.946863 0.638676
#
# Coordination Sequence:
#
# PCOD9551880 Si02
#       6
#    16  16   8  16   8   8
#     4  11  21  35  53  73 106 150 191 237 269 320
#     4  11  21  37  51  72 109 149 194 231 278 321
#     4  11  20  36  56  82 110 138 178 222 278 348
#     4  10  23  38  57  80 109 143 182 230 285 341
#     4  10  22  28  56  86 106 140 176 226 282 342
#     4  11  18  34  50  78 110 136 182 230 280 329
#
# _framework density 17.253139000000001
#
# number of rings (size 3 to 8) (size 9 to 14) (size 15 to 20)
#    0.000    1.333    4.444    2.000    3.111    0.000 
#    0.000   12.222    0.000    0.000    0.000    1.556 
#    0.000    0.000    0.000    0.000    0.000    0.000 
#
# Total GULP energy -200727.661352 kJ/mol
# GULP energy per Si atom -5575.768371 kJ/mol
# Density = 1.721387 g / cm^3
# Si number density = 17.253139 Si / 1000 Ang^3
#
#
#
# Elastic Constant Matrix: (Units=GPa)
#
#
# Indices 1 2 3 4 5 6 
#
# 1 57.5488 35.9455 10.8001 0.0000 0.0000 0.0000
# 2 35.9455 57.5486 10.8000 0.0000 0.0000 0.0000
# 3 10.8001 10.8000 60.0896 0.0000 0.0000 0.0000
# 4 0.0000 0.0000 0.0000 20.1737 0.0000 0.0000
# 5 0.0000 0.0000 0.0000 0.0000 20.1739 0.0000
# 6 0.0000 0.0000 0.0000 0.0000 0.0000 32.0204
#
#
#
# Elastic Compliance Matrix: (Units=1/GPa)
#
#
# Indices 1 2 3 4 5 6 
#
# 1 0.028724 -0.017565 -0.002006 0.000000 0.000000 0.000000
# 2 -0.017565 0.028724 -0.002006 0.000000 0.000000 0.000000
# 3 -0.002006 -0.002006 0.017363 0.000000 0.000000 0.000000
# 4 0.000000 0.000000 0.000000 0.049569 0.000000 0.000000
# 5 0.000000 0.000000 0.000000 0.000000 0.049569 0.000000
# 6 0.000000 0.000000 0.000000 0.000000 0.000000 0.031230
#
#
# Mechanical properties :
#
#
# Convention : Reuss Voigt Hill
#
# Bulk Modulus (GPa) = 31.58706 32.25313 31.92010
# Shear Modulus (GPa) = 19.31354 22.31636 20.81495
#
# Velocity S-wave (km/s) = 3.34941 3.60038 3.47716
# Velocity P-wave (km/s) = 5.77112 6.00153 5.88745
#
# Compressibility (1/GPa) = 0.03165853
#
# Stress axis : x y z
#
# Youngs Moduli (GPa) = 34.81377 34.81362 57.59449
#
# Poissons Ratio (x) = 0.61150 0.11552
# Poissons Ratio (y) = 0.61151 0.11551
# Poissons Ratio (z) = 0.06983 0.06982
#
# Static dielectric constant tensor:
#      x y z
#    x 1.603800 0.000000 0.000000 
#    y 0.000000 1.603800 0.000000 
#    z 0.000000 0.000000 1.640200 
# 
# From -- ./inp_files/3611.got.cif
#   From: 2010.05.17/outbox.cif.g08.bks.cpg/sg98_2_cif.got.tgz:3611.got - 2010.06.03 20:00:51.
