data_PCOD9551230
_publ_section_title
;
Structure prediction by ZEFSAII (Michael W. Deem and Ramdas Pophale) SiO2 
 PCOD9551230
Probable space group: I 4 2 2 
;
_chemical_formula_sum "Si O2"
_cell_formula_units_Z 112
_cell_length_a 16.200304
_cell_length_b 16.200304
_cell_length_c 25.504387
_cell_angle_alpha 90.000000
_cell_angle_beta 90.000000
_cell_angle_gamma 90.000000
_cell_volume 6693.622535
_symmetry_space_group_name_H-M "I 4 2 2 "
_symmetry_group_IT_number 97
_symmetry_cell_setting 'tetragonal'
loop_
_space_group_symop_operation_xyz
x,y,z
-y,x,z
-x,-y,z
y,-x,z
x,-y,-z
-x,y,-z
y,x,-z
-y,-x,-z
1/2+x,1/2+y,1/2+z
1/2-y,1/2+x,1/2+z
1/2-x,1/2-y,1/2+z
1/2+y,1/2-x,1/2+z
1/2+x,1/2-y,1/2-z
1/2-x,1/2+y,1/2-z
1/2+y,1/2+x,1/2-z
1/2-y,1/2-x,1/2-z
loop_
_atom_site_type_symbol
_atom_site_label
_atom_site_fract_x
_atom_site_fract_y
_atom_site_fract_z
Si Si1 0.087691 0.273652 0.484500
Si Si2 0.579453 0.042719 0.056938
Si Si3 0.680690 0.275950 0.917408
Si Si4 0.842669 0.826785 0.885897
Si Si5 0.488888 0.263597 0.563235
Si Si6 0.577442 0.615038 0.159988
Si Si7 0.911760 0.106318 0.217993
O O1 0.070879 0.360121 0.455201
O O2 0.145918 0.218259 0.448626
O O3 0.136572 0.282525 0.539427
O O4 0.000000 0.235001 0.500000
O O5 0.668645 0.025036 0.080877
O O6 0.500000 0.000000 0.083503
O O7 0.583687 0.000000 0.000000
O O8 0.755713 0.225049 0.893055
O O9 0.618358 0.315562 0.875898
O O10 0.812653 0.908900 0.916331
O O11 0.861345 0.844081 0.825079
O O12 0.928293 0.798507 0.911693
O O13 0.500000 0.267231 0.500000
O O14 0.478622 0.610392 0.150740
O O15 0.598271 0.630229 0.221226
O O16 0.010303 0.111485 0.209635
#
# Coordination Sequence:
#
# PCOD9551230 Si02
#       7
#    16  16  16  16  16  16  16
#     4  11  21  35  53  77 112 142 178 216 263 321
#     4  10  18  33  52  71 102 151 190 210 243 310
#     4  11  23  34  53  84 113 137 171 230 276 318
#     4  12  22  35  54  80 115 145 183 228 268 312
#     4  11  23  35  51  79 115 151 182 218 265 316
#     4   9  19  39  62  78 101 134 178 226 284 336
#     4   9  18  36  58  78 100 139 185 226 266 326
#
# _framework density 16.732346
#
# number of rings (size 3 to 8) (size 9 to 14) (size 15 to 20)
#    0.000    1.571    4.286    3.857    2.000    0.857 
#    0.000    0.714    0.000    3.429    0.000    0.000 
#    0.000    2.286    0.000    0.000    0.000    0.000 
#
# Total GULP energy -312256.325750 kJ/mol
# GULP energy per Si atom -5576.005817 kJ/mol
# Density = 1.669426 g / cm^3
# Si number density = 16.732346 Si / 1000 Ang^3
#
#
#
# Elastic Constant Matrix: (Units=GPa)
#
#
# Indices 1 2 3 4 5 6 
#
# 1 94.5603 42.5010 33.6918 0.0000 0.0000 0.0000
# 2 42.5010 94.5603 33.6918 0.0000 0.0000 0.0000
# 3 33.6918 33.6918 70.3978 0.0000 0.0000 0.0000
# 4 0.0000 0.0000 0.0000 17.0010 0.0000 0.0000
# 5 0.0000 0.0000 0.0000 0.0000 17.0010 0.0000
# 6 0.0000 0.0000 0.0000 0.0000 0.0000 24.3458
#
#
#
# Elastic Compliance Matrix: (Units=1/GPa)
#
#
# Indices 1 2 3 4 5 6 
#
# 1 0.014375 -0.004834 -0.004566 0.000000 0.000000 0.000000
# 2 -0.004834 0.014375 -0.004566 0.000000 0.000000 0.000000
# 3 -0.004566 -0.004566 0.018576 0.000000 0.000000 0.000000
# 4 0.000000 0.000000 0.000000 0.058820 0.000000 0.000000
# 5 0.000000 0.000000 0.000000 0.000000 0.058820 0.000000
# 6 0.000000 0.000000 0.000000 0.000000 0.000000 0.041075
#
#
# Mechanical properties :
#
#
# Convention : Reuss Voigt Hill
#
# Bulk Modulus (GPa) = 51.56585 53.25419 52.41002
# Shear Modulus (GPa) = 20.79542 21.64513 21.22027
#
# Velocity S-wave (km/s) = 3.52920 3.60058 3.56507
# Velocity P-wave (km/s) = 6.89144 7.01297 6.95247
#
# Compressibility (1/GPa) = 0.01939268
#
# Stress axis : x y z
#
# Youngs Moduli (GPa) = 69.56583 69.56583 53.83386
#
# Poissons Ratio (x) = 0.33628 0.24582
# Poissons Ratio (y) = 0.33628 0.24582
# Poissons Ratio (z) = 0.31765 0.31765
#
# Static dielectric constant tensor:
#      x y z
#    x 1.578690 0.000000 0.000000 
#    y 0.000000 1.578690 0.000000 
#    z 0.000000 0.000000 1.552930 
# 
# From -- ./inp_files/7258.got.cif
#   From: 2010.05.17/outbox.cif.g08.bks.cpg/sg97_4_cif.got.tgz:7258.got - 2010.06.03 19:55:32.
