data_PCOD9551797
_publ_section_title
;
Structure prediction by ZEFSAII (Michael W. Deem and Ramdas Pophale) SiO2 
 PCOD9551797
Probable space group: I 41 2 2
;
_chemical_formula_sum "Si O2"
_cell_formula_units_Z 96
_cell_length_a 23.851883
_cell_length_b 23.851883
_cell_length_c 8.082861
_cell_angle_alpha 90.000000
_cell_angle_beta 90.000000
_cell_angle_gamma 90.000000
_cell_volume 4598.439225
_symmetry_space_group_name_H-M "I 41 2 2"
_symmetry_group_IT_number 98
_symmetry_cell_setting 'tetragonal'
loop_
_space_group_symop_operation_xyz
x,y,z
-y,1/2+x,1/4+z
-x,-y,z
y,1/2-x,1/4+z
x,1/2-y,1/4-z
-x,1/2+y,1/4-z
y,x,-z
-y,-x,-z
1/2+x,1/2+y,1/2+z
1/2-y,x,3/4+z
1/2-x,1/2-y,1/2+z
1/2+y,-x,3/4+z
1/2+x,-y,3/4-z
1/2-x,y,3/4-z
1/2+y,1/2+x,1/2-z
1/2-y,1/2-x,1/2-z
loop_
_atom_site_type_symbol
_atom_site_label
_atom_site_fract_x
_atom_site_fract_y
_atom_site_fract_z
Si Si1 0.883285 0.637138 0.557481
Si Si2 0.176292 0.250000 0.625000
Si Si3 0.094925 0.594925 0.250000
Si Si4 0.586477 0.195411 0.513943
Si Si5 0.115590 0.884411 0.500000
Si Si6 0.794787 0.953722 0.730400
Si Si7 0.984255 0.750000 0.625000
Si Si8 0.864643 0.015117 0.254864
O O1 0.875555 0.624446 0.750000
O O2 0.859270 0.700390 0.533627
O O3 0.844325 0.589443 0.479245
O O4 0.948415 0.628842 0.518288
O O5 0.215724 0.284277 0.750000
O O6 0.142007 0.605338 0.383508
O O7 0.036003 0.608215 0.334753
O O8 0.599634 0.250000 0.625000
O O9 0.611472 0.176782 0.337632
O O10 0.519286 0.191533 0.497056
O O11 0.111677 0.941680 0.390708
O O12 0.776624 0.950890 0.533963
O O13 0.750000 0.942212 0.875000
O O14 0.020258 0.702536 0.531082
#
# Coordination Sequence:
#
# PCOD9551797 Si02
#       8
#    16   8   8  16   8  16   8  16
#     4  11  22  42  67  93 136 190 240 298 376 438
#     4  10  25  42  62  96 138 182 240 315 368 426
#     4  10  24  40  67 101 138 170 234 294 340 421
#     4  10  20  42  62  99 137 172 229 286 337 422
#     4  10  20  38  65 101 136 178 240 282 366 425
#     4  11  24  41  69 102 133 179 252 301 344 438
#     4  12  21  42  76  96 130 188 236 291 350 432
#     4  11  22  40  68  98 135 187 234 294 364 437
#
# _framework density 20.876649
#
# number of rings (size 3 to 8) (size 9 to 14) (size 15 to 20)
#    0.000    1.333    3.333    2.500    3.500    0.000 
#    0.000   12.083    3.667    1.000    0.000    0.000 
#    0.000    0.000    0.000    0.000    0.000    0.000 
#
# Total GULP energy -267204.981758 kJ/mol
# GULP energy per Si atom -5566.770453 kJ/mol
# Density = 2.082913 g / cm^3
# Si number density = 20.876649 Si / 1000 Ang^3
#
#
#
# Elastic Constant Matrix: (Units=GPa)
#
#
# Indices 1 2 3 4 5 6 
#
# 1 110.8828 59.4824 22.9827 0.0000 0.0000 0.0000
# 2 59.4824 110.8819 22.9815 0.0000 0.0000 0.0000
# 3 22.9827 22.9815 58.2358 0.0000 0.0000 0.0000
# 4 0.0000 0.0000 0.0000 28.9373 0.0000 0.0000
# 5 0.0000 0.0000 0.0000 0.0000 28.9367 0.0000
# 6 0.0000 0.0000 0.0000 0.0000 0.0000 -32.6815
#
#
#
# Elastic Compliance Matrix: (Units=1/GPa)
#
#
# Indices 1 2 3 4 5 6 
#
# 1 0.013012 -0.006443 -0.002593 0.000000 0.000000 0.000000
# 2 -0.006443 0.013012 -0.002592 0.000000 0.000000 0.000000
# 3 -0.002593 -0.002592 0.019218 0.000000 0.000000 0.000000
# 4 0.000000 0.000000 0.000000 0.034557 0.000000 0.000000
# 5 0.000000 0.000000 0.000000 0.000000 0.034558 0.000000
# 6 0.000000 0.000000 0.000000 0.000000 0.000000 -0.030598
#
#
# Mechanical properties :
#
#
# Convention : Reuss Voigt Hill
#
# Bulk Modulus (GPa) = 45.48287 54.54377 50.01332
# Shear Modulus (GPa) = 43.72762 16.67543 30.20152
#
# Velocity S-wave (km/s) = 4.58161 2.82930 3.80763
# Velocity P-wave (km/s) = 7.05847 6.07097 6.58326
#
# Compressibility (1/GPa) = 0.02198630
#
# Stress axis : x y z
#
# Youngs Moduli (GPa) = 76.85073 76.85075 52.03520
#
# Poissons Ratio (x) = 0.49515 0.13491
# Poissons Ratio (y) = 0.49515 0.13489
# Poissons Ratio (z) = 0.19925 0.19922
#
# Static dielectric constant tensor:
#      x y z
#    x 1.790330 0.000000 0.000000 
#    y 0.000000 1.790330 0.000000 
#    z 0.000000 0.000000 2.689200 
# 
# From -- ./inp_files/3797.got.cif
#   From: 2010.05.17/outbox.cif.g08.bks.cpg/sg98_2_cif.got.tgz:3797.got - 2010.06.03 20:00:51.
