data_PCOD9551077
_publ_section_title
;
Structure prediction by ZEFSAII (Michael W. Deem and Ramdas Pophale) SiO2 
 PCOD9551077
Probable space group: P 43 21 2
;
_chemical_formula_sum "Si O2"
_cell_formula_units_Z 32
_cell_length_a 8.710865
_cell_length_b 8.710865
_cell_length_c 19.266327
_cell_angle_alpha 90.000000
_cell_angle_beta 90.000000
_cell_angle_gamma 90.000000
_cell_volume 1461.912883
_symmetry_space_group_name_H-M "P 43 21 2"
_symmetry_group_IT_number 96
_symmetry_cell_setting 'tetragonal'
loop_
_space_group_symop_operation_xyz
x,y,z
1/2-y,1/2+x,3/4+z
-x,-y,1/2+z
1/2+y,1/2-x,1/4+z
1/2+x,1/2-y,1/4-z
1/2-x,1/2+y,3/4-z
y,x,-z
-y,-x,1/2-z
loop_
_atom_site_type_symbol
_atom_site_label
_atom_site_fract_x
_atom_site_fract_y
_atom_site_fract_z
Si Si1 0.975971 0.217789 0.695020
Si Si2 0.377332 0.740258 0.677404
Si Si3 0.295302 0.095085 0.670290
Si Si4 0.288817 0.219988 0.206517
O O1 0.874127 0.125874 0.750000
O O2 0.878215 0.301836 0.637106
O O3 0.110145 0.109697 0.663314
O O4 0.080101 0.332103 0.741984
O O5 0.301184 0.698817 0.750000
O O6 0.555904 0.701430 0.683072
O O7 0.298414 0.661004 0.611501
O O8 0.352324 0.921979 0.665690
O O9 0.319877 0.172879 0.746353
#
# Coordination Sequence:
#
# PCOD9551077 Si02
#       4
#     8   8   8   8
#     4  10  25  44  72 105 147 181 243 289 361 424
#     4  12  26  46  74 102 147 183 248 292 369 425
#     4  10  26  43  74 102 142 190 234 298 355 424
#     4  10  28  41  76 103 141 187 238 296 360 425
#
# _framework density 21.889129000000001
#
# number of rings (size 3 to 8) (size 9 to 14) (size 15 to 20)
#    1.500    0.000    0.000    2.250   17.500    0.000 
#    0.000    0.000    0.000    0.000    0.000    0.000 
#    0.000    0.000    0.000    0.000    0.000    0.000 
#
# Total GULP energy -178630.459682 kJ/mol
# GULP energy per Si atom -5582.201865 kJ/mol
# Density = 2.183931 g / cm^3
# Si number density = 21.889129 Si / 1000 Ang^3
#
#
#
# Elastic Constant Matrix: (Units=GPa)
#
#
# Indices 1 2 3 4 5 6 
#
# 1 62.0022 -21.0076 16.7652 0.0000 0.0000 0.0000
# 2 -21.0076 61.9998 16.7651 0.0000 0.0000 0.0000
# 3 16.7652 16.7651 139.5709 0.0000 0.0000 0.0000
# 4 0.0000 0.0000 0.0000 40.3763 0.0000 0.0000
# 5 0.0000 0.0000 0.0000 0.0000 40.3767 0.0000
# 6 0.0000 0.0000 0.0000 0.0000 0.0000 15.8101
#
#
#
# Elastic Compliance Matrix: (Units=1/GPa)
#
#
# Indices 1 2 3 4 5 6 
#
# 1 0.019549 0.007503 -0.003249 0.000000 0.000000 0.000000
# 2 0.007503 0.019550 -0.003250 0.000000 0.000000 0.000000
# 3 -0.003249 -0.003250 0.007945 0.000000 0.000000 0.000000
# 4 0.000000 0.000000 0.000000 0.024767 0.000000 0.000000
# 5 0.000000 0.000000 0.000000 0.000000 0.024767 0.000000
# 6 0.000000 0.000000 0.000000 0.000000 0.000000 0.063251
#
#
# Mechanical properties :
#
#
# Convention : Reuss Voigt Hill
#
# Bulk Modulus (GPa) = 20.38665 32.06870 26.22767
# Shear Modulus (GPa) = 28.70719 36.04930 32.37825
#
# Velocity S-wave (km/s) = 3.62537 4.06261 3.85020
# Velocity P-wave (km/s) = 5.18249 6.05712 5.63679
#
# Compressibility (1/GPa) = 0.04905171
#
# Stress axis : x y z
#
# Youngs Moduli (GPa) = 51.15318 51.15116 125.85786
#
# Poissons Ratio (x) = -0.38377 0.40897
# Poissons Ratio (y) = -0.38378 0.40898
# Poissons Ratio (z) = 0.16622 0.16622
#
# Static dielectric constant tensor:
#      x y z
#    x 1.799980 0.000000 0.000000 
#    y 0.000000 1.799980 0.000000 
#    z 0.000000 0.000000 1.795330 
# 
# From -- ./inp_files/3360.got.cif
#   From: 2010.05.17/outbox.cif.g08.bks.cpg/sg96_2_cif.got.tgz:3360.got - 2010.06.03 19:52:08.
