data_PCOD9551153
_publ_section_title
;
Structure prediction by ZEFSAII (Michael W. Deem and Ramdas Pophale) SiO2 
 PCOD9551153
Probable space group: P 43 21 2
;
_chemical_formula_sum "Si O2"
_cell_formula_units_Z 40
_cell_length_a 8.360571
_cell_length_b 8.360571
_cell_length_c 23.486423
_cell_angle_alpha 90.000000
_cell_angle_beta 90.000000
_cell_angle_gamma 90.000000
_cell_volume 1641.680944
_symmetry_space_group_name_H-M "P 43 21 2"
_symmetry_group_IT_number 96
_symmetry_cell_setting 'tetragonal'
loop_
_space_group_symop_operation_xyz
x,y,z
1/2-y,1/2+x,3/4+z
-x,-y,1/2+z
1/2+y,1/2-x,1/4+z
1/2+x,1/2-y,1/4-z
1/2-x,1/2+y,3/4-z
y,x,-z
-y,-x,1/2-z
loop_
_atom_site_type_symbol
_atom_site_label
_atom_site_fract_x
_atom_site_fract_y
_atom_site_fract_z
Si Si1 0.969451 0.759968 0.664263
Si Si2 0.551161 0.336289 0.877871
Si Si3 0.664290 0.016299 0.010871
Si Si4 0.539124 0.142413 0.411858
Si Si5 0.335703 0.334744 0.327566
O O1 0.968208 0.641496 0.717390
O O2 0.800749 0.852657 0.671341
O O3 0.994620 0.650427 0.607671
O O4 0.112039 0.885470 0.656401
O O5 0.554804 0.234696 0.819424
O O6 0.630978 0.508147 0.864704
O O7 0.657675 0.231784 0.918603
O O8 0.826327 0.100215 0.986076
O O9 0.579436 0.900509 0.964307
O O10 0.441569 0.196803 0.355232
#
# Coordination Sequence:
#
# PCOD9551153 Si02
#       5
#     8   8   8   8   8
#     4  11  26  48  76 112 156 191 257 321 379 460
#     4  11  25  49  73 112 155 193 260 312 383 459
#     4  12  25  46  79 107 148 209 247 315 395 451
#     4  11  26  48  76 110 151 201 256 317 387 463
#     4  11  25  45  75 109 150 200 252 323 371 464
#
# _framework density 24.365268
#
# number of rings (size 3 to 8) (size 9 to 14) (size 15 to 20)
#    0.000    0.800    4.000    1.800    2.800    0.800 
#    0.000    4.000    0.000    0.000    0.000    0.000 
#    0.000    0.000    0.000    0.000    0.000    0.000 
#
# Total GULP energy -223097.328620 kJ/mol
# GULP energy per Si atom -5577.433216 kJ/mol
# Density = 2.430981 g / cm^3
# Si number density = 24.365268 Si / 1000 Ang^3
#
#
#
# Elastic Constant Matrix: (Units=GPa)
#
#
# Indices 1 2 3 4 5 6 
#
# 1 106.1883 44.6739 32.3950 0.0000 0.0000 0.0000
# 2 44.6739 106.1883 32.3950 0.0000 0.0000 0.0000
# 3 32.3950 32.3950 69.1024 0.0000 0.0000 0.0000
# 4 0.0000 0.0000 0.0000 28.1236 0.0000 0.0000
# 5 0.0000 0.0000 0.0000 0.0000 28.1236 0.0000
# 6 0.0000 0.0000 0.0000 0.0000 0.0000 36.1989
#
#
#
# Elastic Compliance Matrix: (Units=1/GPa)
#
#
# Indices 1 2 3 4 5 6 
#
# 1 0.012278 -0.003978 -0.003891 0.000000 0.000000 0.000000
# 2 -0.003978 0.012278 -0.003891 0.000000 0.000000 0.000000
# 3 -0.003891 -0.003891 0.018119 0.000000 0.000000 0.000000
# 4 0.000000 0.000000 0.000000 0.035557 0.000000 0.000000
# 5 0.000000 0.000000 0.000000 0.000000 0.035557 0.000000
# 6 0.000000 0.000000 0.000000 0.000000 0.000000 0.027625
#
#
# Mechanical properties :
#
#
# Convention : Reuss Voigt Hill
#
# Bulk Modulus (GPa) = 52.20535 55.60079 53.90307
# Shear Modulus (GPa) = 29.18515 29.95689 29.57102
#
# Velocity S-wave (km/s) = 3.46471 3.51021 3.48753
# Velocity P-wave (km/s) = 6.12195 6.26881 6.19582
#
# Compressibility (1/GPa) = 0.01915513
#
# Stress axis : x y z
#
# Youngs Moduli (GPa) = 81.44689 81.44689 55.18989
#
# Poissons Ratio (x) = 0.32403 0.21473
# Poissons Ratio (y) = 0.32403 0.21473
# Poissons Ratio (z) = 0.31689 0.31689
#
# Static dielectric constant tensor:
#      x y z
#    x 2.028780 0.000000 0.000000 
#    y 0.000000 2.028780 0.000000 
#    z 0.000000 0.000000 1.906400 
# 
# From -- ./inp_files/3825.got.cif
#   From: 2010.05.17/outbox.cif.g08.bks.cpg/sg96_2_cif.got.tgz:3825.got - 2010.06.03 19:52:08.
