data_PCOD9551783
_publ_section_title
;
Structure prediction by ZEFSAII (Michael W. Deem and Ramdas Pophale) SiO2 
 PCOD9551783
Probable space group: I 41 2 2
;
_chemical_formula_sum "Si O2"
_cell_formula_units_Z 112
_cell_length_a 14.513267
_cell_length_b 14.513267
_cell_length_c 27.432933
_cell_angle_alpha 90.000000
_cell_angle_beta 90.000000
_cell_angle_gamma 90.000000
_cell_volume 5778.333621
_symmetry_space_group_name_H-M "I 41 2 2"
_symmetry_group_IT_number 98
_symmetry_cell_setting 'tetragonal'
loop_
_space_group_symop_operation_xyz
x,y,z
-y,1/2+x,1/4+z
-x,-y,z
y,1/2-x,1/4+z
x,1/2-y,1/4-z
-x,1/2+y,1/4-z
y,x,-z
-y,-x,-z
1/2+x,1/2+y,1/2+z
1/2-y,x,3/4+z
1/2-x,1/2-y,1/2+z
1/2+y,-x,3/4+z
1/2+x,-y,3/4-z
1/2-x,y,3/4-z
1/2+y,1/2+x,1/2-z
1/2-y,1/2-x,1/2-z
loop_
_atom_site_type_symbol
_atom_site_label
_atom_site_fract_x
_atom_site_fract_y
_atom_site_fract_z
Si Si1 0.869663 0.282573 0.991640
Si Si2 0.971728 0.859856 0.840310
Si Si3 0.734997 0.473549 0.755579
Si Si4 0.018613 0.807634 0.357107
Si Si5 0.428009 0.337704 0.148948
Si Si6 0.027597 0.664871 0.086839
Si Si7 0.592003 0.441472 0.934045
O O1 0.803294 0.370309 0.997980
O O2 0.912416 0.294896 0.937888
O O3 0.809590 0.190410 0.000000
O O4 0.946413 0.294554 0.033748
O O5 0.972198 0.797932 0.791752
O O6 0.970000 0.789608 0.884432
O O7 0.073416 0.907730 0.843874
O O8 0.886118 0.929089 0.839197
O O9 0.688387 0.528242 0.799883
O O10 0.841261 0.460349 0.770079
O O11 0.067907 0.844113 0.407352
O O12 0.935213 0.877283 0.346660
O O13 0.374516 0.250000 0.125000
O O14 0.509352 0.354405 0.110518
O O15 0.037960 0.750000 0.125000
O O16 0.500000 0.500000 0.941247
#
# Coordination Sequence:
#
# PCOD9551783 Si02
#       7
#    16  16  16  16  16  16  16
#     4  11  23  36  63  94 120 158 204 257 309 375
#     4  10  23  38  62  90 119 161 202 263 313 380
#     4  10  20  37  58  87 126 165 208 246 309 366
#     4  11  21  36  59  89 126 158 209 249 309 368
#     4   9  18  36  57  84 119 169 208 243 292 370
#     4  10  22  44  64  87 121 156 204 264 331 367
#     4   9  19  34  56  84 126 173 199 247 295 361
#
# _framework density 19.382752
#
# number of rings (size 3 to 8) (size 9 to 14) (size 15 to 20)
#    0.000    2.000    1.429    1.714    4.000    1.714 
#    0.000    9.286    0.000    9.429    0.000    0.000 
#    0.000    0.000    0.000    0.000    0.000    0.000 
#
# Total GULP energy -312055.450729 kJ/mol
# GULP energy per Si atom -5572.418763 kJ/mol
# Density = 1.933864 g / cm^3
# Si number density = 19.382752 Si / 1000 Ang^3
#
#
#
# Elastic Constant Matrix: (Units=GPa)
#
#
# Indices 1 2 3 4 5 6 
#
# 1 78.6464 20.8260 21.0565 0.0000 0.0000 0.0000
# 2 20.8260 78.6467 21.0564 0.0000 0.0000 0.0000
# 3 21.0565 21.0564 59.8312 0.0000 0.0000 0.0000
# 4 0.0000 0.0000 0.0000 25.6732 0.0000 0.0000
# 5 0.0000 0.0000 0.0000 0.0000 25.6731 0.0000
# 6 0.0000 0.0000 0.0000 0.0000 0.0000 19.8317
#
#
#
# Elastic Compliance Matrix: (Units=1/GPa)
#
#
# Indices 1 2 3 4 5 6 
#
# 1 0.014554 -0.002741 -0.004157 0.000000 0.000000 0.000000
# 2 -0.002741 0.014554 -0.004157 0.000000 0.000000 0.000000
# 3 -0.004157 -0.004157 0.019640 0.000000 0.000000 0.000000
# 4 0.000000 0.000000 0.000000 0.038951 0.000000 0.000000
# 5 0.000000 0.000000 0.000000 0.000000 0.038951 0.000000
# 6 0.000000 0.000000 0.000000 0.000000 0.000000 0.050424
#
#
# Mechanical properties :
#
#
# Convention : Reuss Voigt Hill
#
# Bulk Modulus (GPa) = 37.54242 38.11135 37.82689
# Shear Modulus (GPa) = 24.03098 24.51464 24.27281
#
# Velocity S-wave (km/s) = 3.52492 3.56021 3.54261
# Velocity P-wave (km/s) = 5.99815 6.05024 6.02425
#
# Compressibility (1/GPa) = 0.02663654
#
# Stress axis : x y z
#
# Youngs Moduli (GPa) = 68.70947 68.70976 50.91672
#
# Poissons Ratio (x) = 0.18833 0.21168
# Poissons Ratio (y) = 0.18833 0.21168
# Poissons Ratio (z) = 0.28565 0.28565
#
# Static dielectric constant tensor:
#      x y z
#    x 1.705640 0.000000 0.000000 
#    y 0.000000 1.705630 0.000000 
#    z 0.000000 0.000000 1.703530 
# 
# From -- ./inp_files/10976.got.cif
#   From: 2010.05.17/outbox.cif.g08.bks.cpg/sg98_6_cif.got.tgz:10976.got - 2010.06.03 20:00:51.
