data_PCOD9551149
_publ_section_title
;
Structure prediction by ZEFSAII (Michael W. Deem and Ramdas Pophale) SiO2 
 PCOD9551149
Probable space group: P 43 21 2
;
_chemical_formula_sum "Si O2"
_cell_formula_units_Z 44
_cell_length_a 7.397768
_cell_length_b 7.397768
_cell_length_c 31.179466
_cell_angle_alpha 90.000000
_cell_angle_beta 90.000000
_cell_angle_gamma 90.000000
_cell_volume 1706.357743
_symmetry_space_group_name_H-M "P 43 21 2"
_symmetry_group_IT_number 96
_symmetry_cell_setting 'tetragonal'
loop_
_space_group_symop_operation_xyz
x,y,z
1/2-y,1/2+x,3/4+z
-x,-y,1/2+z
1/2+y,1/2-x,1/4+z
1/2+x,1/2-y,1/4-z
1/2-x,1/2+y,3/4-z
y,x,-z
-y,-x,1/2-z
loop_
_atom_site_type_symbol
_atom_site_label
_atom_site_fract_x
_atom_site_fract_y
_atom_site_fract_z
Si Si1 0.197850 0.234357 0.683164
Si Si2 0.313464 0.575086 0.921478
Si Si3 0.186225 0.813775 0.750000
Si Si4 0.100844 0.690591 0.523644
Si Si5 0.356682 0.100499 0.603316
Si Si6 0.504047 0.500891 0.167062
O O1 0.195377 0.257362 0.734158
O O2 0.322015 0.100559 0.654680
O O3 0.298499 0.420897 0.670749
O O4 0.997023 0.254535 0.664567
O O5 0.362625 0.426890 0.957466
O O6 0.385637 0.771327 0.937907
O O7 0.382925 0.507583 0.875788
O O8 0.097172 0.595755 0.914676
O O9 0.132660 0.601020 0.758728
O O10 0.046664 0.885291 0.541915
O O11 0.156780 0.144870 0.585852
#
# Coordination Sequence:
#
# PCOD9551149 Si02
#       6
#     8   8   4   8   8   8
#     4  12  23  47  71 104 148 189 239 313 368 447
#     4  11  28  44  74 110 137 202 248 301 384 453
#     4  12  24  48  76 100 162 188 246 324 368 462
#     4  11  25  43  72 104 143 190 249 301 375 441
#     4  11  25  42  71 103 140 189 246 292 378 440
#     4  11  25  46  69 104 145 194 246 296 373 459
#
# _framework density 25.785919
#
# number of rings (size 3 to 8) (size 9 to 14) (size 15 to 20)
#    0.000    0.727    5.455    0.000   12.727    0.000 
#    0.000    0.000    0.000    0.000    0.000    0.000 
#    0.000    0.000    0.000    0.000    0.000    0.000 
#
# Total GULP energy -245702.094285 kJ/mol
# GULP energy per Si atom -5584.138506 kJ/mol
# Density = 2.572723 g / cm^3
# Si number density = 25.785919 Si / 1000 Ang^3
#
#
#
# Elastic Constant Matrix: (Units=GPa)
#
#
# Indices 1 2 3 4 5 6 
#
# 1 81.8786 12.2417 34.8641 0.0000 0.0000 0.0000
# 2 12.2417 81.8781 34.8641 0.0000 0.0000 0.0000
# 3 34.8641 34.8641 128.1400 0.0000 0.0000 0.0000
# 4 0.0000 0.0000 0.0000 32.3274 0.0000 0.0000
# 5 0.0000 0.0000 0.0000 0.0000 32.3274 0.0000
# 6 0.0000 0.0000 0.0000 0.0000 0.0000 37.4632
#
#
#
# Elastic Compliance Matrix: (Units=1/GPa)
#
#
# Indices 1 2 3 4 5 6 
#
# 1 0.013834 -0.000527 -0.003621 0.000000 0.000000 0.000000
# 2 -0.000527 0.013834 -0.003621 0.000000 0.000000 0.000000
# 3 -0.003621 -0.003621 0.009774 0.000000 0.000000 0.000000
# 4 0.000000 0.000000 0.000000 0.030934 0.000000 0.000000
# 5 0.000000 0.000000 0.000000 0.000000 0.030934 0.000000
# 6 0.000000 0.000000 0.000000 0.000000 0.000000 0.026693
#
#
# Mechanical properties :
#
#
# Convention : Reuss Voigt Hill
#
# Bulk Modulus (GPa) = 45.64978 50.64849 48.14913
# Shear Modulus (GPa) = 33.59343 34.41872 34.00607
#
# Velocity S-wave (km/s) = 3.61332 3.65744 3.63545
# Velocity P-wave (km/s) = 5.92874 6.12539 6.02786
#
# Compressibility (1/GPa) = 0.02190591
#
# Stress axis : x y z
#
# Youngs Moduli (GPa) = 72.28791 72.28737 102.31119
#
# Poissons Ratio (x) = 0.03807 0.37042
# Poissons Ratio (y) = 0.03807 0.37042
# Poissons Ratio (z) = 0.26172 0.26172
#
# Static dielectric constant tensor:
#      x y z
#    x 2.095420 0.000000 0.000000 
#    y 0.000000 2.095420 0.000000 
#    z 0.000000 0.000000 2.074690 
# 
# From -- ./inp_files/4364.got.cif
#   From: 2010.05.17/outbox.cif.g08.bks.cpg/sg96_3_cif.got.tgz:4364.got - 2010.06.03 19:52:08.
