data_PCOD9551802
_publ_section_title
;
Structure prediction by ZEFSAII (Michael W. Deem and Ramdas Pophale) SiO2 
 PCOD9551802
Probable space group: I 41 2 2
;
_chemical_formula_sum "Si O2"
_cell_formula_units_Z 88
_cell_length_a 15.888492
_cell_length_b 15.888492
_cell_length_c 15.683736
_cell_angle_alpha 90.000000
_cell_angle_beta 90.000000
_cell_angle_gamma 90.000000
_cell_volume 3959.267843
_symmetry_space_group_name_H-M "I 41 2 2"
_symmetry_group_IT_number 98
_symmetry_cell_setting 'tetragonal'
loop_
_space_group_symop_operation_xyz
x,y,z
-y,1/2+x,1/4+z
-x,-y,z
y,1/2-x,1/4+z
x,1/2-y,1/4-z
-x,1/2+y,1/4-z
y,x,-z
-y,-x,-z
1/2+x,1/2+y,1/2+z
1/2-y,x,3/4+z
1/2-x,1/2-y,1/2+z
1/2+y,-x,3/4+z
1/2+x,-y,3/4-z
1/2-x,y,3/4-z
1/2+y,1/2+x,1/2-z
1/2-y,1/2-x,1/2-z
loop_
_atom_site_type_symbol
_atom_site_label
_atom_site_fract_x
_atom_site_fract_y
_atom_site_fract_z
Si Si1 0.831084 0.613115 0.048675
Si Si2 0.775652 0.105695 0.661905
Si Si3 0.854049 0.854049 0.500000
Si Si4 0.286286 0.786286 0.250000
Si Si5 0.485147 0.353113 0.471364
Si Si6 0.064660 0.250000 0.125000
Si Si7 0.040667 0.086621 0.338034
O O1 0.822594 0.576654 0.144299
O O2 0.873750 0.703036 0.060716
O O3 0.744750 0.624626 0.999204
O O4 0.901292 0.565242 0.993831
O O5 0.790730 0.136551 0.565654
O O6 0.791540 0.192116 0.712016
O O7 0.680324 0.072345 0.679572
O O8 0.841779 0.030064 0.681277
O O9 0.899716 0.883781 0.414418
O O10 0.441248 0.441248 0.500000
O O11 0.488418 0.308309 0.563436
O O12 0.000000 0.000000 0.366248
#
# Coordination Sequence:
#
# PCOD9551802 Si02
#       7
#    16  16   8   8  16   8  16
#     4  11  23  40  66 108 141 187 230 296 380 453
#     4  11  24  52  71 108 141 191 258 313 368 457
#     4  12  25  42  72 106 144 191 250 300 382 458
#     4  10  28  48  84  96 140 208 256 310 366 438
#     4  10  22  41  70 105 145 184 231 305 385 446
#     4  10  20  38  68 106 146 184 222 298 372 462
#     4  12  28  44  69 104 148 195 245 314 368 447
#
# _framework density 22.226330999999998
#
# number of rings (size 3 to 8) (size 9 to 14) (size 15 to 20)
#    0.000    1.091    3.636    0.818   11.455    1.455 
#    3.273    0.455    0.000    1.091    0.000    0.000 
#    0.000    0.000    0.000    0.000    0.000    0.000 
#
# Total GULP energy -245187.642485 kJ/mol
# GULP energy per Si atom -5572.446420 kJ/mol
# Density = 2.217574 g / cm^3
# Si number density = 22.226331 Si / 1000 Ang^3
#
#
#
# Elastic Constant Matrix: (Units=GPa)
#
#
# Indices 1 2 3 4 5 6 
#
# 1 95.0796 34.5831 34.6287 0.0000 0.0000 0.0000
# 2 34.5831 95.0796 34.6287 0.0000 0.0000 0.0000
# 3 34.6287 34.6287 98.2818 0.0000 0.0000 0.0000
# 4 0.0000 0.0000 0.0000 3.0417 0.0000 0.0000
# 5 0.0000 0.0000 0.0000 0.0000 3.0417 0.0000
# 6 0.0000 0.0000 0.0000 0.0000 0.0000 20.5552
#
#
#
# Elastic Compliance Matrix: (Units=1/GPa)
#
#
# Indices 1 2 3 4 5 6 
#
# 1 0.013015 -0.003515 -0.003347 0.000000 0.000000 0.000000
# 2 -0.003515 0.013015 -0.003347 0.000000 0.000000 0.000000
# 3 -0.003347 -0.003347 0.012534 0.000000 0.000000 0.000000
# 4 0.000000 0.000000 0.000000 0.328767 0.000000 0.000000
# 5 0.000000 0.000000 0.000000 0.000000 0.328767 0.000000
# 6 0.000000 0.000000 0.000000 0.000000 0.000000 0.048650
#
#
# Mechanical properties :
#
#
# Convention : Reuss Voigt Hill
#
# Bulk Modulus (GPa) = 55.11221 55.12469 55.11845
# Shear Modulus (GPa) = 6.48328 17.63440 12.05884
#
# Velocity S-wave (km/s) = 1.70976 2.81979 2.33179
# Velocity P-wave (km/s) = 5.36166 5.95458 5.66588
#
# Compressibility (1/GPa) = 0.01814480
#
# Stress axis : x y z
#
# Youngs Moduli (GPa) = 76.83409 76.83409 79.78541
#
# Poissons Ratio (x) = 0.27006 0.26707
# Poissons Ratio (y) = 0.27006 0.26707
# Poissons Ratio (z) = 0.25719 0.25719
#
# Static dielectric constant tensor:
#      x y z
#    x 1.852330 0.000000 0.000000 
#    y 0.000000 1.852330 0.000000 
#    z 0.000000 0.000000 1.587780 
# 
# From -- ./inp_files/6578.got.cif
#   From: 2010.05.17/outbox.cif.g08.bks.cpg/sg98_4_cif.got.tgz:6578.got - 2010.06.03 20:00:51.
