data_PCOD9551525
_publ_section_title
;
Structure prediction by ZEFSAII (Michael W. Deem and Ramdas Pophale) SiO2 
 PCOD9551525
Probable space group: I 4 2 2 
;
_chemical_formula_sum "Si O2"
_cell_formula_units_Z 112
_cell_length_a 14.751941
_cell_length_b 14.751941
_cell_length_c 26.210667
_cell_angle_alpha 90.000000
_cell_angle_beta 90.000000
_cell_angle_gamma 90.000000
_cell_volume 5703.959148
_symmetry_space_group_name_H-M "I 4 2 2 "
_symmetry_group_IT_number 97
_symmetry_cell_setting 'tetragonal'
loop_
_space_group_symop_operation_xyz
x,y,z
-y,x,z
-x,-y,z
y,-x,z
x,-y,-z
-x,y,-z
y,x,-z
-y,-x,-z
1/2+x,1/2+y,1/2+z
1/2-y,1/2+x,1/2+z
1/2-x,1/2-y,1/2+z
1/2+y,1/2-x,1/2+z
1/2+x,1/2-y,1/2-z
1/2-x,1/2+y,1/2-z
1/2+y,1/2+x,1/2-z
1/2-y,1/2-x,1/2-z
loop_
_atom_site_type_symbol
_atom_site_label
_atom_site_fract_x
_atom_site_fract_y
_atom_site_fract_z
Si Si1 0.335326 0.318099 0.634331
Si Si2 0.917621 0.429933 0.691455
Si Si3 0.086447 0.125708 0.242345
Si Si4 0.002842 0.265488 0.374719
Si Si5 0.180082 0.170628 0.654656
Si Si6 0.553777 0.080949 0.946491
Si Si7 0.994487 0.278288 0.106999
O O1 0.384573 0.335673 0.688062
O O2 0.255315 0.246152 0.643734
O O3 0.290956 0.412990 0.617980
O O4 0.411666 0.275172 0.597214
O O5 0.899254 0.399254 0.750000
O O6 0.952648 0.342362 0.661069
O O7 0.839257 0.479493 0.657561
O O8 0.000000 0.500000 0.695183
O O9 0.129997 0.181531 0.288432
O O10 0.977955 0.121355 0.246101
O O11 0.086222 0.197565 0.383308
O O12 0.918517 0.213659 0.351148
O O13 0.961500 0.322807 0.420929
O O14 0.655471 0.044046 0.937670
O O15 0.500000 0.000000 0.918161
O O16 0.500000 0.087203 0.000000
#
# Coordination Sequence:
#
# PCOD9551525 Si02
#       7
#    16  16  16  16  16  16  16
#     4  12  24  38  64  92 144 182 242 284 338 414
#     4  11  22  37  58  87 132 176 223 277 323 389
#     4  11  23  38  54  87 136 203 242 268 333 410
#     4  12  23  42  62  98 128 176 229 282 338 415
#     4  12  24  38  63  88 139 180 241 286 336 405
#     4  11  22  45  76  96 123 165 227 302 368 413
#     4  12  23  42  64 101 136 184 230 285 349 418
#
# _framework density 19.635484999999999
#
# number of rings (size 3 to 8) (size 9 to 14) (size 15 to 20)
#    0.000    0.429    8.571    0.429    4.000    0.571 
#    0.000    0.714    3.143    0.000    0.000    1.000 
#    0.000    5.143    0.000    0.000    0.000    0.000 
#
# Total GULP energy -312394.444544 kJ/mol
# GULP energy per Si atom -5578.472224 kJ/mol
# Density = 1.959079 g / cm^3
# Si number density = 19.635485 Si / 1000 Ang^3
#
#
#
# Elastic Constant Matrix: (Units=GPa)
#
#
# Indices 1 2 3 4 5 6 
#
# 1 105.3636 50.3536 24.9008 0.0000 0.0000 0.0000
# 2 50.3536 105.3636 24.9008 0.0000 0.0000 0.0000
# 3 24.9008 24.9008 68.1724 0.0000 0.0000 0.0000
# 4 0.0000 0.0000 0.0000 16.5366 0.0000 0.0000
# 5 0.0000 0.0000 0.0000 0.0000 16.5366 0.0000
# 6 0.0000 0.0000 0.0000 0.0000 0.0000 45.8640
#
#
#
# Elastic Compliance Matrix: (Units=1/GPa)
#
#
# Indices 1 2 3 4 5 6 
#
# 1 0.012725 -0.005454 -0.002656 0.000000 0.000000 0.000000
# 2 -0.005454 0.012725 -0.002656 0.000000 0.000000 0.000000
# 3 -0.002656 -0.002656 0.016609 0.000000 0.000000 0.000000
# 4 0.000000 0.000000 0.000000 0.060472 0.000000 0.000000
# 5 0.000000 0.000000 0.000000 0.000000 0.060472 0.000000
# 6 0.000000 0.000000 0.000000 0.000000 0.000000 0.021804
#
#
# Mechanical properties :
#
#
# Convention : Reuss Voigt Hill
#
# Bulk Modulus (GPa) = 48.71440 53.24556 50.97998
# Shear Modulus (GPa) = 23.45441 27.70375 25.57908
#
# Velocity S-wave (km/s) = 3.45989 3.76027 3.61320
# Velocity P-wave (km/s) = 6.38939 6.78445 6.58988
#
# Compressibility (1/GPa) = 0.02052781
#
# Stress axis : x y z
#
# Youngs Moduli (GPa) = 78.58599 78.58599 60.20860
#
# Poissons Ratio (x) = 0.42858 0.15991
# Poissons Ratio (y) = 0.42858 0.15991
# Poissons Ratio (z) = 0.20872 0.20872
#
# Static dielectric constant tensor:
#      x y z
#    x 1.733730 0.000000 0.000000 
#    y 0.000000 1.733730 0.000000 
#    z 0.000000 0.000000 1.754420 
# 
# From -- ./inp_files/7692.got.cif
#   From: 2010.05.17/outbox.cif.g08.bks.cpg/sg97_4_cif.got.tgz:7692.got - 2010.06.03 19:55:32.
