data_PCOD9551646
_publ_section_title
;
Structure prediction by ZEFSAII (Michael W. Deem and Ramdas Pophale) SiO2 
 PCOD9551646
Probable space group: I 41 2 2
;
_chemical_formula_sum "Si O2"
_cell_formula_units_Z 72
_cell_length_a 10.895775
_cell_length_b 10.895775
_cell_length_c 33.518131
_cell_angle_alpha 90.000000
_cell_angle_beta 90.000000
_cell_angle_gamma 90.000000
_cell_volume 3979.202555
_symmetry_space_group_name_H-M "I 41 2 2"
_symmetry_group_IT_number 98
_symmetry_cell_setting 'tetragonal'
loop_
_space_group_symop_operation_xyz
x,y,z
-y,1/2+x,1/4+z
-x,-y,z
y,1/2-x,1/4+z
x,1/2-y,1/4-z
-x,1/2+y,1/4-z
y,x,-z
-y,-x,-z
1/2+x,1/2+y,1/2+z
1/2-y,x,3/4+z
1/2-x,1/2-y,1/2+z
1/2+y,-x,3/4+z
1/2+x,-y,3/4-z
1/2-x,y,3/4-z
1/2+y,1/2+x,1/2-z
1/2-y,1/2-x,1/2-z
loop_
_atom_site_type_symbol
_atom_site_label
_atom_site_fract_x
_atom_site_fract_y
_atom_site_fract_z
Si Si1 0.753756 0.362950 0.287647
Si Si2 0.123458 0.703848 0.898604
Si Si3 0.376742 0.185441 0.515547
Si Si4 0.500042 0.859717 0.915164
Si Si5 0.500000 0.500000 0.203533
O O1 0.775808 0.275808 0.250000
O O2 0.842910 0.316590 0.322198
O O3 0.767766 0.502554 0.273642
O O4 0.617313 0.353627 0.305382
O O5 0.250000 0.673966 0.875000
O O6 0.023059 0.756591 0.867859
O O7 0.076774 0.591551 0.925284
O O8 0.266344 0.266344 0.500000
O O9 0.417510 0.083958 0.482877
O O10 0.344797 0.118039 0.556993
O O11 0.500000 0.000000 0.898840
#
# Coordination Sequence:
#
# PCOD9551646 Si02
#       5
#    16  16  16  16   8
#     4  10  17  37  61  84 113 156 207 245 300 366
#     4  10  22  36  62  87 118 165 203 250 309 355
#     4  11  22  37  63  90 122 161 201 251 309 368
#     4   9  19  38  58  83 122 160 196 253 307 353
#     4  12  22  42  58  88 129 158 201 262 298 368
#
# _framework density 18.094079000000001
#
# number of rings (size 3 to 8) (size 9 to 14) (size 15 to 20)
#    0.000    1.778    5.556    0.000    0.000    4.000 
#    0.000    2.222    0.000    5.333    0.000    0.000 
#    0.000    0.000    0.000    0.000    0.000    0.000 
#
# Total GULP energy -200803.072379 kJ/mol
# GULP energy per Si atom -5577.863122 kJ/mol
# Density = 1.805290 g / cm^3
# Si number density = 18.094079 Si / 1000 Ang^3
#
#
#
# Elastic Constant Matrix: (Units=GPa)
#
#
# Indices 1 2 3 4 5 6 
#
# 1 76.2174 63.7251 45.0747 0.0000 0.0000 0.0000
# 2 63.7251 76.2174 45.0747 0.0000 0.0000 0.0000
# 3 45.0747 45.0747 92.7117 0.0000 0.0000 0.0000
# 4 0.0000 0.0000 0.0000 20.8275 0.0000 0.0000
# 5 0.0000 0.0000 0.0000 0.0000 20.8275 0.0000
# 6 0.0000 0.0000 0.0000 0.0000 0.0000 31.6379
#
#
#
# Elastic Compliance Matrix: (Units=1/GPa)
#
#
# Indices 1 2 3 4 5 6 
#
# 1 0.045227 -0.034822 -0.005058 0.000000 0.000000 0.000000
# 2 -0.034822 0.045227 -0.005058 0.000000 0.000000 0.000000
# 3 -0.005058 -0.005058 0.015705 0.000000 0.000000 0.000000
# 4 0.000000 0.000000 0.000000 0.048014 0.000000 0.000000
# 5 0.000000 0.000000 0.000000 0.000000 0.048014 0.000000
# 6 0.000000 0.000000 0.000000 0.000000 0.000000 0.031608
#
#
# Mechanical properties :
#
#
# Convention : Reuss Voigt Hill
#
# Bulk Modulus (GPa) = 61.42572 61.43284 61.42928
# Shear Modulus (GPa) = 15.19304 20.74337 17.96821
#
# Velocity S-wave (km/s) = 2.90085 3.38955 3.15468
# Velocity P-wave (km/s) = 6.72618 7.02455 6.87699
#
# Compressibility (1/GPa) = 0.01627982
#
# Stress axis : x y z
#
# Youngs Moduli (GPa) = 22.11080 22.11080 63.67510
#
# Poissons Ratio (x) = 0.76995 0.32209
# Poissons Ratio (y) = 0.76995 0.32209
# Poissons Ratio (z) = 0.11185 0.11185
#
# Static dielectric constant tensor:
#      x y z
#    x 1.612200 0.000000 0.000000 
#    y 0.000000 1.612200 0.000000 
#    z 0.000000 0.000000 1.641580 
# 
# From -- ./inp_files/11665.got.cif
#   From: 2010.05.17/outbox.cif.g08.bks.cpg/sg98_6_cif.got.tgz:11665.got - 2010.06.03 20:00:51.
