data_PCOD9551826
_publ_section_title
;
Structure prediction by ZEFSAII (Michael W. Deem and Ramdas Pophale) SiO2 
 PCOD9551826
Probable space group: I 41 2 2
;
_chemical_formula_sum "Si O2"
_cell_formula_units_Z 96
_cell_length_a 18.318392
_cell_length_b 18.318392
_cell_length_c 15.839088
_cell_angle_alpha 90.000000
_cell_angle_beta 90.000000
_cell_angle_gamma 90.000000
_cell_volume 5315.019576
_symmetry_space_group_name_H-M "I 41 2 2"
_symmetry_group_IT_number 98
_symmetry_cell_setting 'tetragonal'
loop_
_space_group_symop_operation_xyz
x,y,z
-y,1/2+x,1/4+z
-x,-y,z
y,1/2-x,1/4+z
x,1/2-y,1/4-z
-x,1/2+y,1/4-z
y,x,-z
-y,-x,-z
1/2+x,1/2+y,1/2+z
1/2-y,x,3/4+z
1/2-x,1/2-y,1/2+z
1/2+y,-x,3/4+z
1/2+x,-y,3/4-z
1/2-x,y,3/4-z
1/2+y,1/2+x,1/2-z
1/2-y,1/2-x,1/2-z
loop_
_atom_site_type_symbol
_atom_site_label
_atom_site_fract_x
_atom_site_fract_y
_atom_site_fract_z
Si Si1 0.380427 0.360894 0.305365
Si Si2 0.173523 0.784987 0.711883
Si Si3 0.819988 0.737098 0.926075
Si Si4 0.761934 0.068131 0.014038
Si Si5 0.041443 0.849689 0.820793
Si Si6 0.020556 0.860942 0.141792
O O1 0.325650 0.362581 0.225944
O O2 0.361270 0.289590 0.360859
O O3 0.463718 0.354705 0.276687
O O4 0.372039 0.433791 0.362943
O O5 0.146626 0.750000 0.625000
O O6 0.218190 0.718190 0.750000
O O7 0.232823 0.851388 0.709952
O O8 0.106140 0.814291 0.766186
O O9 0.750000 0.706360 0.875000
O O10 0.788815 0.788815 0.000000
O O11 0.819552 0.059146 0.936960
O O12 0.690830 0.030643 0.973715
O O13 0.800786 0.034305 0.095032
O O14 0.067557 0.931072 0.844968
#
# Coordination Sequence:
#
# PCOD9551826 Si02
#       6
#    16  16  16  16  16  16
#     4  11  22  37  58  82 116 149 190 245 295 356
#     4  11  21  37  59  83 118 158 201 249 286 343
#     4   9  21  38  59  81 102 142 195 239 290 343
#     4  10  21  35  54  85 116 156 196 232 291 361
#     4  11  22  35  54  84 117 156 196 232 292 351
#     4  10  22  34  55  83 123 154 185 238 299 363
#
# _framework density 18.062023
#
# number of rings (size 3 to 8) (size 9 to 14) (size 15 to 20)
#    0.000    1.667    1.667    3.000   11.667    0.667 
#    0.000    1.667    0.000    0.000    0.000    0.000 
#    0.000    0.000    0.000    0.000    0.000    0.000 
#
# Total GULP energy -267539.675750 kJ/mol
# GULP energy per Si atom -5573.743245 kJ/mol
# Density = 1.802091 g / cm^3
# Si number density = 18.062023 Si / 1000 Ang^3
#
#
#
# Elastic Constant Matrix: (Units=GPa)
#
#
# Indices 1 2 3 4 5 6 
#
# 1 84.1685 29.8272 23.4125 0.0000 0.0000 0.0000
# 2 29.8272 84.1685 23.4125 0.0000 0.0000 0.0000
# 3 23.4125 23.4125 56.4748 0.0000 0.0000 0.0000
# 4 0.0000 0.0000 0.0000 14.9581 0.0000 0.0000
# 5 0.0000 0.0000 0.0000 0.0000 14.9581 0.0000
# 6 0.0000 0.0000 0.0000 0.0000 0.0000 12.4227
#
#
#
# Elastic Compliance Matrix: (Units=1/GPa)
#
#
# Indices 1 2 3 4 5 6 
#
# 1 0.014487 -0.003915 -0.004383 0.000000 0.000000 0.000000
# 2 -0.003915 0.014487 -0.004383 0.000000 0.000000 0.000000
# 3 -0.004383 -0.004383 0.021341 0.000000 0.000000 0.000000
# 4 0.000000 0.000000 0.000000 0.066853 0.000000 0.000000
# 5 0.000000 0.000000 0.000000 0.000000 0.066853 0.000000
# 6 0.000000 0.000000 0.000000 0.000000 0.000000 0.080498
#
#
# Mechanical properties :
#
#
# Convention : Reuss Voigt Hill
#
# Bulk Modulus (GPa) = 40.07340 42.01292 41.04316
# Shear Modulus (GPa) = 16.76724 18.34509 17.55616
#
# Velocity S-wave (km/s) = 3.05013 3.19042 3.12106
# Velocity P-wave (km/s) = 5.88550 6.07310 5.98004
#
# Compressibility (1/GPa) = 0.02495421
#
# Stress axis : x y z
#
# Youngs Moduli (GPa) = 69.02540 69.02540 46.85789
#
# Poissons Ratio (x) = 0.27022 0.20538
# Poissons Ratio (y) = 0.27022 0.20538
# Poissons Ratio (z) = 0.30254 0.30254
#
# Static dielectric constant tensor:
#      x y z
#    x 1.634440 0.000000 0.000000 
#    y 0.000000 1.634440 0.000000 
#    z 0.000000 0.000000 1.670760 
# 
# From -- ./inp_files/7707.got.cif
#   From: 2010.05.17/outbox.cif.g08.bks.cpg/sg98_4_cif.got.tgz:7707.got - 2010.06.03 20:00:51.
