data_PCOD9551494
_publ_section_title
;
Structure prediction by ZEFSAII (Michael W. Deem and Ramdas Pophale) SiO2 
 PCOD9551494
Probable space group: I 4 2 2 
;
_chemical_formula_sum "Si O2"
_cell_formula_units_Z 96
_cell_length_a 14.376693
_cell_length_b 14.376693
_cell_length_c 18.812428
_cell_angle_alpha 90.000000
_cell_angle_beta 90.000000
_cell_angle_gamma 90.000000
_cell_volume 3888.327605
_symmetry_space_group_name_H-M "I 4 2 2 "
_symmetry_group_IT_number 97
_symmetry_cell_setting 'tetragonal'
loop_
_space_group_symop_operation_xyz
x,y,z
-y,x,z
-x,-y,z
y,-x,z
x,-y,-z
-x,y,-z
y,x,-z
-y,-x,-z
1/2+x,1/2+y,1/2+z
1/2-y,1/2+x,1/2+z
1/2-x,1/2-y,1/2+z
1/2+y,1/2-x,1/2+z
1/2+x,1/2-y,1/2-z
1/2-x,1/2+y,1/2-z
1/2+y,1/2+x,1/2-z
1/2-y,1/2-x,1/2-z
loop_
_atom_site_type_symbol
_atom_site_label
_atom_site_fract_x
_atom_site_fract_y
_atom_site_fract_z
Si Si1 0.911940 0.306233 0.965674
Si Si2 0.332266 0.320015 0.264804
Si Si3 0.357352 0.426197 0.586961
Si Si4 0.088715 0.780917 0.541695
Si Si5 0.423144 0.076399 0.835586
Si Si6 0.489935 0.721681 0.180279
O O1 0.090479 0.219721 0.975722
O O2 0.806258 0.340285 0.960677
O O3 0.935560 0.327537 0.880522
O O4 0.000000 0.360771 0.000000
O O5 0.241700 0.258301 0.250000
O O6 0.379821 0.314920 0.342013
O O7 0.307311 0.425677 0.246220
O O8 0.406547 0.286223 0.206600
O O9 0.462494 0.380812 0.585136
O O10 0.139091 0.860910 0.500000
O O11 0.051904 0.830583 0.613260
O O12 0.000000 0.744451 0.500000
O O13 0.417982 0.082019 0.750000
O O14 0.468533 0.176068 0.849896
O O15 0.500000 0.000000 0.853958
#
# Coordination Sequence:
#
# PCOD9551494 Si02
#       6
#    16  16  16  16  16  16
#     4  11  29  45  83 116 165 215 274 341 427 505
#     4  12  27  47  83 120 167 224 287 345 423 500
#     4  11  27  53  82 125 174 226 287 354 431 517
#     4  11  27  50  76 115 163 212 280 354 428 510
#     4  10  25  49  78 117 166 210 274 343 422 509
#     4  11  26  48  78 116 158 219 281 344 414 504
#
# _framework density 24.689277000000001
#
# number of rings (size 3 to 8) (size 9 to 14) (size 15 to 20)
#    0.000    1.000    1.667    1.500   16.333    1.833 
#    0.000    2.500    0.000    0.000    0.000    0.000 
#    0.000    0.000    0.000    0.000    0.000    0.000 
#
# Total GULP energy -267271.452315 kJ/mol
# GULP energy per Si atom -5568.155257 kJ/mol
# Density = 2.463308 g / cm^3
# Si number density = 24.689277 Si / 1000 Ang^3
#
#
#
# Elastic Constant Matrix: (Units=GPa)
#
#
# Indices 1 2 3 4 5 6 
#
# 1 53.0417 16.3748 27.0330 0.0000 0.0000 0.0000
# 2 16.3748 53.0311 27.0338 0.0000 0.0000 0.0000
# 3 27.0330 27.0338 164.6324 0.0000 0.0000 0.0000
# 4 0.0000 0.0000 0.0000 83.0849 0.0000 0.0000
# 5 0.0000 0.0000 0.0000 0.0000 83.0646 0.0000
# 6 0.0000 0.0000 0.0000 0.0000 0.0000 15.0243
#
#
#
# Elastic Compliance Matrix: (Units=1/GPa)
#
#
# Indices 1 2 3 4 5 6 
#
# 1 0.021896 -0.005378 -0.002712 0.000000 0.000000 0.000000
# 2 -0.005378 0.021901 -0.002713 0.000000 0.000000 0.000000
# 3 -0.002712 -0.002713 0.006965 0.000000 0.000000 0.000000
# 4 0.000000 0.000000 0.000000 0.012036 0.000000 0.000000
# 5 0.000000 0.000000 0.000000 0.000000 0.012039 0.000000
# 6 0.000000 0.000000 0.000000 0.000000 0.000000 0.066559
#
#
# Mechanical properties :
#
#
# Convention : Reuss Voigt Hill
#
# Bulk Modulus (GPa) = 34.30041 45.73204 40.01623
# Shear Modulus (GPa) = 28.94855 49.58566 39.26711
#
# Velocity S-wave (km/s) = 3.42792 4.48637 3.99237
# Velocity P-wave (km/s) = 5.43971 6.73794 6.12333
#
# Compressibility (1/GPa) = 0.02915417
#
# Stress axis : x y z
#
# Youngs Moduli (GPa) = 45.67095 45.66074 143.57517
#
# Poissons Ratio (x) = 0.24558 0.38940
# Poissons Ratio (y) = 0.24563 0.38953
# Poissons Ratio (z) = 0.12387 0.12388
#
# Static dielectric constant tensor:
#      x y z
#    x 2.037870 0.000000 0.000000 
#    y 0.000000 2.037880 0.000000 
#    z 0.000000 0.000000 2.195340 
# 
# From -- ./inp_files/6613.got.cif
#   From: 2010.05.17/outbox.cif.g08.bks.cpg/sg97_4_cif.got.tgz:6613.got - 2010.06.03 19:55:32.
