data_PCOD9551750
_publ_section_title
;
Structure prediction by ZEFSAII (Michael W. Deem and Ramdas Pophale) SiO2 
 PCOD9551750
Probable space group: I 41 2 2
;
_chemical_formula_sum "Si O2"
_cell_formula_units_Z 88
_cell_length_a 17.833075
_cell_length_b 17.833075
_cell_length_c 16.184896
_cell_angle_alpha 90.000000
_cell_angle_beta 90.000000
_cell_angle_gamma 90.000000
_cell_volume 5147.097384
_symmetry_space_group_name_H-M "I 41 2 2"
_symmetry_group_IT_number 98
_symmetry_cell_setting 'tetragonal'
loop_
_space_group_symop_operation_xyz
x,y,z
-y,1/2+x,1/4+z
-x,-y,z
y,1/2-x,1/4+z
x,1/2-y,1/4-z
-x,1/2+y,1/4-z
y,x,-z
-y,-x,-z
1/2+x,1/2+y,1/2+z
1/2-y,x,3/4+z
1/2-x,1/2-y,1/2+z
1/2+y,-x,3/4+z
1/2+x,-y,3/4-z
1/2-x,y,3/4-z
1/2+y,1/2+x,1/2-z
1/2-y,1/2-x,1/2-z
loop_
_atom_site_type_symbol
_atom_site_label
_atom_site_fract_x
_atom_site_fract_y
_atom_site_fract_z
Si Si1 0.578799 0.034436 0.975922
Si Si2 0.181477 0.397494 0.438333
Si Si3 0.797159 0.610237 0.183587
Si Si4 0.703699 0.203699 0.250000
Si Si5 0.142580 0.943522 0.071232
Si Si6 0.632765 0.194259 0.425119
O O1 0.563596 0.097319 0.906507
O O2 0.500000 0.000000 0.006705
O O3 0.623418 0.965445 0.934409
O O4 0.633633 0.073321 0.042241
O O5 0.250000 0.415002 0.375000
O O6 0.213049 0.393588 0.531630
O O7 0.144155 0.320861 0.404633
O O8 0.835754 0.664247 0.250000
O O9 0.835042 0.529476 0.191999
O O10 0.657846 0.181150 0.331014
O O11 0.691648 0.291663 0.230117
O O12 0.221444 0.899447 0.070168
O O13 0.090049 0.909952 0.000000
#
# Coordination Sequence:
#
# PCOD9551750 Si02
#       6
#    16  16  16   8  16  16
#     4  12  24  36  55  90 125 160 196 237 297 367
#     4  10  20  34  54  81 118 153 190 234 293 351
#     4  10  20  34  51  81 114 157 188 236 291 355
#     4  10  22  40  59  88 119 156 204 246 306 346
#     4  12  22  31  53  88 131 157 190 232 301 366
#     4  11  22  38  59  87 120 158 197 249 292 368
#
# _framework density 17.097014000000001
#
# number of rings (size 3 to 8) (size 9 to 14) (size 15 to 20)
#    0.000    1.091    6.364    2.182    0.000    0.000 
#    0.000    0.455    0.000    0.000   52.000    0.000 
#    0.000    0.000    0.000    0.000    0.000    0.000 
#
# Total GULP energy -245382.117049 kJ/mol
# GULP energy per Si atom -5576.866297 kJ/mol
# Density = 1.705810 g / cm^3
# Si number density = 17.097014 Si / 1000 Ang^3
#
#
#
# Elastic Constant Matrix: (Units=GPa)
#
#
# Indices 1 2 3 4 5 6 
#
# 1 69.6418 27.2044 26.7586 0.0000 0.0000 0.0000
# 2 27.2044 69.6364 26.7531 0.0000 0.0000 0.0000
# 3 26.7586 26.7531 54.2359 0.0000 0.0000 0.0000
# 4 0.0000 0.0000 0.0000 16.3221 0.0000 0.0000
# 5 0.0000 0.0000 0.0000 0.0000 16.3208 0.0000
# 6 0.0000 0.0000 0.0000 0.0000 0.0000 31.7844
#
#
#
# Elastic Compliance Matrix: (Units=1/GPa)
#
#
# Indices 1 2 3 4 5 6 
#
# 1 0.018881 -0.004685 -0.007004 0.000000 0.000000 0.000000
# 2 -0.004685 0.018881 -0.007002 0.000000 0.000000 0.000000
# 3 -0.007004 -0.007002 0.025347 0.000000 0.000000 0.000000
# 4 0.000000 0.000000 0.000000 0.061267 0.000000 0.000000
# 5 0.000000 0.000000 0.000000 0.000000 0.061272 0.000000
# 6 0.000000 0.000000 0.000000 0.000000 0.000000 0.031462
#
#
# Mechanical properties :
#
#
# Convention : Reuss Voigt Hill
#
# Bulk Modulus (GPa) = 38.87038 39.43849 39.15443
# Shear Modulus (GPa) = 19.00662 20.40533 19.70597
#
# Velocity S-wave (km/s) = 3.33782 3.45846 3.39868
# Velocity P-wave (km/s) = 6.13509 6.25024 6.19293
#
# Compressibility (1/GPa) = 0.02572653
#
# Stress axis : x y z
#
# Youngs Moduli (GPa) = 52.96452 52.96458 39.45167
#
# Poissons Ratio (x) = 0.24814 0.27633
# Poissons Ratio (y) = 0.24814 0.27623
# Poissons Ratio (z) = 0.37097 0.37085
#
# Static dielectric constant tensor:
#      x y z
#    x 1.590860 0.000000 0.000000 
#    y 0.000000 1.590860 0.000000 
#    z 0.000000 0.000000 1.597870 
# 
# From -- ./inp_files/6546.got.cif
#   From: 2010.05.17/outbox.cif.g08.bks.cpg/sg98_4_cif.got.tgz:6546.got - 2010.06.03 20:00:51.
