data_PCOD9551136
_publ_section_title
;
Structure prediction by ZEFSAII (Michael W. Deem and Ramdas Pophale) SiO2 
 PCOD9551136
Probable space group: P 43 21 2
;
_chemical_formula_sum "Si O2"
_cell_formula_units_Z 32
_cell_length_a 9.426929
_cell_length_b 9.426929
_cell_length_c 14.641830
_cell_angle_alpha 90.000000
_cell_angle_beta 90.000000
_cell_angle_gamma 90.000000
_cell_volume 1301.175366
_symmetry_space_group_name_H-M "P 43 21 2"
_symmetry_group_IT_number 96
_symmetry_cell_setting 'tetragonal'
loop_
_space_group_symop_operation_xyz
x,y,z
1/2-y,1/2+x,3/4+z
-x,-y,1/2+z
1/2+y,1/2-x,1/4+z
1/2+x,1/2-y,1/4-z
1/2-x,1/2+y,3/4-z
y,x,-z
-y,-x,1/2-z
loop_
_atom_site_type_symbol
_atom_site_label
_atom_site_fract_x
_atom_site_fract_y
_atom_site_fract_z
Si Si1 0.451766 0.740577 0.856865
Si Si2 0.919515 0.750560 0.862562
Si Si3 0.030839 0.030839 0.500000
Si Si4 0.311522 0.311522 0.000000
Si Si5 0.334112 0.045291 0.307510
O O1 0.500182 0.585437 0.827383
O O2 0.286434 0.761893 0.834975
O O3 0.497542 0.775124 0.958990
O O4 0.528869 0.856150 0.793354
O O5 0.988869 0.816751 0.954007
O O6 0.875581 0.589828 0.882125
O O7 0.027673 0.779574 0.779631
O O8 0.782595 0.849755 0.849414
#
# Coordination Sequence:
#
# PCOD9551136 Si02
#       5
#     8   8   4   4   8
#     4  11  25  45  70 105 142 185 237 296 353 425
#     4  12  26  46  72 105 142 189 237 294 358 427
#     4  11  24  43  68 100 142 185 236 291 354 420
#     4  11  26  47  74 102 142 191 240 291 356 426
#     4  12  26  45  71 104 142 182 236 293 356 422
#
# _framework density 24.593146000000001
#
# number of rings (size 3 to 8) (size 9 to 14) (size 15 to 20)
#    0.000    0.500    0.000    7.500    0.000   13.000 
#    0.000    2.500    0.000    0.000    0.000    0.000 
#    0.000    0.000    0.000    0.000    0.000    0.000 
#
# Total GULP energy -179402.314120 kJ/mol
# GULP energy per Si atom -5606.322316 kJ/mol
# Density = 2.453717 g / cm^3
# Si number density = 24.593146 Si / 1000 Ang^3
#
#
#
# Elastic Constant Matrix: (Units=GPa)
#
#
# Indices 1 2 3 4 5 6 
#
# 1 96.9324 70.2127 -1.3977 0.0000 0.0000 0.0000
# 2 70.2127 96.9324 -1.3977 0.0000 0.0000 0.0000
# 3 -1.3977 -1.3977 53.9447 0.0000 0.0000 0.0000
# 4 0.0000 0.0000 0.0000 31.9655 0.0000 0.0000
# 5 0.0000 0.0000 0.0000 0.0000 31.9655 0.0000
# 6 0.0000 0.0000 0.0000 0.0000 0.0000 36.8915
#
#
#
# Elastic Compliance Matrix: (Units=1/GPa)
#
#
# Indices 1 2 3 4 5 6 
#
# 1 0.021705 -0.015720 0.000155 0.000000 0.000000 0.000000
# 2 -0.015720 0.021705 0.000155 0.000000 0.000000 0.000000
# 3 0.000155 0.000155 0.018546 0.000000 0.000000 0.000000
# 4 0.000000 0.000000 0.000000 0.031284 0.000000 0.000000
# 5 0.000000 0.000000 0.000000 0.000000 0.031284 0.000000
# 6 0.000000 0.000000 0.000000 0.000000 0.000000 0.027107
#
#
# Mechanical properties :
#
#
# Convention : Reuss Voigt Hill
#
# Bulk Modulus (GPa) = 32.11643 42.51599 37.31621
# Shear Modulus (GPa) = 25.92971 32.19067 29.06019
#
# Velocity S-wave (km/s) = 3.25059 3.62184 3.44122
# Velocity P-wave (km/s) = 5.21305 5.90047 5.56738
#
# Compressibility (1/GPa) = 0.03113671
#
# Stress axis : x y z
#
# Youngs Moduli (GPa) = 46.07134 46.07134 53.92133
#
# Poissons Ratio (x) = 0.72424 -0.00836
# Poissons Ratio (y) = 0.72424 -0.00836
# Poissons Ratio (z) = -0.00714 -0.00714
#
# Static dielectric constant tensor:
#      x y z
#    x 1.937250 0.000000 0.000000 
#    y 0.000000 1.937250 0.000000 
#    z 0.000000 0.000000 1.995210 
# 
# From -- ./inp_files/3384.got.cif
#   From: 2010.05.17/outbox.cif.g08.bks.cpg/sg96_2_cif.got.tgz:3384.got - 2010.06.03 19:52:08.
