data_PCOD9551143
_publ_section_title
;
Structure prediction by ZEFSAII (Michael W. Deem and Ramdas Pophale) SiO2 
 PCOD9551143
Probable space group: P 43 21 2
;
_chemical_formula_sum "Si O2"
_cell_formula_units_Z 28
_cell_length_a 9.170323
_cell_length_b 9.170323
_cell_length_c 14.361446
_cell_angle_alpha 90.000000
_cell_angle_beta 90.000000
_cell_angle_gamma 90.000000
_cell_volume 1207.723273
_symmetry_space_group_name_H-M "P 43 21 2"
_symmetry_group_IT_number 96
_symmetry_cell_setting 'tetragonal'
loop_
_space_group_symop_operation_xyz
x,y,z
1/2-y,1/2+x,3/4+z
-x,-y,1/2+z
1/2+y,1/2-x,1/4+z
1/2+x,1/2-y,1/4-z
1/2-x,1/2+y,3/4-z
y,x,-z
-y,-x,1/2-z
loop_
_atom_site_type_symbol
_atom_site_label
_atom_site_fract_x
_atom_site_fract_y
_atom_site_fract_z
Si Si1 0.751674 0.248327 0.750000
Si Si2 0.208086 0.582164 0.431882
Si Si3 0.291211 0.524879 0.979383
Si Si4 0.429279 0.810540 0.721040
O O1 0.742514 0.371766 0.828930
O O2 0.912098 0.267797 0.703888
O O3 0.308788 0.675747 0.501640
O O4 0.046281 0.641944 0.451954
O O5 0.240066 0.498385 0.874463
O O6 0.438404 0.438404 0.000000
O O7 0.168945 0.454223 0.045186
O O8 0.317820 0.682181 0.750000
#
# Coordination Sequence:
#
# PCOD9551143 Si02
#       4
#     4   8   8   8
#     4  12  30  50  76 112 162 202 264 324 392 470
#     4  12  27  50  74 115 154 200 263 321 391 460
#     4  11  24  46  74 105 148 199 249 309 380 457
#     4  11  25  46  75 109 148 200 252 308 381 461
#
# _framework density 23.184118000000002
#
# number of rings (size 3 to 8) (size 9 to 14) (size 15 to 20)
#    0.000    0.571    1.429    6.857    8.000    2.286 
#    0.000    0.000    0.000    0.000    0.000    0.000 
#    0.000    0.000    0.000    0.000    0.000    0.000 
#
# Total GULP energy -156771.902890 kJ/mol
# GULP energy per Si atom -5598.996532 kJ/mol
# Density = 2.313135 g / cm^3
# Si number density = 23.184118 Si / 1000 Ang^3
#
#
#
# Elastic Constant Matrix: (Units=GPa)
#
#
# Indices 1 2 3 4 5 6 
#
# 1 87.6100 49.6006 15.8653 0.0000 0.0000 0.0000
# 2 49.6006 87.6095 15.8657 0.0000 0.0000 0.0000
# 3 15.8653 15.8657 91.8651 0.0000 0.0000 0.0000
# 4 0.0000 0.0000 0.0000 35.5919 0.0000 0.0000
# 5 0.0000 0.0000 0.0000 0.0000 35.5919 0.0000
# 6 0.0000 0.0000 0.0000 0.0000 0.0000 39.8746
#
#
#
# Elastic Compliance Matrix: (Units=1/GPa)
#
#
# Indices 1 2 3 4 5 6 
#
# 1 0.016950 -0.009359 -0.001311 0.000000 0.000000 0.000000
# 2 -0.009359 0.016950 -0.001311 0.000000 0.000000 0.000000
# 3 -0.001311 -0.001311 0.011338 0.000000 0.000000 0.000000
# 4 0.000000 0.000000 0.000000 0.028096 0.000000 0.000000
# 5 0.000000 0.000000 0.000000 0.000000 0.028096 0.000000
# 6 0.000000 0.000000 0.000000 0.000000 0.000000 0.025079
#
#
# Mechanical properties :
#
#
# Convention : Reuss Voigt Hill
#
# Bulk Modulus (GPa) = 46.99970 47.74976 47.37473
# Shear Modulus (GPa) = 31.73295 34.59520 33.16407
#
# Velocity S-wave (km/s) = 3.70366 3.86708 3.78625
# Velocity P-wave (km/s) = 6.21336 6.37022 6.29228
#
# Compressibility (1/GPa) = 0.02127673
#
# Stress axis : x y z
#
# Youngs Moduli (GPa) = 58.99598 58.99554 88.19604
#
# Poissons Ratio (x) = 0.55215 0.11562
# Poissons Ratio (y) = 0.55215 0.11563
# Poissons Ratio (z) = 0.07734 0.07735
#
# Static dielectric constant tensor:
#      x y z
#    x 1.854090 0.000000 0.000000 
#    y 0.000000 1.854090 0.000000 
#    z 0.000000 0.000000 1.852580 
# 
# From -- ./inp_files/2943.got.cif
#   From: 2010.05.17/outbox.cif.g08.bks.cpg/sg96_2_cif.got.tgz:2943.got - 2010.06.03 19:52:08.
