data_PCOD9551840
_publ_section_title
;
Structure prediction by ZEFSAII (Michael W. Deem and Ramdas Pophale) SiO2 
 PCOD9551840
Probable space group: I 41 2 2
;
_chemical_formula_sum "Si O2"
_cell_formula_units_Z 64
_cell_length_a 25.677320
_cell_length_b 25.677320
_cell_length_c 5.042617
_cell_angle_alpha 90.000000
_cell_angle_beta 90.000000
_cell_angle_gamma 90.000000
_cell_volume 3324.722255
_symmetry_space_group_name_H-M "I 41 2 2"
_symmetry_group_IT_number 98
_symmetry_cell_setting 'tetragonal'
loop_
_space_group_symop_operation_xyz
x,y,z
-y,1/2+x,1/4+z
-x,-y,z
y,1/2-x,1/4+z
x,1/2-y,1/4-z
-x,1/2+y,1/4-z
y,x,-z
-y,-x,-z
1/2+x,1/2+y,1/2+z
1/2-y,x,3/4+z
1/2-x,1/2-y,1/2+z
1/2+y,-x,3/4+z
1/2+x,-y,3/4-z
1/2-x,y,3/4-z
1/2+y,1/2+x,1/2-z
1/2-y,1/2-x,1/2-z
loop_
_atom_site_type_symbol
_atom_site_label
_atom_site_fract_x
_atom_site_fract_y
_atom_site_fract_z
Si Si1 0.641745 0.692865 0.752666
Si Si2 0.890347 0.558077 0.509207
Si Si3 0.634217 0.215089 0.368436
Si Si4 0.435522 0.616560 0.753840
O O1 0.635901 0.750000 0.625000
O O2 0.662439 0.662439 0.500000
O O3 0.587955 0.663960 0.826175
O O4 0.681504 0.681504 0.000000
O O5 0.929031 0.570970 0.750000
O O6 0.880676 0.497261 0.474766
O O7 0.916863 0.583138 0.250000
O O8 0.647243 0.250000 0.625000
O O9 0.683388 0.183388 0.250000
O O10 0.591307 0.172481 0.449458
O O11 0.614479 0.250000 0.125000
O O12 0.409006 0.590995 0.500000
O O13 0.419494 0.580507 0.000000
#
# Coordination Sequence:
#
# PCOD9551840 Si02
#       4
#    16  16  16  16
#     4  10  21  38  58  84 116 150 193 240 288 346
#     4  10  22  39  60  88 120 154 196 244 293 353
#     4  11  23  41  61  86 118 153 197 245 293 348
#     4  11  23  40  61  88 121 155 196 245 295 353
#
# _framework density 19.249728999999999
#
# number of rings (size 3 to 8) (size 9 to 14) (size 15 to 20)
#    0.000    1.500    0.000    6.000    0.000    6.000 
#    0.000    6.250    0.000    0.000    0.000    0.000 
#    0.000    0.000    0.000    0.000    0.000    0.000 
#
# Total GULP energy -178599.632836 kJ/mol
# GULP energy per Si atom -5581.238526 kJ/mol
# Density = 1.920592 g / cm^3
# Si number density = 19.249729 Si / 1000 Ang^3
#
#
#
# Elastic Constant Matrix: (Units=GPa)
#
#
# Indices 1 2 3 4 5 6 
#
# 1 33.5346 185.7037 50.8192 0.0000 0.0000 0.0000
# 2 185.7037 33.5155 50.8068 0.0000 0.0000 0.0000
# 3 50.8192 50.8068 153.5246 0.0000 0.0000 0.0000
# 4 0.0000 0.0000 0.0000 43.5903 0.0000 0.0000
# 5 0.0000 0.0000 0.0000 0.0000 43.5870 0.0000
# 6 0.0000 0.0000 0.0000 0.0000 0.0000 2.8943
#
#
#
# Elastic Compliance Matrix: (Units=1/GPa)
#
#
# Indices 1 2 3 4 5 6 
#
# 1 -0.000591 0.005980 -0.001783 0.000000 0.000000 0.000000
# 2 0.005980 -0.000592 -0.001784 0.000000 0.000000 0.000000
# 3 -0.001783 -0.001784 0.007694 0.000000 0.000000 0.000000
# 4 0.000000 0.000000 0.000000 0.022941 0.000000 0.000000
# 5 0.000000 0.000000 0.000000 0.000000 0.022943 0.000000
# 6 0.000000 0.000000 0.000000 0.000000 0.000000 0.345504
#
#
# Mechanical properties :
#
#
# Convention : Reuss Voigt Hill
#
# Bulk Modulus (GPa) = 88.20680 88.35935 88.28307
# Shear Modulus (GPa) = 12.59916 13.56399 13.08158
#
# Velocity S-wave (km/s) = 2.56112 2.65737 2.60969
# Velocity P-wave (km/s) = 7.39375 7.44424 7.41904
#
# Compressibility (1/GPa) = 0.01133699
#
# Stress axis : x y z
#
# Youngs Moduli (GPa) = -1691.04261 -1689.94477 129.96972
#
# Poissons Ratio (x) = 10.10532 0.23175
# Poissons Ratio (y) = 10.11189 0.23181
# Poissons Ratio (z) = -3.01537 -3.01409
#
# Static dielectric constant tensor:
#      x y z
#    x 1.618230 0.000000 0.000000 
#    y 0.000000 1.618220 0.000000 
#    z 0.000000 0.000000 1.667580 
# 
# From -- ./inp_files/1390.got.cif
#   From: 2010.05.17/outbox.cif.g08.bks.cpg/sg98_1_cif.got.tgz:1390.got - 2010.06.03 20:00:51.
