data_PCOD9551400
_publ_section_title
;
Structure prediction by ZEFSAII (Michael W. Deem and Ramdas Pophale) SiO2 
 PCOD9551400
Probable space group: I 4 2 2 
;
_chemical_formula_sum "Si O2"
_cell_formula_units_Z 72
_cell_length_a 19.218610
_cell_length_b 19.218610
_cell_length_c 9.184148
_cell_angle_alpha 90.000000
_cell_angle_beta 90.000000
_cell_angle_gamma 90.000000
_cell_volume 3392.210712
_symmetry_space_group_name_H-M "I 4 2 2 "
_symmetry_group_IT_number 97
_symmetry_cell_setting 'tetragonal'
loop_
_space_group_symop_operation_xyz
x,y,z
-y,x,z
-x,-y,z
y,-x,z
x,-y,-z
-x,y,-z
y,x,-z
-y,-x,-z
1/2+x,1/2+y,1/2+z
1/2-y,1/2+x,1/2+z
1/2-x,1/2-y,1/2+z
1/2+y,1/2-x,1/2+z
1/2+x,1/2-y,1/2-z
1/2-x,1/2+y,1/2-z
1/2+y,1/2+x,1/2-z
1/2-y,1/2-x,1/2-z
loop_
_atom_site_type_symbol
_atom_site_label
_atom_site_fract_x
_atom_site_fract_y
_atom_site_fract_z
Si Si1 0.388146 0.943388 0.391328
Si Si2 0.572159 0.315505 0.461138
Si Si3 0.711736 0.288265 0.000000
Si Si4 0.862976 0.315840 0.100281
Si Si5 0.055782 0.227363 0.374350
O O1 0.433149 0.933149 0.250000
O O2 0.379161 0.870104 0.472772
O O3 0.308598 0.963632 0.354135
O O4 0.416952 0.000000 0.500000
O O5 0.500000 0.350891 0.500000
O O6 0.635940 0.364061 0.500000
O O7 0.584800 0.247424 0.564482
O O8 0.562846 0.300857 0.289617
O O9 0.713480 0.216063 0.910969
O O10 0.717104 0.365276 0.931747
O O11 0.859817 0.359817 0.250000
O O12 0.000000 0.201786 0.500000
#
# Coordination Sequence:
#
# PCOD9551400 Si02
#       5
#    16  16   8  16  16
#     4  10  21  40  65 101 140 184 228 291 351 427
#     4  12  27  44  69 101 142 183 238 297 366 433
#     4  10  22  38  72  95 133 160 234 286 358 408
#     4  11  23  38  68 101 132 176 232 295 356 417
#     4  10  23  41  66 102 137 179 232 297 363 433
#
# _framework density 21.225097999999999
#
# number of rings (size 3 to 8) (size 9 to 14) (size 15 to 20)
#    0.000    1.333    3.333    1.333   12.444    0.222 
#    0.000    0.000    0.000    5.667    0.000    0.000 
#    0.000    0.000    0.000    0.000    0.000    0.000 
#
# Total GULP energy -200660.015979 kJ/mol
# GULP energy per Si atom -5573.889333 kJ/mol
# Density = 2.117679 g / cm^3
# Si number density = 21.225098 Si / 1000 Ang^3
#
#
#
# Elastic Constant Matrix: (Units=GPa)
#
#
# Indices 1 2 3 4 5 6 
#
# 1 -62.6732 160.6736 41.2676 0.0000 0.0000 0.0000
# 2 160.6736 -62.6762 41.2597 0.0000 0.0000 0.0000
# 3 41.2676 41.2597 151.9723 0.0000 0.0000 0.0000
# 4 0.0000 0.0000 0.0000 28.5941 0.0000 0.0000
# 5 0.0000 0.0000 0.0000 0.0000 28.5939 0.0000
# 6 0.0000 0.0000 0.0000 0.0000 0.0000 5.4466
#
#
#
# Elastic Compliance Matrix: (Units=1/GPa)
#
#
# Indices 1 2 3 4 5 6 
#
# 1 0.004376 0.008853 -0.003592 0.000000 0.000000 0.000000
# 2 0.008853 0.004376 -0.003592 0.000000 0.000000 0.000000
# 3 -0.003592 -0.003592 0.008531 0.000000 0.000000 0.000000
# 4 0.000000 0.000000 0.000000 0.034972 0.000000 0.000000
# 5 0.000000 0.000000 0.000000 0.000000 0.034973 0.000000
# 6 0.000000 0.000000 0.000000 0.000000 0.000000 0.183600
#
#
# Mechanical properties :
#
#
# Convention : Reuss Voigt Hill
#
# Bulk Modulus (GPa) = 48.49423 57.00274 52.74848
# Shear Modulus (GPa) = 18.22406 -1.91162 8.15622
#
# Velocity S-wave (km/s) = 2.93338 -0.95005 1.96241
# Velocity P-wave (km/s) = 5.86261 5.07061 5.48093
#
# Compressibility (1/GPa) = 0.02062101
#
# Stress axis : x y z
#
# Youngs Moduli (GPa) = 228.52747 228.52333 117.22318
#
# Poissons Ratio (x) = -2.02316 0.42105
# Poissons Ratio (y) = -2.02320 0.42108
# Poissons Ratio (z) = 0.82083 0.82088
#
# Static dielectric constant tensor:
#      x y z
#    x 1.773730 0.000000 0.000000 
#    y 0.000000 1.773720 0.000000 
#    z 0.000000 0.000000 1.842390 
# 
# From -- ./inp_files/2225.got.cif
#   From: 2010.05.17/outbox.cif.g08.bks.cpg/sg97_2_cif.got.tgz:2225.got - 2010.06.03 19:55:32.
