data_PCOD9551753
_publ_section_title
;
Structure prediction by ZEFSAII (Michael W. Deem and Ramdas Pophale) SiO2 
 PCOD9551753
Probable space group: I 41 2 2
;
_chemical_formula_sum "Si O2"
_cell_formula_units_Z 112
_cell_length_a 22.053346
_cell_length_b 22.053346
_cell_length_c 12.695515
_cell_angle_alpha 90.000000
_cell_angle_beta 90.000000
_cell_angle_gamma 90.000000
_cell_volume 6174.464606
_symmetry_space_group_name_H-M "I 41 2 2"
_symmetry_group_IT_number 98
_symmetry_cell_setting 'tetragonal'
loop_
_space_group_symop_operation_xyz
x,y,z
-y,1/2+x,1/4+z
-x,-y,z
y,1/2-x,1/4+z
x,1/2-y,1/4-z
-x,1/2+y,1/4-z
y,x,-z
-y,-x,-z
1/2+x,1/2+y,1/2+z
1/2-y,x,3/4+z
1/2-x,1/2-y,1/2+z
1/2+y,-x,3/4+z
1/2+x,-y,3/4-z
1/2-x,y,3/4-z
1/2+y,1/2+x,1/2-z
1/2-y,1/2-x,1/2-z
loop_
_atom_site_type_symbol
_atom_site_label
_atom_site_fract_x
_atom_site_fract_y
_atom_site_fract_z
Si Si1 0.965573 0.625610 0.697085
Si Si2 0.436057 0.964768 0.484910
Si Si3 0.022923 0.276344 0.235892
Si Si4 0.643793 0.648387 0.812730
Si Si5 0.716701 0.849062 0.653662
Si Si6 0.095294 0.497957 0.213549
Si Si7 0.499418 0.656945 0.826969
O O1 0.932782 0.567219 0.750000
O O2 0.910538 0.658468 0.634001
O O3 0.996086 0.657910 0.796224
O O4 0.014301 0.602813 0.614351
O O5 0.456577 0.895068 0.470457
O O6 0.500000 0.000000 0.484989
O O7 0.401882 0.989572 0.588809
O O8 0.043732 0.250000 0.125000
O O9 0.082174 0.287638 0.305471
O O10 0.992151 0.341183 0.229816
O O11 0.983285 0.223354 0.286233
O O12 0.676482 0.653780 0.700636
O O13 0.659939 0.711913 0.869019
O O14 0.570523 0.645184 0.795028
O O15 0.693172 0.806829 0.750000
O O16 0.066373 0.433628 0.250000
O O17 0.047063 0.547063 0.250000
#
# Coordination Sequence:
#
# PCOD9551753 Si02
#       7
#    16  16  16  16  16  16  16
#     4  10  20  34  55  80 107 138 179 227 288 347
#     4  12  19  33  62  86 114 140 188 241 289 347
#     4  11  23  37  55  77 114 148 180 232 297 350
#     4  10  21  36  51  73 101 142 191 246 288 339
#     4  11  21  36  53  67  94 142 203 247 291 329
#     4  11  23  35  56  86 113 147 194 243 288 344
#     4  10  22  37  55  83 111 147 183 230 292 354
#
# _framework density 18.139226000000001
#
# number of rings (size 3 to 8) (size 9 to 14) (size 15 to 20)
#    0.000    1.286    4.286    4.714    0.000    0.000 
#    0.000   27.143    0.000    0.000    0.000    0.000 
#    0.000   18.286    0.000    0.000    0.000    0.000 
#
# Total GULP energy -312613.225569 kJ/mol
# GULP energy per Si atom -5582.379028 kJ/mol
# Density = 1.809794 g / cm^3
# Si number density = 18.139226 Si / 1000 Ang^3
#
#
#
# Elastic Constant Matrix: (Units=GPa)
#
#
# Indices 1 2 3 4 5 6 
#
# 1 70.0243 26.4319 25.0592 0.0000 0.0000 0.0000
# 2 26.4319 70.0262 25.0597 0.0000 0.0000 0.0000
# 3 25.0592 25.0597 109.6955 0.0000 0.0000 0.0000
# 4 0.0000 0.0000 0.0000 19.1397 0.0000 0.0000
# 5 0.0000 0.0000 0.0000 0.0000 19.1390 0.0000
# 6 0.0000 0.0000 0.0000 0.0000 0.0000 14.4780
#
#
#
# Elastic Compliance Matrix: (Units=1/GPa)
#
#
# Indices 1 2 3 4 5 6 
#
# 1 0.017352 -0.005588 -0.002687 0.000000 0.000000 0.000000
# 2 -0.005588 0.017351 -0.002687 0.000000 0.000000 0.000000
# 3 -0.002687 -0.002687 0.010344 0.000000 0.000000 0.000000
# 4 0.000000 0.000000 0.000000 0.052247 0.000000 0.000000
# 5 0.000000 0.000000 0.000000 0.000000 0.052249 0.000000
# 6 0.000000 0.000000 0.000000 0.000000 0.000000 0.069070
#
#
# Mechanical properties :
#
#
# Convention : Reuss Voigt Hill
#
# Bulk Modulus (GPa) = 43.24913 44.76083 44.00498
# Shear Modulus (GPa) = 20.14129 22.09770 21.11949
#
# Velocity S-wave (km/s) = 3.33584 3.49410 3.41589
# Velocity P-wave (km/s) = 6.22348 6.40376 6.31426
#
# Compressibility (1/GPa) = 0.02312185
#
# Stress axis : x y z
#
# Youngs Moduli (GPa) = 57.63137 57.63282 96.67472
#
# Poissons Ratio (x) = 0.32204 0.25980
# Poissons Ratio (y) = 0.32203 0.25980
# Poissons Ratio (z) = 0.15488 0.15488
#
# Static dielectric constant tensor:
#      x y z
#    x 1.643890 0.000000 0.000000 
#    y 0.000000 1.643890 0.000000 
#    z 0.000000 0.000000 1.745250 
# 
# From -- ./inp_files/5468.got.cif
#   From: 2010.05.17/outbox.cif.g08.bks.cpg/sg98_3_cif.got.tgz:5468.got - 2010.06.03 20:00:51.
