data_PCOD9551131
_publ_section_title
;
Structure prediction by ZEFSAII (Michael W. Deem and Ramdas Pophale) SiO2 
 PCOD9551131
Probable space group: P 43 21 2
;
_chemical_formula_sum "Si O2"
_cell_formula_units_Z 48
_cell_length_a 10.851628
_cell_length_b 10.851628
_cell_length_c 16.218104
_cell_angle_alpha 90.000000
_cell_angle_beta 90.000000
_cell_angle_gamma 90.000000
_cell_volume 1909.808738
_symmetry_space_group_name_H-M "P 43 21 2"
_symmetry_group_IT_number 96
_symmetry_cell_setting 'tetragonal'
loop_
_space_group_symop_operation_xyz
x,y,z
1/2-y,1/2+x,3/4+z
-x,-y,1/2+z
1/2+y,1/2-x,1/4+z
1/2+x,1/2-y,1/4-z
1/2-x,1/2+y,3/4-z
y,x,-z
-y,-x,1/2-z
loop_
_atom_site_type_symbol
_atom_site_label
_atom_site_fract_x
_atom_site_fract_y
_atom_site_fract_z
Si Si1 0.838945 0.468841 0.700063
Si Si2 0.636083 0.282240 0.952883
Si Si3 0.705108 0.705108 0.500000
Si Si4 0.544444 0.544444 0.000000
Si Si5 0.373335 0.223114 0.412617
Si Si6 0.677643 0.689096 0.685896
Si Si7 0.372555 0.019730 0.023724
O O1 0.814823 0.437601 0.603909
O O2 0.841258 0.344099 0.752566
O O3 0.719507 0.554379 0.722886
O O4 0.977807 0.514724 0.720259
O O5 0.758853 0.298754 0.897741
O O6 0.568246 0.409118 0.967246
O O7 0.688727 0.248740 0.043023
O O8 0.650555 0.673077 0.589789
O O9 0.673517 0.848669 0.494794
O O10 0.638179 0.584854 0.072205
O O11 0.489792 0.160491 0.368756
O O12 0.576098 0.781320 0.724540
#
# Coordination Sequence:
#
# PCOD9551131 Si02
#       7
#     8   8   4   4   8   8   8
#     4  12  25  48  80 113 156 211 270 329 415 505
#     4  11  26  45  76 119 156 207 270 333 417 485
#     4  12  28  49  73 110 152 208 264 336 416 476
#     4  12  24  45  77 114 164 198 270 352 390 486
#     4  11  23  46  78 116 153 213 260 330 408 491
#     4  11  29  45  76 113 148 213 271 328 412 494
#     4  11  27  49  79 104 164 203 267 339 406 495
#
# _framework density 25.133405
#
# number of rings (size 3 to 8) (size 9 to 14) (size 15 to 20)
#    0.000    0.667    1.667    5.000   11.667    3.333 
#    0.000    0.000    0.000    0.000    0.000    0.000 
#    0.000    0.000    0.000    0.000    0.000    0.000 
#
# Total GULP energy -267791.793694 kJ/mol
# GULP energy per Si atom -5578.995702 kJ/mol
# Density = 2.507620 g / cm^3
# Si number density = 25.133405 Si / 1000 Ang^3
#
#
#
# Elastic Constant Matrix: (Units=GPa)
#
#
# Indices 1 2 3 4 5 6 
#
# 1 81.4808 30.7858 32.0567 0.0000 0.0000 0.0000
# 2 30.7858 81.4808 32.0567 0.0000 0.0000 0.0000
# 3 32.0567 32.0567 114.2433 0.0000 0.0000 0.0000
# 4 0.0000 0.0000 0.0000 44.4230 0.0000 0.0000
# 5 0.0000 0.0000 0.0000 0.0000 44.4230 0.0000
# 6 0.0000 0.0000 0.0000 0.0000 0.0000 33.9724
#
#
#
# Elastic Compliance Matrix: (Units=1/GPa)
#
#
# Indices 1 2 3 4 5 6 
#
# 1 0.015166 -0.004559 -0.002976 0.000000 0.000000 0.000000
# 2 -0.004559 0.015166 -0.002976 0.000000 0.000000 0.000000
# 3 -0.002976 -0.002976 0.010424 0.000000 0.000000 0.000000
# 4 0.000000 0.000000 0.000000 0.022511 0.000000 0.000000
# 5 0.000000 0.000000 0.000000 0.000000 0.022511 0.000000
# 6 0.000000 0.000000 0.000000 0.000000 0.000000 0.029436
#
#
# Mechanical properties :
#
#
# Convention : Reuss Voigt Hill
#
# Bulk Modulus (GPa) = 50.67812 51.88923 51.28368
# Shear Modulus (GPa) = 35.01021 36.71740 35.86381
#
# Velocity S-wave (km/s) = 3.73631 3.82632 3.78158
# Velocity P-wave (km/s) = 6.23063 6.34124 6.28618
#
# Compressibility (1/GPa) = 0.01973238
#
# Stress axis : x y z
#
# Youngs Moduli (GPa) = 65.93494 65.93494 95.93628
#
# Poissons Ratio (x) = 0.30062 0.28554
# Poissons Ratio (y) = 0.30062 0.28554
# Poissons Ratio (z) = 0.19625 0.19625
#
# Static dielectric constant tensor:
#      x y z
#    x 2.030940 0.000000 0.000000 
#    y 0.000000 2.030940 0.000000 
#    z 0.000000 0.000000 2.029550 
# 
# From -- ./inp_files/3170.got.cif
#   From: 2010.05.17/outbox.cif.g08.bks.cpg/sg96_2_cif.got.tgz:3170.got - 2010.06.03 19:52:08.
