data_PCOD9551611
_publ_section_title
;
Structure prediction by ZEFSAII (Michael W. Deem and Ramdas Pophale) SiO2 
 PCOD9551611
Probable space group: I 4 2 2 
;
_chemical_formula_sum "Si O2"
_cell_formula_units_Z 48
_cell_length_a 18.336592
_cell_length_b 18.336592
_cell_length_c 6.635405
_cell_angle_alpha 90.000000
_cell_angle_beta 90.000000
_cell_angle_gamma 90.000000
_cell_volume 2231.026245
_symmetry_space_group_name_H-M "I 4 2 2 "
_symmetry_group_IT_number 97
_symmetry_cell_setting 'tetragonal'
loop_
_space_group_symop_operation_xyz
x,y,z
-y,x,z
-x,-y,z
y,-x,z
x,-y,-z
-x,y,-z
y,x,-z
-y,-x,-z
1/2+x,1/2+y,1/2+z
1/2-y,1/2+x,1/2+z
1/2-x,1/2-y,1/2+z
1/2+y,1/2-x,1/2+z
1/2+x,1/2-y,1/2-z
1/2-x,1/2+y,1/2-z
1/2+y,1/2+x,1/2-z
1/2-y,1/2-x,1/2-z
loop_
_atom_site_type_symbol
_atom_site_label
_atom_site_fract_x
_atom_site_fract_y
_atom_site_fract_z
Si Si1 0.568468 0.168964 0.654210
Si Si2 0.797240 0.921926 0.494977
Si Si3 0.841829 0.754077 0.132884
O O1 0.500000 0.166785 0.500000
O O2 0.591390 0.091390 0.750000
O O3 0.569410 0.235376 0.820169
O O4 0.637358 0.189612 0.515010
O O5 0.854841 0.854841 0.500000
O O6 0.760052 0.906330 0.709211
O O7 0.836297 0.000000 0.500000
O O8 0.768844 0.731157 0.250000
O O9 0.825091 0.825091 0.000000
#
# Coordination Sequence:
#
# PCOD9551611 Si02
#       3
#    16  16  16
#     4  12  25  43  71 105 144 191 241 304 374 446
#     4  12  25  42  68 103 143 190 239 299 367 442
#     4  12  22  38  69 105 141 177 242 304 368 436
#
# _framework density 21.514762000000001
#
# number of rings (size 3 to 8) (size 9 to 14) (size 15 to 20)
#    0.000    0.000   10.000    2.000    0.000    0.333 
#    0.000    0.000    0.000   14.000    0.000    0.000 
#    0.000    0.000    0.000    0.000    0.000    0.000 
#
# Total GULP energy -133623.979139 kJ/mol
# GULP energy per Si atom -5567.665797 kJ/mol
# Density = 2.146579 g / cm^3
# Si number density = 21.514762 Si / 1000 Ang^3
#
#
#
# Elastic Constant Matrix: (Units=GPa)
#
#
# Indices 1 2 3 4 5 6 
#
# 1 102.9155 51.9887 54.0712 0.0000 0.0000 0.0000
# 2 51.9887 102.9141 54.0710 0.0000 0.0000 0.0000
# 3 54.0712 54.0710 126.4453 0.0000 0.0000 0.0000
# 4 0.0000 0.0000 0.0000 36.4750 0.0000 0.0000
# 5 0.0000 0.0000 0.0000 0.0000 36.4755 0.0000
# 6 0.0000 0.0000 0.0000 0.0000 0.0000 17.5510
#
#
#
# Elastic Compliance Matrix: (Units=1/GPa)
#
#
# Indices 1 2 3 4 5 6 
#
# 1 0.014420 -0.005217 -0.003935 0.000000 0.000000 0.000000
# 2 -0.005217 0.014420 -0.003936 0.000000 0.000000 0.000000
# 3 -0.003935 -0.003936 0.011274 0.000000 0.000000 0.000000
# 4 0.000000 0.000000 0.000000 0.027416 0.000000 0.000000
# 5 0.000000 0.000000 0.000000 0.000000 0.027416 0.000000
# 6 0.000000 0.000000 0.000000 0.000000 0.000000 0.056977
#
#
# Mechanical properties :
#
#
# Convention : Reuss Voigt Hill
#
# Bulk Modulus (GPa) = 71.74286 72.50409 72.12347
# Shear Modulus (GPa) = 27.36074 29.57657 28.46866
#
# Velocity S-wave (km/s) = 3.56999 3.71173 3.64155
# Velocity P-wave (km/s) = 7.10009 7.22095 7.16078
#
# Compressibility (1/GPa) = 0.01393867
#
# Stress axis : x y z
#
# Youngs Moduli (GPa) = 69.35021 69.34902 88.69686
#
# Poissons Ratio (x) = 0.36177 0.34906
# Poissons Ratio (y) = 0.36177 0.34907
# Poissons Ratio (z) = 0.27292 0.27292
#
# Static dielectric constant tensor:
#      x y z
#    x 1.823900 0.000000 0.000000 
#    y 0.000000 1.823900 0.000000 
#    z 0.000000 0.000000 1.933590 
# 
# From -- ./inp_files/445.got.cif
#   From: 2010.05.17/outbox.cif.g08.bks.cpg/sg97_1_cif.got.tgz:445.got - 2010.06.03 19:55:32.
