data_PCOD9551794
_publ_section_title
;
Structure prediction by ZEFSAII (Michael W. Deem and Ramdas Pophale) SiO2 
 PCOD9551794
Probable space group: I 41 2 2
;
_chemical_formula_sum "Si O2"
_cell_formula_units_Z 64
_cell_length_a 15.739899
_cell_length_b 15.739899
_cell_length_c 12.959946
_cell_angle_alpha 90.000000
_cell_angle_beta 90.000000
_cell_angle_gamma 90.000000
_cell_volume 3210.754312
_symmetry_space_group_name_H-M "I 41 2 2"
_symmetry_group_IT_number 98
_symmetry_cell_setting 'tetragonal'
loop_
_space_group_symop_operation_xyz
x,y,z
-y,1/2+x,1/4+z
-x,-y,z
y,1/2-x,1/4+z
x,1/2-y,1/4-z
-x,1/2+y,1/4-z
y,x,-z
-y,-x,-z
1/2+x,1/2+y,1/2+z
1/2-y,x,3/4+z
1/2-x,1/2-y,1/2+z
1/2+y,-x,3/4+z
1/2+x,-y,3/4-z
1/2-x,y,3/4-z
1/2+y,1/2+x,1/2-z
1/2-y,1/2-x,1/2-z
loop_
_atom_site_type_symbol
_atom_site_label
_atom_site_fract_x
_atom_site_fract_y
_atom_site_fract_z
Si Si1 0.375647 0.008315 0.300880
Si Si2 0.213027 0.953305 0.181323
Si Si3 0.573618 0.940196 0.533281
Si Si4 0.810501 0.428771 0.473326
O O1 0.437799 0.937799 0.250000
O O2 0.282905 0.978229 0.266842
O O3 0.402160 0.097841 0.250000
O O4 0.400514 0.024307 0.419484
O O5 0.145358 0.881409 0.215258
O O6 0.158949 0.038780 0.155209
O O7 0.260966 0.920300 0.080395
O O8 0.523314 0.852582 0.525229
O O9 0.500000 0.000000 0.578671
O O10 0.750000 0.421332 0.375000
#
# Coordination Sequence:
#
# PCOD9551794 Si02
#       4
#    16  16  16  16
#     4  11  18  35  64  93 126 157 201 265 325 372
#     4  11  23  39  66  92 124 161 213 267 315 373
#     4  10  20  38  61  89 119 167 211 245 311 380
#     4  11  24  42  62  91 130 171 210 254 311 378
#
# _framework density 19.933012000000002
#
# number of rings (size 3 to 8) (size 9 to 14) (size 15 to 20)
#    0.000    1.250    5.000    3.000    0.000    3.000 
#    0.000    6.250    5.500    0.000    0.000    0.000 
#    0.000    0.000    0.000    0.000    0.000    0.000 
#
# Total GULP energy -178282.435296 kJ/mol
# GULP energy per Si atom -5571.326103 kJ/mol
# Density = 1.988764 g / cm^3
# Si number density = 19.933012 Si / 1000 Ang^3
#
#
#
# Elastic Constant Matrix: (Units=GPa)
#
#
# Indices 1 2 3 4 5 6 
#
# 1 89.0760 96.3512 40.2288 0.0000 0.0000 0.0000
# 2 96.3512 89.0710 40.2291 0.0000 0.0000 0.0000
# 3 40.2288 40.2291 79.5074 0.0000 0.0000 0.0000
# 4 0.0000 0.0000 0.0000 60.6025 0.0000 0.0000
# 5 0.0000 0.0000 0.0000 0.0000 60.6182 0.0000
# 6 0.0000 0.0000 0.0000 0.0000 0.0000 34.1006
#
#
#
# Elastic Compliance Matrix: (Units=1/GPa)
#
#
# Indices 1 2 3 4 5 6 
#
# 1 -0.065246 0.072158 -0.003498 0.000000 0.000000 0.000000
# 2 0.072158 -0.065251 -0.003495 0.000000 0.000000 0.000000
# 3 -0.003498 -0.003495 0.016116 0.000000 0.000000 0.000000
# 4 0.000000 0.000000 0.000000 0.016501 0.000000 0.000000
# 5 0.000000 0.000000 0.000000 0.000000 0.016497 0.000000
# 6 0.000000 0.000000 0.000000 0.000000 0.000000 0.029325
#
#
# Mechanical properties :
#
#
# Convention : Reuss Voigt Hill
#
# Bulk Modulus (GPa) = 62.69435 67.91919 65.30677
# Shear Modulus (GPa) = -28.23712 36.45393 4.10841
#
# Velocity S-wave (km/s) = -3.76786 4.28111 1.43721
# Velocity P-wave (km/s) = 3.54849 7.65408 5.96560
#
# Compressibility (1/GPa) = 0.01595040
#
# Stress axis : x y z
#
# Youngs Moduli (GPa) = -15.32672 -15.32553 62.05156
#
# Poissons Ratio (x) = 1.10586 0.21705
# Poissons Ratio (y) = 1.10595 0.21686
# Poissons Ratio (z) = -0.05361 -0.05356
#
# Static dielectric constant tensor:
#      x y z
#    x 1.721000 0.000000 0.000000 
#    y 0.000000 1.720990 0.000000 
#    z 0.000000 0.000000 1.748230 
# 
# From -- ./inp_files/6220.got.cif
#   From: 2010.05.17/outbox.cif.g08.bks.cpg/sg98_4_cif.got.tgz:6220.got - 2010.06.03 20:00:51.
