data_PCOD9551362
_publ_section_title
;
Structure prediction by ZEFSAII (Michael W. Deem and Ramdas Pophale) SiO2 
 PCOD9551362
Probable space group: I 4 2 2 
;
_chemical_formula_sum "Si O2"
_cell_formula_units_Z 92
_cell_length_a 13.580442
_cell_length_b 13.580442
_cell_length_c 22.033292
_cell_angle_alpha 90.000000
_cell_angle_beta 90.000000
_cell_angle_gamma 90.000000
_cell_volume 4063.564899
_symmetry_space_group_name_H-M "I 4 2 2 "
_symmetry_group_IT_number 97
_symmetry_cell_setting 'tetragonal'
loop_
_space_group_symop_operation_xyz
x,y,z
-y,x,z
-x,-y,z
y,-x,z
x,-y,-z
-x,y,-z
y,x,-z
-y,-x,-z
1/2+x,1/2+y,1/2+z
1/2-y,1/2+x,1/2+z
1/2-x,1/2-y,1/2+z
1/2+y,1/2-x,1/2+z
1/2+x,1/2-y,1/2-z
1/2-x,1/2+y,1/2-z
1/2+y,1/2+x,1/2-z
1/2-y,1/2-x,1/2-z
loop_
_atom_site_type_symbol
_atom_site_label
_atom_site_fract_x
_atom_site_fract_y
_atom_site_fract_z
Si Si1 0.828599 0.237108 0.870564
Si Si2 0.601343 0.309075 0.866905
Si Si3 0.115376 0.228679 0.767512
Si Si4 0.582834 0.857715 0.047694
Si Si5 0.504080 0.885217 0.654460
Si Si6 0.210236 0.789765 0.000000
Si Si7 0.000000 0.000000 0.601386
O O1 0.714575 0.272149 0.870830
O O2 0.844624 0.152678 0.819744
O O3 0.892157 0.333173 0.856127
O O4 0.845875 0.190653 0.937052
O O5 0.572802 0.311954 0.795459
O O6 0.545725 0.224692 0.904644
O O7 0.585920 0.415229 0.895439
O O8 0.216326 0.283675 0.750000
O O9 0.049973 0.313860 0.797830
O O10 0.617628 0.946634 0.090296
O O11 0.500000 0.884596 0.000000
O O12 0.675234 0.812189 0.012385
O O13 0.500000 0.000000 0.673056
#
# Coordination Sequence:
#
# PCOD9551362 Si02
#       7
#    16  16  16  16  16   8   4
#     4  10  23  42  71  94 141 185 222 296 360 415
#     4  10  25  47  66 102 139 190 238 294 357 438
#     4  10  21  49  63  96 142 179 233 287 360 424
#     4  11  24  44  67 101 148 181 239 297 360 435
#     4  12  25  42  73 110 135 187 239 301 361 437
#     4  10  20  42  64  91 139 186 212 292 352 420
#     4  12  28  40  77  96 132 193 244 276 350 436
#
# _framework density 22.640218999999998
#
# number of rings (size 3 to 8) (size 9 to 14) (size 15 to 20)
#    0.000    1.391    5.217    1.043    9.739    2.783 
#    6.261    0.435    0.000    0.000    0.000    1.217 
#    0.000    0.000    0.000    0.000    0.000    0.000 
#
# Total GULP energy -256435.119978 kJ/mol
# GULP energy per Si atom -5574.676521 kJ/mol
# Density = 2.258869 g / cm^3
# Si number density = 22.640219 Si / 1000 Ang^3
#
#
#
# Elastic Constant Matrix: (Units=GPa)
#
#
# Indices 1 2 3 4 5 6 
#
# 1 57.4635 15.0117 19.1708 0.0000 0.0000 0.0000
# 2 15.0117 57.4642 19.1713 0.0000 0.0000 0.0000
# 3 19.1708 19.1713 114.9831 0.0000 0.0000 0.0000
# 4 0.0000 0.0000 0.0000 7.0175 0.0000 0.0000
# 5 0.0000 0.0000 0.0000 0.0000 7.0165 0.0000
# 6 0.0000 0.0000 0.0000 0.0000 0.0000 39.2277
#
#
#
# Elastic Compliance Matrix: (Units=1/GPa)
#
#
# Indices 1 2 3 4 5 6 
#
# 1 0.019344 -0.004212 -0.002523 0.000000 0.000000 0.000000
# 2 -0.004212 0.019344 -0.002523 0.000000 0.000000 0.000000
# 3 -0.002523 -0.002523 0.009538 0.000000 0.000000 0.000000
# 4 0.000000 0.000000 0.000000 0.142501 0.000000 0.000000
# 5 0.000000 0.000000 0.000000 0.000000 0.142520 0.000000
# 6 0.000000 0.000000 0.000000 0.000000 0.000000 0.025492
#
#
# Mechanical properties :
#
#
# Convention : Reuss Voigt Hill
#
# Bulk Modulus (GPa) = 33.65737 37.40204 35.52971
# Shear Modulus (GPa) = 12.91458 22.42282 17.66870
#
# Velocity S-wave (km/s) = 2.39095 3.15047 2.79662
# Velocity P-wave (km/s) = 4.74559 5.45802 5.11423
#
# Compressibility (1/GPa) = 0.02971118
#
# Stress axis : x y z
#
# Youngs Moduli (GPa) = 51.69478 51.69527 104.84098
#
# Poissons Ratio (x) = 0.21772 0.26451
# Poissons Ratio (y) = 0.21772 0.26452
# Poissons Ratio (z) = 0.13043 0.13043
#
# Static dielectric constant tensor:
#      x y z
#    x 1.870680 0.000000 0.000000 
#    y 0.000000 1.870680 0.000000 
#    z 0.000000 0.000000 1.970950 
# 
# From -- ./inp_files/6698.got.cif
#   From: 2010.05.17/outbox.cif.g08.bks.cpg/sg97_4_cif.got.tgz:6698.got - 2010.06.03 19:55:32.
