data_PCOD9551364
_publ_section_title
;
Structure prediction by ZEFSAII (Michael W. Deem and Ramdas Pophale) SiO2 
 PCOD9551364
Probable space group: I 4 2 2 
;
_chemical_formula_sum "Si O2"
_cell_formula_units_Z 120
_cell_length_a 28.515332
_cell_length_b 28.515332
_cell_length_c 8.370651
_cell_angle_alpha 90.000000
_cell_angle_beta 90.000000
_cell_angle_gamma 90.000000
_cell_volume 6806.378555
_symmetry_space_group_name_H-M "I 4 2 2 "
_symmetry_group_IT_number 97
_symmetry_cell_setting 'tetragonal'
loop_
_space_group_symop_operation_xyz
x,y,z
-y,x,z
-x,-y,z
y,-x,z
x,-y,-z
-x,y,-z
y,x,-z
-y,-x,-z
1/2+x,1/2+y,1/2+z
1/2-y,1/2+x,1/2+z
1/2-x,1/2-y,1/2+z
1/2+y,1/2-x,1/2+z
1/2+x,1/2-y,1/2-z
1/2-x,1/2+y,1/2-z
1/2+y,1/2+x,1/2-z
1/2-y,1/2-x,1/2-z
loop_
_atom_site_type_symbol
_atom_site_label
_atom_site_fract_x
_atom_site_fract_y
_atom_site_fract_z
Si Si1 0.174750 0.500000 0.500000
Si Si2 0.646621 0.804458 0.390398
Si Si3 0.262855 0.802743 0.416744
Si Si4 0.151740 0.585219 0.670031
Si Si5 0.584326 0.760104 0.895590
Si Si6 0.987390 0.180539 0.686280
Si Si7 0.492676 0.424548 0.691735
Si Si8 0.058105 0.257091 0.764298
O O1 0.142542 0.537622 0.582294
O O2 0.207160 0.526968 0.369950
O O3 0.658718 0.841283 0.250000
O O4 0.696445 0.788795 0.457582
O O5 0.622265 0.829424 0.540165
O O6 0.610867 0.764367 0.331104
O O7 0.216492 0.783509 0.500000
O O8 0.278979 0.778979 0.250000
O O9 0.257729 0.859004 0.401062
O O10 0.107506 0.607506 0.750000
O O11 0.193813 0.575093 0.792186
O O12 0.557844 0.715575 0.814379
O O13 0.563385 0.766307 0.074157
O O14 0.983013 0.128354 0.754050
O O15 0.000000 0.175776 0.500000
O O16 0.030314 0.207993 0.772851
O O17 0.540924 0.450355 0.745294
O O18 0.500000 0.424359 0.500000
#
# Coordination Sequence:
#
# PCOD9551364 Si02
#       8
#     8  16  16  16  16  16  16  16
#     4  10  22  32  56  92 118 154 196 244 298 360
#     4  11  19  35  57  84 112 159 201 245 295 359
#     4  12  24  40  58  81 118 170 215 248 303 368
#     4  11  19  35  58  82 119 158 197 244 299 361
#     4  11  20  40  57  81 117 163 193 252 303 358
#     4  10  22  37  58  87 120 153 189 250 315 357
#     4   9  20  41  64  82 106 144 191 247 313 381
#     4  10  21  34  58  85 122 151 194 249 307 349
#
# _framework density 17.630520000000001
#
# number of rings (size 3 to 8) (size 9 to 14) (size 15 to 20)
#    0.000    1.467    5.333    0.800    0.933    0.533 
#    4.800    0.667    0.000    0.000    0.000    0.000 
#    0.000   64.000    0.000    0.000    0.000    0.000 
#
# Total GULP energy -334304.965206 kJ/mol
# GULP energy per Si atom -5571.749420 kJ/mol
# Density = 1.759039 g / cm^3
# Si number density = 17.630520 Si / 1000 Ang^3
#
#
#
# Elastic Constant Matrix: (Units=GPa)
#
#
# Indices 1 2 3 4 5 6 
#
# 1 106.1899 58.1422 37.5737 0.0000 0.0000 0.0000
# 2 58.1422 106.1841 37.5710 0.0000 0.0000 0.0000
# 3 37.5737 37.5710 61.9285 0.0000 0.0000 0.0000
# 4 0.0000 0.0000 0.0000 28.9642 0.0000 0.0000
# 5 0.0000 0.0000 0.0000 0.0000 28.9650 0.0000
# 6 0.0000 0.0000 0.0000 0.0000 0.0000 23.7796
#
#
#
# Elastic Compliance Matrix: (Units=1/GPa)
#
#
# Indices 1 2 3 4 5 6 
#
# 1 0.014618 -0.006196 -0.005110 0.000000 0.000000 0.000000
# 2 -0.006196 0.014618 -0.005109 0.000000 0.000000 0.000000
# 3 -0.005110 -0.005109 0.022348 0.000000 0.000000 0.000000
# 4 0.000000 0.000000 0.000000 0.034525 0.000000 0.000000
# 5 0.000000 0.000000 0.000000 0.000000 0.034524 0.000000
# 6 0.000000 0.000000 0.000000 0.000000 0.000000 0.042053
#
#
# Mechanical properties :
#
#
# Convention : Reuss Voigt Hill
#
# Bulk Modulus (GPa) = 53.32464 60.09736 56.71100
# Shear Modulus (GPa) = 24.78101 25.74282 25.26191
#
# Velocity S-wave (km/s) = 3.75317 3.82531 3.78941
# Velocity P-wave (km/s) = 7.00664 7.32610 7.16815
#
# Compressibility (1/GPa) = 0.01875306
#
# Stress axis : x y z
#
# Youngs Moduli (GPa) = 68.41033 68.40833 44.74739
#
# Poissons Ratio (x) = 0.42386 0.22866
# Poissons Ratio (y) = 0.42387 0.22863
# Poissons Ratio (z) = 0.34957 0.34952
#
# Static dielectric constant tensor:
#      x y z
#    x 1.604260 0.000000 0.000000 
#    y 0.000000 1.604260 0.000000 
#    z 0.000000 0.000000 1.702780 
# 
# From -- ./inp_files/2667.got.cif
#   From: 2010.05.17/outbox.cif.g08.bks.cpg/sg97_2_cif.got.tgz:2667.got - 2010.06.03 19:55:32.
