data_PCOD9551939
_publ_section_title
;
Structure prediction by ZEFSAII (Michael W. Deem and Ramdas Pophale) SiO2 
 PCOD9551939
Probable space group: I 41 2 2
;
_chemical_formula_sum "Si O2"
_cell_formula_units_Z 64
_cell_length_a 10.533096
_cell_length_b 10.533096
_cell_length_c 28.368422
_cell_angle_alpha 90.000000
_cell_angle_beta 90.000000
_cell_angle_gamma 90.000000
_cell_volume 3147.366106
_symmetry_space_group_name_H-M "I 41 2 2"
_symmetry_group_IT_number 98
_symmetry_cell_setting 'tetragonal'
loop_
_space_group_symop_operation_xyz
x,y,z
-y,1/2+x,1/4+z
-x,-y,z
y,1/2-x,1/4+z
x,1/2-y,1/4-z
-x,1/2+y,1/4-z
y,x,-z
-y,-x,-z
1/2+x,1/2+y,1/2+z
1/2-y,x,3/4+z
1/2-x,1/2-y,1/2+z
1/2+y,-x,3/4+z
1/2+x,-y,3/4-z
1/2-x,y,3/4-z
1/2+y,1/2+x,1/2-z
1/2-y,1/2-x,1/2-z
loop_
_atom_site_type_symbol
_atom_site_label
_atom_site_fract_x
_atom_site_fract_y
_atom_site_fract_z
Si Si1 0.932843 0.617756 0.441827
Si Si2 0.315304 0.315304 0.000000
Si Si3 0.250000 0.975743 0.875000
Si Si4 0.737895 0.295476 0.695621
Si Si5 0.490724 0.149734 0.160507
O O1 0.831935 0.680789 0.475613
O O2 0.863927 0.563782 0.395047
O O3 0.000000 0.500000 0.466847
O O4 0.053632 0.709743 0.437134
O O5 0.415152 0.343853 0.040825
O O6 0.225061 0.876852 0.918174
O O7 0.754053 0.254053 0.750000
O O8 0.874881 0.284625 0.672253
O O9 0.425297 0.250000 0.125000
O O10 0.500000 0.000000 0.145884
#
# Coordination Sequence:
#
# PCOD9551939 Si02
#       5
#    16   8   8  16  16
#     4  10  23  41  66  99 141 191 232 291 364 429
#     4  12  23  42  72 102 151 178 244 305 364 428
#     4  10  24  44  62 100 146 188 224 296 360 454
#     4  11  20  43  72  96 137 183 239 298 364 430
#     4  12  24  41  71 111 140 180 240 308 371 437
#
# _framework density 20.334464000000001
#
# number of rings (size 3 to 8) (size 9 to 14) (size 15 to 20)
#    0.000    1.000    6.250    0.375    1.750    1.000 
#    0.000   15.000    0.000    0.000    0.000    0.000 
#    0.000    0.000    0.000    0.000    0.000    0.000 
#
# Total GULP energy -178145.003686 kJ/mol
# GULP energy per Si atom -5567.031365 kJ/mol
# Density = 2.028818 g / cm^3
# Si number density = 20.334464 Si / 1000 Ang^3
#
#
#
# Elastic Constant Matrix: (Units=GPa)
#
#
# Indices 1 2 3 4 5 6 
#
# 1 88.0707 21.7420 60.9200 0.0000 0.0000 0.0000
# 2 21.7420 88.0707 60.9200 0.0000 0.0000 0.0000
# 3 60.9200 60.9200 153.3193 0.0000 0.0000 0.0000
# 4 0.0000 0.0000 0.0000 29.9464 0.0000 0.0000
# 5 0.0000 0.0000 0.0000 0.0000 29.9464 0.0000
# 6 0.0000 0.0000 0.0000 0.0000 0.0000 17.2734
#
#
#
# Elastic Compliance Matrix: (Units=1/GPa)
#
#
# Indices 1 2 3 4 5 6 
#
# 1 0.015681 0.000605 -0.006471 0.000000 0.000000 0.000000
# 2 0.000605 0.015681 -0.006471 0.000000 0.000000 0.000000
# 3 -0.006471 -0.006471 0.011665 0.000000 0.000000 0.000000
# 4 0.000000 0.000000 0.000000 0.033393 0.000000 0.000000
# 5 0.000000 0.000000 0.000000 0.000000 0.033393 0.000000
# 6 0.000000 0.000000 0.000000 0.000000 0.000000 0.057892
#
#
# Mechanical properties :
#
#
# Convention : Reuss Voigt Hill
#
# Bulk Modulus (GPa) = 54.48772 68.51384 61.50078
# Shear Modulus (GPa) = 25.18908 27.82518 26.50713
#
# Velocity S-wave (km/s) = 3.52339 3.70317 3.61440
# Velocity P-wave (km/s) = 6.58834 7.21465 6.90860
#
# Compressibility (1/GPa) = 0.01835276
#
# Stress axis : x y z
#
# Youngs Moduli (GPa) = 63.76970 63.76970 85.72711
#
# Poissons Ratio (x) = -0.03858 0.55476
# Poissons Ratio (y) = -0.03858 0.55476
# Poissons Ratio (z) = 0.41267 0.41267
#
# Static dielectric constant tensor:
#      x y z
#    x 1.838080 0.000000 0.000000 
#    y 0.000000 1.838080 0.000000 
#    z 0.000000 0.000000 1.715990 
# 
# From -- ./inp_files/10703.got.cif
#   From: 2010.05.17/outbox.cif.g08.bks.cpg/sg98_6_cif.got.tgz:10703.got - 2010.06.03 20:00:51.
