data_PCOD9551841
_publ_section_title
;
Structure prediction by ZEFSAII (Michael W. Deem and Ramdas Pophale) SiO2 
 PCOD9551841
Probable space group: I 41 2 2
;
_chemical_formula_sum "Si O2"
_cell_formula_units_Z 48
_cell_length_a 21.881287
_cell_length_b 21.881287
_cell_length_c 4.984549
_cell_angle_alpha 90.000000
_cell_angle_beta 90.000000
_cell_angle_gamma 90.000000
_cell_volume 2386.555808
_symmetry_space_group_name_H-M "I 41 2 2"
_symmetry_group_IT_number 98
_symmetry_cell_setting 'tetragonal'
loop_
_space_group_symop_operation_xyz
x,y,z
-y,1/2+x,1/4+z
-x,-y,z
y,1/2-x,1/4+z
x,1/2-y,1/4-z
-x,1/2+y,1/4-z
y,x,-z
-y,-x,-z
1/2+x,1/2+y,1/2+z
1/2-y,x,3/4+z
1/2-x,1/2-y,1/2+z
1/2+y,-x,3/4+z
1/2+x,-y,3/4-z
1/2-x,y,3/4-z
1/2+y,1/2+x,1/2-z
1/2-y,1/2-x,1/2-z
loop_
_atom_site_type_symbol
_atom_site_label
_atom_site_fract_x
_atom_site_fract_y
_atom_site_fract_z
Si Si1 0.416045 0.177708 0.627641
Si Si2 0.682709 0.317292 0.500000
Si Si3 0.621220 0.378781 0.000000
Si Si4 0.995162 0.677216 0.629645
O O1 0.402554 0.250000 0.625000
O O2 0.360990 0.139011 0.750000
O O3 0.437986 0.165637 0.326052
O O4 0.473351 0.164452 0.827386
O O5 0.676113 0.250000 0.625000
O O6 0.641464 0.337996 0.253114
O O7 0.549944 0.362401 0.996732
O O8 0.010966 0.750000 0.625000
#
# Coordination Sequence:
#
# PCOD9551841 Si02
#       4
#    16   8   8  16
#     4  10  21  40  63  88 119 152 191 245 307 366
#     4  12  23  36  54  82 117 151 200 265 311 338
#     4  12  23  38  59  84 116 165 208 239 292 362
#     4  10  21  38  59  85 119 159 201 245 295 354
#
# _framework density 20.112666999999998
#
# number of rings (size 3 to 8) (size 9 to 14) (size 15 to 20)
#    0.000    1.333    0.000    7.000    0.000    2.667 
#    0.000   10.000    0.000    0.000    0.000    0.000 
#    0.000    0.000    0.000    0.000    0.000    0.000 
#
# Total GULP energy -133861.986573 kJ/mol
# GULP energy per Si atom -5577.582774 kJ/mol
# Density = 2.006689 g / cm^3
# Si number density = 20.112667 Si / 1000 Ang^3
#
#
#
# Elastic Constant Matrix: (Units=GPa)
#
#
# Indices 1 2 3 4 5 6 
#
# 1 82.2908 63.5216 18.1027 0.0000 0.0000 0.0000
# 2 63.5216 82.2854 18.1076 0.0000 0.0000 0.0000
# 3 18.1027 18.1076 112.3929 0.0000 0.0000 0.0000
# 4 0.0000 0.0000 0.0000 36.8429 0.0000 0.0000
# 5 0.0000 0.0000 0.0000 0.0000 36.8439 0.0000
# 6 0.0000 0.0000 0.0000 0.0000 0.0000 32.2623
#
#
#
# Elastic Compliance Matrix: (Units=1/GPa)
#
#
# Indices 1 2 3 4 5 6 
#
# 1 0.030214 -0.023071 -0.001149 0.000000 0.000000 0.000000
# 2 -0.023071 0.030217 -0.001152 0.000000 0.000000 0.000000
# 3 -0.001149 -0.001152 0.009268 0.000000 0.000000 0.000000
# 4 0.000000 0.000000 0.000000 0.027142 0.000000 0.000000
# 5 0.000000 0.000000 0.000000 0.000000 0.027142 0.000000
# 6 0.000000 0.000000 0.000000 0.000000 0.000000 0.030996
#
#
# Mechanical properties :
#
#
# Convention : Reuss Voigt Hill
#
# Bulk Modulus (GPa) = 52.76225 52.93697 52.84961
# Shear Modulus (GPa) = 23.58027 33.00563 28.29295
#
# Velocity S-wave (km/s) = 3.42776 4.05537 3.75470
# Velocity P-wave (km/s) = 6.47737 6.95020 6.71795
#
# Compressibility (1/GPa) = 0.01895294
#
# Stress axis : x y z
#
# Youngs Moduli (GPa) = 33.09734 33.09442 107.89669
#
# Poissons Ratio (x) = 0.76353 0.12402
# Poissons Ratio (y) = 0.76359 0.12432
# Poissons Ratio (z) = 0.03804 0.03813
#
# Static dielectric constant tensor:
#      x y z
#    x 1.722680 0.000000 0.000000 
#    y 0.000000 1.722680 0.000000 
#    z 0.000000 0.000000 1.697100 
# 
# From -- ./inp_files/881.got.cif
#   From: 2010.05.17/outbox.cif.g08.bks.cpg/sg98_1_cif.got.tgz:881.got - 2010.06.03 20:00:51.
