data_PCOD9551913
_publ_section_title
;
Structure prediction by ZEFSAII (Michael W. Deem and Ramdas Pophale) SiO2 
 PCOD9551913
Probable space group: I 41 2 2
;
_chemical_formula_sum "Si O2"
_cell_formula_units_Z 88
_cell_length_a 11.466856
_cell_length_b 11.466856
_cell_length_c 28.101583
_cell_angle_alpha 90.000000
_cell_angle_beta 90.000000
_cell_angle_gamma 90.000000
_cell_volume 3695.043048
_symmetry_space_group_name_H-M "I 41 2 2"
_symmetry_group_IT_number 98
_symmetry_cell_setting 'tetragonal'
loop_
_space_group_symop_operation_xyz
x,y,z
-y,1/2+x,1/4+z
-x,-y,z
y,1/2-x,1/4+z
x,1/2-y,1/4-z
-x,1/2+y,1/4-z
y,x,-z
-y,-x,-z
1/2+x,1/2+y,1/2+z
1/2-y,x,3/4+z
1/2-x,1/2-y,1/2+z
1/2+y,-x,3/4+z
1/2+x,-y,3/4-z
1/2-x,y,3/4-z
1/2+y,1/2+x,1/2-z
1/2-y,1/2-x,1/2-z
loop_
_atom_site_type_symbol
_atom_site_label
_atom_site_fract_x
_atom_site_fract_y
_atom_site_fract_z
Si Si1 0.726023 0.278025 0.193802
Si Si2 0.750000 0.007662 0.375000
Si Si3 0.500000 0.000000 0.005989
Si Si4 0.131412 0.368589 0.750000
Si Si5 0.861855 0.989981 0.089031
Si Si6 0.778603 0.471851 0.060285
Si Si7 0.164306 0.357651 0.564582
O O1 0.744979 0.244979 0.250000
O O2 0.595551 0.272217 0.170043
O O3 0.800840 0.391815 0.180709
O O4 0.773281 0.159316 0.171039
O O5 0.649088 0.911587 0.386611
O O6 0.478132 0.886390 0.975289
O O7 0.609917 0.967803 0.037570
O O8 0.162972 0.481612 0.717375
O O9 0.238931 0.360433 0.786566
O O10 0.817975 0.961989 0.142577
O O11 0.801772 0.880255 0.063464
O O12 0.000000 0.000000 0.085989
#
# Coordination Sequence:
#
# PCOD9551913 Si02
#       7
#    16   8   8   8  16  16  16
#     4  12  26  47  75 109 150 199 256 318 392 459
#     4  12  24  48  74 108 148 200 252 320 382 464
#     4  10  22  42  74  96 152 198 238 320 386 450
#     4  10  24  46  72 108 148 196 248 316 381 462
#     4  12  26  46  73 109 150 204 256 319 380 470
#     4  11  22  45  68 108 147 196 251 310 389 448
#     4  11  24  44  69 105 141 196 250 308 380 456
#
# _framework density 23.815691999999999
#
# number of rings (size 3 to 8) (size 9 to 14) (size 15 to 20)
#    0.000    0.727    2.727    5.455    0.000    4.727 
#    9.818    3.182    0.000    0.000    0.000    0.000 
#    0.000    0.000    0.000    0.000    0.000    0.000 
#
# Total GULP energy -245072.418827 kJ/mol
# GULP energy per Si atom -5569.827701 kJ/mol
# Density = 2.376149 g / cm^3
# Si number density = 23.815692 Si / 1000 Ang^3
#
#
#
# Elastic Constant Matrix: (Units=GPa)
#
#
# Indices 1 2 3 4 5 6 
#
# 1 111.8130 51.5060 32.6830 0.0000 0.0000 0.0000
# 2 51.5060 111.8126 32.6829 0.0000 0.0000 0.0000
# 3 32.6830 32.6829 101.4990 0.0000 0.0000 0.0000
# 4 0.0000 0.0000 0.0000 23.2152 0.0000 0.0000
# 5 0.0000 0.0000 0.0000 0.0000 23.2154 0.0000
# 6 0.0000 0.0000 0.0000 0.0000 0.0000 35.5004
#
#
#
# Elastic Compliance Matrix: (Units=1/GPa)
#
#
# Indices 1 2 3 4 5 6 
#
# 1 0.011805 -0.004777 -0.002263 0.000000 0.000000 0.000000
# 2 -0.004777 0.011805 -0.002263 0.000000 0.000000 0.000000
# 3 -0.002263 -0.002263 0.011310 0.000000 0.000000 0.000000
# 4 0.000000 0.000000 0.000000 0.043075 0.000000 0.000000
# 5 0.000000 0.000000 0.000000 0.000000 0.043075 0.000000
# 6 0.000000 0.000000 0.000000 0.000000 0.000000 0.028169
#
#
# Mechanical properties :
#
#
# Convention : Reuss Voigt Hill
#
# Bulk Modulus (GPa) = 61.29569 62.09649 61.69609
# Shear Modulus (GPa) = 28.85440 30.26971 29.56206
#
# Velocity S-wave (km/s) = 3.48454 3.56897 3.52701
# Velocity P-wave (km/s) = 6.47941 6.56611 6.52290
#
# Compressibility (1/GPa) = 0.01631436
#
# Stress axis : x y z
#
# Youngs Moduli (GPa) = 84.70734 84.70713 88.41817
#
# Poissons Ratio (x) = 0.40460 0.20012
# Poissons Ratio (y) = 0.40461 0.20012
# Poissons Ratio (z) = 0.19172 0.19172
#
# Static dielectric constant tensor:
#      x y z
#    x 1.942380 0.000000 0.000000 
#    y 0.000000 1.942380 0.000000 
#    z 0.000000 0.000000 2.072560 
# 
# From -- ./inp_files/11981.got.cif
#   From: 2010.05.17/outbox.cif.g08.bks.cpg/sg98_6_cif.got.tgz:11981.got - 2010.06.03 20:00:51.
