data_PCOD9551594
_publ_section_title
;
Structure prediction by ZEFSAII (Michael W. Deem and Ramdas Pophale) SiO2 
 PCOD9551594
Probable space group: I 4 2 2 
;
_chemical_formula_sum "Si O2"
_cell_formula_units_Z 48
_cell_length_a 15.946869
_cell_length_b 15.946869
_cell_length_c 7.396040
_cell_angle_alpha 90.000000
_cell_angle_beta 90.000000
_cell_angle_gamma 90.000000
_cell_volume 1880.832430
_symmetry_space_group_name_H-M "I 4 2 2 "
_symmetry_group_IT_number 97
_symmetry_cell_setting 'tetragonal'
loop_
_space_group_symop_operation_xyz
x,y,z
-y,x,z
-x,-y,z
y,-x,z
x,-y,-z
-x,y,-z
y,x,-z
-y,-x,-z
1/2+x,1/2+y,1/2+z
1/2-y,1/2+x,1/2+z
1/2-x,1/2-y,1/2+z
1/2+y,1/2-x,1/2+z
1/2+x,1/2-y,1/2-z
1/2-x,1/2+y,1/2-z
1/2+y,1/2+x,1/2-z
1/2-y,1/2-x,1/2-z
loop_
_atom_site_type_symbol
_atom_site_label
_atom_site_fract_x
_atom_site_fract_y
_atom_site_fract_z
Si Si1 0.274344 0.909267 0.465490
Si Si2 0.437953 0.371700 0.250000
Si Si3 0.909267 0.274344 0.965490
O O1 0.332723 0.832723 0.525395
O O2 0.316637 0.000000 0.500000
O O3 0.261840 0.899168 0.250000
O O4 0.190470 0.083760 0.415234
O O5 0.536675 0.396115 0.250000
O O6 0.416240 0.309530 0.415234
O O7 0.000000 0.316637 0.000000
#
# Coordination Sequence:
#
# PCOD9551594 Si02
#       3
#    16  16  16
#     4  11  25  50  83 118 159 211 273 340 412 492
#     4  11  27  52  82 119 167 217 272 337 412 498
#     4  11  25  50  83 118 159 211 273 340 412 492
#
# _framework density 25.520614999999999
#
# number of rings (size 3 to 8) (size 9 to 14) (size 15 to 20)
#    0.000    1.000    3.333    1.000    0.000    6.000 
#    0.000   20.000    0.000    0.000    0.000    0.000 
#    0.000    0.000    0.000    0.000    0.000    0.000 
#
# Total GULP energy -134383.283145 kJ/mol
# GULP energy per Si atom -5599.303464 kJ/mol
# Density = 2.546253 g / cm^3
# Si number density = 25.520615 Si / 1000 Ang^3
#
#
#
# Elastic Constant Matrix: (Units=GPa)
#
#
# Indices 1 2 3 4 5 6 
#
# 1 213.9611 166.2664 97.5177 0.0000 0.0000 0.0000
# 2 166.2664 213.9611 97.5177 0.0000 0.0000 0.0000
# 3 97.5177 97.5177 230.4692 0.0000 0.0000 0.0000
# 4 0.0000 0.0000 0.0000 47.5134 0.0000 0.0000
# 5 0.0000 0.0000 0.0000 0.0000 47.5134 0.0000
# 6 0.0000 0.0000 0.0000 0.0000 0.0000 72.2129
#
#
#
# Elastic Compliance Matrix: (Units=1/GPa)
#
#
# Indices 1 2 3 4 5 6 
#
# 1 0.012163 -0.008804 -0.001421 0.000000 0.000000 0.000000
# 2 -0.008804 0.012163 -0.001421 0.000000 0.000000 0.000000
# 3 -0.001421 -0.001421 0.005542 0.000000 0.000000 0.000000
# 4 0.000000 0.000000 0.000000 0.021047 0.000000 0.000000
# 5 0.000000 0.000000 0.000000 0.000000 0.021047 0.000000
# 6 0.000000 0.000000 0.000000 0.000000 0.000000 0.013848
#
#
# Mechanical properties :
#
#
# Convention : Reuss Voigt Hill
#
# Bulk Modulus (GPa) = 152.09946 153.44388 152.77167
# Shear Modulus (GPa) = 44.92635 53.25391 49.09013
#
# Velocity S-wave (km/s) = 4.20026 4.57300 4.39059
# Velocity P-wave (km/s) = 9.12419 9.38824 9.25716
#
# Compressibility (1/GPa) = 0.00657465
#
# Stress axis : x y z
#
# Youngs Moduli (GPa) = 82.21737 82.21737 180.44806
#
# Poissons Ratio (x) = 0.72383 0.25647
# Poissons Ratio (y) = 0.72383 0.25647
# Poissons Ratio (z) = 0.11686 0.11686
#
# Static dielectric constant tensor:
#      x y z
#    x 2.050970 0.000000 0.000000 
#    y 0.000000 2.050970 0.000000 
#    z 0.000000 0.000000 2.221890 
# 
# From -- ./inp_files/3144.got.cif
#   From: 2010.05.17/outbox.cif.g08.bks.cpg/sg97_2_cif.got.tgz:3144.got - 2010.06.03 19:55:32.
