data_PCOD9551839
_publ_section_title
;
Structure prediction by ZEFSAII (Michael W. Deem and Ramdas Pophale) SiO2 
 PCOD9551839
Probable space group: I 41 2 2
;
_chemical_formula_sum "Si O2"
_cell_formula_units_Z 80
_cell_length_a 12.168879
_cell_length_b 12.168879
_cell_length_c 29.567353
_cell_angle_alpha 90.000000
_cell_angle_beta 90.000000
_cell_angle_gamma 90.000000
_cell_volume 4378.381417
_symmetry_space_group_name_H-M "I 41 2 2"
_symmetry_group_IT_number 98
_symmetry_cell_setting 'tetragonal'
loop_
_space_group_symop_operation_xyz
x,y,z
-y,1/2+x,1/4+z
-x,-y,z
y,1/2-x,1/4+z
x,1/2-y,1/4-z
-x,1/2+y,1/4-z
y,x,-z
-y,-x,-z
1/2+x,1/2+y,1/2+z
1/2-y,x,3/4+z
1/2-x,1/2-y,1/2+z
1/2+y,-x,3/4+z
1/2+x,-y,3/4-z
1/2-x,y,3/4-z
1/2+y,1/2+x,1/2-z
1/2-y,1/2-x,1/2-z
loop_
_atom_site_type_symbol
_atom_site_label
_atom_site_fract_x
_atom_site_fract_y
_atom_site_fract_z
Si Si1 0.837284 0.353944 0.335624
Si Si2 0.968210 0.814913 0.208493
Si Si3 0.362811 0.560162 0.196339
Si Si4 0.822010 0.911609 0.329180
Si Si5 0.261066 0.238935 0.250000
Si Si6 0.500000 0.000000 0.886992
O O1 0.750000 0.325096 0.375000
O O2 0.779522 0.448726 0.306830
O O3 0.870661 0.247211 0.308498
O O4 0.946214 0.404971 0.357479
O O5 0.851059 0.767004 0.221772
O O6 0.020960 0.873689 0.252036
O O7 0.956435 0.902171 0.168474
O O8 0.354234 0.443602 0.169149
O O9 0.464165 0.636405 0.181111
O O10 0.750000 0.904452 0.375000
O O11 0.752722 0.859160 0.287109
#
# Coordination Sequence:
#
# PCOD9551839 Si02
#       6
#    16  16  16  16   8   8
#     4  10  22  36  59  88 116 157 193 246 303 360
#     4  10  21  38  57  88 118 157 191 244 308 353
#     4  10  21  41  59  84 117 160 200 242 297 359
#     4  10  22  38  63  86 117 160 202 246 300 354
#     4  10  22  36  61  93 122 154 202 254 298 359
#     4  10  22  36  57  86 124 148 196 243 308 358
#
# _framework density 18.271591000000001
#
# number of rings (size 3 to 8) (size 9 to 14) (size 15 to 20)
#    0.000    2.000    0.000    3.600    8.400    0.800 
#    0.000    0.000    4.400    0.000    0.000    0.000 
#    0.000    0.000    0.000    0.000    0.000    0.000 
#
# Total GULP energy -223032.599390 kJ/mol
# GULP energy per Si atom -5575.814985 kJ/mol
# Density = 1.823000 g / cm^3
# Si number density = 18.271591 Si / 1000 Ang^3
#
#
#
# Elastic Constant Matrix: (Units=GPa)
#
#
# Indices 1 2 3 4 5 6 
#
# 1 86.2957 59.9247 43.8815 0.0000 0.0000 0.0000
# 2 59.9247 86.2961 43.8813 0.0000 0.0000 0.0000
# 3 43.8815 43.8813 83.8651 0.0000 0.0000 0.0000
# 4 0.0000 0.0000 0.0000 20.5346 0.0000 0.0000
# 5 0.0000 0.0000 0.0000 0.0000 20.5348 0.0000
# 6 0.0000 0.0000 0.0000 0.0000 0.0000 18.3773
#
#
#
# Elastic Compliance Matrix: (Units=1/GPa)
#
#
# Indices 1 2 3 4 5 6 
#
# 1 0.023945 -0.013975 -0.005217 0.000000 0.000000 0.000000
# 2 -0.013975 0.023945 -0.005217 0.000000 0.000000 0.000000
# 3 -0.005217 -0.005217 0.017383 0.000000 0.000000 0.000000
# 4 0.000000 0.000000 0.000000 0.048698 0.000000 0.000000
# 5 0.000000 0.000000 0.000000 0.000000 0.048698 0.000000
# 6 0.000000 0.000000 0.000000 0.000000 0.000000 0.054415
#
#
# Mechanical properties :
#
#
# Convention : Reuss Voigt Hill
#
# Bulk Modulus (GPa) = 60.76678 61.31468 61.04073
# Shear Modulus (GPa) = 18.42385 19.14060 18.78223
#
# Velocity S-wave (km/s) = 3.17887 3.24012 3.20964
# Velocity P-wave (km/s) = 6.84130 6.90131 6.87137
#
# Compressibility (1/GPa) = 0.01645636
#
# Stress axis : x y z
#
# Youngs Moduli (GPa) = 41.76185 41.76224 57.52707
#
# Poissons Ratio (x) = 0.58363 0.30011
# Poissons Ratio (y) = 0.58362 0.30010
# Poissons Ratio (z) = 0.21787 0.21786
#
# Static dielectric constant tensor:
#      x y z
#    x 1.620600 0.000000 0.000000 
#    y 0.000000 1.620600 0.000000 
#    z 0.000000 0.000000 1.640250 
# 
# From -- ./inp_files/11839.got.cif
#   From: 2010.05.17/outbox.cif.g08.bks.cpg/sg98_6_cif.got.tgz:11839.got - 2010.06.03 20:00:51.
