data_PCOD9551666
_publ_section_title
;
Structure prediction by ZEFSAII (Michael W. Deem and Ramdas Pophale) SiO2 
 PCOD9551666
Probable space group: I 41 2 2
;
_chemical_formula_sum "Si O2"
_cell_formula_units_Z 96
_cell_length_a 25.913030
_cell_length_b 25.913030
_cell_length_c 9.593945
_cell_angle_alpha 90.000000
_cell_angle_beta 90.000000
_cell_angle_gamma 90.000000
_cell_volume 6442.191346
_symmetry_space_group_name_H-M "I 41 2 2"
_symmetry_group_IT_number 98
_symmetry_cell_setting 'tetragonal'
loop_
_space_group_symop_operation_xyz
x,y,z
-y,1/2+x,1/4+z
-x,-y,z
y,1/2-x,1/4+z
x,1/2-y,1/4-z
-x,1/2+y,1/4-z
y,x,-z
-y,-x,-z
1/2+x,1/2+y,1/2+z
1/2-y,x,3/4+z
1/2-x,1/2-y,1/2+z
1/2+y,-x,3/4+z
1/2+x,-y,3/4-z
1/2-x,y,3/4-z
1/2+y,1/2+x,1/2-z
1/2-y,1/2-x,1/2-z
loop_
_atom_site_type_symbol
_atom_site_label
_atom_site_fract_x
_atom_site_fract_y
_atom_site_fract_z
Si Si1 0.352297 0.944812 0.146705
Si Si2 0.584962 0.999582 0.714769
Si Si3 0.773506 0.354859 0.727500
Si Si4 0.683041 0.394095 0.569551
Si Si5 0.306968 0.510451 0.376078
Si Si6 0.117526 0.549020 0.949010
O O1 0.317025 0.894614 0.175588
O O2 0.406555 0.924564 0.084660
O O3 0.361960 0.968719 0.299028
O O4 0.324123 0.979144 0.032253
O O5 0.546770 0.953231 0.750000
O O6 0.552820 0.052820 0.750000
O O7 0.639849 0.992679 0.794838
O O8 0.595631 0.005203 0.550008
O O9 0.800466 0.300466 0.750000
O O10 0.727967 0.356280 0.616879
O O11 0.750000 0.371988 0.875000
O O12 0.637174 0.362827 0.500000
O O13 0.702417 0.436235 0.460295
O O14 0.661010 0.423378 0.705772
O O15 0.250000 0.483757 0.375000
#
# Coordination Sequence:
#
# PCOD9551666 Si02
#       6
#    16  16  16  16  16  16
#     4  11  18  31  48  69  92 116 166 212 253 302
#     4  10  20  36  54  73 102 134 168 205 259 319
#     4  12  23  33  42  58  88 128 169 229 273 304
#     4  11  20  32  47  61  85 123 170 210 264 305
#     4  11  20  31  53  76  93 124 168 208 249 308
#     4  10  18  33  51  67  90 125 160 207 260 305
#
# _framework density 14.901762
#
# number of rings (size 3 to 8) (size 9 to 14) (size 15 to 20)
#    0.000    1.167    8.333    1.000    0.000    0.667 
#    0.000    0.833    0.000    0.000    0.000    0.000 
#    0.000    0.000    0.000    3.000    0.000    0.000 
#
# Total GULP energy -267440.545566 kJ/mol
# GULP energy per Si atom -5571.678033 kJ/mol
# Density = 1.486784 g / cm^3
# Si number density = 14.901762 Si / 1000 Ang^3
#
#
#
# Elastic Constant Matrix: (Units=GPa)
#
#
# Indices 1 2 3 4 5 6 
#
# 1 64.1012 29.5077 31.6956 0.0000 0.0000 0.0000
# 2 29.5077 64.0946 31.7009 0.0000 0.0000 0.0000
# 3 31.6956 31.7009 122.5491 0.0000 0.0000 0.0000
# 4 0.0000 0.0000 0.0000 8.6561 0.0000 0.0000
# 5 0.0000 0.0000 0.0000 0.0000 8.6556 0.0000
# 6 0.0000 0.0000 0.0000 0.0000 0.0000 21.9369
#
#
#
# Elastic Compliance Matrix: (Units=1/GPa)
#
#
# Indices 1 2 3 4 5 6 
#
# 1 0.020929 -0.007979 -0.003349 0.000000 0.000000 0.000000
# 2 -0.007979 0.020933 -0.003351 0.000000 0.000000 0.000000
# 3 -0.003349 -0.003351 0.009893 0.000000 0.000000 0.000000
# 4 0.000000 0.000000 0.000000 0.115525 0.000000 0.000000
# 5 0.000000 0.000000 0.000000 0.000000 0.115532 0.000000
# 6 0.000000 0.000000 0.000000 0.000000 0.000000 0.045585
#
#
# Mechanical properties :
#
#
# Convention : Reuss Voigt Hill
#
# Bulk Modulus (GPa) = 44.64955 48.50592 46.57773
# Shear Modulus (GPa) = 13.69030 18.37243 16.03137
#
# Velocity S-wave (km/s) = 3.03430 3.51508 3.28350
# Velocity P-wave (km/s) = 6.50412 7.00682 6.76015
#
# Compressibility (1/GPa) = 0.02239664
#
# Stress axis : x y z
#
# Youngs Moduli (GPa) = 47.77996 47.77200 101.08072
#
# Poissons Ratio (x) = 0.38117 0.33853
# Poissons Ratio (y) = 0.38123 0.33874
# Poissons Ratio (z) = 0.16002 0.16009
#
# Static dielectric constant tensor:
#      x y z
#    x 1.508070 0.000000 0.000000 
#    y 0.000000 1.508070 0.000000 
#    z 0.000000 0.000000 1.537110 
# 
# From -- ./inp_files/3825.got.cif
#   From: 2010.05.17/outbox.cif.g08.bks.cpg/sg98_2_cif.got.tgz:3825.got - 2010.06.03 20:00:51.
