data_PCOD9551702
_publ_section_title
;
Structure prediction by ZEFSAII (Michael W. Deem and Ramdas Pophale) SiO2 
 PCOD9551702
Probable space group: I 41 2 2
;
_chemical_formula_sum "Si O2"
_cell_formula_units_Z 52
_cell_length_a 23.325499
_cell_length_b 23.325499
_cell_length_c 6.100423
_cell_angle_alpha 90.000000
_cell_angle_beta 90.000000
_cell_angle_gamma 90.000000
_cell_volume 3319.111457
_symmetry_space_group_name_H-M "I 41 2 2"
_symmetry_group_IT_number 98
_symmetry_cell_setting 'tetragonal'
loop_
_space_group_symop_operation_xyz
x,y,z
-y,1/2+x,1/4+z
-x,-y,z
y,1/2-x,1/4+z
x,1/2-y,1/4-z
-x,1/2+y,1/4-z
y,x,-z
-y,-x,-z
1/2+x,1/2+y,1/2+z
1/2-y,x,3/4+z
1/2-x,1/2-y,1/2+z
1/2+y,-x,3/4+z
1/2+x,-y,3/4-z
1/2-x,y,3/4-z
1/2+y,1/2+x,1/2-z
1/2-y,1/2-x,1/2-z
loop_
_atom_site_type_symbol
_atom_site_label
_atom_site_fract_x
_atom_site_fract_y
_atom_site_fract_z
Si Si1 0.663586 0.663586 0.000000
Si Si2 0.803430 0.946366 0.235659
Si Si3 0.750000 0.636329 0.375000
Si Si4 0.000000 0.500000 0.750000
Si Si5 0.584166 0.001257 0.633001
O O1 0.670116 0.599985 0.904623
O O2 0.670178 0.708391 0.795898
O O3 0.750000 0.970914 0.375000
O O4 0.848905 0.991457 0.143580
O O5 0.785105 0.906159 0.032953
O O6 0.000860 0.556187 0.604605
O O7 0.557473 0.057473 0.750000
O O8 0.553395 0.946606 0.750000
#
# Coordination Sequence:
#
# PCOD9551702 Si02
#       5
#     8  16   8   4  16
#     4  10  19  32  50  61  82 116 166 212 250 291
#     4  10  20  32  49  64  89 124 163 196 246 295
#     4  10  20  32  50  62  84 118 166 202 254 284
#     4   8  16  28  48  70  88 116 146 192 240 278
#     4   9  17  28  45  70  91 113 153 200 242 288
#
# _framework density 15.666845
#
# number of rings (size 3 to 8) (size 9 to 14) (size 15 to 20)
#    0.000    2.769    0.000    3.692    0.000    7.385 
#    0.000    0.000  121.846    0.000    0.000    0.000 
#    0.000    0.000    0.000    0.000   81.846    0.000 
#
# Total GULP energy -144769.328519 kJ/mol
# GULP energy per Si atom -5568.051097 kJ/mol
# Density = 1.563119 g / cm^3
# Si number density = 15.666845 Si / 1000 Ang^3
#
#
#
# Elastic Constant Matrix: (Units=GPa)
#
#
# Indices 1 2 3 4 5 6 
#
# 1 73.2015 50.6925 29.4592 0.0000 0.0000 0.0000
# 2 50.6925 73.2019 29.4587 0.0000 0.0000 0.0000
# 3 29.4592 29.4587 87.4867 0.0000 0.0000 0.0000
# 4 0.0000 0.0000 0.0000 -89.4142 0.0000 0.0000
# 5 0.0000 0.0000 0.0000 0.0000 -89.3630 0.0000
# 6 0.0000 0.0000 0.0000 0.0000 0.0000 30.5063
#
#
#
# Elastic Compliance Matrix: (Units=1/GPa)
#
#
# Indices 1 2 3 4 5 6 
#
# 1 0.027018 -0.017408 -0.003236 0.000000 0.000000 0.000000
# 2 -0.017408 0.027018 -0.003236 0.000000 0.000000 0.000000
# 3 -0.003236 -0.003236 0.013610 0.000000 0.000000 0.000000
# 4 0.000000 0.000000 0.000000 -0.011184 0.000000 0.000000
# 5 0.000000 0.000000 0.000000 0.000000 -0.011190 0.000000
# 6 0.000000 0.000000 0.000000 0.000000 0.000000 0.032780
#
#
# Mechanical properties :
#
#
# Convention : Reuss Voigt Hill
#
# Bulk Modulus (GPa) = 50.28639 50.34566 50.31602
# Shear Modulus (GPa) = 37.75269 -21.36886 8.19192
#
# Velocity S-wave (km/s) = 4.91421 -3.69718 2.28914
# Velocity P-wave (km/s) = 8.02286 3.73890 6.25882
#
# Compressibility (1/GPa) = 0.01988610
#
# Stress axis : x y z
#
# Youngs Moduli (GPa) = 37.01172 37.01217 73.47749
#
# Poissons Ratio (x) = 0.64431 0.23779
# Poissons Ratio (y) = 0.64430 0.23776
# Poissons Ratio (z) = 0.11978 0.11977
#
# Static dielectric constant tensor:
#      x y z
#    x 1.592350 0.000000 0.000000 
#    y 0.000000 1.592300 0.000000 
#    z 0.000000 0.000000 1.567720 
# 
# From -- ./inp_files/1029.got.cif
#   From: 2010.05.17/outbox.cif.g08.bks.cpg/sg98_1_cif.got.tgz:1029.got - 2010.06.03 20:00:51.
