data_PCOD9551815
_publ_section_title
;
Structure prediction by ZEFSAII (Michael W. Deem and Ramdas Pophale) SiO2 
 PCOD9551815
Probable space group: I 41 2 2
;
_chemical_formula_sum "Si O2"
_cell_formula_units_Z 88
_cell_length_a 12.290693
_cell_length_b 12.290693
_cell_length_c 27.771055
_cell_angle_alpha 90.000000
_cell_angle_beta 90.000000
_cell_angle_gamma 90.000000
_cell_volume 4195.127072
_symmetry_space_group_name_H-M "I 41 2 2"
_symmetry_group_IT_number 98
_symmetry_cell_setting 'tetragonal'
loop_
_space_group_symop_operation_xyz
x,y,z
-y,1/2+x,1/4+z
-x,-y,z
y,1/2-x,1/4+z
x,1/2-y,1/4-z
-x,1/2+y,1/4-z
y,x,-z
-y,-x,-z
1/2+x,1/2+y,1/2+z
1/2-y,x,3/4+z
1/2-x,1/2-y,1/2+z
1/2+y,-x,3/4+z
1/2+x,-y,3/4-z
1/2-x,y,3/4-z
1/2+y,1/2+x,1/2-z
1/2-y,1/2-x,1/2-z
loop_
_atom_site_type_symbol
_atom_site_label
_atom_site_fract_x
_atom_site_fract_y
_atom_site_fract_z
Si Si1 0.847237 0.250000 0.125000
Si Si2 0.289411 0.952599 0.103308
Si Si3 0.127445 0.289549 0.971740
Si Si4 0.036829 0.823167 0.699121
Si Si5 0.445273 0.885485 0.539825
Si Si6 0.595748 0.415684 0.057415
O O1 0.779995 0.157079 0.096483
O O2 0.912264 0.317446 0.085697
O O3 0.407978 0.919083 0.082120
O O4 0.304815 0.961608 0.160861
O O5 0.247308 0.058630 0.074989
O O6 0.175228 0.406515 0.954915
O O7 0.213431 0.213431 0.000000
O O8 0.033786 0.318063 0.009890
O O9 0.087263 0.848579 0.752024
O O10 0.070953 0.707721 0.677513
O O11 0.500000 0.000000 0.553179
O O12 0.500000 0.500000 0.067074
O O13 0.598013 0.401988 0.000000
#
# Coordination Sequence:
#
# PCOD9551815 Si02
#       6
#     8  16  16  16  16  16
#     4  12  22  38  68  92 126 174 222 284 364 408
#     4  11  22  40  63  97 130 172 230 284 341 432
#     4  10  23  42  66  92 131 182 230 281 349 413
#     4  10  20  40  64  88 131 176 219 270 350 415
#     4   9  22  42  63  87 127 171 219 284 345 420
#     4  11  22  34  59  95 137 167 216 279 339 421
#
# _framework density 20.97672
#
# number of rings (size 3 to 8) (size 9 to 14) (size 15 to 20)
#    0.000    1.636    1.818    3.818    2.545    3.636 
#    0.000    0.909    4.000    0.000    0.000    0.000 
#    0.000    0.000    0.000    0.000    0.000    0.000 
#
# Total GULP energy -245403.957583 kJ/mol
# GULP energy per Si atom -5577.362672 kJ/mol
# Density = 2.092898 g / cm^3
# Si number density = 20.976720 Si / 1000 Ang^3
#
#
#
# Elastic Constant Matrix: (Units=GPa)
#
#
# Indices 1 2 3 4 5 6 
#
# 1 49.4405 1.6266 28.2016 0.0000 0.0000 0.0000
# 2 1.6266 49.4402 28.2016 0.0000 0.0000 0.0000
# 3 28.2016 28.2016 127.9140 0.0000 0.0000 0.0000
# 4 0.0000 0.0000 0.0000 33.1942 0.0000 0.0000
# 5 0.0000 0.0000 0.0000 0.0000 33.1942 0.0000
# 6 0.0000 0.0000 0.0000 0.0000 0.0000 14.8083
#
#
#
# Elastic Compliance Matrix: (Units=1/GPa)
#
#
# Indices 1 2 3 4 5 6 
#
# 1 0.023400 0.002486 -0.005707 0.000000 0.000000 0.000000
# 2 0.002486 0.023400 -0.005707 0.000000 0.000000 0.000000
# 3 -0.005707 -0.005707 0.010334 0.000000 0.000000 0.000000
# 4 0.000000 0.000000 0.000000 0.030126 0.000000 0.000000
# 5 0.000000 0.000000 0.000000 0.000000 0.030126 0.000000
# 6 0.000000 0.000000 0.000000 0.000000 0.000000 0.067530
#
#
# Mechanical properties :
#
#
# Convention : Reuss Voigt Hill
#
# Bulk Modulus (GPa) = 25.46013 38.09494 31.77754
# Shear Modulus (GPa) = 23.16262 27.49033 25.32647
#
# Velocity S-wave (km/s) = 3.32656 3.62403 3.47848
# Velocity P-wave (km/s) = 5.18829 5.97591 5.59597
#
# Compressibility (1/GPa) = 0.03927710
#
# Stress axis : x y z
#
# Youngs Moduli (GPa) = 42.73510 42.73485 96.76541
#
# Poissons Ratio (x) = -0.10622 0.55225
# Poissons Ratio (y) = -0.10622 0.55225
# Poissons Ratio (z) = 0.24389 0.24389
#
# Static dielectric constant tensor:
#      x y z
#    x 1.781070 0.000000 0.000000 
#    y 0.000000 1.781070 0.000000 
#    z 0.000000 0.000000 1.848420 
# 
# From -- ./inp_files/11902.got.cif
#   From: 2010.05.17/outbox.cif.g08.bks.cpg/sg98_6_cif.got.tgz:11902.got - 2010.06.03 20:00:51.
