data_PCOD9551275
_publ_section_title
;
Structure prediction by ZEFSAII (Michael W. Deem and Ramdas Pophale) SiO2 
 PCOD9551275
Probable space group: I 4 2 2 
;
_chemical_formula_sum "Si O2"
_cell_formula_units_Z 72
_cell_length_a 19.645226
_cell_length_b 19.645226
_cell_length_c 9.639010
_cell_angle_alpha 90.000000
_cell_angle_beta 90.000000
_cell_angle_gamma 90.000000
_cell_volume 3720.030405
_symmetry_space_group_name_H-M "I 4 2 2 "
_symmetry_group_IT_number 97
_symmetry_cell_setting 'tetragonal'
loop_
_space_group_symop_operation_xyz
x,y,z
-y,x,z
-x,-y,z
y,-x,z
x,-y,-z
-x,y,-z
y,x,-z
-y,-x,-z
1/2+x,1/2+y,1/2+z
1/2-y,1/2+x,1/2+z
1/2-x,1/2-y,1/2+z
1/2+y,1/2-x,1/2+z
1/2+x,1/2-y,1/2-z
1/2-x,1/2+y,1/2-z
1/2+y,1/2+x,1/2-z
1/2-y,1/2-x,1/2-z
loop_
_atom_site_type_symbol
_atom_site_label
_atom_site_fract_x
_atom_site_fract_y
_atom_site_fract_z
Si Si1 0.227757 0.337861 0.458646
Si Si2 0.919000 0.687721 0.767369
Si Si3 0.233821 0.119136 0.515029
Si Si4 0.040896 0.225482 0.222607
Si Si5 0.500000 0.384199 0.500000
O O1 0.279693 0.279693 0.500000
O O2 0.213450 0.380662 0.596589
O O3 0.159854 0.297535 0.416235
O O4 0.262622 0.387298 0.350742
O O5 0.888312 0.611689 0.750000
O O6 0.900247 0.735296 0.635065
O O7 0.997753 0.704751 0.789379
O O8 0.170800 0.170800 0.500000
O O9 0.212822 0.058116 0.616702
O O10 0.004112 0.165439 0.135026
O O11 0.566131 0.433870 0.500000
#
# Coordination Sequence:
#
# PCOD9551275 Si02
#       5
#    16  16  16  16   8
#     4  10  19  36  60  88 115 150 198 257 312 368
#     4  10  21  36  52  82 121 155 196 248 308 367
#     4  10  22  35  58  91 121 145 196 267 321 359
#     4  12  21  37  63  86 116 163 205 247 311 374
#     4  11  26  42  60  86 120 167 216 250 296 387
#
# _framework density 19.354680999999999
#
# number of rings (size 3 to 8) (size 9 to 14) (size 15 to 20)
#    0.000    1.444    2.222    3.333    3.111    3.556 
#    0.000    0.000    0.000    2.667    0.000   12.444 
#    0.000    0.000    0.000    0.000    0.000    0.000 
#
# Total GULP energy -200690.235330 kJ/mol
# GULP energy per Si atom -5574.728759 kJ/mol
# Density = 1.931063 g / cm^3
# Si number density = 19.354681 Si / 1000 Ang^3
#
#
#
# Elastic Constant Matrix: (Units=GPa)
#
#
# Indices 1 2 3 4 5 6 
#
# 1 33.8362 40.3592 21.2133 0.0000 0.0000 0.0000
# 2 40.3592 33.8314 21.2132 0.0000 0.0000 0.0000
# 3 21.2133 21.2132 99.0566 0.0000 0.0000 0.0000
# 4 0.0000 0.0000 0.0000 15.6057 0.0000 0.0000
# 5 0.0000 0.0000 0.0000 0.0000 15.6058 0.0000
# 6 0.0000 0.0000 0.0000 0.0000 0.0000 26.9212
#
#
#
# Elastic Compliance Matrix: (Units=1/GPa)
#
#
# Indices 1 2 3 4 5 6 
#
# 1 -0.068939 0.084303 -0.003290 0.000000 0.000000 0.000000
# 2 0.084303 -0.068950 -0.003288 0.000000 0.000000 0.000000
# 3 -0.003290 -0.003288 0.011504 0.000000 0.000000 0.000000
# 4 0.000000 0.000000 0.000000 0.064079 0.000000 0.000000
# 5 0.000000 0.000000 0.000000 0.000000 0.064079 0.000000
# 6 0.000000 0.000000 0.000000 0.000000 0.000000 0.037145
#
#
# Mechanical properties :
#
#
# Convention : Reuss Voigt Hill
#
# Bulk Modulus (GPa) = 34.40488 36.92174 35.66331
# Shear Modulus (GPa) = -46.79807 17.22244 -14.78781
#
# Velocity S-wave (km/s) = -4.92257 2.98624 -2.76713
# Velocity P-wave (km/s) = 3.80714 5.56848 2.87347
#
# Compressibility (1/GPa) = 0.02906565
#
# Stress axis : x y z
#
# Youngs Moduli (GPa) = -14.50568 -14.50335 86.92597
#
# Poissons Ratio (x) = 1.22268 0.28601
# Poissons Ratio (y) = 1.22288 0.28583
# Poissons Ratio (z) = -0.04773 -0.04769
#
# Static dielectric constant tensor:
#      x y z
#    x 1.693200 0.000000 0.000000 
#    y 0.000000 1.693190 0.000000 
#    z 0.000000 0.000000 1.714790 
# 
# From -- ./inp_files/2249.got.cif
#   From: 2010.05.17/outbox.cif.g08.bks.cpg/sg97_2_cif.got.tgz:2249.got - 2010.06.03 19:55:32.
