data_PCOD9551476
_publ_section_title
;
Structure prediction by ZEFSAII (Michael W. Deem and Ramdas Pophale) SiO2 
 PCOD9551476
Probable space group: I 4 2 2 
;
_chemical_formula_sum "Si O2"
_cell_formula_units_Z 64
_cell_length_a 11.509557
_cell_length_b 11.509557
_cell_length_c 21.838709
_cell_angle_alpha 90.000000
_cell_angle_beta 90.000000
_cell_angle_gamma 90.000000
_cell_volume 2892.971648
_symmetry_space_group_name_H-M "I 4 2 2 "
_symmetry_group_IT_number 97
_symmetry_cell_setting 'tetragonal'
loop_
_space_group_symop_operation_xyz
x,y,z
-y,x,z
-x,-y,z
y,-x,z
x,-y,-z
-x,y,-z
y,x,-z
-y,-x,-z
1/2+x,1/2+y,1/2+z
1/2-y,1/2+x,1/2+z
1/2-x,1/2-y,1/2+z
1/2+y,1/2-x,1/2+z
1/2+x,1/2-y,1/2-z
1/2-x,1/2+y,1/2-z
1/2+y,1/2+x,1/2-z
1/2-y,1/2-x,1/2-z
loop_
_atom_site_type_symbol
_atom_site_label
_atom_site_fract_x
_atom_site_fract_y
_atom_site_fract_z
Si Si1 0.803357 0.993632 0.745512
Si Si2 0.490731 0.142203 0.637956
Si Si3 0.078677 0.728445 0.384067
Si Si4 0.769992 0.651307 0.058587
O O1 0.891204 0.884631 0.750930
O O2 0.706118 0.979275 0.797477
O O3 0.739738 0.013629 0.680652
O O4 0.620471 0.167150 0.614870
O O5 0.390986 0.185242 0.591555
O O6 0.500000 0.000000 0.641583
O O7 0.159501 0.837199 0.396051
O O8 0.987804 0.715178 0.438767
O O9 0.725277 0.725277 0.000000
#
# Coordination Sequence:
#
# PCOD9551476 Si02
#       4
#    16  16  16  16
#     4  11  22  40  66  98 139 181 231 283 348 421
#     4  10  24  41  65  99 138 178 228 282 353 415
#     4  11  22  42  64  95 135 178 227 281 345 411
#     4  11  24  42  66  96 133 180 230 281 343 410
#
# _framework density 22.122582000000001
#
# number of rings (size 3 to 8) (size 9 to 14) (size 15 to 20)
#    0.000    1.250    2.500    3.000    0.000    8.500 
#    0.000    5.000    0.000    0.000    0.000    1.750 
#    0.000    0.000    0.000    0.000    0.000    0.000 
#
# Total GULP energy -178251.831845 kJ/mol
# GULP energy per Si atom -5570.369745 kJ/mol
# Density = 2.207223 g / cm^3
# Si number density = 22.122582 Si / 1000 Ang^3
#
#
#
# Elastic Constant Matrix: (Units=GPa)
#
#
# Indices 1 2 3 4 5 6 
#
# 1 81.2172 23.2094 74.5002 0.0000 0.0000 0.0000
# 2 23.2094 81.2172 74.5002 0.0000 0.0000 0.0000
# 3 74.5002 74.5002 155.3745 0.0000 0.0000 0.0000
# 4 0.0000 0.0000 0.0000 34.2957 0.0000 0.0000
# 5 0.0000 0.0000 0.0000 0.0000 34.2957 0.0000
# 6 0.0000 0.0000 0.0000 0.0000 0.0000 2.3069
#
#
#
# Elastic Compliance Matrix: (Units=1/GPa)
#
#
# Indices 1 2 3 4 5 6 
#
# 1 0.023779 0.006540 -0.014538 0.000000 0.000000 0.000000
# 2 0.006540 0.023779 -0.014538 0.000000 0.000000 0.000000
# 3 -0.014538 -0.014538 0.020377 0.000000 0.000000 0.000000
# 4 0.000000 0.000000 0.000000 0.029158 0.000000 0.000000
# 5 0.000000 0.000000 0.000000 0.000000 0.029158 0.000000
# 6 0.000000 0.000000 0.000000 0.000000 0.000000 0.433489
#
#
# Mechanical properties :
#
#
# Convention : Reuss Voigt Hill
#
# Bulk Modulus (GPa) = 43.73532 73.58096 58.65814
# Shear Modulus (GPa) = 8.16417 23.88624 16.02521
#
# Velocity S-wave (km/s) = 1.92313 3.28948 2.69435
# Velocity P-wave (km/s) = 4.97430 6.91088 6.02096
#
# Compressibility (1/GPa) = 0.02286482
#
# Stress axis : x y z
#
# Youngs Moduli (GPa) = 42.05396 42.05396 49.07441
#
# Poissons Ratio (x) = -0.27503 0.71342
# Poissons Ratio (y) = -0.27503 0.71342
# Poissons Ratio (z) = 0.61136 0.61136
#
# Static dielectric constant tensor:
#      x y z
#    x 1.879880 0.000000 0.000000 
#    y 0.000000 1.879880 0.000000 
#    z 0.000000 0.000000 1.872360 
# 
# From -- ./inp_files/6299.got.cif
#   From: 2010.05.17/outbox.cif.g08.bks.cpg/sg97_4_cif.got.tgz:6299.got - 2010.06.03 19:55:32.
