data_PCOD9551306
_publ_section_title
;
Structure prediction by ZEFSAII (Michael W. Deem and Ramdas Pophale) SiO2 
 PCOD9551306
Probable space group: I 4 2 2 
;
_chemical_formula_sum "Si O2"
_cell_formula_units_Z 80
_cell_length_a 31.023577
_cell_length_b 31.023577
_cell_length_c 5.329133
_cell_angle_alpha 90.000000
_cell_angle_beta 90.000000
_cell_angle_gamma 90.000000
_cell_volume 5129.089763
_symmetry_space_group_name_H-M "I 4 2 2 "
_symmetry_group_IT_number 97
_symmetry_cell_setting 'tetragonal'
loop_
_space_group_symop_operation_xyz
x,y,z
-y,x,z
-x,-y,z
y,-x,z
x,-y,-z
-x,y,-z
y,x,-z
-y,-x,-z
1/2+x,1/2+y,1/2+z
1/2-y,1/2+x,1/2+z
1/2-x,1/2-y,1/2+z
1/2+y,1/2-x,1/2+z
1/2+x,1/2-y,1/2-z
1/2-x,1/2+y,1/2-z
1/2+y,1/2+x,1/2-z
1/2-y,1/2-x,1/2-z
loop_
_atom_site_type_symbol
_atom_site_label
_atom_site_fract_x
_atom_site_fract_y
_atom_site_fract_z
Si Si1 0.050101 0.787459 0.505510
Si Si2 0.614132 0.552499 0.108606
Si Si3 0.370361 0.370361 0.500000
Si Si4 0.897545 0.774472 0.974584
Si Si5 0.233589 0.305966 0.499466
Si Si6 0.427466 0.500000 0.500000
O O1 0.050873 0.839852 0.471780
O O2 0.073904 0.765695 0.270689
O O3 0.000000 0.775052 0.500000
O O4 0.073911 0.777555 0.770557
O O5 0.621967 0.593079 0.294884
O O6 0.603770 0.509265 0.265830
O O7 0.568542 0.568542 0.000000
O O8 0.377204 0.321582 0.417376
O O9 0.856596 0.743623 0.005088
O O10 0.278008 0.278008 0.500000
O O11 0.208463 0.291538 0.250000
O O12 0.208267 0.291734 0.750000
O O13 0.459133 0.459133 0.500000
#
# Coordination Sequence:
#
# PCOD9551306 Si02
#       6
#    16  16   8  16  16   8
#     4  11  25  36  56  77  96 130 170 218 255 307
#     4  11  23  38  55  64  86 116 158 209 270 332
#     4  10  20  36  49  72  88 120 158 190 254 326
#     4  11  21  38  56  76 106 129 165 202 258 317
#     4  10  20  34  55  82 110 135 159 199 255 328
#     4  11  26  40  50  62  82 110 156 214 290 344
#
# _framework density 15.59731
#
# number of rings (size 3 to 8) (size 9 to 14) (size 15 to 20)
#    0.000    1.300    4.000    1.800    8.400    0.000 
#    0.000    1.000    0.000    0.000    0.000    0.000 
#    0.000    0.000    0.000    0.000    0.000    0.000 
#
# Total GULP energy -223158.941615 kJ/mol
# GULP energy per Si atom -5578.973540 kJ/mol
# Density = 1.556181 g / cm^3
# Si number density = 15.597310 Si / 1000 Ang^3
#
#
#
# Elastic Constant Matrix: (Units=GPa)
#
#
# Indices 1 2 3 4 5 6 
#
# 1 75.6747 45.9290 45.1400 0.0000 0.0000 0.0000
# 2 45.9290 75.6758 45.1398 0.0000 0.0000 0.0000
# 3 45.1400 45.1398 111.5690 0.0000 0.0000 0.0000
# 4 0.0000 0.0000 0.0000 17.2344 0.0000 0.0000
# 5 0.0000 0.0000 0.0000 0.0000 17.2320 0.0000
# 6 0.0000 0.0000 0.0000 0.0000 0.0000 29.1759
#
#
#
# Elastic Compliance Matrix: (Units=1/GPa)
#
#
# Indices 1 2 3 4 5 6 
#
# 1 0.022686 -0.010932 -0.004756 0.000000 0.000000 0.000000
# 2 -0.010932 0.022686 -0.004755 0.000000 0.000000 0.000000
# 3 -0.004756 -0.004755 0.012811 0.000000 0.000000 0.000000
# 4 0.000000 0.000000 0.000000 0.058023 0.000000 0.000000
# 5 0.000000 0.000000 0.000000 0.000000 0.058031 0.000000
# 6 0.000000 0.000000 0.000000 0.000000 0.000000 0.034275
#
#
# Mechanical properties :
#
#
# Convention : Reuss Voigt Hill
#
# Bulk Modulus (GPa) = 57.81394 59.48191 58.64792
# Shear Modulus (GPa) = 19.59524 21.17586 20.38555
#
# Velocity S-wave (km/s) = 3.54831 3.68864 3.61916
# Velocity P-wave (km/s) = 7.34400 7.50735 7.42612
#
# Compressibility (1/GPa) = 0.01729687
#
# Stress axis : x y z
#
# Youngs Moduli (GPa) = 44.07997 44.08087 78.05689
#
# Poissons Ratio (x) = 0.48189 0.37121
# Poissons Ratio (y) = 0.48188 0.37119
# Poissons Ratio (z) = 0.20963 0.20962
#
# Static dielectric constant tensor:
#      x y z
#    x 1.519790 0.000000 0.000000 
#    y 0.000000 1.519790 0.000000 
#    z 0.000000 0.000000 1.641040 
# 
# From -- ./inp_files/1010.got.cif
#   From: 2010.05.17/outbox.cif.g08.bks.cpg/sg97_1_cif.got.tgz:1010.got - 2010.06.03 19:55:32.
