data_PCOD9551325
_publ_section_title
;
Structure prediction by ZEFSAII (Michael W. Deem and Ramdas Pophale) SiO2 
 PCOD9551325
Probable space group: I 4 2 2 
;
_chemical_formula_sum "Si O2"
_cell_formula_units_Z 120
_cell_length_a 20.234440
_cell_length_b 20.234440
_cell_length_c 14.670604
_cell_angle_alpha 90.000000
_cell_angle_beta 90.000000
_cell_angle_gamma 90.000000
_cell_volume 6006.622983
_symmetry_space_group_name_H-M "I 4 2 2 "
_symmetry_group_IT_number 97
_symmetry_cell_setting 'tetragonal'
loop_
_space_group_symop_operation_xyz
x,y,z
-y,x,z
-x,-y,z
y,-x,z
x,-y,-z
-x,y,-z
y,x,-z
-y,-x,-z
1/2+x,1/2+y,1/2+z
1/2-y,1/2+x,1/2+z
1/2-x,1/2-y,1/2+z
1/2+y,1/2-x,1/2+z
1/2+x,1/2-y,1/2-z
1/2-x,1/2+y,1/2-z
1/2+y,1/2+x,1/2-z
1/2-y,1/2-x,1/2-z
loop_
_atom_site_type_symbol
_atom_site_label
_atom_site_fract_x
_atom_site_fract_y
_atom_site_fract_z
Si Si1 0.021227 0.422801 0.164808
Si Si2 0.623958 0.235677 0.634080
Si Si3 0.916447 0.829474 0.334016
Si Si4 0.738060 0.325358 0.684429
Si Si5 0.883173 0.616828 0.750000
Si Si6 0.109421 0.666327 0.957207
Si Si7 0.312034 0.430234 0.810386
Si Si8 0.361597 0.256693 0.009814
O O1 0.071391 0.428610 0.250000
O O2 0.055741 0.385675 0.080739
O O3 0.000000 0.500000 0.143974
O O4 0.958413 0.384648 0.209004
O O5 0.685537 0.285273 0.623202
O O6 0.646679 0.163832 0.671148
O O7 0.588726 0.215167 0.540019
O O8 0.585281 0.272243 0.716673
O O9 0.875500 0.794415 0.254564
O O10 0.886487 0.902384 0.321909
O O11 0.898196 0.798307 0.431281
O O12 0.992505 0.817202 0.320617
O O13 0.772532 0.272532 0.750000
O O14 0.788721 0.366997 0.625869
O O15 0.179275 0.633396 0.987125
O O16 0.274255 0.393943 0.893450
O O17 0.287167 0.287167 0.000000
#
# Coordination Sequence:
#
# PCOD9551325 Si02
#       8
#    16  16  16  16   8  16  16  16
#     4   9  23  45  64  88 127 178 234 273 302 389
#     4  11  23  38  63  93 127 168 209 272 336 385
#     4  10  22  39  63  94 127 168 207 267 321 399
#     4  11  21  39  64  95 129 159 214 272 330 389
#     4  10  21  42  62  82 126 174 217 264 328 364
#     4  12  23  38  67  95 127 176 216 266 328 382
#     4  10  23  41  62  93 131 164 212 264 326 393
#     4  10  20  36  64 100 130 162 216 271 332 393
#
# _framework density 19.977947
#
# number of rings (size 3 to 8) (size 9 to 14) (size 15 to 20)
#    0.000    1.733    2.000    2.800    3.733    1.867 
#    0.000    8.000    0.000    2.400    0.000    0.933 
#    0.000    4.267    0.000    0.000    0.000    0.000 
#
# Total GULP energy -334078.635156 kJ/mol
# GULP energy per Si atom -5567.977253 kJ/mol
# Density = 1.993248 g / cm^3
# Si number density = 19.977947 Si / 1000 Ang^3
#
#
#
# Elastic Constant Matrix: (Units=GPa)
#
#
# Indices 1 2 3 4 5 6 
#
# 1 94.6043 31.8621 31.7057 0.0000 0.0000 0.0000
# 2 31.8621 94.6040 31.7060 0.0000 0.0000 0.0000
# 3 31.7057 31.7060 89.9147 0.0000 0.0000 0.0000
# 4 0.0000 0.0000 0.0000 30.6406 0.0000 0.0000
# 5 0.0000 0.0000 0.0000 0.0000 30.6402 0.0000
# 6 0.0000 0.0000 0.0000 0.0000 0.0000 23.0596
#
#
#
# Elastic Compliance Matrix: (Units=1/GPa)
#
#
# Indices 1 2 3 4 5 6 
#
# 1 0.012772 -0.003166 -0.003387 0.000000 0.000000 0.000000
# 2 -0.003166 0.012772 -0.003387 0.000000 0.000000 0.000000
# 3 -0.003387 -0.003387 0.013510 0.000000 0.000000 0.000000
# 4 0.000000 0.000000 0.000000 0.032636 0.000000 0.000000
# 5 0.000000 0.000000 0.000000 0.000000 0.032637 0.000000
# 6 0.000000 0.000000 0.000000 0.000000 0.000000 0.043366
#
#
# Mechanical properties :
#
#
# Convention : Reuss Voigt Hill
#
# Bulk Modulus (GPa) = 52.15656 52.18563 52.17110
# Shear Modulus (GPa) = 28.74128 29.12468 28.93298
#
# Velocity S-wave (km/s) = 3.79707 3.82231 3.80971
# Velocity P-wave (km/s) = 6.73702 6.75710 6.74707
#
# Compressibility (1/GPa) = 0.01917304
#
# Stress axis : x y z
#
# Youngs Moduli (GPa) = 78.29695 78.29646 74.01699
#
# Poissons Ratio (x) = 0.24791 0.25070
# Poissons Ratio (y) = 0.24791 0.25071
# Poissons Ratio (z) = 0.26520 0.26520
#
# Static dielectric constant tensor:
#      x y z
#    x 1.769570 0.000000 0.000000 
#    y 0.000000 1.769570 0.000000 
#    z 0.000000 0.000000 1.794810 
# 
# From -- ./inp_files/5063.got.cif
#   From: 2010.05.17/outbox.cif.g08.bks.cpg/sg97_3_cif.got.tgz:5063.got - 2010.06.03 19:55:32.
