data_PCOD9551968
_publ_section_title
;
Structure prediction by ZEFSAII (Michael W. Deem and Ramdas Pophale) SiO2 
 PCOD9551968
Probable space group: I 41 2 2
;
_chemical_formula_sum "Si O2"
_cell_formula_units_Z 48
_cell_length_a 8.276737
_cell_length_b 8.276737
_cell_length_c 29.999741
_cell_angle_alpha 90.000000
_cell_angle_beta 90.000000
_cell_angle_gamma 90.000000
_cell_volume 2055.113518
_symmetry_space_group_name_H-M "I 41 2 2"
_symmetry_group_IT_number 98
_symmetry_cell_setting 'tetragonal'
loop_
_space_group_symop_operation_xyz
x,y,z
-y,1/2+x,1/4+z
-x,-y,z
y,1/2-x,1/4+z
x,1/2-y,1/4-z
-x,1/2+y,1/4-z
y,x,-z
-y,-x,-z
1/2+x,1/2+y,1/2+z
1/2-y,x,3/4+z
1/2-x,1/2-y,1/2+z
1/2+y,-x,3/4+z
1/2+x,-y,3/4-z
1/2-x,y,3/4-z
1/2+y,1/2+x,1/2-z
1/2-y,1/2-x,1/2-z
loop_
_atom_site_type_symbol
_atom_site_label
_atom_site_fract_x
_atom_site_fract_y
_atom_site_fract_z
Si Si1 0.672471 0.136270 0.303292
Si Si2 0.785936 0.808501 0.575645
Si Si3 0.836343 0.456456 0.298972
O O1 0.644884 0.144884 0.250000
O O2 0.495968 0.168190 0.323408
O O3 0.764768 0.295048 0.319221
O O4 0.759578 0.964197 0.311946
O O5 0.749816 0.750000 0.625000
O O6 0.622089 0.767589 0.547947
O O7 0.891667 0.391667 0.250000
O O8 0.000000 0.500000 0.324148
#
# Coordination Sequence:
#
# PCOD9551968 Si02
#       3
#    16  16  16
#     4  10  24  46  74  99 141 191 243 294 357 435
#     4  11  24  42  70 103 144 182 235 301 363 424
#     4  10  24  41  65 103 137 183 238 291 355 432
#
# _framework density 23.356373999999999
#
# number of rings (size 3 to 8) (size 9 to 14) (size 15 to 20)
#    0.000    1.667    0.000    3.000    9.333   10.667 
#    0.000    0.000    0.000    0.000    0.000    0.000 
#    0.000    0.000    0.000    0.000    0.000    0.000 
#
# Total GULP energy -133688.066207 kJ/mol
# GULP energy per Si atom -5570.336092 kJ/mol
# Density = 2.330321 g / cm^3
# Si number density = 23.356374 Si / 1000 Ang^3
#
#
#
# Elastic Constant Matrix: (Units=GPa)
#
#
# Indices 1 2 3 4 5 6 
#
# 1 139.3501 82.7362 14.8070 0.0000 0.0000 0.0000
# 2 82.7362 139.3501 14.8070 0.0000 0.0000 0.0000
# 3 14.8070 14.8070 100.0940 0.0000 0.0000 0.0000
# 4 0.0000 0.0000 0.0000 24.9670 0.0000 0.0000
# 5 0.0000 0.0000 0.0000 0.0000 24.9670 0.0000
# 6 0.0000 0.0000 0.0000 0.0000 0.0000 34.1603
#
#
#
# Elastic Compliance Matrix: (Units=1/GPa)
#
#
# Indices 1 2 3 4 5 6 
#
# 1 0.011128 -0.006535 -0.000680 0.000000 0.000000 0.000000
# 2 -0.006535 0.011128 -0.000680 0.000000 0.000000 0.000000
# 3 -0.000680 -0.000680 0.010192 0.000000 0.000000 0.000000
# 4 0.000000 0.000000 0.000000 0.040053 0.000000 0.000000
# 5 0.000000 0.000000 0.000000 0.000000 0.040053 0.000000
# 6 0.000000 0.000000 0.000000 0.000000 0.000000 0.029274
#
#
# Mechanical properties :
#
#
# Convention : Reuss Voigt Hill
#
# Bulk Modulus (GPa) = 60.02271 67.05499 63.53885
# Shear Modulus (GPa) = 30.64295 34.58178 32.61237
#
# Velocity S-wave (km/s) = 3.62605 3.85205 3.74076
# Velocity P-wave (km/s) = 6.57916 6.96823 6.77649
#
# Compressibility (1/GPa) = 0.01666036
#
# Stress axis : x y z
#
# Youngs Moduli (GPa) = 89.85992 89.85992 98.11957
#
# Poissons Ratio (x) = 0.58724 0.06667
# Poissons Ratio (y) = 0.58724 0.06667
# Poissons Ratio (z) = 0.06106 0.06106
#
# Static dielectric constant tensor:
#      x y z
#    x 2.077540 0.000000 0.000000 
#    y 0.000000 2.077540 0.000000 
#    z 0.000000 0.000000 1.959990 
# 
# From -- ./inp_files/11318.got.cif
#   From: 2010.05.17/outbox.cif.g08.bks.cpg/sg98_6_cif.got.tgz:11318.got - 2010.06.03 20:00:51.
