data_PCOD9551188
_publ_section_title
;
Structure prediction by ZEFSAII (Michael W. Deem and Ramdas Pophale) SiO2 
 PCOD9551188
Probable space group: P 43 21 2
;
_chemical_formula_sum "Si O2"
_cell_formula_units_Z 40
_cell_length_a 12.751547
_cell_length_b 12.751547
_cell_length_c 10.084900
_cell_angle_alpha 90.000000
_cell_angle_beta 90.000000
_cell_angle_gamma 90.000000
_cell_volume 1639.824415
_symmetry_space_group_name_H-M "P 43 21 2"
_symmetry_group_IT_number 96
_symmetry_cell_setting 'tetragonal'
loop_
_space_group_symop_operation_xyz
x,y,z
1/2-y,1/2+x,3/4+z
-x,-y,1/2+z
1/2+y,1/2-x,1/4+z
1/2+x,1/2-y,1/4-z
1/2-x,1/2+y,3/4-z
y,x,-z
-y,-x,1/2-z
loop_
_atom_site_type_symbol
_atom_site_label
_atom_site_fract_x
_atom_site_fract_y
_atom_site_fract_z
Si Si1 0.402051 0.011934 0.916671
Si Si2 0.974604 0.130331 0.878289
Si Si3 0.502992 0.675838 0.275037
Si Si4 0.911556 0.712731 0.218857
Si Si5 0.590290 0.299003 0.047414
O O1 0.297983 0.080946 0.895280
O O2 0.440586 0.986923 0.767304
O O3 0.379182 0.900027 0.983599
O O4 0.921921 0.078080 0.750000
O O5 0.004570 0.245615 0.828120
O O6 0.090543 0.075822 0.873219
O O7 0.884836 0.109360 0.986275
O O8 0.416739 0.583261 0.250000
O O9 0.491587 0.708568 0.426696
O O10 0.467649 0.767207 0.172976
O O11 0.815855 0.795617 0.231059
#
# Coordination Sequence:
#
# PCOD9551188 Si02
#       5
#     8   8   8   8   8
#     4  12  29  51  69  98 147 204 243 309 374 455
#     4   8  15  34  64 108 134 166 223 304 359 411
#     4   9  15  33  70 106 135 174 224 310 359 430
#     4   8  20  42  67  97 140 178 232 297 359 436
#     4   9  21  42  70 104 138 185 245 297 372 445
#
# _framework density 24.392855000000001
#
# number of rings (size 3 to 8) (size 9 to 14) (size 15 to 20)
#    1.200    1.600    2.000    0.000    2.800    2.400 
#    3.600    0.000    4.400    0.000    0.000    0.000 
#    0.000    0.000    0.000    0.000    0.000    0.000 
#
# Total GULP energy -223034.527437 kJ/mol
# GULP energy per Si atom -5575.863186 kJ/mol
# Density = 2.433734 g / cm^3
# Si number density = 24.392855 Si / 1000 Ang^3
#
#
#
# Elastic Constant Matrix: (Units=GPa)
#
#
# Indices 1 2 3 4 5 6 
#
# 1 63.5718 16.7351 17.5068 0.0000 0.0000 0.0000
# 2 16.7351 63.5710 17.5063 0.0000 0.0000 0.0000
# 3 17.5068 17.5063 139.3811 0.0000 0.0000 0.0000
# 4 0.0000 0.0000 0.0000 34.1793 0.0000 0.0000
# 5 0.0000 0.0000 0.0000 0.0000 34.1790 0.0000
# 6 0.0000 0.0000 0.0000 0.0000 0.0000 61.1829
#
#
#
# Elastic Compliance Matrix: (Units=1/GPa)
#
#
# Indices 1 2 3 4 5 6 
#
# 1 0.017262 -0.004089 -0.001655 0.000000 0.000000 0.000000
# 2 -0.004089 0.017262 -0.001655 0.000000 0.000000 0.000000
# 3 -0.001655 -0.001655 0.007590 0.000000 0.000000 0.000000
# 4 0.000000 0.000000 0.000000 0.029257 0.000000 0.000000
# 5 0.000000 0.000000 0.000000 0.000000 0.029258 0.000000
# 6 0.000000 0.000000 0.000000 0.000000 0.000000 0.016344
#
#
# Mechanical properties :
#
#
# Convention : Reuss Voigt Hill
#
# Bulk Modulus (GPa) = 36.60448 41.11337 38.85892
# Shear Modulus (GPa) = 35.49202 40.22661 37.85932
#
# Velocity S-wave (km/s) = 3.81861 4.06533 3.94390
# Velocity P-wave (km/s) = 5.87207 6.23917 6.05840
#
# Compressibility (1/GPa) = 0.02731906
#
# Stress axis : x y z
#
# Youngs Moduli (GPa) = 57.92991 57.92930 131.74833
#
# Poissons Ratio (x) = 0.23685 0.21800
# Poissons Ratio (y) = 0.23685 0.21799
# Poissons Ratio (z) = 0.09585 0.09585
#
# Static dielectric constant tensor:
#      x y z
#    x 2.000500 0.000000 0.000000 
#    y 0.000000 2.000500 0.000000 
#    z 0.000000 0.000000 2.036010 
# 
# From -- ./inp_files/2055.got.cif
#   From: 2010.05.17/outbox.cif.g08.bks.cpg/sg96_2_cif.got.tgz:2055.got - 2010.06.03 19:52:08.
