data_PCOD9551040
_publ_section_title
;
Structure prediction by ZEFSAII (Michael W. Deem and Ramdas Pophale) SiO2 
 PCOD9551040
Probable space group: P 43 21 2
;
_chemical_formula_sum "Si O2"
_cell_formula_units_Z 44
_cell_length_a 12.418179
_cell_length_b 12.418179
_cell_length_c 11.054357
_cell_angle_alpha 90.000000
_cell_angle_beta 90.000000
_cell_angle_gamma 90.000000
_cell_volume 1704.705323
_symmetry_space_group_name_H-M "P 43 21 2"
_symmetry_group_IT_number 96
_symmetry_cell_setting 'tetragonal'
loop_
_space_group_symop_operation_xyz
x,y,z
1/2-y,1/2+x,3/4+z
-x,-y,1/2+z
1/2+y,1/2-x,1/4+z
1/2+x,1/2-y,1/4-z
1/2-x,1/2+y,3/4-z
y,x,-z
-y,-x,1/2-z
loop_
_atom_site_type_symbol
_atom_site_label
_atom_site_fract_x
_atom_site_fract_y
_atom_site_fract_z
Si Si1 0.882855 0.369780 0.910062
Si Si2 0.334364 0.893237 0.349200
Si Si3 0.177695 0.133393 0.188077
Si Si4 0.029682 0.970319 0.750000
Si Si5 0.414294 0.816012 0.702581
Si Si6 0.532790 0.741860 0.341578
O O1 0.902089 0.495896 0.878704
O O2 0.905671 0.299022 0.791014
O O3 0.963266 0.345681 0.019870
O O4 0.240135 0.641711 0.451407
O O5 0.411111 0.788687 0.336762
O O6 0.251250 0.906393 0.460477
O O7 0.252965 0.120047 0.072476
O O8 0.089151 0.042149 0.198501
O O9 0.103528 0.236829 0.159770
O O10 0.123577 0.958319 0.648777
O O11 0.330083 0.909473 0.676244
#
# Coordination Sequence:
#
# PCOD9551040 Si02
#       6
#     8   8   8   4   8   8
#     4  11  22  47  82 120 160 196 275 347 404 488
#     4  10  23  45  80 125 145 196 263 355 414 467
#     4  11  27  46  75 113 155 229 253 326 418 475
#     4  12  28  52  70 108 174 212 274 322 400 532
#     4  11  24  46  77 113 152 203 274 329 403 478
#     4  11  24  44  81 116 154 203 266 341 409 476
#
# _framework density 25.810912999999999
#
# number of rings (size 3 to 8) (size 9 to 14) (size 15 to 20)
#    0.000    1.091    1.818    4.364    7.636    0.000 
#   13.091    4.545    0.000    0.000    0.000    0.000 
#    0.000    0.000    0.000    0.000    0.000    0.000 
#
# Total GULP energy -246174.211231 kJ/mol
# GULP energy per Si atom -5594.868437 kJ/mol
# Density = 2.575217 g / cm^3
# Si number density = 25.810913 Si / 1000 Ang^3
#
#
#
# Elastic Constant Matrix: (Units=GPa)
#
#
# Indices 1 2 3 4 5 6 
#
# 1 126.1018 27.0985 38.5961 0.0000 0.0000 0.0000
# 2 27.0985 126.1023 38.5956 0.0000 0.0000 0.0000
# 3 38.5961 38.5956 159.7310 0.0000 0.0000 0.0000
# 4 0.0000 0.0000 0.0000 44.8379 0.0000 0.0000
# 5 0.0000 0.0000 0.0000 0.0000 44.8381 0.0000
# 6 0.0000 0.0000 0.0000 0.0000 0.0000 31.0028
#
#
#
# Elastic Compliance Matrix: (Units=1/GPa)
#
#
# Indices 1 2 3 4 5 6 
#
# 1 0.008766 -0.001334 -0.001796 0.000000 0.000000 0.000000
# 2 -0.001334 0.008766 -0.001796 0.000000 0.000000 0.000000
# 3 -0.001796 -0.001796 0.007128 0.000000 0.000000 0.000000
# 4 0.000000 0.000000 0.000000 0.022303 0.000000 0.000000
# 5 0.000000 0.000000 0.000000 0.000000 0.022302 0.000000
# 6 0.000000 0.000000 0.000000 0.000000 0.000000 0.032255
#
#
# Mechanical properties :
#
#
# Convention : Reuss Voigt Hill
#
# Bulk Modulus (GPa) = 67.52439 68.94618 68.23528
# Shear Modulus (GPa) = 42.98866 44.64544 43.81705
#
# Velocity S-wave (km/s) = 4.08551 4.16349 4.12468
# Velocity P-wave (km/s) = 6.96227 7.06278 7.01270
#
# Compressibility (1/GPa) = 0.01480946
#
# Stress axis : x y z
#
# Youngs Moduli (GPa) = 114.07094 114.07164 140.28414
#
# Poissons Ratio (x) = 0.15219 0.25193
# Poissons Ratio (y) = 0.15219 0.25193
# Poissons Ratio (z) = 0.20486 0.20485
#
# Static dielectric constant tensor:
#      x y z
#    x 2.090810 0.000000 0.000000 
#    y 0.000000 2.090810 0.000000 
#    z 0.000000 0.000000 2.078510 
# 
# From -- ./inp_files/2130.got.cif
#   From: 2010.05.17/outbox.cif.g08.bks.cpg/sg96_2_cif.got.tgz:2130.got - 2010.06.03 19:52:08.
