data_PCOD9551148
_publ_section_title
;
Structure prediction by ZEFSAII (Michael W. Deem and Ramdas Pophale) SiO2 
 PCOD9551148
Probable space group: P 43 21 2
;
_chemical_formula_sum "Si O2"
_cell_formula_units_Z 52
_cell_length_a 19.542733
_cell_length_b 19.542733
_cell_length_c 5.396537
_cell_angle_alpha 90.000000
_cell_angle_beta 90.000000
_cell_angle_gamma 90.000000
_cell_volume 2061.036847
_symmetry_space_group_name_H-M "P 43 21 2"
_symmetry_group_IT_number 96
_symmetry_cell_setting 'tetragonal'
loop_
_space_group_symop_operation_xyz
x,y,z
1/2-y,1/2+x,3/4+z
-x,-y,1/2+z
1/2+y,1/2-x,1/4+z
1/2+x,1/2-y,1/4-z
1/2-x,1/2+y,3/4-z
y,x,-z
-y,-x,1/2-z
loop_
_atom_site_type_symbol
_atom_site_label
_atom_site_fract_x
_atom_site_fract_y
_atom_site_fract_z
Si Si1 0.509805 0.906599 0.185946
Si Si2 0.524204 0.799819 0.525968
Si Si3 0.146167 0.594704 0.628200
Si Si4 0.841091 0.158910 0.750000
Si Si5 0.263236 0.657164 0.453905
Si Si6 0.955225 0.146594 0.106188
Si Si7 0.777114 0.222887 0.250000
Si Si8 0.607856 0.392145 0.250000
O O1 0.569973 0.958811 0.150314
O O2 0.529905 0.830509 0.250034
O O3 0.465886 0.905696 0.942711
O O4 0.590464 0.842560 0.629221
O O5 0.449845 0.809441 0.665620
O O6 0.540277 0.720376 0.520191
O O7 0.200629 0.607211 0.401261
O O8 0.836672 0.080398 0.658788
O O9 0.816150 0.199736 0.500817
O O10 0.289096 0.710905 0.250000
O O11 0.222874 0.696235 0.680360
O O12 0.331711 0.621591 0.550738
O O13 0.906003 0.093998 0.250000
O O14 0.031168 0.117221 0.092925
#
# Coordination Sequence:
#
# PCOD9551148 Si02
#       8
#     8   8   8   4   8   8   4   4
#     4  12  24  43  73 105 160 214 263 324 401 508
#     4  12  26  49  73 119 159 211 276 334 425 507
#     4  12  25  46  73 117 163 215 271 337 420 512
#     4  12  26  54  83 121 165 213 282 356 434 510
#     4  11  26  49  83 119 166 223 284 354 436 521
#     4  12  30  54  82 119 160 224 292 367 446 519
#     4  11  24  52  83 120 166 219 274 347 434 520
#     4  11  28  54  82 121 165 222 298 373 444 534
#
# _framework density 25.230018999999999
#
# number of rings (size 3 to 8) (size 9 to 14) (size 15 to 20)
#    0.000    0.308    6.154    1.846    3.231    2.462 
#    5.538    0.000    0.000    0.000    0.000    0.000 
#    0.000    0.000    0.000    0.000    0.000    0.000 
#
# Total GULP energy -289578.734673 kJ/mol
# GULP energy per Si atom -5568.821821 kJ/mol
# Density = 2.517259 g / cm^3
# Si number density = 25.230019 Si / 1000 Ang^3
#
#
#
# Elastic Constant Matrix: (Units=GPa)
#
#
# Indices 1 2 3 4 5 6 
#
# 1 525.1911 -318.4361 39.8924 0.0000 0.0000 0.0000
# 2 -318.4361 525.1930 39.8720 0.0000 0.0000 0.0000
# 3 39.8924 39.8720 91.5723 0.0000 0.0000 0.0000
# 4 0.0000 0.0000 0.0000 76.6065 0.0000 0.0000
# 5 0.0000 0.0000 0.0000 0.0000 76.5838 0.0000
# 6 0.0000 0.0000 0.0000 0.0000 0.0000 38.1304
#
#
#
# Elastic Compliance Matrix: (Units=1/GPa)
#
#
# Indices 1 2 3 4 5 6 
#
# 1 0.003499 0.002314 -0.002532 0.000000 0.000000 0.000000
# 2 0.002314 0.003499 -0.002532 0.000000 0.000000 0.000000
# 3 -0.002532 -0.002532 0.013126 0.000000 0.000000 0.000000
# 4 0.000000 0.000000 0.000000 0.013054 0.000000 0.000000
# 5 0.000000 0.000000 0.000000 0.000000 0.013058 0.000000
# 6 0.000000 0.000000 0.000000 0.000000 0.000000 0.026226
#
#
# Mechanical properties :
#
#
# Convention : Reuss Voigt Hill
#
# Bulk Modulus (GPa) = 68.37618 73.84589 71.11103
# Shear Modulus (GPa) = 60.36015 130.30601 95.33308
#
# Velocity S-wave (km/s) = 4.89652 7.19440 6.15367
# Velocity P-wave (km/s) = 7.68946 9.91691 8.87335
#
# Compressibility (1/GPa) = 0.01462498
#
# Stress axis : x y z
#
# Youngs Moduli (GPa) = 285.75955 285.77054 76.18616
#
# Poissons Ratio (x) = -0.66128 0.19291
# Poissons Ratio (y) = -0.66125 0.19288
# Poissons Ratio (z) = 0.72356 0.72349
#
# Static dielectric constant tensor:
#      x y z
#    x 1.015030 0.000000 0.000000 
#    y 0.000000 1.015530 0.000000 
#    z 0.000000 0.000000 1.893280 
# 
# From -- ./inp_files/720.got.cif
#   From: 2010.05.17/outbox.cif.g08.bks.cpg/sg96_1_cif.got.tgz:720.got - 2010.06.03 19:52:08.
