data_PCOD9551501
_publ_section_title
;
Structure prediction by ZEFSAII (Michael W. Deem and Ramdas Pophale) SiO2 
 PCOD9551501
Probable space group: I 4 2 2 
;
_chemical_formula_sum "Si O2"
_cell_formula_units_Z 88
_cell_length_a 17.401374
_cell_length_b 17.401374
_cell_length_c 14.975733
_cell_angle_alpha 90.000000
_cell_angle_beta 90.000000
_cell_angle_gamma 90.000000
_cell_volume 4534.769019
_symmetry_space_group_name_H-M "I 4 2 2 "
_symmetry_group_IT_number 97
_symmetry_cell_setting 'tetragonal'
loop_
_space_group_symop_operation_xyz
x,y,z
-y,x,z
-x,-y,z
y,-x,z
x,-y,-z
-x,y,-z
y,x,-z
-y,-x,-z
1/2+x,1/2+y,1/2+z
1/2-y,1/2+x,1/2+z
1/2-x,1/2-y,1/2+z
1/2+y,1/2-x,1/2+z
1/2+x,1/2-y,1/2-z
1/2-x,1/2+y,1/2-z
1/2+y,1/2+x,1/2-z
1/2-y,1/2-x,1/2-z
loop_
_atom_site_type_symbol
_atom_site_label
_atom_site_fract_x
_atom_site_fract_y
_atom_site_fract_z
Si Si1 0.091162 0.702648 0.212629
Si Si2 0.243168 0.945701 0.135004
Si Si3 0.911426 0.792530 0.466744
Si Si4 0.171663 0.799594 0.725142
Si Si5 0.835038 0.293623 0.016936
Si Si6 0.500000 0.627385 0.500000
O O1 0.122850 0.622850 0.250000
O O2 0.127593 0.770734 0.273601
O O3 0.000522 0.708141 0.199127
O O4 0.129181 0.711225 0.114671
O O5 0.195689 0.885510 0.192430
O O6 0.290375 0.900148 0.059345
O O7 0.182038 0.998792 0.084833
O O8 0.870481 0.870481 0.500000
O O9 0.880688 0.789220 0.363118
O O10 0.867715 0.719273 0.509215
O O11 0.000000 0.791707 0.500000
O O12 0.226855 0.726855 0.750000
O O13 0.778947 0.221054 0.000000
O O14 0.425915 0.574086 0.500000
#
# Coordination Sequence:
#
# PCOD9551501 Si02
#       6
#    16  16  16  16  16   8
#     4  11  22  35  61  92 123 160 210 260 313 376
#     4  12  21  36  63  91 125 159 204 265 320 374
#     4  11  25  43  66  90 126 170 216 263 316 380
#     4  11  22  40  62  92 120 162 219 266 306 374
#     4  11  19  40  63  91 122 162 208 258 319 378
#     4  11  22  36  54  90 133 166 190 240 331 400
#
# _framework density 19.405619999999999
#
# number of rings (size 3 to 8) (size 9 to 14) (size 15 to 20)
#    0.000    0.818    5.455    4.909    5.091    0.182 
#    0.000    0.000    0.000    4.909    0.000    0.000 
#    0.000    0.000    0.000    0.000    0.000    0.000 
#
# Total GULP energy -245566.674307 kJ/mol
# GULP energy per Si atom -5581.060780 kJ/mol
# Density = 1.936145 g / cm^3
# Si number density = 19.405620 Si / 1000 Ang^3
#
#
#
# Elastic Constant Matrix: (Units=GPa)
#
#
# Indices 1 2 3 4 5 6 
#
# 1 95.4089 57.0592 22.3312 0.0000 0.0000 0.0000
# 2 57.0592 95.4083 22.3311 0.0000 0.0000 0.0000
# 3 22.3312 22.3311 86.3016 0.0000 0.0000 0.0000
# 4 0.0000 0.0000 0.0000 30.1970 0.0000 0.0000
# 5 0.0000 0.0000 0.0000 0.0000 30.1980 0.0000
# 6 0.0000 0.0000 0.0000 0.0000 0.0000 -18.2508
#
#
#
# Elastic Compliance Matrix: (Units=1/GPa)
#
#
# Indices 1 2 3 4 5 6 
#
# 1 0.016586 -0.009490 -0.001836 0.000000 0.000000 0.000000
# 2 -0.009490 0.016586 -0.001836 0.000000 0.000000 0.000000
# 3 -0.001836 -0.001836 0.012538 0.000000 0.000000 0.000000
# 4 0.000000 0.000000 0.000000 0.033116 0.000000 0.000000
# 5 0.000000 0.000000 0.000000 0.000000 0.033115 0.000000
# 6 0.000000 0.000000 0.000000 0.000000 0.000000 -0.054792
#
#
# Mechanical properties :
#
#
# Convention : Reuss Voigt Hill
#
# Bulk Modulus (GPa) = 51.58446 53.39574 52.49010
# Shear Modulus (GPa) = 55.59562 20.12200 37.85881
#
# Velocity S-wave (km/s) = 5.35831 3.22361 4.42171
# Velocity P-wave (km/s) = 8.05741 6.43668 7.29221
#
# Compressibility (1/GPa) = 0.01938568
#
# Stress axis : x y z
#
# Youngs Moduli (GPa) = 60.29076 60.29044 79.76011
#
# Poissons Ratio (x) = 0.57214 0.14646
# Poissons Ratio (y) = 0.57214 0.14646
# Poissons Ratio (z) = 0.11071 0.11071
#
# Static dielectric constant tensor:
#      x y z
#    x 1.687400 0.000000 0.000000 
#    y 0.000000 1.687400 0.000000 
#    z 0.000000 0.000000 1.743290 
# 
# From -- ./inp_files/4841.got.cif
#   From: 2010.05.17/outbox.cif.g08.bks.cpg/sg97_3_cif.got.tgz:4841.got - 2010.06.03 19:55:32.
