data_PCOD9551322
_publ_section_title
;
Structure prediction by ZEFSAII (Michael W. Deem and Ramdas Pophale) SiO2 
 PCOD9551322
Probable space group: I 4 2 2 
;
_chemical_formula_sum "Si O2"
_cell_formula_units_Z 120
_cell_length_a 17.838581
_cell_length_b 17.838581
_cell_length_c 19.789436
_cell_angle_alpha 90.000000
_cell_angle_beta 90.000000
_cell_angle_gamma 90.000000
_cell_volume 6297.294824
_symmetry_space_group_name_H-M "I 4 2 2 "
_symmetry_group_IT_number 97
_symmetry_cell_setting 'tetragonal'
loop_
_space_group_symop_operation_xyz
x,y,z
-y,x,z
-x,-y,z
y,-x,z
x,-y,-z
-x,y,-z
y,x,-z
-y,-x,-z
1/2+x,1/2+y,1/2+z
1/2-y,1/2+x,1/2+z
1/2-x,1/2-y,1/2+z
1/2+y,1/2-x,1/2+z
1/2+x,1/2-y,1/2-z
1/2-x,1/2+y,1/2-z
1/2+y,1/2+x,1/2-z
1/2-y,1/2-x,1/2-z
loop_
_atom_site_type_symbol
_atom_site_label
_atom_site_fract_x
_atom_site_fract_y
_atom_site_fract_z
Si Si1 0.431308 0.165409 0.210335
Si Si2 0.323722 0.346817 0.074622
Si Si3 0.807494 0.674040 0.593316
Si Si4 0.588240 0.087889 0.487584
Si Si5 0.575394 0.401418 0.804495
Si Si6 0.682311 0.912123 0.635502
Si Si7 0.878428 0.795938 0.804127
Si Si8 0.290162 0.790162 0.250000
O O1 0.411362 0.088639 0.250000
O O2 0.363450 0.175181 0.157610
O O3 0.508214 0.170145 0.170437
O O4 0.425611 0.233197 0.263441
O O5 0.293352 0.261020 0.076016
O O6 0.381481 0.355262 0.137088
O O7 0.255838 0.404534 0.088117
O O8 0.357992 0.357992 0.000000
O O9 0.854820 0.632997 0.535347
O O10 0.733601 0.629460 0.619054
O O11 0.500000 0.094671 0.500000
O O12 0.611237 0.105025 0.411029
O O13 0.609289 0.000000 0.500000
O O14 0.601738 0.486563 0.813966
O O15 0.591686 0.372644 0.728408
O O16 0.696403 0.850854 0.692504
O O17 0.792595 0.796018 0.779534
#
# Coordination Sequence:
#
# PCOD9551322 Si02
#       8
#    16  16  16  16  16  16  16   8
#     4  10  20  36  60  87 119 168 208 248 314 381
#     4  12  23  36  64  94 122 170 217 261 320 398
#     4  11  20  39  63  86 121 169 208 258 313 379
#     4  11  25  43  61  86 129 171 212 260 317 384
#     4  11  24  41  60  90 130 164 205 266 327 385
#     4  12  23  39  62  92 125 164 213 264 319 386
#     4  11  19  38  61  88 124 156 205 258 313 373
#     4  12  22  36  59  94 122 147 206 274 304 360
#
# _framework density 19.055802
#
# number of rings (size 3 to 8) (size 9 to 14) (size 15 to 20)
#    0.000    0.800    8.667    0.800    0.000    2.667 
#    0.000    0.667    0.000    0.000    0.000    0.000 
#    0.000    0.000    0.000    0.000    0.000    0.000 
#
# Total GULP energy -334805.516722 kJ/mol
# GULP energy per Si atom -5580.091945 kJ/mol
# Density = 1.901243 g / cm^3
# Si number density = 19.055802 Si / 1000 Ang^3
#
#
#
# Elastic Constant Matrix: (Units=GPa)
#
#
# Indices 1 2 3 4 5 6 
#
# 1 57.0891 50.1036 35.4232 0.0000 0.0000 0.0000
# 2 50.1036 57.0887 35.4236 0.0000 0.0000 0.0000
# 3 35.4232 35.4236 68.9163 0.0000 0.0000 0.0000
# 4 0.0000 0.0000 0.0000 15.9492 0.0000 0.0000
# 5 0.0000 0.0000 0.0000 0.0000 15.9480 0.0000
# 6 0.0000 0.0000 0.0000 0.0000 0.0000 22.8783
#
#
#
# Elastic Compliance Matrix: (Units=1/GPa)
#
#
# Indices 1 2 3 4 5 6 
#
# 1 0.078643 -0.064515 -0.007262 0.000000 0.000000 0.000000
# 2 -0.064515 0.078644 -0.007263 0.000000 0.000000 0.000000
# 3 -0.007262 -0.007263 0.021976 0.000000 0.000000 0.000000
# 4 0.000000 0.000000 0.000000 0.062699 0.000000 0.000000
# 5 0.000000 0.000000 0.000000 0.000000 0.062704 0.000000
# 6 0.000000 0.000000 0.000000 0.000000 0.000000 0.043710
#
#
# Mechanical properties :
#
#
# Convention : Reuss Voigt Hill
#
# Bulk Modulus (GPa) = 47.20415 47.22165 47.21290
# Shear Modulus (GPa) = 9.73681 15.09802 12.41741
#
# Velocity S-wave (km/s) = 2.26290 2.81785 2.55548
# Velocity P-wave (km/s) = 5.62609 5.95160 5.79113
#
# Compressibility (1/GPa) = 0.02118458
#
# Stress axis : x y z
#
# Youngs Moduli (GPa) = 12.71573 12.71549 45.50389
#
# Poissons Ratio (x) = 0.82033 0.33043
# Poissons Ratio (y) = 0.82035 0.33050
# Poissons Ratio (z) = 0.09234 0.09235
#
# Static dielectric constant tensor:
#      x y z
#    x 1.679210 0.000000 0.000000 
#    y 0.000000 1.679210 0.000000 
#    z 0.000000 0.000000 1.716710 
# 
# From -- ./inp_files/6856.got.cif
#   From: 2010.05.17/outbox.cif.g08.bks.cpg/sg97_4_cif.got.tgz:6856.got - 2010.06.03 19:55:32.
