data_PCOD9551080
_publ_section_title
;
Structure prediction by ZEFSAII (Michael W. Deem and Ramdas Pophale) SiO2 
 PCOD9551080
Probable space group: P 43 21 2
;
_chemical_formula_sum "Si O2"
_cell_formula_units_Z 40
_cell_length_a 13.620125
_cell_length_b 13.620125
_cell_length_c 8.778478
_cell_angle_alpha 90.000000
_cell_angle_beta 90.000000
_cell_angle_gamma 90.000000
_cell_volume 1628.476185
_symmetry_space_group_name_H-M "P 43 21 2"
_symmetry_group_IT_number 96
_symmetry_cell_setting 'tetragonal'
loop_
_space_group_symop_operation_xyz
x,y,z
1/2-y,1/2+x,3/4+z
-x,-y,1/2+z
1/2+y,1/2-x,1/4+z
1/2+x,1/2-y,1/4-z
1/2-x,1/2+y,3/4-z
y,x,-z
-y,-x,1/2-z
loop_
_atom_site_type_symbol
_atom_site_label
_atom_site_fract_x
_atom_site_fract_y
_atom_site_fract_z
Si Si1 0.597406 0.597406 0.000000
Si Si2 0.844270 0.698968 0.415716
Si Si3 0.105769 0.554713 0.095722
Si Si4 0.516196 0.483805 0.250000
Si Si5 0.496153 0.733387 0.610328
Si Si6 0.799770 0.665828 0.082675
O O1 0.519114 0.573521 0.131594
O O2 0.696617 0.607067 0.099314
O O3 0.786068 0.786068 0.500000
O O4 0.948088 0.704664 0.499800
O O5 0.773865 0.604310 0.429767
O O6 0.853888 0.699204 0.234486
O O7 0.073459 0.461398 0.197520
O O8 0.099414 0.640291 0.217828
O O9 0.218550 0.557331 0.036413
O O10 0.514083 0.381579 0.150853
O O11 0.763568 0.763568 0.000000
#
# Coordination Sequence:
#
# PCOD9551080 Si02
#       6
#     4   8   8   4   8   8
#     4  10  26  46  69 111 144 194 250 324 376 450
#     4  12  26  49  80 110 157 199 258 320 394 468
#     4  12  29  45  75 111 152 198 256 316 393 470
#     4  12  26  44  77 109 146 200 264 304 400 460
#     4  12  26  46  77 111 149 212 255 323 389 475
#     4  10  25  48  71 105 149 198 245 318 382 455
#
# _framework density 24.562839
#
# number of rings (size 3 to 8) (size 9 to 14) (size 15 to 20)
#    0.600    0.000    5.000    1.200    7.000    1.600 
#    0.000    0.000    4.400    0.000    0.000    0.000 
#    0.000    0.000    0.000    0.000    0.000    0.000 
#
# Total GULP energy -222887.855651 kJ/mol
# GULP energy per Si atom -5572.196391 kJ/mol
# Density = 2.450693 g / cm^3
# Si number density = 24.562839 Si / 1000 Ang^3
#
#
#
# Elastic Constant Matrix: (Units=GPa)
#
#
# Indices 1 2 3 4 5 6 
#
# 1 41.4676 16.4285 18.9884 0.0000 0.0000 0.0000
# 2 16.4285 41.4668 18.9885 0.0000 0.0000 0.0000
# 3 18.9884 18.9885 132.1758 0.0000 0.0000 0.0000
# 4 0.0000 0.0000 0.0000 42.5606 0.0000 0.0000
# 5 0.0000 0.0000 0.0000 0.0000 42.5601 0.0000
# 6 0.0000 0.0000 0.0000 0.0000 0.0000 23.8811
#
#
#
# Elastic Compliance Matrix: (Units=1/GPa)
#
#
# Indices 1 2 3 4 5 6 
#
# 1 0.029503 -0.010434 -0.002739 0.000000 0.000000 0.000000
# 2 -0.010434 0.029504 -0.002740 0.000000 0.000000 0.000000
# 3 -0.002739 -0.002740 0.008353 0.000000 0.000000 0.000000
# 4 0.000000 0.000000 0.000000 0.023496 0.000000 0.000000
# 5 0.000000 0.000000 0.000000 0.000000 0.023496 0.000000
# 6 0.000000 0.000000 0.000000 0.000000 0.000000 0.041874
#
#
# Mechanical properties :
#
#
# Convention : Reuss Voigt Hill
#
# Bulk Modulus (GPa) = 28.14240 35.99125 32.06682
# Shear Modulus (GPa) = 25.01276 32.51402 28.76339
#
# Velocity S-wave (km/s) = 3.19457 3.64223 3.42572
# Velocity P-wave (km/s) = 5.00891 5.68966 5.36011
#
# Compressibility (1/GPa) = 0.03553357
#
# Stress axis : x y z
#
# Youngs Moduli (GPa) = 33.89428 33.89361 119.72022
#
# Poissons Ratio (x) = 0.35366 0.32797
# Poissons Ratio (y) = 0.35366 0.32798
# Poissons Ratio (z) = 0.09285 0.09285
#
# Static dielectric constant tensor:
#      x y z
#    x 2.017850 0.000000 0.000000 
#    y 0.000000 2.017850 0.000000 
#    z 0.000000 0.000000 2.031320 
# 
# From -- ./inp_files/1389.got.cif
#   From: 2010.05.17/outbox.cif.g08.bks.cpg/sg96_1_cif.got.tgz:1389.got - 2010.06.03 19:52:08.
