data_PCOD9551267
_publ_section_title
;
Structure prediction by ZEFSAII (Michael W. Deem and Ramdas Pophale) SiO2 
 PCOD9551267
Probable space group: I 4 2 2 
;
_chemical_formula_sum "Si O2"
_cell_formula_units_Z 104
_cell_length_a 17.910725
_cell_length_b 17.910725
_cell_length_c 18.659621
_cell_angle_alpha 90.000000
_cell_angle_beta 90.000000
_cell_angle_gamma 90.000000
_cell_volume 5985.895766
_symmetry_space_group_name_H-M "I 4 2 2 "
_symmetry_group_IT_number 97
_symmetry_cell_setting 'tetragonal'
loop_
_space_group_symop_operation_xyz
x,y,z
-y,x,z
-x,-y,z
y,-x,z
x,-y,-z
-x,y,-z
y,x,-z
-y,-x,-z
1/2+x,1/2+y,1/2+z
1/2-y,1/2+x,1/2+z
1/2-x,1/2-y,1/2+z
1/2+y,1/2-x,1/2+z
1/2+x,1/2-y,1/2-z
1/2-x,1/2+y,1/2-z
1/2+y,1/2+x,1/2-z
1/2-y,1/2-x,1/2-z
loop_
_atom_site_type_symbol
_atom_site_label
_atom_site_fract_x
_atom_site_fract_y
_atom_site_fract_z
Si Si1 0.847517 0.158149 0.646335
Si Si2 0.885309 0.267079 0.240926
Si Si3 0.224093 0.000000 0.000000
Si Si4 0.410499 0.589502 0.000000
Si Si5 0.963168 0.743865 0.153235
Si Si6 0.839917 0.160084 0.000000
Si Si7 0.803139 0.248243 0.855674
Si Si8 0.384429 0.546686 0.732750
O O1 0.781382 0.111423 0.686246
O O2 0.873447 0.123919 0.571276
O O3 0.809786 0.238931 0.639766
O O4 0.919199 0.158909 0.699347
O O5 0.848359 0.348359 0.250000
O O6 0.821041 0.223574 0.194471
O O7 0.965363 0.271035 0.202694
O O8 0.271317 0.983953 0.071353
O O9 0.175845 0.926402 0.984144
O O10 0.398382 0.500000 0.000000
O O11 0.880628 0.714510 0.170709
O O12 0.946864 0.832974 0.163185
O O13 0.817245 0.211595 0.933024
O O14 0.407590 0.460829 0.734516
#
# Coordination Sequence:
#
# PCOD9551267 Si02
#       8
#    16  16   8   8  16   8  16  16
#     4  11  21  37  54  79 111 151 187 234 280 341
#     4  10  20  35  55  81 114 148 192 235 280 339
#     4  10  22  29  48  70 116 148 177 218 262 338
#     4  11  25  40  57  84 119 150 185 235 294 354
#     4  11  19  36  51  83 112 152 185 229 281 331
#     4  10  19  35  45  72 107 149 181 222 270 326
#     4  10  20  33  56  78 112 146 192 232 277 336
#     4  11  21  32  52  79 113 149 176 212 275 347
#
# _framework density 17.374175000000001
#
# number of rings (size 3 to 8) (size 9 to 14) (size 15 to 20)
#    0.000    1.462    4.615    1.385    2.154    1.385 
#    0.000    0.000    0.000    0.000    0.000    2.154 
#    0.000    4.923    0.000    0.000    0.000    0.000 
#
# Total GULP energy -289844.571690 kJ/mol
# GULP energy per Si atom -5573.934071 kJ/mol
# Density = 1.733463 g / cm^3
# Si number density = 17.374175 Si / 1000 Ang^3
#
#
#
# Elastic Constant Matrix: (Units=GPa)
#
#
# Indices 1 2 3 4 5 6 
#
# 1 89.6567 48.3019 36.7474 0.0000 0.0000 0.0000
# 2 48.3019 89.6554 36.7473 0.0000 0.0000 0.0000
# 3 36.7474 36.7473 107.3716 0.0000 0.0000 0.0000
# 4 0.0000 0.0000 0.0000 22.7667 0.0000 0.0000
# 5 0.0000 0.0000 0.0000 0.0000 22.7666 0.0000
# 6 0.0000 0.0000 0.0000 0.0000 0.0000 21.7212
#
#
#
# Elastic Compliance Matrix: (Units=1/GPa)
#
#
# Indices 1 2 3 4 5 6 
#
# 1 0.016523 -0.007658 -0.003034 0.000000 0.000000 0.000000
# 2 -0.007658 0.016523 -0.003034 0.000000 0.000000 0.000000
# 3 -0.003034 -0.003034 0.011390 0.000000 0.000000 0.000000
# 4 0.000000 0.000000 0.000000 0.043924 0.000000 0.000000
# 5 0.000000 0.000000 0.000000 0.000000 0.043924 0.000000
# 6 0.000000 0.000000 0.000000 0.000000 0.000000 0.046038
#
#
# Mechanical properties :
#
#
# Convention : Reuss Voigt Hill
#
# Bulk Modulus (GPa) = 58.87866 58.91966 58.89916
# Shear Modulus (GPa) = 23.64783 24.44337 24.04560
#
# Velocity S-wave (km/s) = 3.69330 3.75491 3.72423
# Velocity P-wave (km/s) = 7.22146 7.26532 7.24342
#
# Compressibility (1/GPa) = 0.01698408
#
# Stress axis : x y z
#
# Youngs Moduli (GPa) = 60.52168 60.52077 87.79501
#
# Poissons Ratio (x) = 0.46348 0.26636
# Poissons Ratio (y) = 0.46349 0.26637
# Poissons Ratio (z) = 0.18362 0.18362
#
# Static dielectric constant tensor:
#      x y z
#    x 1.609410 0.000000 0.000000 
#    y 0.000000 1.609420 0.000000 
#    z 0.000000 0.000000 1.638880 
# 
# From -- ./inp_files/5900.got.cif
#   From: 2010.05.17/outbox.cif.g08.bks.cpg/sg97_3_cif.got.tgz:5900.got - 2010.06.03 19:55:32.
