data_PCOD9551768
_publ_section_title
;
Structure prediction by ZEFSAII (Michael W. Deem and Ramdas Pophale) SiO2 
 PCOD9551768
Probable space group: I 41 2 2
;
_chemical_formula_sum "Si O2"
_cell_formula_units_Z 120
_cell_length_a 20.714833
_cell_length_b 20.714833
_cell_length_c 14.829857
_cell_angle_alpha 90.000000
_cell_angle_beta 90.000000
_cell_angle_gamma 90.000000
_cell_volume 6363.555499
_symmetry_space_group_name_H-M "I 41 2 2"
_symmetry_group_IT_number 98
_symmetry_cell_setting 'tetragonal'
loop_
_space_group_symop_operation_xyz
x,y,z
-y,1/2+x,1/4+z
-x,-y,z
y,1/2-x,1/4+z
x,1/2-y,1/4-z
-x,1/2+y,1/4-z
y,x,-z
-y,-x,-z
1/2+x,1/2+y,1/2+z
1/2-y,x,3/4+z
1/2-x,1/2-y,1/2+z
1/2+y,-x,3/4+z
1/2+x,-y,3/4-z
1/2-x,y,3/4-z
1/2+y,1/2+x,1/2-z
1/2-y,1/2-x,1/2-z
loop_
_atom_site_type_symbol
_atom_site_label
_atom_site_fract_x
_atom_site_fract_y
_atom_site_fract_z
Si Si1 0.074585 0.733502 0.357008
Si Si2 0.360493 0.084666 0.540210
Si Si3 0.271104 0.441301 0.544473
Si Si4 0.708721 0.803509 0.048371
Si Si5 0.326031 0.660081 0.893770
Si Si6 0.602054 0.397947 0.500000
Si Si7 0.691874 0.469232 0.807045
Si Si8 0.036932 0.114813 0.076504
O O1 0.132525 0.783424 0.350507
O O2 0.094846 0.666588 0.309409
O O3 0.056854 0.721231 0.462230
O O4 0.010626 0.761551 0.307512
O O5 0.326074 0.056739 0.628827
O O6 0.317707 0.146127 0.511653
O O7 0.431507 0.101552 0.576327
O O8 0.352949 0.030109 0.465030
O O9 0.231092 0.377184 0.566211
O O10 0.312443 0.441320 0.452410
O O11 0.692400 0.750000 0.125000
O O12 0.769158 0.769158 0.000000
O O13 0.250000 0.668662 0.875000
O O14 0.343699 0.590740 0.852814
O O15 0.338151 0.661850 0.000000
O O16 0.539148 0.395984 0.564833
O O17 0.750000 0.487828 0.875000
O O18 0.068470 0.068470 0.000000
#
# Coordination Sequence:
#
# PCOD9551768 Si02
#       8
#    16  16  16  16  16   8  16  16
#     4  10  21  39  60  88 129 161 205 259 317 387
#     4  10  20  36  58  86 117 153 204 257 295 373
#     4   9  20  36  55  83 121 161 194 253 322 363
#     4  12  22  35  58  88 116 156 208 261 312 365
#     4  11  21  39  65  93 117 162 211 263 319 378
#     4  10  21  36  62  98 126 168 204 258 321 396
#     4  10  20  38  61  87 117 161 208 255 313 372
#     4   9  18  35  59  83 120 165 202 243 306 384
#
# _framework density 18.857384
#
# number of rings (size 3 to 8) (size 9 to 14) (size 15 to 20)
#    0.000    1.867    4.000    2.600    0.933    0.000 
#    2.400    0.000    0.000    0.000    0.000    0.933 
#    0.000    0.000    0.000    0.000    0.000    0.000 
#
# Total GULP energy -334253.657113 kJ/mol
# GULP energy per Si atom -5570.894285 kJ/mol
# Density = 1.881446 g / cm^3
# Si number density = 18.857384 Si / 1000 Ang^3
#
#
#
# Elastic Constant Matrix: (Units=GPa)
#
#
# Indices 1 2 3 4 5 6 
#
# 1 88.0885 67.0345 42.7927 0.0000 0.0000 0.0000
# 2 67.0345 88.0886 42.7926 0.0000 0.0000 0.0000
# 3 42.7927 42.7926 77.9331 0.0000 0.0000 0.0000
# 4 0.0000 0.0000 0.0000 27.1385 0.0000 0.0000
# 5 0.0000 0.0000 0.0000 0.0000 27.1386 0.0000
# 6 0.0000 0.0000 0.0000 0.0000 0.0000 15.6611
#
#
#
# Elastic Compliance Matrix: (Units=1/GPa)
#
#
# Indices 1 2 3 4 5 6 
#
# 1 0.028373 -0.019124 -0.005078 0.000000 0.000000 0.000000
# 2 -0.019124 0.028373 -0.005078 0.000000 0.000000 0.000000
# 3 -0.005078 -0.005078 0.018408 0.000000 0.000000 0.000000
# 4 0.000000 0.000000 0.000000 0.036848 0.000000 0.000000
# 5 0.000000 0.000000 0.000000 0.000000 0.036848 0.000000
# 6 0.000000 0.000000 0.000000 0.000000 0.000000 0.063852
#
#
# Mechanical properties :
#
#
# Convention : Reuss Voigt Hill
#
# Bulk Modulus (GPa) = 60.26949 62.14998 61.20974
# Shear Modulus (GPa) = 18.06398 20.75368 19.40883
#
# Velocity S-wave (km/s) = 3.09840 3.32107 3.21166
# Velocity P-wave (km/s) = 6.69553 6.90908 6.80315
#
# Compressibility (1/GPa) = 0.01659214
#
# Stress axis : x y z
#
# Youngs Moduli (GPa) = 35.24521 35.24530 54.32335
#
# Poissons Ratio (x) = 0.67404 0.27586
# Poissons Ratio (y) = 0.67404 0.27586
# Poissons Ratio (z) = 0.17898 0.17898
#
# Static dielectric constant tensor:
#      x y z
#    x 1.672310 0.000000 0.000000 
#    y 0.000000 1.672310 0.000000 
#    z 0.000000 0.000000 1.779610 
# 
# From -- ./inp_files/6772.got.cif
#   From: 2010.05.17/outbox.cif.g08.bks.cpg/sg98_4_cif.got.tgz:6772.got - 2010.06.03 20:00:51.
