data_PCOD9551719
_publ_section_title
;
Structure prediction by ZEFSAII (Michael W. Deem and Ramdas Pophale) SiO2 
 PCOD9551719
Probable space group: I 41 2 2
;
_chemical_formula_sum "Si O2"
_cell_formula_units_Z 72
_cell_length_a 12.587376
_cell_length_b 12.587376
_cell_length_c 24.403036
_cell_angle_alpha 90.000000
_cell_angle_beta 90.000000
_cell_angle_gamma 90.000000
_cell_volume 3866.466673
_symmetry_space_group_name_H-M "I 41 2 2"
_symmetry_group_IT_number 98
_symmetry_cell_setting 'tetragonal'
loop_
_space_group_symop_operation_xyz
x,y,z
-y,1/2+x,1/4+z
-x,-y,z
y,1/2-x,1/4+z
x,1/2-y,1/4-z
-x,1/2+y,1/4-z
y,x,-z
-y,-x,-z
1/2+x,1/2+y,1/2+z
1/2-y,x,3/4+z
1/2-x,1/2-y,1/2+z
1/2+y,-x,3/4+z
1/2+x,-y,3/4-z
1/2-x,y,3/4-z
1/2+y,1/2+x,1/2-z
1/2-y,1/2-x,1/2-z
loop_
_atom_site_type_symbol
_atom_site_label
_atom_site_fract_x
_atom_site_fract_y
_atom_site_fract_z
Si Si1 0.250000 0.553217 0.875000
Si Si2 0.933898 0.603526 0.541601
Si Si3 0.356441 0.192216 0.807467
Si Si4 0.602590 0.809008 0.926355
Si Si5 0.386762 0.944302 0.189168
O O1 0.297634 0.479854 0.826452
O O2 0.153519 0.622528 0.852131
O O3 0.809307 0.593444 0.553915
O O4 0.940895 0.621997 0.476490
O O5 0.000000 0.500000 0.556606
O O6 0.369497 0.130504 0.750000
O O7 0.399013 0.145317 0.864618
O O8 0.228322 0.209287 0.812290
O O9 0.533946 0.701662 0.931099
O O10 0.394558 0.894558 0.250000
O O11 0.500000 0.000000 0.180410
#
# Coordination Sequence:
#
# PCOD9551719 Si02
#       5
#     8  16  16  16  16
#     4  12  20  32  48  74 108 140 176 200 260 336
#     4  11  21  32  50  79 110 141 175 217 270 327
#     4   9  18  31  55  78 104 138 178 230 274 316
#     4  10  19  35  51  79 112 138 179 226 271 324
#     4  11  21  31  50  76 110 145 172 213 268 331
#
# _framework density 18.621653999999999
#
# number of rings (size 3 to 8) (size 9 to 14) (size 15 to 20)
#    0.000    1.556    2.222    6.000    6.222    0.000 
#    0.000    0.000    0.000    6.000    0.000    0.000 
#    0.000    0.000    0.000    0.000    0.000    0.000 
#
# Total GULP energy -200805.710500 kJ/mol
# GULP energy per Si atom -5577.936403 kJ/mol
# Density = 1.857927 g / cm^3
# Si number density = 18.621654 Si / 1000 Ang^3
#
#
#
# Elastic Constant Matrix: (Units=GPa)
#
#
# Indices 1 2 3 4 5 6 
#
# 1 30.8677 6.5738 16.8246 0.0000 0.0000 0.0000
# 2 6.5738 30.8681 16.8248 0.0000 0.0000 0.0000
# 3 16.8246 16.8248 173.0060 0.0000 0.0000 0.0000
# 4 0.0000 0.0000 0.0000 16.7535 0.0000 0.0000
# 5 0.0000 0.0000 0.0000 0.0000 16.7534 0.0000
# 6 0.0000 0.0000 0.0000 0.0000 0.0000 16.3987
#
#
#
# Elastic Compliance Matrix: (Units=1/GPa)
#
#
# Indices 1 2 3 4 5 6 
#
# 1 0.035214 -0.005948 -0.002846 0.000000 0.000000 0.000000
# 2 -0.005948 0.035214 -0.002846 0.000000 0.000000 0.000000
# 3 -0.002846 -0.002846 0.006334 0.000000 0.000000 0.000000
# 4 0.000000 0.000000 0.000000 0.059689 0.000000 0.000000
# 5 0.000000 0.000000 0.000000 0.000000 0.059689 0.000000
# 6 0.000000 0.000000 0.000000 0.000000 0.000000 0.060980
#
#
# Mechanical properties :
#
#
# Convention : Reuss Voigt Hill
#
# Bulk Modulus (GPa) = 18.69811 35.02093 26.85952
# Shear Modulus (GPa) = 16.76567 22.94903 19.85735
#
# Velocity S-wave (km/s) = 3.00381 3.51434 3.26906
# Velocity P-wave (km/s) = 4.70036 5.94263 5.35762
#
# Compressibility (1/GPa) = 0.05348135
#
# Stress axis : x y z
#
# Youngs Moduli (GPa) = 28.39751 28.39784 157.88535
#
# Poissons Ratio (x) = 0.16891 0.44936
# Poissons Ratio (y) = 0.16891 0.44936
# Poissons Ratio (z) = 0.08082 0.08082
#
# Static dielectric constant tensor:
#      x y z
#    x 1.640170 0.000000 0.000000 
#    y 0.000000 1.640170 0.000000 
#    z 0.000000 0.000000 1.749290 
# 
# From -- ./inp_files/10801.got.cif
#   From: 2010.05.17/outbox.cif.g08.bks.cpg/sg98_6_cif.got.tgz:10801.got - 2010.06.03 20:00:51.
