data_PCOD9551089
_publ_section_title
;
Structure prediction by ZEFSAII (Michael W. Deem and Ramdas Pophale) SiO2 
 PCOD9551089
Probable space group: P 43 21 2
;
_chemical_formula_sum "Si O2"
_cell_formula_units_Z 24
_cell_length_a 7.993377
_cell_length_b 7.993377
_cell_length_c 14.670109
_cell_angle_alpha 90.000000
_cell_angle_beta 90.000000
_cell_angle_gamma 90.000000
_cell_volume 937.333057
_symmetry_space_group_name_H-M "P 43 21 2"
_symmetry_group_IT_number 96
_symmetry_cell_setting 'tetragonal'
loop_
_space_group_symop_operation_xyz
x,y,z
1/2-y,1/2+x,3/4+z
-x,-y,1/2+z
1/2+y,1/2-x,1/4+z
1/2+x,1/2-y,1/4-z
1/2-x,1/2+y,3/4-z
y,x,-z
-y,-x,1/2-z
loop_
_atom_site_type_symbol
_atom_site_label
_atom_site_fract_x
_atom_site_fract_y
_atom_site_fract_z
Si Si1 0.604680 0.217420 0.671623
Si Si2 0.981860 0.927852 0.651192
Si Si3 0.608044 0.875602 0.718898
O O1 0.740418 0.259583 0.750000
O O2 0.523141 0.395853 0.647786
O O3 0.659450 0.152370 0.572913
O O4 0.508677 0.053585 0.711200
O O5 0.788578 0.908393 0.674979
O O6 0.028581 0.776597 0.584731
O O7 0.074344 0.925657 0.750000
#
# Coordination Sequence:
#
# PCOD9551089 Si02
#       3
#     8   8   8
#     4  11  26  48  76 111 153 201 258 314 386 469
#     4  10  26  48  74 109 152 197 254 324 386 466
#     4  11  27  48  77 113 152 201 257 318 397 460
#
# _framework density 25.604558999999998
#
# number of rings (size 3 to 8) (size 9 to 14) (size 15 to 20)
#    0.000    1.333    0.000    3.000   14.000    5.333 
#    0.000    0.000    0.000    0.000    0.000    0.000 
#    0.000    0.000    0.000    0.000    0.000    0.000 
#
# Total GULP energy -134311.328376 kJ/mol
# GULP energy per Si atom -5596.305349 kJ/mol
# Density = 2.554628 g / cm^3
# Si number density = 25.604559 Si / 1000 Ang^3
#
#
#
# Elastic Constant Matrix: (Units=GPa)
#
#
# Indices 1 2 3 4 5 6 
#
# 1 119.3510 16.6846 86.7188 0.0000 0.0000 0.0000
# 2 16.6846 119.3520 86.7201 0.0000 0.0000 0.0000
# 3 86.7188 86.7201 189.0049 0.0000 0.0000 0.0000
# 4 0.0000 0.0000 0.0000 29.1209 0.0000 0.0000
# 5 0.0000 0.0000 0.0000 0.0000 29.1216 0.0000
# 6 0.0000 0.0000 0.0000 0.0000 0.0000 20.5345
#
#
#
# Elastic Compliance Matrix: (Units=1/GPa)
#
#
# Indices 1 2 3 4 5 6 
#
# 1 0.013726 0.003986 -0.008127 0.000000 0.000000 0.000000
# 2 0.003986 0.013726 -0.008127 0.000000 0.000000 0.000000
# 3 -0.008127 -0.008127 0.012748 0.000000 0.000000 0.000000
# 4 0.000000 0.000000 0.000000 0.034340 0.000000 0.000000
# 5 0.000000 0.000000 0.000000 0.000000 0.034339 0.000000
# 6 0.000000 0.000000 0.000000 0.000000 0.000000 0.048698
#
#
# Mechanical properties :
#
#
# Convention : Reuss Voigt Hill
#
# Bulk Modulus (GPa) = 63.83371 89.77278 76.80324
# Shear Modulus (GPa) = 26.69027 31.59437 29.14232
#
# Velocity S-wave (km/s) = 3.23213 3.51655 3.37734
# Velocity P-wave (km/s) = 6.23808 7.18509 6.72827
#
# Compressibility (1/GPa) = 0.01566570
#
# Stress axis : x y z
#
# Youngs Moduli (GPa) = 72.85370 72.85346 78.44210
#
# Poissons Ratio (x) = -0.29039 0.63747
# Poissons Ratio (y) = -0.29039 0.63748
# Poissons Ratio (z) = 0.59206 0.59206
#
# Static dielectric constant tensor:
#      x y z
#    x 2.058340 0.000000 0.000000 
#    y 0.000000 2.058340 0.000000 
#    z 0.000000 0.000000 2.012280 
# 
# From -- ./inp_files/2415.got.cif
#   From: 2010.05.17/outbox.cif.g08.bks.cpg/sg96_2_cif.got.tgz:2415.got - 2010.06.03 19:52:08.
