data_PCOD9551587
_publ_section_title
;
Structure prediction by ZEFSAII (Michael W. Deem and Ramdas Pophale) SiO2 
 PCOD9551587
Probable space group: I 4 2 2 
;
_chemical_formula_sum "Si O2"
_cell_formula_units_Z 56
_cell_length_a 14.770354
_cell_length_b 14.770354
_cell_length_c 10.569299
_cell_angle_alpha 90.000000
_cell_angle_beta 90.000000
_cell_angle_gamma 90.000000
_cell_volume 2305.833754
_symmetry_space_group_name_H-M "I 4 2 2 "
_symmetry_group_IT_number 97
_symmetry_cell_setting 'tetragonal'
loop_
_space_group_symop_operation_xyz
x,y,z
-y,x,z
-x,-y,z
y,-x,z
x,-y,-z
-x,y,-z
y,x,-z
-y,-x,-z
1/2+x,1/2+y,1/2+z
1/2-y,1/2+x,1/2+z
1/2-x,1/2-y,1/2+z
1/2+y,1/2-x,1/2+z
1/2+x,1/2-y,1/2-z
1/2-x,1/2+y,1/2-z
1/2+y,1/2+x,1/2-z
1/2-y,1/2-x,1/2-z
loop_
_atom_site_type_symbol
_atom_site_label
_atom_site_fract_x
_atom_site_fract_y
_atom_site_fract_z
Si Si1 0.000000 0.732985 0.500000
Si Si2 0.925199 0.617603 0.112105
Si Si3 0.553243 0.357630 0.778945
Si Si4 0.312441 0.285281 0.636522
O O1 0.927123 0.666993 0.437562
O O2 0.945145 0.792666 0.600897
O O3 0.931633 0.568368 0.250000
O O4 0.903887 0.723871 0.137873
O O5 0.000000 0.606647 0.000000
O O6 0.610450 0.450098 0.784008
O O7 0.606198 0.315890 0.659395
O O8 0.270855 0.270855 0.500000
O O9 0.253567 0.246434 0.750000
#
# Coordination Sequence:
#
# PCOD9551587 Si02
#       4
#     8  16  16  16
#     4  12  25  47  78 110 152 210 272 337 405 484
#     4  11  27  48  76 114 162 209 270 336 411 488
#     4  11  25  45  73 111 154 202 264 334 406 482
#     4  11  25  45  75 111 159 210 267 329 407 487
#
# _framework density 24.286227
#
# number of rings (size 3 to 8) (size 9 to 14) (size 15 to 20)
#    0.000    0.857    0.000    6.429    8.000    3.429 
#    0.000    1.429    0.000    0.000    0.000    0.000 
#    0.000    0.000    0.000    0.000    0.000    0.000 
#
# Total GULP energy -156252.372341 kJ/mol
# GULP energy per Si atom -5580.441869 kJ/mol
# Density = 2.423095 g / cm^3
# Si number density = 24.286227 Si / 1000 Ang^3
#
#
#
# Elastic Constant Matrix: (Units=GPa)
#
#
# Indices 1 2 3 4 5 6 
#
# 1 131.3315 30.5540 63.0192 0.0000 0.0000 0.0000
# 2 30.5540 131.3355 63.0190 0.0000 0.0000 0.0000
# 3 63.0192 63.0190 189.9557 0.0000 0.0000 0.0000
# 4 0.0000 0.0000 0.0000 40.4609 0.0000 0.0000
# 5 0.0000 0.0000 0.0000 0.0000 40.4610 0.0000
# 6 0.0000 0.0000 0.0000 0.0000 0.0000 73.6223
#
#
#
# Elastic Compliance Matrix: (Units=1/GPa)
#
#
# Indices 1 2 3 4 5 6 
#
# 1 0.009126 -0.000797 -0.002763 0.000000 0.000000 0.000000
# 2 -0.000797 0.009125 -0.002763 0.000000 0.000000 0.000000
# 3 -0.002763 -0.002763 0.007098 0.000000 0.000000 0.000000
# 4 0.000000 0.000000 0.000000 0.024715 0.000000 0.000000
# 5 0.000000 0.000000 0.000000 0.000000 0.024715 0.000000
# 6 0.000000 0.000000 0.000000 0.000000 0.000000 0.013583
#
#
# Mechanical properties :
#
#
# Convention : Reuss Voigt Hill
#
# Bulk Modulus (GPa) = 78.72582 85.08969 81.90775
# Shear Modulus (GPa) = 47.50952 50.64420 49.07686
#
# Velocity S-wave (km/s) = 4.42773 4.57147 4.50017
# Velocity P-wave (km/s) = 7.65676 7.93579 7.79752
#
# Compressibility (1/GPa) = 0.01270231
#
# Stress axis : x y z
#
# Youngs Moduli (GPa) = 109.58166 109.58572 140.89185
#
# Poissons Ratio (x) = 0.08736 0.38929
# Poissons Ratio (y) = 0.08736 0.38927
# Poissons Ratio (z) = 0.30278 0.30277
#
# Static dielectric constant tensor:
#      x y z
#    x 2.030500 0.000000 0.000000 
#    y 0.000000 2.030490 0.000000 
#    z 0.000000 0.000000 1.991610 
# 
# From -- ./inp_files/3260.got.cif
#   From: 2010.05.17/outbox.cif.g08.bks.cpg/sg97_2_cif.got.tgz:3260.got - 2010.06.03 19:55:32.
