data_PCOD9551250
_publ_section_title
;
Structure prediction by ZEFSAII (Michael W. Deem and Ramdas Pophale) SiO2 
 PCOD9551250
Probable space group: I 4 2 2 
;
_chemical_formula_sum "Si O2"
_cell_formula_units_Z 128
_cell_length_a 19.556784
_cell_length_b 19.556784
_cell_length_c 13.784535
_cell_angle_alpha 90.000000
_cell_angle_beta 90.000000
_cell_angle_gamma 90.000000
_cell_volume 5272.140781
_symmetry_space_group_name_H-M "I 4 2 2 "
_symmetry_group_IT_number 97
_symmetry_cell_setting 'tetragonal'
loop_
_space_group_symop_operation_xyz
x,y,z
-y,x,z
-x,-y,z
y,-x,z
x,-y,-z
-x,y,-z
y,x,-z
-y,-x,-z
1/2+x,1/2+y,1/2+z
1/2-y,1/2+x,1/2+z
1/2-x,1/2-y,1/2+z
1/2+y,1/2-x,1/2+z
1/2+x,1/2-y,1/2-z
1/2-x,1/2+y,1/2-z
1/2+y,1/2+x,1/2-z
1/2-y,1/2-x,1/2-z
loop_
_atom_site_type_symbol
_atom_site_label
_atom_site_fract_x
_atom_site_fract_y
_atom_site_fract_z
Si Si1 0.135476 0.535560 0.871295
Si Si2 0.376251 0.878812 0.631345
Si Si3 0.872038 0.232359 0.861181
Si Si4 0.780704 0.745729 0.634325
Si Si5 0.850015 0.471355 0.635046
Si Si6 0.012018 0.109349 0.383509
Si Si7 0.394242 0.268672 0.858113
Si Si8 0.429836 0.416335 0.616301
O O1 0.130746 0.457146 0.902250
O O2 0.146383 0.529460 0.753640
O O3 0.069084 0.581011 0.891740
O O4 0.200629 0.578554 0.908285
O O5 0.377756 0.877756 0.750000
O O6 0.312816 0.831974 0.599772
O O7 0.450462 0.850630 0.602355
O O8 0.797123 0.243095 0.902865
O O9 0.930478 0.282700 0.900138
O O10 0.870964 0.253019 0.748781
O O11 0.889061 0.152025 0.861375
O O12 0.771708 0.728293 0.750000
O O13 0.804332 0.823327 0.609507
O O14 0.040126 0.182124 0.352192
O O15 0.942178 0.072947 0.352586
O O16 0.000000 0.111935 0.500000
O O17 0.508430 0.406301 0.649928
O O18 0.425030 0.425030 0.500000
#
# Coordination Sequence:
#
# PCOD9551250 Si02
#       8
#    16  16  16  16  16  16  16  16
#     4   9  16  28  44  69 104 143 178 213 264 330
#     4   9  17  26  43  67 102 144 180 213 261 330
#     4  10  19  31  52  79 111 143 175 222 282 334
#     4   9  18  31  44  72 115 145 170 224 285 328
#     4   9  16  28  44  70 104 142 177 214 269 324
#     4   9  20  38  56  74 101 142 183 228 276 329
#     4  10  19  31  52  78 110 147 175 220 286 333
#     4   9  20  38  56  74 101 140 179 220 270 327
#
# _framework density 24.278562999999998
#
# number of rings (size 3 to 8) (size 9 to 14) (size 15 to 20)
#    0.000    2.750    1.250    1.125    3.500    2.500 
#    0.000    1.250    2.750    0.000    0.000    0.000 
#    0.000    1.000    0.000    0.000    0.000    0.000 
#
# Total GULP energy -357441.826417 kJ/mol
# GULP energy per Si atom -5585.028538 kJ/mol
# Density = 2.422330 g / cm^3
# Si number density = 24.278563 Si / 1000 Ang^3
#
#
#
# Elastic Constant Matrix: (Units=GPa)
#
#
# Indices 1 2 3 4 5 6 
#
# 1 120.1467 78.9420 -2.9527 0.0000 0.0000 0.0000
# 2 78.9420 120.1468 -2.9526 0.0000 0.0000 0.0000
# 3 -2.9527 -2.9526 77.2201 0.0000 0.0000 0.0000
# 4 0.0000 0.0000 0.0000 6.1932 0.0000 0.0000
# 5 0.0000 0.0000 0.0000 0.0000 6.1933 0.0000
# 6 0.0000 0.0000 0.0000 0.0000 0.0000 43.0136
#
#
#
# Elastic Compliance Matrix: (Units=1/GPa)
#
#
# Indices 1 2 3 4 5 6 
#
# 1 0.014649 -0.009620 0.000192 0.000000 0.000000 0.000000
# 2 -0.009620 0.014649 0.000192 0.000000 0.000000 0.000000
# 3 0.000192 0.000192 0.012965 0.000000 0.000000 0.000000
# 4 0.000000 0.000000 0.000000 0.161469 0.000000 0.000000
# 5 0.000000 0.000000 0.000000 0.000000 0.161465 0.000000
# 6 0.000000 0.000000 0.000000 0.000000 0.000000 0.023248
#
#
# Mechanical properties :
#
#
# Convention : Reuss Voigt Hill
#
# Bulk Modulus (GPa) = 42.03274 51.50967 46.77121
# Shear Modulus (GPa) = 12.05266 27.37848 19.71557
#
# Velocity S-wave (km/s) = 2.23049 3.36174 2.85275
# Velocity P-wave (km/s) = 4.89732 6.02748 5.49155
#
# Compressibility (1/GPa) = 0.02379098
#
# Stress axis : x y z
#
# Youngs Moduli (GPa) = 68.26487 68.26498 77.13254
#
# Poissons Ratio (x) = 0.65672 -0.01483
# Poissons Ratio (y) = 0.65672 -0.01483
# Poissons Ratio (z) = -0.01313 -0.01312
#
# Static dielectric constant tensor:
#      x y z
#    x 1.886950 0.000000 0.000000 
#    y 0.000000 1.886950 0.000000 
#    z 0.000000 0.000000 2.028100 
# 
# From -- ./inp_files/7418.got.cif
#   From: 2010.05.17/outbox.cif.g08.bks.cpg/sg97_4_cif.got.tgz:7418.got - 2010.06.03 19:55:32.
