data_PCOD9551037
_publ_section_title
;
Structure prediction by ZEFSAII (Michael W. Deem and Ramdas Pophale) SiO2 
 PCOD9551037
Probable space group: P 43 21 2
;
_chemical_formula_sum "Si O2"
_cell_formula_units_Z 28
_cell_length_a 11.768649
_cell_length_b 11.768649
_cell_length_c 9.263455
_cell_angle_alpha 90.000000
_cell_angle_beta 90.000000
_cell_angle_gamma 90.000000
_cell_volume 1282.998701
_symmetry_space_group_name_H-M "P 43 21 2"
_symmetry_group_IT_number 96
_symmetry_cell_setting 'tetragonal'
loop_
_space_group_symop_operation_xyz
x,y,z
1/2-y,1/2+x,3/4+z
-x,-y,1/2+z
1/2+y,1/2-x,1/4+z
1/2+x,1/2-y,1/4-z
1/2-x,1/2+y,3/4-z
y,x,-z
-y,-x,1/2-z
loop_
_atom_site_type_symbol
_atom_site_label
_atom_site_fract_x
_atom_site_fract_y
_atom_site_fract_z
Si Si1 0.878395 0.449742 0.424164
Si Si2 0.933052 0.933052 0.000000
Si Si3 0.600455 0.686088 0.654241
Si Si4 0.216179 0.237328 0.339228
O O1 0.925133 0.542127 0.538072
O O2 0.753845 0.484964 0.368874
O O3 0.849809 0.342132 0.524352
O O4 0.868418 0.869523 0.133298
O O5 0.912165 0.067369 0.011594
O O6 0.654071 0.654071 0.500000
O O7 0.679349 0.778815 0.733467
O O8 0.260453 0.260453 0.500000
#
# Coordination Sequence:
#
# PCOD9551037 Si02
#       4
#     8   4   8   8
#     4  12  27  46  71 104 144 185 240 294 363 430
#     4  10  24  44  68  98 142 182 230 296 356 428
#     4  12  23  45  71 103 139 186 243 292 352 435
#     4  10  23  45  68  99 144 180 234 297 351 428
#
# _framework density 21.823871
#
# number of rings (size 3 to 8) (size 9 to 14) (size 15 to 20)
#    0.857    0.000    5.714    0.000    4.000    3.429 
#    0.000    0.000    0.000    0.000    0.000    0.000 
#    0.000    0.000    0.000    0.000    0.000    0.000 
#
# Total GULP energy -156107.813718 kJ/mol
# GULP energy per Si atom -5575.279061 kJ/mol
# Density = 2.177420 g / cm^3
# Si number density = 21.823871 Si / 1000 Ang^3
#
#
#
# Elastic Constant Matrix: (Units=GPa)
#
#
# Indices 1 2 3 4 5 6 
#
# 1 81.8118 23.0077 35.3715 0.0000 0.0000 0.0000
# 2 23.0077 81.8118 35.3715 0.0000 0.0000 0.0000
# 3 35.3715 35.3715 59.3819 0.0000 0.0000 0.0000
# 4 0.0000 0.0000 0.0000 30.0448 0.0000 0.0000
# 5 0.0000 0.0000 0.0000 0.0000 30.0448 0.0000
# 6 0.0000 0.0000 0.0000 0.0000 0.0000 30.1416
#
#
#
# Elastic Compliance Matrix: (Units=1/GPa)
#
#
# Indices 1 2 3 4 5 6 
#
# 1 0.016480 -0.000526 -0.009503 0.000000 0.000000 0.000000
# 2 -0.000526 0.016480 -0.009503 0.000000 0.000000 0.000000
# 3 -0.009503 -0.009503 0.028161 0.000000 0.000000 0.000000
# 4 0.000000 0.000000 0.000000 0.033284 0.000000 0.000000
# 5 0.000000 0.000000 0.000000 0.000000 0.033284 0.000000
# 6 0.000000 0.000000 0.000000 0.000000 0.000000 0.033177
#
#
# Mechanical properties :
#
#
# Convention : Reuss Voigt Hill
#
# Bulk Modulus (GPa) = 45.33760 45.61187 45.47473
# Shear Modulus (GPa) = 24.12181 26.66323 25.39252
#
# Velocity S-wave (km/s) = 3.32820 3.49914 3.41474
# Velocity P-wave (km/s) = 5.96562 6.10497 6.03570
#
# Compressibility (1/GPa) = 0.02205675
#
# Stress axis : x y z
#
# Youngs Moduli (GPa) = 60.68055 60.68055 35.50960
#
# Poissons Ratio (x) = 0.03191 0.33745
# Poissons Ratio (y) = 0.03191 0.33745
# Poissons Ratio (z) = 0.57665 0.57665
#
# Static dielectric constant tensor:
#      x y z
#    x 1.857840 0.000000 0.000000 
#    y 0.000000 1.857840 0.000000 
#    z 0.000000 0.000000 2.024270 
# 
# From -- ./inp_files/1876.got.cif
#   From: 2010.05.17/outbox.cif.g08.bks.cpg/sg96_1_cif.got.tgz:1876.got - 2010.06.03 19:52:08.
