data_PCOD9551592
_publ_section_title
;
Structure prediction by ZEFSAII (Michael W. Deem and Ramdas Pophale) SiO2 
 PCOD9551592
Probable space group: I 4 2 2 
;
_chemical_formula_sum "Si O2"
_cell_formula_units_Z 64
_cell_length_a 14.027260
_cell_length_b 14.027260
_cell_length_c 14.228184
_cell_angle_alpha 90.000000
_cell_angle_beta 90.000000
_cell_angle_gamma 90.000000
_cell_volume 2799.594725
_symmetry_space_group_name_H-M "I 4 2 2 "
_symmetry_group_IT_number 97
_symmetry_cell_setting 'tetragonal'
loop_
_space_group_symop_operation_xyz
x,y,z
-y,x,z
-x,-y,z
y,-x,z
x,-y,-z
-x,y,-z
y,x,-z
-y,-x,-z
1/2+x,1/2+y,1/2+z
1/2-y,1/2+x,1/2+z
1/2-x,1/2-y,1/2+z
1/2+y,1/2-x,1/2+z
1/2+x,1/2-y,1/2-z
1/2-x,1/2+y,1/2-z
1/2+y,1/2+x,1/2-z
1/2-y,1/2-x,1/2-z
loop_
_atom_site_type_symbol
_atom_site_label
_atom_site_fract_x
_atom_site_fract_y
_atom_site_fract_z
Si Si1 0.147976 0.734874 0.849494
Si Si2 0.825403 0.601735 0.972936
Si Si3 0.940280 0.849925 0.644753
Si Si4 0.921259 0.742616 0.836959
O O1 0.192550 0.692550 0.750000
O O2 0.186607 0.839766 0.875727
O O3 0.034033 0.744625 0.851561
O O4 0.174465 0.665415 0.934208
O O5 0.716534 0.584981 0.941885
O O6 0.885233 0.646408 0.886751
O O7 0.867581 0.500000 0.000000
O O8 0.915911 0.777838 0.729389
O O9 0.051325 0.881549 0.649540
#
# Coordination Sequence:
#
# PCOD9551592 Si02
#       4
#    16  16  16  16
#     4  12  28  51  80 116 162 218 270 335 406 484
#     4  12  29  48  79 117 163 212 270 331 408 487
#     4  11  25  49  82 122 157 201 270 347 414 480
#     4  12  26  49  81 114 164 212 266 333 409 490
#
# _framework density 22.860451000000001
#
# number of rings (size 3 to 8) (size 9 to 14) (size 15 to 20)
#    0.000    0.250    2.500    5.250    7.000    2.500 
#    0.000    2.500    0.000    3.000    0.000    0.000 
#    0.000    0.000    0.000    0.000    0.000    0.000 
#
# Total GULP energy -178648.336608 kJ/mol
# GULP energy per Si atom -5582.760519 kJ/mol
# Density = 2.280842 g / cm^3
# Si number density = 22.860451 Si / 1000 Ang^3
#
#
#
# Elastic Constant Matrix: (Units=GPa)
#
#
# Indices 1 2 3 4 5 6 
#
# 1 -2889.3663 3151.4128 79.2521 0.0000 0.0000 0.0010
# 2 3151.4128-2889.3664 79.2519 0.0000 0.0000 -0.0010
# 3 79.2521 79.2519 137.9774 0.0000 0.0000 0.0000
# 4 0.0000 0.0000 0.0000 44.6124 0.0000 0.0000
# 5 0.0000 0.0000 0.0000 0.0000 44.6124 0.0000
# 6 0.0010 -0.0010 0.0000 0.0000 0.0000 902.4041
#
#
#
# Elastic Compliance Matrix: (Units=1/GPa)
#
#
# Indices 1 2 3 4 5 6 
#
# 1 0.002841 0.003007 -0.003359 0.000000 0.000000 0.000000
# 2 0.003007 0.002841 -0.003359 0.000000 0.000000 0.000000
# 3 -0.003359 -0.003359 0.011106 0.000000 0.000000 0.000000
# 4 0.000000 0.000000 0.000000 0.022415 0.000000 0.000000
# 5 0.000000 0.000000 0.000000 0.000000 0.022415 0.000000
# 6 0.000000 0.000000 0.000000 0.000000 0.000000 0.001108
#
#
# Mechanical properties :
#
#
# Convention : Reuss Voigt Hill
#
# Bulk Modulus (GPa) = 106.76673 108.78647 107.77660
# Shear Modulus (GPa) = 68.23946 -398.38568 -165.07311
#
# Velocity S-wave (km/s) = 5.46948 -13.21540 -8.50681
# Velocity P-wave (km/s) = 9.31086 13.60779 7.01712
#
# Compressibility (1/GPa) = 0.00936621
#
# Stress axis : x y z
#
# Youngs Moduli (GPa) = 351.97236 351.97236 90.04024
#
# Poissons Ratio (x) = -1.05827 0.30243
# Poissons Ratio (y) = -1.05827 0.30243
# Poissons Ratio (z) = 1.18223 1.18223
#
# Static dielectric constant tensor:
#      x y z
#    x 1.865790 0.000000 0.000000 
#    y 0.000000 1.865790 0.000000 
#    z 0.000000 0.000000 1.951170 
# 
# From -- ./inp_files/4536.got.cif
#   From: 2010.05.17/outbox.cif.g08.bks.cpg/sg97_3_cif.got.tgz:4536.got - 2010.06.03 19:55:32.
