data_PCOD9551255
_publ_section_title
;
Structure prediction by ZEFSAII (Michael W. Deem and Ramdas Pophale) SiO2 
 PCOD9551255
Probable space group: I 4 2 2 
;
_chemical_formula_sum "Si O2"
_cell_formula_units_Z 72
_cell_length_a 26.278349
_cell_length_b 26.278349
_cell_length_c 5.973707
_cell_angle_alpha 90.000000
_cell_angle_beta 90.000000
_cell_angle_gamma 90.000000
_cell_volume 4125.153083
_symmetry_space_group_name_H-M "I 4 2 2 "
_symmetry_group_IT_number 97
_symmetry_cell_setting 'tetragonal'
loop_
_space_group_symop_operation_xyz
x,y,z
-y,x,z
-x,-y,z
y,-x,z
x,-y,-z
-x,y,-z
y,x,-z
-y,-x,-z
1/2+x,1/2+y,1/2+z
1/2-y,1/2+x,1/2+z
1/2-x,1/2-y,1/2+z
1/2+y,1/2-x,1/2+z
1/2+x,1/2-y,1/2-z
1/2-x,1/2+y,1/2-z
1/2+y,1/2+x,1/2-z
1/2-y,1/2-x,1/2-z
loop_
_atom_site_type_symbol
_atom_site_label
_atom_site_fract_x
_atom_site_fract_y
_atom_site_fract_z
Si Si1 0.363026 0.452495 0.143575
Si Si2 0.754888 0.680465 0.111987
Si Si3 0.828237 0.171764 0.000000
Si Si4 0.713866 0.500000 0.500000
Si Si5 0.781566 0.908494 0.303383
Si Si6 0.560790 0.439211 0.500000
O O1 0.324317 0.472678 0.331004
O O2 0.408006 0.424140 0.276890
O O3 0.383991 0.500000 0.000000
O O4 0.323413 0.423864 0.985591
O O5 0.806019 0.693982 0.250000
O O6 0.713395 0.671583 0.303639
O O7 0.732310 0.732310 0.000000
O O8 0.753966 0.633922 0.931813
O O9 0.814962 0.120456 0.878132
O O10 0.740726 0.542558 0.664071
O O11 0.568826 0.500000 0.500000
#
# Coordination Sequence:
#
# PCOD9551255 Si02
#       6
#    16  16   8   8  16   8
#     4  10  22  41  55  69  86 117 159 208 262 330
#     4  10  19  33  52  77 101 127 155 196 257 333
#     4  10  20  35  49  78  94 129 156 198 264 329
#     4  10  20  40  49  72  92 118 166 198 252 320
#     4  10  22  35  54  73  97 126 155 207 254 327
#     4  11  24  43  53  62  84 114 154 212 274 338
#
# _framework density 17.453897999999999
#
# number of rings (size 3 to 8) (size 9 to 14) (size 15 to 20)
#    0.000    1.889    2.222    1.333    0.000    8.000 
#    8.000    1.111    0.000    0.000    0.000    0.000 
#    0.000    0.000    0.000    0.000    0.000    0.000 
#
# Total GULP energy -200420.733915 kJ/mol
# GULP energy per Si atom -5567.242609 kJ/mol
# Density = 1.741417 g / cm^3
# Si number density = 17.453898 Si / 1000 Ang^3
#
#
#
# Elastic Constant Matrix: (Units=GPa)
#
#
# Indices 1 2 3 4 5 6 
#
# 1 47.3927 25.0639 26.4163 0.0000 0.0000 0.0000
# 2 25.0639 47.3955 26.4171 0.0000 0.0000 0.0000
# 3 26.4163 26.4171 105.0316 0.0000 0.0000 0.0000
# 4 0.0000 0.0000 0.0000 38.9933 0.0000 0.0000
# 5 0.0000 0.0000 0.0000 0.0000 38.9899 0.0000
# 6 0.0000 0.0000 0.0000 0.0000 0.0000 12.9785
#
#
#
# Elastic Compliance Matrix: (Units=1/GPa)
#
#
# Indices 1 2 3 4 5 6 
#
# 1 0.030842 -0.013941 -0.004251 0.000000 0.000000 0.000000
# 2 -0.013941 0.030841 -0.004251 0.000000 0.000000 0.000000
# 3 -0.004251 -0.004251 0.011659 0.000000 0.000000 0.000000
# 4 0.000000 0.000000 0.000000 0.025645 0.000000 0.000000
# 5 0.000000 0.000000 0.000000 0.000000 0.025648 0.000000
# 6 0.000000 0.000000 0.000000 0.000000 0.000000 0.077051
#
#
# Mechanical properties :
#
#
# Convention : Reuss Voigt Hill
#
# Bulk Modulus (GPa) = 35.14018 39.51270 37.32644
# Shear Modulus (GPa) = 19.52697 26.32052 22.92374
#
# Velocity S-wave (km/s) = 3.34844 3.88751 3.62800
# Velocity P-wave (km/s) = 5.92674 6.54506 6.24356
#
# Compressibility (1/GPa) = 0.02845745
#
# Stress axis : x y z
#
# Youngs Moduli (GPa) = 32.42295 32.42479 85.76967
#
# Poissons Ratio (x) = 0.45203 0.36458
# Poissons Ratio (y) = 0.45201 0.36458
# Poissons Ratio (z) = 0.13782 0.13783
#
# Static dielectric constant tensor:
#      x y z
#    x 1.662520 0.000000 0.000000 
#    y 0.000000 1.662510 0.000000 
#    z 0.000000 0.000000 1.715350 
# 
# From -- ./inp_files/931.got.cif
#   From: 2010.05.17/outbox.cif.g08.bks.cpg/sg97_1_cif.got.tgz:931.got - 2010.06.03 19:55:32.
