data_PCOD9551603
_publ_section_title
;
Structure prediction by ZEFSAII (Michael W. Deem and Ramdas Pophale) SiO2 
 PCOD9551603
Probable space group: I 4 2 2 
;
_chemical_formula_sum "Si O2"
_cell_formula_units_Z 72
_cell_length_a 10.923193
_cell_length_b 10.923193
_cell_length_c 29.154977
_cell_angle_alpha 90.000000
_cell_angle_beta 90.000000
_cell_angle_gamma 90.000000
_cell_volume 3478.659472
_symmetry_space_group_name_H-M "I 4 2 2 "
_symmetry_group_IT_number 97
_symmetry_cell_setting 'tetragonal'
loop_
_space_group_symop_operation_xyz
x,y,z
-y,x,z
-x,-y,z
y,-x,z
x,-y,-z
-x,y,-z
y,x,-z
-y,-x,-z
1/2+x,1/2+y,1/2+z
1/2-y,1/2+x,1/2+z
1/2-x,1/2-y,1/2+z
1/2+y,1/2-x,1/2+z
1/2+x,1/2-y,1/2-z
1/2-x,1/2+y,1/2-z
1/2+y,1/2+x,1/2-z
1/2-y,1/2-x,1/2-z
loop_
_atom_site_type_symbol
_atom_site_label
_atom_site_fract_x
_atom_site_fract_y
_atom_site_fract_z
Si Si1 0.500000 0.293750 0.500000
Si Si2 0.543164 0.703258 0.777073
Si Si3 0.205957 0.026792 0.822671
Si Si4 0.057717 0.366579 0.087515
Si Si5 0.803999 0.936574 0.621117
O O1 0.617635 0.382366 0.500000
O O2 0.491976 0.210230 0.544933
O O3 0.409560 0.639211 0.776683
O O4 0.545853 0.767385 0.727557
O O5 0.565460 0.756162 0.827556
O O6 0.292860 0.030242 0.866036
O O7 0.101605 0.131984 0.824785
O O8 0.203346 0.390013 0.086035
O O9 0.000000 0.500000 0.089111
O O10 0.924462 0.852339 0.617040
#
# Coordination Sequence:
#
# PCOD9551603 Si02
#       5
#     8  16  16  16  16
#     4  11  27  52  78  96 117 155 206 274 346 399
#     4   7  12  29  56  87 124 172 223 259 298 368
#     4   9  18  35  62  91 126 174 224 271 318 367
#     4  12  26  40  65  98 130 161 208 272 333 388
#     4   9  20  39  64  92 131 180 216 249 311 387
#
# _framework density 20.697628999999999
#
# number of rings (size 3 to 8) (size 9 to 14) (size 15 to 20)
#    0.000    2.556    0.000    4.333    6.222    2.667 
#    0.000    2.222    0.000    0.000    0.000    0.000 
#    0.000    0.000    0.000    0.000    0.000    0.000 
#
# Total GULP energy -200858.866156 kJ/mol
# GULP energy per Si atom -5579.412949 kJ/mol
# Density = 2.065052 g / cm^3
# Si number density = 20.697629 Si / 1000 Ang^3
#
#
#
# Elastic Constant Matrix: (Units=GPa)
#
#
# Indices 1 2 3 4 5 6 
#
# 1 86.1495 40.2768 56.4502 0.0000 0.0000 0.0000
# 2 40.2768 86.1493 56.4497 0.0000 0.0000 0.0000
# 3 56.4502 56.4497 113.5731 0.0000 0.0000 0.0000
# 4 0.0000 0.0000 0.0000 36.6866 0.0000 0.0000
# 5 0.0000 0.0000 0.0000 0.0000 36.6866 0.0000
# 6 0.0000 0.0000 0.0000 0.0000 0.0000 11.4115
#
#
#
# Elastic Compliance Matrix: (Units=1/GPa)
#
#
# Indices 1 2 3 4 5 6 
#
# 1 0.018011 -0.003788 -0.007069 0.000000 0.000000 0.000000
# 2 -0.003788 0.018011 -0.007069 0.000000 0.000000 0.000000
# 3 -0.007069 -0.007069 0.015832 0.000000 0.000000 0.000000
# 4 0.000000 0.000000 0.000000 0.027258 0.000000 0.000000
# 5 0.000000 0.000000 0.000000 0.000000 0.027258 0.000000
# 6 0.000000 0.000000 0.000000 0.000000 0.000000 0.087631
#
#
# Mechanical properties :
#
#
# Convention : Reuss Voigt Hill
#
# Bulk Modulus (GPa) = 62.49711 65.80279 64.14995
# Shear Modulus (GPa) = 21.25956 25.80328 23.53142
#
# Velocity S-wave (km/s) = 3.20839 3.53466 3.37547
# Velocity P-wave (km/s) = 6.63219 6.96562 6.80095
#
# Compressibility (1/GPa) = 0.01600074
#
# Stress axis : x y z
#
# Youngs Moduli (GPa) = 55.52138 55.52168 63.16273
#
# Poissons Ratio (x) = 0.21034 0.44651
# Poissons Ratio (y) = 0.21034 0.44650
# Poissons Ratio (z) = 0.39249 0.39249
#
# Static dielectric constant tensor:
#      x y z
#    x 1.747260 0.000000 0.000000 
#    y 0.000000 1.747260 0.000000 
#    z 0.000000 0.000000 1.754790 
# 
# From -- ./inp_files/7582.got.cif
#   From: 2010.05.17/outbox.cif.g08.bks.cpg/sg97_4_cif.got.tgz:7582.got - 2010.06.03 19:55:32.
