data_PCOD9551071
_publ_section_title
;
Structure prediction by ZEFSAII (Michael W. Deem and Ramdas Pophale) SiO2 
 PCOD9551071
Probable space group: P 43 21 2
;
_chemical_formula_sum "Si O2"
_cell_formula_units_Z 60
_cell_length_a 18.255164
_cell_length_b 18.255164
_cell_length_c 7.947316
_cell_angle_alpha 90.000000
_cell_angle_beta 90.000000
_cell_angle_gamma 90.000000
_cell_volume 2648.451105
_symmetry_space_group_name_H-M "P 43 21 2"
_symmetry_group_IT_number 96
_symmetry_cell_setting 'tetragonal'
loop_
_space_group_symop_operation_xyz
x,y,z
1/2-y,1/2+x,3/4+z
-x,-y,1/2+z
1/2+y,1/2-x,1/4+z
1/2+x,1/2-y,1/4-z
1/2-x,1/2+y,3/4-z
y,x,-z
-y,-x,1/2-z
loop_
_atom_site_type_symbol
_atom_site_label
_atom_site_fract_x
_atom_site_fract_y
_atom_site_fract_z
Si Si1 0.442886 0.441031 0.298174
Si Si2 0.713872 0.742878 0.698695
Si Si3 0.062851 0.184568 0.983019
Si Si4 0.049430 0.708389 0.628389
Si Si5 0.808189 0.808189 0.000000
Si Si6 0.577293 0.721673 0.271178
Si Si7 0.063990 0.430898 0.676739
Si Si8 0.738494 0.936781 0.869177
O O1 0.434326 0.434326 0.500000
O O2 0.484496 0.515505 0.250000
O O3 0.497178 0.374800 0.254139
O O4 0.364972 0.438560 0.205148
O O5 0.739960 0.739960 0.500000
O O6 0.627005 0.761852 0.700492
O O7 0.762053 0.786828 0.833959
O O8 0.723581 0.661572 0.768209
O O9 0.077312 0.224546 0.808320
O O10 0.135707 0.135707 0.000000
O O11 0.026987 0.250201 0.090134
O O12 0.062472 0.725446 0.822668
O O13 0.044997 0.626027 0.561149
O O14 0.786330 0.893738 0.009992
O O15 0.523638 0.750756 0.131295
O O16 0.066625 0.486126 0.520805
O O17 0.080181 0.347157 0.623639
#
# Coordination Sequence:
#
# PCOD9551071 Si02
#       8
#     8   8   8   8   4   8   8   8
#     4  11  24  38  67 103 153 198 241 292 365 462
#     4  10  24  47  76 107 142 197 258 313 385 462
#     4  11  25  44  72 107 155 201 237 309 385 460
#     4  11  24  50  72 107 146 194 250 318 382 459
#     4  12  28  46  76 106 154 200 252 320 390 456
#     4  11  26  42  74 105 146 190 255 307 380 454
#     4  12  29  54  78 106 149 196 261 322 392 452
#     4  12  28  48  72 113 150 199 257 319 378 466
#
# _framework density 22.654751999999998
#
# number of rings (size 3 to 8) (size 9 to 14) (size 15 to 20)
#    0.000    0.800    5.333    0.000   13.067    0.533 
#    4.800    0.000    0.000    0.000    0.000    0.000 
#    0.000    0.000    0.000    0.000    0.000    0.000 
#
# Total GULP energy -334954.897462 kJ/mol
# GULP energy per Si atom -5582.581624 kJ/mol
# Density = 2.260319 g / cm^3
# Si number density = 22.654752 Si / 1000 Ang^3
#
#
#
# Elastic Constant Matrix: (Units=GPa)
#
#
# Indices 1 2 3 4 5 6 
#
# 1 -87.0913 171.8096 3.2076 0.0000 0.0000 0.0000
# 2 171.8096 -87.0863 3.2359 0.0000 0.0000 0.0000
# 3 3.2076 3.2359 20.4207 0.0000 0.0000 0.0000
# 4 0.0000 0.0000 0.0000 30.9209 0.0000 0.0000
# 5 0.0000 0.0000 0.0000 0.0000 30.9211 0.0000
# 6 0.0000 0.0000 0.0000 0.0000 0.0000 35.7565
#
#
#
# Elastic Compliance Matrix: (Units=1/GPa)
#
#
# Indices 1 2 3 4 5 6 
#
# 1 0.004042 0.007905 -0.001888 0.000000 0.000000 0.000000
# 2 0.007905 0.004042 -0.001882 0.000000 0.000000 0.000000
# 3 -0.001888 -0.001882 0.049565 0.000000 0.000000 0.000000
# 4 0.000000 0.000000 0.000000 0.032341 0.000000 0.000000
# 5 0.000000 0.000000 0.000000 0.000000 0.032340 0.000000
# 6 0.000000 0.000000 0.000000 0.000000 0.000000 0.027967
#
#
# Mechanical properties :
#
#
# Convention : Reuss Voigt Hill
#
# Bulk Modulus (GPa) = 15.17016 22.52770 18.84893
# Shear Modulus (GPa) = 30.48780 -2.61432 13.93674
#
# Velocity S-wave (km/s) = 3.67244 -1.07540 2.48297
# Velocity P-wave (km/s) = 4.96922 2.90233 4.06919
#
# Compressibility (1/GPa) = 0.06591890
#
# Stress axis : x y z
#
# Youngs Moduli (GPa) = 247.38675 247.39797 20.17566
#
# Poissons Ratio (x) = -1.95560 0.03808
# Poissons Ratio (y) = -1.95551 0.03797
# Poissons Ratio (z) = 0.46696 0.46565
#
# Static dielectric constant tensor:
#      x y z
#    x 1.915160 0.000000 0.000000 
#    y 0.000000 1.915160 0.000000 
#    z 0.000000 0.000000 1.829860 
# 
# From -- ./inp_files/1608.got.cif
#   From: 2010.05.17/outbox.cif.g08.bks.cpg/sg96_1_cif.got.tgz:1608.got - 2010.06.03 19:52:08.
