data_PCOD9551588
_publ_section_title
;
Structure prediction by ZEFSAII (Michael W. Deem and Ramdas Pophale) SiO2 
 PCOD9551588
Probable space group: I 4 2 2 
;
_chemical_formula_sum "Si O2"
_cell_formula_units_Z 52
_cell_length_a 13.821524
_cell_length_b 13.821524
_cell_length_c 13.407741
_cell_angle_alpha 90.000000
_cell_angle_beta 90.000000
_cell_angle_gamma 90.000000
_cell_volume 2561.341442
_symmetry_space_group_name_H-M "I 4 2 2 "
_symmetry_group_IT_number 97
_symmetry_cell_setting 'tetragonal'
loop_
_space_group_symop_operation_xyz
x,y,z
-y,x,z
-x,-y,z
y,-x,z
x,-y,-z
-x,y,-z
y,x,-z
-y,-x,-z
1/2+x,1/2+y,1/2+z
1/2-y,1/2+x,1/2+z
1/2-x,1/2-y,1/2+z
1/2+y,1/2-x,1/2+z
1/2+x,1/2-y,1/2-z
1/2-x,1/2+y,1/2-z
1/2+y,1/2+x,1/2-z
1/2-y,1/2-x,1/2-z
loop_
_atom_site_type_symbol
_atom_site_label
_atom_site_fract_x
_atom_site_fract_y
_atom_site_fract_z
Si Si1 0.062445 0.341283 0.900781
Si Si2 0.934431 0.146849 0.214021
Si Si3 0.500000 0.000000 0.750000
Si Si4 0.094295 0.224241 0.563152
O O1 0.090856 0.237894 0.854544
O O2 0.004503 0.405287 0.819744
O O3 0.161085 0.397833 0.923801
O O4 0.000000 0.330068 0.000000
O O5 0.914716 0.176953 0.328166
O O6 0.047696 0.123298 0.196314
O O7 0.184314 0.184314 0.500000
O O8 0.000000 0.197704 0.500000
#
# Coordination Sequence:
#
# PCOD9551588 Si02
#       4
#    16  16   4  16
#     4  12  28  46  71 107 143 191 235 293 364 430
#     4  11  25  47  72 102 140 185 238 296 352 422
#     4  12  22  48  72 102 148 176 236 290 356 426
#     4  12  24  44  75 106 139 182 241 299 353 418
#
# _framework density 20.301863999999998
#
# number of rings (size 3 to 8) (size 9 to 14) (size 15 to 20)
#    0.000    0.308    6.154    2.308    4.308    0.308 
#    0.000    1.538    0.000    0.000    0.000    0.000 
#    0.000    0.000    0.000    0.000    0.000    0.000 
#
# Total GULP energy -145504.014576 kJ/mol
# GULP energy per Si atom -5596.308253 kJ/mol
# Density = 2.025566 g / cm^3
# Si number density = 20.301864 Si / 1000 Ang^3
#
#
#
# Elastic Constant Matrix: (Units=GPa)
#
#
# Indices 1 2 3 4 5 6 
#
# 1 49.0228 -12.8400 10.6363 0.0000 0.0000 0.0000
# 2 -12.8400 49.0228 10.6363 0.0000 0.0000 0.0000
# 3 10.6363 10.6363 99.1108 0.0000 0.0000 0.0000
# 4 0.0000 0.0000 0.0000 1.6493 0.0000 0.0000
# 5 0.0000 0.0000 0.0000 0.0000 1.6493 0.0000
# 6 0.0000 0.0000 0.0000 0.0000 0.0000 24.0404
#
#
#
# Elastic Compliance Matrix: (Units=1/GPa)
#
#
# Indices 1 2 3 4 5 6 
#
# 1 0.022832 0.006667 -0.003166 0.000000 0.000000 0.000000
# 2 0.006667 0.022832 -0.003166 0.000000 0.000000 0.000000
# 3 -0.003166 -0.003166 0.010769 0.000000 0.000000 0.000000
# 4 0.000000 0.000000 0.000000 0.606314 0.000000 0.000000
# 5 0.000000 0.000000 0.000000 0.000000 0.606314 0.000000
# 6 0.000000 0.000000 0.000000 0.000000 0.000000 0.041597
#
#
# Mechanical properties :
#
#
# Convention : Reuss Voigt Hill
#
# Bulk Modulus (GPa) = 17.51204 23.78017 20.64611
# Shear Modulus (GPa) = 3.76217 18.04939 10.90578
#
# Velocity S-wave (km/s) = 1.36277 2.98493 2.32023
# Velocity P-wave (km/s) = 3.33478 4.85988 4.16769
#
# Compressibility (1/GPa) = 0.05710356
#
# Stress axis : x y z
#
# Youngs Moduli (GPa) = 43.79877 43.79877 92.85756
#
# Poissons Ratio (x) = -0.29200 0.29396
# Poissons Ratio (y) = -0.29200 0.29396
# Poissons Ratio (z) = 0.13865 0.13865
#
# Static dielectric constant tensor:
#      x y z
#    x 1.690830 0.000000 0.000000 
#    y 0.000000 1.690830 0.000000 
#    z 0.000000 0.000000 1.698350 
# 
# From -- ./inp_files/3300.got.cif
#   From: 2010.05.17/outbox.cif.g08.bks.cpg/sg97_2_cif.got.tgz:3300.got - 2010.06.03 19:55:32.
