data_PCOD9551237
_publ_section_title
;
Structure prediction by ZEFSAII (Michael W. Deem and Ramdas Pophale) SiO2 
 PCOD9551237
Probable space group: I 4 2 2 
;
_chemical_formula_sum "Si O2"
_cell_formula_units_Z 56
_cell_length_a 14.656960
_cell_length_b 14.656960
_cell_length_c 12.028790
_cell_angle_alpha 90.000000
_cell_angle_beta 90.000000
_cell_angle_gamma 90.000000
_cell_volume 2584.102572
_symmetry_space_group_name_H-M "I 4 2 2 "
_symmetry_group_IT_number 97
_symmetry_cell_setting 'tetragonal'
loop_
_space_group_symop_operation_xyz
x,y,z
-y,x,z
-x,-y,z
y,-x,z
x,-y,-z
-x,y,-z
y,x,-z
-y,-x,-z
1/2+x,1/2+y,1/2+z
1/2-y,1/2+x,1/2+z
1/2-x,1/2-y,1/2+z
1/2+y,1/2-x,1/2+z
1/2+x,1/2-y,1/2-z
1/2-x,1/2+y,1/2-z
1/2+y,1/2+x,1/2-z
1/2-y,1/2-x,1/2-z
loop_
_atom_site_type_symbol
_atom_site_label
_atom_site_fract_x
_atom_site_fract_y
_atom_site_fract_z
Si Si1 0.633008 0.088819 0.071294
Si Si2 0.316290 0.661865 0.252031
Si Si3 0.687212 0.687212 0.500000
Si Si4 0.477151 0.225576 0.801461
O O1 0.547589 0.147801 0.111101
O O2 0.682277 0.049363 0.182011
O O3 0.707347 0.156706 0.014793
O O4 0.612610 0.000000 0.000000
O O5 0.249997 0.749997 0.250000
O O6 0.340132 0.642307 0.381928
O O7 0.406698 0.690663 0.187119
O O8 0.261525 0.578714 0.200615
#
# Coordination Sequence:
#
# PCOD9551237 Si02
#       4
#    16  16   8  16
#     4  10  18  36  63  89 128 172 228 277 335 412
#     4  11  21  38  65  91 133 175 220 282 338 411
#     4  10  18  34  64  87 123 176 210 264 342 402
#     4  10  21  36  63  96 130 176 223 282 349 401
#
# _framework density 21.670967999999998
#
# number of rings (size 3 to 8) (size 9 to 14) (size 15 to 20)
#    0.000    1.714    8.571    0.000    0.000    0.571 
#    0.000    4.286   12.571    2.143    0.000    2.000 
#    0.000    0.000    0.000    0.000    0.000    0.000 
#
# Total GULP energy -156448.695053 kJ/mol
# GULP energy per Si atom -5587.453395 kJ/mol
# Density = 2.162164 g / cm^3
# Si number density = 21.670968 Si / 1000 Ang^3
#
#
#
# Elastic Constant Matrix: (Units=GPa)
#
#
# Indices 1 2 3 4 5 6 
#
# 1 92.8090 35.7268 41.9336 0.0000 0.0000 0.0000
# 2 35.7268 92.8090 41.9336 0.0000 0.0000 0.0000
# 3 41.9336 41.9336 81.2777 0.0000 0.0000 0.0000
# 4 0.0000 0.0000 0.0000 28.4127 0.0000 0.0000
# 5 0.0000 0.0000 0.0000 0.0000 28.4127 0.0000
# 6 0.0000 0.0000 0.0000 0.0000 0.0000 21.1439
#
#
#
# Elastic Compliance Matrix: (Units=1/GPa)
#
#
# Indices 1 2 3 4 5 6 
#
# 1 0.014623 -0.002895 -0.006051 0.000000 0.000000 0.000000
# 2 -0.002895 0.014623 -0.006051 0.000000 0.000000 0.000000
# 3 -0.006051 -0.006051 0.018547 0.000000 0.000000 0.000000
# 4 0.000000 0.000000 0.000000 0.035195 0.000000 0.000000
# 5 0.000000 0.000000 0.000000 0.000000 0.035195 0.000000
# 6 0.000000 0.000000 0.000000 0.000000 0.000000 0.047295
#
#
# Mechanical properties :
#
#
# Convention : Reuss Voigt Hill
#
# Bulk Modulus (GPa) = 56.18044 56.23152 56.20598
# Shear Modulus (GPa) = 24.82540 25.41400 25.11970
#
# Velocity S-wave (km/s) = 3.38828 3.42822 3.40831
# Velocity P-wave (km/s) = 6.42556 6.45557 6.44059
#
# Compressibility (1/GPa) = 0.01779979
#
# Stress axis : x y z
#
# Youngs Moduli (GPa) = 68.38410 68.38410 53.91685
#
# Poissons Ratio (x) = 0.19799 0.32624
# Poissons Ratio (y) = 0.19799 0.32624
# Poissons Ratio (z) = 0.41378 0.41378
#
# Static dielectric constant tensor:
#      x y z
#    x 1.777620 0.000000 0.000000 
#    y 0.000000 1.777620 0.000000 
#    z 0.000000 0.000000 1.850520 
# 
# From -- ./inp_files/3280.got.cif
#   From: 2010.05.17/outbox.cif.g08.bks.cpg/sg97_2_cif.got.tgz:3280.got - 2010.06.03 19:55:32.
