data_PCOD9551762
_publ_section_title
;
Structure prediction by ZEFSAII (Michael W. Deem and Ramdas Pophale) SiO2 
 PCOD9551762
Probable space group: I 41 2 2
;
_chemical_formula_sum "Si O2"
_cell_formula_units_Z 76
_cell_length_a 20.055751
_cell_length_b 20.055751
_cell_length_c 11.014678
_cell_angle_alpha 90.000000
_cell_angle_beta 90.000000
_cell_angle_gamma 90.000000
_cell_volume 4430.468608
_symmetry_space_group_name_H-M "I 41 2 2"
_symmetry_group_IT_number 98
_symmetry_cell_setting 'tetragonal'
loop_
_space_group_symop_operation_xyz
x,y,z
-y,1/2+x,1/4+z
-x,-y,z
y,1/2-x,1/4+z
x,1/2-y,1/4-z
-x,1/2+y,1/4-z
y,x,-z
-y,-x,-z
1/2+x,1/2+y,1/2+z
1/2-y,x,3/4+z
1/2-x,1/2-y,1/2+z
1/2+y,-x,3/4+z
1/2+x,-y,3/4-z
1/2-x,y,3/4-z
1/2+y,1/2+x,1/2-z
1/2-y,1/2-x,1/2-z
loop_
_atom_site_type_symbol
_atom_site_label
_atom_site_fract_x
_atom_site_fract_y
_atom_site_fract_z
Si Si1 0.897107 0.003075 0.952495
Si Si2 0.311137 0.869586 0.467515
Si Si3 0.035336 0.726702 0.329189
Si Si4 0.250000 0.646714 0.375000
Si Si5 0.500000 0.500000 0.000000
Si Si6 0.467078 0.877368 0.420636
O O1 0.893832 0.011810 0.808538
O O2 0.926247 0.073754 0.000000
O O3 0.826233 0.988303 0.013707
O O4 0.948380 0.948380 0.000000
O O5 0.250000 0.861350 0.375000
O O6 0.300334 0.936401 0.544777
O O7 0.311384 0.808961 0.564671
O O8 0.385708 0.873555 0.411746
O O9 0.096648 0.729237 0.232670
O O10 0.010073 0.801364 0.349991
O O11 0.566156 0.495854 0.083141
#
# Coordination Sequence:
#
# PCOD9551762 Si02
#       6
#    16  16  16   8   4  16
#     4  11  19  34  61  85 107 148 201 245 288 338
#     4  11  22  37  52  78 112 161 200 232 287 331
#     4  11  19  39  55  79 115 146 196 245 286 331
#     4  10  20  36  52  72 114 158 194 242 260 332
#     4  12  24  40  54  88 120 152 200 230 312 360
#     4  11  23  38  57  79 117 156 184 254 287 350
#
# _framework density 17.153942000000001
#
# number of rings (size 3 to 8) (size 9 to 14) (size 15 to 20)
#    0.000    1.053    6.316    3.158    0.000    2.526 
#   24.632    0.000    0.000    0.000    0.000    0.000 
#   12.632    0.000    0.000    0.000    0.000    0.000 
#
# Total GULP energy -212133.897591 kJ/mol
# GULP energy per Si atom -5582.470989 kJ/mol
# Density = 1.711490 g / cm^3
# Si number density = 17.153942 Si / 1000 Ang^3
#
#
#
# Elastic Constant Matrix: (Units=GPa)
#
#
# Indices 1 2 3 4 5 6 
#
# 1 83.4570 52.6514 36.6476 0.0000 0.0000 0.0000
# 2 52.6514 83.4565 36.6477 0.0000 0.0000 0.0000
# 3 36.6476 36.6477 49.7776 0.0000 0.0000 0.0000
# 4 0.0000 0.0000 0.0000 23.5903 0.0000 0.0000
# 5 0.0000 0.0000 0.0000 0.0000 23.5900 0.0000
# 6 0.0000 0.0000 0.0000 0.0000 0.0000 26.8084
#
#
#
# Elastic Compliance Matrix: (Units=1/GPa)
#
#
# Indices 1 2 3 4 5 6 
#
# 1 0.022318 -0.010144 -0.008962 0.000000 0.000000 0.000000
# 2 -0.010144 0.022318 -0.008962 0.000000 0.000000 0.000000
# 3 -0.008962 -0.008962 0.033286 0.000000 0.000000 0.000000
# 4 0.000000 0.000000 0.000000 0.042390 0.000000 0.000000
# 5 0.000000 0.000000 0.000000 0.000000 0.042391 0.000000
# 6 0.000000 0.000000 0.000000 0.000000 0.000000 0.037302
#
#
# Mechanical properties :
#
#
# Convention : Reuss Voigt Hill
#
# Bulk Modulus (GPa) = 45.90673 52.06496 48.98584
# Shear Modulus (GPa) = 18.98228 20.84736 19.91482
#
# Velocity S-wave (km/s) = 3.33014 3.48991 3.41096
# Velocity P-wave (km/s) = 6.45029 6.83058 6.64315
#
# Compressibility (1/GPa) = 0.02178330
#
# Stress axis : x y z
#
# Youngs Moduli (GPa) = 44.80780 44.80739 30.04259
#
# Poissons Ratio (x) = 0.45454 0.26925
# Poissons Ratio (y) = 0.45454 0.26926
# Poissons Ratio (z) = 0.40158 0.40159
#
# Static dielectric constant tensor:
#      x y z
#    x 1.605230 0.000000 0.000000 
#    y 0.000000 1.605230 0.000000 
#    z 0.000000 0.000000 1.609580 
# 
# From -- ./inp_files/5197.got.cif
#   From: 2010.05.17/outbox.cif.g08.bks.cpg/sg98_3_cif.got.tgz:5197.got - 2010.06.03 20:00:51.
