data_PCOD9551271
_publ_section_title
;
Structure prediction by ZEFSAII (Michael W. Deem and Ramdas Pophale) SiO2 
 PCOD9551271
Probable space group: I 4 2 2 
;
_chemical_formula_sum "Si O2"
_cell_formula_units_Z 64
_cell_length_a 15.619991
_cell_length_b 15.619991
_cell_length_c 12.943973
_cell_angle_alpha 90.000000
_cell_angle_beta 90.000000
_cell_angle_gamma 90.000000
_cell_volume 3158.123847
_symmetry_space_group_name_H-M "I 4 2 2 "
_symmetry_group_IT_number 97
_symmetry_cell_setting 'tetragonal'
loop_
_space_group_symop_operation_xyz
x,y,z
-y,x,z
-x,-y,z
y,-x,z
x,-y,-z
-x,y,-z
y,x,-z
-y,-x,-z
1/2+x,1/2+y,1/2+z
1/2-y,1/2+x,1/2+z
1/2-x,1/2-y,1/2+z
1/2+y,1/2-x,1/2+z
1/2+x,1/2-y,1/2-z
1/2-x,1/2+y,1/2-z
1/2+y,1/2+x,1/2-z
1/2-y,1/2-x,1/2-z
loop_
_atom_site_type_symbol
_atom_site_label
_atom_site_fract_x
_atom_site_fract_y
_atom_site_fract_z
Si Si1 0.776633 0.920392 0.291315
Si Si2 0.589461 0.723576 0.454642
Si Si3 0.326763 0.589272 0.907530
Si Si4 0.149288 0.411746 0.965428
O O1 0.777746 0.916787 0.169191
O O2 0.829691 0.839965 0.334369
O O3 0.684722 0.918686 0.347997
O O4 0.825203 0.004661 0.337037
O O5 0.500000 0.691033 0.500000
O O6 0.666845 0.666845 0.500000
O O7 0.602017 0.823215 0.483529
O O8 0.396276 0.603725 0.000000
O O9 0.236437 0.591619 0.966203
O O10 0.105343 0.500000 0.000000
#
# Coordination Sequence:
#
# PCOD9551271 Si02
#       4
#    16  16  16  16
#     4  10  19  35  57  85 119 157 199 251 310 370
#     4  12  25  40  59  86 124 171 207 242 301 376
#     4   9  17  33  58  87 116 149 200 261 311 357
#     4   9  20  39  63  89 114 143 198 266 316 364
#
# _framework density 20.265196
#
# number of rings (size 3 to 8) (size 9 to 14) (size 15 to 20)
#    0.000    2.000    0.000    6.750    0.000    1.250 
#    0.000   18.750    0.000    6.000    0.000    0.000 
#    0.000    0.000    0.000    0.000    0.000    0.000 
#
# Total GULP energy -178462.193939 kJ/mol
# GULP energy per Si atom -5576.943561 kJ/mol
# Density = 2.021907 g / cm^3
# Si number density = 20.265196 Si / 1000 Ang^3
#
#
#
# Elastic Constant Matrix: (Units=GPa)
#
#
# Indices 1 2 3 4 5 6 
#
# 1 84.8212 35.0761 30.1709 0.0000 0.0000 0.0000
# 2 35.0761 84.8216 30.1708 0.0000 0.0000 0.0000
# 3 30.1709 30.1708 127.7139 0.0000 0.0000 0.0000
# 4 0.0000 0.0000 0.0000 16.1147 0.0000 0.0000
# 5 0.0000 0.0000 0.0000 0.0000 16.1147 0.0000
# 6 0.0000 0.0000 0.0000 0.0000 0.0000 5.6543
#
#
#
# Elastic Compliance Matrix: (Units=1/GPa)
#
#
# Indices 1 2 3 4 5 6 
#
# 1 0.014784 -0.005318 -0.002236 0.000000 0.000000 0.000000
# 2 -0.005318 0.014784 -0.002236 0.000000 0.000000 0.000000
# 3 -0.002236 -0.002236 0.008887 0.000000 0.000000 0.000000
# 4 0.000000 0.000000 0.000000 0.062055 0.000000 0.000000
# 5 0.000000 0.000000 0.000000 0.000000 0.062055 0.000000
# 6 0.000000 0.000000 0.000000 0.000000 0.000000 0.176857
#
#
# Mechanical properties :
#
#
# Convention : Reuss Voigt Hill
#
# Bulk Modulus (GPa) = 52.98427 54.24359 53.61393
# Shear Modulus (GPa) = 13.68758 21.03934 17.36346
#
# Velocity S-wave (km/s) = 2.60171 3.22561 2.93031
# Velocity P-wave (km/s) = 5.93527 6.37948 6.16138
#
# Compressibility (1/GPa) = 0.01887352
#
# Stress axis : x y z
#
# Youngs Moduli (GPa) = 67.63990 67.64027 112.52961
#
# Poissons Ratio (x) = 0.35973 0.25164
# Poissons Ratio (y) = 0.35973 0.25164
# Poissons Ratio (z) = 0.15126 0.15126
#
# Static dielectric constant tensor:
#      x y z
#    x 1.747480 0.000000 0.000000 
#    y 0.000000 1.747480 0.000000 
#    z 0.000000 0.000000 1.721700 
# 
# From -- ./inp_files/4562.got.cif
#   From: 2010.05.17/outbox.cif.g08.bks.cpg/sg97_3_cif.got.tgz:4562.got - 2010.06.03 19:55:32.
