data_PCOD9551027
_publ_section_title
;
Structure prediction by ZEFSAII (Michael W. Deem and Ramdas Pophale) SiO2 
 PCOD9551027
Probable space group: P 43 21 2
;
_chemical_formula_sum "Si O2"
_cell_formula_units_Z 52
_cell_length_a 20.000972
_cell_length_b 20.000972
_cell_length_c 5.611117
_cell_angle_alpha 90.000000
_cell_angle_beta 90.000000
_cell_angle_gamma 90.000000
_cell_volume 2244.664966
_symmetry_space_group_name_H-M "P 43 21 2"
_symmetry_group_IT_number 96
_symmetry_cell_setting 'tetragonal'
loop_
_space_group_symop_operation_xyz
x,y,z
1/2-y,1/2+x,3/4+z
-x,-y,1/2+z
1/2+y,1/2-x,1/4+z
1/2+x,1/2-y,1/4-z
1/2-x,1/2+y,3/4-z
y,x,-z
-y,-x,1/2-z
loop_
_atom_site_type_symbol
_atom_site_label
_atom_site_fract_x
_atom_site_fract_y
_atom_site_fract_z
Si Si1 0.690141 0.690141 0.000000
Si Si2 0.613682 0.288859 0.122974
Si Si3 0.475133 0.524867 0.250000
Si Si4 0.327800 0.160096 0.598524
Si Si5 0.364631 0.364631 0.000000
Si Si6 0.956383 0.410518 0.583133
Si Si7 0.206212 0.534364 0.495826
Si Si8 0.999104 0.170268 0.453728
O O1 0.768163 0.670355 0.020933
O O2 0.664501 0.659173 0.752696
O O3 0.652768 0.347232 0.250000
O O4 0.562429 0.244950 0.277969
O O5 0.665274 0.235480 0.021118
O O6 0.570852 0.320486 0.914983
O O7 0.514282 0.514282 0.500000
O O8 0.400035 0.506479 0.336891
O O9 0.393282 0.134795 0.741336
O O10 0.313161 0.099859 0.411904
O O11 0.442027 0.342252 0.991141
O O12 0.927390 0.482123 0.660852
O O13 0.991908 0.361791 0.780468
O O14 0.261958 0.490866 0.354534
#
# Coordination Sequence:
#
# PCOD9551027 Si02
#       8
#     4   8   4   8   4   8   8   8
#     4  12  28  49  75 110 152 204 251 326 381 468
#     4  11  24  42  75 106 142 198 247 320 374 460
#     4  12  28  45  74 105 150 196 253 306 377 458
#     4  10  24  45  68 106 143 192 258 312 387 455
#     4  12  30  44  73 109 154 196 248 306 390 452
#     4  10  23  43  69 104 143 196 249 327 383 471
#     4  10  23  44  69 102 146 190 259 310 388 449
#     4  11  26  45  69 105 147 198 247 316 376 465
#
# _framework density 23.166041
#
# number of rings (size 3 to 8) (size 9 to 14) (size 15 to 20)
#    0.000    1.231    0.769    2.769   14.000    2.462 
#    0.000    0.000    0.000    0.000    0.000    0.000 
#    0.000    0.000    0.000    0.000    0.000    0.000 
#
# Total GULP energy -290207.673323 kJ/mol
# GULP energy per Si atom -5580.916795 kJ/mol
# Density = 2.311331 g / cm^3
# Si number density = 23.166041 Si / 1000 Ang^3
#
#
#
# Elastic Constant Matrix: (Units=GPa)
#
#
# Indices 1 2 3 4 5 6 
#
# 1 74.5408 36.4992 6.6987 0.0000 0.0000 0.0000
# 2 36.4992 74.5312 6.6965 0.0000 0.0000 0.0000
# 3 6.6987 6.6965 46.1194 0.0000 0.0000 0.0000
# 4 0.0000 0.0000 0.0000 19.9999 0.0000 0.0000
# 5 0.0000 0.0000 0.0000 0.0000 20.0004 0.0000
# 6 0.0000 0.0000 0.0000 0.0000 0.0000 31.4400
#
#
#
# Elastic Compliance Matrix: (Units=1/GPa)
#
#
# Indices 1 2 3 4 5 6 
#
# 1 0.017727 -0.008562 -0.001332 0.000000 0.000000 0.000000
# 2 -0.008562 0.017730 -0.001331 0.000000 0.000000 0.000000
# 3 -0.001332 -0.001331 0.022070 0.000000 0.000000 0.000000
# 4 0.000000 0.000000 0.000000 0.050000 0.000000 0.000000
# 5 0.000000 0.000000 0.000000 0.000000 0.049999 0.000000
# 6 0.000000 0.000000 0.000000 0.000000 0.000000 0.031807
#
#
# Mechanical properties :
#
#
# Convention : Reuss Voigt Hill
#
# Bulk Modulus (GPa) = 28.50782 32.77559 30.64171
# Shear Modulus (GPa) = 22.37400 23.97451 23.17425
#
# Velocity S-wave (km/s) = 3.11112 3.22047 3.16627
# Velocity P-wave (km/s) = 5.02374 5.29221 5.15972
#
# Compressibility (1/GPa) = 0.03507810
#
# Stress axis : x y z
#
# Youngs Moduli (GPa) = 56.40958 56.40279 45.31139
#
# Poissons Ratio (x) = 0.48291 0.06034
# Poissons Ratio (y) = 0.48297 0.06030
# Poissons Ratio (z) = 0.07512 0.07506
#
# Static dielectric constant tensor:
#      x y z
#    x 1.910460 0.000000 0.000000 
#    y 0.000000 1.910470 0.000000 
#    z 0.000000 0.000000 2.153300 
# 
# From -- ./inp_files/738.got.cif
#   From: 2010.05.17/outbox.cif.g08.bks.cpg/sg96_1_cif.got.tgz:738.got - 2010.06.03 19:52:08.
