data_PCOD9551391
_publ_section_title
;
Structure prediction by ZEFSAII (Michael W. Deem and Ramdas Pophale) SiO2 
 PCOD9551391
Probable space group: I 4 2 2 
;
_chemical_formula_sum "Si O2"
_cell_formula_units_Z 96
_cell_length_a 15.262114
_cell_length_b 15.262114
_cell_length_c 19.760437
_cell_angle_alpha 90.000000
_cell_angle_beta 90.000000
_cell_angle_gamma 90.000000
_cell_volume 4602.840557
_symmetry_space_group_name_H-M "I 4 2 2 "
_symmetry_group_IT_number 97
_symmetry_cell_setting 'tetragonal'
loop_
_space_group_symop_operation_xyz
x,y,z
-y,x,z
-x,-y,z
y,-x,z
x,-y,-z
-x,y,-z
y,x,-z
-y,-x,-z
1/2+x,1/2+y,1/2+z
1/2-y,1/2+x,1/2+z
1/2-x,1/2-y,1/2+z
1/2+y,1/2-x,1/2+z
1/2+x,1/2-y,1/2-z
1/2-x,1/2+y,1/2-z
1/2+y,1/2+x,1/2-z
1/2-y,1/2-x,1/2-z
loop_
_atom_site_type_symbol
_atom_site_label
_atom_site_fract_x
_atom_site_fract_y
_atom_site_fract_z
Si Si1 0.500000 0.211731 0.000000
Si Si2 0.804941 0.912327 0.055796
Si Si3 0.182177 0.359588 0.898835
Si Si4 0.279988 0.594309 0.622412
Si Si5 0.755880 0.144270 0.398531
Si Si6 0.432844 0.792242 0.237907
Si Si7 0.111385 0.388616 0.750000
O O1 0.451678 0.164201 0.063382
O O2 0.581423 0.259495 0.036475
O O3 0.712987 0.863064 0.053733
O O4 0.853209 0.870773 0.121118
O O5 0.784359 0.013149 0.070189
O O6 0.872040 0.872040 0.000000
O O7 0.284342 0.333022 0.895360
O O8 0.145624 0.350944 0.822174
O O9 0.202916 0.664978 0.604139
O O10 0.266210 0.555395 0.696270
O O11 0.755235 0.080978 0.333082
O O12 0.342038 0.842038 0.250000
O O13 0.510560 0.862529 0.240519
#
# Coordination Sequence:
#
# PCOD9551391 Si02
#       7
#     8  16  16  16  16  16   8
#     4  12  22  44  63  97 130 180 218 278 330 411
#     4  11  22  40  61  91 127 171 216 272 330 406
#     4  11  24  39  68  94 133 173 228 270 345 404
#     4  10  22  39  63  90 130 167 220 272 325 396
#     4  10  23  41  66  97 130 175 218 278 337 412
#     4  10  21  39  64  94 130 167 217 274 338 396
#     4  12  21  40  66  98 128 175 222 278 334 404
#
# _framework density 20.856686
#
# number of rings (size 3 to 8) (size 9 to 14) (size 15 to 20)
#    0.000    1.333    3.333    3.250    5.833    0.333 
#    0.000    2.500    0.000    4.000    0.000    0.000 
#    0.000    0.000    0.000    0.000    0.000    0.000 
#
# Total GULP energy -267266.423938 kJ/mol
# GULP energy per Si atom -5568.050499 kJ/mol
# Density = 2.080922 g / cm^3
# Si number density = 20.856686 Si / 1000 Ang^3
#
#
#
# Elastic Constant Matrix: (Units=GPa)
#
#
# Indices 1 2 3 4 5 6 
#
# 1 44.7237 42.5537 29.5256 0.0000 0.0000 0.0000
# 2 42.5537 44.7246 29.5261 0.0000 0.0000 0.0000
# 3 29.5256 29.5261 145.0842 0.0000 0.0000 0.0000
# 4 0.0000 0.0000 0.0000 29.9714 0.0000 0.0000
# 5 0.0000 0.0000 0.0000 0.0000 29.9710 0.0000
# 6 0.0000 0.0000 0.0000 0.0000 0.0000 11.5363
#
#
#
# Elastic Compliance Matrix: (Units=1/GPa)
#
#
# Indices 1 2 3 4 5 6 
#
# 1 0.237020 -0.223731 -0.002704 0.000000 0.000000 0.000000
# 2 -0.223731 0.237016 -0.002704 0.000000 0.000000 0.000000
# 3 -0.002704 -0.002704 0.007993 0.000000 0.000000 0.000000
# 4 0.000000 0.000000 0.000000 0.033365 0.000000 0.000000
# 5 0.000000 0.000000 0.000000 0.000000 0.033366 0.000000
# 6 0.000000 0.000000 0.000000 0.000000 0.000000 0.086683
#
#
# Mechanical properties :
#
#
# Convention : Reuss Voigt Hill
#
# Bulk Modulus (GPa) = 42.10290 48.63815 45.37053
# Shear Modulus (GPa) = 4.53870 23.15754 13.84812
#
# Velocity S-wave (km/s) = 1.47677 3.33576 2.57955
# Velocity P-wave (km/s) = 4.81024 6.18119 5.53830
#
# Compressibility (1/GPa) = 0.02375133
#
# Stress axis : x y z
#
# Youngs Moduli (GPa) = 4.21905 4.21913 125.10723
#
# Poissons Ratio (x) = 0.94395 0.33826
# Poissons Ratio (y) = 0.94393 0.33834
# Poissons Ratio (z) = 0.01141 0.01141
#
# Static dielectric constant tensor:
#      x y z
#    x 1.770380 0.000000 0.000000 
#    y 0.000000 1.770380 0.000000 
#    z 0.000000 0.000000 1.930420 
# 
# From -- ./inp_files/6692.got.cif
#   From: 2010.05.17/outbox.cif.g08.bks.cpg/sg97_4_cif.got.tgz:6692.got - 2010.06.03 19:55:32.
