data_PCOD9551138
_publ_section_title
;
Structure prediction by ZEFSAII (Michael W. Deem and Ramdas Pophale) SiO2 
 PCOD9551138
Probable space group: P 43 21 2
;
_chemical_formula_sum "Si O2"
_cell_formula_units_Z 48
_cell_length_a 8.995651
_cell_length_b 8.995651
_cell_length_c 27.127061
_cell_angle_alpha 90.000000
_cell_angle_beta 90.000000
_cell_angle_gamma 90.000000
_cell_volume 2195.168893
_symmetry_space_group_name_H-M "P 43 21 2"
_symmetry_group_IT_number 96
_symmetry_cell_setting 'tetragonal'
loop_
_space_group_symop_operation_xyz
x,y,z
1/2-y,1/2+x,3/4+z
-x,-y,1/2+z
1/2+y,1/2-x,1/4+z
1/2+x,1/2-y,1/4-z
1/2-x,1/2+y,3/4-z
y,x,-z
-y,-x,1/2-z
loop_
_atom_site_type_symbol
_atom_site_label
_atom_site_fract_x
_atom_site_fract_y
_atom_site_fract_z
Si Si1 0.261717 0.208826 0.807231
Si Si2 0.796191 0.495971 0.838323
Si Si3 0.710503 0.966881 0.614579
Si Si4 0.209921 0.035640 0.626356
Si Si5 0.400090 0.366085 0.269649
Si Si6 0.107168 0.786961 0.702919
O O1 0.143856 0.195581 0.851626
O O2 0.421531 0.240447 0.832916
O O3 0.246735 0.349302 0.770807
O O4 0.223830 0.060283 0.777172
O O5 0.648234 0.422304 0.862046
O O6 0.863699 0.647855 0.860328
O O7 0.744711 0.534066 0.782896
O O8 0.924175 0.376826 0.849299
O O9 0.609712 0.852812 0.583690
O O10 0.794553 0.053766 0.571467
O O11 0.154114 0.928933 0.670460
O O12 0.529887 0.470114 0.250000
O O13 0.215834 0.784167 0.750000
#
# Coordination Sequence:
#
# PCOD9551138 Si02
#       6
#     8   8   8   8   8   8
#     4  11  25  45  69 110 143 192 248 302 366 450
#     4  12  23  45  70 105 142 189 237 302 376 434
#     4  11  26  44  72 101 148 193 242 305 377 436
#     4  11  24  44  74  99 150 191 233 303 372 431
#     4  12  25  43  74 106 145 196 246 303 374 456
#     4  11  24  44  69 103 141 189 248 297 355 444
#
# _framework density 21.866197
#
# number of rings (size 3 to 8) (size 9 to 14) (size 15 to 20)
#    0.000    0.667    5.000    2.500    2.333    2.667 
#    0.000    0.833    0.000    0.000    0.000    0.000 
#    0.000    0.000    0.000    0.000    0.000    0.000 
#
# Total GULP energy -267766.620275 kJ/mol
# GULP energy per Si atom -5578.471256 kJ/mol
# Density = 2.181643 g / cm^3
# Si number density = 21.866197 Si / 1000 Ang^3
#
#
#
# Elastic Constant Matrix: (Units=GPa)
#
#
# Indices 1 2 3 4 5 6 
#
# 1 90.8663 37.0111 24.8760 0.0000 0.0000 0.0000
# 2 37.0111 90.8657 24.8760 0.0000 0.0000 0.0000
# 3 24.8760 24.8760 71.6986 0.0000 0.0000 0.0000
# 4 0.0000 0.0000 0.0000 31.7302 0.0000 0.0000
# 5 0.0000 0.0000 0.0000 0.0000 31.7296 0.0000
# 6 0.0000 0.0000 0.0000 0.0000 0.0000 38.5023
#
#
#
# Elastic Compliance Matrix: (Units=1/GPa)
#
#
# Indices 1 2 3 4 5 6 
#
# 1 0.013804 -0.004764 -0.003137 0.000000 0.000000 0.000000
# 2 -0.004764 0.013804 -0.003137 0.000000 0.000000 0.000000
# 3 -0.003137 -0.003137 0.016124 0.000000 0.000000 0.000000
# 4 0.000000 0.000000 0.000000 0.031516 0.000000 0.000000
# 5 0.000000 0.000000 0.000000 0.000000 0.031516 0.000000
# 6 0.000000 0.000000 0.000000 0.000000 0.000000 0.025972
#
#
# Mechanical properties :
#
#
# Convention : Reuss Voigt Hill
#
# Bulk Modulus (GPa) = 46.17199 47.43963 46.80581
# Shear Modulus (GPa) = 30.85835 31.50359 31.18097
#
# Velocity S-wave (km/s) = 3.76072 3.79983 3.78032
# Velocity P-wave (km/s) = 6.32605 6.40267 6.36447
#
# Compressibility (1/GPa) = 0.02165815
#
# Stress axis : x y z
#
# Youngs Moduli (GPa) = 72.44109 72.44055 62.02031
#
# Poissons Ratio (x) = 0.34511 0.19453
# Poissons Ratio (y) = 0.34511 0.19453
# Poissons Ratio (z) = 0.22721 0.22722
#
# Static dielectric constant tensor:
#      x y z
#    x 1.861710 0.000000 0.000000 
#    y 0.000000 1.861710 0.000000 
#    z 0.000000 0.000000 1.818270 
# 
# From -- ./inp_files/4472.got.cif
#   From: 2010.05.17/outbox.cif.g08.bks.cpg/sg96_3_cif.got.tgz:4472.got - 2010.06.03 19:52:08.
