data_PCOD9551869
_publ_section_title
;
Structure prediction by ZEFSAII (Michael W. Deem and Ramdas Pophale) SiO2 
 PCOD9551869
Probable space group: I 41 2 2
;
_chemical_formula_sum "Si O2"
_cell_formula_units_Z 56
_cell_length_a 17.298679
_cell_length_b 17.298679
_cell_length_c 7.919651
_cell_angle_alpha 90.000000
_cell_angle_beta 90.000000
_cell_angle_gamma 90.000000
_cell_volume 2369.910381
_symmetry_space_group_name_H-M "I 41 2 2"
_symmetry_group_IT_number 98
_symmetry_cell_setting 'tetragonal'
loop_
_space_group_symop_operation_xyz
x,y,z
-y,1/2+x,1/4+z
-x,-y,z
y,1/2-x,1/4+z
x,1/2-y,1/4-z
-x,1/2+y,1/4-z
y,x,-z
-y,-x,-z
1/2+x,1/2+y,1/2+z
1/2-y,x,3/4+z
1/2-x,1/2-y,1/2+z
1/2+y,-x,3/4+z
1/2+x,-y,3/4-z
1/2-x,y,3/4-z
1/2+y,1/2+x,1/2-z
1/2-y,1/2-x,1/2-z
loop_
_atom_site_type_symbol
_atom_site_label
_atom_site_fract_x
_atom_site_fract_y
_atom_site_fract_z
Si Si1 0.597078 0.399311 0.804642
Si Si2 0.250000 0.650827 0.375000
Si Si3 0.808710 0.539729 0.106913
Si Si4 0.061800 0.144537 0.250297
O O1 0.603049 0.315935 0.716332
O O2 0.656121 0.459330 0.716509
O O3 0.505955 0.416425 0.789659
O O4 0.613737 0.386264 0.000000
O O5 0.294525 0.705476 0.500000
O O6 0.832574 0.548690 0.303747
O O7 0.854278 0.604996 0.001033
O O8 0.716580 0.551396 0.121614
#
# Coordination Sequence:
#
# PCOD9551869 Si02
#       4
#    16   8  16  16
#     4  12  25  41  65  98 137 181 233 294 366 450
#     4  12  24  40  62  92 130 170 216 278 354 434
#     4  10  22  42  69 100 135 182 236 293 362 440
#     4  10  21  41  70  99 134 181 234 292 359 440
#
# _framework density 23.629586
#
# number of rings (size 3 to 8) (size 9 to 14) (size 15 to 20)
#    0.000    1.143    0.000    7.714    0.000    8.000 
#    0.000    0.000    0.000   34.286    0.000    0.000 
#    0.000    0.000    0.000    0.000    0.000    0.000 
#
# Total GULP energy -156571.322706 kJ/mol
# GULP energy per Si atom -5591.832954 kJ/mol
# Density = 2.357580 g / cm^3
# Si number density = 23.629586 Si / 1000 Ang^3
#
#
#
# Elastic Constant Matrix: (Units=GPa)
#
#
# Indices 1 2 3 4 5 6 
#
# 1 175.3197 84.7330 53.7858 0.0000 0.0000 0.0000
# 2 84.7330 175.3187 53.7846 0.0000 0.0000 0.0000
# 3 53.7858 53.7846 98.8719 0.0000 0.0000 0.0000
# 4 0.0000 0.0000 0.0000 62.5383 0.0000 0.0000
# 5 0.0000 0.0000 0.0000 0.0000 62.5531 0.0000
# 6 0.0000 0.0000 0.0000 0.0000 0.0000 47.8699
#
#
#
# Elastic Compliance Matrix: (Units=1/GPa)
#
#
# Indices 1 2 3 4 5 6 
#
# 1 0.008001 -0.003039 -0.002699 0.000000 0.000000 0.000000
# 2 -0.003039 0.008001 -0.002699 0.000000 0.000000 0.000000
# 3 -0.002699 -0.002699 0.013051 0.000000 0.000000 0.000000
# 4 0.000000 0.000000 0.000000 0.015990 0.000000 0.000000
# 5 0.000000 0.000000 0.000000 0.000000 0.015986 0.000000
# 6 0.000000 0.000000 0.000000 0.000000 0.000000 0.020890
#
#
# Mechanical properties :
#
#
# Convention : Reuss Voigt Hill
#
# Bulk Modulus (GPa) = 82.11718 92.67968 87.39843
# Shear Modulus (GPa) = 48.61358 51.73938 50.17648
#
# Velocity S-wave (km/s) = 4.54069 4.68439 4.61310
# Velocity P-wave (km/s) = 7.89416 8.28040 8.08959
#
# Compressibility (1/GPa) = 0.01217772
#
# Stress axis : x y z
#
# Youngs Moduli (GPa) = 124.99109 124.99141 76.62372
#
# Poissons Ratio (x) = 0.37980 0.20683
# Poissons Ratio (y) = 0.37980 0.20682
# Poissons Ratio (z) = 0.33739 0.33737
#
# Static dielectric constant tensor:
#      x y z
#    x 1.830210 0.000000 0.000000 
#    y 0.000000 1.830180 0.000000 
#    z 0.000000 0.000000 1.824540 
# 
# From -- ./inp_files/3012.got.cif
#   From: 2010.05.17/outbox.cif.g08.bks.cpg/sg98_2_cif.got.tgz:3012.got - 2010.06.03 20:00:51.
