data_PCOD9551662
_publ_section_title
;
Structure prediction by ZEFSAII (Michael W. Deem and Ramdas Pophale) SiO2 
 PCOD9551662
Probable space group: I 41 2 2
;
_chemical_formula_sum "Si O2"
_cell_formula_units_Z 96
_cell_length_a 21.748139
_cell_length_b 21.748139
_cell_length_c 13.597196
_cell_angle_alpha 90.000000
_cell_angle_beta 90.000000
_cell_angle_gamma 90.000000
_cell_volume 6431.222839
_symmetry_space_group_name_H-M "I 41 2 2"
_symmetry_group_IT_number 98
_symmetry_cell_setting 'tetragonal'
loop_
_space_group_symop_operation_xyz
x,y,z
-y,1/2+x,1/4+z
-x,-y,z
y,1/2-x,1/4+z
x,1/2-y,1/4-z
-x,1/2+y,1/4-z
y,x,-z
-y,-x,-z
1/2+x,1/2+y,1/2+z
1/2-y,x,3/4+z
1/2-x,1/2-y,1/2+z
1/2+y,-x,3/4+z
1/2+x,-y,3/4-z
1/2-x,y,3/4-z
1/2+y,1/2+x,1/2-z
1/2-y,1/2-x,1/2-z
loop_
_atom_site_type_symbol
_atom_site_label
_atom_site_fract_x
_atom_site_fract_y
_atom_site_fract_z
Si Si1 0.392953 0.492303 0.281238
Si Si2 0.969193 0.785535 0.712902
Si Si3 0.780088 0.557884 0.584386
Si Si4 0.181609 0.162169 0.384603
Si Si5 0.045945 0.354182 0.246033
Si Si6 0.991047 0.405820 0.441961
O O1 0.338432 0.481616 0.203148
O O2 0.363750 0.479773 0.387756
O O3 0.429653 0.556308 0.286758
O O4 0.449072 0.443585 0.270412
O O5 0.001280 0.750000 0.625000
O O6 0.954776 0.740138 0.803217
O O7 0.905179 0.811207 0.665542
O O8 0.007987 0.841303 0.753851
O O9 0.801192 0.628723 0.578573
O O10 0.717309 0.548023 0.524027
O O11 0.162607 0.162607 0.500000
O O12 0.250000 0.189905 0.375000
O O13 0.112848 0.387153 0.250000
O O14 0.005358 0.391173 0.327184
#
# Coordination Sequence:
#
# PCOD9551662 Si02
#       6
#    16  16  16  16  16  16
#     4  10  18  31  49  70  99 123 165 213 241 296
#     4  10  19  34  51  65  96 130 164 208 249 288
#     4  11  20  32  48  71  96 131 168 206 245 281
#     4  11  20  32  47  64  94 139 173 206 237 279
#     4   9  19  32  46  69 101 133 162 202 246 292
#     4   9  18  31  50  70  91 132 165 197 259 296
#
# _framework density 14.927178
#
# number of rings (size 3 to 8) (size 9 to 14) (size 15 to 20)
#    0.000    2.000    5.000    1.000    0.000    2.667 
#    0.000    0.833    0.000    3.000    0.000    0.000 
#    0.000   32.000    0.000    0.000    0.000    0.000 
#
# Total GULP energy -267272.756606 kJ/mol
# GULP energy per Si atom -5568.182429 kJ/mol
# Density = 1.489320 g / cm^3
# Si number density = 14.927178 Si / 1000 Ang^3
#
#
#
# Elastic Constant Matrix: (Units=GPa)
#
#
# Indices 1 2 3 4 5 6 
#
# 1 71.7840 42.0448 35.2023 0.0000 0.0000 0.0000
# 2 42.0448 71.7849 35.2024 0.0000 0.0000 0.0000
# 3 35.2023 35.2024 86.4426 0.0000 0.0000 0.0000
# 4 0.0000 0.0000 0.0000 12.9116 0.0000 0.0000
# 5 0.0000 0.0000 0.0000 0.0000 12.9112 0.0000
# 6 0.0000 0.0000 0.0000 0.0000 0.0000 20.6808
#
#
#
# Elastic Compliance Matrix: (Units=1/GPa)
#
#
# Indices 1 2 3 4 5 6 
#
# 1 0.022684 -0.010941 -0.004782 0.000000 0.000000 0.000000
# 2 -0.010941 0.022684 -0.004782 0.000000 0.000000 0.000000
# 3 -0.004782 -0.004782 0.015463 0.000000 0.000000 0.000000
# 4 0.000000 0.000000 0.000000 0.077450 0.000000 0.000000
# 5 0.000000 0.000000 0.000000 0.000000 0.077452 0.000000
# 6 0.000000 0.000000 0.000000 0.000000 0.000000 0.048354
#
#
# Mechanical properties :
#
#
# Convention : Reuss Voigt Hill
#
# Bulk Modulus (GPa) = 50.45258 50.54561 50.49909
# Shear Modulus (GPa) = 16.04085 17.13821 16.58953
#
# Velocity S-wave (km/s) = 3.28168 3.39207 3.33733
# Velocity P-wave (km/s) = 6.94491 7.01972 6.98241
#
# Compressibility (1/GPa) = 0.01982059
#
# Stress axis : x y z
#
# Youngs Moduli (GPa) = 44.08368 44.08429 64.66954
#
# Poissons Ratio (x) = 0.48233 0.30926
# Poissons Ratio (y) = 0.48232 0.30925
# Poissons Ratio (z) = 0.21081 0.21081
#
# Static dielectric constant tensor:
#      x y z
#    x 1.493080 0.000000 0.000000 
#    y 0.000000 1.493080 0.000000 
#    z 0.000000 0.000000 1.517710 
# 
# From -- ./inp_files/5293.got.cif
#   From: 2010.05.17/outbox.cif.g08.bks.cpg/sg98_3_cif.got.tgz:5293.got - 2010.06.03 20:00:51.
