data_PCOD9551544
_publ_section_title
;
Structure prediction by ZEFSAII (Michael W. Deem and Ramdas Pophale) SiO2 
 PCOD9551544
Probable space group: I 4 2 2 
;
_chemical_formula_sum "Si O2"
_cell_formula_units_Z 96
_cell_length_a 24.159403
_cell_length_b 24.159403
_cell_length_c 8.507507
_cell_angle_alpha 90.000000
_cell_angle_beta 90.000000
_cell_angle_gamma 90.000000
_cell_volume 4965.634065
_symmetry_space_group_name_H-M "I 4 2 2 "
_symmetry_group_IT_number 97
_symmetry_cell_setting 'tetragonal'
loop_
_space_group_symop_operation_xyz
x,y,z
-y,x,z
-x,-y,z
y,-x,z
x,-y,-z
-x,y,-z
y,x,-z
-y,-x,-z
1/2+x,1/2+y,1/2+z
1/2-y,1/2+x,1/2+z
1/2-x,1/2-y,1/2+z
1/2+y,1/2-x,1/2+z
1/2+x,1/2-y,1/2-z
1/2-x,1/2+y,1/2-z
1/2+y,1/2+x,1/2-z
1/2-y,1/2-x,1/2-z
loop_
_atom_site_type_symbol
_atom_site_label
_atom_site_fract_x
_atom_site_fract_y
_atom_site_fract_z
Si Si1 0.198140 0.616204 0.814481
Si Si2 0.356881 0.497529 0.319737
Si Si3 0.387565 0.387121 0.181011
Si Si4 0.687577 0.699814 0.679034
Si Si5 0.873373 0.288438 0.313898
Si Si6 0.001503 0.726471 0.178786
O O1 0.141037 0.641037 0.750000
O O2 0.244885 0.657281 0.739200
O O3 0.202406 0.551325 0.771146
O O4 0.206492 0.621933 0.999816
O O5 0.377758 0.500000 0.500000
O O6 0.386891 0.451738 0.216066
O O7 0.362974 0.554339 0.228899
O O8 0.291579 0.486761 0.327161
O O9 0.344313 0.361340 0.302280
O O10 0.373867 0.373867 0.000000
O O11 0.706643 0.706643 0.500000
O O12 0.738003 0.669043 0.769936
O O13 0.843615 0.343615 0.250000
O O14 0.935698 0.280025 0.244911
O O15 0.000000 0.705120 0.000000
#
# Coordination Sequence:
#
# PCOD9551544 Si02
#       6
#    16  16  16  16  16  16
#     4  12  25  42  65  95 129 166 208 256 310 369
#     4  11  23  40  62  85 119 163 209 256 310 365
#     4  12  24  38  60  88 119 158 211 262 308 362
#     4  12  23  39  61  91 128 166 207 255 312 369
#     4  12  25  42  65  95 129 166 208 256 310 369
#     4  11  23  41  66  93 125 164 206 252 306 370
#
# _framework density 19.332878999999998
#
# number of rings (size 3 to 8) (size 9 to 14) (size 15 to 20)
#    0.000    0.333    3.333    7.500    0.000    1.667 
#    0.000    1.667    0.000    0.500    0.000    3.500 
#    0.000    0.000    0.000    0.000    0.000    0.000 
#
# Total GULP energy -268080.501933 kJ/mol
# GULP energy per Si atom -5585.010457 kJ/mol
# Density = 1.928888 g / cm^3
# Si number density = 19.332879 Si / 1000 Ang^3
#
#
#
# Elastic Constant Matrix: (Units=GPa)
#
#
# Indices 1 2 3 4 5 6 
#
# 1 77.7132 12.1975 13.2045 0.0000 0.0000 0.0000
# 2 12.1975 77.7132 13.2045 0.0000 0.0000 0.0000
# 3 13.2045 13.2045 120.9653 0.0000 0.0000 0.0000
# 4 0.0000 0.0000 0.0000 32.7299 0.0000 0.0000
# 5 0.0000 0.0000 0.0000 0.0000 32.7299 0.0000
# 6 0.0000 0.0000 0.0000 0.0000 0.0000 0.2852
#
#
#
# Elastic Compliance Matrix: (Units=1/GPa)
#
#
# Indices 1 2 3 4 5 6 
#
# 1 0.013377 -0.001886 -0.001254 0.000000 0.000000 0.000000
# 2 -0.001886 0.013377 -0.001254 0.000000 0.000000 0.000000
# 3 -0.001254 -0.001254 0.008541 0.000000 0.000000 0.000000
# 4 0.000000 0.000000 0.000000 0.030553 0.000000 0.000000
# 5 0.000000 0.000000 0.000000 0.000000 0.030553 0.000000
# 6 0.000000 0.000000 0.000000 0.000000 0.000000 3.505734
#
#
# Mechanical properties :
#
#
# Convention : Reuss Voigt Hill
#
# Bulk Modulus (GPa) = 37.72930 39.28939 38.50935
# Shear Modulus (GPa) = 1.38131 29.00135 15.19133
#
# Velocity S-wave (km/s) = 0.84619 3.87732 2.80621
# Velocity P-wave (km/s) = 4.52909 6.35701 5.51925
#
# Compressibility (1/GPa) = 0.02650460
#
# Stress axis : x y z
#
# Youngs Moduli (GPa) = 74.75496 74.75496 117.08682
#
# Poissons Ratio (x) = 0.14102 0.14686
# Poissons Ratio (y) = 0.14102 0.14686
# Poissons Ratio (z) = 0.09377 0.09377
#
# Static dielectric constant tensor:
#      x y z
#    x 1.524220 0.000000 0.000000 
#    y 0.000000 1.524220 0.000000 
#    z 0.000000 0.000000 1.693220 
# 
# From -- ./inp_files/2438.got.cif
#   From: 2010.05.17/outbox.cif.g08.bks.cpg/sg97_2_cif.got.tgz:2438.got - 2010.06.03 19:55:32.
