data_PCOD9551825
_publ_section_title
;
Structure prediction by ZEFSAII (Michael W. Deem and Ramdas Pophale) SiO2 
 PCOD9551825
Probable space group: I 41 2 2
;
_chemical_formula_sum "Si O2"
_cell_formula_units_Z 96
_cell_length_a 22.445411
_cell_length_b 22.445411
_cell_length_c 12.477818
_cell_angle_alpha 90.000000
_cell_angle_beta 90.000000
_cell_angle_gamma 90.000000
_cell_volume 6286.280724
_symmetry_space_group_name_H-M "I 41 2 2"
_symmetry_group_IT_number 98
_symmetry_cell_setting 'tetragonal'
loop_
_space_group_symop_operation_xyz
x,y,z
-y,1/2+x,1/4+z
-x,-y,z
y,1/2-x,1/4+z
x,1/2-y,1/4-z
-x,1/2+y,1/4-z
y,x,-z
-y,-x,-z
1/2+x,1/2+y,1/2+z
1/2-y,x,3/4+z
1/2-x,1/2-y,1/2+z
1/2+y,-x,3/4+z
1/2+x,-y,3/4-z
1/2-x,y,3/4-z
1/2+y,1/2+x,1/2-z
1/2-y,1/2-x,1/2-z
loop_
_atom_site_type_symbol
_atom_site_label
_atom_site_fract_x
_atom_site_fract_y
_atom_site_fract_z
Si Si1 0.784036 0.118657 0.488059
Si Si2 0.992931 0.901398 0.259997
Si Si3 0.569934 0.320905 0.614672
Si Si4 0.828613 0.415194 0.114851
Si Si5 0.982708 0.384386 0.752070
Si Si6 0.903334 0.996829 0.267873
O O1 0.819873 0.180128 0.500000
O O2 0.750000 0.117396 0.375000
O O3 0.736544 0.106267 0.581036
O O4 0.832738 0.066427 0.492961
O O5 0.934949 0.937917 0.222349
O O6 0.015828 0.849100 0.182893
O O7 0.985985 0.880018 0.383066
O O8 0.045993 0.951069 0.264573
O O9 0.575865 0.250000 0.625000
O O10 0.565776 0.333443 0.488115
O O11 0.627579 0.358668 0.653460
O O12 0.849622 0.471279 0.043770
O O13 0.946575 0.446575 0.750000
O O14 0.017329 0.385267 0.640243
#
# Coordination Sequence:
#
# PCOD9551825 Si02
#       6
#    16  16  16  16  16  16
#     4  11  22  33  48  66  90 127 170 208 246 280
#     4   9  17  28  48  67  85 117 148 193 245 301
#     4  10  21  34  47  60  91 125 162 201 238 284
#     4  10  21  34  46  65  89 123 163 211 240 273
#     4   9  16  28  46  66  91 113 149 197 240 285
#     4   9  16  29  46  69  89 107 152 199 247 288
#
# _framework density 15.271352
#
# number of rings (size 3 to 8) (size 9 to 14) (size 15 to 20)
#    0.000    2.333    1.667    1.500    4.667    3.333 
#    0.000    3.333    0.000    0.000    0.000    0.000 
#    0.000    0.000    0.000    0.000   82.333    0.000 
#
# Total GULP energy -267309.244286 kJ/mol
# GULP energy per Si atom -5568.942589 kJ/mol
# Density = 1.523659 g / cm^3
# Si number density = 15.271352 Si / 1000 Ang^3
#
#
#
# Elastic Constant Matrix: (Units=GPa)
#
#
# Indices 1 2 3 4 5 6 
#
# 1 46.5191 47.3523 28.6921 0.0000 0.0000 0.0000
# 2 47.3523 46.5208 28.6919 0.0000 0.0000 0.0000
# 3 28.6921 28.6919 62.8903 0.0000 0.0000 0.0000
# 4 0.0000 0.0000 0.0000 15.8492 0.0000 0.0000
# 5 0.0000 0.0000 0.0000 0.0000 15.8494 0.0000
# 6 0.0000 0.0000 0.0000 0.0000 0.0000 22.2001
#
#
#
# Elastic Compliance Matrix: (Units=1/GPa)
#
#
# Indices 1 2 3 4 5 6 
#
# 1 -0.593362 0.608119 -0.006731 0.000000 0.000000 0.000000
# 2 0.608119 -0.593331 -0.006748 0.000000 0.000000 0.000000
# 3 -0.006731 -0.006748 0.022050 0.000000 0.000000 0.000000
# 4 0.000000 0.000000 0.000000 0.063095 0.000000 0.000000
# 5 0.000000 0.000000 0.000000 0.000000 0.063094 0.000000
# 6 0.000000 0.000000 0.000000 0.000000 0.000000 0.045045
#
#
# Mechanical properties :
#
#
# Convention : Reuss Voigt Hill
#
# Bulk Modulus (GPa) = 40.58920 40.60031 40.59476
# Shear Modulus (GPa) = -2.29940 14.19267 5.94663
#
# Velocity S-wave (km/s) = -1.22840 3.05186 1.97546
# Velocity P-wave (km/s) = 4.96230 6.24997 5.64298
#
# Compressibility (1/GPa) = 0.02463710
#
# Stress axis : x y z
#
# Youngs Moduli (GPa) = -1.68531 -1.68540 45.35085
#
# Poissons Ratio (x) = 1.02492 0.30525
# Poissons Ratio (y) = 1.02487 0.30605
# Poissons Ratio (z) = -0.01134 -0.01137
#
# Static dielectric constant tensor:
#      x y z
#    x 1.502050 0.000000 0.000000 
#    y 0.000000 1.502050 0.000000 
#    z 0.000000 0.000000 1.544490 
# 
# From -- ./inp_files/5297.got.cif
#   From: 2010.05.17/outbox.cif.g08.bks.cpg/sg98_3_cif.got.tgz:5297.got - 2010.06.03 20:00:51.
