data_PCOD9551982
_publ_section_title
;
Structure prediction by ZEFSAII (Michael W. Deem and Ramdas Pophale) SiO2 
 PCOD9551982
Probable space group: I 41 2 2
;
_chemical_formula_sum "Si O2"
_cell_formula_units_Z 48
_cell_length_a 14.165431
_cell_length_b 14.165431
_cell_length_c 11.219447
_cell_angle_alpha 90.000000
_cell_angle_beta 90.000000
_cell_angle_gamma 90.000000
_cell_volume 2251.287901
_symmetry_space_group_name_H-M "I 41 2 2"
_symmetry_group_IT_number 98
_symmetry_cell_setting 'tetragonal'
loop_
_space_group_symop_operation_xyz
x,y,z
-y,1/2+x,1/4+z
-x,-y,z
y,1/2-x,1/4+z
x,1/2-y,1/4-z
-x,1/2+y,1/4-z
y,x,-z
-y,-x,-z
1/2+x,1/2+y,1/2+z
1/2-y,x,3/4+z
1/2-x,1/2-y,1/2+z
1/2+y,-x,3/4+z
1/2+x,-y,3/4-z
1/2-x,y,3/4-z
1/2+y,1/2+x,1/2-z
1/2-y,1/2-x,1/2-z
loop_
_atom_site_type_symbol
_atom_site_label
_atom_site_fract_x
_atom_site_fract_y
_atom_site_fract_z
Si Si1 0.634317 0.355272 0.633609
Si Si2 0.234623 0.029992 0.233841
Si Si3 0.896370 0.541187 0.546844
O O1 0.672203 0.250000 0.625000
O O2 0.611277 0.388724 0.500000
O O3 0.708810 0.424882 0.692348
O O4 0.540475 0.354871 0.713134
O O5 0.250000 0.031633 0.375000
O O6 0.324135 0.059633 0.154996
O O7 0.136845 0.087961 0.221377
O O8 0.000000 0.500000 0.585143
#
# Coordination Sequence:
#
# PCOD9551982 Si02
#       3
#    16  16  16
#     4  11  23  45  70 104 134 173 231 284 355 409
#     4  11  24  44  71  99 138 184 227 283 344 416
#     4  10  24  46  71  99 140 181 227 287 346 416
#
# _framework density 21.321128000000002
#
# number of rings (size 3 to 8) (size 9 to 14) (size 15 to 20)
#    0.000    1.333    3.333    1.000    0.000   16.667 
#    0.000    5.000    0.000    0.000    0.000    0.000 
#    0.000    0.000    0.000    0.000    0.000    0.000 
#
# Total GULP energy -134115.271380 kJ/mol
# GULP energy per Si atom -5588.136308 kJ/mol
# Density = 2.127260 g / cm^3
# Si number density = 21.321128 Si / 1000 Ang^3
#
#
#
# Elastic Constant Matrix: (Units=GPa)
#
#
# Indices 1 2 3 4 5 6 
#
# 1 95.7180 32.7989 19.5055 0.0000 0.0000 0.0000
# 2 32.7989 95.7179 19.5053 0.0000 0.0000 0.0000
# 3 19.5055 19.5053 92.5486 0.0000 0.0000 0.0000
# 4 0.0000 0.0000 0.0000 28.9072 0.0000 0.0000
# 5 0.0000 0.0000 0.0000 0.0000 28.9066 0.0000
# 6 0.0000 0.0000 0.0000 0.0000 0.0000 14.2537
#
#
#
# Elastic Compliance Matrix: (Units=1/GPa)
#
#
# Indices 1 2 3 4 5 6 
#
# 1 0.012103 -0.003790 -0.001752 0.000000 0.000000 0.000000
# 2 -0.003790 0.012103 -0.001752 0.000000 0.000000 0.000000
# 3 -0.001752 -0.001752 0.011544 0.000000 0.000000 0.000000
# 4 0.000000 0.000000 0.000000 0.034593 0.000000 0.000000
# 5 0.000000 0.000000 0.000000 0.000000 0.034594 0.000000
# 6 0.000000 0.000000 0.000000 0.000000 0.000000 0.070157
#
#
# Mechanical properties :
#
#
# Convention : Reuss Voigt Hill
#
# Bulk Modulus (GPa) = 47.25590 47.51154 47.38372
# Shear Modulus (GPa) = 25.41463 28.55849 26.98656
#
# Velocity S-wave (km/s) = 3.45627 3.66381 3.56155
# Velocity P-wave (km/s) = 6.17574 6.34273 6.25979
#
# Compressibility (1/GPa) = 0.02116138
#
# Stress axis : x y z
#
# Youngs Moduli (GPa) = 82.62303 82.62296 86.62784
#
# Poissons Ratio (x) = 0.31316 0.15177
# Poissons Ratio (y) = 0.31316 0.15177
# Poissons Ratio (z) = 0.14476 0.14476
#
# Static dielectric constant tensor:
#      x y z
#    x 1.802750 0.000000 0.000000 
#    y 0.000000 1.802750 0.000000 
#    z 0.000000 0.000000 1.778620 
# 
# From -- ./inp_files/4454.got.cif
#   From: 2010.05.17/outbox.cif.g08.bks.cpg/sg98_3_cif.got.tgz:4454.got - 2010.06.03 20:00:51.
