data_PCOD9551163
_publ_section_title
;
Structure prediction by ZEFSAII (Michael W. Deem and Ramdas Pophale) SiO2 
 PCOD9551163
Probable space group: P 43 21 2
;
_chemical_formula_sum "Si O2"
_cell_formula_units_Z 36
_cell_length_a 11.532833
_cell_length_b 11.532833
_cell_length_c 10.571257
_cell_angle_alpha 90.000000
_cell_angle_beta 90.000000
_cell_angle_gamma 90.000000
_cell_volume 1406.043114
_symmetry_space_group_name_H-M "P 43 21 2"
_symmetry_group_IT_number 96
_symmetry_cell_setting 'tetragonal'
loop_
_space_group_symop_operation_xyz
x,y,z
1/2-y,1/2+x,3/4+z
-x,-y,1/2+z
1/2+y,1/2-x,1/4+z
1/2+x,1/2-y,1/4-z
1/2-x,1/2+y,3/4-z
y,x,-z
-y,-x,1/2-z
loop_
_atom_site_type_symbol
_atom_site_label
_atom_site_fract_x
_atom_site_fract_y
_atom_site_fract_z
Si Si1 0.076027 0.076027 0.500000
Si Si2 0.241228 0.115172 0.811531
Si Si3 0.815387 0.991437 0.763123
Si Si4 0.585059 0.923850 0.105356
Si Si5 0.120102 0.829043 0.608976
O O1 0.085858 0.167385 0.611514
O O2 0.940807 0.092504 0.471222
O O3 0.288957 0.078225 0.671691
O O4 0.293677 0.245336 0.834274
O O5 0.107039 0.149638 0.835789
O O6 0.257287 0.993061 0.891829
O O7 0.908787 0.091214 0.750000
O O8 0.692501 0.049542 0.781521
O O9 0.514662 0.931990 0.240296
O O10 0.122437 0.877564 0.750000
#
# Coordination Sequence:
#
# PCOD9551163 Si02
#       5
#     4   8   8   8   8
#     4  12  20  50  74 108 154 220 280 328 418 524
#     4  12  26  49  79 118 166 217 277 353 423 517
#     4  12  26  49  81 111 153 223 281 334 420 520
#     4  12  30  53  81 121 171 214 280 360 434 506
#     4  12  26  47  78 115 162 216 273 348 427 510
#
# _framework density 25.603767000000001
#
# number of rings (size 3 to 8) (size 9 to 14) (size 15 to 20)
#    0.000    0.000    6.667    2.667    7.778    0.000 
#    0.000    0.000    0.000    0.000    0.000    0.000 
#    0.000    0.000    0.000    0.000    0.000    0.000 
#
# Total GULP energy -200422.706362 kJ/mol
# GULP energy per Si atom -5567.297399 kJ/mol
# Density = 2.554549 g / cm^3
# Si number density = 25.603767 Si / 1000 Ang^3
#
#
#
# Elastic Constant Matrix: (Units=GPa)
#
#
# Indices 1 2 3 4 5 6 
#
# 1 131.5120 37.1078 0.7428 0.0000 0.0000 0.0000
# 2 37.1078 131.5135 0.7458 0.0000 0.0000 0.0000
# 3 0.7428 0.7458 64.0868 0.0000 0.0000 0.0000
# 4 0.0000 0.0000 0.0000 19.5701 0.0000 0.0000
# 5 0.0000 0.0000 0.0000 0.0000 19.5702 0.0000
# 6 0.0000 0.0000 0.0000 0.0000 0.0000 41.1131
#
#
#
# Elastic Compliance Matrix: (Units=1/GPa)
#
#
# Indices 1 2 3 4 5 6 
#
# 1 0.008262 -0.002331 -0.000069 0.000000 0.000000 0.000000
# 2 -0.002331 0.008262 -0.000069 0.000000 0.000000 0.000000
# 3 -0.000069 -0.000069 0.015605 0.000000 0.000000 0.000000
# 4 0.000000 0.000000 0.000000 0.051098 0.000000 0.000000
# 5 0.000000 0.000000 0.000000 0.000000 0.051098 0.000000
# 6 0.000000 0.000000 0.000000 0.000000 0.000000 0.024323
#
#
# Mechanical properties :
#
#
# Convention : Reuss Voigt Hill
#
# Bulk Modulus (GPa) = 36.77543 44.92279 40.84911
# Shear Modulus (GPa) = 28.96035 35.28509 32.12272
#
# Velocity S-wave (km/s) = 3.36683 3.71633 3.54589
# Velocity P-wave (km/s) = 5.43217 5.99986 5.72306
#
# Compressibility (1/GPa) = 0.02719207
#
# Stress axis : x y z
#
# Youngs Moduli (GPa) = 121.03728 121.03861 64.08023
#
# Poissons Ratio (x) = 0.28212 0.00440
# Poissons Ratio (y) = 0.28211 0.00443
# Poissons Ratio (z) = 0.00831 0.00837
#
# Static dielectric constant tensor:
#      x y z
#    x 2.067450 0.000000 0.000000 
#    y 0.000000 2.067430 0.000000 
#    z 0.000000 0.000000 2.150170 
# 
# From -- ./inp_files/2023.got.cif
#   From: 2010.05.17/outbox.cif.g08.bks.cpg/sg96_2_cif.got.tgz:2023.got - 2010.06.03 19:52:08.
