data_PCOD9551330
_publ_section_title
;
Structure prediction by ZEFSAII (Michael W. Deem and Ramdas Pophale) SiO2 
 PCOD9551330
Probable space group: I 4 2 2 
;
_chemical_formula_sum "Si O2"
_cell_formula_units_Z 112
_cell_length_a 14.850048
_cell_length_b 14.850048
_cell_length_c 27.819276
_cell_angle_alpha 90.000000
_cell_angle_beta 90.000000
_cell_angle_gamma 90.000000
_cell_volume 6134.815951
_symmetry_space_group_name_H-M "I 4 2 2 "
_symmetry_group_IT_number 97
_symmetry_cell_setting 'tetragonal'
loop_
_space_group_symop_operation_xyz
x,y,z
-y,x,z
-x,-y,z
y,-x,z
x,-y,-z
-x,y,-z
y,x,-z
-y,-x,-z
1/2+x,1/2+y,1/2+z
1/2-y,1/2+x,1/2+z
1/2-x,1/2-y,1/2+z
1/2+y,1/2-x,1/2+z
1/2+x,1/2-y,1/2-z
1/2-x,1/2+y,1/2-z
1/2+y,1/2+x,1/2-z
1/2-y,1/2-x,1/2-z
loop_
_atom_site_type_symbol
_atom_site_label
_atom_site_fract_x
_atom_site_fract_y
_atom_site_fract_z
Si Si1 0.589363 0.619549 0.774864
Si Si2 0.634016 0.768717 0.705343
Si Si3 0.322511 0.284741 0.865780
Si Si4 0.099126 0.498417 0.659912
Si Si5 0.658313 0.119328 0.590703
Si Si6 0.916280 0.640925 0.427261
Si Si7 0.104387 0.742029 0.005252
O O1 0.482157 0.621664 0.775514
O O2 0.619612 0.670862 0.727019
O O3 0.626415 0.667177 0.822442
O O4 0.676036 0.823965 0.750000
O O5 0.703328 0.768863 0.660880
O O6 0.543536 0.821611 0.690271
O O7 0.258445 0.352576 0.894300
O O8 0.389338 0.234078 0.901691
O O9 0.115257 0.399088 0.639812
O O10 0.091421 0.561558 0.612338
O O11 0.000000 0.500000 0.683754
O O12 0.619215 0.197202 0.557104
O O13 0.647737 0.023471 0.563240
O O14 0.841040 0.622641 0.467865
O O15 0.176819 0.823182 0.000000
O O16 0.000000 0.770697 0.000000
#
# Coordination Sequence:
#
# PCOD9551330 Si02
#       7
#    16  16  16  16  16  16  16
#     4  10  21  37  56  78 110 156 203 245 294 355
#     4   9  20  36  55  79 117 151 192 248 296 360
#     4  10  20  37  56  83 115 151 195 247 298 356
#     4   9  19  34  55  86 115 147 191 244 303 358
#     4  11  21  34  63  88 116 158 197 249 304 359
#     4  10  20  37  58  88 119 149 196 242 301 364
#     4  12  24  41  63  90 122 159 197 241 297 362
#
# _framework density 18.256457999999999
#
# number of rings (size 3 to 8) (size 9 to 14) (size 15 to 20)
#    0.000    1.857    2.857    1.286    2.000    2.143 
#    0.000    0.000    0.000    0.000    0.000    1.000 
#    0.000    0.000    0.000    0.000    0.000    0.000 
#
# Total GULP energy -312255.079244 kJ/mol
# GULP energy per Si atom -5575.983558 kJ/mol
# Density = 1.821491 g / cm^3
# Si number density = 18.256458 Si / 1000 Ang^3
#
#
#
# Elastic Constant Matrix: (Units=GPa)
#
#
# Indices 1 2 3 4 5 6 
#
# 1 100.0119 27.0230 9.4014 0.0000 0.0000 0.0000
# 2 27.0230 100.0129 9.4021 0.0000 0.0000 0.0000
# 3 9.4014 9.4021 30.1912 0.0000 0.0000 0.0000
# 4 0.0000 0.0000 0.0000 24.7672 0.0000 0.0000
# 5 0.0000 0.0000 0.0000 0.0000 24.7659 0.0000
# 6 0.0000 0.0000 0.0000 0.0000 0.0000 28.7597
#
#
#
# Elastic Compliance Matrix: (Units=1/GPa)
#
#
# Indices 1 2 3 4 5 6 
#
# 1 0.010976 -0.002724 -0.002570 0.000000 0.000000 0.000000
# 2 -0.002724 0.010976 -0.002570 0.000000 0.000000 0.000000
# 3 -0.002570 -0.002570 0.034723 0.000000 0.000000 0.000000
# 4 0.000000 0.000000 0.000000 0.040376 0.000000 0.000000
# 5 0.000000 0.000000 0.000000 0.000000 0.040378 0.000000
# 6 0.000000 0.000000 0.000000 0.000000 0.000000 0.034771
#
#
# Mechanical properties :
#
#
# Convention : Reuss Voigt Hill
#
# Bulk Modulus (GPa) = 24.42121 35.76320 30.09220
# Shear Modulus (GPa) = 24.80435 27.95119 26.37777
#
# Velocity S-wave (km/s) = 3.69000 3.91708 3.80524
# Velocity P-wave (km/s) = 5.61788 6.33166 5.98542
#
# Compressibility (1/GPa) = 0.04094801
#
# Stress axis : x y z
#
# Youngs Moduli (GPa) = 91.10424 91.10475 28.79953
#
# Poissons Ratio (x) = 0.24819 0.07400
# Poissons Ratio (y) = 0.24819 0.07401
# Poissons Ratio (z) = 0.23410 0.23414
#
# Static dielectric constant tensor:
#      x y z
#    x 1.627910 0.000000 0.000000 
#    y 0.000000 1.627910 0.000000 
#    z 0.000000 0.000000 1.626270 
# 
# From -- ./inp_files/7685.got.cif
#   From: 2010.05.17/outbox.cif.g08.bks.cpg/sg97_4_cif.got.tgz:7685.got - 2010.06.03 19:55:32.
