data_PCOD9551995
_publ_section_title
;
Structure prediction by ZEFSAII (Michael W. Deem and Ramdas Pophale) SiO2 
 PCOD9551995
Probable space group: I 41 2 2
;
_chemical_formula_sum "Si O2"
_cell_formula_units_Z 24
_cell_length_a 11.354992
_cell_length_b 11.354992
_cell_length_c 7.559514
_cell_angle_alpha 90.000000
_cell_angle_beta 90.000000
_cell_angle_gamma 90.000000
_cell_volume 974.692313
_symmetry_space_group_name_H-M "I 41 2 2"
_symmetry_group_IT_number 98
_symmetry_cell_setting 'tetragonal'
loop_
_space_group_symop_operation_xyz
x,y,z
-y,1/2+x,1/4+z
-x,-y,z
y,1/2-x,1/4+z
x,1/2-y,1/4-z
-x,1/2+y,1/4-z
y,x,-z
-y,-x,-z
1/2+x,1/2+y,1/2+z
1/2-y,x,3/4+z
1/2-x,1/2-y,1/2+z
1/2+y,-x,3/4+z
1/2+x,-y,3/4-z
1/2-x,y,3/4-z
1/2+y,1/2+x,1/2-z
1/2-y,1/2-x,1/2-z
loop_
_atom_site_type_symbol
_atom_site_label
_atom_site_fract_x
_atom_site_fract_y
_atom_site_fract_z
Si Si1 0.634637 0.865364 0.750000
Si Si2 0.200528 0.908619 0.201535
O O1 0.750000 0.862794 0.875000
O O2 0.635572 0.987347 0.644505
O O3 0.134849 0.799792 0.306943
O O4 0.250000 0.972130 0.375000
#
# Coordination Sequence:
#
# PCOD9551995 Si02
#       2
#     8  16
#     4  12  28  49  74 115 158 198 248 317 382 440
#     4  10  25  51  79 108 149 204 258 305 372 460
#
# _framework density 24.623156000000002
#
# number of rings (size 3 to 8) (size 9 to 14) (size 15 to 20)
#    0.000    1.333    0.000    2.000    0.000   21.333 
#    0.000   26.667    0.000    0.000    0.000    0.000 
#    0.000    0.000    0.000    0.000    0.000    0.000 
#
# Total GULP energy -66861.219471 kJ/mol
# GULP energy per Si atom -5571.768289 kJ/mol
# Density = 2.456711 g / cm^3
# Si number density = 24.623156 Si / 1000 Ang^3
#
#
#
# Elastic Constant Matrix: (Units=GPa)
#
#
# Indices 1 2 3 4 5 6 
#
# 1 162.8712 133.8174 130.0266 0.0000 0.0000 0.0000
# 2 133.8174 162.8720 130.0263 0.0000 0.0000 0.0000
# 3 130.0266 130.0263 270.8560 0.0000 0.0000 0.0000
# 4 0.0000 0.0000 0.0000 53.8385 0.0000 0.0000
# 5 0.0000 0.0000 0.0000 0.0000 53.8391 0.0000
# 6 0.0000 0.0000 0.0000 0.0000 0.0000 32.1917
#
#
#
# Elastic Compliance Matrix: (Units=1/GPa)
#
#
# Indices 1 2 3 4 5 6 
#
# 1 0.020119 -0.014300 -0.002794 0.000000 0.000000 0.000000
# 2 -0.014300 0.020119 -0.002793 0.000000 0.000000 0.000000
# 3 -0.002794 -0.002793 0.006374 0.000000 0.000000 0.000000
# 4 0.000000 0.000000 0.000000 0.018574 0.000000 0.000000
# 5 0.000000 0.000000 0.000000 0.000000 0.018574 0.000000
# 6 0.000000 0.000000 0.000000 0.000000 0.000000 0.031064
#
#
# Mechanical properties :
#
#
# Convention : Reuss Voigt Hill
#
# Bulk Modulus (GPa) = 146.23608 153.81555 150.02581
# Shear Modulus (GPa) = 31.87228 41.48912 36.68070
#
# Velocity S-wave (km/s) = 3.60168 4.10928 3.86383
# Velocity P-wave (km/s) = 8.76440 9.22596 8.99814
#
# Compressibility (1/GPa) = 0.00683826
#
# Stress axis : x y z
#
# Youngs Moduli (GPa) = 49.70463 49.70512 156.88555
#
# Poissons Ratio (x) = 0.71077 0.43827
# Poissons Ratio (y) = 0.71076 0.43825
# Poissons Ratio (z) = 0.13885 0.13885
#
# Static dielectric constant tensor:
#      x y z
#    x 2.029860 0.000000 0.000000 
#    y 0.000000 2.029860 0.000000 
#    z 0.000000 0.000000 2.023330 
# 
# From -- ./inp_files/2202.got.cif
#   From: 2010.05.17/outbox.cif.g08.bks.cpg/sg98_2_cif.got.tgz:2202.got - 2010.06.03 20:00:51.
