data_PCOD9551295
_publ_section_title
;
Structure prediction by ZEFSAII (Michael W. Deem and Ramdas Pophale) SiO2 
 PCOD9551295
Probable space group: I 4 2 2 
;
_chemical_formula_sum "Si O2"
_cell_formula_units_Z 120
_cell_length_a 17.038946
_cell_length_b 17.038946
_cell_length_c 20.209539
_cell_angle_alpha 90.000000
_cell_angle_beta 90.000000
_cell_angle_gamma 90.000000
_cell_volume 5867.348169
_symmetry_space_group_name_H-M "I 4 2 2 "
_symmetry_group_IT_number 97
_symmetry_cell_setting 'tetragonal'
loop_
_space_group_symop_operation_xyz
x,y,z
-y,x,z
-x,-y,z
y,-x,z
x,-y,-z
-x,y,-z
y,x,-z
-y,-x,-z
1/2+x,1/2+y,1/2+z
1/2-y,1/2+x,1/2+z
1/2-x,1/2-y,1/2+z
1/2+y,1/2-x,1/2+z
1/2+x,1/2-y,1/2-z
1/2-x,1/2+y,1/2-z
1/2+y,1/2+x,1/2-z
1/2-y,1/2-x,1/2-z
loop_
_atom_site_type_symbol
_atom_site_label
_atom_site_fract_x
_atom_site_fract_y
_atom_site_fract_z
Si Si1 0.393186 0.781933 0.900104
Si Si2 0.030791 0.129927 0.093092
Si Si3 0.747250 0.648549 0.447566
Si Si4 0.641992 0.641992 0.000000
Si Si5 0.725041 0.250358 0.173342
Si Si6 0.593388 0.092597 0.993497
Si Si7 0.556198 0.705867 0.877790
Si Si8 0.871249 0.979634 0.761022
O O1 0.337263 0.760562 0.839206
O O2 0.484796 0.763028 0.893683
O O3 0.366542 0.722356 0.958870
O O4 0.382761 0.870721 0.922946
O O5 0.068038 0.198012 0.049040
O O6 0.028826 0.167469 0.167271
O O7 0.944983 0.090277 0.084844
O O8 0.708514 0.708514 0.500000
O O9 0.733902 0.689299 0.376161
O O10 0.839396 0.630533 0.459726
O O11 0.649218 0.576691 0.059014
O O12 0.728594 0.228594 0.250000
O O13 0.637212 0.255193 0.144465
O O14 0.500000 0.112361 0.000000
O O15 0.599541 0.000000 0.000000
O O16 0.527920 0.666189 0.810237
O O17 0.937237 0.913317 0.762719
#
# Coordination Sequence:
#
# PCOD9551295 Si02
#       8
#    16  16  16   8  16  16  16  16
#     4  11  21  40  62  87 124 165 212 268 326 385
#     4   9  21  39  62  93 134 176 211 264 334 402
#     4  12  24  40  67  95 130 167 223 280 328 403
#     4  10  20  32  56  89 120 152 201 254 318 394
#     4  11  24  41  62  92 125 164 218 270 325 397
#     4  11  24  43  66  95 130 175 226 278 340 391
#     4  11  21  34  60  85 120 165 209 261 330 382
#     4   9  17  33  53  83 126 170 212 254 319 402
#
# _framework density 20.452171
#
# number of rings (size 3 to 8) (size 9 to 14) (size 15 to 20)
#    0.000    1.467    1.333    6.800    2.800    1.067 
#    0.000    2.000    0.000    3.200    0.000    0.933 
#    0.000    0.267    0.000    0.000    0.000    0.000 
#
# Total GULP energy -334344.571686 kJ/mol
# GULP energy per Si atom -5572.409528 kJ/mol
# Density = 2.040562 g / cm^3
# Si number density = 20.452171 Si / 1000 Ang^3
#
#
#
# Elastic Constant Matrix: (Units=GPa)
#
#
# Indices 1 2 3 4 5 6 
#
# 1 82.4365 20.0183 39.5896 0.0000 0.0000 0.0000
# 2 20.0183 82.4365 39.5896 0.0000 0.0000 0.0000
# 3 39.5896 39.5896 115.7786 0.0000 0.0000 0.0000
# 4 0.0000 0.0000 0.0000 25.0256 0.0000 0.0000
# 5 0.0000 0.0000 0.0000 0.0000 25.0256 0.0000
# 6 0.0000 0.0000 0.0000 0.0000 0.0000 28.7296
#
#
#
# Elastic Compliance Matrix: (Units=1/GPa)
#
#
# Indices 1 2 3 4 5 6 
#
# 1 0.014644 -0.001377 -0.004536 0.000000 0.000000 0.000000
# 2 -0.001377 0.014644 -0.004536 0.000000 0.000000 0.000000
# 3 -0.004536 -0.004536 0.011739 0.000000 0.000000 0.000000
# 4 0.000000 0.000000 0.000000 0.039959 0.000000 0.000000
# 5 0.000000 0.000000 0.000000 0.000000 0.039959 0.000000
# 6 0.000000 0.000000 0.000000 0.000000 0.000000 0.034807
#
#
# Mechanical properties :
#
#
# Convention : Reuss Voigt Hill
#
# Bulk Modulus (GPa) = 49.68527 53.22739 51.45633
# Shear Modulus (GPa) = 27.26865 27.85310 27.56087
#
# Velocity S-wave (km/s) = 3.65538 3.69435 3.67492
# Velocity P-wave (km/s) = 6.49322 6.65428 6.57424
#
# Compressibility (1/GPa) = 0.02012669
#
# Stress axis : x y z
#
# Youngs Moduli (GPa) = 68.28950 68.28950 85.18289
#
# Poissons Ratio (x) = 0.09406 0.38641
# Poissons Ratio (y) = 0.09406 0.38641
# Poissons Ratio (z) = 0.30978 0.30978
#
# Static dielectric constant tensor:
#      x y z
#    x 1.780710 0.000000 0.000000 
#    y 0.000000 1.780710 0.000000 
#    z 0.000000 0.000000 1.841780 
# 
# From -- ./inp_files/6849.got.cif
#   From: 2010.05.17/outbox.cif.g08.bks.cpg/sg97_4_cif.got.tgz:6849.got - 2010.06.03 19:55:32.
