data_PCOD9551064
_publ_section_title
;
Structure prediction by ZEFSAII (Michael W. Deem and Ramdas Pophale) SiO2 
 PCOD9551064
Probable space group: P 43 21 2
;
_chemical_formula_sum "Si O2"
_cell_formula_units_Z 24
_cell_length_a 10.192948
_cell_length_b 10.192948
_cell_length_c 9.229903
_cell_angle_alpha 90.000000
_cell_angle_beta 90.000000
_cell_angle_gamma 90.000000
_cell_volume 958.951746
_symmetry_space_group_name_H-M "P 43 21 2"
_symmetry_group_IT_number 96
_symmetry_cell_setting 'tetragonal'
loop_
_space_group_symop_operation_xyz
x,y,z
1/2-y,1/2+x,3/4+z
-x,-y,1/2+z
1/2+y,1/2-x,1/4+z
1/2+x,1/2-y,1/4-z
1/2-x,1/2+y,3/4-z
y,x,-z
-y,-x,1/2-z
loop_
_atom_site_type_symbol
_atom_site_label
_atom_site_fract_x
_atom_site_fract_y
_atom_site_fract_z
Si Si1 0.149045 0.492537 0.612236
Si Si2 0.828145 0.171856 0.250000
Si Si3 0.287900 0.712101 0.250000
Si Si4 0.186461 0.124302 0.820136
O O1 0.077737 0.445345 0.758325
O O2 0.184328 0.364129 0.522708
O O3 0.285763 0.569866 0.636323
O O4 0.710949 0.190521 0.130870
O O5 0.967766 0.182650 0.171278
O O6 0.356170 0.670081 0.397501
#
# Coordination Sequence:
#
# PCOD9551064 Si02
#       4
#     8   4   4   8
#     4  10  24  45  77 110 158 210 273 332 411 484
#     4  12  31  53  80 120 164 220 276 347 411 502
#     4  10  25  45  74 112 152 212 268 339 399 484
#     4  11  29  49  79 115 163 212 273 339 412 491
#
# _framework density 25.027327
#
# number of rings (size 3 to 8) (size 9 to 14) (size 15 to 20)
#    0.000    1.333    0.000    1.000   23.333    1.333 
#    0.000    0.000    0.000    0.000    0.000    0.000 
#    0.000    0.000    0.000    0.000    0.000    0.000 
#
# Total GULP energy -134283.824527 kJ/mol
# GULP energy per Si atom -5595.159355 kJ/mol
# Density = 2.497036 g / cm^3
# Si number density = 25.027327 Si / 1000 Ang^3
#
#
#
# Elastic Constant Matrix: (Units=GPa)
#
#
# Indices 1 2 3 4 5 6 
#
# 1 196.3714 59.8151 70.5306 0.0000 0.0000 0.0000
# 2 59.8151 196.3733 70.5310 0.0000 0.0000 0.0000
# 3 70.5306 70.5310 130.5711 0.0000 0.0000 0.0000
# 4 0.0000 0.0000 0.0000 39.1399 0.0000 0.0000
# 5 0.0000 0.0000 0.0000 0.0000 39.1375 0.0000
# 6 0.0000 0.0000 0.0000 0.0000 0.0000 37.8392
#
#
#
# Elastic Compliance Matrix: (Units=1/GPa)
#
#
# Indices 1 2 3 4 5 6 
#
# 1 0.006439 -0.000884 -0.003001 0.000000 0.000000 0.000000
# 2 -0.000884 0.006439 -0.003001 0.000000 0.000000 0.000000
# 3 -0.003001 -0.003001 0.010901 0.000000 0.000000 0.000000
# 4 0.000000 0.000000 0.000000 0.025549 0.000000 0.000000
# 5 0.000000 0.000000 0.000000 0.000000 0.025551 0.000000
# 6 0.000000 0.000000 0.000000 0.000000 0.000000 0.026428
#
#
# Mechanical properties :
#
#
# Convention : Reuss Voigt Hill
#
# Bulk Modulus (GPa) = 99.91856 102.78548 101.35202
# Shear Modulus (GPa) = 42.22427 44.71924 43.47175
#
# Velocity S-wave (km/s) = 4.11192 4.23166 4.17222
# Velocity P-wave (km/s) = 7.90913 8.06439 7.98714
#
# Compressibility (1/GPa) = 0.01000815
#
# Stress axis : x y z
#
# Youngs Moduli (GPa) = 155.29320 155.29466 91.73546
#
# Poissons Ratio (x) = 0.13721 0.27531
# Poissons Ratio (y) = 0.13721 0.27531
# Poissons Ratio (z) = 0.46605 0.46606
#
# Static dielectric constant tensor:
#      x y z
#    x 2.005910 0.000000 0.000000 
#    y 0.000000 2.005920 0.000000 
#    z 0.000000 0.000000 2.178160 
# 
# From -- ./inp_files/1037.got.cif
#   From: 2010.05.17/outbox.cif.g08.bks.cpg/sg96_1_cif.got.tgz:1037.got - 2010.06.03 19:52:08.
