data_PCOD9551117
_publ_section_title
;
Structure prediction by ZEFSAII (Michael W. Deem and Ramdas Pophale) SiO2 
 PCOD9551117
Probable space group: P 43 21 2
;
_chemical_formula_sum "Si O2"
_cell_formula_units_Z 28
_cell_length_a 7.374357
_cell_length_b 7.374357
_cell_length_c 20.723374
_cell_angle_alpha 90.000000
_cell_angle_beta 90.000000
_cell_angle_gamma 90.000000
_cell_volume 1126.960727
_symmetry_space_group_name_H-M "P 43 21 2"
_symmetry_group_IT_number 96
_symmetry_cell_setting 'tetragonal'
loop_
_space_group_symop_operation_xyz
x,y,z
1/2-y,1/2+x,3/4+z
-x,-y,1/2+z
1/2+y,1/2-x,1/4+z
1/2+x,1/2-y,1/4-z
1/2-x,1/2+y,3/4-z
y,x,-z
-y,-x,1/2-z
loop_
_atom_site_type_symbol
_atom_site_label
_atom_site_fract_x
_atom_site_fract_y
_atom_site_fract_z
Si Si1 0.582382 0.944740 0.840528
Si Si2 0.867797 0.132204 0.750000
Si Si3 0.431283 0.306131 0.710549
Si Si4 0.724802 0.495857 0.457174
O O1 0.584636 0.741637 0.814784
O O2 0.368758 0.985771 0.850123
O O3 0.684436 0.075755 0.787486
O O4 0.705495 0.961010 0.903468
O O5 0.910267 0.973351 0.697140
O O6 0.562775 0.437226 0.750000
O O7 0.329385 0.145190 0.747901
O O8 0.673621 0.673621 0.500000
#
# Coordination Sequence:
#
# PCOD9551117 Si02
#       4
#     8   4   8   8
#     4  11  22  43  70  97 142 187 236 299 358 428
#     4   8  22  42  64 102 140 172 242 286 356 424
#     4  11  24  42  69 104 142 187 244 296 370 431
#     4   9  21  45  62  99 140 180 235 287 356 430
#
# _framework density 24.845587999999999
#
# number of rings (size 3 to 8) (size 9 to 14) (size 15 to 20)
#    0.857    1.143    0.000    2.571    6.000    0.000 
#   10.286    0.000    0.000    0.000    0.000    0.000 
#    0.000    0.000    0.000    0.000    0.000    0.000 
#
# Total GULP energy -156235.773660 kJ/mol
# GULP energy per Si atom -5579.849059 kJ/mol
# Density = 2.478904 g / cm^3
# Si number density = 24.845588 Si / 1000 Ang^3
#
#
#
# Elastic Constant Matrix: (Units=GPa)
#
#
# Indices 1 2 3 4 5 6 
#
# 1 120.4834 49.1376 16.9215 0.0000 0.0000 0.0000
# 2 49.1376 120.4826 16.9242 0.0000 0.0000 0.0000
# 3 16.9215 16.9242 53.0162 0.0000 0.0000 0.0000
# 4 0.0000 0.0000 0.0000 24.1209 0.0000 0.0000
# 5 0.0000 0.0000 0.0000 0.0000 24.1214 0.0000
# 6 0.0000 0.0000 0.0000 0.0000 0.0000 36.9673
#
#
#
# Elastic Compliance Matrix: (Units=1/GPa)
#
#
# Indices 1 2 3 4 5 6 
#
# 1 0.010156 -0.003860 -0.002009 0.000000 0.000000 0.000000
# 2 -0.003860 0.010157 -0.002010 0.000000 0.000000 0.000000
# 3 -0.002009 -0.002010 0.020145 0.000000 0.000000 0.000000
# 4 0.000000 0.000000 0.000000 0.041458 0.000000 0.000000
# 5 0.000000 0.000000 0.000000 0.000000 0.041457 0.000000
# 6 0.000000 0.000000 0.000000 0.000000 0.000000 0.027051
#
#
# Mechanical properties :
#
#
# Convention : Reuss Voigt Hill
#
# Bulk Modulus (GPa) = 40.48764 51.10543 45.79654
# Shear Modulus (GPa) = 28.66707 31.10851 29.88779
#
# Velocity S-wave (km/s) = 3.40046 3.54230 3.47211
# Velocity P-wave (km/s) = 5.63459 6.11101 5.87763
#
# Compressibility (1/GPa) = 0.02469889
#
# Stress axis : x y z
#
# Youngs Moduli (GPa) = 98.46076 98.45862 49.63944
#
# Poissons Ratio (x) = 0.38004 0.09975
# Poissons Ratio (y) = 0.38005 0.09979
# Poissons Ratio (z) = 0.19786 0.19793
#
# Static dielectric constant tensor:
#      x y z
#    x 2.101310 0.000000 0.000000 
#    y 0.000000 2.101300 0.000000 
#    z 0.000000 0.000000 2.042910 
# 
# From -- ./inp_files/2949.got.cif
#   From: 2010.05.17/outbox.cif.g08.bks.cpg/sg96_2_cif.got.tgz:2949.got - 2010.06.03 19:52:08.
