data_PCOD9551176
_publ_section_title
;
Structure prediction by ZEFSAII (Michael W. Deem and Ramdas Pophale) SiO2 
 PCOD9551176
Probable space group: P 43 21 2
;
_chemical_formula_sum "Si O2"
_cell_formula_units_Z 40
_cell_length_a 16.992080
_cell_length_b 16.992080
_cell_length_c 5.525885
_cell_angle_alpha 90.000000
_cell_angle_beta 90.000000
_cell_angle_gamma 90.000000
_cell_volume 1595.493101
_symmetry_space_group_name_H-M "P 43 21 2"
_symmetry_group_IT_number 96
_symmetry_cell_setting 'tetragonal'
loop_
_space_group_symop_operation_xyz
x,y,z
1/2-y,1/2+x,3/4+z
-x,-y,1/2+z
1/2+y,1/2-x,1/4+z
1/2+x,1/2-y,1/4-z
1/2-x,1/2+y,3/4-z
y,x,-z
-y,-x,1/2-z
loop_
_atom_site_type_symbol
_atom_site_label
_atom_site_fract_x
_atom_site_fract_y
_atom_site_fract_z
Si Si1 0.571051 0.744998 0.800095
Si Si2 0.770246 0.229755 0.250000
Si Si3 0.875370 0.875370 0.000000
Si Si4 0.585926 0.076347 0.752000
Si Si5 0.771711 0.406680 0.470588
Si Si6 0.593544 0.593544 0.000000
Si Si7 0.554875 0.445126 0.250000
O O1 0.484453 0.741931 0.675371
O O2 0.573795 0.684997 0.026369
O O3 0.538314 0.568662 0.776955
O O4 0.590588 0.832278 0.876766
O O5 0.771055 0.319086 0.356896
O O6 0.777561 0.149314 0.403174
O O7 0.895068 0.783245 0.959094
O O8 0.907089 0.911125 0.746357
O O9 0.512659 0.088222 0.582772
O O10 0.575869 0.138136 0.967351
#
# Coordination Sequence:
#
# PCOD9551176 Si02
#       7
#     8   4   4   8   8   4   4
#     4  12  27  47  81 115 167 221 281 358 435 510
#     4  12  27  51  75 126 160 224 288 355 420 538
#     4  12  27  49  81 122 156 229 269 346 407 522
#     4  12  26  48  75 113 155 215 288 357 425 502
#     4  12  26  48  81 114 168 224 277 360 435 505
#     4  12  28  50  76 125 163 225 269 352 414 526
#     4  12  28  50  80 117 171 212 282 329 411 516
#
# _framework density 25.070620999999999
#
# number of rings (size 3 to 8) (size 9 to 14) (size 15 to 20)
#    0.000    0.000    2.000    7.200    5.600    0.800 
#    0.000    0.000    0.000    0.000    0.000    0.000 
#    0.000    0.000    0.000    0.000    0.000    0.000 
#
# Total GULP energy -223846.259729 kJ/mol
# GULP energy per Si atom -5596.156493 kJ/mol
# Density = 2.501356 g / cm^3
# Si number density = 25.070621 Si / 1000 Ang^3
#
#
#
# Elastic Constant Matrix: (Units=GPa)
#
#
# Indices 1 2 3 4 5 6 
#
# 1 182.9992 6.2758 38.6133 0.0000 0.0000 0.0000
# 2 6.2758 183.0021 38.6138 0.0000 0.0000 0.0000
# 3 38.6133 38.6138 80.7931 0.0000 0.0000 0.0000
# 4 0.0000 0.0000 0.0000 71.7702 0.0000 0.0000
# 5 0.0000 0.0000 0.0000 0.0000 71.7713 0.0000
# 6 0.0000 0.0000 0.0000 0.0000 0.0000 47.2745
#
#
#
# Elastic Compliance Matrix: (Units=1/GPa)
#
#
# Indices 1 2 3 4 5 6 
#
# 1 0.006111 0.000452 -0.003137 0.000000 0.000000 0.000000
# 2 0.000452 0.006111 -0.003137 0.000000 0.000000 0.000000
# 3 -0.003137 -0.003137 0.015376 0.000000 0.000000 0.000000
# 4 0.000000 0.000000 0.000000 0.013933 0.000000 0.000000
# 5 0.000000 0.000000 0.000000 0.000000 0.013933 0.000000
# 6 0.000000 0.000000 0.000000 0.000000 0.000000 0.021153
#
#
# Mechanical properties :
#
#
# Convention : Reuss Voigt Hill
#
# Bulk Modulus (GPa) = 62.67662 68.20001 65.43832
# Shear Modulus (GPa) = 53.43179 62.38263 57.90721
#
# Velocity S-wave (km/s) = 4.62156 4.99367 4.81121
# Velocity P-wave (km/s) = 7.31660 7.77890 7.55129
#
# Compressibility (1/GPa) = 0.01595491
#
# Stress axis : x y z
#
# Youngs Moduli (GPa) = 163.64340 163.64582 65.03833
#
# Poissons Ratio (x) = -0.07401 0.20401
# Poissons Ratio (y) = -0.07401 0.20401
# Poissons Ratio (z) = 0.51330 0.51331
#
# Static dielectric constant tensor:
#      x y z
#    x 2.016760 0.000000 0.000000 
#    y 0.000000 2.016760 0.000000 
#    z 0.000000 0.000000 2.038300 
# 
# From -- ./inp_files/492.got.cif
#   From: 2010.05.17/outbox.cif.g08.bks.cpg/sg96_1_cif.got.tgz:492.got - 2010.06.03 19:52:08.
