data_PCOD9551814
_publ_section_title
;
Structure prediction by ZEFSAII (Michael W. Deem and Ramdas Pophale) SiO2 
 PCOD9551814
Probable space group: I 41 2 2
;
_chemical_formula_sum "Si O2"
_cell_formula_units_Z 80
_cell_length_a 11.900007
_cell_length_b 11.900007
_cell_length_c 29.299324
_cell_angle_alpha 90.000000
_cell_angle_beta 90.000000
_cell_angle_gamma 90.000000
_cell_volume 4149.082153
_symmetry_space_group_name_H-M "I 41 2 2"
_symmetry_group_IT_number 98
_symmetry_cell_setting 'tetragonal'
loop_
_space_group_symop_operation_xyz
x,y,z
-y,1/2+x,1/4+z
-x,-y,z
y,1/2-x,1/4+z
x,1/2-y,1/4-z
-x,1/2+y,1/4-z
y,x,-z
-y,-x,-z
1/2+x,1/2+y,1/2+z
1/2-y,x,3/4+z
1/2-x,1/2-y,1/2+z
1/2+y,-x,3/4+z
1/2+x,-y,3/4-z
1/2-x,y,3/4-z
1/2+y,1/2+x,1/2-z
1/2-y,1/2-x,1/2-z
loop_
_atom_site_type_symbol
_atom_site_label
_atom_site_fract_x
_atom_site_fract_y
_atom_site_fract_z
Si Si1 0.216968 0.435102 0.003363
Si Si2 0.116766 0.453509 0.300959
Si Si3 0.167840 0.832161 0.500000
Si Si4 0.500000 0.000000 0.941140
Si Si5 0.639994 0.210034 0.575389
Si Si6 0.226252 0.239430 0.676819
O O1 0.301180 0.536932 0.990566
O O2 0.102987 0.474943 0.025870
O O3 0.264217 0.355217 0.044072
O O4 0.180062 0.363276 0.959417
O O5 0.088909 0.411092 0.250000
O O6 0.200564 0.558176 0.301282
O O7 0.175808 0.346175 0.324127
O O8 0.000000 0.500000 0.320663
O O9 0.253310 0.808360 0.542272
O O10 0.605933 0.053714 0.915199
O O11 0.678931 0.250000 0.625000
O O12 0.188307 0.250000 0.625000
#
# Coordination Sequence:
#
# PCOD9551814 Si02
#       6
#    16  16   8   8  16  16
#     4  10  22  42  64  87 130 168 221 266 323 394
#     4  11  21  35  60  92 130 157 200 264 327 393
#     4  10  24  43  63  90 128 184 216 272 328 391
#     4  10  20  40  62  85 124 171 202 270 340 392
#     4  11  23  38  61  93 127 167 218 270 335 401
#     4  11  22  40  63  94 124 168 218 268 325 388
#
# _framework density 19.281372999999999
#
# number of rings (size 3 to 8) (size 9 to 14) (size 15 to 20)
#    0.000    1.400    4.000    1.800    1.400    5.600 
#    0.000    2.000    0.000    0.000    0.000    0.000 
#    0.000    0.000    0.000    0.000    0.000    0.000 
#
# Total GULP energy -222790.557635 kJ/mol
# GULP energy per Si atom -5569.763941 kJ/mol
# Density = 1.923749 g / cm^3
# Si number density = 19.281373 Si / 1000 Ang^3
#
#
#
# Elastic Constant Matrix: (Units=GPa)
#
#
# Indices 1 2 3 4 5 6 
#
# 1 84.0465 14.6904 18.6256 0.0000 0.0000 0.0000
# 2 14.6904 84.0467 18.6253 0.0000 0.0000 0.0000
# 3 18.6256 18.6253 114.9530 0.0000 0.0000 0.0000
# 4 0.0000 0.0000 0.0000 14.8098 0.0000 0.0000
# 5 0.0000 0.0000 0.0000 0.0000 14.8098 0.0000
# 6 0.0000 0.0000 0.0000 0.0000 0.0000 31.8523
#
#
#
# Elastic Compliance Matrix: (Units=1/GPa)
#
#
# Indices 1 2 3 4 5 6 
#
# 1 0.012603 -0.001815 -0.001748 0.000000 0.000000 0.000000
# 2 -0.001815 0.012603 -0.001748 0.000000 0.000000 0.000000
# 3 -0.001748 -0.001748 0.009266 0.000000 0.000000 0.000000
# 4 0.000000 0.000000 0.000000 0.067523 0.000000 0.000000
# 5 0.000000 0.000000 0.000000 0.000000 0.067523 0.000000
# 6 0.000000 0.000000 0.000000 0.000000 0.000000 0.031395
#
#
# Mechanical properties :
#
#
# Convention : Reuss Voigt Hill
#
# Bulk Modulus (GPa) = 41.93061 42.99208 42.46135
# Shear Modulus (GPa) = 22.78074 27.70138 25.24106
#
# Velocity S-wave (km/s) = 3.44101 3.79448 3.62206
# Velocity P-wave (km/s) = 6.13036 6.44539 6.28985
#
# Compressibility (1/GPa) = 0.02384892
#
# Stress axis : x y z
#
# Youngs Moduli (GPa) = 79.34711 79.34745 107.92608
#
# Poissons Ratio (x) = 0.14405 0.18864
# Poissons Ratio (y) = 0.14405 0.18863
# Poissons Ratio (z) = 0.13869 0.13868
#
# Static dielectric constant tensor:
#      x y z
#    x 1.609230 0.000000 0.000000 
#    y 0.000000 1.609230 0.000000 
#    z 0.000000 0.000000 1.761830 
# 
# From -- ./inp_files/11860.got.cif
#   From: 2010.05.17/outbox.cif.g08.bks.cpg/sg98_6_cif.got.tgz:11860.got - 2010.06.03 20:00:51.
