data_PCOD9551686
_publ_section_title
;
Structure prediction by ZEFSAII (Michael W. Deem and Ramdas Pophale) SiO2 
 PCOD9551686
Probable space group: I 41 2 2
;
_chemical_formula_sum "Si O2"
_cell_formula_units_Z 72
_cell_length_a 11.821018
_cell_length_b 11.821018
_cell_length_c 24.555999
_cell_angle_alpha 90.000000
_cell_angle_beta 90.000000
_cell_angle_gamma 90.000000
_cell_volume 3431.368533
_symmetry_space_group_name_H-M "I 41 2 2"
_symmetry_group_IT_number 98
_symmetry_cell_setting 'tetragonal'
loop_
_space_group_symop_operation_xyz
x,y,z
-y,1/2+x,1/4+z
-x,-y,z
y,1/2-x,1/4+z
x,1/2-y,1/4-z
-x,1/2+y,1/4-z
y,x,-z
-y,-x,-z
1/2+x,1/2+y,1/2+z
1/2-y,x,3/4+z
1/2-x,1/2-y,1/2+z
1/2+y,-x,3/4+z
1/2+x,-y,3/4-z
1/2-x,y,3/4-z
1/2+y,1/2+x,1/2-z
1/2-y,1/2-x,1/2-z
loop_
_atom_site_type_symbol
_atom_site_label
_atom_site_fract_x
_atom_site_fract_y
_atom_site_fract_z
Si Si1 0.578870 0.841324 0.416994
Si Si2 0.278588 0.721413 0.500000
Si Si3 0.338076 0.250000 0.625000
Si Si4 0.019751 0.298269 0.229313
Si Si5 0.000000 0.500000 0.671838
Si Si6 0.749686 0.455213 0.938588
O O1 0.646244 0.745202 0.384886
O O2 0.522266 0.783390 0.468478
O O3 0.501844 0.896131 0.370845
O O4 0.664453 0.938211 0.439863
O O5 0.302113 0.611732 0.461642
O O6 0.281941 0.846271 0.473716
O O7 0.411450 0.254474 0.679438
O O8 0.089030 0.410971 0.250000
O O9 0.995871 0.378931 0.701467
O O10 0.750000 0.422535 0.875000
#
# Coordination Sequence:
#
# PCOD9551686 Si02
#       6
#    16   8   8  16   8  16
#     4  10  19  41  64  92 127 164 208 260 316 373
#     4  12  25  41  58  96 136 164 212 261 327 370
#     4  10  20  40  64  92 114 168 220 254 304 378
#     4  10  23  40  68  88 126 170 217 263 304 376
#     4  10  18  37  66  94 130 162 203 248 340 374
#     4  10  22  39  64  92 131 168 199 266 322 384
#
# _framework density 20.982880000000002
#
# number of rings (size 3 to 8) (size 9 to 14) (size 15 to 20)
#    0.000    1.778    3.333    3.000    1.556    2.222 
#    4.000    0.000    9.778    0.000    0.000    0.000 
#    0.000    0.000    0.000    0.000    0.000    0.000 
#
# Total GULP energy -200630.762784 kJ/mol
# GULP energy per Si atom -5573.076744 kJ/mol
# Density = 2.093512 g / cm^3
# Si number density = 20.982880 Si / 1000 Ang^3
#
#
#
# Elastic Constant Matrix: (Units=GPa)
#
#
# Indices 1 2 3 4 5 6 
#
# 1 120.1372 40.4997 12.0395 0.0000 0.0000 0.0000
# 2 40.4997 120.1378 12.0403 0.0000 0.0000 0.0000
# 3 12.0395 12.0403 38.7771 0.0000 0.0000 0.0000
# 4 0.0000 0.0000 0.0000 16.8473 0.0000 0.0000
# 5 0.0000 0.0000 0.0000 0.0000 16.8470 0.0000
# 6 0.0000 0.0000 0.0000 0.0000 0.0000 22.6076
#
#
#
# Elastic Compliance Matrix: (Units=1/GPa)
#
#
# Indices 1 2 3 4 5 6 
#
# 1 0.009543 -0.003014 -0.002027 0.000000 0.000000 0.000000
# 2 -0.003014 0.009543 -0.002027 0.000000 0.000000 0.000000
# 3 -0.002027 -0.002027 0.027047 0.000000 0.000000 0.000000
# 4 0.000000 0.000000 0.000000 0.059357 0.000000 0.000000
# 5 0.000000 0.000000 0.000000 0.000000 0.059358 0.000000
# 6 0.000000 0.000000 0.000000 0.000000 0.000000 0.044233
#
#
# Mechanical properties :
#
#
# Convention : Reuss Voigt Hill
#
# Bulk Modulus (GPa) = 31.25333 45.35680 38.30506
# Shear Modulus (GPa) = 21.37822 25.55854 23.46838
#
# Velocity S-wave (km/s) = 3.19539 3.49387 3.34796
# Velocity P-wave (km/s) = 5.34238 6.15948 5.76542
#
# Compressibility (1/GPa) = 0.03199659
#
# Stress axis : x y z
#
# Youngs Moduli (GPa) = 104.78912 104.78927 36.97229
#
# Poissons Ratio (x) = 0.31582 0.07495
# Poissons Ratio (y) = 0.31582 0.07496
# Poissons Ratio (z) = 0.21242 0.21244
#
# Static dielectric constant tensor:
#      x y z
#    x 1.828020 0.000000 0.000000 
#    y 0.000000 1.828020 0.000000 
#    z 0.000000 0.000000 1.771620 
# 
# From -- ./inp_files/10858.got.cif
#   From: 2010.05.17/outbox.cif.g08.bks.cpg/sg98_6_cif.got.tgz:10858.got - 2010.06.03 20:00:51.
