data_PCOD9551493
_publ_section_title
;
Structure prediction by ZEFSAII (Michael W. Deem and Ramdas Pophale) SiO2 
 PCOD9551493
Probable space group: I 4 2 2 
;
_chemical_formula_sum "Si O2"
_cell_formula_units_Z 96
_cell_length_a 14.910944
_cell_length_b 14.910944
_cell_length_c 20.027659
_cell_angle_alpha 90.000000
_cell_angle_beta 90.000000
_cell_angle_gamma 90.000000
_cell_volume 4452.874618
_symmetry_space_group_name_H-M "I 4 2 2 "
_symmetry_group_IT_number 97
_symmetry_cell_setting 'tetragonal'
loop_
_space_group_symop_operation_xyz
x,y,z
-y,x,z
-x,-y,z
y,-x,z
x,-y,-z
-x,y,-z
y,x,-z
-y,-x,-z
1/2+x,1/2+y,1/2+z
1/2-y,1/2+x,1/2+z
1/2-x,1/2-y,1/2+z
1/2+y,1/2-x,1/2+z
1/2+x,1/2-y,1/2-z
1/2-x,1/2+y,1/2-z
1/2+y,1/2+x,1/2-z
1/2-y,1/2-x,1/2-z
loop_
_atom_site_type_symbol
_atom_site_label
_atom_site_fract_x
_atom_site_fract_y
_atom_site_fract_z
Si Si1 0.140656 0.207717 0.761652
Si Si2 0.769729 0.373320 0.519652
Si Si3 0.236683 0.532285 0.387776
Si Si4 0.225928 0.955151 0.315742
Si Si5 0.090329 0.779309 0.541114
Si Si6 0.065857 0.570526 0.828510
O O1 0.207038 0.292963 0.750000
O O2 0.098363 0.211183 0.836858
O O3 0.195620 0.119234 0.738914
O O4 0.053759 0.211959 0.713806
O O5 0.688973 0.311028 0.500000
O O6 0.805496 0.411732 0.449055
O O7 0.727366 0.448347 0.568593
O O8 0.847098 0.309592 0.548553
O O9 0.164533 0.479327 0.344266
O O10 0.179829 0.934197 0.386577
O O11 0.329660 0.946164 0.337340
O O12 0.150521 0.849480 0.500000
O O13 0.000000 0.758876 0.500000
O O14 0.059893 0.559893 0.750000
O O15 0.000000 0.500000 0.863649
#
# Coordination Sequence:
#
# PCOD9551493 Si02
#       6
#    16  16  16  16  16  16
#     4  12  29  45  79 109 156 199 249 319 386 456
#     4  10  25  43  71 101 144 190 246 309 373 455
#     4  11  24  43  68 106 142 192 242 304 376 446
#     4  12  26  48  74 112 151 199 255 309 383 461
#     4  11  25  45  71 102 145 196 250 310 379 456
#     4  11  22  40  66 105 149 188 235 312 376 438
#
# _framework density 21.559106
#
# number of rings (size 3 to 8) (size 9 to 14) (size 15 to 20)
#    0.000    0.833    3.333    2.500   11.667    0.500 
#    0.000    3.333    0.000    4.000    0.000    0.000 
#    0.000    0.000    0.000    0.000    0.000    0.000 
#
# Total GULP energy -267486.823312 kJ/mol
# GULP energy per Si atom -5572.642152 kJ/mol
# Density = 2.151004 g / cm^3
# Si number density = 21.559106 Si / 1000 Ang^3
#
#
#
# Elastic Constant Matrix: (Units=GPa)
#
#
# Indices 1 2 3 4 5 6 
#
# 1 106.3500 50.9365 29.4618 0.0000 0.0000 0.0000
# 2 50.9365 106.3513 29.4640 0.0000 0.0000 0.0000
# 3 29.4618 29.4640 107.3293 0.0000 0.0000 0.0000
# 4 0.0000 0.0000 0.0000 252.0440 0.0000 0.0000
# 5 0.0000 0.0000 0.0000 0.0000 252.6923 0.0000
# 6 0.0000 0.0000 0.0000 0.0000 0.0000 24.2471
#
#
#
# Elastic Compliance Matrix: (Units=1/GPa)
#
#
# Indices 1 2 3 4 5 6 
#
# 1 0.012566 -0.005480 -0.001945 0.000000 0.000000 0.000000
# 2 -0.005480 0.012566 -0.001946 0.000000 0.000000 0.000000
# 3 -0.001945 -0.001946 0.010385 0.000000 0.000000 0.000000
# 4 0.000000 0.000000 0.000000 0.003968 0.000000 0.000000
# 5 0.000000 0.000000 0.000000 0.000000 0.003957 0.000000
# 6 0.000000 0.000000 0.000000 0.000000 0.000000 0.041242
#
#
# Mechanical properties :
#
#
# Convention : Reuss Voigt Hill
#
# Bulk Modulus (GPa) = 59.60544 59.97279 59.78911
# Shear Modulus (GPa) = 45.86410 119.80791 82.83600
#
# Velocity S-wave (km/s) = 4.61734 7.46274 6.20533
# Velocity P-wave (km/s) = 7.49226 10.10618 8.89575
#
# Compressibility (1/GPa) = 0.01677699
#
# Stress axis : x y z
#
# Youngs Moduli (GPa) = 79.57813 79.57824 96.29136
#
# Poissons Ratio (x) = 0.43606 0.18730
# Poissons Ratio (y) = 0.43606 0.18734
# Poissons Ratio (z) = 0.15479 0.15482
#
# Static dielectric constant tensor:
#      x y z
#    x 0.505820 0.000000 0.000000 
#    y 0.000000 0.499510 0.000000 
#    z 0.000000 0.000000 1.000270 
# 
# From -- ./inp_files/6639.got.cif
#   From: 2010.05.17/outbox.cif.g08.bks.cpg/sg97_4_cif.got.tgz:6639.got - 2010.06.03 19:55:32.
