data_PCOD9551534
_publ_section_title
;
Structure prediction by ZEFSAII (Michael W. Deem and Ramdas Pophale) SiO2 
 PCOD9551534
Probable space group: I 4 2 2 
;
_chemical_formula_sum "Si O2"
_cell_formula_units_Z 60
_cell_length_a 11.880876
_cell_length_b 11.880876
_cell_length_c 19.467990
_cell_angle_alpha 90.000000
_cell_angle_beta 90.000000
_cell_angle_gamma 90.000000
_cell_volume 2748.008305
_symmetry_space_group_name_H-M "I 4 2 2 "
_symmetry_group_IT_number 97
_symmetry_cell_setting 'tetragonal'
loop_
_space_group_symop_operation_xyz
x,y,z
-y,x,z
-x,-y,z
y,-x,z
x,-y,-z
-x,y,-z
y,x,-z
-y,-x,-z
1/2+x,1/2+y,1/2+z
1/2-y,1/2+x,1/2+z
1/2-x,1/2-y,1/2+z
1/2+y,1/2-x,1/2+z
1/2+x,1/2-y,1/2-z
1/2-x,1/2+y,1/2-z
1/2+y,1/2+x,1/2-z
1/2-y,1/2-x,1/2-z
loop_
_atom_site_type_symbol
_atom_site_label
_atom_site_fract_x
_atom_site_fract_y
_atom_site_fract_z
Si Si1 0.908954 0.289388 0.866528
Si Si2 0.688699 0.500000 0.500000
Si Si3 0.497139 0.227179 0.082095
Si Si4 0.000000 0.000000 0.592036
Si Si5 0.291716 0.141973 0.175645
O O1 0.833088 0.397145 0.881542
O O2 0.829779 0.183447 0.850811
O O3 0.008201 0.304224 0.812032
O O4 0.982974 0.264537 0.933993
O O5 0.607757 0.607757 0.500000
O O6 0.507197 0.361290 0.088905
O O7 0.385815 0.185465 0.122020
O O8 0.500000 0.200470 0.000000
O O9 0.303206 0.196795 0.250000
#
# Coordination Sequence:
#
# PCOD9551534 Si02
#       5
#    16   8  16   4  16
#     4  12  26  47  77 112 151 202 251 322 396 466
#     4  11  22  42  75 112 152 189 246 319 382 460
#     4  12  26  47  77 114 151 198 264 328 394 462
#     4  12  25  44  80 112 152 208 256 333 394 461
#     4  12  30  49  74 109 156 207 262 320 394 478
#
# _framework density 21.833995999999999
#
# number of rings (size 3 to 8) (size 9 to 14) (size 15 to 20)
#    0.000    0.133    5.333    3.600    3.733    2.667 
#    0.000    0.000    0.000    0.000    0.000    0.000 
#    0.000    0.000    0.000    0.000    0.000    0.000 
#
# Total GULP energy -167252.990495 kJ/mol
# GULP energy per Si atom -5575.099683 kJ/mol
# Density = 2.178430 g / cm^3
# Si number density = 21.833996 Si / 1000 Ang^3
#
#
#
# Elastic Constant Matrix: (Units=GPa)
#
#
# Indices 1 2 3 4 5 6 
#
# 1 135.6399 32.3453 23.1087 0.0000 0.0000 0.0000
# 2 32.3453 135.6389 23.1088 0.0000 0.0000 0.0000
# 3 23.1087 23.1088 75.9207 0.0000 0.0000 0.0000
# 4 0.0000 0.0000 0.0000 15.3013 0.0000 0.0000
# 5 0.0000 0.0000 0.0000 0.0000 15.3013 0.0000
# 6 0.0000 0.0000 0.0000 0.0000 0.0000 176.5414
#
#
#
# Elastic Compliance Matrix: (Units=1/GPa)
#
#
# Indices 1 2 3 4 5 6 
#
# 1 0.008089 -0.001592 -0.001978 0.000000 0.000000 0.000000
# 2 -0.001592 0.008089 -0.001978 0.000000 0.000000 0.000000
# 3 -0.001978 -0.001978 0.014376 0.000000 0.000000 0.000000
# 4 0.000000 0.000000 0.000000 0.065354 0.000000 0.000000
# 5 0.000000 0.000000 0.000000 0.000000 0.065354 0.000000
# 6 0.000000 0.000000 0.000000 0.000000 0.000000 0.005664
#
#
# Mechanical properties :
#
#
# Convention : Reuss Voigt Hill
#
# Bulk Modulus (GPa) = 51.38935 56.03610 53.71272
# Shear Modulus (GPa) = 27.09931 59.33792 43.21862
#
# Velocity S-wave (km/s) = 3.52682 5.21880 4.45389
# Velocity P-wave (km/s) = 6.33815 7.87622 7.14867
#
# Compressibility (1/GPa) = 0.01945929
#
# Stress axis : x y z
#
# Youngs Moduli (GPa) = 123.62437 123.62335 69.56279
#
# Poissons Ratio (x) = 0.19681 0.13756
# Poissons Ratio (y) = 0.19682 0.13757
# Poissons Ratio (z) = 0.24447 0.24447
#
# Static dielectric constant tensor:
#      x y z
#    x 1.804940 0.000000 0.000000 
#    y 0.000000 1.804940 0.000000 
#    z 0.000000 0.000000 1.873720 
# 
# From -- ./inp_files/6372.got.cif
#   From: 2010.05.17/outbox.cif.g08.bks.cpg/sg97_4_cif.got.tgz:6372.got - 2010.06.03 19:55:32.
