data_PCOD9551259
_publ_section_title
;
Structure prediction by ZEFSAII (Michael W. Deem and Ramdas Pophale) SiO2 
 PCOD9551259
Probable space group: I 4 2 2 
;
_chemical_formula_sum "Si O2"
_cell_formula_units_Z 96
_cell_length_a 19.826871
_cell_length_b 19.826871
_cell_length_c 13.647544
_cell_angle_alpha 90.000000
_cell_angle_beta 90.000000
_cell_angle_gamma 90.000000
_cell_volume 5364.915241
_symmetry_space_group_name_H-M "I 4 2 2 "
_symmetry_group_IT_number 97
_symmetry_cell_setting 'tetragonal'
loop_
_space_group_symop_operation_xyz
x,y,z
-y,x,z
-x,-y,z
y,-x,z
x,-y,-z
-x,y,-z
y,x,-z
-y,-x,-z
1/2+x,1/2+y,1/2+z
1/2-y,1/2+x,1/2+z
1/2-x,1/2-y,1/2+z
1/2+y,1/2-x,1/2+z
1/2+x,1/2-y,1/2-z
1/2-x,1/2+y,1/2-z
1/2+y,1/2+x,1/2-z
1/2-y,1/2-x,1/2-z
loop_
_atom_site_type_symbol
_atom_site_label
_atom_site_fract_x
_atom_site_fract_y
_atom_site_fract_z
Si Si1 0.693369 0.089628 0.291769
Si Si2 0.073093 0.264508 0.969923
Si Si3 0.170516 0.285112 0.485853
Si Si4 0.254788 0.036708 0.400141
Si Si5 0.064678 0.178538 0.789961
Si Si6 0.678329 0.577802 0.350931
O O1 0.624893 0.124893 0.250000
O O2 0.720311 0.139929 0.376596
O O3 0.750069 0.083742 0.207084
O O4 0.693529 0.015873 0.345757
O O5 0.079942 0.196435 0.034809
O O6 0.138803 0.304760 0.999214
O O7 0.072723 0.245954 0.855948
O O8 0.000000 0.293935 0.000000
O O9 0.230315 0.230315 0.500000
O O10 0.109648 0.278194 0.563153
O O11 0.196876 0.051550 0.321892
O O12 0.232029 0.000000 0.500000
O O13 0.129319 0.134399 0.811530
O O14 0.995096 0.147355 0.828475
#
# Coordination Sequence:
#
# PCOD9551259 Si02
#       6
#    16  16  16  16  16  16
#     4  10  19  34  58  78 111 151 189 230 295 346
#     4  10  21  34  51  80 115 144 178 231 287 337
#     4  11  20  34  58  87 112 145 195 241 285 349
#     4   9  21  37  54  85 114 146 188 251 293 340
#     4  10  20  34  52  75 115 144 186 230 288 337
#     4  10  19  34  52  81 107 151 181 231 281 349
#
# _framework density 17.894037999999998
#
# number of rings (size 3 to 8) (size 9 to 14) (size 15 to 20)
#    0.000    2.000    1.667    2.500    0.000    1.000 
#    0.000    0.000    0.000    7.500    8.667    9.333 
#    0.000    0.000    0.000    0.000    0.000    0.000 
#
# Total GULP energy -267250.565267 kJ/mol
# GULP energy per Si atom -5567.720110 kJ/mol
# Density = 1.785331 g / cm^3
# Si number density = 17.894038 Si / 1000 Ang^3
#
#
#
# Elastic Constant Matrix: (Units=GPa)
#
#
# Indices 1 2 3 4 5 6 
#
# 1 80.0680 51.7323 19.7631 0.0000 0.0000 0.0000
# 2 51.7323 80.0680 19.7631 0.0000 0.0000 0.0000
# 3 19.7631 19.7631 81.0059 0.0000 0.0000 0.0000
# 4 0.0000 0.0000 0.0000 17.6972 0.0000 0.0000
# 5 0.0000 0.0000 0.0000 0.0000 17.6972 0.0000
# 6 0.0000 0.0000 0.0000 0.0000 0.0000 12.7039
#
#
#
# Elastic Compliance Matrix: (Units=1/GPa)
#
#
# Indices 1 2 3 4 5 6 
#
# 1 0.021739 -0.013552 -0.001997 0.000000 0.000000 0.000000
# 2 -0.013552 0.021739 -0.001997 0.000000 0.000000 0.000000
# 3 -0.001997 -0.001997 0.013319 0.000000 0.000000 0.000000
# 4 0.000000 0.000000 0.000000 0.056506 0.000000 0.000000
# 5 0.000000 0.000000 0.000000 0.000000 0.056506 0.000000
# 6 0.000000 0.000000 0.000000 0.000000 0.000000 0.078716
#
#
# Mechanical properties :
#
#
# Convention : Reuss Voigt Hill
#
# Bulk Modulus (GPa) = 46.07683 47.07323 46.57503
# Shear Modulus (GPa) = 17.19080 19.61188 18.40134
#
# Velocity S-wave (km/s) = 3.10288 3.31418 3.21027
# Velocity P-wave (km/s) = 6.21634 6.40381 6.31077
#
# Compressibility (1/GPa) = 0.02170288
#
# Stress axis : x y z
#
# Youngs Moduli (GPa) = 46.00100 46.00100 75.07904
#
# Poissons Ratio (x) = 0.62343 0.14995
# Poissons Ratio (y) = 0.62343 0.14995
# Poissons Ratio (z) = 0.09187 0.09187
#
# Static dielectric constant tensor:
#      x y z
#    x 1.630120 0.000000 0.000000 
#    y 0.000000 1.630120 0.000000 
#    z 0.000000 0.000000 1.661640 
# 
# From -- ./inp_files/3872.got.cif
#   From: 2010.05.17/outbox.cif.g08.bks.cpg/sg97_2_cif.got.tgz:3872.got - 2010.06.03 19:55:32.
