data_PCOD9551925
_publ_section_title
;
Structure prediction by ZEFSAII (Michael W. Deem and Ramdas Pophale) SiO2 
 PCOD9551925
Probable space group: I 41 2 2
;
_chemical_formula_sum "Si O2"
_cell_formula_units_Z 48
_cell_length_a 19.901380
_cell_length_b 19.901380
_cell_length_c 5.215455
_cell_angle_alpha 90.000000
_cell_angle_beta 90.000000
_cell_angle_gamma 90.000000
_cell_volume 2065.658798
_symmetry_space_group_name_H-M "I 41 2 2"
_symmetry_group_IT_number 98
_symmetry_cell_setting 'tetragonal'
loop_
_space_group_symop_operation_xyz
x,y,z
-y,1/2+x,1/4+z
-x,-y,z
y,1/2-x,1/4+z
x,1/2-y,1/4-z
-x,1/2+y,1/4-z
y,x,-z
-y,-x,-z
1/2+x,1/2+y,1/2+z
1/2-y,x,3/4+z
1/2-x,1/2-y,1/2+z
1/2+y,-x,3/4+z
1/2+x,-y,3/4-z
1/2-x,y,3/4-z
1/2+y,1/2+x,1/2-z
1/2-y,1/2-x,1/2-z
loop_
_atom_site_type_symbol
_atom_site_label
_atom_site_fract_x
_atom_site_fract_y
_atom_site_fract_z
Si Si1 0.617055 0.617055 0.500000
Si Si2 0.616306 0.250000 0.625000
Si Si3 0.490675 0.817265 0.000590
Si Si4 0.323066 0.323066 0.000000
Si Si5 0.637686 0.137686 0.250000
O O1 0.544166 0.635539 0.387184
O O2 0.663409 0.629640 0.247287
O O3 0.565389 0.210717 0.809793
O O4 0.654478 0.192159 0.469737
O O5 0.522818 0.750000 0.125000
O O6 0.441816 0.853266 0.202209
O O7 0.328849 0.250000 0.125000
#
# Coordination Sequence:
#
# PCOD9551925 Si02
#       5
#     8   8  16   8   8
#     4  12  27  44  75 112 149 204 249 302 381 449
#     4  10  22  44  76 104 140 200 236 314 378 450
#     4  10  24  44  75 104 148 198 246 308 379 446
#     4  12  27  44  70 109 151 196 261 317 363 432
#     4  10  22  46  77 104 146 192 248 310 383 454
#
# _framework density 23.237138000000002
#
# number of rings (size 3 to 8) (size 9 to 14) (size 15 to 20)
#    0.000    1.333    0.000    4.000   14.000    0.000 
#    0.000    5.000  132.000    0.000    0.000    0.000 
#    0.000    0.000    0.000    0.000    0.000    0.000 
#
# Total GULP energy -134059.196068 kJ/mol
# GULP energy per Si atom -5585.799836 kJ/mol
# Density = 2.318425 g / cm^3
# Si number density = 23.237138 Si / 1000 Ang^3
#
#
#
# Elastic Constant Matrix: (Units=GPa)
#
#
# Indices 1 2 3 4 5 6 
#
# 1 119.9309 84.1416 45.9166 0.0000 0.0000 0.0000
# 2 84.1416 119.9309 45.9166 0.0000 0.0000 0.0000
# 3 45.9166 45.9166 121.4766 0.0000 0.0000 0.0000
# 4 0.0000 0.0000 0.0000 46.3135 0.0000 0.0000
# 5 0.0000 0.0000 0.0000 0.0000 46.3135 0.0000
# 6 0.0000 0.0000 0.0000 0.0000 0.0000 28.9352
#
#
#
# Elastic Compliance Matrix: (Units=1/GPa)
#
#
# Indices 1 2 3 4 5 6 
#
# 1 0.016923 -0.011018 -0.002232 0.000000 0.000000 0.000000
# 2 -0.011018 0.016923 -0.002232 0.000000 0.000000 0.000000
# 3 -0.002232 -0.002232 0.009919 0.000000 0.000000 0.000000
# 4 0.000000 0.000000 0.000000 0.021592 0.000000 0.000000
# 5 0.000000 0.000000 0.000000 0.000000 0.021592 0.000000
# 6 0.000000 0.000000 0.000000 0.000000 0.000000 0.034560
#
#
# Mechanical properties :
#
#
# Convention : Reuss Voigt Hill
#
# Bulk Modulus (GPa) = 78.11902 79.25424 78.68663
# Shear Modulus (GPa) = 31.89992 36.67003 34.28497
#
# Velocity S-wave (km/s) = 3.70915 3.97681 3.84531
# Velocity P-wave (km/s) = 7.21352 7.43421 7.32470
#
# Compressibility (1/GPa) = 0.01280098
#
# Stress axis : x y z
#
# Youngs Moduli (GPa) = 59.09139 59.09139 100.81398
#
# Poissons Ratio (x) = 0.65109 0.22500
# Poissons Ratio (y) = 0.65109 0.22500
# Poissons Ratio (z) = 0.13188 0.13188
#
# Static dielectric constant tensor:
#      x y z
#    x 1.881850 0.000000 0.000000 
#    y 0.000000 1.881850 0.000000 
#    z 0.000000 0.000000 2.051270 
# 
# From -- ./inp_files/938.got.cif
#   From: 2010.05.17/outbox.cif.g08.bks.cpg/sg98_1_cif.got.tgz:938.got - 2010.06.03 20:00:51.
