data_PCOD9551579
_publ_section_title
;
Structure prediction by ZEFSAII (Michael W. Deem and Ramdas Pophale) SiO2 
 PCOD9551579
Probable space group: I 4 2 2 
;
_chemical_formula_sum "Si O2"
_cell_formula_units_Z 56
_cell_length_a 18.271812
_cell_length_b 18.271812
_cell_length_c 7.821917
_cell_angle_alpha 90.000000
_cell_angle_beta 90.000000
_cell_angle_gamma 90.000000
_cell_volume 2611.418278
_symmetry_space_group_name_H-M "I 4 2 2 "
_symmetry_group_IT_number 97
_symmetry_cell_setting 'tetragonal'
loop_
_space_group_symop_operation_xyz
x,y,z
-y,x,z
-x,-y,z
y,-x,z
x,-y,-z
-x,y,-z
y,x,-z
-y,-x,-z
1/2+x,1/2+y,1/2+z
1/2-y,1/2+x,1/2+z
1/2-x,1/2-y,1/2+z
1/2+y,1/2-x,1/2+z
1/2+x,1/2-y,1/2-z
1/2-x,1/2+y,1/2-z
1/2+y,1/2+x,1/2-z
1/2-y,1/2-x,1/2-z
loop_
_atom_site_type_symbol
_atom_site_label
_atom_site_fract_x
_atom_site_fract_y
_atom_site_fract_z
Si Si1 0.887902 0.171408 0.320913
Si Si2 0.329911 0.170090 0.250000
Si Si3 0.921543 0.645248 0.086096
Si Si4 0.040276 0.191430 0.177720
O O1 0.852990 0.147011 0.500000
O O2 0.848323 0.244394 0.255730
O O3 0.868031 0.102034 0.206131
O O4 0.974368 0.187266 0.314364
O O5 0.365129 0.140117 0.427014
O O6 0.904285 0.595715 0.250000
O O7 0.924026 0.727992 0.162251
O O8 0.000000 0.630987 0.000000
O O9 0.000000 0.180194 0.000000
#
# Coordination Sequence:
#
# PCOD9551579 Si02
#       4
#    16   8  16  16
#     4  12  26  43  75 108 149 195 250 307 378 452
#     4  12  26  46  77 116 146 205 256 320 384 456
#     4  11  25  49  76 107 156 197 256 322 386 457
#     4  11  24  47  71 107 154 191 246 307 379 459
#
# _framework density 21.444286000000002
#
# number of rings (size 3 to 8) (size 9 to 14) (size 15 to 20)
#    0.000    0.571    5.714    3.429    6.000    1.714 
#    0.000    5.000    0.000    0.000    0.000    0.000 
#    0.000    0.000    0.000    0.000    0.000    0.000 
#
# Total GULP energy -156532.310654 kJ/mol
# GULP energy per Si atom -5590.439666 kJ/mol
# Density = 2.139548 g / cm^3
# Si number density = 21.444286 Si / 1000 Ang^3
#
#
#
# Elastic Constant Matrix: (Units=GPa)
#
#
# Indices 1 2 3 4 5 6 
#
# 1 -14.2761 104.0486 2.5752 0.0000 0.0000 0.0000
# 2 104.0486 -14.2724 2.5677 0.0000 0.0000 0.0000
# 3 2.5752 2.5677 90.3347 0.0000 0.0000 0.0000
# 4 0.0000 0.0000 0.0000 22.2556 0.0000 0.0000
# 5 0.0000 0.0000 0.0000 0.0000 22.2567 0.0000
# 6 0.0000 0.0000 0.0000 0.0000 0.0000 22.3973
#
#
#
# Elastic Compliance Matrix: (Units=1/GPa)
#
#
# Indices 1 2 3 4 5 6 
#
# 1 0.001353 0.009804 -0.000317 0.000000 0.000000 0.000000
# 2 0.009804 0.001353 -0.000318 0.000000 0.000000 0.000000
# 3 -0.000317 -0.000318 0.011088 0.000000 0.000000 0.000000
# 4 0.000000 0.000000 0.000000 0.044933 0.000000 0.000000
# 5 0.000000 0.000000 0.000000 0.000000 0.044930 0.000000
# 6 0.000000 0.000000 0.000000 0.000000 0.000000 0.044648
#
#
# Mechanical properties :
#
#
# Convention : Reuss Voigt Hill
#
# Bulk Modulus (GPa) = 31.12154 31.12992 31.12573
# Shear Modulus (GPa) = 35.54234 10.22156 22.88195
#
# Velocity S-wave (km/s) = 4.07557 2.18562 3.27010
# Velocity P-wave (km/s) = 6.05733 4.57355 5.36697
#
# Compressibility (1/GPa) = 0.03213209
#
# Stress axis : x y z
#
# Youngs Moduli (GPa) = 739.26445 739.05474 90.18736
#
# Poissons Ratio (x) = -7.24594 0.02861
# Poissons Ratio (y) = -7.24800 0.02868
# Poissons Ratio (z) = 0.23453 0.23499
#
# Static dielectric constant tensor:
#      x y z
#    x 1.756720 0.000000 0.000000 
#    y 0.000000 1.756720 0.000000 
#    z 0.000000 0.000000 1.861940 
# 
# From -- ./inp_files/1861.got.cif
#   From: 2010.05.17/outbox.cif.g08.bks.cpg/sg97_1_cif.got.tgz:1861.got - 2010.06.03 19:55:32.
