data_PCOD9551749
_publ_section_title
;
Structure prediction by ZEFSAII (Michael W. Deem and Ramdas Pophale) SiO2 
 PCOD9551749
Probable space group: I 41 2 2
;
_chemical_formula_sum "Si O2"
_cell_formula_units_Z 56
_cell_length_a 17.351856
_cell_length_b 17.351856
_cell_length_c 7.586333
_cell_angle_alpha 90.000000
_cell_angle_beta 90.000000
_cell_angle_gamma 90.000000
_cell_volume 2284.145536
_symmetry_space_group_name_H-M "I 41 2 2"
_symmetry_group_IT_number 98
_symmetry_cell_setting 'tetragonal'
loop_
_space_group_symop_operation_xyz
x,y,z
-y,1/2+x,1/4+z
-x,-y,z
y,1/2-x,1/4+z
x,1/2-y,1/4-z
-x,1/2+y,1/4-z
y,x,-z
-y,-x,-z
1/2+x,1/2+y,1/2+z
1/2-y,x,3/4+z
1/2-x,1/2-y,1/2+z
1/2+y,-x,3/4+z
1/2+x,-y,3/4-z
1/2-x,y,3/4-z
1/2+y,1/2+x,1/2-z
1/2-y,1/2-x,1/2-z
loop_
_atom_site_type_symbol
_atom_site_label
_atom_site_fract_x
_atom_site_fract_y
_atom_site_fract_z
Si Si1 0.148228 0.250000 0.625000
Si Si2 0.077470 0.631416 0.446166
Si Si3 0.912217 0.597381 0.464038
Si Si4 0.532923 0.292916 0.811823
O O1 0.202082 0.297918 0.750000
O O2 0.104064 0.314227 0.514464
O O3 0.100062 0.600062 0.250000
O O4 0.054423 0.720950 0.435491
O O5 0.150969 0.606322 0.556662
O O6 0.001655 0.586422 0.509487
O O7 0.908106 0.591895 0.250000
O O8 0.851159 0.541181 0.562972
O O9 0.521988 0.250000 0.625000
#
# Coordination Sequence:
#
# PCOD9551749 Si02
#       4
#     8  16  16  16
#     4  12  28  40  62  94 142 176 218 276 348 412
#     4  10  20  36  65 101 125 169 231 289 329 413
#     4  12  22  40  67  98 131 173 229 283 344 412
#     4  10  20  33  64  99 126 163 233 283 328 393
#
# _framework density 24.516825000000001
#
# number of rings (size 3 to 8) (size 9 to 14) (size 15 to 20)
#    0.000    1.143    5.714    3.429    2.000    0.000 
#    0.000    0.000   22.000   10.286    0.000    0.000 
#    0.000    0.000    0.000    0.000    0.000    0.000 
#
# Total GULP energy -156503.117975 kJ/mol
# GULP energy per Si atom -5589.397071 kJ/mol
# Density = 2.446102 g / cm^3
# Si number density = 24.516825 Si / 1000 Ang^3
#
#
#
# Elastic Constant Matrix: (Units=GPa)
#
#
# Indices 1 2 3 4 5 6 
#
# 1 216.8455 99.9697 22.1927 0.0000 0.0000 0.0000
# 2 99.9697 216.8454 22.1934 0.0000 0.0000 0.0000
# 3 22.1927 22.1934 45.9227 0.0000 0.0000 0.0000
# 4 0.0000 0.0000 0.0000 18.4632 0.0000 0.0000
# 5 0.0000 0.0000 0.0000 0.0000 18.4619 0.0000
# 6 0.0000 0.0000 0.0000 0.0000 0.0000 61.6341
#
#
#
# Elastic Compliance Matrix: (Units=1/GPa)
#
#
# Indices 1 2 3 4 5 6 
#
# 1 0.005971 -0.002585 -0.001636 0.000000 0.000000 0.000000
# 2 -0.002585 0.005971 -0.001636 0.000000 0.000000 0.000000
# 3 -0.001636 -0.001636 0.023357 0.000000 0.000000 0.000000
# 4 0.000000 0.000000 0.000000 0.054162 0.000000 0.000000
# 5 0.000000 0.000000 0.000000 0.000000 0.054166 0.000000
# 6 0.000000 0.000000 0.000000 0.000000 0.000000 0.016225
#
#
# Mechanical properties :
#
#
# Convention : Reuss Voigt Hill
#
# Bulk Modulus (GPa) = 42.40213 85.36946 63.88580
# Shear Modulus (GPa) = 27.86642 42.06237 34.96440
#
# Velocity S-wave (km/s) = 3.37504 4.14654 3.78052
# Velocity P-wave (km/s) = 5.70268 7.60404 6.72094
#
# Compressibility (1/GPa) = 0.02358372
#
# Stress axis : x y z
#
# Youngs Moduli (GPa) = 167.48013 167.47950 42.81346
#
# Poissons Ratio (x) = 0.43297 0.07005
# Poissons Ratio (y) = 0.43297 0.07005
# Poissons Ratio (z) = 0.27402 0.27404
#
# Static dielectric constant tensor:
#      x y z
#    x 1.932280 0.000000 0.000000 
#    y 0.000000 1.932270 0.000000 
#    z 0.000000 0.000000 9.454250 
# 
# From -- ./inp_files/3029.got.cif
#   From: 2010.05.17/outbox.cif.g08.bks.cpg/sg98_2_cif.got.tgz:3029.got - 2010.06.03 20:00:51.
