data_PCOD9551972
_publ_section_title
;
Structure prediction by ZEFSAII (Michael W. Deem and Ramdas Pophale) SiO2 
 PCOD9551972
Probable space group: I 41 2 2
;
_chemical_formula_sum "Si O2"
_cell_formula_units_Z 48
_cell_length_a 8.198643
_cell_length_b 8.198643
_cell_length_c 30.790098
_cell_angle_alpha 90.000000
_cell_angle_beta 90.000000
_cell_angle_gamma 90.000000
_cell_volume 2069.641019
_symmetry_space_group_name_H-M "I 41 2 2"
_symmetry_group_IT_number 98
_symmetry_cell_setting 'tetragonal'
loop_
_space_group_symop_operation_xyz
x,y,z
-y,1/2+x,1/4+z
-x,-y,z
y,1/2-x,1/4+z
x,1/2-y,1/4-z
-x,1/2+y,1/4-z
y,x,-z
-y,-x,-z
1/2+x,1/2+y,1/2+z
1/2-y,x,3/4+z
1/2-x,1/2-y,1/2+z
1/2+y,-x,3/4+z
1/2+x,-y,3/4-z
1/2-x,y,3/4-z
1/2+y,1/2+x,1/2-z
1/2-y,1/2-x,1/2-z
loop_
_atom_site_type_symbol
_atom_site_label
_atom_site_fract_x
_atom_site_fract_y
_atom_site_fract_z
Si Si1 0.319938 0.014686 0.041704
Si Si2 0.646595 0.835363 0.557749
Si Si3 0.315629 0.786000 0.920301
O O1 0.229580 0.161704 0.065733
O O2 0.500000 0.000000 0.059746
O O3 0.243525 0.835489 0.046940
O O4 0.335075 0.080559 0.992219
O O5 0.480181 0.834718 0.584313
O O6 0.755582 0.998308 0.565251
O O7 0.250000 0.715211 0.875000
#
# Coordination Sequence:
#
# PCOD9551972 Si02
#       3
#    16  16  16
#     4  11  23  44  68  98 138 183 233 282 348 430
#     4  10  24  42  71 100 132 183 236 281 348 428
#     4  11  24  42  68 103 140 177 230 298 353 409
#
# _framework density 23.192430999999999
#
# number of rings (size 3 to 8) (size 9 to 14) (size 15 to 20)
#    0.000    1.333    3.333    2.000    9.333    4.000 
#    6.000    3.333    0.000    0.000    0.000    0.000 
#    0.000    0.000    0.000    0.000    0.000    0.000 
#
# Total GULP energy -133773.551485 kJ/mol
# GULP energy per Si atom -5573.897979 kJ/mol
# Density = 2.313964 g / cm^3
# Si number density = 23.192431 Si / 1000 Ang^3
#
#
#
# Elastic Constant Matrix: (Units=GPa)
#
#
# Indices 1 2 3 4 5 6 
#
# 1 86.7226 68.3607 3.3136 0.0000 0.0000 0.0000
# 2 68.3607 86.7226 3.3136 0.0000 0.0000 0.0000
# 3 3.3136 3.3136 74.9052 0.0000 0.0000 0.0000
# 4 0.0000 0.0000 0.0000 14.7071 0.0000 0.0000
# 5 0.0000 0.0000 0.0000 0.0000 14.7071 0.0000
# 6 0.0000 0.0000 0.0000 0.0000 0.0000 -2.7429
#
#
#
# Elastic Compliance Matrix: (Units=1/GPa)
#
#
# Indices 1 2 3 4 5 6 
#
# 1 0.030460 -0.024000 -0.000286 0.000000 0.000000 0.000000
# 2 -0.024000 0.030460 -0.000286 0.000000 0.000000 0.000000
# 3 -0.000286 -0.000286 0.013376 0.000000 0.000000 0.000000
# 4 0.000000 0.000000 0.000000 0.067994 0.000000 0.000000
# 5 0.000000 0.000000 0.000000 0.000000 0.067994 0.000000
# 6 0.000000 0.000000 0.000000 0.000000 0.000000 -0.364572
#
#
# Mechanical properties :
#
#
# Convention : Reuss Voigt Hill
#
# Bulk Modulus (GPa) = 39.75660 44.25847 42.00753
# Shear Modulus (GPa) = -51.67455 16.89174 -17.39141
#
# Velocity S-wave (km/s) = -4.72537 2.70169 -2.74135
# Velocity P-wave (km/s) = 3.54865 5.37185 2.85165
#
# Compressibility (1/GPa) = 0.02515306
#
# Stress axis : x y z
#
# Youngs Moduli (GPa) = 32.82943 32.82942 74.76356
#
# Poissons Ratio (x) = 0.78791 0.02137
# Poissons Ratio (y) = 0.78791 0.02137
# Poissons Ratio (z) = 0.00938 0.00938
#
# Static dielectric constant tensor:
#      x y z
#    x 1.961090 0.000000 0.000000 
#    y 0.000000 1.961090 0.000000 
#    z 0.000000 0.000000 2.037200 
# 
# From -- ./inp_files/11306.got.cif
#   From: 2010.05.17/outbox.cif.g08.bks.cpg/sg98_6_cif.got.tgz:11306.got - 2010.06.03 20:00:51.
