data_PCOD9551125
_publ_section_title
;
Structure prediction by ZEFSAII (Michael W. Deem and Ramdas Pophale) SiO2 
 PCOD9551125
Probable space group: P 43 21 2
;
_chemical_formula_sum "Si O2"
_cell_formula_units_Z 36
_cell_length_a 8.318462
_cell_length_b 8.318462
_cell_length_c 19.527684
_cell_angle_alpha 90.000000
_cell_angle_beta 90.000000
_cell_angle_gamma 90.000000
_cell_volume 1351.253440
_symmetry_space_group_name_H-M "P 43 21 2"
_symmetry_group_IT_number 96
_symmetry_cell_setting 'tetragonal'
loop_
_space_group_symop_operation_xyz
x,y,z
1/2-y,1/2+x,3/4+z
-x,-y,1/2+z
1/2+y,1/2-x,1/4+z
1/2+x,1/2-y,1/4-z
1/2-x,1/2+y,3/4-z
y,x,-z
-y,-x,1/2-z
loop_
_atom_site_type_symbol
_atom_site_label
_atom_site_fract_x
_atom_site_fract_y
_atom_site_fract_z
Si Si1 0.861476 0.295221 0.887531
Si Si2 0.307127 0.835844 0.690399
Si Si3 0.475476 0.554778 0.074795
Si Si4 0.677052 0.322949 0.750000
Si Si5 0.580052 0.078706 0.052233
O O1 0.916691 0.108204 0.884687
O O2 0.700165 0.346692 0.926765
O O3 0.805892 0.316234 0.810062
O O4 0.979352 0.435877 0.910756
O O5 0.299160 0.700841 0.750000
O O6 0.373620 0.801804 0.615014
O O7 0.380367 0.988824 0.731448
O O8 0.126314 0.892388 0.674238
O O9 0.553270 0.553270 0.000000
O O10 0.516155 0.249141 0.787290
#
# Coordination Sequence:
#
# PCOD9551125 Si02
#       5
#     8   8   8   4   8
#     4  12  21  41  74 108 145 197 255 315 393 466
#     4  11  27  48  72 109 161 208 260 331 397 473
#     4  11  23  41  69 107 147 193 252 318 382 468
#     4  12  22  42  74 114 142 200 268 318 396 480
#     4  12  25  47  79 109 159 209 264 337 401 485
#
# _framework density 26.641931
#
# number of rings (size 3 to 8) (size 9 to 14) (size 15 to 20)
#    0.000    0.444    7.778    0.000    0.000    3.556 
#    0.000    0.000    4.889    0.000    0.000    0.000 
#    0.000    0.000    0.000    0.000    0.000    0.000 
#
# Total GULP energy -200443.833006 kJ/mol
# GULP energy per Si atom -5567.884250 kJ/mol
# Density = 2.658129 g / cm^3
# Si number density = 26.641931 Si / 1000 Ang^3
#
#
#
# Elastic Constant Matrix: (Units=GPa)
#
#
# Indices 1 2 3 4 5 6 
#
# 1 73.3644 25.9715 35.7317 0.0000 0.0000 0.0000
# 2 25.9715 73.3647 35.7312 0.0000 0.0000 0.0000
# 3 35.7317 35.7312 118.0795 0.0000 0.0000 0.0000
# 4 0.0000 0.0000 0.0000 37.8434 0.0000 0.0000
# 5 0.0000 0.0000 0.0000 0.0000 37.8428 0.0000
# 6 0.0000 0.0000 0.0000 0.0000 0.0000 63.5356
#
#
#
# Elastic Compliance Matrix: (Units=1/GPa)
#
#
# Indices 1 2 3 4 5 6 
#
# 1 0.016984 -0.004116 -0.003894 0.000000 0.000000 0.000000
# 2 -0.004116 0.016984 -0.003894 0.000000 0.000000 0.000000
# 3 -0.003894 -0.003894 0.010826 0.000000 0.000000 0.000000
# 4 0.000000 0.000000 0.000000 0.026425 0.000000 0.000000
# 5 0.000000 0.000000 0.000000 0.000000 0.026425 0.000000
# 6 0.000000 0.000000 0.000000 0.000000 0.000000 0.015739
#
#
# Mechanical properties :
#
#
# Convention : Reuss Voigt Hill
#
# Bulk Modulus (GPa) = 47.65079 51.07526 49.36303
# Shear Modulus (GPa) = 34.67741 39.00264 36.84002
#
# Velocity S-wave (km/s) = 3.61170 3.83032 3.72261
# Velocity P-wave (km/s) = 5.94281 6.22691 6.08652
#
# Compressibility (1/GPa) = 0.02098601
#
# Stress axis : x y z
#
# Youngs Moduli (GPa) = 58.87810 58.87863 92.37416
#
# Poissons Ratio (x) = 0.24234 0.35971
# Poissons Ratio (y) = 0.24234 0.35970
# Poissons Ratio (z) = 0.22927 0.22927
#
# Static dielectric constant tensor:
#      x y z
#    x 2.204090 0.000000 0.000000 
#    y 0.000000 2.204090 0.000000 
#    z 0.000000 0.000000 2.156670 
# 
# From -- ./inp_files/3425.got.cif
#   From: 2010.05.17/outbox.cif.g08.bks.cpg/sg96_2_cif.got.tgz:3425.got - 2010.06.03 19:52:08.
