data_PCOD9551950
_publ_section_title
;
Structure prediction by ZEFSAII (Michael W. Deem and Ramdas Pophale) SiO2 
 PCOD9551950
Probable space group: I 41 2 2
;
_chemical_formula_sum "Si O2"
_cell_formula_units_Z 72
_cell_length_a 14.954244
_cell_length_b 14.954244
_cell_length_c 15.562982
_cell_angle_alpha 90.000000
_cell_angle_beta 90.000000
_cell_angle_gamma 90.000000
_cell_volume 3480.340539
_symmetry_space_group_name_H-M "I 41 2 2"
_symmetry_group_IT_number 98
_symmetry_cell_setting 'tetragonal'
loop_
_space_group_symop_operation_xyz
x,y,z
-y,1/2+x,1/4+z
-x,-y,z
y,1/2-x,1/4+z
x,1/2-y,1/4-z
-x,1/2+y,1/4-z
y,x,-z
-y,-x,-z
1/2+x,1/2+y,1/2+z
1/2-y,x,3/4+z
1/2-x,1/2-y,1/2+z
1/2+y,-x,3/4+z
1/2+x,-y,3/4-z
1/2-x,y,3/4-z
1/2+y,1/2+x,1/2-z
1/2-y,1/2-x,1/2-z
loop_
_atom_site_type_symbol
_atom_site_label
_atom_site_fract_x
_atom_site_fract_y
_atom_site_fract_z
Si Si1 0.500000 0.000000 0.888011
Si Si2 0.462145 0.157269 0.017183
Si Si3 0.258707 0.386920 0.271930
Si Si4 0.139122 0.503033 0.783590
Si Si5 0.559427 0.318553 0.549052
O O1 0.591332 0.010071 0.834277
O O2 0.498701 0.087190 0.948214
O O3 0.488189 0.259979 0.001918
O O4 0.496764 0.136462 0.112963
O O5 0.354988 0.143684 0.010749
O O6 0.250000 0.395408 0.375000
O O7 0.186494 0.313507 0.250000
O O8 0.231143 0.485657 0.240103
O O9 0.093524 0.593524 0.750000
O O10 0.077512 0.422489 0.750000
O O11 0.583204 0.250000 0.625000
O O12 0.645362 0.354639 0.500000
#
# Coordination Sequence:
#
# PCOD9551950 Si02
#       5
#     8  16  16  16  16
#     4  12  21  44  69  98 132 182 230 286 347 406
#     4  11  24  40  71  98 135 183 232 282 346 408
#     4  11  23  40  64 105 134 174 230 291 351 411
#     4  10  23  44  66 101 139 178 222 282 343 416
#     4  11  24  44  68  99 136 182 228 286 354 417
#
# _framework density 20.687631
#
# number of rings (size 3 to 8) (size 9 to 14) (size 15 to 20)
#    0.000    1.111    4.444    3.667    6.222    0.000 
#    4.000    1.111    0.000    1.333    0.000    0.000 
#    0.000    0.000    0.000    0.000    0.000    0.000 
#
# Total GULP energy -201241.134884 kJ/mol
# GULP energy per Si atom -5590.031525 kJ/mol
# Density = 2.064054 g / cm^3
# Si number density = 20.687631 Si / 1000 Ang^3
#
#
#
# Elastic Constant Matrix: (Units=GPa)
#
#
# Indices 1 2 3 4 5 6 
#
# 1 138.4048 78.6428 42.6230 0.0000 0.0000 0.0000
# 2 78.6428 138.4085 42.6214 0.0000 0.0000 0.0000
# 3 42.6230 42.6214 61.0251 0.0000 0.0000 0.0000
# 4 0.0000 0.0000 0.0000 14.4923 0.0000 0.0000
# 5 0.0000 0.0000 0.0000 0.0000 14.4910 0.0000
# 6 0.0000 0.0000 0.0000 0.0000 0.0000 40.0041
#
#
#
# Elastic Compliance Matrix: (Units=1/GPa)
#
#
# Indices 1 2 3 4 5 6 
#
# 1 0.011541 -0.005192 -0.004435 0.000000 0.000000 0.000000
# 2 -0.005192 0.011540 -0.004434 0.000000 0.000000 0.000000
# 3 -0.004435 -0.004434 0.022581 0.000000 0.000000 0.000000
# 4 0.000000 0.000000 0.000000 0.069002 0.000000 0.000000
# 5 0.000000 0.000000 0.000000 0.000000 0.069008 0.000000
# 6 0.000000 0.000000 0.000000 0.000000 0.000000 0.024997
#
#
# Mechanical properties :
#
#
# Convention : Reuss Voigt Hill
#
# Bulk Modulus (GPa) = 57.00794 73.95698 65.48246
# Shear Modulus (GPa) = 20.60685 25.39421 23.00053
#
# Velocity S-wave (km/s) = 3.15952 3.50738 3.33799
# Velocity P-wave (km/s) = 6.39738 7.22698 6.82480
#
# Compressibility (1/GPa) = 0.01754142
#
# Stress axis : x y z
#
# Youngs Moduli (GPa) = 86.64787 86.65270 44.28554
#
# Poissons Ratio (x) = 0.44989 0.19639
# Poissons Ratio (y) = 0.44987 0.19635
# Poissons Ratio (z) = 0.38425 0.38420
#
# Static dielectric constant tensor:
#      x y z
#    x 1.755100 0.000000 0.000000 
#    y 0.000000 1.755100 0.000000 
#    z 0.000000 0.000000 1.797220 
# 
# From -- ./inp_files/7520.got.cif
#   From: 2010.05.17/outbox.cif.g08.bks.cpg/sg98_4_cif.got.tgz:7520.got - 2010.06.03 20:00:51.
