data_PCOD9551536
_publ_section_title
;
Structure prediction by ZEFSAII (Michael W. Deem and Ramdas Pophale) SiO2 
 PCOD9551536
Probable space group: I 4 2 2 
;
_chemical_formula_sum "Si O2"
_cell_formula_units_Z 56
_cell_length_a 17.605998
_cell_length_b 17.605998
_cell_length_c 8.449020
_cell_angle_alpha 90.000000
_cell_angle_beta 90.000000
_cell_angle_gamma 90.000000
_cell_volume 2618.952577
_symmetry_space_group_name_H-M "I 4 2 2 "
_symmetry_group_IT_number 97
_symmetry_cell_setting 'tetragonal'
loop_
_space_group_symop_operation_xyz
x,y,z
-y,x,z
-x,-y,z
y,-x,z
x,-y,-z
-x,y,-z
y,x,-z
-y,-x,-z
1/2+x,1/2+y,1/2+z
1/2-y,1/2+x,1/2+z
1/2-x,1/2-y,1/2+z
1/2+y,1/2-x,1/2+z
1/2+x,1/2-y,1/2-z
1/2-x,1/2+y,1/2-z
1/2+y,1/2+x,1/2-z
1/2-y,1/2-x,1/2-z
loop_
_atom_site_type_symbol
_atom_site_label
_atom_site_fract_x
_atom_site_fract_y
_atom_site_fract_z
Si Si1 0.371902 0.507304 0.672773
Si Si2 0.285850 0.167113 0.427190
Si Si3 0.083804 0.583489 0.564035
Si Si4 0.500000 0.283131 0.000000
O O1 0.423016 0.431226 0.675600
O O2 0.331644 0.500000 0.500000
O O3 0.326285 0.516363 0.834662
O O4 0.227773 0.227773 0.500000
O O5 0.307199 0.192802 0.250000
O O6 0.365070 0.155083 0.517435
O O7 0.253526 0.081608 0.451594
O O8 0.095821 0.500000 0.500000
O O9 0.078972 0.578972 0.750000
O O10 0.000000 0.608443 0.500000
#
# Coordination Sequence:
#
# PCOD9551536 Si02
#       4
#    16  16  16   8
#     4   9  18  36  65 105 143 182 244 306 361 449
#     4  12  27  50  71 110 155 191 251 323 395 467
#     4  11  22  43  76 108 142 191 252 315 378 457
#     4  12  24  45  73  98 142 208 248 298 392 469
#
# _framework density 21.382594999999998
#
# number of rings (size 3 to 8) (size 9 to 14) (size 15 to 20)
#    0.000    1.143    1.429    7.714    0.000    1.143 
#   15.429    0.000    0.000    0.000    0.000    0.000 
#    0.000    0.571    0.000    0.000    0.000    0.000 
#
# Total GULP energy -156091.233147 kJ/mol
# GULP energy per Si atom -5574.686898 kJ/mol
# Density = 2.133393 g / cm^3
# Si number density = 21.382595 Si / 1000 Ang^3
#
#
#
# Elastic Constant Matrix: (Units=GPa)
#
#
# Indices 1 2 3 4 5 6 
#
# 1 101.3962 88.2959 79.0039 0.0000 0.0000 0.0000
# 2 88.2959 101.3957 79.0037 0.0000 0.0000 0.0000
# 3 79.0039 79.0037 247.9446 0.0000 0.0000 0.0000
# 4 0.0000 0.0000 0.0000 25.8791 0.0000 0.0000
# 5 0.0000 0.0000 0.0000 0.0000 25.8788 0.0000
# 6 0.0000 0.0000 0.0000 0.0000 0.0000 -3.9690
#
#
#
# Elastic Compliance Matrix: (Units=1/GPa)
#
#
# Indices 1 2 3 4 5 6 
#
# 1 0.041756 -0.034580 -0.002287 0.000000 0.000000 0.000000
# 2 -0.034580 0.041756 -0.002287 0.000000 0.000000 0.000000
# 3 -0.002287 -0.002287 0.005490 0.000000 0.000000 0.000000
# 4 0.000000 0.000000 0.000000 0.038641 0.000000 0.000000
# 5 0.000000 0.000000 0.000000 0.000000 0.038642 0.000000
# 6 0.000000 0.000000 0.000000 0.000000 0.000000 -0.251956
#
#
# Mechanical properties :
#
#
# Convention : Reuss Voigt Hill
#
# Bulk Modulus (GPa) = 93.48773 104.81596 99.15184
# Shear Modulus (GPa) = -1316.05333 23.18665 -646.43334
#
# Velocity S-wave (km/s) = -24.83576 3.29655 -17.40614
# Velocity P-wave (km/s) = 27.90347 7.97592 18.90751
#
# Compressibility (1/GPa) = 0.01069659
#
# Stress axis : x y z
#
# Youngs Moduli (GPa) = 23.94875 23.94864 182.13684
#
# Poissons Ratio (x) = 0.82813 0.41648
# Poissons Ratio (y) = 0.82814 0.41649
# Poissons Ratio (z) = 0.05476 0.05476
#
# Static dielectric constant tensor:
#      x y z
#    x 1.830130 0.000000 0.000000 
#    y 0.000000 1.830130 0.000000 
#    z 0.000000 0.000000 1.740920 
# 
# From -- ./inp_files/1804.got.cif
#   From: 2010.05.17/outbox.cif.g08.bks.cpg/sg97_1_cif.got.tgz:1804.got - 2010.06.03 19:55:32.
