data_PCOD9551319
_publ_section_title
;
Structure prediction by ZEFSAII (Michael W. Deem and Ramdas Pophale) SiO2 
 PCOD9551319
Probable space group: I 4 2 2 
;
_chemical_formula_sum "Si O2"
_cell_formula_units_Z 96
_cell_length_a 25.127779
_cell_length_b 25.127779
_cell_length_c 7.871590
_cell_angle_alpha 90.000000
_cell_angle_beta 90.000000
_cell_angle_gamma 90.000000
_cell_volume 4970.163468
_symmetry_space_group_name_H-M "I 4 2 2 "
_symmetry_group_IT_number 97
_symmetry_cell_setting 'tetragonal'
loop_
_space_group_symop_operation_xyz
x,y,z
-y,x,z
-x,-y,z
y,-x,z
x,-y,-z
-x,y,-z
y,x,-z
-y,-x,-z
1/2+x,1/2+y,1/2+z
1/2-y,1/2+x,1/2+z
1/2-x,1/2-y,1/2+z
1/2+y,1/2-x,1/2+z
1/2+x,1/2-y,1/2-z
1/2-x,1/2+y,1/2-z
1/2+y,1/2+x,1/2-z
1/2-y,1/2-x,1/2-z
loop_
_atom_site_type_symbol
_atom_site_label
_atom_site_fract_x
_atom_site_fract_y
_atom_site_fract_z
Si Si1 0.153658 0.355047 0.059981
Si Si2 0.195618 0.766037 0.667163
Si Si3 0.938761 0.149232 0.551234
Si Si4 0.605548 0.678352 0.602827
Si Si5 0.218753 0.439734 0.455225
Si Si6 0.229303 0.560563 0.956460
O O1 0.131781 0.368220 0.250000
O O2 0.105923 0.321419 0.981641
O O3 0.180245 0.405486 0.970743
O O4 0.207913 0.321988 0.096640
O O5 0.198957 0.801044 0.500000
O O6 0.252872 0.752872 0.750000
O O7 0.155027 0.791454 0.801294
O O8 0.896027 0.103974 0.500000
O O9 0.933593 0.156225 0.753883
O O10 0.924841 0.210129 0.489717
O O11 0.000000 0.138033 0.500000
O O12 0.630930 0.630930 0.500000
O O13 0.576213 0.721918 0.486706
O O14 0.204797 0.500000 0.500000
O O15 0.224431 0.434747 0.249185
O O16 0.222299 0.500000 0.000000
#
# Coordination Sequence:
#
# PCOD9551319 Si02
#       6
#    16  16  16  16  16  16
#     4   9  16  33  54  74 110 150 188 224 293 357
#     4  11  19  33  54  82 122 156 191 234 302 379
#     4  10  21  38  60  83 112 155 204 246 305 364
#     4  11  22  35  56  88 120 155 196 248 313 372
#     4  10  20  36  53  76 114 155 186 234 291 355
#     4   9  18  34  56  80 105 141 187 241 298 354
#
# _framework density 19.315261
#
# number of rings (size 3 to 8) (size 9 to 14) (size 15 to 20)
#    0.000    2.000    6.667    1.000    0.000    4.167 
#    0.000    0.833    0.000    0.500    0.000    4.667 
#    0.000    0.000    0.000    0.000    0.000    0.000 
#
# Total GULP energy -267218.624099 kJ/mol
# GULP energy per Si atom -5567.054669 kJ/mol
# Density = 1.927130 g / cm^3
# Si number density = 19.315261 Si / 1000 Ang^3
#
#
#
# Elastic Constant Matrix: (Units=GPa)
#
#
# Indices 1 2 3 4 5 6 
#
# 1 127.0913 75.7609 17.4727 0.0000 0.0000 0.0000
# 2 75.7609 127.0914 17.4723 0.0000 0.0000 0.0000
# 3 17.4727 17.4723 26.5476 0.0000 0.0000 0.0000
# 4 0.0000 0.0000 0.0000 21.7562 0.0000 0.0000
# 5 0.0000 0.0000 0.0000 0.0000 21.7567 0.0000
# 6 0.0000 0.0000 0.0000 0.0000 0.0000 28.4012
#
#
#
# Elastic Compliance Matrix: (Units=1/GPa)
#
#
# Indices 1 2 3 4 5 6 
#
# 1 0.012521 -0.006961 -0.003660 0.000000 0.000000 0.000000
# 2 -0.006961 0.012521 -0.003659 0.000000 0.000000 0.000000
# 3 -0.003660 -0.003659 0.042485 0.000000 0.000000 0.000000
# 4 0.000000 0.000000 0.000000 0.045964 0.000000 0.000000
# 5 0.000000 0.000000 0.000000 0.000000 0.045963 0.000000
# 6 0.000000 0.000000 0.000000 0.000000 0.000000 0.035210
#
#
# Mechanical properties :
#
#
# Convention : Reuss Voigt Hill
#
# Bulk Modulus (GPa) = 25.66232 55.79360 40.72796
# Shear Modulus (GPa) = 21.16744 25.71777 23.44260
#
# Velocity S-wave (km/s) = 3.31402 3.65290 3.48757
# Velocity P-wave (km/s) = 5.28758 6.83667 6.11140
#
# Compressibility (1/GPa) = 0.03896764
#
# Stress axis : x y z
#
# Youngs Moduli (GPa) = 79.86650 79.86692 23.53764
#
# Poissons Ratio (x) = 0.55593 0.08614
# Poissons Ratio (y) = 0.55593 0.08613
# Poissons Ratio (z) = 0.29228 0.29225
#
# Static dielectric constant tensor:
#      x y z
#    x 1.734750 0.000000 0.000000 
#    y 0.000000 1.734750 0.000000 
#    z 0.000000 0.000000 1.744310 
# 
# From -- ./inp_files/2462.got.cif
#   From: 2010.05.17/outbox.cif.g08.bks.cpg/sg97_2_cif.got.tgz:2462.got - 2010.06.03 19:55:32.
