data_PCOD9551256
_publ_section_title
;
Structure prediction by ZEFSAII (Michael W. Deem and Ramdas Pophale) SiO2 
 PCOD9551256
Probable space group: I 4 2 2 
;
_chemical_formula_sum "Si O2"
_cell_formula_units_Z 64
_cell_length_a 18.741041
_cell_length_b 18.741041
_cell_length_c 9.953096
_cell_angle_alpha 90.000000
_cell_angle_beta 90.000000
_cell_angle_gamma 90.000000
_cell_volume 3495.792244
_symmetry_space_group_name_H-M "I 4 2 2 "
_symmetry_group_IT_number 97
_symmetry_cell_setting 'tetragonal'
loop_
_space_group_symop_operation_xyz
x,y,z
-y,x,z
-x,-y,z
y,-x,z
x,-y,-z
-x,y,-z
y,x,-z
-y,-x,-z
1/2+x,1/2+y,1/2+z
1/2-y,1/2+x,1/2+z
1/2-x,1/2-y,1/2+z
1/2+y,1/2-x,1/2+z
1/2+x,1/2-y,1/2-z
1/2-x,1/2+y,1/2-z
1/2+y,1/2+x,1/2-z
1/2-y,1/2-x,1/2-z
loop_
_atom_site_type_symbol
_atom_site_label
_atom_site_fract_x
_atom_site_fract_y
_atom_site_fract_z
Si Si1 0.269199 0.156145 0.469565
Si Si2 0.078938 0.707439 0.975870
Si Si3 0.410236 0.307891 0.273368
Si Si4 0.798361 0.073017 0.285258
O O1 0.233685 0.233685 0.500000
O O2 0.353234 0.158744 0.493150
O O3 0.248188 0.131842 0.320861
O O4 0.229678 0.103321 0.573601
O O5 0.084174 0.736536 0.825127
O O6 0.915871 0.774659 0.921560
O O7 0.000000 0.675804 0.000000
O O8 0.365503 0.380044 0.261871
O O9 0.489712 0.316194 0.215874
#
# Coordination Sequence:
#
# PCOD9551256 Si02
#       4
#    16  16  16  16
#     4  10  19  33  53  74  99 133 171 210 248 288
#     4  10  20  33  51  76 102 128 165 210 253 297
#     4  10  20  33  51  76 104 134 167 203 246 297
#     4  10  20  33  51  76 104 134 167 203 246 297
#
# _framework density 18.307724
#
# number of rings (size 3 to 8) (size 9 to 14) (size 15 to 20)
#    0.000    2.000    0.000    4.500    0.000    4.500 
#    0.000    0.000    0.000   12.000    0.000   14.000 
#    0.000    0.000    0.000    0.000    0.000    0.000 
#
# Total GULP energy -178666.641249 kJ/mol
# GULP energy per Si atom -5583.332539 kJ/mol
# Density = 1.826605 g / cm^3
# Si number density = 18.307724 Si / 1000 Ang^3
#
#
#
# Elastic Constant Matrix: (Units=GPa)
#
#
# Indices 1 2 3 4 5 6 
#
# 1 53.8867 -5.2052 -14.5761 0.0000 0.0000 0.0000
# 2 -5.2052 53.8867 -14.5761 0.0000 0.0000 0.0000
# 3 -14.5761 -14.5761 50.0923 0.0000 0.0000 0.0000
# 4 0.0000 0.0000 0.0000 14.6077 0.0000 0.0000
# 5 0.0000 0.0000 0.0000 0.0000 14.6077 0.0000
# 6 0.0000 0.0000 0.0000 0.0000 0.0000 14.4709
#
#
#
# Elastic Compliance Matrix: (Units=1/GPa)
#
#
# Indices 1 2 3 4 5 6 
#
# 1 0.020900 0.003977 0.007239 0.000000 0.000000 0.000000
# 2 0.003977 0.020900 0.007239 0.000000 0.000000 0.000000
# 3 0.007239 0.007239 0.024176 0.000000 0.000000 0.000000
# 4 0.000000 0.000000 0.000000 0.068457 0.000000 0.000000
# 5 0.000000 0.000000 0.000000 0.000000 0.068457 0.000000
# 6 0.000000 0.000000 0.000000 0.000000 0.000000 0.069104
#
#
# Mechanical properties :
#
#
# Convention : Reuss Voigt Hill
#
# Bulk Modulus (GPa) = 9.71977 9.90569 9.81273
# Shear Modulus (GPa) = 18.56114 21.55211 20.05662
#
# Velocity S-wave (km/s) = 3.18754 3.43478 3.31347
# Velocity P-wave (km/s) = 4.34372 4.59920 4.47328
#
# Compressibility (1/GPa) = 0.10288310
#
# Stress axis : x y z
#
# Youngs Moduli (GPa) = 47.84783 47.84783 41.36370
#
# Poissons Ratio (x) = -0.19028 -0.29942
# Poissons Ratio (y) = -0.19028 -0.29942
# Poissons Ratio (z) = -0.34635 -0.34635
#
# Static dielectric constant tensor:
#      x y z
#    x 1.616140 0.000000 0.000000 
#    y 0.000000 1.616140 0.000000 
#    z 0.000000 0.000000 1.625150 
# 
# From -- ./inp_files/3440.got.cif
#   From: 2010.05.17/outbox.cif.g08.bks.cpg/sg97_2_cif.got.tgz:3440.got - 2010.06.03 19:55:32.
