data_PCOD9551570
_publ_section_title
;
Structure prediction by ZEFSAII (Michael W. Deem and Ramdas Pophale) SiO2 
 PCOD9551570
Probable space group: I 4 2 2 
;
_chemical_formula_sum "Si O2"
_cell_formula_units_Z 72
_cell_length_a 22.289344
_cell_length_b 22.289344
_cell_length_c 7.679399
_cell_angle_alpha 90.000000
_cell_angle_beta 90.000000
_cell_angle_gamma 90.000000
_cell_volume 3815.239508
_symmetry_space_group_name_H-M "I 4 2 2 "
_symmetry_group_IT_number 97
_symmetry_cell_setting 'tetragonal'
loop_
_space_group_symop_operation_xyz
x,y,z
-y,x,z
-x,-y,z
y,-x,z
x,-y,-z
-x,y,-z
y,x,-z
-y,-x,-z
1/2+x,1/2+y,1/2+z
1/2-y,1/2+x,1/2+z
1/2-x,1/2-y,1/2+z
1/2+y,1/2-x,1/2+z
1/2+x,1/2-y,1/2-z
1/2-x,1/2+y,1/2-z
1/2+y,1/2+x,1/2-z
1/2-y,1/2-x,1/2-z
loop_
_atom_site_type_symbol
_atom_site_label
_atom_site_fract_x
_atom_site_fract_y
_atom_site_fract_z
Si Si1 0.933797 0.258037 0.547089
Si Si2 0.755424 0.175986 0.850945
Si Si3 0.697078 0.068653 0.059016
Si Si4 0.170606 0.170606 0.500000
Si Si5 0.609522 0.069056 0.563366
O O1 0.926198 0.281719 0.742684
O O2 0.894241 0.199674 0.518728
O O3 0.922927 0.318145 0.432239
O O4 0.000000 0.239823 0.500000
O O5 0.696262 0.196262 0.750000
O O6 0.802434 0.183750 0.693426
O O7 0.778026 0.221975 0.000000
O O8 0.738462 0.113495 0.943543
O O9 0.626372 0.085727 0.045908
O O10 0.703869 0.000000 0.000000
O O11 0.579012 0.079012 0.750000
O O12 0.598968 0.000000 0.500000
#
# Coordination Sequence:
#
# PCOD9551570 Si02
#       5
#    16  16  16   8  16
#     4  11  24  42  64  93 130 169 211 274 326 383
#     4  12  24  40  63  95 129 168 215 271 328 384
#     4  12  24  43  65  94 130 170 220 268 322 381
#     4  12  22  40  66  93 128 166 216 258 327 402
#     4  11  24  44  62  88 124 171 221 272 326 377
#
# _framework density 18.871686
#
# number of rings (size 3 to 8) (size 9 to 14) (size 15 to 20)
#    0.000    0.444    3.333    8.000    0.000    0.444 
#    0.000    5.556    0.000    0.333    0.000    0.000 
#    0.000    0.444    0.000    0.000    0.000    0.000 
#
# Total GULP energy -200661.574603 kJ/mol
# GULP energy per Si atom -5573.932628 kJ/mol
# Density = 1.882873 g / cm^3
# Si number density = 18.871686 Si / 1000 Ang^3
#
#
#
# Elastic Constant Matrix: (Units=GPa)
#
#
# Indices 1 2 3 4 5 6 
#
# 1 128.3066 84.7927 57.4158 0.0000 0.0000 0.0000
# 2 84.7927 128.2981 57.4143 0.0000 0.0000 0.0000
# 3 57.4158 57.4143 131.7283 0.0000 0.0000 0.0000
# 4 0.0000 0.0000 0.0000 33.2349 0.0000 0.0000
# 5 0.0000 0.0000 0.0000 0.0000 33.2353 0.0000
# 6 0.0000 0.0000 0.0000 0.0000 0.0000 34.4790
#
#
#
# Elastic Compliance Matrix: (Units=1/GPa)
#
#
# Indices 1 2 3 4 5 6 
#
# 1 0.014558 -0.008425 -0.002673 0.000000 0.000000 0.000000
# 2 -0.008425 0.014559 -0.002673 0.000000 0.000000 0.000000
# 3 -0.002673 -0.002673 0.009922 0.000000 0.000000 0.000000
# 4 0.000000 0.000000 0.000000 0.030089 0.000000 0.000000
# 5 0.000000 0.000000 0.000000 0.000000 0.030088 0.000000
# 6 0.000000 0.000000 0.000000 0.000000 0.000000 0.029003
#
#
# Mechanical properties :
#
#
# Convention : Reuss Voigt Hill
#
# Bulk Modulus (GPa) = 86.99238 87.50874 87.25056
# Shear Modulus (GPa) = 31.32953 32.77051 32.05002
#
# Velocity S-wave (km/s) = 4.07889 4.17164 4.12553
# Velocity P-wave (km/s) = 8.26922 8.34713 8.30827
#
# Compressibility (1/GPa) = 0.01149526
#
# Stress axis : x y z
#
# Youngs Moduli (GPa) = 68.69151 68.68672 100.78916
#
# Poissons Ratio (x) = 0.57869 0.26942
# Poissons Ratio (y) = 0.57873 0.26944
# Poissons Ratio (z) = 0.18362 0.18362
#
# Static dielectric constant tensor:
#      x y z
#    x 1.675430 0.000000 0.000000 
#    y 0.000000 1.675430 0.000000 
#    z 0.000000 0.000000 1.708220 
# 
# From -- ./inp_files/2226.got.cif
#   From: 2010.05.17/outbox.cif.g08.bks.cpg/sg97_2_cif.got.tgz:2226.got - 2010.06.03 19:55:32.
