data_PCOD9551598
_publ_section_title
;
Structure prediction by ZEFSAII (Michael W. Deem and Ramdas Pophale) SiO2 
 PCOD9551598
Probable space group: I 4 2 2 
;
_chemical_formula_sum "Si O2"
_cell_formula_units_Z 80
_cell_length_a 10.133890
_cell_length_b 10.133890
_cell_length_c 30.935702
_cell_angle_alpha 90.000000
_cell_angle_beta 90.000000
_cell_angle_gamma 90.000000
_cell_volume 3176.964393
_symmetry_space_group_name_H-M "I 4 2 2 "
_symmetry_group_IT_number 97
_symmetry_cell_setting 'tetragonal'
loop_
_space_group_symop_operation_xyz
x,y,z
-y,x,z
-x,-y,z
y,-x,z
x,-y,-z
-x,y,-z
y,x,-z
-y,-x,-z
1/2+x,1/2+y,1/2+z
1/2-y,1/2+x,1/2+z
1/2-x,1/2-y,1/2+z
1/2+y,1/2-x,1/2+z
1/2+x,1/2-y,1/2-z
1/2-x,1/2+y,1/2-z
1/2+y,1/2+x,1/2-z
1/2-y,1/2-x,1/2-z
loop_
_atom_site_type_symbol
_atom_site_label
_atom_site_fract_x
_atom_site_fract_y
_atom_site_fract_z
Si Si1 0.458784 0.151803 0.455029
Si Si2 0.225605 0.011656 0.228285
Si Si3 0.293791 0.419702 0.914907
Si Si4 0.277709 0.492111 0.364905
Si Si5 0.039742 0.778573 0.321355
O O1 0.500000 0.217549 0.500000
O O2 0.302430 0.143124 0.449350
O O3 0.516986 0.208660 0.410878
O O4 0.500000 0.000000 0.456307
O O5 0.295276 0.997956 0.181727
O O6 0.292990 0.032462 0.275043
O O7 0.120065 0.133090 0.228617
O O8 0.428764 0.338267 0.918324
O O9 0.218792 0.426028 0.868038
O O10 0.377815 0.368905 0.364189
O O11 0.898461 0.853454 0.321828
#
# Coordination Sequence:
#
# PCOD9551598 Si02
#       5
#    16  16  16  16  16
#     4  11  26  44  59  87 120 159 201 262 329 364
#     4   7  10  21  47  85 123 153 194 242 287 349
#     4   9  19  39  69  96 121 160 206 251 305 375
#     4   9  19  37  63  91 119 163 209 249 299 366
#     4   7  10  21  49  89 122 152 193 241 291 352
#
# _framework density 25.181270000000001
#
# number of rings (size 3 to 8) (size 9 to 14) (size 15 to 20)
#    0.000    3.400    0.000    3.600    2.800    0.800 
#    3.600    2.000    0.000    7.200    0.000    0.000 
#    0.000    0.000    0.000    0.000    0.000    0.000 
#
# Total GULP energy -223181.299057 kJ/mol
# GULP energy per Si atom -5579.532476 kJ/mol
# Density = 2.512396 g / cm^3
# Si number density = 25.181270 Si / 1000 Ang^3
#
#
#
# Elastic Constant Matrix: (Units=GPa)
#
#
# Indices 1 2 3 4 5 6 
#
# 1 -2.3237 54.0462 47.8038 0.0000 0.0000 0.0000
# 2 54.0462 -2.3237 47.8038 0.0000 0.0000 0.0000
# 3 47.8038 47.8038 240.7143 0.0000 0.0000 0.0000
# 4 0.0000 0.0000 0.0000 49.0293 0.0000 0.0000
# 5 0.0000 0.0000 0.0000 0.0000 49.0293 0.0000
# 6 0.0000 0.0000 0.0000 0.0000 0.0000 6.4619
#
#
#
# Elastic Compliance Matrix: (Units=1/GPa)
#
#
# Indices 1 2 3 4 5 6 
#
# 1 0.006404 0.024144 -0.006067 0.000000 0.000000 0.000000
# 2 0.024144 0.006404 -0.006067 0.000000 0.000000 0.000000
# 3 -0.006067 -0.006067 0.006564 0.000000 0.000000 0.000000
# 4 0.000000 0.000000 0.000000 0.020396 0.000000 0.000000
# 5 0.000000 0.000000 0.000000 0.000000 0.020396 0.000000
# 6 0.000000 0.000000 0.000000 0.000000 0.000000 0.154753
#
#
# Mechanical properties :
#
#
# Convention : Reuss Voigt Hill
#
# Bulk Modulus (GPa) = 23.04505 59.48604 41.26555
# Shear Modulus (GPa) = 24.34760 26.66496 25.50628
#
# Velocity S-wave (km/s) = 3.11286 3.25764 3.18607
# Velocity P-wave (km/s) = 4.70015 6.15012 5.47336
#
# Compressibility (1/GPa) = 0.04339326
#
# Stress axis : x y z
#
# Youngs Moduli (GPa) = 156.15480 156.15467 152.35033
#
# Poissons Ratio (x) = -3.77018 0.92424
# Poissons Ratio (y) = -3.77018 0.92424
# Poissons Ratio (z) = 0.94732 0.94732
#
# Static dielectric constant tensor:
#      x y z
#    x 1.995580 0.000000 0.000000 
#    y 0.000000 1.995580 0.000000 
#    z 0.000000 0.000000 2.111260 
# 
# From -- ./inp_files/7954.got.cif
#   From: 2010.05.17/outbox.cif.g08.bks.cpg/sg97_4_cif.got.tgz:7954.got - 2010.06.03 19:55:32.
