data_PCOD9551945
_publ_section_title
;
Structure prediction by ZEFSAII (Michael W. Deem and Ramdas Pophale) SiO2 
 PCOD9551945
Probable space group: I 41 2 2
;
_chemical_formula_sum "Si O2"
_cell_formula_units_Z 80
_cell_length_a 10.327369
_cell_length_b 10.327369
_cell_length_c 33.453680
_cell_angle_alpha 90.000000
_cell_angle_beta 90.000000
_cell_angle_gamma 90.000000
_cell_volume 3567.987202
_symmetry_space_group_name_H-M "I 41 2 2"
_symmetry_group_IT_number 98
_symmetry_cell_setting 'tetragonal'
loop_
_space_group_symop_operation_xyz
x,y,z
-y,1/2+x,1/4+z
-x,-y,z
y,1/2-x,1/4+z
x,1/2-y,1/4-z
-x,1/2+y,1/4-z
y,x,-z
-y,-x,-z
1/2+x,1/2+y,1/2+z
1/2-y,x,3/4+z
1/2-x,1/2-y,1/2+z
1/2+y,-x,3/4+z
1/2+x,-y,3/4-z
1/2-x,y,3/4-z
1/2+y,1/2+x,1/2-z
1/2-y,1/2-x,1/2-z
loop_
_atom_site_type_symbol
_atom_site_label
_atom_site_fract_x
_atom_site_fract_y
_atom_site_fract_z
Si Si1 0.116256 0.201458 0.774692
Si Si2 0.295987 0.628989 0.780152
Si Si3 0.860733 0.050806 0.588010
Si Si4 0.041966 0.288666 0.171263
Si Si5 0.791256 0.042144 0.080431
O O1 0.229930 0.270071 0.750000
O O2 0.172421 0.080560 0.799488
O O3 0.001249 0.179232 0.743775
O O4 0.052921 0.301247 0.806827
O O5 0.233136 0.733136 0.750000
O O6 0.186374 0.617670 0.814878
O O7 0.426605 0.678667 0.799823
O O8 0.761971 0.061146 0.624799
O O9 0.000000 0.000000 0.602283
O O10 0.045332 0.250000 0.125000
O O11 0.147956 0.401888 0.175545
O O12 0.903274 0.353047 0.178521
#
# Coordination Sequence:
#
# PCOD9551945 Si02
#       5
#    16  16  16  16  16
#     4  11  23  44  74 107 149 196 243 301 372 444
#     4  10  23  42  71 104 148 188 242 299 372 424
#     4  11  21  42  76 104 148 192 241 310 369 434
#     4  11  24  47  74 102 150 196 246 297 373 445
#     4  11  25  46  72 110 144 192 251 309 360 450
#
# _framework density 22.421605
#
# number of rings (size 3 to 8) (size 9 to 14) (size 15 to 20)
#    0.000    1.200    4.000    1.800    0.000    3.200 
#    3.600    8.000    0.000    0.000    0.000    0.000 
#    0.000    0.000    0.000    0.000    0.000    0.000 
#
# Total GULP energy -224052.157648 kJ/mol
# GULP energy per Si atom -5601.303941 kJ/mol
# Density = 2.237057 g / cm^3
# Si number density = 22.421605 Si / 1000 Ang^3
#
#
#
# Elastic Constant Matrix: (Units=GPa)
#
#
# Indices 1 2 3 4 5 6 
#
# 1 49.1448 28.3469 31.4589 0.0000 0.0000 0.0000
# 2 28.3469 49.1455 31.4587 0.0000 0.0000 0.0000
# 3 31.4589 31.4587 96.1599 0.0000 0.0000 0.0000
# 4 0.0000 0.0000 0.0000 38.4638 0.0000 0.0000
# 5 0.0000 0.0000 0.0000 0.0000 38.4633 0.0000
# 6 0.0000 0.0000 0.0000 0.0000 0.0000 30.4718
#
#
#
# Elastic Compliance Matrix: (Units=1/GPa)
#
#
# Indices 1 2 3 4 5 6 
#
# 1 0.032827 -0.015254 -0.005749 0.000000 0.000000 0.000000
# 2 -0.015254 0.032826 -0.005749 0.000000 0.000000 0.000000
# 3 -0.005749 -0.005749 0.014161 0.000000 0.000000 0.000000
# 4 0.000000 0.000000 0.000000 0.025998 0.000000 0.000000
# 5 0.000000 0.000000 0.000000 0.000000 0.025999 0.000000
# 6 0.000000 0.000000 0.000000 0.000000 0.000000 0.032817
#
#
# Mechanical properties :
#
#
# Convention : Reuss Voigt Hill
#
# Bulk Modulus (GPa) = 38.00837 41.88659 39.94748
# Shear Modulus (GPa) = 22.03594 28.35882 25.19738
#
# Velocity S-wave (km/s) = 3.13836 3.56026 3.35595
# Velocity P-wave (km/s) = 5.48825 5.96846 5.73339
#
# Compressibility (1/GPa) = 0.02631000
#
# Stress axis : x y z
#
# Youngs Moduli (GPa) = 30.46288 30.46351 70.61773
#
# Poissons Ratio (x) = 0.46470 0.40597
# Poissons Ratio (y) = 0.46469 0.40595
# Poissons Ratio (z) = 0.17513 0.17512
#
# Static dielectric constant tensor:
#      x y z
#    x 1.826310 0.000000 0.000000 
#    y 0.000000 1.826310 0.000000 
#    z 0.000000 0.000000 1.805080 
# 
# From -- ./inp_files/11772.got.cif
#   From: 2010.05.17/outbox.cif.g08.bks.cpg/sg98_6_cif.got.tgz:11772.got - 2010.06.03 20:00:51.
