data_PCOD9551709
_publ_section_title
;
Structure prediction by ZEFSAII (Michael W. Deem and Ramdas Pophale) SiO2 
 PCOD9551709
Probable space group: I 41 2 2
;
_chemical_formula_sum "Si O2"
_cell_formula_units_Z 112
_cell_length_a 15.938140
_cell_length_b 15.938140
_cell_length_c 25.081671
_cell_angle_alpha 90.000000
_cell_angle_beta 90.000000
_cell_angle_gamma 90.000000
_cell_volume 6371.354086
_symmetry_space_group_name_H-M "I 41 2 2"
_symmetry_group_IT_number 98
_symmetry_cell_setting 'tetragonal'
loop_
_space_group_symop_operation_xyz
x,y,z
-y,1/2+x,1/4+z
-x,-y,z
y,1/2-x,1/4+z
x,1/2-y,1/4-z
-x,1/2+y,1/4-z
y,x,-z
-y,-x,-z
1/2+x,1/2+y,1/2+z
1/2-y,x,3/4+z
1/2-x,1/2-y,1/2+z
1/2+y,-x,3/4+z
1/2+x,-y,3/4-z
1/2-x,y,3/4-z
1/2+y,1/2+x,1/2-z
1/2-y,1/2-x,1/2-z
loop_
_atom_site_type_symbol
_atom_site_label
_atom_site_fract_x
_atom_site_fract_y
_atom_site_fract_z
Si Si1 0.634445 0.480099 0.240704
Si Si2 0.958512 0.091830 0.893867
Si Si3 0.267884 0.381970 0.034632
Si Si4 0.212265 0.529095 0.315383
Si Si5 0.120312 0.004619 0.227384
Si Si6 0.160486 0.225159 0.063308
Si Si7 0.931253 0.743165 0.907141
O O1 0.712996 0.446618 0.275277
O O2 0.582160 0.553902 0.271346
O O3 0.564768 0.409667 0.230957
O O4 0.670804 0.520731 0.187696
O O5 0.957909 0.108177 0.829751
O O6 0.013901 0.171507 0.910378
O O7 0.871587 0.083777 0.926528
O O8 0.000000 0.000000 0.900884
O O9 0.212927 0.459850 0.013148
O O10 0.200277 0.306697 0.037362
O O11 0.282879 0.406736 0.096758
O O12 0.345473 0.345473 0.000000
O O13 0.250000 0.527335 0.375000
O O14 0.194607 0.432350 0.297855
O O15 0.151007 0.250000 0.125000
O O16 0.229318 0.152806 0.062618
#
# Coordination Sequence:
#
# PCOD9551709 Si02
#       7
#    16  16  16  16  16  16  16
#     4  11  20  32  50  75 111 150 196 237 281 331
#     4  11  18  33  50  74 109 158 205 225 263 342
#     4  10  19  34  55  79 113 148 186 247 306 351
#     4  11  18  29  49  71 104 155 201 225 262 330
#     4  10  19  33  56  75 102 154 198 233 279 356
#     4   9  17  27  43  69 105 148 188 230 275 321
#     4  10  22  32  47  82 120 149 188 245 285 340
#
# _framework density 17.578682000000001
#
# number of rings (size 3 to 8) (size 9 to 14) (size 15 to 20)
#    0.000    1.714    5.714    0.857    0.000    0.571 
#    0.000    0.714    0.000    0.000    0.000    6.000 
#    0.000    0.000    0.000    0.000    0.000    0.000 
#
# Total GULP energy -311791.162702 kJ/mol
# GULP energy per Si atom -5567.699334 kJ/mol
# Density = 1.753867 g / cm^3
# Si number density = 17.578682 Si / 1000 Ang^3
#
#
#
# Elastic Constant Matrix: (Units=GPa)
#
#
# Indices 1 2 3 4 5 6 
#
# 1 85.4662 46.2513 41.3836 0.0000 0.0000 0.0000
# 2 46.2513 85.4662 41.3836 0.0000 0.0000 0.0000
# 3 41.3836 41.3836 64.2167 0.0000 0.0000 0.0000
# 4 0.0000 0.0000 0.0000 17.1220 0.0000 0.0000
# 5 0.0000 0.0000 0.0000 0.0000 17.1220 0.0000
# 6 0.0000 0.0000 0.0000 0.0000 0.0000 55.1763
#
#
#
# Elastic Compliance Matrix: (Units=1/GPa)
#
#
# Indices 1 2 3 4 5 6 
#
# 1 0.019130 -0.006371 -0.008222 0.000000 0.000000 0.000000
# 2 -0.006371 0.019130 -0.008222 0.000000 0.000000 0.000000
# 3 -0.008222 -0.008222 0.026169 0.000000 0.000000 0.000000
# 4 0.000000 0.000000 0.000000 0.058404 0.000000 0.000000
# 5 0.000000 0.000000 0.000000 0.000000 0.058404 0.000000
# 6 0.000000 0.000000 0.000000 0.000000 0.000000 0.018124
#
#
# Mechanical properties :
#
#
# Convention : Reuss Voigt Hill
#
# Bulk Modulus (GPa) = 53.19640 54.79844 53.99742
# Shear Modulus (GPa) = 19.89994 24.95945 22.42970
#
# Velocity S-wave (km/s) = 3.36824 3.77220 3.57593
# Velocity P-wave (km/s) = 6.74198 7.08616 6.91621
#
# Compressibility (1/GPa) = 0.01879827
#
# Stress axis : x y z
#
# Youngs Moduli (GPa) = 52.27524 52.27524 38.21249
#
# Poissons Ratio (x) = 0.33305 0.31418
# Poissons Ratio (y) = 0.33305 0.31418
# Poissons Ratio (z) = 0.42981 0.42981
#
# Static dielectric constant tensor:
#      x y z
#    x 1.627160 0.000000 0.000000 
#    y 0.000000 1.627160 0.000000 
#    z 0.000000 0.000000 1.664150 
# 
# From -- ./inp_files/12102.got.cif
#   From: 2010.05.17/outbox.cif.g08.bks.cpg/sg98_7_cif.got.tgz:12102.got - 2010.06.03 20:00:51.
