data_PCOD9551647
_publ_section_title
;
Structure prediction by ZEFSAII (Michael W. Deem and Ramdas Pophale) SiO2 
 PCOD9551647
Probable space group: I 41 2 2
;
_chemical_formula_sum "Si O2"
_cell_formula_units_Z 96
_cell_length_a 25.123448
_cell_length_b 25.123448
_cell_length_c 9.238829
_cell_angle_alpha 90.000000
_cell_angle_beta 90.000000
_cell_angle_gamma 90.000000
_cell_volume 5831.434667
_symmetry_space_group_name_H-M "I 41 2 2"
_symmetry_group_IT_number 98
_symmetry_cell_setting 'tetragonal'
loop_
_space_group_symop_operation_xyz
x,y,z
-y,1/2+x,1/4+z
-x,-y,z
y,1/2-x,1/4+z
x,1/2-y,1/4-z
-x,1/2+y,1/4-z
y,x,-z
-y,-x,-z
1/2+x,1/2+y,1/2+z
1/2-y,x,3/4+z
1/2-x,1/2-y,1/2+z
1/2+y,-x,3/4+z
1/2+x,-y,3/4-z
1/2-x,y,3/4-z
1/2+y,1/2+x,1/2-z
1/2-y,1/2-x,1/2-z
loop_
_atom_site_type_symbol
_atom_site_label
_atom_site_fract_x
_atom_site_fract_y
_atom_site_fract_z
Si Si1 0.437345 0.137468 0.671120
Si Si2 0.840593 0.634514 0.589326
Si Si3 0.709907 0.144819 0.647191
Si Si4 0.871076 0.166557 0.354742
Si Si5 0.285878 0.357860 0.588926
Si Si6 0.046749 0.688989 0.136871
O O1 0.415404 0.084596 0.750000
O O2 0.414916 0.139576 0.507605
O O3 0.405401 0.185280 0.751718
O O4 0.499188 0.150057 0.678318
O O5 0.863272 0.636729 0.750000
O O6 0.776573 0.634900 0.595527
O O7 0.855759 0.686721 0.495665
O O8 0.694758 0.194758 0.750000
O O9 0.771827 0.142372 0.611027
O O10 0.673974 0.146715 0.505885
O O11 0.693706 0.093933 0.745244
O O12 0.867847 0.132154 0.500000
O O13 0.925422 0.169900 0.262031
O O14 0.305359 0.305359 0.500000
O O15 0.026124 0.750000 0.125000
#
# Coordination Sequence:
#
# PCOD9551647 Si02
#       6
#    16  16  16  16  16  16
#     4   9  18  33  50  66  85 119 167 211 246 282
#     4  10  18  26  39  62  89 114 146 191 244 298
#     4   9  18  30  48  74 104 139 168 186 218 272
#     4  10  19  30  47  77 109 134 158 188 229 279
#     4   9  17  27  40  59  85 118 152 187 232 294
#     4   9  17  32  52  70  95 131 166 200 238 283
#
# _framework density 16.462502000000001
#
# number of rings (size 3 to 8) (size 9 to 14) (size 15 to 20)
#    0.000    3.000    0.000    5.500    0.000    4.000 
#    0.000    3.333    0.000   10.500    0.000    1.167 
#    0.000    0.000    0.000    0.000    0.000    0.000 
#
# Total GULP energy -267468.985036 kJ/mol
# GULP energy per Si atom -5572.270522 kJ/mol
# Density = 1.642503 g / cm^3
# Si number density = 16.462502 Si / 1000 Ang^3
#
#
#
# Elastic Constant Matrix: (Units=GPa)
#
#
# Indices 1 2 3 4 5 6 
#
# 1 55.3533 28.4142 15.4888 0.0000 0.0000 0.0000
# 2 28.4142 55.3560 15.4902 0.0000 0.0000 0.0000
# 3 15.4888 15.4902 105.8225 0.0000 0.0000 0.0000
# 4 0.0000 0.0000 0.0000 6.8272 0.0000 0.0000
# 5 0.0000 0.0000 0.0000 0.0000 6.8273 0.0000
# 6 0.0000 0.0000 0.0000 0.0000 0.0000 18.9569
#
#
#
# Elastic Compliance Matrix: (Units=1/GPa)
#
#
# Indices 1 2 3 4 5 6 
#
# 1 0.024870 -0.012249 -0.001847 0.000000 0.000000 0.000000
# 2 -0.012249 0.024869 -0.001847 0.000000 0.000000 0.000000
# 3 -0.001847 -0.001847 0.009991 0.000000 0.000000 0.000000
# 4 0.000000 0.000000 0.000000 0.146473 0.000000 0.000000
# 5 0.000000 0.000000 0.000000 0.000000 0.146470 0.000000
# 6 0.000000 0.000000 0.000000 0.000000 0.000000 0.052751
#
#
# Mechanical properties :
#
#
# Convention : Reuss Voigt Hill
#
# Bulk Modulus (GPa) = 35.91592 37.25758 36.58675
# Shear Modulus (GPa) = 11.19588 16.99820 14.09704
#
# Velocity S-wave (km/s) = 2.61067 3.21680 2.92946
# Velocity P-wave (km/s) = 5.56342 6.03970 5.80645
#
# Compressibility (1/GPa) = 0.02784281
#
# Stress axis : x y z
#
# Youngs Moduli (GPa) = 40.20839 40.21018 100.09428
#
# Poissons Ratio (x) = 0.49254 0.18489
# Poissons Ratio (y) = 0.49252 0.18492
# Poissons Ratio (z) = 0.07427 0.07429
#
# Static dielectric constant tensor:
#      x y z
#    x 1.549500 0.000000 0.000000 
#    y 0.000000 1.549500 0.000000 
#    z 0.000000 0.000000 1.572870 
# 
# From -- ./inp_files/3850.got.cif
#   From: 2010.05.17/outbox.cif.g08.bks.cpg/sg98_2_cif.got.tgz:3850.got - 2010.06.03 20:00:51.
