data_PCOD9551887
_publ_section_title
;
Structure prediction by ZEFSAII (Michael W. Deem and Ramdas Pophale) SiO2 
 PCOD9551887
Probable space group: I 41 2 2
;
_chemical_formula_sum "Si O2"
_cell_formula_units_Z 72
_cell_length_a 17.838874
_cell_length_b 17.838874
_cell_length_c 11.769050
_cell_angle_alpha 90.000000
_cell_angle_beta 90.000000
_cell_angle_gamma 90.000000
_cell_volume 3745.210945
_symmetry_space_group_name_H-M "I 41 2 2"
_symmetry_group_IT_number 98
_symmetry_cell_setting 'tetragonal'
loop_
_space_group_symop_operation_xyz
x,y,z
-y,1/2+x,1/4+z
-x,-y,z
y,1/2-x,1/4+z
x,1/2-y,1/4-z
-x,1/2+y,1/4-z
y,x,-z
-y,-x,-z
1/2+x,1/2+y,1/2+z
1/2-y,x,3/4+z
1/2-x,1/2-y,1/2+z
1/2+y,-x,3/4+z
1/2+x,-y,3/4-z
1/2-x,y,3/4-z
1/2+y,1/2+x,1/2-z
1/2-y,1/2-x,1/2-z
loop_
_atom_site_type_symbol
_atom_site_label
_atom_site_fract_x
_atom_site_fract_y
_atom_site_fract_z
Si Si1 0.278173 0.950314 0.035939
Si Si2 0.782303 0.282303 0.250000
Si Si3 0.498514 0.377288 0.465530
Si Si4 0.925732 0.451448 0.982862
Si Si5 0.573318 0.183443 0.213406
O O1 0.240678 0.869061 0.016412
O O2 0.209100 0.001916 0.994135
O O3 0.363701 0.944316 0.989975
O O4 0.294206 0.965680 0.169689
O O5 0.750000 0.262786 0.375000
O O6 0.425531 0.425531 0.500000
O O7 0.569151 0.430850 0.500000
O O8 0.512568 0.374364 0.330090
O O9 0.885712 0.456781 0.861059
O O10 0.000000 0.500000 0.983794
O O11 0.577708 0.250000 0.125000
O O12 0.655341 0.155341 0.250000
#
# Coordination Sequence:
#
# PCOD9551887 Si02
#       5
#    16   8  16  16  16
#     4  11  24  38  59  91 129 172 220 266 336 401
#     4  12  28  36  57  90 135 178 218 264 338 416
#     4  11  21  38  60  88 127 169 215 275 334 398
#     4  11  23  41  62  91 130 175 225 272 328 409
#     4  10  22  37  58  86 127 170 214 260 324 392
#
# _framework density 19.224551999999999
#
# number of rings (size 3 to 8) (size 9 to 14) (size 15 to 20)
#    0.000    1.111    5.556    1.333    7.778    4.000 
#    0.000    0.000    0.000    0.000    0.000    3.111 
#    6.667    0.000    0.000    0.000    0.000    0.000 
#
# Total GULP energy -200598.485247 kJ/mol
# GULP energy per Si atom -5572.180146 kJ/mol
# Density = 1.918080 g / cm^3
# Si number density = 19.224552 Si / 1000 Ang^3
#
#
#
# Elastic Constant Matrix: (Units=GPa)
#
#
# Indices 1 2 3 4 5 6 
#
# 1 90.0158 59.8518 10.5787 0.0000 0.0000 0.0000
# 2 59.8518 90.0159 10.5784 0.0000 0.0000 0.0000
# 3 10.5787 10.5784 106.0242 0.0000 0.0000 0.0000
# 4 0.0000 0.0000 0.0000 28.8665 0.0000 0.0000
# 5 0.0000 0.0000 0.0000 0.0000 28.8663 0.0000
# 6 0.0000 0.0000 0.0000 0.0000 0.0000 24.1100
#
#
#
# Elastic Compliance Matrix: (Units=1/GPa)
#
#
# Indices 1 2 3 4 5 6 
#
# 1 0.019960 -0.013192 -0.000675 0.000000 0.000000 0.000000
# 2 -0.013192 0.019960 -0.000675 0.000000 0.000000 0.000000
# 3 -0.000675 -0.000675 0.009567 0.000000 0.000000 0.000000
# 4 0.000000 0.000000 0.000000 0.034642 0.000000 0.000000
# 5 0.000000 0.000000 0.000000 0.000000 0.034642 0.000000
# 6 0.000000 0.000000 0.000000 0.000000 0.000000 0.041477
#
#
# Mechanical properties :
#
#
# Convention : Reuss Voigt Hill
#
# Bulk Modulus (GPa) = 49.01658 49.78597 49.40128
# Shear Modulus (GPa) = 25.49284 30.03835 27.76560
#
# Velocity S-wave (km/s) = 3.64546 3.95713 3.80449
# Velocity P-wave (km/s) = 6.57810 6.84338 6.71205
#
# Compressibility (1/GPa) = 0.02040126
#
# Stress axis : x y z
#
# Youngs Moduli (GPa) = 50.10025 50.10036 104.53084
#
# Poissons Ratio (x) = 0.66093 0.07059
# Poissons Ratio (y) = 0.66093 0.07058
# Poissons Ratio (z) = 0.03383 0.03383
#
# Static dielectric constant tensor:
#      x y z
#    x 1.703940 0.000000 0.000000 
#    y 0.000000 1.703940 0.000000 
#    z 0.000000 0.000000 1.809890 
# 
# From -- ./inp_files/5009.got.cif
#   From: 2010.05.17/outbox.cif.g08.bks.cpg/sg98_3_cif.got.tgz:5009.got - 2010.06.03 20:00:51.
