data_PCOD9551409
_publ_section_title
;
Structure prediction by ZEFSAII (Michael W. Deem and Ramdas Pophale) SiO2 
 PCOD9551409
Probable space group: I 4 2 2 
;
_chemical_formula_sum "Si O2"
_cell_formula_units_Z 72
_cell_length_a 21.230813
_cell_length_b 21.230813
_cell_length_c 7.663935
_cell_angle_alpha 90.000000
_cell_angle_beta 90.000000
_cell_angle_gamma 90.000000
_cell_volume 3454.498933
_symmetry_space_group_name_H-M "I 4 2 2 "
_symmetry_group_IT_number 97
_symmetry_cell_setting 'tetragonal'
loop_
_space_group_symop_operation_xyz
x,y,z
-y,x,z
-x,-y,z
y,-x,z
x,-y,-z
-x,y,-z
y,x,-z
-y,-x,-z
1/2+x,1/2+y,1/2+z
1/2-y,1/2+x,1/2+z
1/2-x,1/2-y,1/2+z
1/2+y,1/2-x,1/2+z
1/2+x,1/2-y,1/2-z
1/2-x,1/2+y,1/2-z
1/2+y,1/2+x,1/2-z
1/2-y,1/2-x,1/2-z
loop_
_atom_site_type_symbol
_atom_site_label
_atom_site_fract_x
_atom_site_fract_y
_atom_site_fract_z
Si Si1 0.992728 0.693397 0.208167
Si Si2 0.854358 0.902266 0.320022
Si Si3 0.705939 0.874433 0.380990
Si Si4 0.331821 0.532987 0.688618
Si Si5 0.636717 0.863284 0.750000
O O1 0.963968 0.761184 0.264328
O O2 0.937060 0.644959 0.222863
O O3 0.056113 0.681225 0.317713
O O4 0.000000 0.698949 0.000000
O O5 0.884094 0.884094 0.500000
O O6 0.780866 0.882065 0.337929
O O7 0.899171 0.863790 0.187548
O O8 0.863189 0.976517 0.294732
O O9 0.676141 0.823860 0.250000
O O10 0.680721 0.853480 0.574987
O O11 0.329247 0.500000 0.500000
#
# Coordination Sequence:
#
# PCOD9551409 Si02
#       5
#    16  16  16  16   8
#     4  10  21  42  70  97 140 187 234 290 359 426
#     4  11  23  43  66 100 136 180 229 288 348 415
#     4  11  24  45  68 103 144 181 235 290 353 430
#     4  10  22  42  69  99 136 185 234 289 354 426
#     4  12  22  40  75  98 134 194 232 282 358 427
#
# _framework density 20.842385
#
# number of rings (size 3 to 8) (size 9 to 14) (size 15 to 20)
#    0.000    1.333    2.222    3.333    0.000    4.000 
#   12.000    2.778    0.000    0.000    0.000    0.000 
#    0.000    0.000    0.000    0.000    0.000    0.000 
#
# Total GULP energy -200412.715605 kJ/mol
# GULP energy per Si atom -5567.019878 kJ/mol
# Density = 2.079495 g / cm^3
# Si number density = 20.842385 Si / 1000 Ang^3
#
#
#
# Elastic Constant Matrix: (Units=GPa)
#
#
# Indices 1 2 3 4 5 6 
#
# 1 120.4025 60.1238 45.1071 0.0000 0.0000 0.0000
# 2 60.1238 120.4056 45.1065 0.0000 0.0000 0.0000
# 3 45.1071 45.1065 114.8896 0.0000 0.0000 0.0000
# 4 0.0000 0.0000 0.0000 0.1120 0.0000 0.0000
# 5 0.0000 0.0000 0.0000 0.0000 0.1064 0.0000
# 6 0.0000 0.0000 0.0000 0.0000 0.0000 31.6919
#
#
#
# Elastic Compliance Matrix: (Units=1/GPa)
#
#
# Indices 1 2 3 4 5 6 
#
# 1 0.011740 -0.004849 -0.002706 0.000000 0.000000 0.000000
# 2 -0.004849 0.011740 -0.002705 0.000000 0.000000 0.000000
# 3 -0.002706 -0.002705 0.010829 0.000000 0.000000 0.000000
# 4 0.000000 0.000000 0.000000 8.925867 0.000000 0.000000
# 5 0.000000 0.000000 0.000000 0.000000 9.396465 0.000000
# 6 0.000000 0.000000 0.000000 0.000000 0.000000 0.031554
#
#
# Mechanical properties :
#
#
# Convention : Reuss Voigt Hill
#
# Bulk Modulus (GPa) = 72.52277 72.93027 72.72652
# Shear Modulus (GPa) = 0.27154 20.07275 10.17215
#
# Velocity S-wave (km/s) = 0.36134 3.10671 2.21158
# Velocity P-wave (km/s) = 5.91992 6.92359 6.44133
#
# Compressibility (1/GPa) = 0.01378877
#
# Stress axis : x y z
#
# Youngs Moduli (GPa) = 85.17540 85.17832 92.34880
#
# Poissons Ratio (x) = 0.41302 0.24987
# Poissons Ratio (y) = 0.41301 0.24985
# Poissons Ratio (z) = 0.23046 0.23045
#
# Static dielectric constant tensor:
#      x y z
#    x 2.237450 0.000000 0.000000 
#    y 0.000000 2.237550 0.000000 
#    z 0.000000 0.000000 2.064610 
# 
# From -- ./inp_files/2248.got.cif
#   From: 2010.05.17/outbox.cif.g08.bks.cpg/sg97_2_cif.got.tgz:2248.got - 2010.06.03 19:55:32.
