data_PCOD9551011
_publ_section_title
;
Structure prediction by ZEFSAII (Michael W. Deem and Ramdas Pophale) SiO2 
 PCOD9551011
Probable space group: P 43 21 2
;
_chemical_formula_sum "Si O2"
_cell_formula_units_Z 40
_cell_length_a 7.705621
_cell_length_b 7.705621
_cell_length_c 26.974516
_cell_angle_alpha 90.000000
_cell_angle_beta 90.000000
_cell_angle_gamma 90.000000
_cell_volume 1601.654912
_symmetry_space_group_name_H-M "P 43 21 2"
_symmetry_group_IT_number 96
_symmetry_cell_setting 'tetragonal'
loop_
_space_group_symop_operation_xyz
x,y,z
1/2-y,1/2+x,3/4+z
-x,-y,1/2+z
1/2+y,1/2-x,1/4+z
1/2+x,1/2-y,1/4-z
1/2-x,1/2+y,3/4-z
y,x,-z
-y,-x,1/2-z
loop_
_atom_site_type_symbol
_atom_site_label
_atom_site_fract_x
_atom_site_fract_y
_atom_site_fract_z
Si Si1 0.355793 0.488876 0.842443
Si Si2 0.200347 0.889141 0.153653
Si Si3 0.563317 0.204433 0.787356
Si Si4 0.438690 0.012289 0.695230
Si Si5 0.907133 0.081055 0.195464
O O1 0.520081 0.614471 0.855288
O O2 0.417817 0.323864 0.811758
O O3 0.192879 0.568764 0.815313
O O4 0.298279 0.422889 0.897216
O O5 0.152122 0.694469 0.169053
O O6 0.404271 0.915057 0.161999
O O7 0.100082 0.001116 0.196163
O O8 0.673817 0.326184 0.750000
O O9 0.485047 0.059230 0.751714
O O10 0.239850 0.064813 0.683602
O O11 0.859889 0.140112 0.250000
#
# Coordination Sequence:
#
# PCOD9551011 Si02
#       5
#     8   8   8   8   8
#     4  10  24  41  68 104 138 189 244 303 377 449
#     4   9  23  44  67  94 151 186 243 305 378 433
#     4  10  23  41  65  98 141 196 237 299 372 443
#     4  11  22  41  71  98 139 188 244 303 370 453
#     4  10  23  41  71 100 137 191 237 302 381 447
#
# _framework density 24.974167000000001
#
# number of rings (size 3 to 8) (size 9 to 14) (size 15 to 20)
#    1.200    0.800    0.000    3.000    5.600    4.000 
#    0.000    4.000    0.000    0.000    0.000    0.000 
#    0.000    0.000    0.000    0.000    0.000    0.000 
#
# Total GULP energy -223151.369167 kJ/mol
# GULP energy per Si atom -5578.784229 kJ/mol
# Density = 2.491732 g / cm^3
# Si number density = 24.974167 Si / 1000 Ang^3
#
#
#
# Elastic Constant Matrix: (Units=GPa)
#
#
# Indices 1 2 3 4 5 6 
#
# 1 58.5282 12.9699 31.2976 0.0000 0.0000 0.0000
# 2 12.9699 58.5281 31.2976 0.0000 0.0000 0.0000
# 3 31.2976 31.2976 137.5474 0.0000 0.0000 0.0000
# 4 0.0000 0.0000 0.0000 40.7575 0.0000 0.0000
# 5 0.0000 0.0000 0.0000 0.0000 40.7574 0.0000
# 6 0.0000 0.0000 0.0000 0.0000 0.0000 29.6016
#
#
#
# Elastic Compliance Matrix: (Units=1/GPa)
#
#
# Indices 1 2 3 4 5 6 
#
# 1 0.019708 -0.002242 -0.003974 0.000000 0.000000 0.000000
# 2 -0.002242 0.019708 -0.003974 0.000000 0.000000 0.000000
# 3 -0.003974 -0.003974 0.009079 0.000000 0.000000 0.000000
# 4 0.000000 0.000000 0.000000 0.024535 0.000000 0.000000
# 5 0.000000 0.000000 0.000000 0.000000 0.024535 0.000000
# 6 0.000000 0.000000 0.000000 0.000000 0.000000 0.033782
#
#
# Mechanical properties :
#
#
# Convention : Reuss Voigt Hill
#
# Bulk Modulus (GPa) = 35.57002 45.08153 40.32577
# Shear Modulus (GPa) = 31.03679 34.15921 32.59800
#
# Velocity S-wave (km/s) = 3.52910 3.70237 3.61677
# Velocity P-wave (km/s) = 5.55695 6.03052 5.79857
#
# Compressibility (1/GPa) = 0.02811357
#
# Stress axis : x y z
#
# Youngs Moduli (GPa) = 50.74142 50.74123 110.14696
#
# Poissons Ratio (x) = 0.11377 0.43774
# Poissons Ratio (y) = 0.11377 0.43774
# Poissons Ratio (z) = 0.20165 0.20165
#
# Static dielectric constant tensor:
#      x y z
#    x 2.025770 0.000000 0.000000 
#    y 0.000000 2.025770 0.000000 
#    z 0.000000 0.000000 1.975160 
# 
# From -- ./inp_files/3805.got.cif
#   From: 2010.05.17/outbox.cif.g08.bks.cpg/sg96_2_cif.got.tgz:3805.got - 2010.06.03 19:52:08.
