data_PCOD9551359
_publ_section_title
;
Structure prediction by ZEFSAII (Michael W. Deem and Ramdas Pophale) SiO2 
 PCOD9551359
Probable space group: I 4 2 2 
;
_chemical_formula_sum "Si O2"
_cell_formula_units_Z 120
_cell_length_a 17.810749
_cell_length_b 17.810749
_cell_length_c 21.387679
_cell_angle_alpha 90.000000
_cell_angle_beta 90.000000
_cell_angle_gamma 90.000000
_cell_volume 6784.658989
_symmetry_space_group_name_H-M "I 4 2 2 "
_symmetry_group_IT_number 97
_symmetry_cell_setting 'tetragonal'
loop_
_space_group_symop_operation_xyz
x,y,z
-y,x,z
-x,-y,z
y,-x,z
x,-y,-z
-x,y,-z
y,x,-z
-y,-x,-z
1/2+x,1/2+y,1/2+z
1/2-y,1/2+x,1/2+z
1/2-x,1/2-y,1/2+z
1/2+y,1/2-x,1/2+z
1/2+x,1/2-y,1/2-z
1/2-x,1/2+y,1/2-z
1/2+y,1/2+x,1/2-z
1/2-y,1/2-x,1/2-z
loop_
_atom_site_type_symbol
_atom_site_label
_atom_site_fract_x
_atom_site_fract_y
_atom_site_fract_z
Si Si1 0.091939 0.591939 0.250000
Si Si2 0.249127 0.991222 0.572041
Si Si3 0.470291 0.377777 0.170634
Si Si4 0.116122 0.765453 0.258930
Si Si5 0.359582 0.853703 0.552049
Si Si6 0.495650 0.082971 0.378545
Si Si7 0.226897 0.253954 0.852727
Si Si8 0.342082 0.861475 0.403909
O O1 0.082969 0.681268 0.261355
O O2 0.073670 0.544878 0.311535
O O3 0.283843 0.068763 0.597698
O O4 0.225857 0.000000 0.500000
O O5 0.178883 0.964938 0.612482
O O6 0.315184 0.929733 0.571102
O O7 0.553005 0.412800 0.169763
O O8 0.447438 0.326359 0.229332
O O9 0.163110 0.774338 0.195346
O O10 0.177895 0.766683 0.314602
O O11 0.442613 0.863957 0.579811
O O12 0.314807 0.787993 0.587071
O O13 0.357318 0.847088 0.477580
O O14 0.579254 0.114693 0.373398
O O15 0.500000 0.000000 0.408332
O O16 0.289043 0.194185 0.872002
#
# Coordination Sequence:
#
# PCOD9551359 Si02
#       8
#     8  16  16  16  16  16  16  16
#     4  10  21  40  60  84 118 160 191 252 306 358
#     4  10  21  36  56  83 117 159 196 243 298 359
#     4  11  23  38  57  82 113 153 201 251 300 352
#     4  10  20  40  64  76 118 156 194 254 313 347
#     4  11  20  40  58  81 127 160 188 251 315 360
#     4  12  22  38  56  88 124 159 200 244 307 364
#     4  10  20  40  59  84 109 154 201 246 302 358
#     4  11  24  34  61  91 115 157 211 243 289 381
#
# _framework density 17.686959999999999
#
# number of rings (size 3 to 8) (size 9 to 14) (size 15 to 20)
#    0.000    1.467    5.333    1.800    0.000    2.133 
#    4.800    0.667    0.000    0.000    0.000    0.000 
#    0.000    0.000    0.000    5.467    0.000    0.000 
#
# Total GULP energy -335034.132228 kJ/mol
# GULP energy per Si atom -5583.902204 kJ/mol
# Density = 1.764670 g / cm^3
# Si number density = 17.686960 Si / 1000 Ang^3
#
#
#
# Elastic Constant Matrix: (Units=GPa)
#
#
# Indices 1 2 3 4 5 6 
#
# 1 85.1663 55.8379 33.7538 0.0000 0.0000 0.0000
# 2 55.8379 85.1664 33.7538 0.0000 0.0000 0.0000
# 3 33.7538 33.7538 73.9310 0.0000 0.0000 0.0000
# 4 0.0000 0.0000 0.0000 18.7268 0.0000 0.0000
# 5 0.0000 0.0000 0.0000 0.0000 18.7268 0.0000
# 6 0.0000 0.0000 0.0000 0.0000 0.0000 32.5495
#
#
#
# Elastic Compliance Matrix: (Units=1/GPa)
#
#
# Indices 1 2 3 4 5 6 
#
# 1 0.021586 -0.012510 -0.004144 0.000000 0.000000 0.000000
# 2 -0.012510 0.021586 -0.004144 0.000000 0.000000 0.000000
# 3 -0.004144 -0.004144 0.017310 0.000000 0.000000 0.000000
# 4 0.000000 0.000000 0.000000 0.053399 0.000000 0.000000
# 5 0.000000 0.000000 0.000000 0.000000 0.053399 0.000000
# 6 0.000000 0.000000 0.000000 0.000000 0.000000 0.030722
#
#
# Mechanical properties :
#
#
# Convention : Reuss Voigt Hill
#
# Bulk Modulus (GPa) = 52.94697 54.55052 53.74875
# Shear Modulus (GPa) = 20.33397 22.06186 21.19792
#
# Velocity S-wave (km/s) = 3.39434 3.53562 3.46570
# Velocity P-wave (km/s) = 6.73518 6.89758 6.81686
#
# Compressibility (1/GPa) = 0.01888682
#
# Stress axis : x y z
#
# Youngs Moduli (GPa) = 46.32595 46.32595 57.77094
#
# Poissons Ratio (x) = 0.57955 0.23938
# Poissons Ratio (y) = 0.57955 0.23938
# Poissons Ratio (z) = 0.19196 0.19196
#
# Static dielectric constant tensor:
#      x y z
#    x 1.601460 0.000000 0.000000 
#    y 0.000000 1.601460 0.000000 
#    z 0.000000 0.000000 1.619140 
# 
# From -- ./inp_files/6860.got.cif
#   From: 2010.05.17/outbox.cif.g08.bks.cpg/sg97_4_cif.got.tgz:6860.got - 2010.06.03 19:55:32.
