data_PCOD9551873
_publ_section_title
;
Structure prediction by ZEFSAII (Michael W. Deem and Ramdas Pophale) SiO2 
 PCOD9551873
Probable space group: I 41 2 2
;
_chemical_formula_sum "Si O2"
_cell_formula_units_Z 40
_cell_length_a 14.389072
_cell_length_b 14.389072
_cell_length_c 8.124819
_cell_angle_alpha 90.000000
_cell_angle_beta 90.000000
_cell_angle_gamma 90.000000
_cell_volume 1682.206343
_symmetry_space_group_name_H-M "I 41 2 2"
_symmetry_group_IT_number 98
_symmetry_cell_setting 'tetragonal'
loop_
_space_group_symop_operation_xyz
x,y,z
-y,1/2+x,1/4+z
-x,-y,z
y,1/2-x,1/4+z
x,1/2-y,1/4-z
-x,1/2+y,1/4-z
y,x,-z
-y,-x,-z
1/2+x,1/2+y,1/2+z
1/2-y,x,3/4+z
1/2-x,1/2-y,1/2+z
1/2+y,-x,3/4+z
1/2+x,-y,3/4-z
1/2-x,y,3/4-z
1/2+y,1/2+x,1/2-z
1/2-y,1/2-x,1/2-z
loop_
_atom_site_type_symbol
_atom_site_label
_atom_site_fract_x
_atom_site_fract_y
_atom_site_fract_z
Si Si1 0.250000 0.132243 0.875000
Si Si2 0.299877 0.510282 0.126496
Si Si3 0.892616 0.466652 0.972247
O O1 0.306326 0.193675 0.750000
O O2 0.185324 0.070292 0.759002
O O3 0.355145 0.598211 0.197425
O O4 0.188737 0.515990 0.103281
O O5 0.349494 0.495119 0.949935
O O6 0.000000 0.500000 0.997227
#
# Coordination Sequence:
#
# PCOD9551873 Si02
#       3
#     8  16  16
#     4  12  28  44  66 100 138 184 238 298 356 426
#     4  10  22  42  67 101 139 181 234 291 357 428
#     4  10  21  42  74 103 137 184 232 290 362 429
#
# _framework density 23.778295
#
# number of rings (size 3 to 8) (size 9 to 14) (size 15 to 20)
#    0.000    1.600    0.000    4.800    0.000   11.200 
#    0.000   22.000    0.000    0.000    0.000    0.000 
#    0.000    0.000    0.000    0.000    0.000    0.000 
#
# Total GULP energy -111663.149141 kJ/mol
# GULP energy per Si atom -5583.157457 kJ/mol
# Density = 2.372417 g / cm^3
# Si number density = 23.778295 Si / 1000 Ang^3
#
#
#
# Elastic Constant Matrix: (Units=GPa)
#
#
# Indices 1 2 3 4 5 6 
#
# 1 151.2922 63.0293 60.5356 0.0000 0.0000 0.0000
# 2 63.0293 151.2903 60.5360 0.0000 0.0000 0.0000
# 3 60.5356 60.5360 110.3123 0.0000 0.0000 0.0000
# 4 0.0000 0.0000 0.0000 37.3673 0.0000 0.0000
# 5 0.0000 0.0000 0.0000 0.0000 37.3686 0.0000
# 6 0.0000 0.0000 0.0000 0.0000 0.0000 13.8891
#
#
#
# Elastic Compliance Matrix: (Units=1/GPa)
#
#
# Indices 1 2 3 4 5 6 
#
# 1 0.009046 -0.002284 -0.003711 0.000000 0.000000 0.000000
# 2 -0.002284 0.009046 -0.003711 0.000000 0.000000 0.000000
# 3 -0.003711 -0.003711 0.013138 0.000000 0.000000 0.000000
# 4 0.000000 0.000000 0.000000 0.026761 0.000000 0.000000
# 5 0.000000 0.000000 0.000000 0.000000 0.026760 0.000000
# 6 0.000000 0.000000 0.000000 0.000000 0.000000 0.071999
#
#
# Mechanical properties :
#
#
# Convention : Reuss Voigt Hill
#
# Bulk Modulus (GPa) = 84.61028 86.78851 85.69939
# Shear Modulus (GPa) = 27.76212 32.97795 30.37003
#
# Velocity S-wave (km/s) = 3.42064 3.72814 3.57769
# Velocity P-wave (km/s) = 7.15970 7.42363 7.29286
#
# Compressibility (1/GPa) = 0.01181889
#
# Stress axis : x y z
#
# Youngs Moduli (GPa) = 110.54645 110.54424 76.11510
#
# Poissons Ratio (x) = 0.25247 0.28245
# Poissons Ratio (y) = 0.25247 0.28246
# Poissons Ratio (z) = 0.41022 0.41022
#
# Static dielectric constant tensor:
#      x y z
#    x 1.965090 0.000000 0.000000 
#    y 0.000000 1.965090 0.000000 
#    z 0.000000 0.000000 1.925430 
# 
# From -- ./inp_files/2452.got.cif
#   From: 2010.05.17/outbox.cif.g08.bks.cpg/sg98_2_cif.got.tgz:2452.got - 2010.06.03 20:00:51.
