data_PCOD9551066
_publ_section_title
;
Structure prediction by ZEFSAII (Michael W. Deem and Ramdas Pophale) SiO2 
 PCOD9551066
Probable space group: P 43 21 2
;
_chemical_formula_sum "Si O2"
_cell_formula_units_Z 60
_cell_length_a 11.492843
_cell_length_b 11.492843
_cell_length_c 21.070581
_cell_angle_alpha 90.000000
_cell_angle_beta 90.000000
_cell_angle_gamma 90.000000
_cell_volume 2783.116967
_symmetry_space_group_name_H-M "P 43 21 2"
_symmetry_group_IT_number 96
_symmetry_cell_setting 'tetragonal'
loop_
_space_group_symop_operation_xyz
x,y,z
1/2-y,1/2+x,3/4+z
-x,-y,1/2+z
1/2+y,1/2-x,1/4+z
1/2+x,1/2-y,1/4-z
1/2-x,1/2+y,3/4-z
y,x,-z
-y,-x,1/2-z
loop_
_atom_site_type_symbol
_atom_site_label
_atom_site_fract_x
_atom_site_fract_y
_atom_site_fract_z
Si Si1 0.042378 0.560367 0.157706
Si Si2 0.048473 0.048473 0.500000
Si Si3 0.057284 0.441908 0.786801
Si Si4 0.552193 0.687225 0.949698
Si Si5 0.433099 0.301233 0.655324
Si Si6 0.316911 0.402041 0.826118
Si Si7 0.829504 0.635478 0.720780
Si Si8 0.654349 0.492578 0.462199
O O1 0.040287 0.697598 0.144072
O O2 0.147694 0.495361 0.194781
O O3 0.947368 0.532743 0.211693
O O4 0.025833 0.501379 0.089120
O O5 0.044413 0.140299 0.558692
O O6 0.921463 0.064198 0.470386
O O7 0.190925 0.436646 0.803426
O O8 0.986944 0.320780 0.797868
O O9 0.601644 0.641013 0.882126
O O10 0.438823 0.611764 0.969059
O O11 0.652449 0.652449 0.000000
O O12 0.365235 0.234748 0.711589
O O13 0.313455 0.261899 0.829454
O O14 0.343312 0.465105 0.890774
O O15 0.941204 0.718193 0.726662
O O16 0.601750 0.601750 0.500000
#
# Coordination Sequence:
#
# PCOD9551066 Si02
#       8
#     8   4   8   8   8   8   8   8
#     4  12  26  46  68 105 150 190 243 306 374 451
#     4  10  24  46  70 106 138 190 242 294 364 442
#     4  12  26  44  72 106 143 195 245 309 378 438
#     4  11  23  45  71 104 140 187 246 295 365 439
#     4  11  24  47  72 104 148 191 238 304 364 454
#     4  11  24  46  71  99 141 184 241 303 368 440
#     4  11  25  46  68 104 147 188 239 309 375 439
#     4  11  24  43  72  99 132 184 242 297 358 437
#
# _framework density 21.558562999999999
#
# number of rings (size 3 to 8) (size 9 to 14) (size 15 to 20)
#    0.000    0.800    6.667    0.000    5.600    0.000 
#    6.000    0.000    1.467    0.000    0.000    0.000 
#    0.000    0.000    0.000    0.000    0.000    0.000 
#
# Total GULP energy -334605.359561 kJ/mol
# GULP energy per Si atom -5576.755993 kJ/mol
# Density = 2.150950 g / cm^3
# Si number density = 21.558563 Si / 1000 Ang^3
#
#
#
# Elastic Constant Matrix: (Units=GPa)
#
#
# Indices 1 2 3 4 5 6 
#
# 1 80.9664 -0.5704 13.1982 0.0000 0.0000 0.0000
# 2 -0.5704 80.9664 13.1982 0.0000 0.0000 0.0000
# 3 13.1982 13.1982 89.6546 0.0000 0.0000 0.0000
# 4 0.0000 0.0000 0.0000 35.4991 0.0000 0.0000
# 5 0.0000 0.0000 0.0000 0.0000 35.4991 0.0000
# 6 0.0000 0.0000 0.0000 0.0000 0.0000 36.2333
#
#
#
# Elastic Compliance Matrix: (Units=1/GPa)
#
#
# Indices 1 2 3 4 5 6 
#
# 1 0.012667 0.000403 -0.001924 0.000000 0.000000 0.000000
# 2 0.000403 0.012667 -0.001924 0.000000 0.000000 0.000000
# 3 -0.001924 -0.001924 0.011720 0.000000 0.000000 0.000000
# 4 0.000000 0.000000 0.000000 0.028170 0.000000 0.000000
# 5 0.000000 0.000000 0.000000 0.000000 0.028170 0.000000
# 6 0.000000 0.000000 0.000000 0.000000 0.000000 0.027599
#
#
# Mechanical properties :
#
#
# Convention : Reuss Voigt Hill
#
# Bulk Modulus (GPa) = 33.15163 33.69325 33.42244
# Shear Modulus (GPa) = 36.24800 36.49708 36.37254
#
# Velocity S-wave (km/s) = 4.10490 4.11898 4.11195
# Velocity P-wave (km/s) = 6.15450 6.18741 6.17097
#
# Compressibility (1/GPa) = 0.03016443
#
# Stress axis : x y z
#
# Youngs Moduli (GPa) = 78.94358 78.94358 85.32123
#
# Poissons Ratio (x) = -0.03181 0.16416
# Poissons Ratio (y) = -0.03181 0.16416
# Poissons Ratio (z) = 0.15189 0.15189
#
# Static dielectric constant tensor:
#      x y z
#    x 1.774550 0.000000 0.000000 
#    y 0.000000 1.774550 0.000000 
#    z 0.000000 0.000000 1.795070 
# 
# From -- ./inp_files/3625.got.cif
#   From: 2010.05.17/outbox.cif.g08.bks.cpg/sg96_2_cif.got.tgz:3625.got - 2010.06.03 19:52:08.
