data_PCOD9551265
_publ_section_title
;
Structure prediction by ZEFSAII (Michael W. Deem and Ramdas Pophale) SiO2 
 PCOD9551265
Probable space group: I 4 2 2 
;
_chemical_formula_sum "Si O2"
_cell_formula_units_Z 56
_cell_length_a 13.113374
_cell_length_b 13.113374
_cell_length_c 12.948627
_cell_angle_alpha 90.000000
_cell_angle_beta 90.000000
_cell_angle_gamma 90.000000
_cell_volume 2226.653379
_symmetry_space_group_name_H-M "I 4 2 2 "
_symmetry_group_IT_number 97
_symmetry_cell_setting 'tetragonal'
loop_
_space_group_symop_operation_xyz
x,y,z
-y,x,z
-x,-y,z
y,-x,z
x,-y,-z
-x,y,-z
y,x,-z
-y,-x,-z
1/2+x,1/2+y,1/2+z
1/2-y,1/2+x,1/2+z
1/2-x,1/2-y,1/2+z
1/2+y,1/2-x,1/2+z
1/2+x,1/2-y,1/2-z
1/2-x,1/2+y,1/2-z
1/2+y,1/2+x,1/2-z
1/2-y,1/2-x,1/2-z
loop_
_atom_site_type_symbol
_atom_site_label
_atom_site_fract_x
_atom_site_fract_y
_atom_site_fract_z
Si Si1 0.875562 0.375562 0.250000
Si Si2 0.640809 0.066894 0.398371
Si Si3 0.761374 0.003431 0.884127
Si Si4 0.069428 0.851368 0.677089
O O1 0.871790 0.481175 0.188608
O O2 0.781149 0.390601 0.330811
O O3 0.560620 0.156681 0.396561
O O4 0.752192 0.112553 0.377117
O O5 0.635308 0.000000 0.500000
O O6 0.831393 0.945579 0.799925
O O7 0.805811 0.000000 0.000000
O O8 0.951591 0.869801 0.646151
#
# Coordination Sequence:
#
# PCOD9551265 Si02
#       4
#     8  16  16  16
#     4  10  19  34  58  90 134 162 190 247 318 381
#     4  11  21  38  65  97 125 161 211 261 321 380
#     4  11  21  38  65  97 125 161 211 261 321 380
#     4  10  24  46  63  84 129 180 218 260 315 376
#
# _framework density 25.149853
#
# number of rings (size 3 to 8) (size 9 to 14) (size 15 to 20)
#    0.000    1.429    2.857    5.143    0.000    2.286 
#   20.571    5.714    0.000    0.000    0.000    0.000 
#    0.000    0.000    0.000    0.000    0.000    0.000 
#
# Total GULP energy -156626.208266 kJ/mol
# GULP energy per Si atom -5593.793152 kJ/mol
# Density = 2.509261 g / cm^3
# Si number density = 25.149853 Si / 1000 Ang^3
#
#
#
# Elastic Constant Matrix: (Units=GPa)
#
#
# Indices 1 2 3 4 5 6 
#
# 1 69.8500 9.0559 2.4541 0.0000 0.0000 0.0000
# 2 9.0559 69.8500 2.4541 0.0000 0.0000 0.0000
# 3 2.4541 2.4541 75.4404 0.0000 0.0000 0.0000
# 4 0.0000 0.0000 0.0000 13.1538 0.0000 0.0000
# 5 0.0000 0.0000 0.0000 0.0000 13.1538 0.0000
# 6 0.0000 0.0000 0.0000 0.0000 0.0000 -0.4463
#
#
#
# Elastic Compliance Matrix: (Units=1/GPa)
#
#
# Indices 1 2 3 4 5 6 
#
# 1 0.014574 -0.001875 -0.000413 0.000000 0.000000 0.000000
# 2 -0.001875 0.014574 -0.000413 0.000000 0.000000 0.000000
# 3 -0.000413 -0.000413 0.013282 0.000000 0.000000 0.000000
# 4 0.000000 0.000000 0.000000 0.076024 0.000000 0.000000
# 5 0.000000 0.000000 0.000000 0.000000 0.076024 0.000000
# 6 0.000000 0.000000 0.000000 0.000000 0.000000 -2.240503
#
#
# Mechanical properties :
#
#
# Convention : Reuss Voigt Hill
#
# Bulk Modulus (GPa) = 27.00659 27.00763 27.00711
# Shear Modulus (GPa) = -2.46514 18.58401 8.05943
#
# Velocity S-wave (km/s) = -0.99112 2.72128 1.79207
# Velocity P-wave (km/s) = 3.07438 4.54266 3.87864
#
# Compressibility (1/GPa) = 0.03702800
#
# Stress axis : x y z
#
# Youngs Moduli (GPa) = 68.61537 68.61537 75.28771
#
# Poissons Ratio (x) = 0.12865 0.03110
# Poissons Ratio (y) = 0.12865 0.03110
# Poissons Ratio (z) = 0.02835 0.02835
#
# Static dielectric constant tensor:
#      x y z
#    x 1.981160 0.000000 0.000000 
#    y 0.000000 1.981160 0.000000 
#    z 0.000000 0.000000 2.112160 
# 
# From -- ./inp_files/4444.got.cif
#   From: 2010.05.17/outbox.cif.g08.bks.cpg/sg97_3_cif.got.tgz:4444.got - 2010.06.03 19:55:32.
