data_PCOD9551582
_publ_section_title
;
Structure prediction by ZEFSAII (Michael W. Deem and Ramdas Pophale) SiO2 
 PCOD9551582
Probable space group: I 4 2 2 
;
_chemical_formula_sum "Si O2"
_cell_formula_units_Z 40
_cell_length_a 12.023100
_cell_length_b 12.023100
_cell_length_c 10.412021
_cell_angle_alpha 90.000000
_cell_angle_beta 90.000000
_cell_angle_gamma 90.000000
_cell_volume 1505.109004
_symmetry_space_group_name_H-M "I 4 2 2 "
_symmetry_group_IT_number 97
_symmetry_cell_setting 'tetragonal'
loop_
_space_group_symop_operation_xyz
x,y,z
-y,x,z
-x,-y,z
y,-x,z
x,-y,-z
-x,y,-z
y,x,-z
-y,-x,-z
1/2+x,1/2+y,1/2+z
1/2-y,1/2+x,1/2+z
1/2-x,1/2-y,1/2+z
1/2+y,1/2-x,1/2+z
1/2+x,1/2-y,1/2-z
1/2-x,1/2+y,1/2-z
1/2+y,1/2+x,1/2-z
1/2-y,1/2-x,1/2-z
loop_
_atom_site_type_symbol
_atom_site_label
_atom_site_fract_x
_atom_site_fract_y
_atom_site_fract_z
Si Si1 0.741534 0.258467 0.500000
Si Si2 0.435466 0.323778 0.311980
Si Si3 0.044427 0.335945 0.365776
O O1 0.744416 0.376205 0.423989
O O2 0.735331 0.154102 0.404562
O O3 0.562552 0.365326 0.320264
O O4 0.448090 0.244562 0.189135
O O5 0.084568 0.415433 0.250000
O O6 0.000000 0.382812 0.500000
#
# Coordination Sequence:
#
# PCOD9551582 Si02
#       3
#     8  16  16
#     4  12  26  53  84 123 176 226 294 368 455 530
#     4  11  24  48  85 122 160 229 296 356 425 534
#     4  12  28  50  81 122 177 226 287 371 454 530
#
# _framework density 26.576150999999999
#
# number of rings (size 3 to 8) (size 9 to 14) (size 15 to 20)
#    0.000    0.400    4.000    3.600    0.000    1.600 
#    0.000   12.000    0.000    0.000    0.000    0.000 
#    0.000    0.000    0.000    0.000    0.000    0.000 
#
# Total GULP energy -111901.698871 kJ/mol
# GULP energy per Si atom -5595.084944 kJ/mol
# Density = 2.651566 g / cm^3
# Si number density = 26.576151 Si / 1000 Ang^3
#
#
#
# Elastic Constant Matrix: (Units=GPa)
#
#
# Indices 1 2 3 4 5 6 
#
# 1 142.9013 73.6780 85.5333 0.0000 0.0000 0.0000
# 2 73.6780 142.9016 85.5332 0.0000 0.0000 0.0000
# 3 85.5333 85.5332 208.6807 0.0000 0.0000 0.0000
# 4 0.0000 0.0000 0.0000 60.4024 0.0000 0.0000
# 5 0.0000 0.0000 0.0000 0.0000 60.4021 0.0000
# 6 0.0000 0.0000 0.0000 0.0000 0.0000 57.7741
#
#
#
# Elastic Compliance Matrix: (Units=1/GPa)
#
#
# Indices 1 2 3 4 5 6 
#
# 1 0.010637 -0.003809 -0.002799 0.000000 0.000000 0.000000
# 2 -0.003809 0.010637 -0.002798 0.000000 0.000000 0.000000
# 3 -0.002799 -0.002798 0.007086 0.000000 0.000000 0.000000
# 4 0.000000 0.000000 0.000000 0.016556 0.000000 0.000000
# 5 0.000000 0.000000 0.000000 0.000000 0.016556 0.000000
# 6 0.000000 0.000000 0.000000 0.000000 0.000000 0.017309
#
#
# Mechanical properties :
#
#
# Convention : Reuss Voigt Hill
#
# Bulk Modulus (GPa) = 104.74041 109.33028 107.03535
# Shear Modulus (GPa) = 49.61569 52.36500 50.99034
#
# Velocity S-wave (km/s) = 4.32548 4.44371 4.38499
# Velocity P-wave (km/s) = 8.02766 8.21928 8.12403
#
# Compressibility (1/GPa) = 0.00954741
#
# Stress axis : x y z
#
# Youngs Moduli (GPa) = 94.01297 94.01339 141.12171
#
# Poissons Ratio (x) = 0.35811 0.39493
# Poissons Ratio (y) = 0.35811 0.39493
# Poissons Ratio (z) = 0.26310 0.26309
#
# Static dielectric constant tensor:
#      x y z
#    x 2.024170 0.000000 0.000000 
#    y 0.000000 2.024160 0.000000 
#    z 0.000000 0.000000 2.135310 
# 
# From -- ./inp_files/1469.got.cif
#   From: 2010.05.17/outbox.cif.g08.bks.cpg/sg97_1_cif.got.tgz:1469.got - 2010.06.03 19:55:32.
