data_PCOD9551109
_publ_section_title
;
Structure prediction by ZEFSAII (Michael W. Deem and Ramdas Pophale) SiO2 
 PCOD9551109
Probable space group: P 43 21 2
;
_chemical_formula_sum "Si O2"
_cell_formula_units_Z 60
_cell_length_a 10.697738
_cell_length_b 10.697738
_cell_length_c 24.693766
_cell_angle_alpha 90.000000
_cell_angle_beta 90.000000
_cell_angle_gamma 90.000000
_cell_volume 2825.994049
_symmetry_space_group_name_H-M "P 43 21 2"
_symmetry_group_IT_number 96
_symmetry_cell_setting 'tetragonal'
loop_
_space_group_symop_operation_xyz
x,y,z
1/2-y,1/2+x,3/4+z
-x,-y,1/2+z
1/2+y,1/2-x,1/4+z
1/2+x,1/2-y,1/4-z
1/2-x,1/2+y,3/4-z
y,x,-z
-y,-x,1/2-z
loop_
_atom_site_type_symbol
_atom_site_label
_atom_site_fract_x
_atom_site_fract_y
_atom_site_fract_z
Si Si1 0.092261 0.788503 0.964876
Si Si2 0.228629 0.826144 0.141299
Si Si3 0.193542 0.193542 0.500000
Si Si4 0.379934 0.896362 0.631524
Si Si5 0.558997 0.927396 0.812384
Si Si6 0.114702 0.278065 0.303316
Si Si7 0.264485 0.544230 0.774737
Si Si8 0.152397 0.993872 0.296332
O O1 0.123350 0.743403 0.904359
O O2 0.945363 0.787139 0.977257
O O3 0.144186 0.925406 0.976435
O O4 0.160328 0.690989 0.004802
O O5 0.283505 0.785808 0.199390
O O6 0.323690 0.911391 0.108443
O O7 0.214167 0.702373 0.105914
O O8 0.088564 0.876307 0.150427
O O9 0.431506 0.777304 0.663343
O O10 0.474093 0.966077 0.590184
O O11 0.347097 0.990148 0.680227
O O12 0.498523 0.852821 0.762553
O O13 0.695085 0.987366 0.795804
O O14 0.096861 0.131476 0.293748
O O15 0.336311 0.663690 0.750000
O O16 0.086827 0.913174 0.250000
#
# Coordination Sequence:
#
# PCOD9551109 Si02
#       8
#     8   8   4   8   8   8   8   8
#     4  12  25  46  72 102 140 189 236 294 362 428
#     4  11  22  39  72 109 142 173 235 293 363 417
#     4  12  22  40  76 106 138 176 238 306 354 430
#     4  12  27  47  75 100 140 191 242 290 366 425
#     4  11  25  47  73 105 144 187 233 303 362 435
#     4  11  24  45  65 105 142 177 236 293 353 422
#     4  12  29  50  70 104 144 191 245 294 360 434
#     4  11  23  40  69 108 139 177 227 290 359 420
#
# _framework density 21.231469000000001
#
# number of rings (size 3 to 8) (size 9 to 14) (size 15 to 20)
#    0.000    0.533    6.667    1.600    5.600    1.600 
#    2.400    0.000    0.000    0.000    0.000    0.000 
#    0.000    0.000    0.000    0.000    0.000    0.000 
#
# Total GULP energy -335364.001846 kJ/mol
# GULP energy per Si atom -5589.400031 kJ/mol
# Density = 2.118314 g / cm^3
# Si number density = 21.231469 Si / 1000 Ang^3
#
#
#
# Elastic Constant Matrix: (Units=GPa)
#
#
# Indices 1 2 3 4 5 6 
#
# 1 54.5843 29.5675 21.4285 0.0000 0.0000 0.0000
# 2 29.5675 54.5832 21.4274 0.0000 0.0000 0.0000
# 3 21.4285 21.4274 80.2223 0.0000 0.0000 0.0000
# 4 0.0000 0.0000 0.0000 -1.7333 0.0000 0.0000
# 5 0.0000 0.0000 0.0000 0.0000 -1.7338 0.0000
# 6 0.0000 0.0000 0.0000 0.0000 0.0000 18.8558
#
#
#
# Elastic Compliance Matrix: (Units=1/GPa)
#
#
# Indices 1 2 3 4 5 6 
#
# 1 0.026864 -0.013110 -0.003674 0.000000 0.000000 0.000000
# 2 -0.013110 0.026864 -0.003674 0.000000 0.000000 0.000000
# 3 -0.003674 -0.003674 0.014428 0.000000 0.000000 0.000000
# 4 0.000000 0.000000 0.000000 -0.576929 0.000000 0.000000
# 5 0.000000 0.000000 0.000000 0.000000 -0.576758 0.000000
# 6 0.000000 0.000000 0.000000 0.000000 0.000000 0.053034
#
#
# Mechanical properties :
#
#
# Convention : Reuss Voigt Hill
#
# Bulk Modulus (GPa) = 36.70911 37.13739 36.92325
# Shear Modulus (GPa) = -5.08905 10.87550 2.89322
#
# Velocity S-wave (km/s) = -1.54988 2.26572 1.16862
# Velocity P-wave (km/s) = 3.75827 4.93703 4.38742
#
# Compressibility (1/GPa) = 0.02724120
#
# Stress axis : x y z
#
# Youngs Moduli (GPa) = 37.22448 37.22411 69.30963
#
# Poissons Ratio (x) = 0.48800 0.25465
# Poissons Ratio (y) = 0.48801 0.25462
# Poissons Ratio (z) = 0.13677 0.13675
#
# Static dielectric constant tensor:
#      x y z
#    x 1.801110 0.000000 0.000000 
#    y 0.000000 1.801110 0.000000 
#    z 0.000000 0.000000 1.769560 
# 
# From -- ./inp_files/3643.got.cif
#   From: 2010.05.17/outbox.cif.g08.bks.cpg/sg96_2_cif.got.tgz:3643.got - 2010.06.03 19:52:08.
