data_PCOD9551235
_publ_section_title
;
Structure prediction by ZEFSAII (Michael W. Deem and Ramdas Pophale) SiO2 
 PCOD9551235
Probable space group: I 4 2 2 
;
_chemical_formula_sum "Si O2"
_cell_formula_units_Z 48
_cell_length_a 16.856132
_cell_length_b 16.856132
_cell_length_c 8.073409
_cell_angle_alpha 90.000000
_cell_angle_beta 90.000000
_cell_angle_gamma 90.000000
_cell_volume 2293.891127
_symmetry_space_group_name_H-M "I 4 2 2 "
_symmetry_group_IT_number 97
_symmetry_cell_setting 'tetragonal'
loop_
_space_group_symop_operation_xyz
x,y,z
-y,x,z
-x,-y,z
y,-x,z
x,-y,-z
-x,y,-z
y,x,-z
-y,-x,-z
1/2+x,1/2+y,1/2+z
1/2-y,1/2+x,1/2+z
1/2-x,1/2-y,1/2+z
1/2+y,1/2-x,1/2+z
1/2+x,1/2-y,1/2-z
1/2-x,1/2+y,1/2-z
1/2+y,1/2+x,1/2-z
1/2-y,1/2-x,1/2-z
loop_
_atom_site_type_symbol
_atom_site_label
_atom_site_fract_x
_atom_site_fract_y
_atom_site_fract_z
Si Si1 0.645460 0.754041 0.119158
Si Si2 0.200727 0.921057 0.938465
Si Si3 0.413758 0.879800 0.438955
O O1 0.708479 0.791522 0.250000
O O2 0.583313 0.712053 0.241472
O O3 0.693978 0.693978 0.000000
O O4 0.603380 0.830560 0.033993
O O5 0.154316 0.845685 0.000000
O O6 0.285276 0.918862 0.031440
O O7 0.158740 0.000000 0.000000
O O8 0.500000 0.910350 0.500000
O O9 0.402997 0.902997 0.250000
#
# Coordination Sequence:
#
# PCOD9551235 Si02
#       3
#    16  16  16
#     4  10  18  34  61  88 117 157 202 245 287 345
#     4  10  21  38  60  89 118 153 194 241 297 352
#     4  10  20  37  60  88 119 156 201 244 290 349
#
# _framework density 20.925142999999998
#
# number of rings (size 3 to 8) (size 9 to 14) (size 15 to 20)
#    0.000    2.000    0.000    7.000    0.000    0.333 
#    0.000   40.000    0.000   23.000    0.000   11.667 
#    0.000    0.000    0.000    0.000    0.000    0.000 
#
# Total GULP energy -133823.605204 kJ/mol
# GULP energy per Si atom -5575.983550 kJ/mol
# Density = 2.087752 g / cm^3
# Si number density = 20.925143 Si / 1000 Ang^3
#
#
#
# Elastic Constant Matrix: (Units=GPa)
#
#
# Indices 1 2 3 4 5 6 
#
# 1 84.2741 53.7635 68.2077 0.0000 0.0000 0.0000
# 2 53.7635 84.2829 68.2077 0.0000 0.0000 0.0000
# 3 68.2077 68.2077 190.7043 0.0000 0.0000 0.0000
# 4 0.0000 0.0000 0.0000 25.2966 0.0000 0.0000
# 5 0.0000 0.0000 0.0000 0.0000 25.2960 0.0000
# 6 0.0000 0.0000 0.0000 0.0000 0.0000 -2.0225
#
#
#
# Elastic Compliance Matrix: (Units=1/GPa)
#
#
# Indices 1 2 3 4 5 6 
#
# 1 0.021989 -0.010783 -0.004008 0.000000 0.000000 0.000000
# 2 -0.010783 0.021986 -0.004007 0.000000 0.000000 0.000000
# 3 -0.004008 -0.004007 0.008110 0.000000 0.000000 0.000000
# 4 0.000000 0.000000 0.000000 0.039531 0.000000 0.000000
# 5 0.000000 0.000000 0.000000 0.000000 0.039532 0.000000
# 6 0.000000 0.000000 0.000000 0.000000 0.000000 -0.494429
#
#
# Mechanical properties :
#
#
# Convention : Reuss Voigt Hill
#
# Bulk Modulus (GPa) = 69.01561 82.17991 75.59776
# Shear Modulus (GPa) = -15.58335 20.98616 2.70141
#
# Velocity S-wave (km/s) = -2.73191 3.17032 1.13745
# Velocity P-wave (km/s) = 4.80652 7.26359 6.15883
#
# Compressibility (1/GPa) = 0.01448947
#
# Stress axis : x y z
#
# Youngs Moduli (GPa) = 45.47695 45.48366 123.30020
#
# Poissons Ratio (x) = 0.49046 0.49418
# Poissons Ratio (y) = 0.49039 0.49404
# Poissons Ratio (z) = 0.18227 0.18224
#
# Static dielectric constant tensor:
#      x y z
#    x 1.823350 0.000000 0.000000 
#    y 0.000000 1.823360 0.000000 
#    z 0.000000 0.000000 1.753610 
# 
# From -- ./inp_files/1626.got.cif
#   From: 2010.05.17/outbox.cif.g08.bks.cpg/sg97_1_cif.got.tgz:1626.got - 2010.06.03 19:55:32.
