data_PCOD9551664
_publ_section_title
;
Structure prediction by ZEFSAII (Michael W. Deem and Ramdas Pophale) SiO2 
 PCOD9551664
Probable space group: I 41 2 2
;
_chemical_formula_sum "Si O2"
_cell_formula_units_Z 96
_cell_length_a 23.649818
_cell_length_b 23.649818
_cell_length_c 8.938039
_cell_angle_alpha 90.000000
_cell_angle_beta 90.000000
_cell_angle_gamma 90.000000
_cell_volume 4999.169375
_symmetry_space_group_name_H-M "I 41 2 2"
_symmetry_group_IT_number 98
_symmetry_cell_setting 'tetragonal'
loop_
_space_group_symop_operation_xyz
x,y,z
-y,1/2+x,1/4+z
-x,-y,z
y,1/2-x,1/4+z
x,1/2-y,1/4-z
-x,1/2+y,1/4-z
y,x,-z
-y,-x,-z
1/2+x,1/2+y,1/2+z
1/2-y,x,3/4+z
1/2-x,1/2-y,1/2+z
1/2+y,-x,3/4+z
1/2+x,-y,3/4-z
1/2-x,y,3/4-z
1/2+y,1/2+x,1/2-z
1/2-y,1/2-x,1/2-z
loop_
_atom_site_type_symbol
_atom_site_label
_atom_site_fract_x
_atom_site_fract_y
_atom_site_fract_z
Si Si1 0.509081 0.301265 0.926537
Si Si2 0.500000 0.000000 0.000281
Si Si3 0.323515 0.966085 0.527517
Si Si4 0.897947 0.569740 0.100032
Si Si5 0.681301 0.750000 0.625000
Si Si6 0.580682 0.400730 0.834693
Si Si7 0.829017 0.619340 0.610039
O O1 0.539281 0.347318 0.819640
O O2 0.441504 0.302847 0.903222
O O3 0.518856 0.317777 0.100621
O O4 0.537068 0.239563 0.909015
O O5 0.541769 0.959621 0.910243
O O6 0.457959 0.957140 0.084567
O O7 0.367843 0.913876 0.528618
O O8 0.353465 0.019371 0.603311
O O9 0.894232 0.605769 0.250000
O O10 0.890485 0.608060 0.954439
O O11 0.717937 0.782064 0.750000
O O12 0.644897 0.707115 0.725345
O O13 0.606423 0.393578 0.000000
O O14 0.838175 0.661826 0.750000
#
# Coordination Sequence:
#
# PCOD9551664 Si02
#       7
#    16   8  16  16   8  16  16
#     4  10  19  35  56  87 118 157 199 249 310 369
#     4  10  18  32  52  80 119 162 193 240 307 374
#     4   9  20  33  56  81 120 160 197 251 302 367
#     4  11  22  36  54  85 122 160 201 245 309 374
#     4  12  30  50  66  84 114 160 218 262 298 350
#     4   9  17  30  52  82 119 156 198 242 302 371
#     4  12  25  41  65  88 116 159 203 261 313 366
#
# _framework density 19.203188999999998
#
# number of rings (size 3 to 8) (size 9 to 14) (size 15 to 20)
#    0.000    1.667    3.333    1.500    4.667    0.000 
#    0.000    0.000    0.000    0.000    0.000    0.000 
#    0.000   77.333    0.000    0.000    0.000    0.000 
#
# Total GULP energy -267607.376286 kJ/mol
# GULP energy per Si atom -5575.153673 kJ/mol
# Density = 1.915948 g / cm^3
# Si number density = 19.203189 Si / 1000 Ang^3
#
#
#
# Elastic Constant Matrix: (Units=GPa)
#
#
# Indices 1 2 3 4 5 6 
#
# 1 95.7656 38.3777 25.2276 0.0000 0.0000 0.0000
# 2 38.3777 95.7655 25.2273 0.0000 0.0000 0.0000
# 3 25.2276 25.2273 62.7314 0.0000 0.0000 0.0000
# 4 0.0000 0.0000 0.0000 18.0155 0.0000 0.0000
# 5 0.0000 0.0000 0.0000 0.0000 18.0163 0.0000
# 6 0.0000 0.0000 0.0000 0.0000 0.0000 23.6904
#
#
#
# Elastic Compliance Matrix: (Units=1/GPa)
#
#
# Indices 1 2 3 4 5 6 
#
# 1 0.013104 -0.004321 -0.003532 0.000000 0.000000 0.000000
# 2 -0.004321 0.013104 -0.003532 0.000000 0.000000 0.000000
# 3 -0.003532 -0.003532 0.018782 0.000000 0.000000 0.000000
# 4 0.000000 0.000000 0.000000 0.055508 0.000000 0.000000
# 5 0.000000 0.000000 0.000000 0.000000 0.055505 0.000000
# 6 0.000000 0.000000 0.000000 0.000000 0.000000 0.042211
#
#
# Mechanical properties :
#
#
# Convention : Reuss Voigt Hill
#
# Bulk Modulus (GPa) = 45.00514 47.99196 46.49855
# Shear Modulus (GPa) = 21.89218 22.97311 22.43264
#
# Velocity S-wave (km/s) = 3.38009 3.46253 3.42156
# Velocity P-wave (km/s) = 6.22258 6.40558 6.31474
#
# Compressibility (1/GPa) = 0.02221969
#
# Stress axis : x y z
#
# Youngs Moduli (GPa) = 76.31089 76.31093 53.24273
#
# Poissons Ratio (x) = 0.32974 0.18807
# Poissons Ratio (y) = 0.32974 0.18806
# Poissons Ratio (z) = 0.26955 0.26954
#
# Static dielectric constant tensor:
#      x y z
#    x 1.693930 0.000000 0.000000 
#    y 0.000000 1.693930 0.000000 
#    z 0.000000 0.000000 1.709000 
# 
# From -- ./inp_files/3759.got.cif
#   From: 2010.05.17/outbox.cif.g08.bks.cpg/sg98_2_cif.got.tgz:3759.got - 2010.06.03 20:00:51.
