data_PCOD9551392
_publ_section_title
;
Structure prediction by ZEFSAII (Michael W. Deem and Ramdas Pophale) SiO2 
 PCOD9551392
Probable space group: I 4 2 2 
;
_chemical_formula_sum "Si O2"
_cell_formula_units_Z 96
_cell_length_a 15.045019
_cell_length_b 15.045019
_cell_length_c 21.064328
_cell_angle_alpha 90.000000
_cell_angle_beta 90.000000
_cell_angle_gamma 90.000000
_cell_volume 4767.965341
_symmetry_space_group_name_H-M "I 4 2 2 "
_symmetry_group_IT_number 97
_symmetry_cell_setting 'tetragonal'
loop_
_space_group_symop_operation_xyz
x,y,z
-y,x,z
-x,-y,z
y,-x,z
x,-y,-z
-x,y,-z
y,x,-z
-y,-x,-z
1/2+x,1/2+y,1/2+z
1/2-y,1/2+x,1/2+z
1/2-x,1/2-y,1/2+z
1/2+y,1/2-x,1/2+z
1/2+x,1/2-y,1/2-z
1/2-x,1/2+y,1/2-z
1/2+y,1/2+x,1/2-z
1/2-y,1/2-x,1/2-z
loop_
_atom_site_type_symbol
_atom_site_label
_atom_site_fract_x
_atom_site_fract_y
_atom_site_fract_z
Si Si1 0.757705 0.742296 0.750000
Si Si2 0.427482 0.228232 0.695755
Si Si3 0.594787 0.963726 0.112339
Si Si4 0.850063 0.993240 0.427894
Si Si5 0.539833 0.641196 0.590858
Si Si6 0.000000 0.286579 0.000000
Si Si7 0.782521 0.446026 0.184558
O O1 0.677864 0.759733 0.700878
O O2 0.749102 0.644825 0.781304
O O3 0.461658 0.146528 0.653181
O O4 0.459345 0.317802 0.660915
O O5 0.476050 0.216104 0.763081
O O6 0.579713 0.878787 0.156741
O O7 0.500000 0.000000 0.091859
O O8 0.654025 0.946377 0.050132
O O9 0.777493 0.979097 0.373831
O O10 0.918742 0.910784 0.421419
O O11 0.813554 0.000000 0.500000
O O12 0.440664 0.604761 0.580440
O O13 0.559007 0.721364 0.543052
#
# Coordination Sequence:
#
# PCOD9551392 Si02
#       7
#     8  16  16  16  16   8  16
#     4  12  24  40  66 102 132 174 230 282 346 418
#     4  11  23  40  65  94 133 172 217 283 342 402
#     4  11  24  43  63  88 132 179 225 273 336 403
#     4   9  20  40  65  94 132 174 221 282 348 408
#     4  10  21  39  65  94 131 171 213 269 341 406
#     4  10  23  39  62  90 120 172 226 273 319 392
#     4  12  23  42  66  98 134 174 229 282 342 413
#
# _framework density 20.134374999999999
#
# number of rings (size 3 to 8) (size 9 to 14) (size 15 to 20)
#    0.000    1.333    1.667    4.250    2.333    2.667 
#    0.000    6.667    0.000    0.000    0.000    0.000 
#    0.000    0.000    0.000    0.000    0.000    0.000 
#
# Total GULP energy -268034.614669 kJ/mol
# GULP energy per Si atom -5584.054472 kJ/mol
# Density = 2.008855 g / cm^3
# Si number density = 20.134375 Si / 1000 Ang^3
#
#
#
# Elastic Constant Matrix: (Units=GPa)
#
#
# Indices 1 2 3 4 5 6 
#
# 1 26.6542 52.7797 14.8306 0.0000 0.0000 0.0000
# 2 52.7797 26.6621 14.8320 0.0000 0.0000 0.0000
# 3 14.8306 14.8320 81.3703 0.0000 0.0000 0.0000
# 4 0.0000 0.0000 0.0000 33.1202 0.0000 0.0000
# 5 0.0000 0.0000 0.0000 0.0000 33.1200 0.0000
# 6 0.0000 0.0000 0.0000 0.0000 0.0000 12.8154
#
#
#
# Elastic Compliance Matrix: (Units=1/GPa)
#
#
# Indices 1 2 3 4 5 6 
#
# 1 -0.012389 0.025895 -0.002462 0.000000 0.000000 0.000000
# 2 0.025895 -0.012385 -0.002462 0.000000 0.000000 0.000000
# 3 -0.002462 -0.002462 0.013187 0.000000 0.000000 0.000000
# 4 0.000000 0.000000 0.000000 0.030193 0.000000 0.000000
# 5 0.000000 0.000000 0.000000 0.000000 0.030193 0.000000
# 6 0.000000 0.000000 0.000000 0.000000 0.000000 0.078031
#
#
# Mechanical properties :
#
#
# Convention : Reuss Voigt Hill
#
# Bulk Modulus (GPa) = 32.94415 33.28568 33.11492
# Shear Modulus (GPa) = 52.62862 19.29409 35.96136
#
# Velocity S-wave (km/s) = 5.11815 3.09895 4.23077
# Velocity P-wave (km/s) = 7.16414 5.41962 6.35205
#
# Compressibility (1/GPa) = 0.03035440
#
# Stress axis : x y z
#
# Youngs Moduli (GPa) = -80.71507 -80.73966 75.83219
#
# Poissons Ratio (x) = 2.09077 0.18670
# Poissons Ratio (y) = 2.09013 0.18670
# Poissons Ratio (z) = -0.19873 -0.19879
#
# Static dielectric constant tensor:
#      x y z
#    x 1.700400 0.000000 0.000000 
#    y 0.000000 1.700400 0.000000 
#    z 0.000000 0.000000 1.735730 
# 
# From -- ./inp_files/6674.got.cif
#   From: 2010.05.17/outbox.cif.g08.bks.cpg/sg97_4_cif.got.tgz:6674.got - 2010.06.03 19:55:32.
