data_PCOD9551312
_publ_section_title
;
Structure prediction by ZEFSAII (Michael W. Deem and Ramdas Pophale) SiO2 
 PCOD9551312
Probable space group: I 4 2 2 
;
_chemical_formula_sum "Si O2"
_cell_formula_units_Z 96
_cell_length_a 28.162928
_cell_length_b 28.162928
_cell_length_c 5.683820
_cell_angle_alpha 90.000000
_cell_angle_beta 90.000000
_cell_angle_gamma 90.000000
_cell_volume 4508.124752
_symmetry_space_group_name_H-M "I 4 2 2 "
_symmetry_group_IT_number 97
_symmetry_cell_setting 'tetragonal'
loop_
_space_group_symop_operation_xyz
x,y,z
-y,x,z
-x,-y,z
y,-x,z
x,-y,-z
-x,y,-z
y,x,-z
-y,-x,-z
1/2+x,1/2+y,1/2+z
1/2-y,1/2+x,1/2+z
1/2-x,1/2-y,1/2+z
1/2+y,1/2-x,1/2+z
1/2+x,1/2-y,1/2-z
1/2-x,1/2+y,1/2-z
1/2+y,1/2+x,1/2-z
1/2-y,1/2-x,1/2-z
loop_
_atom_site_type_symbol
_atom_site_label
_atom_site_fract_x
_atom_site_fract_y
_atom_site_fract_z
Si Si1 0.294568 0.869298 0.138019
Si Si2 0.427555 0.605612 0.252012
Si Si3 0.227965 0.046484 0.342003
Si Si4 0.364318 0.864318 0.750000
Si Si5 0.670331 0.052748 0.490206
Si Si6 0.000000 0.836183 0.000000
Si Si7 0.805093 0.134758 0.351503
O O1 0.327605 0.827605 0.250000
O O2 0.307307 0.920414 0.260519
O O3 0.239247 0.859240 0.177616
O O4 0.313656 0.868198 0.874759
O O5 0.422077 0.577924 0.500000
O O6 0.477574 0.632061 0.293955
O O7 0.386657 0.646161 0.251363
O O8 0.421017 0.578984 0.000000
O O9 0.284634 0.046583 0.333866
O O10 0.211343 0.093779 0.468546
O O11 0.217290 0.000000 0.500000
O O12 0.198789 0.039700 0.104188
O O13 0.366593 0.907972 0.574125
O O14 0.649506 0.000000 0.500000
O O15 0.818834 0.181167 0.500000
#
# Coordination Sequence:
#
# PCOD9551312 Si02
#       7
#    16  16  16   8  16   8  16
#     4   9  20  39  58  85 121 167 213 262 316 388
#     4  11  25  41  61  95 131 170 219 279 346 411
#     4  10  20  35  57  90 123 161 215 273 338 406
#     4  10  20  36  60  86 127 168 208 268 338 396
#     4   9  20  35  59  90 123 158 212 272 331 396
#     4  12  22  36  66  89 130 176 215 276 348 414
#     4  10  20  39  60  85 127 165 213 274 328 398
#
# _framework density 21.294886000000002
#
# number of rings (size 3 to 8) (size 9 to 14) (size 15 to 20)
#    0.000    2.000    1.667    2.000    2.333    0.667 
#    6.000    0.833    7.333    0.250    0.000   21.583 
#    0.000    0.333    0.000    0.000    0.000    0.000 
#
# Total GULP energy -267570.270360 kJ/mol
# GULP energy per Si atom -5574.380632 kJ/mol
# Density = 2.124642 g / cm^3
# Si number density = 21.294886 Si / 1000 Ang^3
#
#
#
# Elastic Constant Matrix: (Units=GPa)
#
#
# Indices 1 2 3 4 5 6 
#
# 1 70.7158 19.5504 27.3905 0.0000 0.0000 0.0000
# 2 19.5504 70.7126 27.3920 0.0000 0.0000 0.0000
# 3 27.3905 27.3920 87.2211 0.0000 0.0000 0.0000
# 4 0.0000 0.0000 0.0000 29.8939 0.0000 0.0000
# 5 0.0000 0.0000 0.0000 0.0000 29.8952 0.0000
# 6 0.0000 0.0000 0.0000 0.0000 0.0000 24.3752
#
#
#
# Elastic Compliance Matrix: (Units=1/GPa)
#
#
# Indices 1 2 3 4 5 6 
#
# 1 0.016616 -0.002929 -0.004298 0.000000 0.000000 0.000000
# 2 -0.002929 0.016617 -0.004299 0.000000 0.000000 0.000000
# 3 -0.004298 -0.004299 0.014165 0.000000 0.000000 0.000000
# 4 0.000000 0.000000 0.000000 0.033452 0.000000 0.000000
# 5 0.000000 0.000000 0.000000 0.000000 0.033450 0.000000
# 6 0.000000 0.000000 0.000000 0.000000 0.000000 0.041025
#
#
# Mechanical properties :
#
#
# Convention : Reuss Voigt Hill
#
# Bulk Modulus (GPa) = 41.07479 41.92392 41.49936
# Shear Modulus (GPa) = 26.81093 27.12063 26.96578
#
# Velocity S-wave (km/s) = 3.55213 3.57259 3.56238
# Velocity P-wave (km/s) = 6.01282 6.06201 6.03746
#
# Compressibility (1/GPa) = 0.02434583
#
# Stress axis : x y z
#
# Youngs Moduli (GPa) = 60.18427 60.18031 70.59702
#
# Poissons Ratio (x) = 0.17626 0.30343
# Poissons Ratio (y) = 0.17627 0.30348
# Poissons Ratio (z) = 0.25868 0.25870
#
# Static dielectric constant tensor:
#      x y z
#    x 1.812870 0.000000 0.000000 
#    y 0.000000 1.812870 0.000000 
#    z 0.000000 0.000000 1.900840 
# 
# From -- ./inp_files/1126.got.cif
#   From: 2010.05.17/outbox.cif.g08.bks.cpg/sg97_1_cif.got.tgz:1126.got - 2010.06.03 19:55:32.
