data_PCOD9551517
_publ_section_title
;
Structure prediction by ZEFSAII (Michael W. Deem and Ramdas Pophale) SiO2 
 PCOD9551517
Probable space group: I 4 2 2 
;
_chemical_formula_sum "Si O2"
_cell_formula_units_Z 64
_cell_length_a 13.780513
_cell_length_b 13.780513
_cell_length_c 19.333605
_cell_angle_alpha 90.000000
_cell_angle_beta 90.000000
_cell_angle_gamma 90.000000
_cell_volume 3671.500669
_symmetry_space_group_name_H-M "I 4 2 2 "
_symmetry_group_IT_number 97
_symmetry_cell_setting 'tetragonal'
loop_
_space_group_symop_operation_xyz
x,y,z
-y,x,z
-x,-y,z
y,-x,z
x,-y,-z
-x,y,-z
y,x,-z
-y,-x,-z
1/2+x,1/2+y,1/2+z
1/2-y,1/2+x,1/2+z
1/2-x,1/2-y,1/2+z
1/2+y,1/2-x,1/2+z
1/2+x,1/2-y,1/2-z
1/2-x,1/2+y,1/2-z
1/2+y,1/2+x,1/2-z
1/2-y,1/2-x,1/2-z
loop_
_atom_site_type_symbol
_atom_site_label
_atom_site_fract_x
_atom_site_fract_y
_atom_site_fract_z
Si Si1 0.651860 0.005614 0.774527
Si Si2 0.595969 0.735658 0.954501
Si Si3 0.461124 0.112311 0.573182
Si Si4 0.155446 0.033794 0.693145
O O1 0.570058 0.929942 0.750000
O O2 0.660277 0.001422 0.857231
O O3 0.747442 0.967631 0.737262
O O4 0.610403 0.110403 0.750000
O O5 0.622664 0.844680 0.930459
O O6 0.559215 0.679476 0.886506
O O7 0.500000 0.747861 0.000000
O O8 0.676385 0.676385 0.000000
O O9 0.500000 0.150655 0.500000
O O10 0.500000 0.000000 0.577608
O O11 0.071465 0.110349 0.708248
#
# Coordination Sequence:
#
# PCOD9551517 Si02
#       4
#    16  16  16  16
#     4  11  21  38  62  89 117 155 201 246 297 350
#     4  12  22  34  60  93 123 155 189 234 300 366
#     4  11  21  39  63  86 120 156 197 245 296 351
#     4  11  24  40  58  84 121 161 196 242 299 356
#
# _framework density 17.431564000000002
#
# number of rings (size 3 to 8) (size 9 to 14) (size 15 to 20)
#    0.000    0.750   10.000    0.000    0.000    1.250 
#    4.500    0.000    0.000    0.000    0.000    1.750 
#    0.000    0.000    0.000    0.000    0.000    0.000 
#
# Total GULP energy -178305.006978 kJ/mol
# GULP energy per Si atom -5572.031468 kJ/mol
# Density = 1.739189 g / cm^3
# Si number density = 17.431564 Si / 1000 Ang^3
#
#
#
# Elastic Constant Matrix: (Units=GPa)
#
#
# Indices 1 2 3 4 5 6 
#
# 1 79.0493 40.9726 34.0959 0.0000 0.0000 0.0000
# 2 40.9726 79.0515 34.0952 0.0000 0.0000 0.0000
# 3 34.0959 34.0952 133.7627 0.0000 0.0000 0.0000
# 4 0.0000 0.0000 0.0000 25.7953 0.0000 0.0000
# 5 0.0000 0.0000 0.0000 0.0000 25.7970 0.0000
# 6 0.0000 0.0000 0.0000 0.0000 0.0000 18.4561
#
#
#
# Elastic Compliance Matrix: (Units=1/GPa)
#
#
# Indices 1 2 3 4 5 6 
#
# 1 0.018003 -0.008260 -0.002484 0.000000 0.000000 0.000000
# 2 -0.008260 0.018002 -0.002483 0.000000 0.000000 0.000000
# 3 -0.002484 -0.002483 0.008742 0.000000 0.000000 0.000000
# 4 0.000000 0.000000 0.000000 0.038767 0.000000 0.000000
# 5 0.000000 0.000000 0.000000 0.000000 0.038764 0.000000
# 6 0.000000 0.000000 0.000000 0.000000 0.000000 0.054183
#
#
# Mechanical properties :
#
#
# Convention : Reuss Voigt Hill
#
# Bulk Modulus (GPa) = 54.66336 56.68787 55.67561
# Shear Modulus (GPa) = 23.92219 26.18966 25.05592
#
# Velocity S-wave (km/s) = 3.70854 3.88032 3.79540
# Velocity P-wave (km/s) = 7.05440 7.25718 7.15651
#
# Compressibility (1/GPa) = 0.01829379
#
# Stress axis : x y z
#
# Youngs Moduli (GPa) = 55.54730 55.54928 114.39133
#
# Poissons Ratio (x) = 0.45882 0.28409
# Poissons Ratio (y) = 0.45880 0.28406
# Poissons Ratio (z) = 0.13795 0.13794
#
# Static dielectric constant tensor:
#      x y z
#    x 1.564370 0.000000 0.000000 
#    y 0.000000 1.564350 0.000000 
#    z 0.000000 0.000000 1.580190 
# 
# From -- ./inp_files/6297.got.cif
#   From: 2010.05.17/outbox.cif.g08.bks.cpg/sg97_4_cif.got.tgz:6297.got - 2010.06.03 19:55:32.
