data_PCOD9551425
_publ_section_title
;
Structure prediction by ZEFSAII (Michael W. Deem and Ramdas Pophale) SiO2 
 PCOD9551425
Probable space group: I 4 2 2 
;
_chemical_formula_sum "Si O2"
_cell_formula_units_Z 116
_cell_length_a 17.124166
_cell_length_b 17.124166
_cell_length_c 21.650887
_cell_angle_alpha 90.000000
_cell_angle_beta 90.000000
_cell_angle_gamma 90.000000
_cell_volume 6348.842476
_symmetry_space_group_name_H-M "I 4 2 2 "
_symmetry_group_IT_number 97
_symmetry_cell_setting 'tetragonal'
loop_
_space_group_symop_operation_xyz
x,y,z
-y,x,z
-x,-y,z
y,-x,z
x,-y,-z
-x,y,-z
y,x,-z
-y,-x,-z
1/2+x,1/2+y,1/2+z
1/2-y,1/2+x,1/2+z
1/2-x,1/2-y,1/2+z
1/2+y,1/2-x,1/2+z
1/2+x,1/2-y,1/2-z
1/2-x,1/2+y,1/2-z
1/2+y,1/2+x,1/2-z
1/2-y,1/2-x,1/2-z
loop_
_atom_site_type_symbol
_atom_site_label
_atom_site_fract_x
_atom_site_fract_y
_atom_site_fract_z
Si Si1 0.500000 0.807037 0.074639
Si Si2 0.221818 0.092684 0.000000
Si Si3 0.500000 0.500000 0.179201
Si Si4 0.129741 0.250577 0.779680
Si Si5 0.250578 0.870260 0.220320
Si Si6 0.848122 0.411360 0.603409
Si Si7 0.500000 0.689686 0.814671
Si Si8 0.588640 0.151879 0.603410
O O1 0.422344 0.855734 0.093642
O O2 0.500000 0.730292 0.117964
O O3 0.577657 0.855734 0.093642
O O4 0.500000 0.794494 0.000000
O O5 0.277959 0.110430 0.942440
O O6 0.145520 0.145520 0.000000
O O7 0.277958 0.110430 0.057562
O O8 0.203652 0.000000 0.000000
O O9 0.499999 0.403171 0.180243
O O10 0.193917 0.306083 0.750000
O O11 0.175600 0.175599 0.807368
O O12 0.072976 0.219620 0.726323
O O13 0.090558 0.306236 0.830258
O O14 0.306085 0.806085 0.250000
O O15 0.306235 0.909443 0.169741
O O16 0.219620 0.927025 0.273677
O O17 0.873109 0.500000 0.588975
#
# Coordination Sequence:
#
# PCOD9551425 Si02
#       8
#    16  16   4  16  16  16  16  16
#     4  12  25  44  65 100 132 181 229 274 343 404
#     4  10  22  40  61  89 127 175 219 267 328 395
#     4  12  28  52  73  96 132 185 228 284 350 396
#     4  11  22  38  65  96 125 164 216 274 338 398
#     4  11  22  38  65  96 125 164 216 274 338 398
#     4  11  22  38  65  96 133 171 216 272 335 413
#     4  12  24  45  71  96 135 176 225 283 339 404
#     4  11  22  38  65  96 133 171 216 272 335 413
#
# _framework density 18.271046999999999
#
# number of rings (size 3 to 8) (size 9 to 14) (size 15 to 20)
#    0.000    0.828    6.897    1.241    0.000    0.690 
#    2.483    1.034    0.000    0.000    0.000    0.000 
#    0.000    0.000    0.000    0.000    0.000    0.000 
#
# Total GULP energy -322957.759341 kJ/mol
# GULP energy per Si atom -5568.237230 kJ/mol
# Density = 1.822946 g / cm^3
# Si number density = 18.271047 Si / 1000 Ang^3
#
#
#
# Elastic Constant Matrix: (Units=GPa)
#
#
# Indices 1 2 3 4 5 6 
#
# 1 138.8419 87.6752 50.9252 0.0000 0.0000 0.0000
# 2 87.6752 138.8422 50.9252 0.0000 0.0000 0.0000
# 3 50.9252 50.9252 107.6238 0.0000 0.0000 0.0000
# 4 0.0000 0.0000 0.0000 13.6000 0.0000 0.0000
# 5 0.0000 0.0000 0.0000 0.0000 13.6005 0.0000
# 6 0.0000 0.0000 0.0000 0.0000 0.0000 33.1949
#
#
#
# Elastic Compliance Matrix: (Units=1/GPa)
#
#
# Indices 1 2 3 4 5 6 
#
# 1 0.012576 -0.006968 -0.002653 0.000000 0.000000 0.000000
# 2 -0.006968 0.012576 -0.002653 0.000000 0.000000 0.000000
# 3 -0.002653 -0.002653 0.011803 0.000000 0.000000 0.000000
# 4 0.000000 0.000000 0.000000 0.073529 0.000000 0.000000
# 5 0.000000 0.000000 0.000000 0.000000 0.073527 0.000000
# 6 0.000000 0.000000 0.000000 0.000000 0.000000 0.030125
#
#
# Mechanical properties :
#
#
# Convention : Reuss Voigt Hill
#
# Bulk Modulus (GPa) = 80.61651 84.92878 82.77264
# Shear Modulus (GPa) = 20.59136 25.13124 22.86130
#
# Velocity S-wave (km/s) = 3.36071 3.71275 3.54111
# Velocity P-wave (km/s) = 7.69919 8.05996 7.88164
#
# Compressibility (1/GPa) = 0.01240441
#
# Stress axis : x y z
#
# Youngs Moduli (GPa) = 79.51739 79.51762 84.72604
#
# Poissons Ratio (x) = 0.55408 0.22482
# Poissons Ratio (y) = 0.55408 0.22482
# Poissons Ratio (z) = 0.21100 0.21100
#
# Static dielectric constant tensor:
#      x y z
#    x 1.624660 0.000000 0.000000 
#    y 0.000000 1.624660 0.000000 
#    z 0.000000 0.000000 1.690240 
# 
# From -- ./inp_files/5943.got.cif
#   From: 2010.05.17/outbox.cif.g08.bks.cpg/sg97_3_cif.got.tgz:5943.got - 2010.06.03 19:55:32.
