data_PCOD9551831
_publ_section_title
;
Structure prediction by ZEFSAII (Michael W. Deem and Ramdas Pophale) SiO2 
 PCOD9551831
Probable space group: I 41 2 2
;
_chemical_formula_sum "Si O2"
_cell_formula_units_Z 64
_cell_length_a 25.266331
_cell_length_b 25.266331
_cell_length_c 4.939209
_cell_angle_alpha 90.000000
_cell_angle_beta 90.000000
_cell_angle_gamma 90.000000
_cell_volume 3153.129198
_symmetry_space_group_name_H-M "I 41 2 2"
_symmetry_group_IT_number 98
_symmetry_cell_setting 'tetragonal'
loop_
_space_group_symop_operation_xyz
x,y,z
-y,1/2+x,1/4+z
-x,-y,z
y,1/2-x,1/4+z
x,1/2-y,1/4-z
-x,1/2+y,1/4-z
y,x,-z
-y,-x,-z
1/2+x,1/2+y,1/2+z
1/2-y,x,3/4+z
1/2-x,1/2-y,1/2+z
1/2+y,-x,3/4+z
1/2+x,-y,3/4-z
1/2-x,y,3/4-z
1/2+y,1/2+x,1/2-z
1/2-y,1/2-x,1/2-z
loop_
_atom_site_type_symbol
_atom_site_label
_atom_site_fract_x
_atom_site_fract_y
_atom_site_fract_z
Si Si1 0.102504 0.692426 0.239129
Si Si2 0.192641 0.140310 0.243008
Si Si3 0.056044 0.390991 0.489939
Si Si4 0.444966 0.855626 0.236088
O O1 0.116143 0.750000 0.125000
O O2 0.153250 0.653250 0.250000
O O3 0.079259 0.688748 0.538792
O O4 0.057696 0.668050 0.037429
O O5 0.161616 0.161616 0.500000
O O6 0.250000 0.131701 0.375000
O O7 0.162893 0.086743 0.151195
O O8 0.182770 0.182770 0.000000
O O9 0.066585 0.433416 0.250000
O O10 0.998442 0.375734 0.597864
O O11 0.084322 0.415679 0.750000
O O12 0.404974 0.904974 0.250000
#
# Coordination Sequence:
#
# PCOD9551831 Si02
#       4
#    16  16  16  16
#     4  10  21  38  59  86 120 156 199 248 297 352
#     4  10  21  36  54  78 109 143 184 234 285 341
#     4  10  21  38  58  84 116 149 191 241 292 351
#     4  10  21  38  59  86 119 154 195 243 293 352
#
# _framework density 20.297297
#
# number of rings (size 3 to 8) (size 9 to 14) (size 15 to 20)
#    0.000    2.000    0.000    3.000    0.000    3.500 
#    0.000    5.000    0.000    0.000    0.000    0.000 
#    0.000    0.000    0.000    0.000    0.000    0.000 
#
# Total GULP energy -178244.167853 kJ/mol
# GULP energy per Si atom -5570.130245 kJ/mol
# Density = 2.025110 g / cm^3
# Si number density = 20.297297 Si / 1000 Ang^3
#
#
#
# Elastic Constant Matrix: (Units=GPa)
#
#
# Indices 1 2 3 4 5 6 
#
# 1 -43.6261 194.3463 28.7269 0.0000 0.0000 0.0000
# 2 194.3463 -43.6188 28.7217 0.0000 0.0000 0.0000
# 3 28.7269 28.7217 113.4377 0.0000 0.0000 0.0000
# 4 0.0000 0.0000 0.0000 37.0939 0.0000 0.0000
# 5 0.0000 0.0000 0.0000 0.0000 37.0934 0.0000
# 6 0.0000 0.0000 0.0000 0.0000 0.0000 5.6895
#
#
#
# Elastic Compliance Matrix: (Units=1/GPa)
#
#
# Indices 1 2 3 4 5 6 
#
# 1 0.001570 0.005773 -0.001859 0.000000 0.000000 0.000000
# 2 0.005773 0.001571 -0.001860 0.000000 0.000000 0.000000
# 3 -0.001859 -0.001860 0.009757 0.000000 0.000000 0.000000
# 4 0.000000 0.000000 0.000000 0.026959 0.000000 0.000000
# 5 0.000000 0.000000 0.000000 0.000000 0.026959 0.000000
# 6 0.000000 0.000000 0.000000 0.000000 0.000000 0.175763
#
#
# Mechanical properties :
#
#
# Convention : Reuss Voigt Hill
#
# Bulk Modulus (GPa) = 58.80273 58.86474 58.83374
# Shear Modulus (GPa) = 20.48004 0.93521 10.70762
#
# Velocity S-wave (km/s) = 3.17993 0.67953 2.29931
# Velocity P-wave (km/s) = 6.52044 5.44793 6.00817
#
# Compressibility (1/GPa) = 0.01700601
#
# Stress axis : x y z
#
# Youngs Moduli (GPa) = 636.77002 636.64577 102.48933
#
# Poissons Ratio (x) = -3.67524 0.19056
# Poissons Ratio (y) = -3.67595 0.19059
# Poissons Ratio (z) = 1.18397 1.18391
#
# Static dielectric constant tensor:
#      x y z
#    x 1.755720 0.000000 0.000000 
#    y 0.000000 1.755720 0.000000 
#    z 0.000000 0.000000 1.730970 
# 
# From -- ./inp_files/1368.got.cif
#   From: 2010.05.17/outbox.cif.g08.bks.cpg/sg98_1_cif.got.tgz:1368.got - 2010.06.03 20:00:51.
