data_PCOD9551112
_publ_section_title
;
Structure prediction by ZEFSAII (Michael W. Deem and Ramdas Pophale) SiO2 
 PCOD9551112
Probable space group: P 43 21 2
;
_chemical_formula_sum "Si O2"
_cell_formula_units_Z 48
_cell_length_a 8.811238
_cell_length_b 8.811238
_cell_length_c 26.581858
_cell_angle_alpha 90.000000
_cell_angle_beta 90.000000
_cell_angle_gamma 90.000000
_cell_volume 2063.760034
_symmetry_space_group_name_H-M "P 43 21 2"
_symmetry_group_IT_number 96
_symmetry_cell_setting 'tetragonal'
loop_
_space_group_symop_operation_xyz
x,y,z
1/2-y,1/2+x,3/4+z
-x,-y,1/2+z
1/2+y,1/2-x,1/4+z
1/2+x,1/2-y,1/4-z
1/2-x,1/2+y,3/4-z
y,x,-z
-y,-x,1/2-z
loop_
_atom_site_type_symbol
_atom_site_label
_atom_site_fract_x
_atom_site_fract_y
_atom_site_fract_z
Si Si1 0.290722 0.066620 0.717094
Si Si2 0.611639 0.299007 0.361784
Si Si3 0.515335 0.588213 0.550437
Si Si4 0.439843 0.800782 0.266478
Si Si5 0.289640 0.403348 0.809317
Si Si6 0.623743 0.130486 0.546262
O O1 0.250372 0.034211 0.776791
O O2 0.462340 0.123592 0.720225
O O3 0.194018 0.204600 0.693981
O O4 0.197019 0.926756 0.692823
O O5 0.543113 0.411867 0.404230
O O6 0.683016 0.423344 0.324452
O O7 0.715922 0.184774 0.393790
O O8 0.489277 0.202961 0.332162
O O9 0.487802 0.487802 0.500000
O O10 0.297502 0.702499 0.250000
O O11 0.556613 0.683927 0.293197
O O12 0.385851 0.943631 0.299124
O O13 0.179684 0.398490 0.761119
#
# Coordination Sequence:
#
# PCOD9551112 Si02
#       6
#     8   8   8   8   8   8
#     4   8  19  42  63  93 136 179 225 289 353 423
#     4  12  22  39  73  98 143 185 237 307 369 439
#     4   8  18  39  72  84 134 187 231 289 356 436
#     4  11  22  40  70  98 140 189 233 301 368 435
#     4  11  24  45  62 107 139 183 242 302 363 448
#     4  11  23  40  66 101 138 183 234 293 367 439
#
# _framework density 23.258516
#
# number of rings (size 3 to 8) (size 9 to 14) (size 15 to 20)
#    1.000    0.667    3.333    3.500    2.333    1.333 
#    3.000    6.667    0.000    2.000    0.000    0.000 
#    0.000    0.000    0.000    0.000    0.000    0.000 
#
# Total GULP energy -267663.586035 kJ/mol
# GULP energy per Si atom -5576.324709 kJ/mol
# Density = 2.320558 g / cm^3
# Si number density = 23.258516 Si / 1000 Ang^3
#
#
#
# Elastic Constant Matrix: (Units=GPa)
#
#
# Indices 1 2 3 4 5 6 
#
# 1 -81.3093 230.7441 17.9033 0.0000 0.0000 0.0000
# 2 230.7441 -81.3099 17.9027 0.0000 0.0000 0.0000
# 3 17.9033 17.9027 62.8952 0.0000 0.0000 0.0000
# 4 0.0000 0.0000 0.0000 7.9691 0.0000 0.0000
# 5 0.0000 0.0000 0.0000 0.0000 7.9696 0.0000
# 6 0.0000 0.0000 0.0000 0.0000 0.0000 53.2400
#
#
#
# Elastic Compliance Matrix: (Units=1/GPa)
#
#
# Indices 1 2 3 4 5 6 
#
# 1 0.001989 0.005193 -0.002044 0.000000 0.000000 0.000000
# 2 0.005193 0.001989 -0.002044 0.000000 0.000000 0.000000
# 3 -0.002044 -0.002044 0.017063 0.000000 0.000000 0.000000
# 4 0.000000 0.000000 0.000000 0.125485 0.000000 0.000000
# 5 0.000000 0.000000 0.000000 0.000000 0.125477 0.000000
# 6 0.000000 0.000000 0.000000 0.000000 0.000000 0.018783
#
#
# Mechanical properties :
#
#
# Convention : Reuss Voigt Hill
#
# Bulk Modulus (GPa) = 43.01141 48.15291 45.58216
# Shear Modulus (GPa) = 16.87334 -10.58254 3.14540
#
# Velocity S-wave (km/s) = 2.69638 -2.13538 1.16417
# Velocity P-wave (km/s) = 5.31289 3.82995 4.63116
#
# Compressibility (1/GPa) = 0.02324965
#
# Stress axis : x y z
#
# Youngs Moduli (GPa) = 502.87269 502.87402 58.60545
#
# Poissons Ratio (x) = -2.61150 0.11980
# Poissons Ratio (y) = -2.61149 0.11981
# Poissons Ratio (z) = 1.02800 1.02802
#
# Static dielectric constant tensor:
#      x y z
#    x 1.928670 0.000000 0.000000 
#    y 0.000000 1.928680 0.000000 
#    z 0.000000 0.000000 1.878090 
# 
# From -- ./inp_files/4449.got.cif
#   From: 2010.05.17/outbox.cif.g08.bks.cpg/sg96_3_cif.got.tgz:4449.got - 2010.06.03 19:52:08.
