data_PCOD9551855
_publ_section_title
;
Structure prediction by ZEFSAII (Michael W. Deem and Ramdas Pophale) SiO2 
 PCOD9551855
Probable space group: I 41 2 2
;
_chemical_formula_sum "Si O2"
_cell_formula_units_Z 88
_cell_length_a 12.269273
_cell_length_b 12.269273
_cell_length_c 30.933530
_cell_angle_alpha 90.000000
_cell_angle_beta 90.000000
_cell_angle_gamma 90.000000
_cell_volume 4656.580793
_symmetry_space_group_name_H-M "I 41 2 2"
_symmetry_group_IT_number 98
_symmetry_cell_setting 'tetragonal'
loop_
_space_group_symop_operation_xyz
x,y,z
-y,1/2+x,1/4+z
-x,-y,z
y,1/2-x,1/4+z
x,1/2-y,1/4-z
-x,1/2+y,1/4-z
y,x,-z
-y,-x,-z
1/2+x,1/2+y,1/2+z
1/2-y,x,3/4+z
1/2-x,1/2-y,1/2+z
1/2+y,-x,3/4+z
1/2+x,-y,3/4-z
1/2-x,y,3/4-z
1/2+y,1/2+x,1/2-z
1/2-y,1/2-x,1/2-z
loop_
_atom_site_type_symbol
_atom_site_label
_atom_site_fract_x
_atom_site_fract_y
_atom_site_fract_z
Si Si1 0.500000 0.500000 0.628201
Si Si2 0.220157 0.212355 0.075636
Si Si3 0.832975 0.330411 0.488019
Si Si4 0.689304 0.464055 0.420613
Si Si5 0.477203 0.379931 0.793834
Si Si6 0.850702 0.926479 0.205264
O O1 0.428085 0.570386 0.595184
O O2 0.422454 0.433609 0.661169
O O3 0.232590 0.250000 0.125000
O O4 0.092493 0.182788 0.066865
O O5 0.300436 0.111514 0.065647
O O6 0.233364 0.326710 0.049416
O O7 0.784913 0.215088 0.500000
O O8 0.750904 0.393321 0.455726
O O9 0.835702 0.403834 0.531444
O O10 0.950341 0.316101 0.465592
O O11 0.750000 0.457092 0.375000
O O12 0.500000 0.500000 0.814024
O O13 0.427235 0.399625 0.745873
#
# Coordination Sequence:
#
# PCOD9551855 Si02
#       6
#     8  16  16  16  16  16
#     4  12  18  34  53  86 126 156 186 238 311 374
#     4  11  21  35  62  92 109 151 207 253 299 356
#     4  11  23  36  54  88 129 160 189 239 309 374
#     4  11  20  33  56  89 125 154 189 240 312 375
#     4  10  21  39  61  79 112 155 198 246 299 358
#     4  11  18  37  61  78 115 160 198 232 288 372
#
# _framework density 18.897988000000002
#
# number of rings (size 3 to 8) (size 9 to 14) (size 15 to 20)
#    0.000    1.091   10.000    0.545    2.545    0.000 
#    0.000    0.000    8.000    4.364    0.000    0.000 
#    0.000    0.000    0.000    0.000    0.000    0.000 
#
# Total GULP energy -244956.192583 kJ/mol
# GULP energy per Si atom -5567.186195 kJ/mol
# Density = 1.885497 g / cm^3
# Si number density = 18.897988 Si / 1000 Ang^3
#
#
#
# Elastic Constant Matrix: (Units=GPa)
#
#
# Indices 1 2 3 4 5 6 
#
# 1 67.7257 17.6933 12.9590 0.0000 0.0000 0.0000
# 2 17.6933 67.7299 12.9597 0.0000 0.0000 0.0000
# 3 12.9590 12.9597 33.7450 0.0000 0.0000 0.0000
# 4 0.0000 0.0000 0.0000 14.4983 0.0000 0.0000
# 5 0.0000 0.0000 0.0000 0.0000 14.4976 0.0000
# 6 0.0000 0.0000 0.0000 0.0000 0.0000 35.5549
#
#
#
# Elastic Compliance Matrix: (Units=1/GPa)
#
#
# Indices 1 2 3 4 5 6 
#
# 1 0.016619 -0.003368 -0.005089 0.000000 0.000000 0.000000
# 2 -0.003368 0.016618 -0.005089 0.000000 0.000000 0.000000
# 3 -0.005089 -0.005089 0.033543 0.000000 0.000000 0.000000
# 4 0.000000 0.000000 0.000000 0.068973 0.000000 0.000000
# 5 0.000000 0.000000 0.000000 0.000000 0.068977 0.000000
# 6 0.000000 0.000000 0.000000 0.000000 0.000000 0.028126
#
#
# Mechanical properties :
#
#
# Convention : Reuss Voigt Hill
#
# Bulk Modulus (GPa) = 25.19594 28.49164 26.84379
# Shear Modulus (GPa) = 18.30324 21.28274 19.79299
#
# Velocity S-wave (km/s) = 3.11550 3.35952 3.23980
# Velocity P-wave (km/s) = 5.12867 5.49161 5.31324
#
# Compressibility (1/GPa) = 0.03968893
#
# Stress axis : x y z
#
# Youngs Moduli (GPa) = 60.17224 60.17573 29.81289
#
# Poissons Ratio (x) = 0.20266 0.15171
# Poissons Ratio (y) = 0.20264 0.15171
# Poissons Ratio (z) = 0.30620 0.30622
#
# Static dielectric constant tensor:
#      x y z
#    x 1.748340 0.000000 0.000000 
#    y 0.000000 1.748340 0.000000 
#    z 0.000000 0.000000 1.652740 
# 
# From -- ./inp_files/11905.got.cif
#   From: 2010.05.17/outbox.cif.g08.bks.cpg/sg98_6_cif.got.tgz:11905.got - 2010.06.03 20:00:51.
