data_PCOD9551870
_publ_section_title
;
Structure prediction by ZEFSAII (Michael W. Deem and Ramdas Pophale) SiO2 
 PCOD9551870
Probable space group: I 41 2 2
;
_chemical_formula_sum "Si O2"
_cell_formula_units_Z 88
_cell_length_a 11.672240
_cell_length_b 11.672240
_cell_length_c 29.329167
_cell_angle_alpha 90.000000
_cell_angle_beta 90.000000
_cell_angle_gamma 90.000000
_cell_volume 3995.840515
_symmetry_space_group_name_H-M "I 41 2 2"
_symmetry_group_IT_number 98
_symmetry_cell_setting 'tetragonal'
loop_
_space_group_symop_operation_xyz
x,y,z
-y,1/2+x,1/4+z
-x,-y,z
y,1/2-x,1/4+z
x,1/2-y,1/4-z
-x,1/2+y,1/4-z
y,x,-z
-y,-x,-z
1/2+x,1/2+y,1/2+z
1/2-y,x,3/4+z
1/2-x,1/2-y,1/2+z
1/2+y,-x,3/4+z
1/2+x,-y,3/4-z
1/2-x,y,3/4-z
1/2+y,1/2+x,1/2-z
1/2-y,1/2-x,1/2-z
loop_
_atom_site_type_symbol
_atom_site_label
_atom_site_fract_x
_atom_site_fract_y
_atom_site_fract_z
Si Si1 0.875407 0.106792 0.448633
Si Si2 0.576521 0.732712 0.815444
Si Si3 0.270089 0.683715 0.576215
Si Si4 0.641586 0.621169 0.087416
Si Si5 0.482198 0.369271 0.596655
Si Si6 0.242650 0.257351 0.750000
O O1 0.915044 0.084957 0.500000
O O2 0.772435 0.195245 0.451503
O O3 0.984550 0.152383 0.421270
O O4 0.843059 0.988499 0.423963
O O5 0.441531 0.714928 0.821182
O O6 0.635219 0.673929 0.859649
O O7 0.630726 0.704783 0.766664
O O8 0.608824 0.866572 0.819602
O O9 0.269247 0.750000 0.625000
O O10 0.404187 0.658839 0.567515
O O11 0.715380 0.673699 0.046264
O O12 0.500000 0.500000 0.618895
O O13 0.465262 0.250000 0.625000
#
# Coordination Sequence:
#
# PCOD9551870 Si02
#       6
#    16  16  16  16  16   8
#     4  11  22  43  68 100 142 180 242 301 375 426
#     4  11  24  43  69 102 139 187 240 300 364 443
#     4  10  21  41  71 100 135 181 238 298 358 434
#     4  11  22  44  68  98 137 196 229 299 373 439
#     4   9  19  38  65  99 135 181 232 288 360 425
#     4  12  24  41  65  98 144 180 244 280 364 452
#
# _framework density 22.022901999999998
#
# number of rings (size 3 to 8) (size 9 to 14) (size 15 to 20)
#    0.000    1.455    3.636    2.182    0.000    2.909 
#    0.000    3.182    4.000    0.000    0.000    0.000 
#    0.000    0.000    0.000    0.000    0.000    0.000 
#
# Total GULP energy -245061.430355 kJ/mol
# GULP energy per Si atom -5569.577963 kJ/mol
# Density = 2.197278 g / cm^3
# Si number density = 22.022902 Si / 1000 Ang^3
#
#
#
# Elastic Constant Matrix: (Units=GPa)
#
#
# Indices 1 2 3 4 5 6 
#
# 1 65.7002 82.5269 37.2199 0.0000 0.0000 0.0000
# 2 82.5269 65.6974 37.2187 0.0000 0.0000 0.0000
# 3 37.2199 37.2187 115.6054 0.0000 0.0000 0.0000
# 4 0.0000 0.0000 0.0000 21.2913 0.0000 0.0000
# 5 0.0000 0.0000 0.0000 0.0000 21.2919 0.0000
# 6 0.0000 0.0000 0.0000 0.0000 0.0000 41.7809
#
#
#
# Elastic Compliance Matrix: (Units=1/GPa)
#
#
# Indices 1 2 3 4 5 6 
#
# 1 -0.025688 0.033736 -0.002591 0.000000 0.000000 0.000000
# 2 0.033736 -0.025689 -0.002591 0.000000 0.000000 0.000000
# 3 -0.002591 -0.002591 0.010318 0.000000 0.000000 0.000000
# 4 0.000000 0.000000 0.000000 0.046967 0.000000 0.000000
# 5 0.000000 0.000000 0.000000 0.000000 0.046966 0.000000
# 6 0.000000 0.000000 0.000000 0.000000 0.000000 0.023934
#
#
# Mechanical properties :
#
#
# Convention : Reuss Voigt Hill
#
# Bulk Modulus (GPa) = 62.30561 62.32600 62.31581
# Shear Modulus (GPa) = 199.58942 22.87532 111.23237
#
# Velocity S-wave (km/s) = 9.53021 3.22639 7.11458
# Velocity P-wave (km/s) = 12.22508 6.49934 9.79015
#
# Compressibility (1/GPa) = 0.01604992
#
# Stress axis : x y z
#
# Youngs Moduli (GPa) = -38.92886 -38.92737 96.91392
#
# Poissons Ratio (x) = 1.31325 0.25108
# Poissons Ratio (y) = 1.31330 0.25111
# Poissons Ratio (z) = -0.10086 -0.10086
#
# Static dielectric constant tensor:
#      x y z
#    x 1.874100 0.000000 0.000000 
#    y 0.000000 1.874100 0.000000 
#    z 0.000000 0.000000 1.842330 
# 
# From -- ./inp_files/11954.got.cif
#   From: 2010.05.17/outbox.cif.g08.bks.cpg/sg98_6_cif.got.tgz:11954.got - 2010.06.03 20:00:51.
