data_PCOD9551801
_publ_section_title
;
Structure prediction by ZEFSAII (Michael W. Deem and Ramdas Pophale) SiO2 
 PCOD9551801
Probable space group: I 41 2 2
;
_chemical_formula_sum "Si O2"
_cell_formula_units_Z 40
_cell_length_a 9.287071
_cell_length_b 9.287071
_cell_length_c 19.090488
_cell_angle_alpha 90.000000
_cell_angle_beta 90.000000
_cell_angle_gamma 90.000000
_cell_volume 1646.548629
_symmetry_space_group_name_H-M "I 41 2 2"
_symmetry_group_IT_number 98
_symmetry_cell_setting 'tetragonal'
loop_
_space_group_symop_operation_xyz
x,y,z
-y,1/2+x,1/4+z
-x,-y,z
y,1/2-x,1/4+z
x,1/2-y,1/4-z
-x,1/2+y,1/4-z
y,x,-z
-y,-x,-z
1/2+x,1/2+y,1/2+z
1/2-y,x,3/4+z
1/2-x,1/2-y,1/2+z
1/2+y,-x,3/4+z
1/2+x,-y,3/4-z
1/2-x,y,3/4-z
1/2+y,1/2+x,1/2-z
1/2-y,1/2-x,1/2-z
loop_
_atom_site_type_symbol
_atom_site_label
_atom_site_fract_x
_atom_site_fract_y
_atom_site_fract_z
Si Si1 0.366927 0.250000 0.625000
Si Si2 0.649931 0.416196 0.271422
Si Si3 0.167586 0.972133 0.609548
O O1 0.479087 0.264101 0.560083
O O2 0.257677 0.380459 0.636604
O O3 0.500000 0.500000 0.282910
O O4 0.669058 0.412599 0.188564
O O5 0.624977 0.263888 0.308619
O O6 0.000000 0.000000 0.589473
#
# Coordination Sequence:
#
# PCOD9551801 Si02
#       3
#     8  16  16
#     4  10  20  38  66  96 138 186 238 302 362 442
#     4   9  20  38  64  99 138 184 238 297 366 439
#     4  10  21  40  66 100 142 188 240 300 371 452
#
# _framework density 24.293240999999998
#
# number of rings (size 3 to 8) (size 9 to 14) (size 15 to 20)
#    0.000    2.400    0.000    1.200    0.000    3.200 
#    0.000   14.000    0.000   28.800    0.000    0.000 
#    0.000    0.000    0.000    0.000    0.000    0.000 
#
# Total GULP energy -111823.718571 kJ/mol
# GULP energy per Si atom -5591.185929 kJ/mol
# Density = 2.423795 g / cm^3
# Si number density = 24.293241 Si / 1000 Ang^3
#
#
#
# Elastic Constant Matrix: (Units=GPa)
#
#
# Indices 1 2 3 4 5 6 
#
# 1 162.6639 88.0924 45.5702 0.0000 0.0000 0.0000
# 2 88.0924 162.6639 45.5702 0.0000 0.0000 0.0000
# 3 45.5702 45.5702 108.3828 0.0000 0.0000 0.0000
# 4 0.0000 0.0000 0.0000 46.1890 0.0000 0.0000
# 5 0.0000 0.0000 0.0000 0.0000 46.1890 0.0000
# 6 0.0000 0.0000 0.0000 0.0000 0.0000 26.1289
#
#
#
# Elastic Compliance Matrix: (Units=1/GPa)
#
#
# Indices 1 2 3 4 5 6 
#
# 1 0.009059 -0.004351 -0.001979 0.000000 0.000000 0.000000
# 2 -0.004351 0.009059 -0.001979 0.000000 0.000000 0.000000
# 3 -0.001979 -0.001979 0.010891 0.000000 0.000000 0.000000
# 4 0.000000 0.000000 0.000000 0.021650 0.000000 0.000000
# 5 0.000000 0.000000 0.000000 0.000000 0.021650 0.000000
# 6 0.000000 0.000000 0.000000 0.000000 0.000000 0.038272
#
#
# Mechanical properties :
#
#
# Convention : Reuss Voigt Hill
#
# Bulk Modulus (GPa) = 80.71901 88.01956 84.36929
# Shear Modulus (GPa) = 38.07222 40.66657 39.36939
#
# Velocity S-wave (km/s) = 3.96307 4.09588 4.03002
# Velocity P-wave (km/s) = 7.36481 7.66023 7.51397
#
# Compressibility (1/GPa) = 0.01238866
#
# Stress axis : x y z
#
# Youngs Moduli (GPa) = 110.39196 110.39196 91.81983
#
# Poissons Ratio (x) = 0.48035 0.18173
# Poissons Ratio (y) = 0.48035 0.18173
# Poissons Ratio (z) = 0.21849 0.21849
#
# Static dielectric constant tensor:
#      x y z
#    x 1.939910 0.000000 0.000000 
#    y 0.000000 1.939910 0.000000 
#    z 0.000000 0.000000 1.910860 
# 
# From -- ./inp_files/9517.got.cif
#   From: 2010.05.17/outbox.cif.g08.bks.cpg/sg98_5_cif.got.tgz:9517.got - 2010.06.03 20:00:51.
