data_PCOD9551002
_publ_section_title
;
Structure prediction by ZEFSAII (Michael W. Deem and Ramdas Pophale) SiO2 
 PCOD9551002
Probable space group: P 43 21 2
;
_chemical_formula_sum "Si O2"
_cell_formula_units_Z 40
_cell_length_a 15.582553
_cell_length_b 15.582553
_cell_length_c 7.027007
_cell_angle_alpha 90.000000
_cell_angle_beta 90.000000
_cell_angle_gamma 90.000000
_cell_volume 1706.269437
_symmetry_space_group_name_H-M "P 43 21 2"
_symmetry_group_IT_number 96
_symmetry_cell_setting 'tetragonal'
loop_
_space_group_symop_operation_xyz
x,y,z
1/2-y,1/2+x,3/4+z
-x,-y,1/2+z
1/2+y,1/2-x,1/4+z
1/2+x,1/2-y,1/4-z
1/2-x,1/2+y,3/4-z
y,x,-z
-y,-x,1/2-z
loop_
_atom_site_type_symbol
_atom_site_label
_atom_site_fract_x
_atom_site_fract_y
_atom_site_fract_z
Si Si1 0.392070 0.047594 0.494855
Si Si2 0.178109 0.156772 0.272147
Si Si3 0.282082 0.862010 0.029766
Si Si4 0.502380 0.721787 0.470319
Si Si5 0.040148 0.835410 0.183503
O O1 0.461898 0.078847 0.643213
O O2 0.380593 0.119420 0.333626
O O3 0.306392 0.029938 0.611001
O O4 0.168673 0.168673 0.500000
O O5 0.261261 0.214381 0.224119
O O6 0.085288 0.183547 0.190973
O O7 0.189142 0.054888 0.247536
O O8 0.230915 0.893141 0.218993
O O9 0.245701 0.923588 0.867025
O O10 0.539404 0.665834 0.295515
O O11 0.071529 0.928471 0.250000
#
# Coordination Sequence:
#
# PCOD9551002 Si02
#       5
#     8   8   8   8   8
#     4  12  23  42  68 107 149 197 244 314 384 463
#     4  10  22  50  75 106 159 199 250 331 390 451
#     4  12  23  46  77 109 145 197 261 311 391 472
#     4  11  26  47  75 111 150 203 259 315 392 470
#     4  11  25  48  74 105 150 198 251 319 382 458
#
# _framework density 23.442955000000001
#
# number of rings (size 3 to 8) (size 9 to 14) (size 15 to 20)
#    0.000    0.800    6.000    1.800    0.000    3.200 
#   10.800    8.000    0.000    0.000    0.000    0.000 
#    0.000    0.000    0.000    0.000    0.000    0.000 
#
# Total GULP energy -223822.803801 kJ/mol
# GULP energy per Si atom -5595.570095 kJ/mol
# Density = 2.338960 g / cm^3
# Si number density = 23.442955 Si / 1000 Ang^3
#
#
#
# Elastic Constant Matrix: (Units=GPa)
#
#
# Indices 1 2 3 4 5 6 
#
# 1 115.8078 69.4139 9.3773 0.0000 0.0000 0.0000
# 2 69.4139 115.8011 9.3759 0.0000 0.0000 0.0000
# 3 9.3773 9.3759 -125.9883 0.0000 0.0000 0.0000
# 4 0.0000 0.0000 0.0000 3.9896 0.0000 0.0000
# 5 0.0000 0.0000 0.0000 0.0000 3.9881 0.0000
# 6 0.0000 0.0000 0.0000 0.0000 0.0000 48.9790
#
#
#
# Elastic Compliance Matrix: (Units=1/GPa)
#
#
# Indices 1 2 3 4 5 6 
#
# 1 0.013457 -0.008099 0.000399 0.000000 0.000000 0.000000
# 2 -0.008099 0.013458 0.000399 0.000000 0.000000 0.000000
# 3 0.000399 0.000399 -0.007878 0.000000 0.000000 0.000000
# 4 0.000000 0.000000 0.000000 0.250653 0.000000 0.000000
# 5 0.000000 0.000000 0.000000 0.000000 0.250748 0.000000
# 6 0.000000 0.000000 0.000000 0.000000 0.000000 0.020417
#
#
# Mechanical properties :
#
#
# Convention : Reuss Voigt Hill
#
# Bulk Modulus (GPa) = 225.49540 31.32831 128.41186
# Shear Modulus (GPa) = 8.97771 12.55490 10.76630
#
# Velocity S-wave (km/s) = 1.95906 2.31671 2.14535
# Velocity P-wave (km/s) = 10.07547 4.53308 7.81229
#
# Compressibility (1/GPa) = 0.00443468
#
# Stress axis : x y z
#
# Youngs Moduli (GPa) = 74.31091 74.30648 -126.93764
#
# Poissons Ratio (x) = 0.60179 0.05064
# Poissons Ratio (y) = 0.60182 0.05061
# Poissons Ratio (z) = -0.02964 -0.02963
#
# Static dielectric constant tensor:
#      x y z
#    x 1.911690 0.000000 0.000000 
#    y 0.000000 1.911690 0.000000 
#    z 0.000000 0.000000 1.892390 
# 
# From -- ./inp_files/1334.got.cif
#   From: 2010.05.17/outbox.cif.g08.bks.cpg/sg96_1_cif.got.tgz:1334.got - 2010.06.03 19:52:08.
