data_PCOD9551290
_publ_section_title
;
Structure prediction by ZEFSAII (Michael W. Deem and Ramdas Pophale) SiO2 
 PCOD9551290
Probable space group: I 4 2 2 
;
_chemical_formula_sum "Si O2"
_cell_formula_units_Z 52
_cell_length_a 15.725666
_cell_length_b 15.725666
_cell_length_c 8.604775
_cell_angle_alpha 90.000000
_cell_angle_beta 90.000000
_cell_angle_gamma 90.000000
_cell_volume 2127.931353
_symmetry_space_group_name_H-M "I 4 2 2 "
_symmetry_group_IT_number 97
_symmetry_cell_setting 'tetragonal'
loop_
_space_group_symop_operation_xyz
x,y,z
-y,x,z
-x,-y,z
y,-x,z
x,-y,-z
-x,y,-z
y,x,-z
-y,-x,-z
1/2+x,1/2+y,1/2+z
1/2-y,1/2+x,1/2+z
1/2-x,1/2-y,1/2+z
1/2+y,1/2-x,1/2+z
1/2+x,1/2-y,1/2-z
1/2-x,1/2+y,1/2-z
1/2+y,1/2+x,1/2-z
1/2-y,1/2-x,1/2-z
loop_
_atom_site_type_symbol
_atom_site_label
_atom_site_fract_x
_atom_site_fract_y
_atom_site_fract_z
Si Si1 0.615113 0.687018 0.342587
Si Si2 0.000000 0.500000 0.000000
Si Si3 0.363067 0.874206 0.993291
Si Si4 0.746655 0.434216 0.779142
O O1 0.628720 0.628720 0.500000
O O2 0.644813 0.781527 0.389610
O O3 0.677701 0.640369 0.227405
O O4 0.522247 0.701048 0.268451
O O5 0.063939 0.566410 0.079925
O O6 0.415092 0.795818 0.062291
O O7 0.316095 0.919154 0.141254
#
# Coordination Sequence:
#
# PCOD9551290 Si02
#       4
#    16   4  16  16
#     4  10  19  41  62  92 132 165 222 278 313 398
#     4  12  20  42  64  84 136 158 220 286 316 416
#     4  10  21  39  58  92 127 167 212 273 337 386
#     4  10  21  39  63  93 128 172 219 265 334 388
#
# _framework density 24.436876000000002
#
# number of rings (size 3 to 8) (size 9 to 14) (size 15 to 20)
#    0.000    1.846    3.077    2.769    0.000    3.077 
#   27.692    4.615    0.000    0.000    0.000    0.000 
#    0.000    0.000    0.000    0.000    0.000    0.000 
#
# Total GULP energy -145138.530511 kJ/mol
# GULP energy per Si atom -5582.251174 kJ/mol
# Density = 2.438126 g / cm^3
# Si number density = 24.436876 Si / 1000 Ang^3
#
#
#
# Elastic Constant Matrix: (Units=GPa)
#
#
# Indices 1 2 3 4 5 6 
#
# 1 194.6278 131.0380 67.1842 0.0000 0.0000 0.0000
# 2 131.0380 194.6278 67.1842 0.0000 0.0000 0.0000
# 3 67.1842 67.1842 57.5984 0.0000 0.0000 0.0000
# 4 0.0000 0.0000 0.0000 4.4451 0.0000 0.0000
# 5 0.0000 0.0000 0.0000 0.0000 4.4451 0.0000
# 6 0.0000 0.0000 0.0000 0.0000 0.0000 63.7610
#
#
#
# Elastic Compliance Matrix: (Units=1/GPa)
#
#
# Indices 1 2 3 4 5 6 
#
# 1 0.010823 -0.004903 -0.006905 0.000000 0.000000 0.000000
# 2 -0.004903 0.010823 -0.006905 0.000000 0.000000 0.000000
# 3 -0.006905 -0.006905 0.033469 0.000000 0.000000 0.000000
# 4 0.000000 0.000000 0.000000 0.224965 0.000000 0.000000
# 5 0.000000 0.000000 0.000000 0.000000 0.224965 0.000000
# 6 0.000000 0.000000 0.000000 0.000000 0.000000 0.015684
#
#
# Mechanical properties :
#
#
# Convention : Reuss Voigt Hill
#
# Bulk Modulus (GPa) = 56.53068 108.62962 82.58015
# Shear Modulus (GPa) = 8.86448 26.62675 17.74561
#
# Velocity S-wave (km/s) = 1.90667 3.30451 2.69770
# Velocity P-wave (km/s) = 5.29441 7.68826 6.60076
#
# Compressibility (1/GPa) = 0.01768951
#
# Stress axis : x y z
#
# Youngs Moduli (GPa) = 92.39914 92.39914 29.87844
#
# Poissons Ratio (x) = 0.45305 0.20630
# Poissons Ratio (y) = 0.45305 0.20630
# Poissons Ratio (z) = 0.63798 0.63798
#
# Static dielectric constant tensor:
#      x y z
#    x 1.950800 0.000000 0.000000 
#    y 0.000000 1.950800 0.000000 
#    z 0.000000 0.000000 2.034810 
# 
# From -- ./inp_files/1750.got.cif
#   From: 2010.05.17/outbox.cif.g08.bks.cpg/sg97_1_cif.got.tgz:1750.got - 2010.06.03 19:55:32.
