data_PCOD9551770
_publ_section_title
;
Structure prediction by ZEFSAII (Michael W. Deem and Ramdas Pophale) SiO2 
 PCOD9551770
Probable space group: I 41 2 2
;
_chemical_formula_sum "Si O2"
_cell_formula_units_Z 52
_cell_length_a 15.028122
_cell_length_b 15.028122
_cell_length_c 11.827569
_cell_angle_alpha 90.000000
_cell_angle_beta 90.000000
_cell_angle_gamma 90.000000
_cell_volume 2671.190826
_symmetry_space_group_name_H-M "I 41 2 2"
_symmetry_group_IT_number 98
_symmetry_cell_setting 'tetragonal'
loop_
_space_group_symop_operation_xyz
x,y,z
-y,1/2+x,1/4+z
-x,-y,z
y,1/2-x,1/4+z
x,1/2-y,1/4-z
-x,1/2+y,1/4-z
y,x,-z
-y,-x,-z
1/2+x,1/2+y,1/2+z
1/2-y,x,3/4+z
1/2-x,1/2-y,1/2+z
1/2+y,-x,3/4+z
1/2+x,-y,3/4-z
1/2-x,y,3/4-z
1/2+y,1/2+x,1/2-z
1/2-y,1/2-x,1/2-z
loop_
_atom_site_type_symbol
_atom_site_label
_atom_site_fract_x
_atom_site_fract_y
_atom_site_fract_z
Si Si1 0.500000 0.000000 0.250000
Si Si2 0.195492 0.991748 0.553674
Si Si3 0.710955 0.289046 0.000000
Si Si4 0.141431 0.250000 0.625000
Si Si5 0.902739 0.765631 0.995040
O O1 0.494456 0.910698 0.323798
O O2 0.223405 0.896115 0.507183
O O3 0.212387 0.072912 0.467391
O O4 0.248691 0.014128 0.666193
O O5 0.750000 0.260302 0.875000
O O6 0.202772 0.176014 0.688610
O O7 0.921274 0.750000 0.125000
O O8 0.863972 0.863972 0.000000
#
# Coordination Sequence:
#
# PCOD9551770 Si02
#       5
#     4  16   8   8  16
#     4  10  20  36  60  84 122 160 214 274 294 382
#     4  11  22  38  61  93 122 169 218 268 327 398
#     4  11  26  47  72  92 115 170 237 294 340 390
#     4  12  18  36  58  92 132 168 210 246 320 420
#     4  12  21  32  57  95 139 175 200 258 334 412
#
# _framework density 19.466971999999998
#
# number of rings (size 3 to 8) (size 9 to 14) (size 15 to 20)
#    0.000    0.615    9.231    0.000    0.000    1.231 
#    0.000    0.000    0.000    0.000    0.000    0.000 
#    0.000    0.000    0.000    0.000    0.000    0.000 
#
# Total GULP energy -144851.118025 kJ/mol
# GULP energy per Si atom -5571.196847 kJ/mol
# Density = 1.942266 g / cm^3
# Si number density = 19.466972 Si / 1000 Ang^3
#
#
#
# Elastic Constant Matrix: (Units=GPa)
#
#
# Indices 1 2 3 4 5 6 
#
# 1 81.2306 -23.9491 31.7964 0.0000 0.0000 0.0000
# 2 -23.9491 81.2318 31.7973 0.0000 0.0000 0.0000
# 3 31.7964 31.7973 165.3097 0.0000 0.0000 0.0000
# 4 0.0000 0.0000 0.0000 35.2097 0.0000 0.0000
# 5 0.0000 0.0000 0.0000 0.0000 35.2101 0.0000
# 6 0.0000 0.0000 0.0000 0.0000 0.0000 20.8420
#
#
#
# Elastic Compliance Matrix: (Units=1/GPa)
#
#
# Indices 1 2 3 4 5 6 
#
# 1 0.015853 0.006345 -0.004270 0.000000 0.000000 0.000000
# 2 0.006345 0.015852 -0.004270 0.000000 0.000000 0.000000
# 3 -0.004270 -0.004270 0.007692 0.000000 0.000000 0.000000
# 4 0.000000 0.000000 0.000000 0.028401 0.000000 0.000000
# 5 0.000000 0.000000 0.000000 0.000000 0.028401 0.000000
# 6 0.000000 0.000000 0.000000 0.000000 0.000000 0.047980
#
#
# Mechanical properties :
#
#
# Convention : Reuss Voigt Hill
#
# Bulk Modulus (GPa) = 28.56465 45.22903 36.89684
# Shear Modulus (GPa) = 31.20381 37.46086 34.33234
#
# Velocity S-wave (km/s) = 4.00798 4.39148 4.20410
# Velocity P-wave (km/s) = 6.01031 6.99983 6.52385
#
# Compressibility (1/GPa) = 0.03500831
#
# Stress axis : x y z
#
# Youngs Moduli (GPa) = 63.08113 63.08183 130.00935
#
# Poissons Ratio (x) = -0.40026 0.55509
# Poissons Ratio (y) = -0.40025 0.55509
# Poissons Ratio (z) = 0.26933 0.26934
#
# Static dielectric constant tensor:
#      x y z
#    x 1.615810 0.000000 0.000000 
#    y 0.000000 1.615810 0.000000 
#    z 0.000000 0.000000 1.685750 
# 
# From -- ./inp_files/4705.got.cif
#   From: 2010.05.17/outbox.cif.g08.bks.cpg/sg98_3_cif.got.tgz:4705.got - 2010.06.03 20:00:51.
