data_PCOD9551535
_publ_section_title
;
Structure prediction by ZEFSAII (Michael W. Deem and Ramdas Pophale) SiO2 
 PCOD9551535
Probable space group: I 4 2 2 
;
_chemical_formula_sum "Si O2"
_cell_formula_units_Z 112
_cell_length_a 14.350713
_cell_length_b 14.350713
_cell_length_c 25.669632
_cell_angle_alpha 90.000000
_cell_angle_beta 90.000000
_cell_angle_gamma 90.000000
_cell_volume 5286.480089
_symmetry_space_group_name_H-M "I 4 2 2 "
_symmetry_group_IT_number 97
_symmetry_cell_setting 'tetragonal'
loop_
_space_group_symop_operation_xyz
x,y,z
-y,x,z
-x,-y,z
y,-x,z
x,-y,-z
-x,y,-z
y,x,-z
-y,-x,-z
1/2+x,1/2+y,1/2+z
1/2-y,1/2+x,1/2+z
1/2-x,1/2-y,1/2+z
1/2+y,1/2-x,1/2+z
1/2+x,1/2-y,1/2-z
1/2-x,1/2+y,1/2-z
1/2+y,1/2+x,1/2-z
1/2-y,1/2-x,1/2-z
loop_
_atom_site_type_symbol
_atom_site_label
_atom_site_fract_x
_atom_site_fract_y
_atom_site_fract_z
Si Si1 0.746223 0.103708 0.521258
Si Si2 0.217234 0.157553 0.310877
Si Si3 0.388257 0.111744 0.250000
Si Si4 0.545697 0.645690 0.111026
Si Si5 0.097770 0.122592 0.214859
Si Si6 0.256843 0.105178 0.979905
Si Si7 0.277724 0.846593 0.142307
Si Si8 0.608332 0.891668 0.750000
O O1 0.827721 0.172280 0.500000
O O2 0.765296 0.082052 0.581010
O O3 0.650714 0.153511 0.507997
O O4 0.755043 0.000000 0.500000
O O5 0.325687 0.151878 0.296980
O O6 0.173694 0.060057 0.329647
O O7 0.154481 0.177636 0.259957
O O8 0.205533 0.236000 0.354537
O O9 0.497824 0.127083 0.246155
O O10 0.442983 0.610852 0.099254
O O11 0.128224 0.174353 0.162382
O O12 0.985817 0.126310 0.217588
O O13 0.279793 0.116704 0.917483
O O14 0.170417 0.170417 0.000000
O O15 0.243012 0.000000 0.000000
O O16 0.344517 0.874447 0.192083
#
# Coordination Sequence:
#
# PCOD9551535 Si02
#       8
#    16  16   8  16  16  16  16   8
#     4  11  22  43  70 103 140 185 237 296 369 444
#     4  12  22  40  64 102 144 187 222 281 358 433
#     4  11  25  42  64  98 153 191 234 282 356 443
#     4  11  24  38  67 104 141 188 236 291 358 443
#     4  11  23  40  67 102 138 179 225 286 368 442
#     4  11  29  52  74 106 140 194 263 321 384 443
#     4  12  25  44  73  98 141 182 238 305 363 442
#     4  11  25  44  68 106 139 191 246 290 364 451
#
# _framework density 21.186121
#
# number of rings (size 3 to 8) (size 9 to 14) (size 15 to 20)
#    0.000    0.714    4.286    3.429    4.000    2.857 
#    0.000    1.429    0.000    0.000    0.000    0.000 
#    0.000    0.000    0.000    0.000    0.000    0.000 
#
# Total GULP energy -311866.779935 kJ/mol
# GULP energy per Si atom -5569.049642 kJ/mol
# Density = 2.113790 g / cm^3
# Si number density = 21.186121 Si / 1000 Ang^3
#
#
#
# Elastic Constant Matrix: (Units=GPa)
#
#
# Indices 1 2 3 4 5 6 
#
# 1 104.5967 37.8019 41.9226 0.0000 0.0000 0.0000
# 2 37.8019 104.5963 41.9229 0.0000 0.0000 0.0000
# 3 41.9226 41.9229 122.5562 0.0000 0.0000 0.0000
# 4 0.0000 0.0000 0.0000 11.7285 0.0000 0.0000
# 5 0.0000 0.0000 0.0000 0.0000 11.7199 0.0000
# 6 0.0000 0.0000 0.0000 0.0000 0.0000 28.6223
#
#
#
# Elastic Compliance Matrix: (Units=1/GPa)
#
#
# Indices 1 2 3 4 5 6 
#
# 1 0.011882 -0.003089 -0.003008 0.000000 0.000000 0.000000
# 2 -0.003089 0.011883 -0.003008 0.000000 0.000000 0.000000
# 3 -0.003008 -0.003008 0.010217 0.000000 0.000000 0.000000
# 4 0.000000 0.000000 0.000000 0.085262 0.000000 0.000000
# 5 0.000000 0.000000 0.000000 0.000000 0.085325 0.000000
# 6 0.000000 0.000000 0.000000 0.000000 0.000000 0.034938
#
#
# Mechanical properties :
#
#
# Convention : Reuss Voigt Hill
#
# Bulk Modulus (GPa) = 63.40091 63.89379 63.64735
# Shear Modulus (GPa) = 19.01322 24.42092 21.71707
#
# Velocity S-wave (km/s) = 2.99898 3.39880 3.20513
# Velocity P-wave (km/s) = 6.47939 6.75472 6.61849
#
# Compressibility (1/GPa) = 0.01577265
#
# Stress axis : x y z
#
# Youngs Moduli (GPa) = 84.15764 84.15708 97.87171
#
# Poissons Ratio (x) = 0.25994 0.29440
# Poissons Ratio (y) = 0.25994 0.29441
# Poissons Ratio (z) = 0.25315 0.25315
#
# Static dielectric constant tensor:
#      x y z
#    x 1.805410 0.000000 0.000000 
#    y 0.000000 1.805400 0.000000 
#    z 0.000000 0.000000 1.800280 
# 
# From -- ./inp_files/7717.got.cif
#   From: 2010.05.17/outbox.cif.g08.bks.cpg/sg97_4_cif.got.tgz:7717.got - 2010.06.03 19:55:32.
