data_PCOD9551084
_publ_section_title
;
Structure prediction by ZEFSAII (Michael W. Deem and Ramdas Pophale) SiO2 
 PCOD9551084
Probable space group: P 43 21 2
;
_chemical_formula_sum "Si O2"
_cell_formula_units_Z 28
_cell_length_a 10.809747
_cell_length_b 10.809747
_cell_length_c 9.025741
_cell_angle_alpha 90.000000
_cell_angle_beta 90.000000
_cell_angle_gamma 90.000000
_cell_volume 1054.663524
_symmetry_space_group_name_H-M "P 43 21 2"
_symmetry_group_IT_number 96
_symmetry_cell_setting 'tetragonal'
loop_
_space_group_symop_operation_xyz
x,y,z
1/2-y,1/2+x,3/4+z
-x,-y,1/2+z
1/2+y,1/2-x,1/4+z
1/2+x,1/2-y,1/4-z
1/2-x,1/2+y,3/4-z
y,x,-z
-y,-x,1/2-z
loop_
_atom_site_type_symbol
_atom_site_label
_atom_site_fract_x
_atom_site_fract_y
_atom_site_fract_z
Si Si1 0.124360 0.770454 0.446234
Si Si2 0.607875 0.143340 0.269697
Si Si3 0.037352 0.037352 0.500000
Si Si4 0.096500 0.266713 0.293887
O O1 0.145633 0.718071 0.613195
O O2 0.265832 0.791916 0.396283
O O3 0.021052 0.670361 0.394193
O O4 0.059970 0.902316 0.435725
O O5 0.631407 0.011732 0.187270
O O6 0.607057 0.239599 0.134484
O O7 0.054709 0.141788 0.374069
#
# Coordination Sequence:
#
# PCOD9551084 Si02
#       4
#     8   8   4   8
#     4  11  26  50  81 122 158 224 276 355 420 505
#     4  10  25  48  84 112 163 220 272 341 436 490
#     4  12  28  44  78 118 166 210 290 352 414 504
#     4  11  24  50  77 116 165 217 282 350 407 515
#
# _framework density 26.548755
#
# number of rings (size 3 to 8) (size 9 to 14) (size 15 to 20)
#    0.000    1.143    2.857    0.857   12.000    4.571 
#    5.143    0.000    0.000    0.000    0.000    0.000 
#    0.000    0.000    0.000    0.000    0.000    0.000 
#
# Total GULP energy -156314.574388 kJ/mol
# GULP energy per Si atom -5582.663371 kJ/mol
# Density = 2.648833 g / cm^3
# Si number density = 26.548755 Si / 1000 Ang^3
#
#
#
# Elastic Constant Matrix: (Units=GPa)
#
#
# Indices 1 2 3 4 5 6 
#
# 1 173.5035 124.2595 5.5917 0.0000 0.0000 0.0000
# 2 124.2595 173.5035 5.5917 0.0000 0.0000 0.0000
# 3 5.5917 5.5917 64.9235 0.0000 0.0000 0.0000
# 4 0.0000 0.0000 0.0000 35.2752 0.0000 0.0000
# 5 0.0000 0.0000 0.0000 0.0000 35.2752 0.0000
# 6 0.0000 0.0000 0.0000 0.0000 0.0000 53.7320
#
#
#
# Elastic Compliance Matrix: (Units=1/GPa)
#
#
# Indices 1 2 3 4 5 6 
#
# 1 0.011838 -0.008469 -0.000290 0.000000 0.000000 0.000000
# 2 -0.008469 0.011838 -0.000290 0.000000 0.000000 0.000000
# 3 -0.000290 -0.000290 0.015453 0.000000 0.000000 0.000000
# 4 0.000000 0.000000 0.000000 0.028349 0.000000 0.000000
# 5 0.000000 0.000000 0.000000 0.000000 0.028349 0.000000
# 6 0.000000 0.000000 0.000000 0.000000 0.000000 0.018611
#
#
# Mechanical properties :
#
#
# Convention : Reuss Voigt Hill
#
# Bulk Modulus (GPa) = 47.54993 75.86849 61.70921
# Shear Modulus (GPa) = 35.83058 43.28900 39.55979
#
# Velocity S-wave (km/s) = 3.67770 4.04238 3.86434
# Velocity P-wave (km/s) = 5.99860 7.10119 6.57306
#
# Compressibility (1/GPa) = 0.02103053
#
# Stress axis : x y z
#
# Youngs Moduli (GPa) = 84.47267 84.47267 64.71348
#
# Poissons Ratio (x) = 0.71539 0.01878
# Poissons Ratio (y) = 0.71539 0.01878
# Poissons Ratio (z) = 0.02451 0.02451
#
# Static dielectric constant tensor:
#      x y z
#    x 2.185230 0.000000 0.000000 
#    y 0.000000 2.185230 0.000000 
#    z 0.000000 0.000000 2.139430 
# 
# From -- ./inp_files/1881.got.cif
#   From: 2010.05.17/outbox.cif.g08.bks.cpg/sg96_1_cif.got.tgz:1881.got - 2010.06.03 19:52:08.
