data_PCOD9551328
_publ_section_title
;
Structure prediction by ZEFSAII (Michael W. Deem and Ramdas Pophale) SiO2 
 PCOD9551328
Probable space group: I 4 2 2 
;
_chemical_formula_sum "Si O2"
_cell_formula_units_Z 88
_cell_length_a 18.688627
_cell_length_b 18.688627
_cell_length_c 13.917981
_cell_angle_alpha 90.000000
_cell_angle_beta 90.000000
_cell_angle_gamma 90.000000
_cell_volume 4861.060560
_symmetry_space_group_name_H-M "I 4 2 2 "
_symmetry_group_IT_number 97
_symmetry_cell_setting 'tetragonal'
loop_
_space_group_symop_operation_xyz
x,y,z
-y,x,z
-x,-y,z
y,-x,z
x,-y,-z
-x,y,-z
y,x,-z
-y,-x,-z
1/2+x,1/2+y,1/2+z
1/2-y,1/2+x,1/2+z
1/2-x,1/2-y,1/2+z
1/2+y,1/2-x,1/2+z
1/2+x,1/2-y,1/2-z
1/2-x,1/2+y,1/2-z
1/2+y,1/2+x,1/2-z
1/2-y,1/2-x,1/2-z
loop_
_atom_site_type_symbol
_atom_site_label
_atom_site_fract_x
_atom_site_fract_y
_atom_site_fract_z
Si Si1 0.369095 0.248796 0.735862
Si Si2 0.788122 0.552561 0.082551
Si Si3 0.303101 0.582561 0.528635
Si Si4 0.336535 0.147042 0.056479
Si Si5 0.572007 0.040202 0.639383
Si Si6 0.212002 0.712002 0.250000
O O1 0.331440 0.168561 0.750000
O O2 0.423631 0.255862 0.824350
O O3 0.406915 0.271858 0.637062
O O4 0.297486 0.296775 0.739665
O O5 0.859298 0.510390 0.119618
O O6 0.756924 0.500000 0.000000
O O7 0.808024 0.626102 0.027562
O O8 0.308402 0.500000 0.500000
O O9 0.375338 0.624663 0.500000
O O10 0.241570 0.621529 0.467896
O O11 0.390048 0.081917 0.075079
O O12 0.331197 0.188740 0.156587
O O13 0.564226 0.064226 0.750000
O O14 0.500000 0.000000 0.614686
#
# Coordination Sequence:
#
# PCOD9551328 Si02
#       6
#    16  16  16  16  16   8
#     4  10  21  39  63  88 124 161 211 267 320 387
#     4  10  23  37  55  86 129 166 207 256 317 375
#     4  12  26  41  66  94 121 165 223 275 337 387
#     4  11  21  38  59  92 121 173 212 258 310 396
#     4  10  23  33  52  83 130 171 208 238 302 381
#     4  10  20  36  67  86 129 158 226 264 318 380
#
# _framework density 18.103045000000002
#
# number of rings (size 3 to 8) (size 9 to 14) (size 15 to 20)
#    0.545    0.909    4.545    0.000    7.636    2.727 
#    0.000    0.000    0.000    0.000    0.000    0.000 
#    0.000    0.000    0.000    0.000    0.000    0.000 
#
# Total GULP energy -245182.158996 kJ/mol
# GULP energy per Si atom -5572.321795 kJ/mol
# Density = 1.806184 g / cm^3
# Si number density = 18.103045 Si / 1000 Ang^3
#
#
#
# Elastic Constant Matrix: (Units=GPa)
#
#
# Indices 1 2 3 4 5 6 
#
# 1 61.5285 19.4994 37.3029 0.0000 0.0000 0.0000
# 2 19.4994 61.5359 37.3032 0.0000 0.0000 0.0000
# 3 37.3029 37.3032 142.0920 0.0000 0.0000 0.0000
# 4 0.0000 0.0000 0.0000 21.4238 0.0000 0.0000
# 5 0.0000 0.0000 0.0000 0.0000 21.4226 0.0000
# 6 0.0000 0.0000 0.0000 0.0000 0.0000 18.0693
#
#
#
# Elastic Compliance Matrix: (Units=1/GPa)
#
#
# Indices 1 2 3 4 5 6 
#
# 1 0.020034 -0.003758 -0.004273 0.000000 0.000000 0.000000
# 2 -0.003758 0.020031 -0.004272 0.000000 0.000000 0.000000
# 3 -0.004273 -0.004272 0.009281 0.000000 0.000000 0.000000
# 4 0.000000 0.000000 0.000000 0.046677 0.000000 0.000000
# 5 0.000000 0.000000 0.000000 0.000000 0.046680 0.000000
# 6 0.000000 0.000000 0.000000 0.000000 0.000000 0.055342
#
#
# Mechanical properties :
#
#
# Convention : Reuss Voigt Hill
#
# Bulk Modulus (GPa) = 40.42024 50.37417 45.39720
# Shear Modulus (GPa) = 21.65449 23.58653 22.62051
#
# Velocity S-wave (km/s) = 3.46233 3.61349 3.53872
# Velocity P-wave (km/s) = 6.19355 6.73027 6.46748
#
# Compressibility (1/GPa) = 0.02474008
#
# Stress axis : x y z
#
# Youngs Moduli (GPa) = 49.91470 49.92169 107.74697
#
# Poissons Ratio (x) = 0.18761 0.46039
# Poissons Ratio (y) = 0.18759 0.46032
# Poissons Ratio (z) = 0.21328 0.21327
#
# Static dielectric constant tensor:
#      x y z
#    x 1.622320 0.000000 0.000000 
#    y 0.000000 1.622320 0.000000 
#    z 0.000000 0.000000 1.802330 
# 
# From -- ./inp_files/4880.got.cif
#   From: 2010.05.17/outbox.cif.g08.bks.cpg/sg97_3_cif.got.tgz:4880.got - 2010.06.03 19:55:32.
