data_PCOD9551206
_publ_section_title
;
Structure prediction by ZEFSAII (Michael W. Deem and Ramdas Pophale) SiO2 
 PCOD9551206
Probable space group: I 4 2 2 
;
_chemical_formula_sum "Si O2"
_cell_formula_units_Z 52
_cell_length_a 16.012265
_cell_length_b 16.012265
_cell_length_c 10.066183
_cell_angle_alpha 90.000000
_cell_angle_beta 90.000000
_cell_angle_gamma 90.000000
_cell_volume 2580.895138
_symmetry_space_group_name_H-M "I 4 2 2 "
_symmetry_group_IT_number 97
_symmetry_cell_setting 'tetragonal'
loop_
_space_group_symop_operation_xyz
x,y,z
-y,x,z
-x,-y,z
y,-x,z
x,-y,-z
-x,y,-z
y,x,-z
-y,-x,-z
1/2+x,1/2+y,1/2+z
1/2-y,1/2+x,1/2+z
1/2-x,1/2-y,1/2+z
1/2+y,1/2-x,1/2+z
1/2+x,1/2-y,1/2-z
1/2-x,1/2+y,1/2-z
1/2+y,1/2+x,1/2-z
1/2-y,1/2-x,1/2-z
loop_
_atom_site_type_symbol
_atom_site_label
_atom_site_fract_x
_atom_site_fract_y
_atom_site_fract_z
Si Si1 0.085047 0.897031 0.339689
Si Si2 0.000000 0.500000 0.500000
Si Si3 0.656518 0.084571 0.370847
Si Si4 0.216030 0.397054 0.840563
O O1 0.093878 0.906123 0.500000
O O2 0.126980 0.810239 0.302270
O O3 0.988437 0.887585 0.295174
O O4 0.056610 0.437562 0.413620
O O5 0.647497 0.147497 0.250000
O O6 0.699682 0.119599 0.503165
O O7 0.700930 0.997320 0.332105
O O8 0.149893 0.350108 0.750000
#
# Coordination Sequence:
#
# PCOD9551206 Si02
#       4
#    16   4  16  16
#     4   9  17  34  57  77 102 142 187 221 258 320
#     4   8  14  24  40  62  94 142 188 216 250 316
#     4  10  17  28  46  72 109 150 180 209 267 342
#     4  10  20  32  52  82 110 134 175 232 274 310
#
# _framework density 20.148049
#
# number of rings (size 3 to 8) (size 9 to 14) (size 15 to 20)
#    0.000    2.769    0.000    8.769    0.000    0.000 
#    0.000    6.154    0.000    0.000    0.000    0.000 
#    0.000   36.923    0.000    0.000    0.000    0.000 
#
# Total GULP energy -144925.925216 kJ/mol
# GULP energy per Si atom -5574.074047 kJ/mol
# Density = 2.010219 g / cm^3
# Si number density = 20.148049 Si / 1000 Ang^3
#
#
#
# Elastic Constant Matrix: (Units=GPa)
#
#
# Indices 1 2 3 4 5 6 
#
# 1 84.2540 19.2412 29.2141 0.0000 0.0000 0.0000
# 2 19.2412 84.2476 29.2173 0.0000 0.0000 0.0000
# 3 29.2141 29.2173 68.6102 0.0000 0.0000 0.0000
# 4 0.0000 0.0000 0.0000 3.8648 0.0000 0.0000
# 5 0.0000 0.0000 0.0000 0.0000 3.8652 0.0000
# 6 0.0000 0.0000 0.0000 0.0000 0.0000 -9.2042
#
#
#
# Elastic Compliance Matrix: (Units=1/GPa)
#
#
# Indices 1 2 3 4 5 6 
#
# 1 0.014051 -0.001331 -0.005416 0.000000 0.000000 0.000000
# 2 -0.001331 0.014053 -0.005418 0.000000 0.000000 0.000000
# 3 -0.005416 -0.005418 0.019188 0.000000 0.000000 0.000000
# 4 0.000000 0.000000 0.000000 0.258747 0.000000 0.000000
# 5 0.000000 0.000000 0.000000 0.000000 0.258716 0.000000
# 6 0.000000 0.000000 0.000000 0.000000 0.000000 -0.108646
#
#
# Mechanical properties :
#
#
# Convention : Reuss Voigt Hill
#
# Bulk Modulus (GPa) = 43.54872 43.60632 43.57752
# Shear Modulus (GPa) = 10.24396 10.33444 10.28920
#
# Velocity S-wave (km/s) = 2.25730 2.26724 2.26227
# Velocity P-wave (km/s) = 5.33433 5.34264 5.33849
#
# Compressibility (1/GPa) = 0.02296279
#
# Stress axis : x y z
#
# Youngs Moduli (GPa) = 71.17065 71.16162 52.11506
#
# Poissons Ratio (x) = 0.09470 0.28226
# Poissons Ratio (y) = 0.09471 0.28234
# Poissons Ratio (z) = 0.38547 0.38552
#
# Static dielectric constant tensor:
#      x y z
#    x 1.752160 0.000000 0.000000 
#    y 0.000000 1.752160 0.000000 
#    z 0.000000 0.000000 1.702720 
# 
# From -- ./inp_files/3346.got.cif
#   From: 2010.05.17/outbox.cif.g08.bks.cpg/sg97_2_cif.got.tgz:3346.got - 2010.06.03 19:55:32.
