data_PCOD9551863
_publ_section_title
;
Structure prediction by ZEFSAII (Michael W. Deem and Ramdas Pophale) SiO2 
 PCOD9551863
Probable space group: I 41 2 2
;
_chemical_formula_sum "Si O2"
_cell_formula_units_Z 96
_cell_length_a 22.486160
_cell_length_b 22.486160
_cell_length_c 9.362438
_cell_angle_alpha 90.000000
_cell_angle_beta 90.000000
_cell_angle_gamma 90.000000
_cell_volume 4733.905104
_symmetry_space_group_name_H-M "I 41 2 2"
_symmetry_group_IT_number 98
_symmetry_cell_setting 'tetragonal'
loop_
_space_group_symop_operation_xyz
x,y,z
-y,1/2+x,1/4+z
-x,-y,z
y,1/2-x,1/4+z
x,1/2-y,1/4-z
-x,1/2+y,1/4-z
y,x,-z
-y,-x,-z
1/2+x,1/2+y,1/2+z
1/2-y,x,3/4+z
1/2-x,1/2-y,1/2+z
1/2+y,-x,3/4+z
1/2+x,-y,3/4-z
1/2-x,y,3/4-z
1/2+y,1/2+x,1/2-z
1/2-y,1/2-x,1/2-z
loop_
_atom_site_type_symbol
_atom_site_label
_atom_site_fract_x
_atom_site_fract_y
_atom_site_fract_z
Si Si1 0.412935 0.505582 0.431404
Si Si2 0.388094 0.808549 0.027382
Si Si3 0.465200 0.276829 0.781016
Si Si4 0.909879 0.937164 0.661992
Si Si5 0.276753 0.891215 0.026778
Si Si6 0.334528 0.017820 0.568899
O O1 0.457506 0.457506 0.500000
O O2 0.432521 0.567480 0.500000
O O3 0.421006 0.495719 0.263106
O O4 0.352100 0.492990 0.513363
O O5 0.389283 0.750000 0.125000
O O6 0.337669 0.856662 0.062323
O O7 0.373993 0.777330 0.878494
O O8 0.454834 0.834023 0.012856
O O9 0.447485 0.250000 0.625000
O O10 0.433845 0.338628 0.821880
O O11 0.537269 0.286760 0.781784
O O12 0.455305 0.230458 0.910385
O O13 0.934108 0.934108 0.500000
O O14 0.940375 0.882362 0.744488
O O15 0.250000 0.876072 0.875000
#
# Coordination Sequence:
#
# PCOD9551863 Si02
#       6
#    16  16  16  16  16  16
#     4   9  19  38  61  90 126 170 215 263 323 397
#     4  11  24  40  60  90 131 176 221 283 331 381
#     4  10  21  40  67  99 129 169 228 272 332 420
#     4  11  24  40  66 102 131 170 222 280 344 409
#     4  10  23  40  63  91 125 172 229 275 328 394
#     4  10  23  40  64  91 130 175 216 267 339 408
#
# _framework density 20.279240999999999
#
# number of rings (size 3 to 8) (size 9 to 14) (size 15 to 20)
#    0.000    1.833    1.667    1.000    7.000    2.000 
#    0.000    6.667    0.000    0.000    8.667    0.000 
#    0.000    0.000    0.000    0.000    0.000    0.000 
#
# Total GULP energy -267473.377312 kJ/mol
# GULP energy per Si atom -5572.362027 kJ/mol
# Density = 2.023308 g / cm^3
# Si number density = 20.279241 Si / 1000 Ang^3
#
#
#
# Elastic Constant Matrix: (Units=GPa)
#
#
# Indices 1 2 3 4 5 6 
#
# 1 78.5518 43.0626 17.7300 0.0000 0.0000 0.0000
# 2 43.0626 78.5510 17.7297 0.0000 0.0000 0.0000
# 3 17.7300 17.7297 108.2781 0.0000 0.0000 0.0000
# 4 0.0000 0.0000 0.0000 29.0076 0.0000 0.0000
# 5 0.0000 0.0000 0.0000 0.0000 29.0080 0.0000
# 6 0.0000 0.0000 0.0000 0.0000 0.0000 40.6064
#
#
#
# Elastic Compliance Matrix: (Units=1/GPa)
#
#
# Indices 1 2 3 4 5 6 
#
# 1 0.018406 -0.009771 -0.001414 0.000000 0.000000 0.000000
# 2 -0.009771 0.018407 -0.001414 0.000000 0.000000 0.000000
# 3 -0.001414 -0.001414 0.009699 0.000000 0.000000 0.000000
# 4 0.000000 0.000000 0.000000 0.034474 0.000000 0.000000
# 5 0.000000 0.000000 0.000000 0.000000 0.034473 0.000000
# 6 0.000000 0.000000 0.000000 0.000000 0.000000 0.024627
#
#
# Mechanical properties :
#
#
# Convention : Reuss Voigt Hill
#
# Bulk Modulus (GPa) = 46.92009 46.93615 46.92812
# Shear Modulus (GPa) = 29.00435 32.18164 30.59299
#
# Velocity S-wave (km/s) = 3.78597 3.98794 3.88827
# Velocity P-wave (km/s) = 6.50374 6.66334 6.58402
#
# Compressibility (1/GPa) = 0.02131283
#
# Stress axis : x y z
#
# Youngs Moduli (GPa) = 54.32903 54.32858 103.10850
#
# Poissons Ratio (x) = 0.53087 0.14579
# Poissons Ratio (y) = 0.53087 0.14578
# Poissons Ratio (z) = 0.07682 0.07681
#
# Static dielectric constant tensor:
#      x y z
#    x 1.780460 0.000000 0.000000 
#    y 0.000000 1.780460 0.000000 
#    z 0.000000 0.000000 1.638210 
# 
# From -- ./inp_files/3704.got.cif
#   From: 2010.05.17/outbox.cif.g08.bks.cpg/sg98_2_cif.got.tgz:3704.got - 2010.06.03 20:00:51.
