data_PCOD9551144
_publ_section_title
;
Structure prediction by ZEFSAII (Michael W. Deem and Ramdas Pophale) SiO2 
 PCOD9551144
Probable space group: P 43 21 2
;
_chemical_formula_sum "Si O2"
_cell_formula_units_Z 52
_cell_length_a 20.449629
_cell_length_b 20.449629
_cell_length_c 5.426204
_cell_angle_alpha 90.000000
_cell_angle_beta 90.000000
_cell_angle_gamma 90.000000
_cell_volume 2269.169742
_symmetry_space_group_name_H-M "P 43 21 2"
_symmetry_group_IT_number 96
_symmetry_cell_setting 'tetragonal'
loop_
_space_group_symop_operation_xyz
x,y,z
1/2-y,1/2+x,3/4+z
-x,-y,1/2+z
1/2+y,1/2-x,1/4+z
1/2+x,1/2-y,1/4-z
1/2-x,1/2+y,3/4-z
y,x,-z
-y,-x,1/2-z
loop_
_atom_site_type_symbol
_atom_site_label
_atom_site_fract_x
_atom_site_fract_y
_atom_site_fract_z
Si Si1 0.348049 0.163527 0.913092
Si Si2 0.207199 0.207199 0.000000
Si Si3 0.455593 0.910201 0.967551
Si Si4 0.641780 0.537780 0.061473
Si Si5 0.778461 0.049223 0.205600
Si Si6 0.342136 0.599600 0.459046
Si Si7 0.792465 0.431510 0.705706
O O1 0.282300 0.191580 0.036964
O O2 0.397903 0.222659 0.905434
O O3 0.323225 0.134114 0.654794
O O4 0.380226 0.101450 0.047660
O O5 0.175391 0.162587 0.787503
O O6 0.522925 0.928140 0.833774
O O7 0.468291 0.852931 0.165583
O O8 0.679781 0.566195 0.300545
O O9 0.575385 0.575385 0.000000
O O10 0.681007 0.543151 0.800226
O O11 0.636627 0.460919 0.125694
O O12 0.740347 0.980129 0.243336
O O13 0.396606 0.603395 0.250000
O O14 0.267325 0.583364 0.387706
#
# Coordination Sequence:
#
# PCOD9551144 Si02
#       7
#     8   4   8   8   8   8   8
#     4  12  26  43  73 105 147 195 252 317 375 450
#     4  12  24  44  72 110 144 186 254 310 386 448
#     4  12  29  45  68 105 151 202 264 311 375 456
#     4  11  27  51  75 108 148 195 244 307 385 464
#     4  11  27  46  76 103 150 196 245 305 381 447
#     4  11  24  46  74 108 144 190 242 313 382 459
#     4  11  24  47  71 102 145 198 246 307 386 443
#
# _framework density 22.915873000000001
#
# number of rings (size 3 to 8) (size 9 to 14) (size 15 to 20)
#    0.000    0.615    3.077    3.231   17.231    0.000 
#    1.385    0.000    0.000    0.000    0.000    0.000 
#    0.000    0.000    0.000    0.000    0.000    0.000 
#
# Total GULP energy -290398.942596 kJ/mol
# GULP energy per Si atom -5584.595050 kJ/mol
# Density = 2.286372 g / cm^3
# Si number density = 22.915873 Si / 1000 Ang^3
#
#
#
# Elastic Constant Matrix: (Units=GPa)
#
#
# Indices 1 2 3 4 5 6 
#
# 1 101.9707 58.4334 17.5500 0.0000 0.0000 0.0000
# 2 58.4334 101.9721 17.5500 0.0000 0.0000 0.0000
# 3 17.5500 17.5500 68.4442 0.0000 0.0000 0.0000
# 4 0.0000 0.0000 0.0000 38.0186 0.0000 0.0000
# 5 0.0000 0.0000 0.0000 0.0000 38.0186 0.0000
# 6 0.0000 0.0000 0.0000 0.0000 0.0000 37.4371
#
#
#
# Elastic Compliance Matrix: (Units=1/GPa)
#
#
# Indices 1 2 3 4 5 6 
#
# 1 0.014787 -0.008182 -0.001694 0.000000 0.000000 0.000000
# 2 -0.008182 0.014787 -0.001694 0.000000 0.000000 0.000000
# 3 -0.001694 -0.001694 0.015479 0.000000 0.000000 0.000000
# 4 0.000000 0.000000 0.000000 0.026303 0.000000 0.000000
# 5 0.000000 0.000000 0.000000 0.000000 0.026303 0.000000
# 6 0.000000 0.000000 0.000000 0.000000 0.000000 0.026711
#
#
# Mechanical properties :
#
#
# Convention : Reuss Voigt Hill
#
# Bulk Modulus (GPa) = 45.63222 51.05039 48.34131
# Shear Modulus (GPa) = 32.29721 34.61844 33.45782
#
# Velocity S-wave (km/s) = 3.75825 3.89096 3.82518
# Velocity P-wave (km/s) = 6.22806 6.52010 6.37575
#
# Compressibility (1/GPa) = 0.02191434
#
# Stress axis : x y z
#
# Youngs Moduli (GPa) = 67.62818 67.62915 64.60389
#
# Poissons Ratio (x) = 0.55333 0.10941
# Poissons Ratio (y) = 0.55332 0.10941
# Poissons Ratio (z) = 0.11453 0.11453
#
# Static dielectric constant tensor:
#      x y z
#    x 1.828560 0.000000 0.000000 
#    y 0.000000 1.828560 0.000000 
#    z 0.000000 0.000000 2.150230 
# 
# From -- ./inp_files/707.got.cif
#   From: 2010.05.17/outbox.cif.g08.bks.cpg/sg96_1_cif.got.tgz:707.got - 2010.06.03 19:52:08.
