data_PCOD9551851
_publ_section_title
;
Structure prediction by ZEFSAII (Michael W. Deem and Ramdas Pophale) SiO2 
 PCOD9551851
Probable space group: I 41 2 2
;
_chemical_formula_sum "Si O2"
_cell_formula_units_Z 72
_cell_length_a 11.762688
_cell_length_b 11.762688
_cell_length_c 26.525642
_cell_angle_alpha 90.000000
_cell_angle_beta 90.000000
_cell_angle_gamma 90.000000
_cell_volume 3670.109816
_symmetry_space_group_name_H-M "I 41 2 2"
_symmetry_group_IT_number 98
_symmetry_cell_setting 'tetragonal'
loop_
_space_group_symop_operation_xyz
x,y,z
-y,1/2+x,1/4+z
-x,-y,z
y,1/2-x,1/4+z
x,1/2-y,1/4-z
-x,1/2+y,1/4-z
y,x,-z
-y,-x,-z
1/2+x,1/2+y,1/2+z
1/2-y,x,3/4+z
1/2-x,1/2-y,1/2+z
1/2+y,-x,3/4+z
1/2+x,-y,3/4-z
1/2-x,y,3/4-z
1/2+y,1/2+x,1/2-z
1/2-y,1/2-x,1/2-z
loop_
_atom_site_type_symbol
_atom_site_label
_atom_site_fract_x
_atom_site_fract_y
_atom_site_fract_z
Si Si1 0.447259 0.875242 0.935559
Si Si2 0.359218 0.315154 0.944109
Si Si3 0.372697 0.381638 0.167029
Si Si4 0.779373 0.250000 0.125000
Si Si5 0.870549 0.129428 0.704223
O O1 0.553741 0.789175 0.939928
O O2 0.362164 0.849465 0.889773
O O3 0.500000 0.000000 0.933748
O O4 0.371660 0.862171 0.985955
O O5 0.387019 0.385870 0.893495
O O6 0.223736 0.294487 0.935028
O O7 0.368646 0.368646 0.000000
O O8 0.333447 0.502835 0.187545
O O9 0.497174 0.359164 0.189139
O O10 0.700126 0.280850 0.172443
#
# Coordination Sequence:
#
# PCOD9551851 Si02
#       5
#    16  16  16   8  16
#     4  12  25  44  66  92 133 177 223 276 328 395
#     4  11  20  38  65 100 123 168 219 260 330 395
#     4  10  21  38  68  93 135 162 207 272 329 397
#     4  12  26  42  66  96 132 180 216 270 330 408
#     4  11  21  44  63  96 136 168 205 271 347 384
#
# _framework density 19.617940999999998
#
# number of rings (size 3 to 8) (size 9 to 14) (size 15 to 20)
#    0.000    0.889    6.667    2.000    0.000    1.778 
#    0.000    2.222    0.000    1.333    0.000    0.000 
#    0.000    0.000    0.000    0.000    0.000    0.000 
#
# Total GULP energy -200836.127812 kJ/mol
# GULP energy per Si atom -5578.781328 kJ/mol
# Density = 1.957329 g / cm^3
# Si number density = 19.617941 Si / 1000 Ang^3
#
#
#
# Elastic Constant Matrix: (Units=GPa)
#
#
# Indices 1 2 3 4 5 6 
#
# 1 66.7801 48.7365 17.5341 0.0000 0.0000 0.0000
# 2 48.7365 66.7801 17.5341 0.0000 0.0000 0.0000
# 3 17.5341 17.5341 94.1536 0.0000 0.0000 0.0000
# 4 0.0000 0.0000 0.0000 27.8205 0.0000 0.0000
# 5 0.0000 0.0000 0.0000 0.0000 27.8205 0.0000
# 6 0.0000 0.0000 0.0000 0.0000 0.0000 -15.0042
#
#
#
# Elastic Compliance Matrix: (Units=1/GPa)
#
#
# Indices 1 2 3 4 5 6 
#
# 1 0.032298 -0.023123 -0.001709 0.000000 0.000000 0.000000
# 2 -0.023123 0.032298 -0.001709 0.000000 0.000000 0.000000
# 3 -0.001709 -0.001709 0.011257 0.000000 0.000000 0.000000
# 4 0.000000 0.000000 0.000000 0.035945 0.000000 0.000000
# 5 0.000000 0.000000 0.000000 0.000000 0.035945 0.000000
# 6 0.000000 0.000000 0.000000 0.000000 0.000000 -0.066648
#
#
# Mechanical properties :
#
#
# Convention : Reuss Voigt Hill
#
# Bulk Modulus (GPa) = 43.91085 43.92479 43.91782
# Shear Modulus (GPa) = 35.26909 17.72131 26.49520
#
# Velocity S-wave (km/s) = 4.24464 3.00879 3.67898
# Velocity P-wave (km/s) = 6.81574 5.87445 6.36252
#
# Compressibility (1/GPa) = 0.02277341
#
# Stress axis : x y z
#
# Youngs Moduli (GPa) = 30.96134 30.96134 88.83068
#
# Poissons Ratio (x) = 0.71591 0.15179
# Poissons Ratio (y) = 0.71591 0.15179
# Poissons Ratio (z) = 0.05290 0.05290
#
# Static dielectric constant tensor:
#      x y z
#    x 1.690020 0.000000 0.000000 
#    y 0.000000 1.690020 0.000000 
#    z 0.000000 0.000000 1.720570 
# 
# From -- ./inp_files/10828.got.cif
#   From: 2010.05.17/outbox.cif.g08.bks.cpg/sg98_6_cif.got.tgz:10828.got - 2010.06.03 20:00:51.
