data_PCOD9551094
_publ_section_title
;
Structure prediction by ZEFSAII (Michael W. Deem and Ramdas Pophale) SiO2 
 PCOD9551094
Probable space group: P 43 21 2
;
_chemical_formula_sum "Si O2"
_cell_formula_units_Z 28
_cell_length_a 7.390063
_cell_length_b 7.390063
_cell_length_c 18.155419
_cell_angle_alpha 90.000000
_cell_angle_beta 90.000000
_cell_angle_gamma 90.000000
_cell_volume 991.522463
_symmetry_space_group_name_H-M "P 43 21 2"
_symmetry_group_IT_number 96
_symmetry_cell_setting 'tetragonal'
loop_
_space_group_symop_operation_xyz
x,y,z
1/2-y,1/2+x,3/4+z
-x,-y,1/2+z
1/2+y,1/2-x,1/4+z
1/2+x,1/2-y,1/4-z
1/2-x,1/2+y,3/4-z
y,x,-z
-y,-x,1/2-z
loop_
_atom_site_type_symbol
_atom_site_label
_atom_site_fract_x
_atom_site_fract_y
_atom_site_fract_z
Si Si1 0.654674 0.046983 0.651224
Si Si2 0.941039 0.919198 0.845620
Si Si3 0.465498 0.534503 0.750000
Si Si4 0.547863 0.898565 0.516656
O O1 0.619139 0.229399 0.605873
O O2 0.866779 0.020089 0.668819
O O3 0.541717 0.889741 0.605810
O O4 0.551485 0.070375 0.728128
O O5 0.006753 0.906864 0.930182
O O6 0.014621 0.772663 0.787171
O O7 0.473882 0.747175 0.766129
#
# Coordination Sequence:
#
# PCOD9551094 Si02
#       4
#     8   8   4   8
#     4  11  26  49  79 119 158 223 270 345 423 486
#     4  11  25  49  79 117 159 210 275 342 406 510
#     4  10  28  48  78 112 152 222 272 342 424 486
#     4  11  27  49  76 116 161 211 282 337 410 499
#
# _framework density 28.239398000000001
#
# number of rings (size 3 to 8) (size 9 to 14) (size 15 to 20)
#    0.000    1.143    2.857    0.000   12.000    3.429 
#    0.000    0.000    0.000    0.000    0.000    0.000 
#    0.000    0.000    0.000    0.000    0.000    0.000 
#
# Total GULP energy -156504.656865 kJ/mol
# GULP energy per Si atom -5589.452031 kJ/mol
# Density = 2.817512 g / cm^3
# Si number density = 28.239398 Si / 1000 Ang^3
#
#
#
# Elastic Constant Matrix: (Units=GPa)
#
#
# Indices 1 2 3 4 5 6 
#
# 1 153.4865 30.7934 69.6427 0.0000 0.0000 0.0000
# 2 30.7934 153.4863 69.6422 0.0000 0.0000 0.0000
# 3 69.6427 69.6422 135.7316 0.0000 0.0000 0.0000
# 4 0.0000 0.0000 0.0000 31.7066 0.0000 0.0000
# 5 0.0000 0.0000 0.0000 0.0000 31.7072 0.0000
# 6 0.0000 0.0000 0.0000 0.0000 0.0000 35.9250
#
#
#
# Elastic Compliance Matrix: (Units=1/GPa)
#
#
# Indices 1 2 3 4 5 6 
#
# 1 0.008507 0.000357 -0.004548 0.000000 0.000000 0.000000
# 2 0.000357 0.008507 -0.004548 0.000000 0.000000 0.000000
# 3 -0.004548 -0.004548 0.012035 0.000000 0.000000 0.000000
# 4 0.000000 0.000000 0.000000 0.031539 0.000000 0.000000
# 5 0.000000 0.000000 0.000000 0.000000 0.031539 0.000000
# 6 0.000000 0.000000 0.000000 0.000000 0.000000 0.027836
#
#
# Mechanical properties :
#
#
# Convention : Reuss Voigt Hill
#
# Bulk Modulus (GPa) = 86.42645 86.98455 86.70550
# Shear Modulus (GPa) = 35.38616 38.04284 36.71450
#
# Velocity S-wave (km/s) = 3.54372 3.67434 3.60962
# Velocity P-wave (km/s) = 6.88588 6.99074 6.93851
#
# Compressibility (1/GPa) = 0.01157053
#
# Stress axis : x y z
#
# Youngs Moduli (GPa) = 117.54631 117.54663 83.09355
#
# Poissons Ratio (x) = -0.04195 0.37792
# Poissons Ratio (y) = -0.04195 0.37791
# Poissons Ratio (z) = 0.53461 0.53461
#
# Static dielectric constant tensor:
#      x y z
#    x 2.204640 0.000000 0.000000 
#    y 0.000000 2.204640 0.000000 
#    z 0.000000 0.000000 2.628140 
# 
# From -- ./inp_files/3286.got.cif
#   From: 2010.05.17/outbox.cif.g08.bks.cpg/sg96_2_cif.got.tgz:3286.got - 2010.06.03 19:52:08.
