data_PCOD9551688
_publ_section_title
;
Structure prediction by ZEFSAII (Michael W. Deem and Ramdas Pophale) SiO2 
 PCOD9551688
Probable space group: I 41 2 2
;
_chemical_formula_sum "Si O2"
_cell_formula_units_Z 60
_cell_length_a 10.456230
_cell_length_b 10.456230
_cell_length_c 23.337838
_cell_angle_alpha 90.000000
_cell_angle_beta 90.000000
_cell_angle_gamma 90.000000
_cell_volume 2551.589910
_symmetry_space_group_name_H-M "I 41 2 2"
_symmetry_group_IT_number 98
_symmetry_cell_setting 'tetragonal'
loop_
_space_group_symop_operation_xyz
x,y,z
-y,1/2+x,1/4+z
-x,-y,z
y,1/2-x,1/4+z
x,1/2-y,1/4-z
-x,1/2+y,1/4-z
y,x,-z
-y,-x,-z
1/2+x,1/2+y,1/2+z
1/2-y,x,3/4+z
1/2-x,1/2-y,1/2+z
1/2+y,-x,3/4+z
1/2+x,-y,3/4-z
1/2-x,y,3/4-z
1/2+y,1/2+x,1/2-z
1/2-y,1/2-x,1/2-z
loop_
_atom_site_type_symbol
_atom_site_label
_atom_site_fract_x
_atom_site_fract_y
_atom_site_fract_z
Si Si1 0.750000 0.047980 0.875000
Si Si2 0.468653 0.347785 0.175379
Si Si3 0.852244 0.050712 0.200712
Si Si4 0.000000 0.000000 0.000000
Si Si5 0.812313 0.916709 0.086348
O O1 0.843672 0.945264 0.903328
O O2 0.810195 0.133942 0.825981
O O3 0.500000 0.500000 0.165241
O O4 0.504834 0.250000 0.125000
O O5 0.532082 0.305366 0.235299
O O6 0.314000 0.343228 0.182503
O O7 0.783412 0.975389 0.148942
O O8 0.000000 0.000000 0.202727
O O9 0.134480 0.996646 0.035454
#
# Coordination Sequence:
#
# PCOD9551688 Si02
#       5
#     8  16  16   4  16
#     4  10  18  44  70  98 146 194 244 298 382 448
#     4  11  26  47  72 104 151 200 255 312 385 477
#     4   9  21  41  66 105 139 181 246 307 361 445
#     4  12  24  36  72 116 134 176 254 306 368 440
#     4  11  23  39  68 105 139 189 244 304 377 454
#
# _framework density 23.514751
#
# number of rings (size 3 to 8) (size 9 to 14) (size 15 to 20)
#    0.000    1.600    5.333    0.000   11.200    1.067 
#    2.400    2.667   11.733    0.000    0.000    0.000 
#    0.000    0.000    0.000    0.000    0.000    0.000 
#
# Total GULP energy -167291.075044 kJ/mol
# GULP energy per Si atom -5576.369168 kJ/mol
# Density = 2.346123 g / cm^3
# Si number density = 23.514751 Si / 1000 Ang^3
#
#
#
# Elastic Constant Matrix: (Units=GPa)
#
#
# Indices 1 2 3 4 5 6 
#
# 1 64.8567 10.3162 69.7997 0.0000 0.0000 0.0000
# 2 10.3162 64.8567 69.7997 0.0000 0.0000 0.0000
# 3 69.7997 69.7997 248.6529 0.0000 0.0000 0.0000
# 4 0.0000 0.0000 0.0000 40.8142 0.0000 0.0000
# 5 0.0000 0.0000 0.0000 0.0000 40.8142 0.0000
# 6 0.0000 0.0000 0.0000 0.0000 0.0000 0.5470
#
#
#
# Elastic Compliance Matrix: (Units=1/GPa)
#
#
# Indices 1 2 3 4 5 6 
#
# 1 0.023062 0.004727 -0.007801 0.000000 0.000000 0.000000
# 2 0.004727 0.023062 -0.007801 0.000000 0.000000 0.000000
# 3 -0.007801 -0.007801 0.008401 0.000000 0.000000 0.000000
# 4 0.000000 0.000000 0.000000 0.024501 0.000000 0.000000
# 5 0.000000 0.000000 0.000000 0.000000 0.024501 0.000000
# 6 0.000000 0.000000 0.000000 0.000000 0.000000 1.828308
#
#
# Mechanical properties :
#
#
# Convention : Reuss Voigt Hill
#
# Bulk Modulus (GPa) = 30.51000 75.35530 52.93265
# Shear Modulus (GPa) = 2.54516 31.66510 17.10513
#
# Velocity S-wave (km/s) = 1.04150 3.67359 2.70000
# Velocity P-wave (km/s) = 3.80122 7.07879 5.68149
#
# Compressibility (1/GPa) = 0.03277614
#
# Stress axis : x y z
#
# Youngs Moduli (GPa) = 43.36161 43.36161 119.03181
#
# Poissons Ratio (x) = -0.20496 0.92852
# Poissons Ratio (y) = -0.20496 0.92852
# Poissons Ratio (z) = 0.33825 0.33825
#
# Static dielectric constant tensor:
#      x y z
#    x 2.016400 0.000000 0.000000 
#    y 0.000000 2.016400 0.000000 
#    z 0.000000 0.000000 2.360890 
# 
# From -- ./inp_files/8572.got.cif
#   From: 2010.05.17/outbox.cif.g08.bks.cpg/sg98_5_cif.got.tgz:8572.got - 2010.06.03 20:00:51.
