data_PCOD9551822
_publ_section_title
;
Structure prediction by ZEFSAII (Michael W. Deem and Ramdas Pophale) SiO2 
 PCOD9551822
Probable space group: I 41 2 2
;
_chemical_formula_sum "Si O2"
_cell_formula_units_Z 24
_cell_length_a 11.960467
_cell_length_b 11.960467
_cell_length_c 7.606863
_cell_angle_alpha 90.000000
_cell_angle_beta 90.000000
_cell_angle_gamma 90.000000
_cell_volume 1088.182830
_symmetry_space_group_name_H-M "I 41 2 2"
_symmetry_group_IT_number 98
_symmetry_cell_setting 'tetragonal'
loop_
_space_group_symop_operation_xyz
x,y,z
-y,1/2+x,1/4+z
-x,-y,z
y,1/2-x,1/4+z
x,1/2-y,1/4-z
-x,1/2+y,1/4-z
y,x,-z
-y,-x,-z
1/2+x,1/2+y,1/2+z
1/2-y,x,3/4+z
1/2-x,1/2-y,1/2+z
1/2+y,-x,3/4+z
1/2+x,-y,3/4-z
1/2-x,y,3/4-z
1/2+y,1/2+x,1/2-z
1/2-y,1/2-x,1/2-z
loop_
_atom_site_type_symbol
_atom_site_label
_atom_site_fract_x
_atom_site_fract_y
_atom_site_fract_z
Si Si1 0.319191 0.892055 0.581838
Si Si2 0.250000 0.099500 0.375000
O O1 0.200867 0.858975 0.685747
O O2 0.397293 0.897293 0.750000
O O3 0.317234 0.011262 0.492749
O O4 0.174262 0.174262 0.500000
#
# Coordination Sequence:
#
# PCOD9551822 Si02
#       2
#    16   8
#     4  10  20  42  76 106 127 158 215 276 326 388
#     4  12  28  46  60  90 140 182 216 264 320 382
#
# _framework density 22.055119000000001
#
# number of rings (size 3 to 8) (size 9 to 14) (size 15 to 20)
#    0.000    1.333    0.000   10.000    0.000   10.667 
#    0.000   10.000    0.000    0.000    0.000    0.000 
#    0.000    0.000    0.000    0.000    0.000    0.000 
#
# Total GULP energy -66833.047119 kJ/mol
# GULP energy per Si atom -5569.420593 kJ/mol
# Density = 2.200492 g / cm^3
# Si number density = 22.055119 Si / 1000 Ang^3
#
#
#
# Elastic Constant Matrix: (Units=GPa)
#
#
# Indices 1 2 3 4 5 6 
#
# 1 103.7513 69.4259 77.8130 0.0000 0.0000 0.0000
# 2 69.4259 103.7513 77.8130 0.0000 0.0000 0.0000
# 3 77.8130 77.8130 217.6183 0.0000 0.0000 0.0000
# 4 0.0000 0.0000 0.0000 54.6333 0.0000 0.0000
# 5 0.0000 0.0000 0.0000 0.0000 54.6333 0.0000
# 6 0.0000 0.0000 0.0000 0.0000 0.0000 14.0987
#
#
#
# Elastic Compliance Matrix: (Units=1/GPa)
#
#
# Indices 1 2 3 4 5 6 
#
# 1 0.018821 -0.010312 -0.003042 0.000000 0.000000 0.000000
# 2 -0.010312 0.018821 -0.003042 0.000000 0.000000 0.000000
# 3 -0.003042 -0.003042 0.006771 0.000000 0.000000 0.000000
# 4 0.000000 0.000000 0.000000 0.018304 0.000000 0.000000
# 5 0.000000 0.000000 0.000000 0.000000 0.018304 0.000000
# 6 0.000000 0.000000 0.000000 0.000000 0.000000 0.070929
#
#
# Mechanical properties :
#
#
# Convention : Reuss Voigt Hill
#
# Bulk Modulus (GPa) = 86.07029 97.24720 91.65874
# Shear Modulus (GPa) = 26.50901 38.01098 32.25999
#
# Velocity S-wave (km/s) = 3.47067 4.15595 3.82867
# Velocity P-wave (km/s) = 7.42769 8.19865 7.82267
#
# Compressibility (1/GPa) = 0.01161841
#
# Stress axis : x y z
#
# Youngs Moduli (GPa) = 53.13305 53.13305 147.69145
#
# Poissons Ratio (x) = 0.54792 0.44933
# Poissons Ratio (y) = 0.54792 0.44933
# Poissons Ratio (z) = 0.16165 0.16165
#
# Static dielectric constant tensor:
#      x y z
#    x 1.867570 0.000000 0.000000 
#    y 0.000000 1.867570 0.000000 
#    z 0.000000 0.000000 1.860620 
# 
# From -- ./inp_files/2204.got.cif
#   From: 2010.05.17/outbox.cif.g08.bks.cpg/sg98_2_cif.got.tgz:2204.got - 2010.06.03 20:00:51.
