data_PCOD9551074
_publ_section_title
;
Structure prediction by ZEFSAII (Michael W. Deem and Ramdas Pophale) SiO2 
 PCOD9551074
Probable space group: P 43 21 2
;
_chemical_formula_sum "Si O2"
_cell_formula_units_Z 40
_cell_length_a 9.032982
_cell_length_b 9.032982
_cell_length_c 19.806766
_cell_angle_alpha 90.000000
_cell_angle_beta 90.000000
_cell_angle_gamma 90.000000
_cell_volume 1616.128394
_symmetry_space_group_name_H-M "P 43 21 2"
_symmetry_group_IT_number 96
_symmetry_cell_setting 'tetragonal'
loop_
_space_group_symop_operation_xyz
x,y,z
1/2-y,1/2+x,3/4+z
-x,-y,1/2+z
1/2+y,1/2-x,1/4+z
1/2+x,1/2-y,1/4-z
1/2-x,1/2+y,3/4-z
y,x,-z
-y,-x,1/2-z
loop_
_atom_site_type_symbol
_atom_site_label
_atom_site_fract_x
_atom_site_fract_y
_atom_site_fract_z
Si Si1 0.598310 0.714958 0.867146
Si Si2 0.213792 0.843909 0.581192
Si Si3 0.493878 0.067715 0.154746
Si Si4 0.010458 0.010458 0.000000
Si Si5 0.473829 0.473829 0.500000
Si Si6 0.599085 0.214241 0.956891
O O1 0.550311 0.885562 0.871333
O O2 0.503302 0.642659 0.804851
O O3 0.556967 0.643327 0.939424
O O4 0.771313 0.694258 0.849114
O O5 0.339493 0.905887 0.628941
O O6 0.089359 0.724080 0.601072
O O7 0.302823 0.758873 0.523858
O O8 0.132756 0.979293 0.545635
O O9 0.558995 0.987830 0.221989
O O10 0.479435 0.626835 0.457342
#
# Coordination Sequence:
#
# PCOD9551074 Si02
#       6
#     8   8   8   4   4   8
#     4  11  25  49  80 115 161 210 276 340 411 496
#     4  11  26  45  74 110 152 207 257 332 395 483
#     4  12  26  47  73 114 155 212 267 327 407 483
#     4  10  24  49  77 118 160 208 271 341 412 486
#     4  12  24  51  79 116 162 218 279 335 424 498
#     4  11  27  44  75 111 154 206 261 337 397 485
#
# _framework density 24.750509999999998
#
# number of rings (size 3 to 8) (size 9 to 14) (size 15 to 20)
#    0.000    0.800    2.000    3.600    8.400    4.000 
#    0.000    3.000    0.000    0.000    0.000    0.000 
#    0.000    0.000    0.000    0.000    0.000    0.000 
#
# Total GULP energy -222954.815553 kJ/mol
# GULP energy per Si atom -5573.870389 kJ/mol
# Density = 2.469418 g / cm^3
# Si number density = 24.750510 Si / 1000 Ang^3
#
#
#
# Elastic Constant Matrix: (Units=GPa)
#
#
# Indices 1 2 3 4 5 6 
#
# 1 58.5704 26.9169 2.9724 0.0000 0.0000 0.0000
# 2 26.9169 58.5704 2.9724 0.0000 0.0000 0.0000
# 3 2.9724 2.9724 74.2884 0.0000 0.0000 0.0000
# 4 0.0000 0.0000 0.0000 4.9355 0.0000 0.0000
# 5 0.0000 0.0000 0.0000 0.0000 4.9355 0.0000
# 6 0.0000 0.0000 0.0000 0.0000 0.0000 44.1981
#
#
#
# Elastic Compliance Matrix: (Units=1/GPa)
#
#
# Indices 1 2 3 4 5 6 
#
# 1 0.021661 -0.009931 -0.000469 0.000000 0.000000 0.000000
# 2 -0.009931 0.021661 -0.000469 0.000000 0.000000 0.000000
# 3 -0.000469 -0.000469 0.013499 0.000000 0.000000 0.000000
# 4 0.000000 0.000000 0.000000 0.202615 0.000000 0.000000
# 5 0.000000 0.000000 0.000000 0.000000 0.202615 0.000000
# 6 0.000000 0.000000 0.000000 0.000000 0.000000 0.022625
#
#
# Mechanical properties :
#
#
# Convention : Reuss Voigt Hill
#
# Bulk Modulus (GPa) = 28.50481 28.57250 28.53865
# Shear Modulus (GPa) = 9.65047 21.38497 15.51772
#
# Velocity S-wave (km/s) = 1.97676 2.94261 2.50664
# Velocity P-wave (km/s) = 4.09291 4.80776 4.46467
#
# Compressibility (1/GPa) = 0.03508180
#
# Stress axis : x y z
#
# Youngs Moduli (GPa) = 46.16552 46.16552 74.08175
#
# Poissons Ratio (x) = 0.45847 0.03477
# Poissons Ratio (y) = 0.45847 0.03477
# Poissons Ratio (z) = 0.02167 0.02167
#
# Static dielectric constant tensor:
#      x y z
#    x 2.036270 0.000000 0.000000 
#    y 0.000000 2.036270 0.000000 
#    z 0.000000 0.000000 0.166500 
# 
# From -- ./inp_files/3860.got.cif
#   From: 2010.05.17/outbox.cif.g08.bks.cpg/sg96_2_cif.got.tgz:3860.got - 2010.06.03 19:52:08.
