data_PCOD9551800
_publ_section_title
;
Structure prediction by ZEFSAII (Michael W. Deem and Ramdas Pophale) SiO2 
 PCOD9551800
Probable space group: I 41 2 2
;
_chemical_formula_sum "Si O2"
_cell_formula_units_Z 112
_cell_length_a 14.751275
_cell_length_b 14.751275
_cell_length_c 24.192653
_cell_angle_alpha 90.000000
_cell_angle_beta 90.000000
_cell_angle_gamma 90.000000
_cell_volume 5264.324054
_symmetry_space_group_name_H-M "I 41 2 2"
_symmetry_group_IT_number 98
_symmetry_cell_setting 'tetragonal'
loop_
_space_group_symop_operation_xyz
x,y,z
-y,1/2+x,1/4+z
-x,-y,z
y,1/2-x,1/4+z
x,1/2-y,1/4-z
-x,1/2+y,1/4-z
y,x,-z
-y,-x,-z
1/2+x,1/2+y,1/2+z
1/2-y,x,3/4+z
1/2-x,1/2-y,1/2+z
1/2+y,-x,3/4+z
1/2+x,-y,3/4-z
1/2-x,y,3/4-z
1/2+y,1/2+x,1/2-z
1/2-y,1/2-x,1/2-z
loop_
_atom_site_type_symbol
_atom_site_label
_atom_site_fract_x
_atom_site_fract_y
_atom_site_fract_z
Si Si1 0.403883 0.090998 0.022824
Si Si2 0.645981 0.423378 0.380714
Si Si3 0.110830 0.388222 0.315498
Si Si4 0.780176 0.544802 0.619388
Si Si5 0.842541 0.224839 0.340535
Si Si6 0.298580 0.290524 0.302423
Si Si7 0.118689 0.594097 0.005321
O O1 0.354214 0.096284 0.081358
O O2 0.339325 0.118868 0.973190
O O3 0.493984 0.150172 0.013340
O O4 0.411883 0.984634 0.014318
O O5 0.750000 0.453047 0.375000
O O6 0.602546 0.514753 0.405163
O O7 0.652098 0.333159 0.417849
O O8 0.609346 0.387866 0.321057
O O9 0.101899 0.398102 0.250000
O O10 0.039016 0.316489 0.337942
O O11 0.203680 0.329985 0.326669
O O12 0.804745 0.436901 0.622787
O O13 0.759540 0.617470 0.667611
O O14 0.750000 0.207518 0.375000
O O15 0.838342 0.171934 0.282276
O O16 0.269816 0.230185 0.250000
#
# Coordination Sequence:
#
# PCOD9551800 Si02
#       7
#    16  16  16  16  16  16  16
#     4  10  20  38  66  93 124 173 210 267 331 399
#     4  11  23  39  67  92 132 176 214 271 329 392
#     4  11  22  38  63 101 139 172 207 265 335 411
#     4  11  21  39  65  92 132 167 217 271 329 398
#     4  10  25  45  62  89 122 177 230 278 321 382
#     4  11  21  37  63 100 137 165 208 266 340 403
#     4  10  22  42  66  91 125 171 231 270 322 401
#
# _framework density 21.275285
#
# number of rings (size 3 to 8) (size 9 to 14) (size 15 to 20)
#    0.000    1.429    2.857    3.857    2.000    4.000 
#    2.571    0.714    0.000    0.000    0.000    0.000 
#    0.000    0.000    0.000    0.000    0.000    0.000 
#
# Total GULP energy -311812.255577 kJ/mol
# GULP energy per Si atom -5568.075992 kJ/mol
# Density = 2.122686 g / cm^3
# Si number density = 21.275285 Si / 1000 Ang^3
#
#
#
# Elastic Constant Matrix: (Units=GPa)
#
#
# Indices 1 2 3 4 5 6 
#
# 1 135.5440 -7.2582 43.8624 0.0000 0.0000 0.0000
# 2 -7.2582 135.5512 43.8644 0.0000 0.0000 0.0000
# 3 43.8624 43.8644 92.2114 0.0000 0.0000 0.0000
# 4 0.0000 0.0000 0.0000 36.4750 0.0000 0.0000
# 5 0.0000 0.0000 0.0000 0.0000 36.4752 0.0000
# 6 0.0000 0.0000 0.0000 0.0000 0.0000 17.2808
#
#
#
# Elastic Compliance Matrix: (Units=1/GPa)
#
#
# Indices 1 2 3 4 5 6 
#
# 1 0.009278 0.002275 -0.005495 0.000000 0.000000 0.000000
# 2 0.002275 0.009277 -0.005495 0.000000 0.000000 0.000000
# 3 -0.005495 -0.005495 0.016073 0.000000 0.000000 0.000000
# 4 0.000000 0.000000 0.000000 0.027416 0.000000 0.000000
# 5 0.000000 0.000000 0.000000 0.000000 0.027416 0.000000
# 6 0.000000 0.000000 0.000000 0.000000 0.000000 0.057868
#
#
# Mechanical properties :
#
#
# Convention : Reuss Voigt Hill
#
# Bulk Modulus (GPa) = 58.15120 58.24934 58.20027
# Shear Modulus (GPa) = 29.32697 36.90206 33.11452
#
# Velocity S-wave (km/s) = 3.71678 4.16926 3.94950
# Velocity P-wave (km/s) = 6.76841 7.11444 6.94358
#
# Compressibility (1/GPa) = 0.01719655
#
# Stress axis : x y z
#
# Youngs Moduli (GPa) = 107.78346 107.78839 62.21675
#
# Poissons Ratio (x) = -0.24523 0.34191
# Poissons Ratio (y) = -0.24522 0.34191
# Poissons Ratio (z) = 0.59232 0.59234
#
# Static dielectric constant tensor:
#      x y z
#    x 1.851700 0.000000 0.000000 
#    y 0.000000 1.851680 0.000000 
#    z 0.000000 0.000000 1.877070 
# 
# From -- ./inp_files/10105.got.cif
#   From: 2010.05.17/outbox.cif.g08.bks.cpg/sg98_6_cif.got.tgz:10105.got - 2010.06.03 20:00:51.
