data_PCOD9551564
_publ_section_title
;
Structure prediction by ZEFSAII (Michael W. Deem and Ramdas Pophale) SiO2 
 PCOD9551564
Probable space group: I 4 2 2 
;
_chemical_formula_sum "Si O2"
_cell_formula_units_Z 108
_cell_length_a 13.202255
_cell_length_b 13.202255
_cell_length_c 30.833700
_cell_angle_alpha 90.000000
_cell_angle_beta 90.000000
_cell_angle_gamma 90.000000
_cell_volume 5374.299637
_symmetry_space_group_name_H-M "I 4 2 2 "
_symmetry_group_IT_number 97
_symmetry_cell_setting 'tetragonal'
loop_
_space_group_symop_operation_xyz
x,y,z
-y,x,z
-x,-y,z
y,-x,z
x,-y,-z
-x,y,-z
y,x,-z
-y,-x,-z
1/2+x,1/2+y,1/2+z
1/2-y,1/2+x,1/2+z
1/2-x,1/2-y,1/2+z
1/2+y,1/2-x,1/2+z
1/2+x,1/2-y,1/2-z
1/2-x,1/2+y,1/2-z
1/2+y,1/2+x,1/2-z
1/2-y,1/2-x,1/2-z
loop_
_atom_site_type_symbol
_atom_site_label
_atom_site_fract_x
_atom_site_fract_y
_atom_site_fract_z
Si Si1 0.659097 0.354156 0.153367
Si Si2 0.500000 0.000000 0.867212
Si Si3 0.178470 0.638101 0.608374
Si Si4 0.755221 0.099776 0.263986
Si Si5 0.866194 0.098262 0.051369
Si Si6 0.359027 0.080467 0.297937
Si Si7 0.500000 0.500000 0.124391
Si Si8 0.041140 0.162793 0.172717
O O1 0.658143 0.250557 0.126333
O O2 0.599213 0.338344 0.198488
O O3 0.769114 0.373334 0.173696
O O4 0.613515 0.447995 0.127506
O O5 0.571416 0.922883 0.894743
O O6 0.424124 0.947108 0.832974
O O7 0.260048 0.642617 0.568765
O O8 0.246018 0.579141 0.643657
O O9 0.707082 0.207082 0.250000
O O10 0.800728 0.047325 0.222140
O O11 0.665374 0.035516 0.285293
O O12 0.978895 0.135912 0.065295
O O13 0.879324 0.120677 0.000000
O O14 0.372556 0.127445 0.250000
O O15 0.929555 0.119251 0.165304
#
# Coordination Sequence:
#
# PCOD9551564 Si02
#       8
#    16   8  16  16  16  16   4  16
#     4  12  25  40  59  83 114 165 229 277 326 374
#     4  12  25  42  56  89 128 172 220 268 331 373
#     4  12  24  40  62  97 130 167 209 263 324 397
#     4  12  21  37  51  77 116 162 229 272 325 377
#     4   9  20  42  75 111 139 164 193 236 314 410
#     4  12  24  38  58  78 118 172 227 286 328 379
#     4  12  24  48  60  76 113 164 228 296 321 368
#     4  11  24  36  56  87 122 168 219 281 340 390
#
# _framework density 20.095641000000001
#
# number of rings (size 3 to 8) (size 9 to 14) (size 15 to 20)
#    0.000    0.593    4.444    4.667    6.222    1.185 
#    0.000    0.000    0.000    1.778    0.000    0.519 
#    0.000    0.000    0.000    0.000    0.000    0.000 
#
# Total GULP energy -300697.933209 kJ/mol
# GULP energy per Si atom -5568.480245 kJ/mol
# Density = 2.004990 g / cm^3
# Si number density = 20.095641 Si / 1000 Ang^3
#
#
#
# Elastic Constant Matrix: (Units=GPa)
#
#
# Indices 1 2 3 4 5 6 
#
# 1 38.0624 77.7794 21.5398 0.0000 0.0000 0.0000
# 2 77.7794 38.0562 21.5404 0.0000 0.0000 0.0000
# 3 21.5398 21.5404 65.1793 0.0000 0.0000 0.0000
# 4 0.0000 0.0000 0.0000 12.9195 0.0000 0.0000
# 5 0.0000 0.0000 0.0000 0.0000 12.9183 0.0000
# 6 0.0000 0.0000 0.0000 0.0000 0.0000 35.4368
#
#
#
# Elastic Compliance Matrix: (Units=1/GPa)
#
#
# Indices 1 2 3 4 5 6 
#
# 1 -0.007666 0.017509 -0.003253 0.000000 0.000000 0.000000
# 2 0.017509 -0.007668 -0.003252 0.000000 0.000000 0.000000
# 3 -0.003253 -0.003252 0.017492 0.000000 0.000000 0.000000
# 4 0.000000 0.000000 0.000000 0.077402 0.000000 0.000000
# 5 0.000000 0.000000 0.000000 0.000000 0.077410 0.000000
# 6 0.000000 0.000000 0.000000 0.000000 0.000000 0.028219
#
#
# Mechanical properties :
#
#
# Convention : Reuss Voigt Hill
#
# Bulk Modulus (GPa) = 41.38005 42.55747 41.96876
# Shear Modulus (GPa) = 29.19930 13.61748 21.40839
#
# Velocity S-wave (km/s) = 3.81598 2.60596 3.26747
# Velocity P-wave (km/s) = 6.32865 5.50256 5.93001
#
# Compressibility (1/GPa) = 0.02416623
#
# Stress axis : x y z
#
# Youngs Moduli (GPa) = -130.44468 -130.41679 57.16857
#
# Poissons Ratio (x) = 2.28350 0.18597
# Poissons Ratio (y) = 2.28399 0.18593
# Poissons Ratio (z) = -0.42434 -0.42415
#
# Static dielectric constant tensor:
#      x y z
#    x 1.781370 0.000000 0.000000 
#    y 0.000000 1.781370 0.000000 
#    z 0.000000 0.000000 1.739370 
# 
# From -- ./inp_files/8185.got.cif
#   From: 2010.05.17/outbox.cif.g08.bks.cpg/sg97_5_cif.got.tgz:8185.got - 2010.06.03 19:55:32.
