data_PCOD9551512
_publ_section_title
;
Structure prediction by ZEFSAII (Michael W. Deem and Ramdas Pophale) SiO2 
 PCOD9551512
Probable space group: I 4 2 2 
;
_chemical_formula_sum "Si O2"
_cell_formula_units_Z 72
_cell_length_a 14.099846
_cell_length_b 14.099846
_cell_length_c 17.932776
_cell_angle_alpha 90.000000
_cell_angle_beta 90.000000
_cell_angle_gamma 90.000000
_cell_volume 3565.137319
_symmetry_space_group_name_H-M "I 4 2 2 "
_symmetry_group_IT_number 97
_symmetry_cell_setting 'tetragonal'
loop_
_space_group_symop_operation_xyz
x,y,z
-y,x,z
-x,-y,z
y,-x,z
x,-y,-z
-x,y,-z
y,x,-z
-y,-x,-z
1/2+x,1/2+y,1/2+z
1/2-y,1/2+x,1/2+z
1/2-x,1/2-y,1/2+z
1/2+y,1/2-x,1/2+z
1/2+x,1/2-y,1/2-z
1/2-x,1/2+y,1/2-z
1/2+y,1/2+x,1/2-z
1/2-y,1/2-x,1/2-z
loop_
_atom_site_type_symbol
_atom_site_label
_atom_site_fract_x
_atom_site_fract_y
_atom_site_fract_z
Si Si1 0.387814 0.387814 0.000000
Si Si2 0.112365 0.607953 0.009491
Si Si3 0.177608 0.362190 0.351013
Si Si4 0.516083 0.174649 0.763623
Si Si5 0.251545 0.665137 0.133805
O O1 0.500000 0.371254 0.000000
O O2 0.335896 0.349518 0.926027
O O3 0.155924 0.648295 0.085332
O O4 0.149216 0.500000 0.000000
O O5 0.138569 0.672856 0.939746
O O6 0.000000 0.602013 0.000000
O O7 0.206938 0.459582 0.310433
O O8 0.238919 0.269749 0.332863
O O9 0.069820 0.348408 0.320647
O O10 0.581908 0.081908 0.750000
O O11 0.585484 0.249575 0.802455
#
# Coordination Sequence:
#
# PCOD9551512 Si02
#       5
#     8  16  16  16  16
#     4  11  22  38  64  92 126 168 217 276 328 388
#     4  11  21  36  64  95 128 170 220 277 327 384
#     4  11  22  39  61  95 131 172 217 266 333 393
#     4  11  25  40  61  91 136 172 207 269 337 398
#     4  12  22  41  65  95 130 171 219 275 331 396
#
# _framework density 20.195575000000002
#
# number of rings (size 3 to 8) (size 9 to 14) (size 15 to 20)
#    0.000    0.778    4.444    4.667    6.222    0.000 
#    0.000    0.000    0.000    0.000    0.000    0.000 
#    0.000    3.556    0.000    0.000    0.000    0.000 
#
# Total GULP energy -201003.395691 kJ/mol
# GULP energy per Si atom -5583.427658 kJ/mol
# Density = 2.014961 g / cm^3
# Si number density = 20.195575 Si / 1000 Ang^3
#
#
#
# Elastic Constant Matrix: (Units=GPa)
#
#
# Indices 1 2 3 4 5 6 
#
# 1 109.7800 45.7238 43.4547 0.0000 0.0000 0.0000
# 2 45.7238 109.7799 43.4547 0.0000 0.0000 0.0000
# 3 43.4547 43.4547 98.2119 0.0000 0.0000 0.0000
# 4 0.0000 0.0000 0.0000 -1.9854 0.0000 0.0000
# 5 0.0000 0.0000 0.0000 0.0000 -1.9854 0.0000
# 6 0.0000 0.0000 0.0000 0.0000 0.0000 35.0549
#
#
#
# Elastic Compliance Matrix: (Units=1/GPa)
#
#
# Indices 1 2 3 4 5 6 
#
# 1 0.012077 -0.003534 -0.003780 0.000000 0.000000 0.000000
# 2 -0.003534 0.012077 -0.003780 0.000000 0.000000 0.000000
# 3 -0.003780 -0.003780 0.013527 0.000000 0.000000 0.000000
# 4 0.000000 0.000000 0.000000 -0.503666 0.000000 0.000000
# 5 0.000000 0.000000 0.000000 0.000000 -0.503667 0.000000
# 6 0.000000 0.000000 0.000000 0.000000 0.000000 0.028527
#
#
# Mechanical properties :
#
#
# Convention : Reuss Voigt Hill
#
# Bulk Modulus (GPa) = 64.54315 64.78204 64.66260
# Shear Modulus (GPa) = -5.47183 18.55938 6.54378
#
# Velocity S-wave (km/s) = -1.64782 3.03476 1.80201
# Velocity P-wave (km/s) = 5.32992 6.66533 6.03468
#
# Compressibility (1/GPa) = 0.01549351
#
# Stress axis : x y z
#
# Youngs Moduli (GPa) = 82.79974 82.79974 73.92552
#
# Poissons Ratio (x) = 0.29261 0.27944
# Poissons Ratio (y) = 0.29261 0.27944
# Poissons Ratio (z) = 0.31299 0.31299
#
# Static dielectric constant tensor:
#      x y z
#    x 1.843260 0.000000 0.000000 
#    y 0.000000 1.843260 0.000000 
#    z 0.000000 0.000000 1.790590 
# 
# From -- ./inp_files/5570.got.cif
#   From: 2010.05.17/outbox.cif.g08.bks.cpg/sg97_3_cif.got.tgz:5570.got - 2010.06.03 19:55:32.
