data_PCOD9551967
_publ_section_title
;
Structure prediction by ZEFSAII (Michael W. Deem and Ramdas Pophale) SiO2 
 PCOD9551967
Probable space group: I 41 2 2
;
_chemical_formula_sum "Si O2"
_cell_formula_units_Z 32
_cell_length_a 13.718432
_cell_length_b 13.718432
_cell_length_c 7.946158
_cell_angle_alpha 90.000000
_cell_angle_beta 90.000000
_cell_angle_gamma 90.000000
_cell_volume 1495.430197
_symmetry_space_group_name_H-M "I 41 2 2"
_symmetry_group_IT_number 98
_symmetry_cell_setting 'tetragonal'
loop_
_space_group_symop_operation_xyz
x,y,z
-y,1/2+x,1/4+z
-x,-y,z
y,1/2-x,1/4+z
x,1/2-y,1/4-z
-x,1/2+y,1/4-z
y,x,-z
-y,-x,-z
1/2+x,1/2+y,1/2+z
1/2-y,x,3/4+z
1/2-x,1/2-y,1/2+z
1/2+y,-x,3/4+z
1/2+x,-y,3/4-z
1/2-x,y,3/4-z
1/2+y,1/2+x,1/2-z
1/2-y,1/2-x,1/2-z
loop_
_atom_site_type_symbol
_atom_site_label
_atom_site_fract_x
_atom_site_fract_y
_atom_site_fract_z
Si Si1 0.376101 0.123900 0.750000
Si Si2 0.839678 0.946893 0.653613
Si Si3 0.160030 0.839971 0.500000
O O1 0.265373 0.102677 0.689358
O O2 0.437930 0.105756 0.582112
O O3 0.891504 0.891504 0.500000
O O4 0.832747 0.058525 0.599762
O O5 0.164033 0.750000 0.625000
#
# Coordination Sequence:
#
# PCOD9551967 Si02
#       3
#     8  16   8
#     4  10  24  40  79 112 144 189 250 304 392 452
#     4  11  24  46  74 116 149 191 245 324 383 464
#     4  12  29  50  72  99 158 210 262 316 386 469
#
# _framework density 21.398526
#
# number of rings (size 3 to 8) (size 9 to 14) (size 15 to 20)
#    0.000    1.000    0.000    5.250   21.000    0.000 
#    0.000   15.000    0.000    0.000    0.000    0.000 
#    0.000    0.000    0.000    0.000    0.000    0.000 
#
# Total GULP energy -89534.943569 kJ/mol
# GULP energy per Si atom -5595.933973 kJ/mol
# Density = 2.134982 g / cm^3
# Si number density = 21.398526 Si / 1000 Ang^3
#
#
#
# Elastic Constant Matrix: (Units=GPa)
#
#
# Indices 1 2 3 4 5 6 
#
# 1 101.6383 146.9933 104.1090 0.0000 0.0000 0.0000
# 2 146.9933 101.6436 104.1053 0.0000 0.0000 0.0000
# 3 104.1090 104.1053 261.3002 0.0000 0.0000 0.0000
# 4 0.0000 0.0000 0.0000 -349.0639 0.0000 0.0000
# 5 0.0000 0.0000 0.0000 0.0000 -350.8745 0.0000
# 6 0.0000 0.0000 0.0000 0.0000 0.0000 15.5544
#
#
#
# Elastic Compliance Matrix: (Units=1/GPa)
#
#
# Indices 1 2 3 4 5 6 
#
# 1 -0.008007 0.014043 -0.002404 0.000000 0.000000 0.000000
# 2 0.014043 -0.008006 -0.002405 0.000000 0.000000 0.000000
# 3 -0.002404 -0.002405 0.005743 0.000000 0.000000 0.000000
# 4 0.000000 0.000000 0.000000 -0.002865 0.000000 0.000000
# 5 0.000000 0.000000 0.000000 0.000000 -0.002850 0.000000
# 6 0.000000 0.000000 0.000000 0.000000 0.000000 0.064291
#
#
# Mechanical properties :
#
#
# Convention : Reuss Voigt Hill
#
# Bulk Modulus (GPa) = 122.01477 130.55525 126.28501
# Shear Modulus (GPa) = 153.51121 -129.58516 11.96303
#
# Velocity S-wave (km/s) = 8.47909 -7.79034 2.36701
# Velocity P-wave (km/s) = 12.36947 4.44696 8.16175
#
# Compressibility (1/GPa) = 0.00819573
#
# Stress axis : x y z
#
# Youngs Moduli (GPa) = -124.88382 -124.90114 174.11749
#
# Poissons Ratio (x) = 1.75395 0.41865
# Poissons Ratio (y) = 1.75371 0.41878
# Poissons Ratio (z) = -0.30027 -0.30041
#
# Static dielectric constant tensor:
#      x y z
#    x 1.855140 0.000000 0.000000 
#    y 0.000000 1.855600 0.000000 
#    z 0.000000 0.000000 1.784690 
# 
# From -- ./inp_files/2397.got.cif
#   From: 2010.05.17/outbox.cif.g08.bks.cpg/sg98_2_cif.got.tgz:2397.got - 2010.06.03 20:00:51.
