data_PCOD9551577
_publ_section_title
;
Structure prediction by ZEFSAII (Michael W. Deem and Ramdas Pophale) SiO2 
 PCOD9551577
Probable space group: I 4 2 2 
;
_chemical_formula_sum "Si O2"
_cell_formula_units_Z 80
_cell_length_a 10.071170
_cell_length_b 10.071170
_cell_length_c 29.694052
_cell_angle_alpha 90.000000
_cell_angle_beta 90.000000
_cell_angle_gamma 90.000000
_cell_volume 3011.822119
_symmetry_space_group_name_H-M "I 4 2 2 "
_symmetry_group_IT_number 97
_symmetry_cell_setting 'tetragonal'
loop_
_space_group_symop_operation_xyz
x,y,z
-y,x,z
-x,-y,z
y,-x,z
x,-y,-z
-x,y,-z
y,x,-z
-y,-x,-z
1/2+x,1/2+y,1/2+z
1/2-y,1/2+x,1/2+z
1/2-x,1/2-y,1/2+z
1/2+y,1/2-x,1/2+z
1/2+x,1/2-y,1/2-z
1/2-x,1/2+y,1/2-z
1/2+y,1/2+x,1/2-z
1/2-y,1/2-x,1/2-z
loop_
_atom_site_type_symbol
_atom_site_label
_atom_site_fract_x
_atom_site_fract_y
_atom_site_fract_z
Si Si1 0.369448 0.858275 0.076083
Si Si2 0.779907 0.955838 0.668523
Si Si3 0.658642 0.658642 0.500000
Si Si4 0.513159 0.275590 0.636082
Si Si5 0.225921 0.012613 0.765750
Si Si6 0.223966 0.000000 0.500000
O O1 0.416634 0.793299 0.123058
O O2 0.242743 0.809084 0.045440
O O3 0.325425 0.001093 0.095190
O O4 0.485509 0.822093 0.041837
O O5 0.707079 0.962983 0.717390
O O6 0.900515 0.849782 0.667918
O O7 0.500000 0.679437 0.500000
O O8 0.632913 0.379643 0.633465
O O9 0.504659 0.209479 0.685281
O O10 0.119841 0.133753 0.765734
O O11 0.122164 0.877837 0.500000
#
# Coordination Sequence:
#
# PCOD9551577 Si02
#       6
#    16  16   8  16  16   8
#     4  12  22  36  63  91 119 165 225 266 325 384
#     4   9  18  33  57  87 124 168 214 259 308 378
#     4  11  26  48  69  90 122 160 211 276 338 397
#     4   9  18  35  62  92 127 168 213 267 326 391
#     4   7  12  27  52  87 125 162 207 257 310 378
#     4  11  24  44  65  84 121 166 214 271 324 375
#
# _framework density 26.561993000000001
#
# number of rings (size 3 to 8) (size 9 to 14) (size 15 to 20)
#    0.000    2.400    1.000    4.800    0.000    4.000 
#    0.000    0.500    4.400    0.000    0.000    0.000 
#    0.000   20.400    0.000    0.000    0.000    0.000 
#
# Total GULP energy -223010.720925 kJ/mol
# GULP energy per Si atom -5575.268023 kJ/mol
# Density = 2.650154 g / cm^3
# Si number density = 26.561993 Si / 1000 Ang^3
#
#
#
# Elastic Constant Matrix: (Units=GPa)
#
#
# Indices 1 2 3 4 5 6 
#
# 1 42.0774 65.1697 60.9351 0.0000 0.0000 0.0000
# 2 65.1697 42.0774 60.9348 0.0000 0.0000 0.0000
# 3 60.9351 60.9348 270.5987 0.0000 0.0000 0.0000
# 4 0.0000 0.0000 0.0000 36.0357 0.0000 0.0000
# 5 0.0000 0.0000 0.0000 0.0000 36.0358 0.0000
# 6 0.0000 0.0000 0.0000 0.0000 0.0000 80.1659
#
#
#
# Elastic Compliance Matrix: (Units=1/GPa)
#
#
# Indices 1 2 3 4 5 6 
#
# 1 -0.015387 0.027918 -0.002822 0.000000 0.000000 0.000000
# 2 0.027918 -0.015387 -0.002822 0.000000 0.000000 0.000000
# 3 -0.002822 -0.002822 0.004966 0.000000 0.000000 0.000000
# 4 0.000000 0.000000 0.000000 0.027750 0.000000 0.000000
# 5 0.000000 0.000000 0.000000 0.000000 0.027750 0.000000
# 6 0.000000 0.000000 0.000000 0.000000 0.000000 0.012474
#
#
# Mechanical properties :
#
#
# Convention : Reuss Voigt Hill
#
# Bulk Modulus (GPa) = 53.35936 80.98141 67.17038
# Shear Modulus (GPa) = 1293.45337 41.62842 667.54089
#
# Velocity S-wave (km/s) = 22.09103 3.96310 15.87009
# Velocity P-wave (km/s) = 25.90014 7.17604 19.00411
#
# Compressibility (1/GPa) = 0.01874085
#
# Stress axis : x y z
#
# Youngs Moduli (GPa) = -64.99010 -64.99035 201.35540
#
# Poissons Ratio (x) = 1.81438 0.56817
# Poissons Ratio (y) = 1.81437 0.56818
# Poissons Ratio (z) = -0.18338 -0.18339
#
# Static dielectric constant tensor:
#      x y z
#    x 2.116200 0.000000 0.000000 
#    y 0.000000 2.116200 0.000000 
#    z 0.000000 0.000000 2.092600 
# 
# From -- ./inp_files/7984.got.cif
#   From: 2010.05.17/outbox.cif.g08.bks.cpg/sg97_4_cif.got.tgz:7984.got - 2010.06.03 19:55:32.
