data_PCOD9551596
_publ_section_title
;
Structure prediction by ZEFSAII (Michael W. Deem and Ramdas Pophale) SiO2 
 PCOD9551596
Probable space group: I 4 2 2 
;
_chemical_formula_sum "Si O2"
_cell_formula_units_Z 40
_cell_length_a 20.214992
_cell_length_b 20.214992
_cell_length_c 4.875232
_cell_angle_alpha 90.000000
_cell_angle_beta 90.000000
_cell_angle_gamma 90.000000
_cell_volume 1992.243576
_symmetry_space_group_name_H-M "I 4 2 2 "
_symmetry_group_IT_number 97
_symmetry_cell_setting 'tetragonal'
loop_
_space_group_symop_operation_xyz
x,y,z
-y,x,z
-x,-y,z
y,-x,z
x,-y,-z
-x,y,-z
y,x,-z
-y,-x,-z
1/2+x,1/2+y,1/2+z
1/2-y,1/2+x,1/2+z
1/2-x,1/2-y,1/2+z
1/2+y,1/2-x,1/2+z
1/2+x,1/2-y,1/2-z
1/2-x,1/2+y,1/2-z
1/2+y,1/2+x,1/2-z
1/2-y,1/2-x,1/2-z
loop_
_atom_site_type_symbol
_atom_site_label
_atom_site_fract_x
_atom_site_fract_y
_atom_site_fract_z
Si Si1 0.887715 0.000000 0.000000
Si Si2 0.559035 0.729028 0.855696
Si Si3 0.147748 0.750541 0.141305
O O1 0.836463 0.023427 0.234931
O O2 0.937393 0.062608 0.000000
O O3 0.594718 0.762374 0.597631
O O4 0.500000 0.769125 0.000000
O O5 0.611892 0.717225 0.096718
O O6 0.187502 0.687502 0.250000
O O7 0.199648 0.800353 0.000000
#
# Coordination Sequence:
#
# PCOD9551596 Si02
#       3
#     8  16  16
#     4  11  26  42  62  90 134 194 239 270 318 388
#     4  12  24  42  65  92 134 178 229 281 340 398
#     4  12  25  42  67  96 128 176 235 295 356 408
#
# _framework density 20.077867000000001
#
# number of rings (size 3 to 8) (size 9 to 14) (size 15 to 20)
#    0.000    0.200    4.000    6.000    5.600    0.000 
#    0.000    2.000    0.000    0.000    0.000    0.000 
#    0.000   22.400    0.800    0.000    0.000    0.000 
#
# Total GULP energy -111587.554887 kJ/mol
# GULP energy per Si atom -5579.377744 kJ/mol
# Density = 2.003217 g / cm^3
# Si number density = 20.077867 Si / 1000 Ang^3
#
#
#
# Elastic Constant Matrix: (Units=GPa)
#
#
# Indices 1 2 3 4 5 6 
#
# 1 95.9064 70.4323 77.7078 0.0000 0.0000 0.0000
# 2 70.4323 95.9057 77.7084 0.0000 0.0000 0.0000
# 3 77.7078 77.7084 199.4217 0.0000 0.0000 0.0000
# 4 0.0000 0.0000 0.0000 43.0863 0.0000 0.0000
# 5 0.0000 0.0000 0.0000 0.0000 43.0886 0.0000
# 6 0.0000 0.0000 0.0000 0.0000 0.0000 478.2958
#
#
#
# Elastic Compliance Matrix: (Units=1/GPa)
#
#
# Indices 1 2 3 4 5 6 
#
# 1 0.024355 -0.014901 -0.003684 0.000000 0.000000 0.000000
# 2 -0.014901 0.024355 -0.003684 0.000000 0.000000 0.000000
# 3 -0.003684 -0.003684 0.007885 0.000000 0.000000 0.000000
# 4 0.000000 0.000000 0.000000 0.023209 0.000000 0.000000
# 5 0.000000 0.000000 0.000000 0.000000 0.023208 0.000000
# 6 0.000000 0.000000 0.000000 0.000000 0.000000 0.002091
#
#
# Mechanical properties :
#
#
# Convention : Reuss Voigt Hill
#
# Bulk Modulus (GPa) = 82.93466 93.65899 88.29682
# Shear Modulus (GPa) = 32.53933 123.91984 78.22959
#
# Velocity S-wave (km/s) = 4.03011 7.86471 6.24881
# Velocity P-wave (km/s) = 7.94052 11.36753 9.80491
#
# Compressibility (1/GPa) = 0.01205768
#
# Stress axis : x y z
#
# Youngs Moduli (GPa) = 41.05978 41.05904 126.81609
#
# Poissons Ratio (x) = 0.61183 0.46715
# Poissons Ratio (y) = 0.61184 0.46719
# Poissons Ratio (z) = 0.15125 0.15126
#
# Static dielectric constant tensor:
#      x y z
#    x 1.750080 0.000000 0.000000 
#    y 0.000000 1.750090 0.000000 
#    z 0.000000 0.000000 1.766630 
# 
# From -- ./inp_files/412.got.cif
#   From: 2010.05.17/outbox.cif.g08.bks.cpg/sg97_1_cif.got.tgz:412.got - 2010.06.03 19:55:32.
