data_PCOD9551110
_publ_section_title
;
Structure prediction by ZEFSAII (Michael W. Deem and Ramdas Pophale) SiO2 
 PCOD9551110
Probable space group: P 43 21 2
;
_chemical_formula_sum "Si O2"
_cell_formula_units_Z 56
_cell_length_a 15.476712
_cell_length_b 15.476712
_cell_length_c 11.566430
_cell_angle_alpha 90.000000
_cell_angle_beta 90.000000
_cell_angle_gamma 90.000000
_cell_volume 2770.490951
_symmetry_space_group_name_H-M "P 43 21 2"
_symmetry_group_IT_number 96
_symmetry_cell_setting 'tetragonal'
loop_
_space_group_symop_operation_xyz
x,y,z
1/2-y,1/2+x,3/4+z
-x,-y,1/2+z
1/2+y,1/2-x,1/4+z
1/2+x,1/2-y,1/4-z
1/2-x,1/2+y,3/4-z
y,x,-z
-y,-x,1/2-z
loop_
_atom_site_type_symbol
_atom_site_label
_atom_site_fract_x
_atom_site_fract_y
_atom_site_fract_z
Si Si1 0.370661 0.239811 0.033559
Si Si2 0.825891 0.903609 0.785247
Si Si3 0.308310 0.169733 0.469331
Si Si4 0.459375 0.737471 0.395008
Si Si5 0.466340 0.398721 0.705426
Si Si6 0.267166 0.600641 0.719973
Si Si7 0.239242 0.911925 0.034615
O O1 0.304706 0.167533 0.988185
O O2 0.357193 0.235497 0.171958
O O3 0.334184 0.334184 0.000000
O O4 0.463939 0.227692 0.975472
O O5 0.755886 0.876532 0.880024
O O6 0.895819 0.826128 0.783818
O O7 0.776874 0.914752 0.666583
O O8 0.873102 0.988259 0.834736
O O9 0.257916 0.257916 0.500000
O O10 0.306274 0.103770 0.578527
O O11 0.390196 0.201833 0.395519
O O12 0.504358 0.675089 0.298165
O O13 0.513384 0.486617 0.750000
O O14 0.363436 0.402475 0.694290
O O15 0.359185 0.640816 0.750000
O O16 0.247613 0.507115 0.765706
#
# Coordination Sequence:
#
# PCOD9551110 Si02
#       7
#     8   8   8   8   8   8   8
#     4  11  22  40  63  89 119 167 215 254 316 398
#     4   9  18  38  57  87 131 154 196 267 314 372
#     4   9  20  37  62  90 119 163 208 256 319 381
#     4   9  18  38  64  86 121 167 209 255 317 389
#     4   9  19  33  58  95 126 159 204 258 325 387
#     4  11  24  37  56  89 130 163 205 264 321 371
#     4  12  22  37  62  92 125 163 212 259 323 381
#
# _framework density 20.213024999999998
#
# number of rings (size 3 to 8) (size 9 to 14) (size 15 to 20)
#    0.000    2.000    2.857    3.000    2.000    0.000 
#    0.000    0.000    3.143    0.000    0.000    0.000 
#    0.000    0.000    0.000    0.000    0.000    0.000 
#
# Total GULP energy -312074.765327 kJ/mol
# GULP energy per Si atom -5572.763667 kJ/mol
# Density = 2.016702 g / cm^3
# Si number density = 20.213025 Si / 1000 Ang^3
#
#
#
# Elastic Constant Matrix: (Units=GPa)
#
#
# Indices 1 2 3 4 5 6 
#
# 1 288.1814 -171.3134 9.8730 0.0000 0.0000 0.0000
# 2 -171.3134 288.1837 9.8358 0.0000 0.0000 0.0000
# 3 9.8730 9.8358 55.0005 0.0000 0.0000 0.0000
# 4 0.0000 0.0000 0.0000 25.9875 0.0000 0.0000
# 5 0.0000 0.0000 0.0000 0.0000 25.9875 0.0000
# 6 0.0000 0.0000 0.0000 0.0000 0.0000 18.3841
#
#
#
# Elastic Compliance Matrix: (Units=1/GPa)
#
#
# Indices 1 2 3 4 5 6 
#
# 1 0.005500 0.003323 -0.001582 0.000000 0.000000 0.000000
# 2 0.003323 0.005500 -0.001580 0.000000 0.000000 0.000000
# 3 -0.001582 -0.001580 0.018748 0.000000 0.000000 0.000000
# 4 0.000000 0.000000 0.000000 0.038480 0.000000 0.000000
# 5 0.000000 0.000000 0.000000 0.000000 0.038480 0.000000
# 6 0.000000 0.000000 0.000000 0.000000 0.000000 0.054395
#
#
# Mechanical properties :
#
#
# Convention : Reuss Voigt Hill
#
# Bulk Modulus (GPa) = 33.25453 36.46184 34.85819
# Shear Modulus (GPa) = 29.27354 66.26983 47.77169
#
# Velocity S-wave (km/s) = 3.80972 5.73209 4.86677
# Velocity P-wave (km/s) = 5.98663 7.86684 6.99024
#
# Compressibility (1/GPa) = 0.03007109
#
# Stress axis : x y z
#
# Youngs Moduli (GPa) = 181.82207 181.83199 53.33863
#
# Poissons Ratio (x) = -0.60431 0.08436
# Poissons Ratio (y) = -0.60427 0.08428
# Poissons Ratio (z) = 0.28757 0.28731
#
# Static dielectric constant tensor:
#      x y z
#    x 1.741430 0.000000 0.000000 
#    y 0.000000 1.741430 0.000000 
#    z 0.000000 0.000000 0.563630 
# 
# From -- ./inp_files/2288.got.cif
#   From: 2010.05.17/outbox.cif.g08.bks.cpg/sg96_2_cif.got.tgz:2288.got - 2010.06.03 19:52:08.
