data_PCOD9551454
_publ_section_title
;
Structure prediction by ZEFSAII (Michael W. Deem and Ramdas Pophale) SiO2 
 PCOD9551454
Probable space group: I 4 2 2 
;
_chemical_formula_sum "Si O2"
_cell_formula_units_Z 96
_cell_length_a 19.121713
_cell_length_b 19.121713
_cell_length_c 12.320873
_cell_angle_alpha 90.000000
_cell_angle_beta 90.000000
_cell_angle_gamma 90.000000
_cell_volume 4505.002871
_symmetry_space_group_name_H-M "I 4 2 2 "
_symmetry_group_IT_number 97
_symmetry_cell_setting 'tetragonal'
loop_
_space_group_symop_operation_xyz
x,y,z
-y,x,z
-x,-y,z
y,-x,z
x,-y,-z
-x,y,-z
y,x,-z
-y,-x,-z
1/2+x,1/2+y,1/2+z
1/2-y,1/2+x,1/2+z
1/2-x,1/2-y,1/2+z
1/2+y,1/2-x,1/2+z
1/2+x,1/2-y,1/2-z
1/2-x,1/2+y,1/2-z
1/2+y,1/2+x,1/2-z
1/2-y,1/2-x,1/2-z
loop_
_atom_site_type_symbol
_atom_site_label
_atom_site_fract_x
_atom_site_fract_y
_atom_site_fract_z
Si Si1 0.744828 0.936708 0.577618
Si Si2 0.218570 0.319740 0.932673
Si Si3 0.988224 0.824051 0.120567
Si Si4 0.361868 0.718461 0.713963
Si Si5 0.894742 0.953555 0.657896
Si Si6 0.727414 0.114861 0.205309
O O1 0.701197 0.873495 0.526843
O O2 0.828548 0.925396 0.590678
O O3 0.724963 0.944904 0.701704
O O4 0.732929 0.000000 0.500000
O O5 0.261446 0.362357 0.841102
O O6 0.158970 0.282564 0.864282
O O7 0.262780 0.262780 0.000000
O O8 0.064285 0.807771 0.171080
O O9 0.953904 0.874349 0.213248
O O10 0.935911 0.755949 0.108377
O O11 0.000000 0.853754 0.000000
O O12 0.292766 0.669235 0.708534
O O13 0.965253 0.911484 0.634033
O O14 0.663632 0.163632 0.250000
#
# Coordination Sequence:
#
# PCOD9551454 Si02
#       6
#    16  16  16  16  16  16
#     4  11  23  35  62  90 122 166 214 268 331 388
#     4  11  21  37  65  90 122 166 212 278 336 380
#     4  11  25  37  61  91 130 175 216 273 331 395
#     4  11  23  39  59  97 129 164 222 272 326 408
#     4  10  23  40  55  83 129 179 225 260 305 394
#     4  11  22  42  62  92 132 168 215 278 330 397
#
# _framework density 21.309643999999999
#
# number of rings (size 3 to 8) (size 9 to 14) (size 15 to 20)
#    0.000    1.167    3.333    4.000    7.000    2.000 
#    0.000    1.667    0.000    0.000    0.000   10.500 
#    0.000    0.000    0.000    0.000    0.000    0.000 
#
# Total GULP energy -267213.215110 kJ/mol
# GULP energy per Si atom -5566.941981 kJ/mol
# Density = 2.126114 g / cm^3
# Si number density = 21.309644 Si / 1000 Ang^3
#
#
#
# Elastic Constant Matrix: (Units=GPa)
#
#
# Indices 1 2 3 4 5 6 
#
# 1 47.3032 29.0383 0.2490 0.0000 0.0000 0.0000
# 2 29.0383 47.3032 0.2490 0.0000 0.0000 0.0000
# 3 0.2490 0.2490 94.7827 0.0000 0.0000 0.0000
# 4 0.0000 0.0000 0.0000 30.8348 0.0000 0.0000
# 5 0.0000 0.0000 0.0000 0.0000 30.8348 0.0000
# 6 0.0000 0.0000 0.0000 0.0000 0.0000 27.6033
#
#
#
# Elastic Compliance Matrix: (Units=1/GPa)
#
#
# Indices 1 2 3 4 5 6 
#
# 1 0.033925 -0.020825 -0.000034 0.000000 0.000000 0.000000
# 2 -0.020825 0.033925 -0.000034 0.000000 0.000000 0.000000
# 3 -0.000034 -0.000034 0.010551 0.000000 0.000000 0.000000
# 4 0.000000 0.000000 0.000000 0.032431 0.000000 0.000000
# 5 0.000000 0.000000 0.000000 0.000000 0.032431 0.000000
# 6 0.000000 0.000000 0.000000 0.000000 0.000000 0.036228
#
#
# Mechanical properties :
#
#
# Convention : Reuss Voigt Hill
#
# Bulk Modulus (GPa) = 27.31381 27.60684 27.46032
# Shear Modulus (GPa) = 21.41500 28.51143 24.96321
#
# Velocity S-wave (km/s) = 3.17352 3.66178 3.42636
# Velocity P-wave (km/s) = 5.12579 5.55530 5.34486
#
# Compressibility (1/GPa) = 0.03661152
#
# Stress axis : x y z
#
# Youngs Moduli (GPa) = 29.47717 29.47717 94.78107
#
# Poissons Ratio (x) = 0.61387 0.00326
# Poissons Ratio (y) = 0.61387 0.00326
# Poissons Ratio (z) = 0.00101 0.00101
#
# Static dielectric constant tensor:
#      x y z
#    x 1.836220 0.000000 0.000000 
#    y 0.000000 1.836220 0.000000 
#    z 0.000000 0.000000 1.847870 
# 
# From -- ./inp_files/3893.got.cif
#   From: 2010.05.17/outbox.cif.g08.bks.cpg/sg97_2_cif.got.tgz:3893.got - 2010.06.03 19:55:32.
