data_PCOD9551660
_publ_section_title
;
Structure prediction by ZEFSAII (Michael W. Deem and Ramdas Pophale) SiO2 
 PCOD9551660
Probable space group: I 41 2 2
;
_chemical_formula_sum "Si O2"
_cell_formula_units_Z 52
_cell_length_a 20.817677
_cell_length_b 20.817677
_cell_length_c 5.633931
_cell_angle_alpha 90.000000
_cell_angle_beta 90.000000
_cell_angle_gamma 90.000000
_cell_volume 2441.608654
_symmetry_space_group_name_H-M "I 41 2 2"
_symmetry_group_IT_number 98
_symmetry_cell_setting 'tetragonal'
loop_
_space_group_symop_operation_xyz
x,y,z
-y,1/2+x,1/4+z
-x,-y,z
y,1/2-x,1/4+z
x,1/2-y,1/4-z
-x,1/2+y,1/4-z
y,x,-z
-y,-x,-z
1/2+x,1/2+y,1/2+z
1/2-y,x,3/4+z
1/2-x,1/2-y,1/2+z
1/2+y,-x,3/4+z
1/2+x,-y,3/4-z
1/2-x,y,3/4-z
1/2+y,1/2+x,1/2-z
1/2-y,1/2-x,1/2-z
loop_
_atom_site_type_symbol
_atom_site_label
_atom_site_fract_x
_atom_site_fract_y
_atom_site_fract_z
Si Si1 0.352914 0.346589 0.750129
Si Si2 0.498174 0.637671 0.721898
Si Si3 0.000000 0.000000 0.000000
Si Si4 0.501895 0.822284 0.034598
O O1 0.324668 0.324668 0.500000
O O2 0.429338 0.333261 0.746308
O O3 0.347565 0.424696 0.753986
O O4 0.324643 0.324643 0.000000
O O5 0.501257 0.563056 0.659267
O O6 0.471325 0.669126 0.477394
O O7 0.470196 0.643998 0.986328
O O8 0.504833 0.750000 0.125000
#
# Coordination Sequence:
#
# PCOD9551660 Si02
#       4
#    16  16   4  16
#     4   8  14  27  39  59  84 107 149 189 223 271
#     4  10  20  30  46  69  92 130 158 204 240 291
#     4  12  20  34  52  70 112 126 160 214 248 302
#     4  10  18  31  44  63  92 126 165 201 239 285
#
# _framework density 21.297436000000001
#
# number of rings (size 3 to 8) (size 9 to 14) (size 15 to 20)
#    0.000    2.462    4.615    0.923    0.000    2.462 
#    0.000    0.000    0.000    0.000    0.000    0.000 
#    0.000  199.385    5.538    0.000    0.000   43.077 
#
# Total GULP energy -144853.440681 kJ/mol
# GULP energy per Si atom -5571.286180 kJ/mol
# Density = 2.124896 g / cm^3
# Si number density = 21.297436 Si / 1000 Ang^3
#
#
#
# Elastic Constant Matrix: (Units=GPa)
#
#
# Indices 1 2 3 4 5 6 
#
# 1 44.3703 5.8526 21.5787 0.0000 0.0000 0.0000
# 2 5.8526 44.3703 21.5787 0.0000 0.0000 0.0000
# 3 21.5787 21.5787 278.9630 0.0000 0.0000 0.0000
# 4 0.0000 0.0000 0.0000 11.7899 0.0000 0.0000
# 5 0.0000 0.0000 0.0000 0.0000 11.7899 0.0000
# 6 0.0000 0.0000 0.0000 0.0000 0.0000 -1.9858
#
#
#
# Elastic Compliance Matrix: (Units=1/GPa)
#
#
# Indices 1 2 3 4 5 6 
#
# 1 0.023646 -0.002317 -0.001650 0.000000 0.000000 0.000000
# 2 -0.002317 0.023646 -0.001650 0.000000 0.000000 0.000000
# 3 -0.001650 -0.001650 0.003840 0.000000 0.000000 0.000000
# 4 0.000000 0.000000 0.000000 0.084819 0.000000 0.000000
# 5 0.000000 0.000000 0.000000 0.000000 0.084819 0.000000
# 6 0.000000 0.000000 0.000000 0.000000 0.000000 -0.503563
#
#
# Mechanical properties :
#
#
# Convention : Reuss Voigt Hill
#
# Bulk Modulus (GPa) = 25.06360 51.74704 38.40532
# Shear Modulus (GPa) = -19.36015 25.56502 3.10244
#
# Velocity S-wave (km/s) = -3.01829 3.46841 1.20826
# Velocity P-wave (km/s) = 0.59404 6.35530 4.47420
#
# Compressibility (1/GPa) = 0.03989850
#
# Stress axis : x y z
#
# Youngs Moduli (GPa) = 42.29127 42.29127 260.42011
#
# Poissons Ratio (x) = 0.09797 0.42966
# Poissons Ratio (y) = 0.09797 0.42966
# Poissons Ratio (z) = 0.06977 0.06977
#
# Static dielectric constant tensor:
#      x y z
#    x 1.782480 0.000000 0.000000 
#    y 0.000000 1.782480 0.000000 
#    z 0.000000 0.000000 2.269500 
# 
# From -- ./inp_files/969.got.cif
#   From: 2010.05.17/outbox.cif.g08.bks.cpg/sg98_1_cif.got.tgz:969.got - 2010.06.03 20:00:51.
