data_PCOD9551232
_publ_section_title
;
Structure prediction by ZEFSAII (Michael W. Deem and Ramdas Pophale) SiO2 
 PCOD9551232
Probable space group: I 4 2 2 
;
_chemical_formula_sum "Si O2"
_cell_formula_units_Z 88
_cell_length_a 17.784771
_cell_length_b 17.784771
_cell_length_c 14.166031
_cell_angle_alpha 90.000000
_cell_angle_beta 90.000000
_cell_angle_gamma 90.000000
_cell_volume 4480.688400
_symmetry_space_group_name_H-M "I 4 2 2 "
_symmetry_group_IT_number 97
_symmetry_cell_setting 'tetragonal'
loop_
_space_group_symop_operation_xyz
x,y,z
-y,x,z
-x,-y,z
y,-x,z
x,-y,-z
-x,y,-z
y,x,-z
-y,-x,-z
1/2+x,1/2+y,1/2+z
1/2-y,1/2+x,1/2+z
1/2-x,1/2-y,1/2+z
1/2+y,1/2-x,1/2+z
1/2+x,1/2-y,1/2-z
1/2-x,1/2+y,1/2-z
1/2+y,1/2+x,1/2-z
1/2-y,1/2-x,1/2-z
loop_
_atom_site_type_symbol
_atom_site_label
_atom_site_fract_x
_atom_site_fract_y
_atom_site_fract_z
Si Si1 0.886471 0.109414 0.897123
Si Si2 0.060777 0.895390 0.687794
Si Si3 0.177222 0.779193 0.606677
Si Si4 0.721123 0.051603 0.873867
Si Si5 0.788223 0.613162 0.419309
Si Si6 0.312652 0.812652 0.750000
O O1 0.934000 0.103983 0.801981
O O2 0.810876 0.062132 0.880752
O O3 0.868571 0.198800 0.909696
O O4 0.915161 0.084840 0.000000
O O5 0.106753 0.825267 0.647443
O O6 0.973953 0.899940 0.657873
O O7 0.195836 0.804165 0.500000
O O8 0.169096 0.688723 0.608717
O O9 0.249126 0.799064 0.671225
O O10 0.695805 0.104738 0.790907
O O11 0.700096 0.964649 0.863577
O O12 0.694770 0.087991 0.973182
#
# Coordination Sequence:
#
# PCOD9551232 Si02
#       6
#    16  16  16  16  16   8
#     4  10  18  33  56  90 131 169 208 257 323 386
#     4  11  25  41  59  90 133 174 216 267 322 384
#     4  12  22  40  65  89 125 169 224 261 312 395
#     4  10  19  32  58  94 134 165 201 270 327 382
#     4  10  19  34  58  94 129 164 213 265 328 376
#     4  12  20  36  60  98 133 169 214 258 322 398
#
# _framework density 19.639838000000001
#
# number of rings (size 3 to 8) (size 9 to 14) (size 15 to 20)
#    0.000    1.273    5.455    1.636    0.000    2.909 
#    0.000    1.818    0.000    0.000    0.000    5.091 
#    0.000    2.909    0.000    0.000    0.000    0.000 
#
# Total GULP energy -245761.445905 kJ/mol
# GULP energy per Si atom -5585.487407 kJ/mol
# Density = 1.959514 g / cm^3
# Si number density = 19.639838 Si / 1000 Ang^3
#
#
#
# Elastic Constant Matrix: (Units=GPa)
#
#
# Indices 1 2 3 4 5 6 
#
# 1 -41.4281 242.3659 46.0104 0.0000 0.0000 0.0000
# 2 242.3659 -41.4258 46.0096 0.0000 0.0000 0.0000
# 3 46.0104 46.0096 87.6723 0.0000 0.0000 0.0000
# 4 0.0000 0.0000 0.0000 13.8001 0.0000 0.0000
# 5 0.0000 0.0000 0.0000 0.0000 13.8004 0.0000
# 6 0.0000 0.0000 0.0000 0.0000 0.0000 23.7404
#
#
#
# Elastic Compliance Matrix: (Units=1/GPa)
#
#
# Indices 1 2 3 4 5 6 
#
# 1 0.001514 0.005037 -0.003438 0.000000 0.000000 0.000000
# 2 0.005037 0.001514 -0.003438 0.000000 0.000000 0.000000
# 3 -0.003438 -0.003438 0.015015 0.000000 0.000000 0.000000
# 4 0.000000 0.000000 0.000000 0.072463 0.000000 0.000000
# 5 0.000000 0.000000 0.000000 0.000000 0.072462 0.000000
# 6 0.000000 0.000000 0.000000 0.000000 0.000000 0.042122
#
#
# Mechanical properties :
#
#
# Convention : Reuss Voigt Hill
#
# Bulk Modulus (GPa) = 69.61449 74.84335 72.22892
# Shear Modulus (GPa) = 23.41327 -11.70297 5.85515
#
# Velocity S-wave (km/s) = 3.45647 -2.44371 1.72851
# Velocity P-wave (km/s) = 7.17301 5.49803 6.39064
#
# Compressibility (1/GPa) = 0.01436483
#
# Stress axis : x y z
#
# Youngs Moduli (GPa) = 660.65909 660.62738 66.60199
#
# Poissons Ratio (x) = -3.32783 0.22897
# Poissons Ratio (y) = -3.32799 0.22898
# Poissons Ratio (z) = 2.27130 2.27123
#
# Static dielectric constant tensor:
#      x y z
#    x 1.702050 0.000000 0.000000 
#    y 0.000000 1.702050 0.000000 
#    z 0.000000 0.000000 1.723320 
# 
# From -- ./inp_files/4837.got.cif
#   From: 2010.05.17/outbox.cif.g08.bks.cpg/sg97_3_cif.got.tgz:4837.got - 2010.06.03 19:55:32.
