data_PCOD9551721
_publ_section_title
;
Structure prediction by ZEFSAII (Michael W. Deem and Ramdas Pophale) SiO2 
 PCOD9551721
Probable space group: I 41 2 2
;
_chemical_formula_sum "Si O2"
_cell_formula_units_Z 72
_cell_length_a 11.477883
_cell_length_b 11.477883
_cell_length_c 24.573283
_cell_angle_alpha 90.000000
_cell_angle_beta 90.000000
_cell_angle_gamma 90.000000
_cell_volume 3237.328489
_symmetry_space_group_name_H-M "I 41 2 2"
_symmetry_group_IT_number 98
_symmetry_cell_setting 'tetragonal'
loop_
_space_group_symop_operation_xyz
x,y,z
-y,1/2+x,1/4+z
-x,-y,z
y,1/2-x,1/4+z
x,1/2-y,1/4-z
-x,1/2+y,1/4-z
y,x,-z
-y,-x,-z
1/2+x,1/2+y,1/2+z
1/2-y,x,3/4+z
1/2-x,1/2-y,1/2+z
1/2+y,-x,3/4+z
1/2+x,-y,3/4-z
1/2-x,y,3/4-z
1/2+y,1/2+x,1/2-z
1/2-y,1/2-x,1/2-z
loop_
_atom_site_type_symbol
_atom_site_label
_atom_site_fract_x
_atom_site_fract_y
_atom_site_fract_z
Si Si1 0.713828 0.286173 0.500000
Si Si2 0.230169 0.374136 0.074068
Si Si3 0.045581 0.250000 0.125000
Si Si4 0.554356 0.750000 0.125000
Si Si5 0.612141 0.444031 0.593720
Si Si6 0.861607 0.028088 0.268093
O O1 0.679549 0.364933 0.551575
O O2 0.849103 0.318174 0.493806
O O3 0.139119 0.265161 0.076520
O O4 0.357371 0.333099 0.091270
O O5 0.186069 0.465371 0.120914
O O6 0.209653 0.433105 0.016632
O O7 0.959419 0.142751 0.132674
O O8 0.480998 0.822623 0.081105
O O9 0.500000 0.500000 0.564036
O O10 0.000000 0.000000 0.262942
#
# Coordination Sequence:
#
# PCOD9551721 Si02
#       6
#     8  16   8   8  16  16
#     4  12  25  38  63  94 128 174 218 272 333 398
#     4  10  21  41  67  94 129 173 219 273 339 411
#     4   9  18  33  62  94 124 159 200 261 330 394
#     4  11  26  45  66  94 132 177 224 277 340 416
#     4  10  19  35  60  94 129 160 206 264 329 400
#     4  12  26  45  68  96 133 178 229 286 345 412
#
# _framework density 22.240562000000001
#
# number of rings (size 3 to 8) (size 9 to 14) (size 15 to 20)
#    0.000    1.333    0.000    7.000    0.000    4.444 
#    0.000   10.000    0.000    0.000    0.000    0.000 
#    0.000    0.000    0.000    0.000    0.000    0.000 
#
# Total GULP energy -200756.236233 kJ/mol
# GULP energy per Si atom -5576.562118 kJ/mol
# Density = 2.218994 g / cm^3
# Si number density = 22.240562 Si / 1000 Ang^3
#
#
#
# Elastic Constant Matrix: (Units=GPa)
#
#
# Indices 1 2 3 4 5 6 
#
# 1 75.9344 39.9219 21.6344 0.0000 0.0000 0.0000
# 2 39.9219 75.9334 21.6342 0.0000 0.0000 0.0000
# 3 21.6344 21.6342 102.7494 0.0000 0.0000 0.0000
# 4 0.0000 0.0000 0.0000 32.0022 0.0000 0.0000
# 5 0.0000 0.0000 0.0000 0.0000 31.9951 0.0000
# 6 0.0000 0.0000 0.0000 0.0000 0.0000 23.7165
#
#
#
# Elastic Compliance Matrix: (Units=1/GPa)
#
#
# Indices 1 2 3 4 5 6 
#
# 1 0.018568 -0.009200 -0.001972 0.000000 0.000000 0.000000
# 2 -0.009200 0.018568 -0.001972 0.000000 0.000000 0.000000
# 3 -0.001972 -0.001972 0.010563 0.000000 0.000000 0.000000
# 4 0.000000 0.000000 0.000000 0.031248 0.000000 0.000000
# 5 0.000000 0.000000 0.000000 0.000000 0.031255 0.000000
# 6 0.000000 0.000000 0.000000 0.000000 0.000000 0.042165
#
#
# Mechanical properties :
#
#
# Convention : Reuss Voigt Hill
#
# Bulk Modulus (GPa) = 46.70876 46.77759 46.74318
# Shear Modulus (GPa) = 26.91154 28.97121 27.94137
#
# Velocity S-wave (km/s) = 3.48231 3.61311 3.54831
# Velocity P-wave (km/s) = 6.10048 6.20357 6.15224
#
# Compressibility (1/GPa) = 0.02140926
#
# Stress axis : x y z
#
# Youngs Moduli (GPa) = 53.85550 53.85486 94.66970
#
# Poissons Ratio (x) = 0.49548 0.18673
# Poissons Ratio (y) = 0.49548 0.18673
# Poissons Ratio (z) = 0.10623 0.10623
#
# Static dielectric constant tensor:
#      x y z
#    x 1.884760 0.000000 0.000000 
#    y 0.000000 1.884760 0.000000 
#    z 0.000000 0.000000 1.855740 
# 
# From -- ./inp_files/10864.got.cif
#   From: 2010.05.17/outbox.cif.g08.bks.cpg/sg98_6_cif.got.tgz:10864.got - 2010.06.03 20:00:51.
