data_PCOD9551937
_publ_section_title
;
Structure prediction by ZEFSAII (Michael W. Deem and Ramdas Pophale) SiO2 
 PCOD9551937
Probable space group: I 41 2 2
;
_chemical_formula_sum "Si O2"
_cell_formula_units_Z 96
_cell_length_a 16.477429
_cell_length_b 16.477429
_cell_length_c 17.884364
_cell_angle_alpha 90.000000
_cell_angle_beta 90.000000
_cell_angle_gamma 90.000000
_cell_volume 4855.706167
_symmetry_space_group_name_H-M "I 41 2 2"
_symmetry_group_IT_number 98
_symmetry_cell_setting 'tetragonal'
loop_
_space_group_symop_operation_xyz
x,y,z
-y,1/2+x,1/4+z
-x,-y,z
y,1/2-x,1/4+z
x,1/2-y,1/4-z
-x,1/2+y,1/4-z
y,x,-z
-y,-x,-z
1/2+x,1/2+y,1/2+z
1/2-y,x,3/4+z
1/2-x,1/2-y,1/2+z
1/2+y,-x,3/4+z
1/2+x,-y,3/4-z
1/2-x,y,3/4-z
1/2+y,1/2+x,1/2-z
1/2-y,1/2-x,1/2-z
loop_
_atom_site_type_symbol
_atom_site_label
_atom_site_fract_x
_atom_site_fract_y
_atom_site_fract_z
Si Si1 0.379812 0.923666 0.967866
Si Si2 0.940174 0.424497 0.631088
Si Si3 0.930580 0.203766 0.009562
Si Si4 0.013686 0.186599 0.858281
Si Si5 0.843565 0.931167 0.877210
Si Si6 0.471859 0.335454 0.996760
O O1 0.447243 0.878659 0.919270
O O2 0.374246 0.019152 0.946248
O O3 0.401125 0.903220 0.052788
O O4 0.286821 0.898884 0.953856
O O5 0.878459 0.465062 0.689699
O O6 0.000000 0.500000 0.615461
O O7 0.987112 0.351185 0.672433
O O8 0.972211 0.227252 0.930664
O O9 0.858306 0.141695 0.000000
O O10 0.999727 0.160162 0.059091
O O11 0.093540 0.140570 0.887192
O O12 0.036169 0.247019 0.790092
O O13 0.750000 0.902852 0.875000
O O14 0.388905 0.388905 0.000000
#
# Coordination Sequence:
#
# PCOD9551937 Si02
#       6
#    16  16  16  16  16  16
#     4  11  22  38  62  94 124 159 214 268 321 393
#     4   9  17  36  62  84 117 163 202 252 309 380
#     4  11  23  41  62  93 130 167 208 273 334 386
#     4  12  22  39  66  93 124 172 216 259 329 401
#     4  10  23  40  63  94 126 161 219 273 323 388
#     4   9  20  38  61  89 123 164 211 255 317 389
#
# _framework density 19.770554000000001
#
# number of rings (size 3 to 8) (size 9 to 14) (size 15 to 20)
#    0.000    1.667    3.333    3.000    0.000    1.333 
#    3.000    5.000    0.000    0.000    0.000    0.000 
#    0.000    0.000    0.000    0.000    0.000    0.000 
#
# Total GULP energy -267582.726956 kJ/mol
# GULP energy per Si atom -5574.640145 kJ/mol
# Density = 1.972556 g / cm^3
# Si number density = 19.770554 Si / 1000 Ang^3
#
#
#
# Elastic Constant Matrix: (Units=GPa)
#
#
# Indices 1 2 3 4 5 6 
#
# 1 61.5361 52.2230 15.5529 0.0000 0.0000 0.0000
# 2 52.2230 61.5315 15.5507 0.0000 0.0000 0.0000
# 3 15.5529 15.5507 82.9139 0.0000 0.0000 0.0000
# 4 0.0000 0.0000 0.0000 23.0880 0.0000 0.0000
# 5 0.0000 0.0000 0.0000 0.0000 23.0881 0.0000
# 6 0.0000 0.0000 0.0000 0.0000 0.0000 8.8429
#
#
#
# Elastic Compliance Matrix: (Units=1/GPa)
#
#
# Indices 1 2 3 4 5 6 
#
# 1 0.058332 -0.049068 -0.001739 0.000000 0.000000 0.000000
# 2 -0.049068 0.058336 -0.001737 0.000000 0.000000 0.000000
# 3 -0.001739 -0.001737 0.012713 0.000000 0.000000 0.000000
# 4 0.000000 0.000000 0.000000 0.043313 0.000000 0.000000
# 5 0.000000 0.000000 0.000000 0.000000 0.043312 0.000000
# 6 0.000000 0.000000 0.000000 0.000000 0.000000 0.113086
#
#
# Mechanical properties :
#
#
# Convention : Reuss Voigt Hill
#
# Bulk Modulus (GPa) = 41.16482 41.40385 41.28433
# Shear Modulus (GPa) = 11.30512 19.18077 15.24295
#
# Velocity S-wave (km/s) = 2.39386 3.11813 2.77969
# Velocity P-wave (km/s) = 5.33922 5.82677 5.58832
#
# Compressibility (1/GPa) = 0.02429259
#
# Stress axis : x y z
#
# Youngs Moduli (GPa) = 17.14318 17.14207 78.66164
#
# Poissons Ratio (x) = 0.84113 0.13680
# Poissons Ratio (y) = 0.84119 0.13663
# Poissons Ratio (z) = 0.02981 0.02977
#
# Static dielectric constant tensor:
#      x y z
#    x 1.691250 0.000000 0.000000 
#    y 0.000000 1.691250 0.000000 
#    z 0.000000 0.000000 1.758230 
# 
# From -- ./inp_files/8922.got.cif
#   From: 2010.05.17/outbox.cif.g08.bks.cpg/sg98_5_cif.got.tgz:8922.got - 2010.06.03 20:00:51.
