data_PCOD9551568
_publ_section_title
;
Structure prediction by ZEFSAII (Michael W. Deem and Ramdas Pophale) SiO2 
 PCOD9551568
Probable space group: I 4 2 2 
;
_chemical_formula_sum "Si O2"
_cell_formula_units_Z 32
_cell_length_a 8.347271
_cell_length_b 8.347271
_cell_length_c 19.216549
_cell_angle_alpha 90.000000
_cell_angle_beta 90.000000
_cell_angle_gamma 90.000000
_cell_volume 1338.950200
_symmetry_space_group_name_H-M "I 4 2 2 "
_symmetry_group_IT_number 97
_symmetry_cell_setting 'tetragonal'
loop_
_space_group_symop_operation_xyz
x,y,z
-y,x,z
-x,-y,z
y,-x,z
x,-y,-z
-x,y,-z
y,x,-z
-y,-x,-z
1/2+x,1/2+y,1/2+z
1/2-y,1/2+x,1/2+z
1/2-x,1/2-y,1/2+z
1/2+y,1/2-x,1/2+z
1/2+x,1/2-y,1/2-z
1/2-x,1/2+y,1/2-z
1/2+y,1/2+x,1/2-z
1/2-y,1/2-x,1/2-z
loop_
_atom_site_type_symbol
_atom_site_label
_atom_site_fract_x
_atom_site_fract_y
_atom_site_fract_z
Si Si1 0.239544 0.544097 0.418941
Si Si2 0.928130 0.740117 0.687302
O O1 0.326107 0.378650 0.398832
O O2 0.211056 0.500000 0.500000
O O3 0.094005 0.634909 0.382263
O O4 0.874189 0.625812 0.750000
O O5 0.105144 0.812202 0.691112
#
# Coordination Sequence:
#
# PCOD9551568 Si02
#       2
#    16  16
#     4   9  19  39  63  91 128 171 220 273 329 393
#     4  11  24  41  65 100 138 177 226 280 334 398
#
# _framework density 23.899318999999998
#
# number of rings (size 3 to 8) (size 9 to 14) (size 15 to 20)
#    0.000    2.000    0.000    4.500    0.000   11.000 
#    0.000   25.000    0.000   12.000    0.000    0.000 
#    0.000    0.000    0.000    0.000    0.000    0.000 
#
# Total GULP energy -89224.112103 kJ/mol
# GULP energy per Si atom -5576.507006 kJ/mol
# Density = 2.384492 g / cm^3
# Si number density = 23.899319 Si / 1000 Ang^3
#
#
#
# Elastic Constant Matrix: (Units=GPa)
#
#
# Indices 1 2 3 4 5 6 
#
# 1 110.1440 112.6100 57.5727 0.0000 0.0000 0.0000
# 2 112.6100 110.1460 57.5737 0.0000 0.0000 0.0000
# 3 57.5727 57.5737 65.9073 0.0000 0.0000 0.0000
# 4 0.0000 0.0000 0.0000 76.5033 0.0000 0.0000
# 5 0.0000 0.0000 0.0000 0.0000 76.5047 0.0000
# 6 0.0000 0.0000 0.0000 0.0000 0.0000 47.4236
#
#
#
# Elastic Compliance Matrix: (Units=1/GPa)
#
#
# Indices 1 2 3 4 5 6 
#
# 1 -0.198744 0.206929 -0.007153 0.000000 0.000000 0.000000
# 2 0.206929 -0.198744 -0.007148 0.000000 0.000000 0.000000
# 3 -0.007153 -0.007148 0.027665 0.000000 0.000000 0.000000
# 4 0.000000 0.000000 0.000000 0.013071 0.000000 0.000000
# 5 0.000000 0.000000 0.000000 0.000000 0.013071 0.000000
# 6 0.000000 0.000000 0.000000 0.000000 0.000000 0.021087
#
#
# Mechanical properties :
#
#
# Convention : Reuss Voigt Hill
#
# Bulk Modulus (GPa) = 64.78951 82.41224 73.60088
# Shear Modulus (GPa) = -7.11535 43.98238 18.43352
#
# Velocity S-wave (km/s) = -1.72733 4.29455 2.78024
# Velocity P-wave (km/s) = 4.81560 7.69083 6.41634
#
# Compressibility (1/GPa) = 0.01543460
#
# Stress axis : x y z
#
# Youngs Moduli (GPa) = -5.03159 -5.03161 36.14660
#
# Poissons Ratio (x) = 1.04119 0.25856
# Poissons Ratio (y) = 1.04118 0.25836
# Poissons Ratio (z) = -0.03599 -0.03596
#
# Static dielectric constant tensor:
#      x y z
#    x 1.868660 0.000000 0.000000 
#    y 0.000000 1.868650 0.000000 
#    z 0.000000 0.000000 1.958820 
# 
# From -- ./inp_files/6073.got.cif
#   From: 2010.05.17/outbox.cif.g08.bks.cpg/sg97_4_cif.got.tgz:6073.got - 2010.06.03 19:55:32.
