data_PCOD9551090
_publ_section_title
;
Structure prediction by ZEFSAII (Michael W. Deem and Ramdas Pophale) SiO2 
 PCOD9551090
Probable space group: P 43 21 2
;
_chemical_formula_sum "Si O2"
_cell_formula_units_Z 32
_cell_length_a 9.616183
_cell_length_b 9.616183
_cell_length_c 12.446458
_cell_angle_alpha 90.000000
_cell_angle_beta 90.000000
_cell_angle_gamma 90.000000
_cell_volume 1150.936113
_symmetry_space_group_name_H-M "P 43 21 2"
_symmetry_group_IT_number 96
_symmetry_cell_setting 'tetragonal'
loop_
_space_group_symop_operation_xyz
x,y,z
1/2-y,1/2+x,3/4+z
-x,-y,1/2+z
1/2+y,1/2-x,1/4+z
1/2+x,1/2-y,1/4-z
1/2-x,1/2+y,3/4-z
y,x,-z
-y,-x,1/2-z
loop_
_atom_site_type_symbol
_atom_site_label
_atom_site_fract_x
_atom_site_fract_y
_atom_site_fract_z
Si Si1 0.852976 0.955775 0.648478
Si Si2 0.916950 0.916950 0.000000
Si Si3 0.249538 0.750463 0.750000
Si Si4 0.863551 0.606522 0.944496
Si Si5 0.142761 0.350055 0.204720
O O1 0.963959 0.017115 0.902772
O O2 0.752569 0.904471 0.551930
O O3 0.912808 0.808174 0.691286
O O4 0.750698 0.031858 0.732876
O O5 0.921463 0.750188 0.993762
O O6 0.152225 0.752191 0.854476
O O7 0.809888 0.653143 0.828370
O O8 0.018605 0.541093 0.933650
#
# Coordination Sequence:
#
# PCOD9551090 Si02
#       5
#     8   4   4   8   8
#     4   9  24  57  79 120 188 232 300 403 462 560
#     4  11  28  50  86 119 182 250 293 386 490 553
#     4   7  20  54  82 105 180 246 273 376 486 525
#     4  12  28  46  88 128 164 237 324 372 481 572
#     4  10  26  51  82 129 174 238 303 390 469 552
#
# _framework density 27.803453000000001
#
# number of rings (size 3 to 8) (size 9 to 14) (size 15 to 20)
#    1.500    0.500    0.000    0.000    7.000    5.000 
#    4.500    2.500    0.000    0.000    0.000    0.000 
#    0.000    0.000    0.000    0.000    0.000    0.000 
#
# Total GULP energy -178222.459762 kJ/mol
# GULP energy per Si atom -5569.451868 kJ/mol
# Density = 2.774017 g / cm^3
# Si number density = 27.803453 Si / 1000 Ang^3
#
#
#
# Elastic Constant Matrix: (Units=GPa)
#
#
# Indices 1 2 3 4 5 6 
#
# 1 110.6549 85.5750 55.4096 0.0000 0.0000 0.0000
# 2 85.5750 110.6559 55.4101 0.0000 0.0000 0.0000
# 3 55.4096 55.4101 185.3293 0.0000 0.0000 0.0000
# 4 0.0000 0.0000 0.0000 40.3117 0.0000 0.0000
# 5 0.0000 0.0000 0.0000 0.0000 40.3121 0.0000
# 6 0.0000 0.0000 0.0000 0.0000 0.0000 18.6663
#
#
#
# Elastic Compliance Matrix: (Units=1/GPa)
#
#
# Indices 1 2 3 4 5 6 
#
# 1 0.023002 -0.016870 -0.001833 0.000000 0.000000 0.000000
# 2 -0.016870 0.023001 -0.001833 0.000000 0.000000 0.000000
# 3 -0.001833 -0.001833 0.006492 0.000000 0.000000 0.000000
# 4 0.000000 0.000000 0.000000 0.024807 0.000000 0.000000
# 5 0.000000 0.000000 0.000000 0.000000 0.024806 0.000000
# 6 0.000000 0.000000 0.000000 0.000000 0.000000 0.053572
#
#
# Mechanical properties :
#
#
# Convention : Reuss Voigt Hill
#
# Bulk Modulus (GPa) = 87.55041 88.82551 88.18796
# Shear Modulus (GPa) = 24.93007 33.87438 29.40222
#
# Velocity S-wave (km/s) = 2.99767 3.49428 3.25545
# Velocity P-wave (km/s) = 6.59839 6.94960 6.77627
#
# Compressibility (1/GPa) = 0.01142199
#
# Stress axis : x y z
#
# Youngs Moduli (GPa) = 43.47520 43.47551 154.03700
#
# Poissons Ratio (x) = 0.73344 0.28237
# Poissons Ratio (y) = 0.73344 0.28238
# Poissons Ratio (z) = 0.07969 0.07970
#
# Static dielectric constant tensor:
#      x y z
#    x 3.394740 0.000000 0.000000 
#    y 0.000000 3.394740 0.000000 
#    z 0.000000 0.000000 2.391540 
# 
# From -- ./inp_files/1949.got.cif
#   From: 2010.05.17/outbox.cif.g08.bks.cpg/sg96_1_cif.got.tgz:1949.got - 2010.06.03 19:52:08.
