data_PCOD9551161
_publ_section_title
;
Structure prediction by ZEFSAII (Michael W. Deem and Ramdas Pophale) SiO2 
 PCOD9551161
Probable space group: P 43 21 2
;
_chemical_formula_sum "Si O2"
_cell_formula_units_Z 24
_cell_length_a 6.999802
_cell_length_b 6.999802
_cell_length_c 20.581586
_cell_angle_alpha 90.000000
_cell_angle_beta 90.000000
_cell_angle_gamma 90.000000
_cell_volume 1008.440663
_symmetry_space_group_name_H-M "P 43 21 2"
_symmetry_group_IT_number 96
_symmetry_cell_setting 'tetragonal'
loop_
_space_group_symop_operation_xyz
x,y,z
1/2-y,1/2+x,3/4+z
-x,-y,1/2+z
1/2+y,1/2-x,1/4+z
1/2+x,1/2-y,1/4-z
1/2-x,1/2+y,3/4-z
y,x,-z
-y,-x,1/2-z
loop_
_atom_site_type_symbol
_atom_site_label
_atom_site_fract_x
_atom_site_fract_y
_atom_site_fract_z
Si Si1 0.598208 0.773933 0.060642
Si Si2 0.035070 0.821368 0.839591
Si Si3 0.834753 0.404036 0.216889
O O1 0.524769 0.570470 0.086419
O O2 0.700912 0.918606 0.108789
O O3 0.731397 0.731397 0.000000
O O4 0.885178 0.404148 0.957711
O O5 0.031469 0.703329 0.771010
O O6 0.264397 0.845459 0.845690
O O7 0.627862 0.372139 0.250000
#
# Coordination Sequence:
#
# PCOD9551161 Si02
#       3
#     8   8   8
#     4  12  20  40  72  90 135 183 215 279 344 387
#     4   9  22  40  61  99 132 162 231 273 319 414
#     4   8  21  45  55  95 135 163 220 283 315 399
#
# _framework density 23.799118
#
# number of rings (size 3 to 8) (size 9 to 14) (size 15 to 20)
#    2.000    0.000    3.333    2.000    0.000    2.667 
#    6.000    1.667    0.000    0.000    0.000    0.000 
#    0.000    0.000    0.000    0.000    0.000    0.000 
#
# Total GULP energy -133730.709437 kJ/mol
# GULP energy per Si atom -5572.112893 kJ/mol
# Density = 2.374495 g / cm^3
# Si number density = 23.799118 Si / 1000 Ang^3
#
#
#
# Elastic Constant Matrix: (Units=GPa)
#
#
# Indices 1 2 3 4 5 6 
#
# 1 82.6923 6.2853 7.8649 0.0000 0.0000 0.0000
# 2 6.2853 82.6918 7.8650 0.0000 0.0000 0.0000
# 3 7.8649 7.8650 23.9262 0.0000 0.0000 0.0000
# 4 0.0000 0.0000 0.0000 5.8462 0.0000 0.0000
# 5 0.0000 0.0000 0.0000 0.0000 5.8465 0.0000
# 6 0.0000 0.0000 0.0000 0.0000 0.0000 53.4171
#
#
#
# Elastic Compliance Matrix: (Units=1/GPa)
#
#
# Indices 1 2 3 4 5 6 
#
# 1 0.012510 -0.000578 -0.003922 0.000000 0.000000 0.000000
# 2 -0.000578 0.012510 -0.003922 0.000000 0.000000 0.000000
# 3 -0.003922 -0.003922 0.044374 0.000000 0.000000 0.000000
# 4 0.000000 0.000000 0.000000 0.171050 0.000000 0.000000
# 5 0.000000 0.000000 0.000000 0.000000 0.171041 0.000000
# 6 0.000000 0.000000 0.000000 0.000000 0.000000 0.018721
#
#
# Mechanical properties :
#
#
# Convention : Reuss Voigt Hill
#
# Bulk Modulus (GPa) = 19.02985 25.92675 22.47830
# Shear Modulus (GPa) = 10.76271 24.17499 17.46885
#
# Velocity S-wave (km/s) = 2.12888 3.19061 2.71221
# Velocity P-wave (km/s) = 3.74916 4.94883 4.39017
#
# Compressibility (1/GPa) = 0.05254903
#
# Stress axis : x y z
#
# Youngs Moduli (GPa) = 79.93607 79.93553 22.53576
#
# Poissons Ratio (x) = 0.04619 0.08839
# Poissons Ratio (y) = 0.04619 0.08839
# Poissons Ratio (z) = 0.31353 0.31354
#
# Static dielectric constant tensor:
#      x y z
#    x 1.957290 0.000000 0.000000 
#    y 0.000000 1.957300 0.000000 
#    z 0.000000 0.000000 1.994150 
# 
# From -- ./inp_files/3659.got.cif
#   From: 2010.05.17/outbox.cif.g08.bks.cpg/sg96_2_cif.got.tgz:3659.got - 2010.06.03 19:52:08.
