data_PCOD9551076
_publ_section_title
;
Structure prediction by ZEFSAII (Michael W. Deem and Ramdas Pophale) SiO2 
 PCOD9551076
Probable space group: P 43 21 2
;
_chemical_formula_sum "Si O2"
_cell_formula_units_Z 36
_cell_length_a 12.308581
_cell_length_b 12.308581
_cell_length_c 9.978796
_cell_angle_alpha 90.000000
_cell_angle_beta 90.000000
_cell_angle_gamma 90.000000
_cell_volume 1511.799232
_symmetry_space_group_name_H-M "P 43 21 2"
_symmetry_group_IT_number 96
_symmetry_cell_setting 'tetragonal'
loop_
_space_group_symop_operation_xyz
x,y,z
1/2-y,1/2+x,3/4+z
-x,-y,1/2+z
1/2+y,1/2-x,1/4+z
1/2+x,1/2-y,1/4-z
1/2-x,1/2+y,3/4-z
y,x,-z
-y,-x,1/2-z
loop_
_atom_site_type_symbol
_atom_site_label
_atom_site_fract_x
_atom_site_fract_y
_atom_site_fract_z
Si Si1 0.703315 0.546513 0.440002
Si Si2 0.216006 0.387398 0.468616
Si Si3 0.920559 0.436629 0.079433
Si Si4 0.003547 0.003547 0.000000
Si Si5 0.758824 0.985908 0.011346
O O1 0.658548 0.658548 0.500000
O O2 0.808540 0.573925 0.353418
O O3 0.895904 0.994743 0.395989
O O4 0.729936 0.485322 0.578428
O O5 0.327586 0.327586 0.500000
O O6 0.191869 0.503095 0.540146
O O7 0.201014 0.412668 0.310692
O O8 0.122666 0.306510 0.522067
O O9 0.961114 0.495523 0.212091
O O10 0.878905 0.000566 0.947177
#
# Coordination Sequence:
#
# PCOD9551076 Si02
#       5
#     8   8   8   4   8
#     4  10  26  50  79 118 165 208 275 337 414 496
#     4  12  27  48  79 114 163 216 280 338 422 495
#     4  12  27  51  79 118 160 220 276 345 413 495
#     4  10  24  54  72 114 158 214 266 332 410 490
#     4  11  25  48  79 115 163 215 264 348 408 501
#
# _framework density 23.812685999999999
#
# number of rings (size 3 to 8) (size 9 to 14) (size 15 to 20)
#    0.000    0.889    3.333    1.333    9.333    2.667 
#    6.000    0.000    0.000    0.000    0.000    0.000 
#    0.000    0.000    0.000    0.000    0.000    0.000 
#
# Total GULP energy -200932.409769 kJ/mol
# GULP energy per Si atom -5581.455827 kJ/mol
# Density = 2.375849 g / cm^3
# Si number density = 23.812686 Si / 1000 Ang^3
#
#
#
# Elastic Constant Matrix: (Units=GPa)
#
#
# Indices 1 2 3 4 5 6 
#
# 1 129.7501 64.4731 67.0616 0.0000 0.0000 0.0000
# 2 64.4731 129.7501 67.0616 0.0000 0.0000 0.0000
# 3 67.0616 67.0616 139.3688 0.0000 0.0000 0.0000
# 4 0.0000 0.0000 0.0000 33.0070 0.0000 0.0000
# 5 0.0000 0.0000 0.0000 0.0000 33.0070 0.0000
# 6 0.0000 0.0000 0.0000 0.0000 0.0000 38.7257
#
#
#
# Elastic Compliance Matrix: (Units=1/GPa)
#
#
# Indices 1 2 3 4 5 6 
#
# 1 0.011515 -0.003804 -0.003710 0.000000 0.000000 0.000000
# 2 -0.003804 0.011515 -0.003710 0.000000 0.000000 0.000000
# 3 -0.003710 -0.003710 0.010746 0.000000 0.000000 0.000000
# 4 0.000000 0.000000 0.000000 0.030297 0.000000 0.000000
# 5 0.000000 0.000000 0.000000 0.000000 0.030297 0.000000
# 6 0.000000 0.000000 0.000000 0.000000 0.000000 0.025823
#
#
# Mechanical properties :
#
#
# Convention : Reuss Voigt Hill
#
# Bulk Modulus (GPa) = 88.28954 88.45130 88.37042
# Shear Modulus (GPa) = 34.14895 34.29944 34.22419
#
# Velocity S-wave (km/s) = 3.79101 3.79936 3.79519
# Velocity P-wave (km/s) = 7.50464 7.51479 7.50971
#
# Compressibility (1/GPa) = 0.01132637
#
# Stress axis : x y z
#
# Youngs Moduli (GPa) = 86.84218 86.84218 93.05851
#
# Poissons Ratio (x) = 0.33036 0.34528
# Poissons Ratio (y) = 0.33036 0.34528
# Poissons Ratio (z) = 0.32222 0.32222
#
# Static dielectric constant tensor:
#      x y z
#    x 1.952380 0.000000 0.000000 
#    y 0.000000 1.952380 0.000000 
#    z 0.000000 0.000000 1.967620 
# 
# From -- ./inp_files/1989.got.cif
#   From: 2010.05.17/outbox.cif.g08.bks.cpg/sg96_1_cif.got.tgz:1989.got - 2010.06.03 19:52:08.
