data_PCOD9551310
_publ_section_title
;
Structure prediction by ZEFSAII (Michael W. Deem and Ramdas Pophale) SiO2 
 PCOD9551310
Probable space group: I 4 2 2 
;
_chemical_formula_sum "Si O2"
_cell_formula_units_Z 112
_cell_length_a 23.246443
_cell_length_b 23.246443
_cell_length_c 11.771162
_cell_angle_alpha 90.000000
_cell_angle_beta 90.000000
_cell_angle_gamma 90.000000
_cell_volume 6361.101951
_symmetry_space_group_name_H-M "I 4 2 2 "
_symmetry_group_IT_number 97
_symmetry_cell_setting 'tetragonal'
loop_
_space_group_symop_operation_xyz
x,y,z
-y,x,z
-x,-y,z
y,-x,z
x,-y,-z
-x,y,-z
y,x,-z
-y,-x,-z
1/2+x,1/2+y,1/2+z
1/2-y,1/2+x,1/2+z
1/2-x,1/2-y,1/2+z
1/2+y,1/2-x,1/2+z
1/2+x,1/2-y,1/2-z
1/2-x,1/2+y,1/2-z
1/2+y,1/2+x,1/2-z
1/2-y,1/2-x,1/2-z
loop_
_atom_site_type_symbol
_atom_site_label
_atom_site_fract_x
_atom_site_fract_y
_atom_site_fract_z
Si Si1 0.663329 0.760219 0.526470
Si Si2 0.617513 0.681545 0.716032
Si Si3 0.848428 0.758678 0.447196
Si Si4 0.374051 0.499762 0.621658
Si Si5 0.468697 0.587698 0.862137
Si Si6 0.221038 0.048116 0.406489
Si Si7 0.282229 0.411140 0.666028
O O1 0.711960 0.711960 0.500000
O O2 0.627152 0.732743 0.627481
O O3 0.698526 0.815490 0.569110
O O4 0.622959 0.762297 0.414285
O O5 0.620970 0.710296 0.840301
O O6 0.559063 0.650201 0.676071
O O7 0.671644 0.637437 0.708187
O O8 0.802286 0.802286 0.500000
O O9 0.895087 0.751639 0.543558
O O10 0.404422 0.500000 0.500000
O O11 0.409019 0.471171 0.724720
O O12 0.321045 0.456012 0.596626
O O13 0.428257 0.534337 0.894687
O O14 0.450750 0.650918 0.901962
O O15 0.238391 0.050881 0.273742
O O16 0.235773 0.000000 0.500000
#
# Coordination Sequence:
#
# PCOD9551310 Si02
#       7
#    16  16  16  16  16  16  16
#     4   9  20  34  53  75  98 126 170 224 280 326
#     4  11  20  35  52  73 106 130 175 227 274 325
#     4  11  21  34  54  76  95 132 172 219 277 340
#     4  11  20  31  53  73  96 138 176 217 276 326
#     4  10  23  36  47  67  97 134 183 234 273 308
#     4  11  23  34  52  71 101 135 176 219 271 326
#     4  10  20  35  50  74 104 133 171 227 272 321
#
# _framework density 17.607012999999998
#
# number of rings (size 3 to 8) (size 9 to 14) (size 15 to 20)
#    0.000    1.571    2.857    3.857    2.000    2.286 
#    0.000    1.429    0.000    0.000    0.000    0.000 
#    0.000    0.000    0.000    2.571    0.000   30.000 
#
# Total GULP energy -312205.689760 kJ/mol
# GULP energy per Si atom -5575.101603 kJ/mol
# Density = 1.756694 g / cm^3
# Si number density = 17.607013 Si / 1000 Ang^3
#
#
#
# Elastic Constant Matrix: (Units=GPa)
#
#
# Indices 1 2 3 4 5 6 
#
# 1 37.9982 30.4046 12.5035 0.0000 0.0000 0.0000
# 2 30.4046 37.9982 12.5035 0.0000 0.0000 0.0000
# 3 12.5035 12.5035 91.8176 0.0000 0.0000 0.0000
# 4 0.0000 0.0000 0.0000 20.6856 0.0000 0.0000
# 5 0.0000 0.0000 0.0000 0.0000 20.6856 0.0000
# 6 0.0000 0.0000 0.0000 0.0000 0.0000 24.1011
#
#
#
# Elastic Compliance Matrix: (Units=1/GPa)
#
#
# Indices 1 2 3 4 5 6 
#
# 1 0.073538 -0.058153 -0.002095 0.000000 0.000000 0.000000
# 2 -0.058153 0.073538 -0.002095 0.000000 0.000000 0.000000
# 3 -0.002095 -0.002095 0.011462 0.000000 0.000000 0.000000
# 4 0.000000 0.000000 0.000000 0.048343 0.000000 0.000000
# 5 0.000000 0.000000 0.000000 0.000000 0.048343 0.000000
# 6 0.000000 0.000000 0.000000 0.000000 0.000000 0.041492
#
#
# Mechanical properties :
#
#
# Convention : Reuss Voigt Hill
#
# Bulk Modulus (GPa) = 29.54059 30.95971 30.25015
# Shear Modulus (GPa) = 11.55577 20.58795 16.07186
#
# Velocity S-wave (km/s) = 2.56465 3.42322 3.02455
# Velocity P-wave (km/s) = 5.05807 5.76598 5.42358
#
# Compressibility (1/GPa) = 0.03385172
#
# Stress axis : x y z
#
# Youngs Moduli (GPa) = 13.59845 13.59845 87.24648
#
# Poissons Ratio (x) = 0.79078 0.18279
# Poissons Ratio (y) = 0.79078 0.18279
# Poissons Ratio (z) = 0.02849 0.02849
#
# Static dielectric constant tensor:
#      x y z
#    x 1.626500 0.000000 0.000000 
#    y 0.000000 1.626500 0.000000 
#    z 0.000000 0.000000 1.702800 
# 
# From -- ./inp_files/4026.got.cif
#   From: 2010.05.17/outbox.cif.g08.bks.cpg/sg97_3_cif.got.tgz:4026.got - 2010.06.03 19:55:32.
