data_PCOD9551748
_publ_section_title
;
Structure prediction by ZEFSAII (Michael W. Deem and Ramdas Pophale) SiO2 
 PCOD9551748
Probable space group: I 41 2 2
;
_chemical_formula_sum "Si O2"
_cell_formula_units_Z 108
_cell_length_a 15.592747
_cell_length_b 15.592747
_cell_length_c 24.347924
_cell_angle_alpha 90.000000
_cell_angle_beta 90.000000
_cell_angle_gamma 90.000000
_cell_volume 5919.802286
_symmetry_space_group_name_H-M "I 41 2 2"
_symmetry_group_IT_number 98
_symmetry_cell_setting 'tetragonal'
loop_
_space_group_symop_operation_xyz
x,y,z
-y,1/2+x,1/4+z
-x,-y,z
y,1/2-x,1/4+z
x,1/2-y,1/4-z
-x,1/2+y,1/4-z
y,x,-z
-y,-x,-z
1/2+x,1/2+y,1/2+z
1/2-y,x,3/4+z
1/2-x,1/2-y,1/2+z
1/2+y,-x,3/4+z
1/2+x,-y,3/4-z
1/2-x,y,3/4-z
1/2+y,1/2+x,1/2-z
1/2-y,1/2-x,1/2-z
loop_
_atom_site_type_symbol
_atom_site_label
_atom_site_fract_x
_atom_site_fract_y
_atom_site_fract_z
Si Si1 0.500000 0.500000 0.375135
Si Si2 0.406411 0.326275 0.735684
Si Si3 0.056261 0.913342 0.300473
Si Si4 0.500000 0.500000 0.000000
Si Si5 0.355500 0.403872 0.437779
Si Si6 0.844550 0.487526 0.045214
Si Si7 0.846035 0.492877 0.662139
Si Si8 0.781131 0.656969 0.600582
O O1 0.418479 0.472553 0.411288
O O2 0.533619 0.421461 0.337476
O O3 0.496841 0.349820 0.764303
O O4 0.418343 0.246576 0.694814
O O5 0.363477 0.411510 0.712727
O O6 0.345017 0.302159 0.786251
O O7 0.135901 0.940416 0.262643
O O8 0.067666 0.875645 0.361354
O O9 0.000000 0.000000 0.307011
O O10 0.502695 0.416807 0.959999
O O11 0.386818 0.386818 0.500000
O O12 0.367454 0.318737 0.401392
O O13 0.748805 0.470691 0.065856
O O14 0.835003 0.586267 0.633317
O O15 0.793656 0.750000 0.625000
#
# Coordination Sequence:
#
# PCOD9551748 Si02
#       8
#     8  16  16   4  16  16  16  16
#     4  12  21  35  56  88 123 165 210 240 290 398
#     4   9  19  34  57  88 129 161 192 246 317 381
#     4   9  18  40  62  85 125 162 198 247 306 370
#     4  12  28  42  64  92 122 160 224 270 320 368
#     4  10  21  35  52  86 129 162 192 250 312 374
#     4  11  21  38  64  91 118 167 214 252 319 381
#     4  11  23  41  61  90 125 162 206 266 315 379
#     4  10  20  33  58  92 128 155 191 254 323 389
#
# _framework density 18.243853000000001
#
# number of rings (size 3 to 8) (size 9 to 14) (size 15 to 20)
#    0.000    1.778    4.444    1.111    2.074    0.000 
#    0.000    0.741    0.000    3.556    0.000    0.000 
#    0.000    0.000    0.000    0.000    0.000    0.000 
#
# Total GULP energy -301140.727001 kJ/mol
# GULP energy per Si atom -5576.680130 kJ/mol
# Density = 1.820233 g / cm^3
# Si number density = 18.243853 Si / 1000 Ang^3
#
#
#
# Elastic Constant Matrix: (Units=GPa)
#
#
# Indices 1 2 3 4 5 6 
#
# 1 89.1058 36.3252 59.9624 0.0000 0.0000 0.0000
# 2 36.3252 89.1058 59.9624 0.0000 0.0000 0.0000
# 3 59.9624 59.9624 134.2078 0.0000 0.0000 0.0000
# 4 0.0000 0.0000 0.0000 85.3878 0.0000 0.0000
# 5 0.0000 0.0000 0.0000 0.0000 85.3878 0.0000
# 6 0.0000 0.0000 0.0000 0.0000 0.0000 15.0442
#
#
#
# Elastic Compliance Matrix: (Units=1/GPa)
#
#
# Indices 1 2 3 4 5 6 
#
# 1 0.016432 -0.002514 -0.006218 0.000000 0.000000 0.000000
# 2 -0.002514 0.016432 -0.006218 0.000000 0.000000 0.000000
# 3 -0.006218 -0.006218 0.013008 0.000000 0.000000 0.000000
# 4 0.000000 0.000000 0.000000 0.011711 0.000000 0.000000
# 5 0.000000 0.000000 0.000000 0.000000 0.011711 0.000000
# 6 0.000000 0.000000 0.000000 0.000000 0.000000 0.066471
#
#
# Mechanical properties :
#
#
# Convention : Reuss Voigt Hill
#
# Bulk Modulus (GPa) = 62.61706 69.43549 66.02628
# Shear Modulus (GPa) = 29.24141 47.57527 38.40834
#
# Velocity S-wave (km/s) = 4.00785 5.11215 4.59331
# Velocity P-wave (km/s) = 7.47087 8.54328 8.02501
#
# Compressibility (1/GPa) = 0.01597009
#
# Stress axis : x y z
#
# Youngs Moduli (GPa) = 60.85647 60.85647 76.87767
#
# Poissons Ratio (x) = 0.15301 0.47805
# Poissons Ratio (y) = 0.15301 0.47805
# Poissons Ratio (z) = 0.37843 0.37843
#
# Static dielectric constant tensor:
#      x y z
#    x 1.576490 0.000000 0.000000 
#    y 0.000000 1.576490 0.000000 
#    z 0.000000 0.000000 1.694890 
# 
# From -- ./inp_files/10143.got.cif
#   From: 2010.05.17/outbox.cif.g08.bks.cpg/sg98_6_cif.got.tgz:10143.got - 2010.06.03 20:00:51.
