data_PCOD9551203
_publ_section_title
;
Structure prediction by ZEFSAII (Michael W. Deem and Ramdas Pophale) SiO2 
 PCOD9551203
Probable space group: I 4 2 2 
;
_chemical_formula_sum "Si O2"
_cell_formula_units_Z 96
_cell_length_a 21.635228
_cell_length_b 21.635228
_cell_length_c 9.959961
_cell_angle_alpha 90.000000
_cell_angle_beta 90.000000
_cell_angle_gamma 90.000000
_cell_volume 4662.089327
_symmetry_space_group_name_H-M "I 4 2 2 "
_symmetry_group_IT_number 97
_symmetry_cell_setting 'tetragonal'
loop_
_space_group_symop_operation_xyz
x,y,z
-y,x,z
-x,-y,z
y,-x,z
x,-y,-z
-x,y,-z
y,x,-z
-y,-x,-z
1/2+x,1/2+y,1/2+z
1/2-y,1/2+x,1/2+z
1/2-x,1/2-y,1/2+z
1/2+y,1/2-x,1/2+z
1/2+x,1/2-y,1/2-z
1/2-x,1/2+y,1/2-z
1/2+y,1/2+x,1/2-z
1/2-y,1/2-x,1/2-z
loop_
_atom_site_type_symbol
_atom_site_label
_atom_site_fract_x
_atom_site_fract_y
_atom_site_fract_z
Si Si1 0.128072 0.203778 0.110742
Si Si2 0.286256 0.497955 0.674359
Si Si3 0.833495 0.333495 0.250000
Si Si4 0.670483 0.000000 0.000000
Si Si5 0.129999 0.349790 0.048222
Si Si6 0.435704 0.240145 0.936866
Si Si7 0.875359 0.197005 0.304857
O O1 0.055111 0.189318 0.084693
O O2 0.149923 0.177274 0.255608
O O3 0.169505 0.169505 0.000000
O O4 0.136745 0.277624 0.090508
O O5 0.219140 0.478596 0.615420
O O6 0.274764 0.536022 0.810513
O O7 0.320727 0.436704 0.720836
O O8 0.858995 0.358781 0.111096
O O9 0.847608 0.261343 0.253317
O O10 0.634947 0.057689 0.062764
O O11 0.183849 0.391748 0.108915
O O12 0.500000 0.214315 0.000000
O O13 0.399580 0.284528 0.044929
#
# Coordination Sequence:
#
# PCOD9551203 Si02
#       7
#    16  16   8   8  16  16  16
#     4  11  21  34  54  86 117 148 193 247 301 360
#     4  10  20  37  55  78 116 155 196 238 298 374
#     4  10  16  32  56  76 113 142 190 233 284 360
#     4  10  18  32  55  80 110 149 196 240 306 350
#     4  10  20  34  55  85 111 153 192 246 298 358
#     4   9  21  38  56  80 116 160 198 240 301 372
#     4  10  19  35  56  82 113 154 192 237 303 354
#
# _framework density 20.591626999999999
#
# number of rings (size 3 to 8) (size 9 to 14) (size 15 to 20)
#    0.000    2.000    3.333    1.000    0.000    4.667 
#    0.000    0.417    0.000    0.500    0.000    5.833 
#    0.000    4.000    0.000    0.000    0.000    0.000 
#
# Total GULP energy -267232.914150 kJ/mol
# GULP energy per Si atom -5567.352378 kJ/mol
# Density = 2.054476 g / cm^3
# Si number density = 20.591627 Si / 1000 Ang^3
#
#
#
# Elastic Constant Matrix: (Units=GPa)
#
#
# Indices 1 2 3 4 5 6 
#
# 1 74.0588 38.8640 8.0760 0.0000 0.0000 0.0000
# 2 38.8640 74.0588 8.0760 0.0000 0.0000 0.0000
# 3 8.0760 8.0760 70.6698 0.0000 0.0000 0.0000
# 4 0.0000 0.0000 0.0000 24.4089 0.0000 0.0000
# 5 0.0000 0.0000 0.0000 0.0000 24.4089 0.0000
# 6 0.0000 0.0000 0.0000 0.0000 0.0000 1.7519
#
#
#
# Elastic Compliance Matrix: (Units=1/GPa)
#
#
# Indices 1 2 3 4 5 6 
#
# 1 0.018708 -0.009705 -0.001029 0.000000 0.000000 0.000000
# 2 -0.009705 0.018708 -0.001029 0.000000 0.000000 0.000000
# 3 -0.001029 -0.001029 0.014385 0.000000 0.000000 0.000000
# 4 0.000000 0.000000 0.000000 0.040969 0.000000 0.000000
# 5 0.000000 0.000000 0.000000 0.000000 0.040969 0.000000
# 6 0.000000 0.000000 0.000000 0.000000 0.000000 0.570799
#
#
# Mechanical properties :
#
#
# Convention : Reuss Voigt Hill
#
# Bulk Modulus (GPa) = 35.36603 36.53548 35.95075
# Shear Modulus (GPa) = 6.77976 21.03203 13.90589
#
# Velocity S-wave (km/s) = 1.81649 3.19938 2.60151
# Velocity P-wave (km/s) = 4.64884 5.60620 5.14982
#
# Compressibility (1/GPa) = 0.02827572
#
# Stress axis : x y z
#
# Youngs Moduli (GPa) = 53.45300 53.45300 69.51467
#
# Poissons Ratio (x) = 0.51878 0.07152
# Poissons Ratio (y) = 0.51878 0.07152
# Poissons Ratio (z) = 0.05499 0.05499
#
# Static dielectric constant tensor:
#      x y z
#    x 1.767390 0.000000 0.000000 
#    y 0.000000 1.767390 0.000000 
#    z 0.000000 0.000000 1.949270 
# 
# From -- ./inp_files/3916.got.cif
#   From: 2010.05.17/outbox.cif.g08.bks.cpg/sg97_2_cif.got.tgz:3916.got - 2010.06.03 19:55:32.
