data_PCOD9551418
_publ_section_title
;
Structure prediction by ZEFSAII (Michael W. Deem and Ramdas Pophale) SiO2 
 PCOD9551418
Probable space group: I 4 2 2 
;
_chemical_formula_sum "Si O2"
_cell_formula_units_Z 56
_cell_length_a 17.595526
_cell_length_b 17.595526
_cell_length_c 9.393079
_cell_angle_alpha 90.000000
_cell_angle_beta 90.000000
_cell_angle_gamma 90.000000
_cell_volume 2908.121072
_symmetry_space_group_name_H-M "I 4 2 2 "
_symmetry_group_IT_number 97
_symmetry_cell_setting 'tetragonal'
loop_
_space_group_symop_operation_xyz
x,y,z
-y,x,z
-x,-y,z
y,-x,z
x,-y,-z
-x,y,-z
y,x,-z
-y,-x,-z
1/2+x,1/2+y,1/2+z
1/2-y,1/2+x,1/2+z
1/2-x,1/2-y,1/2+z
1/2+y,1/2-x,1/2+z
1/2+x,1/2-y,1/2-z
1/2-x,1/2+y,1/2-z
1/2+y,1/2+x,1/2-z
1/2-y,1/2-x,1/2-z
loop_
_atom_site_type_symbol
_atom_site_label
_atom_site_fract_x
_atom_site_fract_y
_atom_site_fract_z
Si Si1 0.129580 0.000000 0.500000
Si Si2 0.543839 0.866717 0.642348
Si Si3 0.671311 0.792851 0.460989
Si Si4 0.570063 0.246090 0.792914
O O1 0.186049 0.024356 0.370014
O O2 0.072665 0.072665 0.500000
O O3 0.500000 0.892551 0.500000
O O4 0.568923 0.931078 0.750000
O O5 0.615493 0.817440 0.587215
O O6 0.490416 0.812348 0.732427
O O7 0.743695 0.743695 0.500000
O O8 0.624122 0.742404 0.345687
O O9 0.702888 0.872230 0.398447
#
# Coordination Sequence:
#
# PCOD9551418 Si02
#       4
#     8  16  16  16
#     4  11  24  38  60  90 129 176 214 272 337 402
#     4  10  22  40  62  92 131 168 211 268 333 396
#     4  10  22  38  65  93 118 172 219 275 325 380
#     4  10  22  40  61  94 126 159 227 263 326 395
#
# _framework density 19.256419000000001
#
# number of rings (size 3 to 8) (size 9 to 14) (size 15 to 20)
#    0.000    1.857    0.000    2.571    8.000    0.000 
#    0.000   21.429    0.000    0.000    0.000    0.000 
#    0.000    0.000    0.000    0.000    0.000    0.000 
#
# Total GULP energy -156049.041075 kJ/mol
# GULP energy per Si atom -5573.180038 kJ/mol
# Density = 1.921259 g / cm^3
# Si number density = 19.256419 Si / 1000 Ang^3
#
#
#
# Elastic Constant Matrix: (Units=GPa)
#
#
# Indices 1 2 3 4 5 6 
#
# 1 87.3157 84.0641 86.7729 0.0000 0.0000 0.0000
# 2 84.0641 87.3177 86.7664 0.0000 0.0000 0.0000
# 3 86.7729 86.7664 116.4364 0.0000 0.0000 0.0000
# 4 0.0000 0.0000 0.0000 -10.6371 0.0000 0.0000
# 5 0.0000 0.0000 0.0000 0.0000 -10.6221 0.0000
# 6 0.0000 0.0000 0.0000 0.0000 0.0000 25.5505
#
#
#
# Elastic Compliance Matrix: (Units=1/GPa)
#
#
# Indices 1 2 3 4 5 6 
#
# 1 0.165655 -0.141835 -0.017760 0.000000 0.000000 0.000000
# 2 -0.141835 0.165569 -0.017678 0.000000 0.000000 0.000000
# 3 -0.017760 -0.017678 0.034997 0.000000 0.000000 0.000000
# 4 0.000000 0.000000 0.000000 -0.094010 0.000000 0.000000
# 5 0.000000 0.000000 0.000000 0.000000 -0.094144 0.000000
# 6 0.000000 0.000000 0.000000 0.000000 0.000000 0.039138
#
#
# Mechanical properties :
#
#
# Convention : Reuss Voigt Hill
#
# Bulk Modulus (GPa) = 85.64969 89.58630 87.61799
# Shear Modulus (GPa) = 8.68593 3.08936 5.88765
#
# Velocity S-wave (km/s) = 2.12614 1.26800 1.75047
# Velocity P-wave (km/s) = 7.11353 6.98338 7.04876
#
# Compressibility (1/GPa) = 0.01167547
#
# Stress axis : x y z
#
# Youngs Moduli (GPa) = 6.03663 6.03977 28.57400
#
# Poissons Ratio (x) = 0.85665 0.50746
# Poissons Ratio (y) = 0.85621 0.50513
# Poissons Ratio (z) = 0.10721 0.10677
#
# Static dielectric constant tensor:
#      x y z
#    x 1.568800 0.000000 0.000000 
#    y 0.000000 1.568800 0.000000 
#    z 0.000000 0.000000 1.701320 
# 
# From -- ./inp_files/1829.got.cif
#   From: 2010.05.17/outbox.cif.g08.bks.cpg/sg97_1_cif.got.tgz:1829.got - 2010.06.03 19:55:32.
