data_PCOD9551935
_publ_section_title
;
Structure prediction by ZEFSAII (Michael W. Deem and Ramdas Pophale) SiO2 
 PCOD9551935
Probable space group: I 41 2 2
;
_chemical_formula_sum "Si O2"
_cell_formula_units_Z 72
_cell_length_a 19.969833
_cell_length_b 19.969833
_cell_length_c 9.144358
_cell_angle_alpha 90.000000
_cell_angle_beta 90.000000
_cell_angle_gamma 90.000000
_cell_volume 3646.717208
_symmetry_space_group_name_H-M "I 41 2 2"
_symmetry_group_IT_number 98
_symmetry_cell_setting 'tetragonal'
loop_
_space_group_symop_operation_xyz
x,y,z
-y,1/2+x,1/4+z
-x,-y,z
y,1/2-x,1/4+z
x,1/2-y,1/4-z
-x,1/2+y,1/4-z
y,x,-z
-y,-x,-z
1/2+x,1/2+y,1/2+z
1/2-y,x,3/4+z
1/2-x,1/2-y,1/2+z
1/2+y,-x,3/4+z
1/2+x,-y,3/4-z
1/2-x,y,3/4-z
1/2+y,1/2+x,1/2-z
1/2-y,1/2-x,1/2-z
loop_
_atom_site_type_symbol
_atom_site_label
_atom_site_fract_x
_atom_site_fract_y
_atom_site_fract_z
Si Si1 0.337003 0.553086 0.522440
Si Si2 0.054508 0.188322 0.217771
Si Si3 0.570022 0.529237 0.728808
Si Si4 0.035551 0.778716 0.460330
Si Si5 0.927597 0.427597 0.750000
O O1 0.387885 0.612116 0.500000
O O2 0.321239 0.514238 0.374171
O O3 0.371835 0.498151 0.626792
O O4 0.272856 0.576663 0.611664
O O5 0.089094 0.250000 0.125000
O O6 0.076664 0.110081 0.234934
O O7 0.036360 0.215963 0.378235
O O8 0.500000 0.500000 0.665666
O O9 0.571349 0.487997 0.881953
O O10 0.032075 0.750000 0.625000
O O11 0.065152 0.852658 0.442091
#
# Coordination Sequence:
#
# PCOD9551935 Si02
#       5
#    16  16  16  16   8
#     4  11  21  38  61  89 125 169 216 277 340 395
#     4  10  23  37  56  91 133 164 206 268 347 409
#     4  12  21  35  65  95 127 159 224 278 335 396
#     4  11  23  39  58  84 133 170 214 285 343 397
#     4  12  23  38  62  96 124 174 228 286 330 405
#
# _framework density 19.743784999999999
#
# number of rings (size 3 to 8) (size 9 to 14) (size 15 to 20)
#    0.000    0.889    6.667    1.000    0.000    0.000 
#    0.000    0.000    2.444    0.000    0.000    0.000 
#  100.000    0.000    0.000    0.000    0.000    0.000 
#
# Total GULP energy -200444.581371 kJ/mol
# GULP energy per Si atom -5567.905038 kJ/mol
# Density = 1.969885 g / cm^3
# Si number density = 19.743785 Si / 1000 Ang^3
#
#
#
# Elastic Constant Matrix: (Units=GPa)
#
#
# Indices 1 2 3 4 5 6 
#
# 1 125.6862 29.1733 38.1097 0.0000 0.0000 0.0000
# 2 29.1733 125.6877 38.1104 0.0000 0.0000 0.0000
# 3 38.1097 38.1104 119.9912 0.0000 0.0000 0.0000
# 4 0.0000 0.0000 0.0000 27.1838 0.0000 0.0000
# 5 0.0000 0.0000 0.0000 0.0000 27.1833 0.0000
# 6 0.0000 0.0000 0.0000 0.0000 0.0000 6.3860
#
#
#
# Elastic Compliance Matrix: (Units=1/GPa)
#
#
# Indices 1 2 3 4 5 6 
#
# 1 0.009008 -0.001354 -0.002431 0.000000 0.000000 0.000000
# 2 -0.001354 0.009008 -0.002431 0.000000 0.000000 0.000000
# 3 -0.002431 -0.002431 0.009878 0.000000 0.000000 0.000000
# 4 0.000000 0.000000 0.000000 0.036787 0.000000 0.000000
# 5 0.000000 0.000000 0.000000 0.000000 0.036787 0.000000
# 6 0.000000 0.000000 0.000000 0.000000 0.000000 0.156594
#
#
# Mechanical properties :
#
#
# Convention : Reuss Voigt Hill
#
# Bulk Modulus (GPa) = 64.67393 64.68356 64.67875
# Shear Modulus (GPa) = 18.13922 29.88207 24.01064
#
# Velocity S-wave (km/s) = 3.03435 3.89458 3.49106
# Velocity P-wave (km/s) = 6.71596 7.28398 7.00572
#
# Compressibility (1/GPa) = 0.01546218
#
# Stress axis : x y z
#
# Youngs Moduli (GPa) = 111.01724 111.01830 101.23392
#
# Poissons Ratio (x) = 0.15028 0.24609
# Poissons Ratio (y) = 0.15028 0.24610
# Poissons Ratio (z) = 0.26987 0.26988
#
# Static dielectric constant tensor:
#      x y z
#    x 1.779460 0.000000 0.000000 
#    y 0.000000 1.779460 0.000000 
#    z 0.000000 0.000000 2.057490 
# 
# From -- ./inp_files/3438.got.cif
#   From: 2010.05.17/outbox.cif.g08.bks.cpg/sg98_2_cif.got.tgz:3438.got - 2010.06.03 20:00:51.
