data_PCOD9551697
_publ_section_title
;
Structure prediction by ZEFSAII (Michael W. Deem and Ramdas Pophale) SiO2 
 PCOD9551697
Probable space group: I 41 2 2
;
_chemical_formula_sum "Si O2"
_cell_formula_units_Z 88
_cell_length_a 17.061547
_cell_length_b 17.061547
_cell_length_c 16.079773
_cell_angle_alpha 90.000000
_cell_angle_beta 90.000000
_cell_angle_gamma 90.000000
_cell_volume 4680.763809
_symmetry_space_group_name_H-M "I 41 2 2"
_symmetry_group_IT_number 98
_symmetry_cell_setting 'tetragonal'
loop_
_space_group_symop_operation_xyz
x,y,z
-y,1/2+x,1/4+z
-x,-y,z
y,1/2-x,1/4+z
x,1/2-y,1/4-z
-x,1/2+y,1/4-z
y,x,-z
-y,-x,-z
1/2+x,1/2+y,1/2+z
1/2-y,x,3/4+z
1/2-x,1/2-y,1/2+z
1/2+y,-x,3/4+z
1/2+x,-y,3/4-z
1/2-x,y,3/4-z
1/2+y,1/2+x,1/2-z
1/2-y,1/2-x,1/2-z
loop_
_atom_site_type_symbol
_atom_site_label
_atom_site_fract_x
_atom_site_fract_y
_atom_site_fract_z
Si Si1 0.355912 0.045793 0.183261
Si Si2 0.699225 0.300776 0.500000
Si Si3 0.527552 0.910270 0.500738
Si Si4 0.373467 0.626534 0.000000
Si Si5 0.854870 0.136489 0.822006
Si Si6 0.815624 0.974986 0.226101
Si Si7 0.063605 0.750000 0.625000
O O1 0.408051 0.091950 0.250000
O O2 0.374459 0.053725 0.086789
O O3 0.369346 0.954047 0.200157
O O4 0.265600 0.063774 0.201547
O O5 0.791430 0.323056 0.490141
O O6 0.669172 0.343570 0.416420
O O7 0.455083 0.865819 0.545217
O O8 0.500000 0.000000 0.485381
O O9 0.609948 0.922643 0.547176
O O10 0.382819 0.696247 0.066123
O O11 0.940479 0.174247 0.815955
O O12 0.805795 0.005011 0.321874
#
# Coordination Sequence:
#
# PCOD9551697 Si02
#       7
#    16   8  16   8  16  16   8
#     4  11  20  32  53  78 112 151 189 236 287 348
#     4  10  22  39  58  88 116 146 188 231 298 348
#     4  10  19  35  56  80 111 148 188 230 279 341
#     4  10  19  31  47  76 107 148 192 225 279 340
#     4  10  21  37  59  83 117 150 184 236 285 355
#     4  10  21  35  52  81 109 146 188 225 279 336
#     4  10  20  32  50  74 112 146 186 234 276 340
#
# _framework density 18.800350999999999
#
# number of rings (size 3 to 8) (size 9 to 14) (size 15 to 20)
#    0.000    1.818    0.000    6.818    0.000    5.818 
#    0.000    4.091    0.000    4.364    0.000    0.000 
#    0.000    0.000    0.000    0.000    0.000    0.000 
#
# Total GULP energy -245223.211374 kJ/mol
# GULP energy per Si atom -5573.254804 kJ/mol
# Density = 1.875756 g / cm^3
# Si number density = 18.800351 Si / 1000 Ang^3
#
#
#
# Elastic Constant Matrix: (Units=GPa)
#
#
# Indices 1 2 3 4 5 6 
#
# 1 17.2370 139.3109 36.8906 0.0000 0.0000 0.0000
# 2 139.3109 17.2753 36.8879 0.0000 0.0000 0.0000
# 3 36.8906 36.8879 83.2188 0.0000 0.0000 0.0000
# 4 0.0000 0.0000 0.0000 21.8496 0.0000 0.0000
# 5 0.0000 0.0000 0.0000 0.0000 21.8495 0.0000
# 6 0.0000 0.0000 0.0000 0.0000 0.0000 29.1580
#
#
#
# Elastic Compliance Matrix: (Units=1/GPa)
#
#
# Indices 1 2 3 4 5 6 
#
# 1 -0.000061 0.008133 -0.003578 0.000000 0.000000 0.000000
# 2 0.008133 -0.000058 -0.003580 0.000000 0.000000 0.000000
# 3 -0.003578 -0.003580 0.015189 0.000000 0.000000 0.000000
# 4 0.000000 0.000000 0.000000 0.045767 0.000000 0.000000
# 5 0.000000 0.000000 0.000000 0.000000 0.045768 0.000000
# 6 0.000000 0.000000 0.000000 0.000000 0.000000 0.034296
#
#
# Mechanical properties :
#
#
# Convention : Reuss Voigt Hill
#
# Bulk Modulus (GPa) = 58.75081 60.43444 59.59262
# Shear Modulus (GPa) = 34.57261 8.21420 21.39340
#
# Velocity S-wave (km/s) = 4.29293 2.09252 3.37698
# Velocity P-wave (km/s) = 7.47596 6.16874 6.85359
#
# Compressibility (1/GPa) = 0.01702104
#
# Stress axis : x y z
#
# Youngs Moduli (GPa) = -16357.27227 -17112.29322 65.83560
#
# Poissons Ratio (x) = 139.17873 0.23557
# Poissons Ratio (y) = 133.03795 0.23566
# Poissons Ratio (z) = -58.52767 -61.25423
#
# Static dielectric constant tensor:
#      x y z
#    x 1.704790 0.000000 0.000000 
#    y 0.000000 1.704790 0.000000 
#    z 0.000000 0.000000 1.996760 
# 
# From -- ./inp_files/6570.got.cif
#   From: 2010.05.17/outbox.cif.g08.bks.cpg/sg98_4_cif.got.tgz:6570.got - 2010.06.03 20:00:51.
