data_PCOD9551966
_publ_section_title
;
Structure prediction by ZEFSAII (Michael W. Deem and Ramdas Pophale) SiO2 
 PCOD9551966
Probable space group: I 41 2 2
;
_chemical_formula_sum "Si O2"
_cell_formula_units_Z 108
_cell_length_a 14.560580
_cell_length_b 14.560580
_cell_length_c 22.397825
_cell_angle_alpha 90.000000
_cell_angle_beta 90.000000
_cell_angle_gamma 90.000000
_cell_volume 4748.573852
_symmetry_space_group_name_H-M "I 41 2 2"
_symmetry_group_IT_number 98
_symmetry_cell_setting 'tetragonal'
loop_
_space_group_symop_operation_xyz
x,y,z
-y,1/2+x,1/4+z
-x,-y,z
y,1/2-x,1/4+z
x,1/2-y,1/4-z
-x,1/2+y,1/4-z
y,x,-z
-y,-x,-z
1/2+x,1/2+y,1/2+z
1/2-y,x,3/4+z
1/2-x,1/2-y,1/2+z
1/2+y,-x,3/4+z
1/2+x,-y,3/4-z
1/2-x,y,3/4-z
1/2+y,1/2+x,1/2-z
1/2-y,1/2-x,1/2-z
loop_
_atom_site_type_symbol
_atom_site_label
_atom_site_fract_x
_atom_site_fract_y
_atom_site_fract_z
Si Si1 0.489633 0.597613 0.439783
Si Si2 0.790429 0.419957 0.541749
Si Si3 0.783744 0.283744 0.750000
Si Si4 0.000000 0.000000 0.500000
Si Si5 0.860191 0.690125 0.375630
Si Si6 0.598915 0.856734 0.116691
Si Si7 0.403459 0.601610 0.911623
Si Si8 0.064047 0.410822 0.013695
O O1 0.500000 0.500000 0.405350
O O2 0.439748 0.560253 0.500000
O O3 0.429938 0.689275 0.428756
O O4 0.591078 0.641823 0.431583
O O5 0.799201 0.324356 0.507108
O O6 0.861376 0.424299 0.596446
O O7 0.820560 0.500219 0.496389
O O8 0.832622 0.330147 0.692891
O O9 0.013052 0.909806 0.458645
O O10 0.750000 0.683480 0.375000
O O11 0.890797 0.796667 0.379185
O O12 0.897461 0.634334 0.432467
O O13 0.610960 0.750000 0.125000
O O14 0.578155 0.882137 0.048381
O O15 0.504757 0.876519 0.152511
O O16 0.000000 0.500000 0.020725
#
# Coordination Sequence:
#
# PCOD9551966 Si02
#       8
#    16  16   8   4  16  16  16  16
#     4  11  26  47  78 109 151 207 256 320 395 469
#     4  12  24  48  75 106 161 206 254 328 395 479
#     4  11  26  43  73 118 147 210 260 320 399 484
#     4  10  24  40  72 108 142 204 242 328 406 468
#     4  11  28  46  76 116 150 201 270 323 396 488
#     4  11  24  47  73 105 151 205 253 331 396 464
#     4  11  24  46  74 111 157 199 270 324 404 480
#     4  12  26  48  75 108 150 202 253 323 400 463
#
# _framework density 22.743670999999999
#
# number of rings (size 3 to 8) (size 9 to 14) (size 15 to 20)
#    0.000    0.741    3.704    2.667    4.148    5.926 
#    0.000    0.000    0.000    0.000    0.000    0.000 
#    0.000    0.000    0.000    0.000    0.000    0.000 
#
# Total GULP energy -300965.917575 kJ/mol
# GULP energy per Si atom -5573.442918 kJ/mol
# Density = 2.269191 g / cm^3
# Si number density = 22.743671 Si / 1000 Ang^3
#
#
#
# Elastic Constant Matrix: (Units=GPa)
#
#
# Indices 1 2 3 4 5 6 
#
# 1 141.7642 69.3307 52.9819 0.0000 0.0000 0.0000
# 2 69.3307 141.7641 52.9816 0.0000 0.0000 0.0000
# 3 52.9819 52.9816 112.4713 0.0000 0.0000 0.0000
# 4 0.0000 0.0000 0.0000 32.2854 0.0000 0.0000
# 5 0.0000 0.0000 0.0000 0.0000 32.2855 0.0000
# 6 0.0000 0.0000 0.0000 0.0000 0.0000 39.8701
#
#
#
# Elastic Compliance Matrix: (Units=1/GPa)
#
#
# Indices 1 2 3 4 5 6 
#
# 1 0.010005 -0.003801 -0.002923 0.000000 0.000000 0.000000
# 2 -0.003801 0.010005 -0.002923 0.000000 0.000000 0.000000
# 3 -0.002923 -0.002923 0.011645 0.000000 0.000000 0.000000
# 4 0.000000 0.000000 0.000000 0.030974 0.000000 0.000000
# 5 0.000000 0.000000 0.000000 0.000000 0.030974 0.000000
# 6 0.000000 0.000000 0.000000 0.000000 0.000000 0.025081
#
#
# Mechanical properties :
#
#
# Convention : Reuss Voigt Hill
#
# Bulk Modulus (GPa) = 80.88859 82.95421 81.92140
# Shear Modulus (GPa) = 35.18734 35.60190 35.39462
#
# Velocity S-wave (km/s) = 3.93762 3.96075 3.94920
# Velocity P-wave (km/s) = 7.50438 7.58086 7.54271
#
# Compressibility (1/GPa) = 0.01236268
#
# Stress axis : x y z
#
# Youngs Moduli (GPa) = 99.94970 99.94976 85.87603
#
# Poissons Ratio (x) = 0.37988 0.25099
# Poissons Ratio (y) = 0.37988 0.25098
# Poissons Ratio (z) = 0.29212 0.29212
#
# Static dielectric constant tensor:
#      x y z
#    x 1.881760 0.000000 0.000000 
#    y 0.000000 1.881760 0.000000 
#    z 0.000000 0.000000 1.930100 
# 
# From -- ./inp_files/10130.got.cif
#   From: 2010.05.17/outbox.cif.g08.bks.cpg/sg98_6_cif.got.tgz:10130.got - 2010.06.03 20:00:51.
