data_PCOD9551619
_publ_section_title
;
Structure prediction by ZEFSAII (Michael W. Deem and Ramdas Pophale) SiO2 
 PCOD9551619
Probable space group: I 4 2 2 
;
_chemical_formula_sum "Si O2"
_cell_formula_units_Z 40
_cell_length_a 7.652611
_cell_length_b 7.652611
_cell_length_c 24.524953
_cell_angle_alpha 90.000000
_cell_angle_beta 90.000000
_cell_angle_gamma 90.000000
_cell_volume 1436.241459
_symmetry_space_group_name_H-M "I 4 2 2 "
_symmetry_group_IT_number 97
_symmetry_cell_setting 'tetragonal'
loop_
_space_group_symop_operation_xyz
x,y,z
-y,x,z
-x,-y,z
y,-x,z
x,-y,-z
-x,y,-z
y,x,-z
-y,-x,-z
1/2+x,1/2+y,1/2+z
1/2-y,1/2+x,1/2+z
1/2-x,1/2-y,1/2+z
1/2+y,1/2-x,1/2+z
1/2+x,1/2-y,1/2-z
1/2-x,1/2+y,1/2-z
1/2+y,1/2+x,1/2-z
1/2-y,1/2-x,1/2-z
loop_
_atom_site_type_symbol
_atom_site_label
_atom_site_fract_x
_atom_site_fract_y
_atom_site_fract_z
Si Si1 0.203295 0.784053 0.939944
Si Si2 0.915330 0.678396 0.337719
Si Si3 0.221147 0.721147 0.250000
O O1 0.274095 0.669209 0.889768
O O2 0.992188 0.765596 0.936908
O O3 0.268013 0.731988 0.000000
O O4 0.754544 0.633569 0.297177
O O5 0.000000 0.500000 0.357720
O O6 0.058567 0.741264 0.292473
#
# Coordination Sequence:
#
# PCOD9551619 Si02
#       3
#    16  16   8
#     4   9  20  42  75 110 143 198 265 322 391 479
#     4  12  24  45  67 109 161 202 261 332 403 474
#     4  12  24  44  66 102 158 208 252 318 412 472
#
# _framework density 27.850470999999999
#
# number of rings (size 3 to 8) (size 9 to 14) (size 15 to 20)
#    0.000    1.200    4.000    3.600    0.000    0.800 
#    0.000   14.000    0.000    0.000    0.000   30.800 
#    0.000    0.000    0.000    0.000    0.000    0.000 
#
# Total GULP energy -111367.204081 kJ/mol
# GULP energy per Si atom -5568.360204 kJ/mol
# Density = 2.778708 g / cm^3
# Si number density = 27.850471 Si / 1000 Ang^3
#
#
#
# Elastic Constant Matrix: (Units=GPa)
#
#
# Indices 1 2 3 4 5 6 
#
# 1 104.6510 10.7287 75.5949 0.0000 0.0000 0.0000
# 2 10.7287 104.6510 75.5950 0.0000 0.0000 0.0000
# 3 75.5949 75.5950 334.8797 0.0000 0.0000 0.0000
# 4 0.0000 0.0000 0.0000 43.2875 0.0000 0.0000
# 5 0.0000 0.0000 0.0000 0.0000 43.2871 0.0000
# 6 0.0000 0.0000 0.0000 0.0000 0.0000 35.9777
#
#
#
# Elastic Compliance Matrix: (Units=1/GPa)
#
#
# Indices 1 2 3 4 5 6 
#
# 1 0.011477 0.000830 -0.002778 0.000000 0.000000 0.000000
# 2 0.000830 0.011477 -0.002778 0.000000 0.000000 0.000000
# 3 -0.002778 -0.002778 0.004240 0.000000 0.000000 0.000000
# 4 0.000000 0.000000 0.000000 0.023101 0.000000 0.000000
# 5 0.000000 0.000000 0.000000 0.000000 0.023102 0.000000
# 6 0.000000 0.000000 0.000000 0.000000 0.000000 0.027795
#
#
# Mechanical properties :
#
#
# Convention : Reuss Voigt Hill
#
# Bulk Modulus (GPa) = 56.36168 96.44655 76.40411
# Shear Modulus (GPa) = 42.89637 49.99466 46.44552
#
# Velocity S-wave (km/s) = 3.92885 4.24147 4.08815
# Velocity P-wave (km/s) = 6.39236 7.66108 7.05529
#
# Compressibility (1/GPa) = 0.01774255
#
# Stress axis : x y z
#
# Youngs Moduli (GPa) = 87.12807 87.12804 235.82244
#
# Poissons Ratio (x) = -0.07234 0.65518
# Poissons Ratio (y) = -0.07234 0.65519
# Poissons Ratio (z) = 0.24207 0.24207
#
# Static dielectric constant tensor:
#      x y z
#    x 2.504750 0.000000 0.000000 
#    y 0.000000 2.504760 0.000000 
#    z 0.000000 0.000000 2.151350 
# 
# From -- ./inp_files/6928.got.cif
#   From: 2010.05.17/outbox.cif.g08.bks.cpg/sg97_4_cif.got.tgz:6928.got - 2010.06.03 19:55:32.
