data_PCOD9551778
_publ_section_title
;
Structure prediction by ZEFSAII (Michael W. Deem and Ramdas Pophale) SiO2 
 PCOD9551778
Probable space group: I 41 2 2
;
_chemical_formula_sum "Si O2"
_cell_formula_units_Z 120
_cell_length_a 20.940425
_cell_length_b 20.940425
_cell_length_c 14.411415
_cell_angle_alpha 90.000000
_cell_angle_beta 90.000000
_cell_angle_gamma 90.000000
_cell_volume 6319.425642
_symmetry_space_group_name_H-M "I 41 2 2"
_symmetry_group_IT_number 98
_symmetry_cell_setting 'tetragonal'
loop_
_space_group_symop_operation_xyz
x,y,z
-y,1/2+x,1/4+z
-x,-y,z
y,1/2-x,1/4+z
x,1/2-y,1/4-z
-x,1/2+y,1/4-z
y,x,-z
-y,-x,-z
1/2+x,1/2+y,1/2+z
1/2-y,x,3/4+z
1/2-x,1/2-y,1/2+z
1/2+y,-x,3/4+z
1/2+x,-y,3/4-z
1/2-x,y,3/4-z
1/2+y,1/2+x,1/2-z
1/2-y,1/2-x,1/2-z
loop_
_atom_site_type_symbol
_atom_site_label
_atom_site_fract_x
_atom_site_fract_y
_atom_site_fract_z
Si Si1 0.588549 0.882150 0.476689
Si Si2 0.801234 0.823457 0.599698
Si Si3 0.234910 0.943881 0.510474
Si Si4 0.645766 0.013983 0.409049
Si Si5 0.346462 0.323691 0.609041
Si Si6 0.689157 0.189157 0.750000
Si Si7 0.131649 0.942501 0.675435
Si Si8 0.677139 0.163709 0.547972
O O1 0.625405 0.825909 0.422290
O O2 0.609147 0.871681 0.583304
O O3 0.513230 0.878143 0.463124
O O4 0.615042 0.945907 0.428326
O O5 0.816597 0.750000 0.625000
O O6 0.833184 0.833184 0.500000
O O7 0.724668 0.827333 0.596926
O O8 0.304936 0.976603 0.496892
O O9 0.191446 0.973723 0.429365
O O10 0.189611 0.945407 0.600781
O O11 0.261435 0.871238 0.501955
O O12 0.589097 0.065183 0.391229
O O13 0.367797 0.250000 0.625000
O O14 0.339110 0.339110 0.500000
O O15 0.676791 0.148835 0.657457
O O16 0.762032 0.182232 0.778827
O O17 0.146694 0.890464 0.753874
#
# Coordination Sequence:
#
# PCOD9551778 Si02
#       8
#    16  16  16  16  16   8  16  16
#     4  12  26  40  65  90 133 173 214 268 327 404
#     4  11  21  36  62  91 127 153 200 269 329 383
#     4  10  22  40  65  94 126 173 216 279 325 410
#     4  10  25  40  62  92 132 168 223 265 333 403
#     4  11  21  42  64  95 121 159 211 277 339 391
#     4  10  20  36  68 102 133 165 214 288 350 384
#     4  11  24  43  60  91 132 178 217 263 326 404
#     4  10  21  39  64  99 134 167 221 277 349 391
#
# _framework density 18.989068
#
# number of rings (size 3 to 8) (size 9 to 14) (size 15 to 20)
#    0.000    1.333    4.000    1.600    7.467    1.067 
#    2.400    4.000    0.000    0.800    0.000    0.000 
#    0.000    0.000    0.000    0.000    0.000    0.000 
#
# Total GULP energy -334206.152703 kJ/mol
# GULP energy per Si atom -5570.102545 kJ/mol
# Density = 1.894585 g / cm^3
# Si number density = 18.989068 Si / 1000 Ang^3
#
#
#
# Elastic Constant Matrix: (Units=GPa)
#
#
# Indices 1 2 3 4 5 6 
#
# 1 88.5357 51.7147 38.5795 0.0000 0.0000 0.0000
# 2 51.7147 88.5357 38.5795 0.0000 0.0000 0.0000
# 3 38.5795 38.5795 122.8424 0.0000 0.0000 0.0000
# 4 0.0000 0.0000 0.0000 25.9316 0.0000 0.0000
# 5 0.0000 0.0000 0.0000 0.0000 25.9316 0.0000
# 6 0.0000 0.0000 0.0000 0.0000 0.0000 -5.9755
#
#
#
# Elastic Compliance Matrix: (Units=1/GPa)
#
#
# Indices 1 2 3 4 5 6 
#
# 1 0.017889 -0.009270 -0.002707 0.000000 0.000000 0.000000
# 2 -0.009270 0.017889 -0.002707 0.000000 0.000000 0.000000
# 3 -0.002707 -0.002707 0.009841 0.000000 0.000000 0.000000
# 4 0.000000 0.000000 0.000000 0.038563 0.000000 0.000000
# 5 0.000000 0.000000 0.000000 0.000000 0.038563 0.000000
# 6 0.000000 0.000000 0.000000 0.000000 0.000000 -0.167349
#
#
# Mechanical properties :
#
#
# Convention : Reuss Voigt Hill
#
# Bulk Modulus (GPa) = 61.53231 61.96237 61.74734
# Shear Modulus (GPa) = -509.17003 20.58019 -244.29492
#
# Velocity S-wave (km/s) = -16.39270 3.29567 -11.35472
# Velocity P-wave (km/s) = 18.05048 6.86901 11.80331
#
# Compressibility (1/GPa) = 0.01625162
#
# Stress axis : x y z
#
# Youngs Moduli (GPa) = 55.90059 55.90059 101.61786
#
# Poissons Ratio (x) = 0.51817 0.27508
# Poissons Ratio (y) = 0.51817 0.27508
# Poissons Ratio (z) = 0.15132 0.15132
#
# Static dielectric constant tensor:
#      x y z
#    x 1.631500 0.000000 0.000000 
#    y 0.000000 1.631500 0.000000 
#    z 0.000000 0.000000 1.784590 
# 
# From -- ./inp_files/6779.got.cif
#   From: 2010.05.17/outbox.cif.g08.bks.cpg/sg98_4_cif.got.tgz:6779.got - 2010.06.03 20:00:51.
