data_PCOD9551747
_publ_section_title
;
Structure prediction by ZEFSAII (Michael W. Deem and Ramdas Pophale) SiO2 
 PCOD9551747
Probable space group: I 41 2 2
;
_chemical_formula_sum "Si O2"
_cell_formula_units_Z 72
_cell_length_a 14.583143
_cell_length_b 14.583143
_cell_length_c 18.537360
_cell_angle_alpha 90.000000
_cell_angle_beta 90.000000
_cell_angle_gamma 90.000000
_cell_volume 3942.304384
_symmetry_space_group_name_H-M "I 41 2 2"
_symmetry_group_IT_number 98
_symmetry_cell_setting 'tetragonal'
loop_
_space_group_symop_operation_xyz
x,y,z
-y,1/2+x,1/4+z
-x,-y,z
y,1/2-x,1/4+z
x,1/2-y,1/4-z
-x,1/2+y,1/4-z
y,x,-z
-y,-x,-z
1/2+x,1/2+y,1/2+z
1/2-y,x,3/4+z
1/2-x,1/2-y,1/2+z
1/2+y,-x,3/4+z
1/2+x,-y,3/4-z
1/2-x,y,3/4-z
1/2+y,1/2+x,1/2-z
1/2-y,1/2-x,1/2-z
loop_
_atom_site_type_symbol
_atom_site_label
_atom_site_fract_x
_atom_site_fract_y
_atom_site_fract_z
Si Si1 0.213115 0.213115 0.000000
Si Si2 0.613415 0.764176 0.895681
Si Si3 0.266467 0.604216 0.954662
Si Si4 0.005470 0.607678 0.486470
Si Si5 0.450125 0.402542 0.100033
O O1 0.301026 0.212579 0.947746
O O2 0.134170 0.220294 0.939128
O O3 0.536763 0.833202 0.922702
O O4 0.593080 0.657838 0.913775
O O5 0.250000 0.642434 0.875000
O O6 0.321911 0.507620 0.939502
O O7 0.333429 0.666572 0.000000
O O8 0.167301 0.594933 0.992518
O O9 0.000000 0.500000 0.469367
O O10 0.954762 0.615074 0.564005
O O11 0.500000 0.500000 0.086024
#
# Coordination Sequence:
#
# PCOD9551747 Si02
#       5
#     8  16  16  16  16
#     4  10  22  30  56  82 114 150 204 238 300 360
#     4  11  19  36  54  86 121 159 192 247 303 370
#     4  10  21  37  60  92 125 160 196 244 311 386
#     4  10  21  36  56  83 121 157 201 254 296 353
#     4  10  20  33  57  94 126 153 186 237 320 391
#
# _framework density 18.26343
#
# number of rings (size 3 to 8) (size 9 to 14) (size 15 to 20)
#    0.000    1.778    2.222    2.667    6.222    2.222 
#    0.000    2.778    4.889    0.000    0.000    0.000 
#    0.000    0.000    0.000    0.000    0.000    0.000 
#
# Total GULP energy -200479.847591 kJ/mol
# GULP energy per Si atom -5568.884655 kJ/mol
# Density = 1.822186 g / cm^3
# Si number density = 18.263430 Si / 1000 Ang^3
#
#
#
# Elastic Constant Matrix: (Units=GPa)
#
#
# Indices 1 2 3 4 5 6 
#
# 1 96.4572 35.2632 41.4387 0.0000 0.0000 0.0000
# 2 35.2632 96.4593 41.4389 0.0000 0.0000 0.0000
# 3 41.4387 41.4389 130.2458 0.0000 0.0000 0.0000
# 4 0.0000 0.0000 0.0000 24.6599 0.0000 0.0000
# 5 0.0000 0.0000 0.0000 0.0000 24.6577 0.0000
# 6 0.0000 0.0000 0.0000 0.0000 0.0000 20.4963
#
#
#
# Elastic Compliance Matrix: (Units=1/GPa)
#
#
# Indices 1 2 3 4 5 6 
#
# 1 0.012917 -0.003425 -0.003020 0.000000 0.000000 0.000000
# 2 -0.003425 0.012916 -0.003020 0.000000 0.000000 0.000000
# 3 -0.003020 -0.003020 0.009599 0.000000 0.000000 0.000000
# 4 0.000000 0.000000 0.000000 0.040552 0.000000 0.000000
# 5 0.000000 0.000000 0.000000 0.000000 0.040555 0.000000
# 6 0.000000 0.000000 0.000000 0.000000 0.000000 0.048789
#
#
# Mechanical properties :
#
#
# Convention : Reuss Voigt Hill
#
# Bulk Modulus (GPa) = 60.59327 62.16045 61.37686
# Shear Modulus (GPa) = 26.34921 27.63087 26.99004
#
# Velocity S-wave (km/s) = 3.80245 3.89383 3.84841
# Velocity P-wave (km/s) = 7.24759 7.37057 7.30934
#
# Compressibility (1/GPa) = 0.01650348
#
# Stress axis : x y z
#
# Youngs Moduli (GPa) = 77.41923 77.42105 104.17298
#
# Poissons Ratio (x) = 0.26514 0.31460
# Poissons Ratio (y) = 0.26513 0.31459
# Poissons Ratio (z) = 0.23380 0.23380
#
# Static dielectric constant tensor:
#      x y z
#    x 1.786560 0.000000 0.000000 
#    y 0.000000 1.786570 0.000000 
#    z 0.000000 0.000000 1.499380 
# 
# From -- ./inp_files/7497.got.cif
#   From: 2010.05.17/outbox.cif.g08.bks.cpg/sg98_4_cif.got.tgz:7497.got - 2010.06.03 20:00:51.
