data_PCOD9551157
_publ_section_title
;
Structure prediction by ZEFSAII (Michael W. Deem and Ramdas Pophale) SiO2 
 PCOD9551157
Probable space group: P 43 21 2
;
_chemical_formula_sum "Si O2"
_cell_formula_units_Z 40
_cell_length_a 14.299225
_cell_length_b 14.299225
_cell_length_c 8.407641
_cell_angle_alpha 90.000000
_cell_angle_beta 90.000000
_cell_angle_gamma 90.000000
_cell_volume 1719.092158
_symmetry_space_group_name_H-M "P 43 21 2"
_symmetry_group_IT_number 96
_symmetry_cell_setting 'tetragonal'
loop_
_space_group_symop_operation_xyz
x,y,z
1/2-y,1/2+x,3/4+z
-x,-y,1/2+z
1/2+y,1/2-x,1/4+z
1/2+x,1/2-y,1/4-z
1/2-x,1/2+y,3/4-z
y,x,-z
-y,-x,1/2-z
loop_
_atom_site_type_symbol
_atom_site_label
_atom_site_fract_x
_atom_site_fract_y
_atom_site_fract_z
Si Si1 0.999356 0.278612 0.789648
Si Si2 0.578380 0.083859 0.197843
Si Si3 0.357470 0.797041 0.251744
Si Si4 0.030833 0.779094 0.835104
Si Si5 0.890282 0.048029 0.496183
O O1 0.905800 0.332230 0.734562
O O2 0.039938 0.334171 0.941359
O O3 0.079983 0.282202 0.657340
O O4 0.968517 0.177345 0.854821
O O5 0.511001 0.072341 0.049700
O O6 0.687385 0.095302 0.159613
O O7 0.263984 0.736017 0.250000
O O8 0.425693 0.755749 0.385816
O O9 0.062335 0.850994 0.971928
O O10 0.037278 0.829389 0.665307
O O11 0.971320 0.971320 0.500000
#
# Coordination Sequence:
#
# PCOD9551157 Si02
#       5
#     8   8   8   8   8
#     4  12  26  48  75 111 151 197 251 320 380 457
#     4  12  24  46  74 112 150 195 253 317 391 450
#     4  12  28  45  72 111 146 197 255 308 388 453
#     4  11  26  45  74 107 145 199 246 314 375 458
#     4  11  25  50  74 104 149 199 250 306 382 458
#
# _framework density 23.268094000000001
#
# number of rings (size 3 to 8) (size 9 to 14) (size 15 to 20)
#    0.000    0.400    4.000    3.000    5.600    1.600 
#    7.200    0.000    0.000    0.000    0.000    0.000 
#    0.000    0.000    0.000    0.000    0.000    0.000 
#
# Total GULP energy -224297.156510 kJ/mol
# GULP energy per Si atom -5607.428913 kJ/mol
# Density = 2.321514 g / cm^3
# Si number density = 23.268094 Si / 1000 Ang^3
#
#
#
# Elastic Constant Matrix: (Units=GPa)
#
#
# Indices 1 2 3 4 5 6 
#
# 1 145.9764 47.6763 32.3752 0.0000 0.0000 0.0000
# 2 47.6763 145.9730 32.3739 0.0000 0.0000 0.0000
# 3 32.3752 32.3739 90.4558 0.0000 0.0000 0.0000
# 4 0.0000 0.0000 0.0000 39.0432 0.0000 0.0000
# 5 0.0000 0.0000 0.0000 0.0000 39.0441 0.0000
# 6 0.0000 0.0000 0.0000 0.0000 0.0000 46.9055
#
#
#
# Elastic Compliance Matrix: (Units=1/GPa)
#
#
# Indices 1 2 3 4 5 6 
#
# 1 0.008019 -0.002154 -0.002099 0.000000 0.000000 0.000000
# 2 -0.002154 0.008020 -0.002099 0.000000 0.000000 0.000000
# 3 -0.002099 -0.002099 0.012558 0.000000 0.000000 0.000000
# 4 0.000000 0.000000 0.000000 0.025613 0.000000 0.000000
# 5 0.000000 0.000000 0.000000 0.000000 0.025612 0.000000
# 6 0.000000 0.000000 0.000000 0.000000 0.000000 0.021319
#
#
# Mechanical properties :
#
#
# Convention : Reuss Voigt Hill
#
# Bulk Modulus (GPa) = 62.92481 67.47288 65.19884
# Shear Modulus (GPa) = 41.96626 42.99722 42.48174
#
# Velocity S-wave (km/s) = 4.25148 4.30339 4.27752
# Velocity P-wave (km/s) = 7.15558 7.33166 7.24415
#
# Compressibility (1/GPa) = 0.01589198
#
# Stress axis : x y z
#
# Youngs Moduli (GPa) = 124.69722 124.69498 79.63112
#
# Poissons Ratio (x) = 0.26854 0.16718
# Poissons Ratio (y) = 0.26855 0.16718
# Poissons Ratio (z) = 0.26180 0.26178
#
# Static dielectric constant tensor:
#      x y z
#    x 1.849380 0.000000 0.000000 
#    y 0.000000 1.849380 0.000000 
#    z 0.000000 0.000000 1.907020 
# 
# From -- ./inp_files/1338.got.cif
#   From: 2010.05.17/outbox.cif.g08.bks.cpg/sg96_1_cif.got.tgz:1338.got - 2010.06.03 19:52:08.
