data_PCOD9551262
_publ_section_title
;
Structure prediction by ZEFSAII (Michael W. Deem and Ramdas Pophale) SiO2 
 PCOD9551262
Probable space group: I 4 2 2 
;
_chemical_formula_sum "Si O2"
_cell_formula_units_Z 112
_cell_length_a 15.435465
_cell_length_b 15.435465
_cell_length_c 27.096251
_cell_angle_alpha 90.000000
_cell_angle_beta 90.000000
_cell_angle_gamma 90.000000
_cell_volume 6455.778799
_symmetry_space_group_name_H-M "I 4 2 2 "
_symmetry_group_IT_number 97
_symmetry_cell_setting 'tetragonal'
loop_
_space_group_symop_operation_xyz
x,y,z
-y,x,z
-x,-y,z
y,-x,z
x,-y,-z
-x,y,-z
y,x,-z
-y,-x,-z
1/2+x,1/2+y,1/2+z
1/2-y,1/2+x,1/2+z
1/2-x,1/2-y,1/2+z
1/2+y,1/2-x,1/2+z
1/2+x,1/2-y,1/2-z
1/2-x,1/2+y,1/2-z
1/2+y,1/2+x,1/2-z
1/2-y,1/2-x,1/2-z
loop_
_atom_site_type_symbol
_atom_site_label
_atom_site_fract_x
_atom_site_fract_y
_atom_site_fract_z
Si Si1 0.277506 0.303707 0.296889
Si Si2 0.994735 0.594909 0.625831
Si Si3 0.220351 0.257743 0.552939
Si Si4 0.379370 0.578715 0.232709
Si Si5 0.249404 0.375587 0.850197
Si Si6 0.196219 0.388115 0.388806
Si Si7 0.050004 0.656328 0.051393
O O1 0.214763 0.285238 0.250000
O O2 0.370452 0.327372 0.274783
O O3 0.283854 0.213895 0.326421
O O4 0.238222 0.372916 0.335111
O O5 0.945771 0.672874 0.653083
O O6 0.934446 0.575110 0.577897
O O7 0.000000 0.500000 0.651526
O O8 0.092160 0.623747 0.614201
O O9 0.213114 0.213114 0.500000
O O10 0.148292 0.231067 0.593146
O O11 0.313732 0.235168 0.576128
O O12 0.208185 0.360803 0.545428
O O13 0.384445 0.476033 0.236686
O O14 0.333123 0.599029 0.180921
O O15 0.205482 0.483277 0.412151
O O16 0.000000 0.642856 0.000000
#
# Coordination Sequence:
#
# PCOD9551262 Si02
#       7
#    16  16  16  16  16  16  16
#     4   9  20  37  57  81 108 145 189 238 289 336
#     4   9  20  33  54  83 115 149 187 225 283 338
#     4  10  19  34  54  83 111 150 192 221 280 334
#     4  10  22  38  61  82 105 147 194 238 285 343
#     4   9  20  36  57  81 118 148 184 238 284 341
#     4  10  20  34  59  81 115 152 186 228 291 345
#     4  10  19  35  54  83 120 153 187 236 274 341
#
# _framework density 17.348797000000001
#
# number of rings (size 3 to 8) (size 9 to 14) (size 15 to 20)
#    0.000    2.429    1.429    0.000    6.000    7.143 
#    0.000    0.000    0.000    1.286    0.000    1.000 
#    0.000    0.000    0.000    0.000    0.000    0.000 
#
# Total GULP energy -312000.541042 kJ/mol
# GULP energy per Si atom -5571.438233 kJ/mol
# Density = 1.730931 g / cm^3
# Si number density = 17.348797 Si / 1000 Ang^3
#
#
#
# Elastic Constant Matrix: (Units=GPa)
#
#
# Indices 1 2 3 4 5 6 
#
# 1 32.7172 50.2918 14.6396 0.0000 0.0000 0.0000
# 2 50.2918 32.7202 14.6402 0.0000 0.0000 0.0000
# 3 14.6396 14.6402 86.3952 0.0000 0.0000 0.0000
# 4 0.0000 0.0000 0.0000 15.8612 0.0000 0.0000
# 5 0.0000 0.0000 0.0000 0.0000 15.8610 0.0000
# 6 0.0000 0.0000 0.0000 0.0000 0.0000 57.5692
#
#
#
# Elastic Compliance Matrix: (Units=1/GPa)
#
#
# Indices 1 2 3 4 5 6 
#
# 1 -0.022047 0.034859 -0.002171 0.000000 0.000000 0.000000
# 2 0.034859 -0.022045 -0.002171 0.000000 0.000000 0.000000
# 3 -0.002171 -0.002171 0.012311 0.000000 0.000000 0.000000
# 4 0.000000 0.000000 0.000000 0.063047 0.000000 0.000000
# 5 0.000000 0.000000 0.000000 0.000000 0.063048 0.000000
# 6 0.000000 0.000000 0.000000 0.000000 0.000000 0.017370
#
#
# Mechanical properties :
#
#
# Convention : Reuss Voigt Hill
#
# Bulk Modulus (GPa) = 34.18684 34.55286 34.36985
# Shear Modulus (GPa) = 82.78142 22.67568 52.72855
#
# Velocity S-wave (km/s) = 6.91517 3.61923 5.51898
# Velocity P-wave (km/s) = 9.13826 6.11759 7.77601
#
# Compressibility (1/GPa) = 0.02925103
#
# Stress axis : x y z
#
# Youngs Moduli (GPa) = -45.35686 -45.36101 81.23135
#
# Poissons Ratio (x) = 1.58123 0.17637
# Poissons Ratio (y) = 1.58109 0.17636
# Poissons Ratio (z) = -0.09848 -0.09848
#
# Static dielectric constant tensor:
#      x y z
#    x 1.583650 0.000000 0.000000 
#    y 0.000000 1.583650 0.000000 
#    z 0.000000 0.000000 1.614770 
# 
# From -- ./inp_files/7704.got.cif
#   From: 2010.05.17/outbox.cif.g08.bks.cpg/sg97_4_cif.got.tgz:7704.got - 2010.06.03 19:55:32.
