data_PCOD9551279
_publ_section_title
;
Structure prediction by ZEFSAII (Michael W. Deem and Ramdas Pophale) SiO2 
 PCOD9551279
Probable space group: I 4 2 2 
;
_chemical_formula_sum "Si O2"
_cell_formula_units_Z 88
_cell_length_a 11.909981
_cell_length_b 11.909981
_cell_length_c 28.695382
_cell_angle_alpha 90.000000
_cell_angle_beta 90.000000
_cell_angle_gamma 90.000000
_cell_volume 4070.372429
_symmetry_space_group_name_H-M "I 4 2 2 "
_symmetry_group_IT_number 97
_symmetry_cell_setting 'tetragonal'
loop_
_space_group_symop_operation_xyz
x,y,z
-y,x,z
-x,-y,z
y,-x,z
x,-y,-z
-x,y,-z
y,x,-z
-y,-x,-z
1/2+x,1/2+y,1/2+z
1/2-y,1/2+x,1/2+z
1/2-x,1/2-y,1/2+z
1/2+y,1/2-x,1/2+z
1/2+x,1/2-y,1/2-z
1/2-x,1/2+y,1/2-z
1/2+y,1/2+x,1/2-z
1/2-y,1/2-x,1/2-z
loop_
_atom_site_type_symbol
_atom_site_label
_atom_site_fract_x
_atom_site_fract_y
_atom_site_fract_z
Si Si1 0.128873 0.336981 0.800080
Si Si2 0.372609 0.366244 0.174992
Si Si3 0.685550 0.733807 0.076649
Si Si4 0.500000 0.000000 0.371560
Si Si5 0.336240 0.046373 0.548162
Si Si6 0.917893 0.167631 0.126078
O O1 0.108003 0.391998 0.750000
O O2 0.263419 0.318750 0.798136
O O3 0.087007 0.218970 0.821387
O O4 0.079049 0.424248 0.838517
O O5 0.504952 0.347942 0.183904
O O6 0.333408 0.341925 0.122540
O O7 0.764681 0.659702 0.043713
O O8 0.560169 0.758428 0.060391
O O9 0.745761 0.849532 0.092973
O O10 0.579992 0.064756 0.408262
O O11 0.386616 0.000000 0.500000
O O12 0.049160 0.144719 0.118427
#
# Coordination Sequence:
#
# PCOD9551279 Si02
#       6
#    16  16  16   8  16  16
#     4  11  24  41  66  97 127 172 229 284 342 409
#     4  10  19  37  62  89 127 170 205 262 343 406
#     4  11  21  40  65 100 134 174 224 279 341 408
#     4  12  22  46  62  94 134 180 216 280 350 406
#     4  12  25  41  67 100 136 178 228 285 344 412
#     4  10  22  43  69  94 133 184 226 273 334 403
#
# _framework density 21.619641999999999
#
# number of rings (size 3 to 8) (size 9 to 14) (size 15 to 20)
#    0.000    1.091    5.455    2.182    0.000    3.273 
#    0.000    2.727    0.000    0.000    0.000    5.091 
#    0.000    0.000    0.000    0.000    0.000    0.000 
#
# Total GULP energy -245109.171730 kJ/mol
# GULP energy per Si atom -5570.662994 kJ/mol
# Density = 2.157044 g / cm^3
# Si number density = 21.619642 Si / 1000 Ang^3
#
#
#
# Elastic Constant Matrix: (Units=GPa)
#
#
# Indices 1 2 3 4 5 6 
#
# 1 78.9705 23.8889 20.3644 0.0000 0.0000 0.0000
# 2 23.8889 78.9705 20.3642 0.0000 0.0000 0.0000
# 3 20.3644 20.3642 105.6587 0.0000 0.0000 0.0000
# 4 0.0000 0.0000 0.0000 3.2942 0.0000 0.0000
# 5 0.0000 0.0000 0.0000 0.0000 3.2946 0.0000
# 6 0.0000 0.0000 0.0000 0.0000 0.0000 13.6339
#
#
#
# Elastic Compliance Matrix: (Units=1/GPa)
#
#
# Indices 1 2 3 4 5 6 
#
# 1 0.014340 -0.003815 -0.002029 0.000000 0.000000 0.000000
# 2 -0.003815 0.014340 -0.002029 0.000000 0.000000 0.000000
# 3 -0.002029 -0.002029 0.010246 0.000000 0.000000 0.000000
# 4 0.000000 0.000000 0.000000 0.303563 0.000000 0.000000
# 5 0.000000 0.000000 0.000000 0.000000 0.303527 0.000000
# 6 0.000000 0.000000 0.000000 0.000000 0.000000 0.073347
#
#
# Mechanical properties :
#
#
# Convention : Reuss Voigt Hill
#
# Bulk Modulus (GPa) = 43.13597 43.64832 43.39215
# Shear Modulus (GPa) = 6.73097 17.31002 12.02049
#
# Velocity S-wave (km/s) = 1.76639 2.83267 2.36052
# Velocity P-wave (km/s) = 4.91484 5.56163 5.24821
#
# Compressibility (1/GPa) = 0.02318251
#
# Stress axis : x y z
#
# Youngs Moduli (GPa) = 69.73459 69.73464 97.59516
#
# Poissons Ratio (x) = 0.26603 0.19798
# Poissons Ratio (y) = 0.26602 0.19798
# Poissons Ratio (z) = 0.14147 0.14146
#
# Static dielectric constant tensor:
#      x y z
#    x 1.799630 0.000000 0.000000 
#    y 0.000000 1.799630 0.000000 
#    z 0.000000 0.000000 1.932740 
# 
# From -- ./inp_files/8040.got.cif
#   From: 2010.05.17/outbox.cif.g08.bks.cpg/sg97_5_cif.got.tgz:8040.got - 2010.06.03 19:55:32.
