data_PCOD9551327
_publ_section_title
;
Structure prediction by ZEFSAII (Michael W. Deem and Ramdas Pophale) SiO2 
 PCOD9551327
Probable space group: I 4 2 2 
;
_chemical_formula_sum "Si O2"
_cell_formula_units_Z 48
_cell_length_a 12.854284
_cell_length_b 12.854284
_cell_length_c 12.209617
_cell_angle_alpha 90.000000
_cell_angle_beta 90.000000
_cell_angle_gamma 90.000000
_cell_volume 2017.426971
_symmetry_space_group_name_H-M "I 4 2 2 "
_symmetry_group_IT_number 97
_symmetry_cell_setting 'tetragonal'
loop_
_space_group_symop_operation_xyz
x,y,z
-y,x,z
-x,-y,z
y,-x,z
x,-y,-z
-x,y,-z
y,x,-z
-y,-x,-z
1/2+x,1/2+y,1/2+z
1/2-y,1/2+x,1/2+z
1/2-x,1/2-y,1/2+z
1/2+y,1/2-x,1/2+z
1/2+x,1/2-y,1/2-z
1/2-x,1/2+y,1/2-z
1/2+y,1/2+x,1/2-z
1/2-y,1/2-x,1/2-z
loop_
_atom_site_type_symbol
_atom_site_label
_atom_site_fract_x
_atom_site_fract_y
_atom_site_fract_z
Si Si1 0.995346 0.343313 0.183214
Si Si2 0.672765 0.464682 0.135177
Si Si3 0.834494 0.334294 0.509316
O O1 0.933099 0.433099 0.250000
O O2 0.978624 0.239949 0.254627
O O3 0.926419 0.332270 0.076200
O O4 0.112551 0.359246 0.129082
O O5 0.615971 0.576693 0.128792
O O6 0.753683 0.414492 0.047925
O O7 0.725382 0.274618 0.500000
#
# Coordination Sequence:
#
# PCOD9551327 Si02
#       3
#    16  16  16
#     4   9  19  38  66 101 141 186 240 298 359 428
#     4  10  21  38  65 101 140 185 238 297 358 426
#     4  10  20  36  65 101 140 188 239 297 362 428
#
# _framework density 23.792684999999999
#
# number of rings (size 3 to 8) (size 9 to 14) (size 15 to 20)
#    0.000    2.333    0.000    2.000    0.000    1.333 
#    0.000    1.667    0.000   60.000    0.000    0.000 
#    0.000    0.000    0.000    0.000    0.000    0.000 
#
# Total GULP energy -133638.099031 kJ/mol
# GULP energy per Si atom -5568.254126 kJ/mol
# Density = 2.373853 g / cm^3
# Si number density = 23.792685 Si / 1000 Ang^3
#
#
#
# Elastic Constant Matrix: (Units=GPa)
#
#
# Indices 1 2 3 4 5 6 
#
# 1 173.0442 98.6721 101.0005 0.0000 0.0000 0.0000
# 2 98.6721 173.0422 101.0000 0.0000 0.0000 0.0000
# 3 101.0005 101.0000 199.0342 0.0000 0.0000 0.0000
# 4 0.0000 0.0000 0.0000 41.8532 0.0000 0.0000
# 5 0.0000 0.0000 0.0000 0.0000 41.8512 0.0000
# 6 0.0000 0.0000 0.0000 0.0000 0.0000 25.9972
#
#
#
# Elastic Compliance Matrix: (Units=1/GPa)
#
#
# Indices 1 2 3 4 5 6 
#
# 1 0.009678 -0.003768 -0.002999 0.000000 0.000000 0.000000
# 2 -0.003768 0.009678 -0.002999 0.000000 0.000000 0.000000
# 3 -0.002999 -0.002999 0.008068 0.000000 0.000000 0.000000
# 4 0.000000 0.000000 0.000000 0.023893 0.000000 0.000000
# 5 0.000000 0.000000 0.000000 0.000000 0.023894 0.000000
# 6 0.000000 0.000000 0.000000 0.000000 0.000000 0.038466
#
#
# Mechanical properties :
#
#
# Convention : Reuss Voigt Hill
#
# Bulk Modulus (GPa) = 126.71457 127.38510 127.04983
# Shear Modulus (GPa) = 36.80816 38.23683 37.52249
#
# Velocity S-wave (km/s) = 3.93751 4.01319 3.97553
# Velocity P-wave (km/s) = 8.60496 8.66776 8.63642
#
# Compressibility (1/GPa) = 0.00789175
#
# Stress axis : x y z
#
# Youngs Moduli (GPa) = 103.32821 103.32697 123.94786
#
# Poissons Ratio (x) = 0.38935 0.37171
# Poissons Ratio (y) = 0.38935 0.37172
# Poissons Ratio (z) = 0.30987 0.30987
#
# Static dielectric constant tensor:
#      x y z
#    x 1.994430 0.000000 0.000000 
#    y 0.000000 1.994420 0.000000 
#    z 0.000000 0.000000 1.861080 
# 
# From -- ./inp_files/3161.got.cif
#   From: 2010.05.17/outbox.cif.g08.bks.cpg/sg97_2_cif.got.tgz:3161.got - 2010.06.03 19:55:32.
