data_PCOD9551986
_publ_section_title
;
Structure prediction by ZEFSAII (Michael W. Deem and Ramdas Pophale) SiO2 
 PCOD9551986
Probable space group: I 41 2 2
;
_chemical_formula_sum "Si O2"
_cell_formula_units_Z 40
_cell_length_a 7.637559
_cell_length_b 7.637559
_cell_length_c 28.203414
_cell_angle_alpha 90.000000
_cell_angle_beta 90.000000
_cell_angle_gamma 90.000000
_cell_volume 1645.170217
_symmetry_space_group_name_H-M "I 41 2 2"
_symmetry_group_IT_number 98
_symmetry_cell_setting 'tetragonal'
loop_
_space_group_symop_operation_xyz
x,y,z
-y,1/2+x,1/4+z
-x,-y,z
y,1/2-x,1/4+z
x,1/2-y,1/4-z
-x,1/2+y,1/4-z
y,x,-z
-y,-x,-z
1/2+x,1/2+y,1/2+z
1/2-y,x,3/4+z
1/2-x,1/2-y,1/2+z
1/2+y,-x,3/4+z
1/2+x,-y,3/4-z
1/2-x,y,3/4-z
1/2+y,1/2+x,1/2-z
1/2-y,1/2-x,1/2-z
loop_
_atom_site_type_symbol
_atom_site_label
_atom_site_fract_x
_atom_site_fract_y
_atom_site_fract_z
Si Si1 0.680281 0.056236 0.302148
Si Si2 0.721956 0.778045 0.750000
Si Si3 0.195639 0.563412 0.322932
O O1 0.622863 0.122863 0.250000
O O2 0.774278 0.227992 0.321831
O O3 0.500000 0.000000 0.328614
O O4 0.771006 0.872417 0.290494
O O5 0.542441 0.728844 0.722081
O O6 0.250000 0.500739 0.375000
O O7 0.000000 0.500000 0.317160
#
# Coordination Sequence:
#
# PCOD9551986 Si02
#       3
#    16   8  16
#     4   9  22  43  76 102 141 189 252 313 403 465
#     4  10  24  50  78 104 154 210 254 340 398 478
#     4  12  28  45  74 115 153 198 265 330 399 481
#
# _framework density 24.313593000000001
#
# number of rings (size 3 to 8) (size 9 to 14) (size 15 to 20)
#    0.000    2.000    0.000    3.000   11.200    9.600 
#    0.000    0.000    0.000    0.000    0.000    0.000 
#    0.000    0.000    0.000    0.000    0.000    0.000 
#
# Total GULP energy -111437.259834 kJ/mol
# GULP energy per Si atom -5571.862992 kJ/mol
# Density = 2.425825 g / cm^3
# Si number density = 24.313593 Si / 1000 Ang^3
#
#
#
# Elastic Constant Matrix: (Units=GPa)
#
#
# Indices 1 2 3 4 5 6 
#
# 1 136.3497 73.1040 26.8436 0.0000 0.0000 0.0000
# 2 73.1040 136.3503 26.8445 0.0000 0.0000 0.0000
# 3 26.8436 26.8445 84.8980 0.0000 0.0000 0.0000
# 4 0.0000 0.0000 0.0000 -22.4900 0.0000 0.0000
# 5 0.0000 0.0000 0.0000 0.0000 -22.4894 0.0000
# 6 0.0000 0.0000 0.0000 0.0000 0.0000 47.6965
#
#
#
# Elastic Compliance Matrix: (Units=1/GPa)
#
#
# Indices 1 2 3 4 5 6 
#
# 1 0.010503 -0.005308 -0.001643 0.000000 0.000000 0.000000
# 2 -0.005308 0.010503 -0.001643 0.000000 0.000000 0.000000
# 3 -0.001643 -0.001643 0.012818 0.000000 0.000000 0.000000
# 4 0.000000 0.000000 0.000000 -0.044464 0.000000 0.000000
# 5 0.000000 0.000000 0.000000 0.000000 -0.044465 0.000000
# 6 0.000000 0.000000 0.000000 0.000000 0.000000 0.020966
#
#
# Mechanical properties :
#
#
# Convention : Reuss Voigt Hill
#
# Bulk Modulus (GPa) = 60.10515 67.90912 64.00713
# Shear Modulus (GPa) = -438.34349 15.93048 -211.20651
#
# Velocity S-wave (km/s) = -13.44168 2.56248 -9.33039
# Velocity P-wave (km/s) = 14.70138 6.06187 9.47060
#
# Compressibility (1/GPa) = 0.01663751
#
# Stress axis : x y z
#
# Youngs Moduli (GPa) = 95.20790 95.20789 78.01722
#
# Poissons Ratio (x) = 0.50536 0.12816
# Poissons Ratio (y) = 0.50536 0.12817
# Poissons Ratio (z) = 0.15639 0.15641
#
# Static dielectric constant tensor:
#      x y z
#    x 2.348060 0.000000 0.000000 
#    y 0.000000 2.348030 0.000000 
#    z 0.000000 0.000000 2.000630 
# 
# From -- ./inp_files/10467.got.cif
#   From: 2010.05.17/outbox.cif.g08.bks.cpg/sg98_6_cif.got.tgz:10467.got - 2010.06.03 20:00:51.
