data_PCOD9551817
_publ_section_title
;
Structure prediction by ZEFSAII (Michael W. Deem and Ramdas Pophale) SiO2 
 PCOD9551817
Probable space group: I 41 2 2
;
_chemical_formula_sum "Si O2"
_cell_formula_units_Z 72
_cell_length_a 11.156604
_cell_length_b 11.156604
_cell_length_c 28.200872
_cell_angle_alpha 90.000000
_cell_angle_beta 90.000000
_cell_angle_gamma 90.000000
_cell_volume 3510.157259
_symmetry_space_group_name_H-M "I 41 2 2"
_symmetry_group_IT_number 98
_symmetry_cell_setting 'tetragonal'
loop_
_space_group_symop_operation_xyz
x,y,z
-y,1/2+x,1/4+z
-x,-y,z
y,1/2-x,1/4+z
x,1/2-y,1/4-z
-x,1/2+y,1/4-z
y,x,-z
-y,-x,-z
1/2+x,1/2+y,1/2+z
1/2-y,x,3/4+z
1/2-x,1/2-y,1/2+z
1/2+y,-x,3/4+z
1/2+x,-y,3/4-z
1/2-x,y,3/4-z
1/2+y,1/2+x,1/2-z
1/2-y,1/2-x,1/2-z
loop_
_atom_site_type_symbol
_atom_site_label
_atom_site_fract_x
_atom_site_fract_y
_atom_site_fract_z
Si Si1 0.943254 0.133533 0.881762
Si Si2 0.693526 0.685373 0.574457
Si Si3 0.175027 0.324974 0.750000
Si Si4 0.561076 0.215776 0.716119
Si Si5 0.236372 0.912396 0.220785
O O1 0.829005 0.110737 0.915034
O O2 0.919882 0.216515 0.836300
O O3 0.045545 0.194593 0.914003
O O4 0.000000 0.000000 0.869111
O O5 0.678676 0.750000 0.625000
O O6 0.801206 0.740705 0.545408
O O7 0.579414 0.714486 0.541506
O O8 0.213526 0.457797 0.734384
O O9 0.613469 0.113469 0.750000
O O10 0.609428 0.345361 0.732197
O O11 0.324631 0.824631 0.250000
#
# Coordination Sequence:
#
# PCOD9551817 Si02
#       5
#    16  16   8  16  16
#     4  10  20  40  71 102 132 167 216 289 356 396
#     4  11  21  39  66 100 133 167 220 285 347 403
#     4  12  25  40  63  90 136 184 230 274 329 406
#     4  10  21  38  67 103 134 166 217 285 349 409
#     4  11  24  42  64  89 132 185 225 264 332 401
#
# _framework density 20.511900000000001
#
# number of rings (size 3 to 8) (size 9 to 14) (size 15 to 20)
#    0.000    1.333    2.222    5.000    0.000    3.111 
#    0.000    4.444    0.000    0.000    0.000    0.000 
#    0.000    0.000    0.000    0.000    0.000    0.000 
#
# Total GULP energy -200540.295451 kJ/mol
# GULP energy per Si atom -5570.563763 kJ/mol
# Density = 2.046521 g / cm^3
# Si number density = 20.511900 Si / 1000 Ang^3
#
#
#
# Elastic Constant Matrix: (Units=GPa)
#
#
# Indices 1 2 3 4 5 6 
#
# 1 -310.6559 413.5132 40.6531 0.0000 0.0000 0.0000
# 2 413.5132 -310.6546 40.6541 0.0000 0.0000 0.0000
# 3 40.6531 40.6541 109.6701 0.0000 0.0000 0.0000
# 4 0.0000 0.0000 0.0000 29.1191 0.0000 0.0000
# 5 0.0000 0.0000 0.0000 0.0000 29.1197 0.0000
# 6 0.0000 0.0000 0.0000 0.0000 0.0000 21.6307
#
#
#
# Elastic Compliance Matrix: (Units=1/GPa)
#
#
# Indices 1 2 3 4 5 6 
#
# 1 0.006185 0.007566 -0.005098 0.000000 0.000000 0.000000
# 2 0.007566 0.006185 -0.005098 0.000000 0.000000 0.000000
# 3 -0.005098 -0.005098 0.012898 0.000000 0.000000 0.000000
# 4 0.000000 0.000000 0.000000 0.034342 0.000000 0.000000
# 5 0.000000 0.000000 0.000000 0.000000 0.034341 0.000000
# 6 0.000000 0.000000 0.000000 0.000000 0.000000 0.046231
#
#
# Mechanical properties :
#
#
# Convention : Reuss Voigt Hill
#
# Bulk Modulus (GPa) = 49.97381 53.11113 51.54247
# Shear Modulus (GPa) = 32.87099 -51.12349 -9.12625
#
# Velocity S-wave (km/s) = 4.00751 -4.99779 -2.11161
# Velocity P-wave (km/s) = 6.76976 2.71198 4.38605
#
# Compressibility (1/GPa) = 0.02001048
#
# Stress axis : x y z
#
# Youngs Moduli (GPa) = 161.67091 161.67060 77.53423
#
# Poissons Ratio (x) = -1.22325 0.39524
# Poissons Ratio (y) = -1.22325 0.39524
# Poissons Ratio (z) = 0.82414 0.82413
#
# Static dielectric constant tensor:
#      x y z
#    x 1.773440 0.000000 0.000000 
#    y 0.000000 1.773440 0.000000 
#    z 0.000000 0.000000 1.764590 
# 
# From -- ./inp_files/10815.got.cif
#   From: 2010.05.17/outbox.cif.g08.bks.cpg/sg98_6_cif.got.tgz:10815.got - 2010.06.03 20:00:51.
