data_PCOD9551975
_publ_section_title
;
Structure prediction by ZEFSAII (Michael W. Deem and Ramdas Pophale) SiO2 
 PCOD9551975
Probable space group: I 41 2 2
;
_chemical_formula_sum "Si O2"
_cell_formula_units_Z 72
_cell_length_a 14.828981
_cell_length_b 14.828981
_cell_length_c 14.610209
_cell_angle_alpha 90.000000
_cell_angle_beta 90.000000
_cell_angle_gamma 90.000000
_cell_volume 3212.765637
_symmetry_space_group_name_H-M "I 41 2 2"
_symmetry_group_IT_number 98
_symmetry_cell_setting 'tetragonal'
loop_
_space_group_symop_operation_xyz
x,y,z
-y,1/2+x,1/4+z
-x,-y,z
y,1/2-x,1/4+z
x,1/2-y,1/4-z
-x,1/2+y,1/4-z
y,x,-z
-y,-x,-z
1/2+x,1/2+y,1/2+z
1/2-y,x,3/4+z
1/2-x,1/2-y,1/2+z
1/2+y,-x,3/4+z
1/2+x,-y,3/4-z
1/2-x,y,3/4-z
1/2+y,1/2+x,1/2-z
1/2-y,1/2-x,1/2-z
loop_
_atom_site_type_symbol
_atom_site_label
_atom_site_fract_x
_atom_site_fract_y
_atom_site_fract_z
Si Si1 0.103616 0.603616 0.750000
Si Si2 0.089742 0.750000 0.625000
Si Si3 0.445172 0.316817 0.881507
Si Si4 0.500000 0.500000 0.384964
Si Si5 0.555696 0.661345 0.251870
Si Si6 0.689455 0.551070 0.465855
O O1 0.137549 0.667069 0.668472
O O2 0.123923 0.507805 0.701011
O O3 0.027755 0.791248 0.703604
O O4 0.382701 0.384339 0.826060
O O5 0.486193 0.253168 0.798534
O O6 0.396495 0.241643 0.943364
O O7 0.517551 0.585872 0.320064
O O8 0.597692 0.496944 0.437287
O O9 0.645986 0.645986 0.500000
O O10 0.750000 0.559989 0.375000
#
# Coordination Sequence:
#
# PCOD9551975 Si02
#       6
#     8   8  16   8  16  16
#     4  10  24  45  72  94 146 182 257 302 372 454
#     4  10  24  44  64  98 130 188 238 310 368 446
#     4  11  23  46  68 106 139 198 241 311 377 450
#     4  12  23  42  70 103 140 194 244 301 374 468
#     4  11  24  42  69  99 143 185 247 304 372 453
#     4  12  24  44  73 109 149 190 249 314 376 458
#
# _framework density 22.410596000000002
#
# number of rings (size 3 to 8) (size 9 to 14) (size 15 to 20)
#    0.000    0.889    4.444    1.667    0.000    4.444 
#    6.000    4.444    0.000    0.000    0.000    0.000 
#    0.000    0.000    0.000    0.000    0.000    0.000 
#
# Total GULP energy -200465.936733 kJ/mol
# GULP energy per Si atom -5568.498243 kJ/mol
# Density = 2.235959 g / cm^3
# Si number density = 22.410596 Si / 1000 Ang^3
#
#
#
# Elastic Constant Matrix: (Units=GPa)
#
#
# Indices 1 2 3 4 5 6 
#
# 1 65.1626 54.6748 38.9434 0.0000 0.0000 0.0000
# 2 54.6748 65.1626 38.9434 0.0000 0.0000 0.0000
# 3 38.9434 38.9434 112.5005 0.0000 0.0000 0.0000
# 4 0.0000 0.0000 0.0000 63.7291 0.0000 0.0000
# 5 0.0000 0.0000 0.0000 0.0000 63.7291 0.0000
# 6 0.0000 0.0000 0.0000 0.0000 0.0000 -8.0924
#
#
#
# Elastic Compliance Matrix: (Units=1/GPa)
#
#
# Indices 1 2 3 4 5 6 
#
# 1 0.053058 -0.042291 -0.003727 0.000000 0.000000 0.000000
# 2 -0.042291 0.053058 -0.003727 0.000000 0.000000 0.000000
# 3 -0.003727 -0.003727 0.011469 0.000000 0.000000 0.000000
# 4 0.000000 0.000000 0.000000 0.015691 0.000000 0.000000
# 5 0.000000 0.000000 0.000000 0.000000 0.015691 0.000000
# 6 0.000000 0.000000 0.000000 0.000000 0.000000 -0.123573
#
#
# Mechanical properties :
#
#
# Convention : Reuss Voigt Hill
#
# Bulk Modulus (GPa) = 55.26462 56.43878 55.85170
# Shear Modulus (GPa) = 38.19215 31.22410 34.70812
#
# Velocity S-wave (km/s) = 4.13268 3.73671 3.93967
# Velocity P-wave (km/s) = 6.89098 6.62238 6.75801
#
# Compressibility (1/GPa) = 0.01809476
#
# Stress axis : x y z
#
# Youngs Moduli (GPa) = 18.84732 18.84732 87.18976
#
# Poissons Ratio (x) = 0.79707 0.32497
# Poissons Ratio (y) = 0.79707 0.32497
# Poissons Ratio (z) = 0.07025 0.07025
#
# Static dielectric constant tensor:
#      x y z
#    x 1.900270 0.000000 0.000000 
#    y 0.000000 1.900270 0.000000 
#    z 0.000000 0.000000 1.092050 
# 
# From -- ./inp_files/7542.got.cif
#   From: 2010.05.17/outbox.cif.g08.bks.cpg/sg98_4_cif.got.tgz:7542.got - 2010.06.03 20:00:51.
