data_PCOD9551350
_publ_section_title
;
Structure prediction by ZEFSAII (Michael W. Deem and Ramdas Pophale) SiO2 
 PCOD9551350
Probable space group: I 4 2 2 
;
_chemical_formula_sum "Si O2"
_cell_formula_units_Z 80
_cell_length_a 26.992506
_cell_length_b 26.992506
_cell_length_c 6.065610
_cell_angle_alpha 90.000000
_cell_angle_beta 90.000000
_cell_angle_gamma 90.000000
_cell_volume 4419.375424
_symmetry_space_group_name_H-M "I 4 2 2 "
_symmetry_group_IT_number 97
_symmetry_cell_setting 'tetragonal'
loop_
_space_group_symop_operation_xyz
x,y,z
-y,x,z
-x,-y,z
y,-x,z
x,-y,-z
-x,y,-z
y,x,-z
-y,-x,-z
1/2+x,1/2+y,1/2+z
1/2-y,1/2+x,1/2+z
1/2-x,1/2-y,1/2+z
1/2+y,1/2-x,1/2+z
1/2+x,1/2-y,1/2-z
1/2-x,1/2+y,1/2-z
1/2+y,1/2+x,1/2-z
1/2-y,1/2-x,1/2-z
loop_
_atom_site_type_symbol
_atom_site_label
_atom_site_fract_x
_atom_site_fract_y
_atom_site_fract_z
Si Si1 0.146263 0.278694 0.737800
Si Si2 0.950485 0.858800 0.653690
Si Si3 0.803529 0.803529 0.000000
Si Si4 0.236866 0.948018 0.963419
Si Si5 0.207207 0.880810 0.360946
Si Si6 0.940681 0.940681 0.000000
O O1 0.165614 0.334387 0.750000
O O2 0.183652 0.250060 0.905986
O O3 0.091277 0.267974 0.824291
O O4 0.145371 0.250110 0.504610
O O5 0.958933 0.815657 0.838892
O O6 0.909201 0.832418 0.506898
O O7 0.929478 0.907146 0.784464
O O8 0.000000 0.867762 0.500000
O O9 0.815501 0.839883 0.799429
O O10 0.228032 0.922243 0.196727
O O11 0.262576 0.000000 0.000000
O O12 0.000000 0.932903 0.000000
#
# Coordination Sequence:
#
# PCOD9551350 Si02
#       6
#    16  16   8  16  16   8
#     4  10  23  36  56  85 122 159 186 234 291 360
#     4  11  23  43  66  78 103 140 190 257 308 371
#     4  10  22  35  53  82 108 149 186 232 284 367
#     4  10  20  39  62  90 109 144 202 241 289 350
#     4  10  22  39  60  85 111 144 191 244 294 352
#     4  11  28  49  57  76 100 136 188 246 330 396
#
# _framework density 18.102105000000002
#
# number of rings (size 3 to 8) (size 9 to 14) (size 15 to 20)
#    0.000    1.700    2.000    1.200    2.800   12.000 
#    7.200    1.000    0.000    0.000    0.000    0.000 
#    0.000    0.000    0.000   12.600    0.000    0.000 
#
# Total GULP energy -223215.766039 kJ/mol
# GULP energy per Si atom -5580.394151 kJ/mol
# Density = 1.806090 g / cm^3
# Si number density = 18.102105 Si / 1000 Ang^3
#
#
#
# Elastic Constant Matrix: (Units=GPa)
#
#
# Indices 1 2 3 4 5 6 
#
# 1 74.6834 47.4300 40.0502 0.0000 0.0000 0.0000
# 2 47.4300 74.6731 40.0479 0.0000 0.0000 0.0000
# 3 40.0502 40.0479 112.1284 0.0000 0.0000 0.0000
# 4 0.0000 0.0000 0.0000 19.6563 0.0000 0.0000
# 5 0.0000 0.0000 0.0000 0.0000 19.6566 0.0000
# 6 0.0000 0.0000 0.0000 0.0000 0.0000 26.7730
#
#
#
# Elastic Compliance Matrix: (Units=1/GPa)
#
#
# Indices 1 2 3 4 5 6 
#
# 1 0.023696 -0.013002 -0.003820 0.000000 0.000000 0.000000
# 2 -0.013002 0.023699 -0.003820 0.000000 0.000000 0.000000
# 3 -0.003820 -0.003820 0.011647 0.000000 0.000000 0.000000
# 4 0.000000 0.000000 0.000000 0.050874 0.000000 0.000000
# 5 0.000000 0.000000 0.000000 0.000000 0.050873 0.000000
# 6 0.000000 0.000000 0.000000 0.000000 0.000000 0.037351
#
#
# Mechanical properties :
#
#
# Convention : Reuss Voigt Hill
#
# Bulk Modulus (GPa) = 56.31419 57.39345 56.85382
# Shear Modulus (GPa) = 20.37950 22.14763 21.26356
#
# Velocity S-wave (km/s) = 3.35895 3.50163 3.43103
# Velocity P-wave (km/s) = 6.79854 6.93706 6.86815
#
# Compressibility (1/GPa) = 0.01775751
#
# Stress axis : x y z
#
# Youngs Moduli (GPa) = 42.20166 42.19558 85.85781
#
# Poissons Ratio (x) = 0.54864 0.32796
# Poissons Ratio (y) = 0.54872 0.32800
# Poissons Ratio (z) = 0.16120 0.16120
#
# Static dielectric constant tensor:
#      x y z
#    x 1.660760 0.000000 0.000000 
#    y 0.000000 1.660760 0.000000 
#    z 0.000000 0.000000 1.769520 
# 
# From -- ./inp_files/1008.got.cif
#   From: 2010.05.17/outbox.cif.g08.bks.cpg/sg97_1_cif.got.tgz:1008.got - 2010.06.03 19:55:32.
