data_PCOD9551824
_publ_section_title
;
Structure prediction by ZEFSAII (Michael W. Deem and Ramdas Pophale) SiO2 
 PCOD9551824
Probable space group: I 41 2 2
;
_chemical_formula_sum "Si O2"
_cell_formula_units_Z 64
_cell_length_a 16.788974
_cell_length_b 16.788974
_cell_length_c 13.412073
_cell_angle_alpha 90.000000
_cell_angle_beta 90.000000
_cell_angle_gamma 90.000000
_cell_volume 3780.456295
_symmetry_space_group_name_H-M "I 41 2 2"
_symmetry_group_IT_number 98
_symmetry_cell_setting 'tetragonal'
loop_
_space_group_symop_operation_xyz
x,y,z
-y,1/2+x,1/4+z
-x,-y,z
y,1/2-x,1/4+z
x,1/2-y,1/4-z
-x,1/2+y,1/4-z
y,x,-z
-y,-x,-z
1/2+x,1/2+y,1/2+z
1/2-y,x,3/4+z
1/2-x,1/2-y,1/2+z
1/2+y,-x,3/4+z
1/2+x,-y,3/4-z
1/2-x,y,3/4-z
1/2+y,1/2+x,1/2-z
1/2-y,1/2-x,1/2-z
loop_
_atom_site_type_symbol
_atom_site_label
_atom_site_fract_x
_atom_site_fract_y
_atom_site_fract_z
Si Si1 0.674961 0.064162 0.319744
Si Si2 0.660756 0.653758 0.611270
Si Si3 0.576978 0.818130 0.321626
Si Si4 0.547111 0.925664 0.028307
O O1 0.750000 0.104287 0.375000
O O2 0.621408 0.121408 0.250000
O O3 0.710263 0.995556 0.246781
O O4 0.624462 0.015353 0.403467
O O5 0.654396 0.750000 0.625000
O O6 0.632918 0.632918 0.500000
O O7 0.751936 0.625012 0.619021
O O8 0.619086 0.599691 0.695513
O O9 0.640666 0.859335 0.250000
O O10 0.544375 0.887017 0.392838
O O11 0.500000 0.000000 0.983747
#
# Coordination Sequence:
#
# PCOD9551824 Si02
#       4
#    16  16  16  16
#     4  11  21  37  63  90 118 155 200 257 312 355
#     4  12  23  36  56  85 124 166 196 241 309 372
#     4  10  21  33  55  89 123 152 190 243 303 367
#     4  11  22  37  57  86 121 153 200 248 297 371
#
# _framework density 16.929172999999999
#
# number of rings (size 3 to 8) (size 9 to 14) (size 15 to 20)
#    0.000    1.000    7.500    0.750    0.000    0.500 
#    0.000    0.000    0.000    4.500    0.000    0.000 
#    0.000    0.000    0.000    0.000    0.000    0.000 
#
# Total GULP energy -178241.591142 kJ/mol
# GULP energy per Si atom -5570.049723 kJ/mol
# Density = 1.689064 g / cm^3
# Si number density = 16.929173 Si / 1000 Ang^3
#
#
#
# Elastic Constant Matrix: (Units=GPa)
#
#
# Indices 1 2 3 4 5 6 
#
# 1 70.9298 60.6254 41.4320 0.0000 0.0000 0.0000
# 2 60.6254 70.9311 41.4314 0.0000 0.0000 0.0000
# 3 41.4320 41.4314 94.8361 0.0000 0.0000 0.0000
# 4 0.0000 0.0000 0.0000 33.3567 0.0000 0.0000
# 5 0.0000 0.0000 0.0000 0.0000 33.3577 0.0000
# 6 0.0000 0.0000 0.0000 0.0000 0.0000 27.3866
#
#
#
# Elastic Compliance Matrix: (Units=1/GPa)
#
#
# Indices 1 2 3 4 5 6 
#
# 1 0.053764 -0.043276 -0.004582 0.000000 0.000000 0.000000
# 2 -0.043276 0.053763 -0.004581 0.000000 0.000000 0.000000
# 3 -0.004582 -0.004581 0.014548 0.000000 0.000000 0.000000
# 4 0.000000 0.000000 0.000000 0.029979 0.000000 0.000000
# 5 0.000000 0.000000 0.000000 0.000000 0.029978 0.000000
# 6 0.000000 0.000000 0.000000 0.000000 0.000000 0.036514
#
#
# Mechanical properties :
#
#
# Convention : Reuss Voigt Hill
#
# Bulk Modulus (GPa) = 58.15434 58.18607 58.17021
# Shear Modulus (GPa) = 15.19031 25.03406 20.11219
#
# Velocity S-wave (km/s) = 2.99872 3.84963 3.45050
# Velocity P-wave (km/s) = 6.81292 7.36236 7.09297
#
# Compressibility (1/GPa) = 0.01719562
#
# Stress axis : x y z
#
# Youngs Moduli (GPa) = 18.59965 18.60028 68.73943
#
# Poissons Ratio (x) = 0.80495 0.31499
# Poissons Ratio (y) = 0.80493 0.31489
# Poissons Ratio (z) = 0.08523 0.08521
#
# Static dielectric constant tensor:
#      x y z
#    x 1.585480 0.000000 0.000000 
#    y 0.000000 1.585480 0.000000 
#    z 0.000000 0.000000 1.603930 
# 
# From -- ./inp_files/4826.got.cif
#   From: 2010.05.17/outbox.cif.g08.bks.cpg/sg98_3_cif.got.tgz:4826.got - 2010.06.03 20:00:51.
