data_PCOD9551584
_publ_section_title
;
Structure prediction by ZEFSAII (Michael W. Deem and Ramdas Pophale) SiO2 
 PCOD9551584
Probable space group: I 4 2 2 
;
_chemical_formula_sum "Si O2"
_cell_formula_units_Z 80
_cell_length_a 11.303843
_cell_length_b 11.303843
_cell_length_c 29.814355
_cell_angle_alpha 90.000000
_cell_angle_beta 90.000000
_cell_angle_gamma 90.000000
_cell_volume 3809.584861
_symmetry_space_group_name_H-M "I 4 2 2 "
_symmetry_group_IT_number 97
_symmetry_cell_setting 'tetragonal'
loop_
_space_group_symop_operation_xyz
x,y,z
-y,x,z
-x,-y,z
y,-x,z
x,-y,-z
-x,y,-z
y,x,-z
-y,-x,-z
1/2+x,1/2+y,1/2+z
1/2-y,1/2+x,1/2+z
1/2-x,1/2-y,1/2+z
1/2+y,1/2-x,1/2+z
1/2+x,1/2-y,1/2-z
1/2-x,1/2+y,1/2-z
1/2+y,1/2+x,1/2-z
1/2-y,1/2-x,1/2-z
loop_
_atom_site_type_symbol
_atom_site_label
_atom_site_fract_x
_atom_site_fract_y
_atom_site_fract_z
Si Si1 0.173439 0.074108 0.659685
Si Si2 0.573274 0.885300 0.697355
Si Si3 0.177575 0.074417 0.551701
Si Si4 0.367254 0.948317 0.046826
Si Si5 0.005062 0.801522 0.868710
O O1 0.298001 0.119301 0.675611
O O2 0.173651 0.073945 0.605960
O O3 0.060795 0.150349 0.674904
O O4 0.596675 0.903326 0.750000
O O5 0.506829 0.771039 0.677956
O O6 0.500000 0.000000 0.681737
O O7 0.307100 0.121464 0.540912
O O8 0.062948 0.152959 0.538723
O O9 0.500000 0.000000 0.052918
O O10 0.289015 0.984111 0.089612
O O11 0.319400 0.000000 0.000000
O O12 0.117481 0.889010 0.871352
#
# Coordination Sequence:
#
# PCOD9551584 Si02
#       5
#    16  16  16  16  16
#     4   9  19  36  64  98 126 165 214 268 337 402
#     4  11  25  41  66  99 132 174 223 278 347 417
#     4   9  19  38  69 102 132 168 217 285 356 404
#     4  11  25  43  68 103 136 187 246 290 348 413
#     4  11  27  48  71  97 138 192 231 283 352 421
#
# _framework density 20.999665
#
# number of rings (size 3 to 8) (size 9 to 14) (size 15 to 20)
#    0.000    1.800    2.000    1.800    5.600    2.400 
#    3.600    3.000    0.000    4.800    0.000    0.000 
#    0.000    0.000    0.000    0.000    0.000    0.000 
#
# Total GULP energy -223639.467109 kJ/mol
# GULP energy per Si atom -5590.986678 kJ/mol
# Density = 2.095187 g / cm^3
# Si number density = 20.999665 Si / 1000 Ang^3
#
#
#
# Elastic Constant Matrix: (Units=GPa)
#
#
# Indices 1 2 3 4 5 6 
#
# 1 74.2314 18.2237 25.1510 0.0000 0.0000 0.0000
# 2 18.2237 74.2314 25.1510 0.0000 0.0000 0.0000
# 3 25.1510 25.1510 86.7797 0.0000 0.0000 0.0000
# 4 0.0000 0.0000 0.0000 14.7111 0.0000 0.0000
# 5 0.0000 0.0000 0.0000 0.0000 14.7119 0.0000
# 6 0.0000 0.0000 0.0000 0.0000 0.0000 18.3331
#
#
#
# Elastic Compliance Matrix: (Units=1/GPa)
#
#
# Indices 1 2 3 4 5 6 
#
# 1 0.015348 -0.002507 -0.003722 0.000000 0.000000 0.000000
# 2 -0.002507 0.015348 -0.003722 0.000000 0.000000 0.000000
# 3 -0.003722 -0.003722 0.013681 0.000000 0.000000 0.000000
# 4 0.000000 0.000000 0.000000 0.067976 0.000000 0.000000
# 5 0.000000 0.000000 0.000000 0.000000 0.067972 0.000000
# 6 0.000000 0.000000 0.000000 0.000000 0.000000 0.054546
#
#
# Mechanical properties :
#
#
# Convention : Reuss Voigt Hill
#
# Bulk Modulus (GPa) = 40.85643 41.36600 41.11121
# Shear Modulus (GPa) = 19.01651 20.66568 19.84110
#
# Velocity S-wave (km/s) = 3.01252 3.14043 3.07714
# Velocity P-wave (km/s) = 5.62124 5.73506 5.67844
#
# Compressibility (1/GPa) = 0.02447595
#
# Stress axis : x y z
#
# Youngs Moduli (GPa) = 65.15603 65.15603 73.09591
#
# Poissons Ratio (x) = 0.16334 0.27203
# Poissons Ratio (y) = 0.16334 0.27203
# Poissons Ratio (z) = 0.24248 0.24249
#
# Static dielectric constant tensor:
#      x y z
#    x 1.755770 0.000000 0.000000 
#    y 0.000000 1.755770 0.000000 
#    z 0.000000 0.000000 1.824340 
# 
# From -- ./inp_files/7926.got.cif
#   From: 2010.05.17/outbox.cif.g08.bks.cpg/sg97_4_cif.got.tgz:7926.got - 2010.06.03 19:55:32.
