data_PCOD9551843
_publ_section_title
;
Structure prediction by ZEFSAII (Michael W. Deem and Ramdas Pophale) SiO2 
 PCOD9551843
Probable space group: I 41 2 2
;
_chemical_formula_sum "Si O2"
_cell_formula_units_Z 96
_cell_length_a 14.414780
_cell_length_b 14.414780
_cell_length_c 19.735040
_cell_angle_alpha 90.000000
_cell_angle_beta 90.000000
_cell_angle_gamma 90.000000
_cell_volume 4100.662702
_symmetry_space_group_name_H-M "I 41 2 2"
_symmetry_group_IT_number 98
_symmetry_cell_setting 'tetragonal'
loop_
_space_group_symop_operation_xyz
x,y,z
-y,1/2+x,1/4+z
-x,-y,z
y,1/2-x,1/4+z
x,1/2-y,1/4-z
-x,1/2+y,1/4-z
y,x,-z
-y,-x,-z
1/2+x,1/2+y,1/2+z
1/2-y,x,3/4+z
1/2-x,1/2-y,1/2+z
1/2+y,-x,3/4+z
1/2+x,-y,3/4-z
1/2-x,y,3/4-z
1/2+y,1/2+x,1/2-z
1/2-y,1/2-x,1/2-z
loop_
_atom_site_type_symbol
_atom_site_label
_atom_site_fract_x
_atom_site_fract_y
_atom_site_fract_z
Si Si1 0.667990 0.787186 0.824324
Si Si2 0.505976 0.331720 0.573412
Si Si3 0.500000 0.500000 0.648216
Si Si4 0.206094 0.507452 0.654447
Si Si5 0.500000 0.000000 0.126498
Si Si6 0.362451 0.516651 0.756158
Si Si7 0.624788 0.234098 0.469541
O O1 0.750000 0.763737 0.875000
O O2 0.716032 0.783969 0.750000
O O3 0.647303 0.897422 0.825861
O O4 0.578225 0.733359 0.853686
O O5 0.527031 0.250000 0.625000
O O6 0.549174 0.425312 0.601535
O O7 0.543788 0.294943 0.503731
O O8 0.424615 0.461970 0.700801
O O9 0.096162 0.508127 0.665204
O O10 0.260678 0.501474 0.725552
O O11 0.230651 0.600757 0.610445
O O12 0.489850 0.091559 0.077604
O O13 0.379406 0.627903 0.754933
O O14 0.716584 0.283417 0.500000
#
# Coordination Sequence:
#
# PCOD9551843 Si02
#       7
#    16  16   8  16   8  16  16
#     4  11  24  37  60  94 133 172 217 270 334 415
#     4  11  21  33  51  86 126 162 202 254 322 403
#     4  11  18  30  54  80 116 170 193 241 321 396
#     4  11  22  41  62  91 128 173 224 274 340 405
#     4   9  24  40  69  98 130 172 229 281 350 410
#     4  10  21  38  60  87 125 172 211 269 335 397
#     4  11  23  35  55  88 125 165 219 264 324 407
#
# _framework density 23.410848999999999
#
# number of rings (size 3 to 8) (size 9 to 14) (size 15 to 20)
#    0.000    1.333    5.000    1.000    2.333    0.000 
#    0.000    0.000    7.333    0.000    0.000    0.000 
#    0.000    0.000    0.000    0.000    0.000    0.000 
#
# Total GULP energy -267719.097213 kJ/mol
# GULP energy per Si atom -5577.481192 kJ/mol
# Density = 2.335757 g / cm^3
# Si number density = 23.410849 Si / 1000 Ang^3
#
#
#
# Elastic Constant Matrix: (Units=GPa)
#
#
# Indices 1 2 3 4 5 6 
#
# 1 211.0645 -108.1532 9.6991 0.0000 0.0000 0.0000
# 2 -108.1532 211.0669 9.7000 0.0000 0.0000 0.0000
# 3 9.6991 9.7000 41.3716 0.0000 0.0000 0.0000
# 4 0.0000 0.0000 0.0000 14.2325 0.0000 0.0000
# 5 0.0000 0.0000 0.0000 0.0000 14.2320 0.0000
# 6 0.0000 0.0000 0.0000 0.0000 0.0000 12.7353
#
#
#
# Elastic Compliance Matrix: (Units=1/GPa)
#
#
# Indices 1 2 3 4 5 6 
#
# 1 0.006649 0.003517 -0.002383 0.000000 0.000000 0.000000
# 2 0.003517 0.006649 -0.002383 0.000000 0.000000 0.000000
# 3 -0.002383 -0.002383 0.025289 0.000000 0.000000 0.000000
# 4 0.000000 0.000000 0.000000 0.070262 0.000000 0.000000
# 5 0.000000 0.000000 0.000000 0.000000 0.070264 0.000000
# 6 0.000000 0.000000 0.000000 0.000000 0.000000 0.078522
#
#
# Mechanical properties :
#
#
# Convention : Reuss Voigt Hill
#
# Bulk Modulus (GPa) = 27.71045 31.77717 29.74381
# Shear Modulus (GPa) = 18.37120 45.05710 31.71415
#
# Velocity S-wave (km/s) = 2.80434 4.39181 3.68459
# Velocity P-wave (km/s) = 4.72737 6.27061 5.55286
#
# Compressibility (1/GPa) = 0.03608747
#
# Stress axis : x y z
#
# Youngs Moduli (GPa) = 150.38733 150.38881 39.54320
#
# Poissons Ratio (x) = -0.52889 0.09425
# Poissons Ratio (y) = -0.52888 0.09425
# Poissons Ratio (z) = 0.35844 0.35845
#
# Static dielectric constant tensor:
#      x y z
#    x 1.889050 0.000000 0.000000 
#    y 0.000000 1.889050 0.000000 
#    z 0.000000 0.000000 1.926040 
# 
# From -- ./inp_files/8973.got.cif
#   From: 2010.05.17/outbox.cif.g08.bks.cpg/sg98_5_cif.got.tgz:8973.got - 2010.06.03 20:00:51.
