data_PCOD9551861
_publ_section_title
;
Structure prediction by ZEFSAII (Michael W. Deem and Ramdas Pophale) SiO2 
 PCOD9551861
Probable space group: I 41 2 2
;
_chemical_formula_sum "Si O2"
_cell_formula_units_Z 80
_cell_length_a 17.158113
_cell_length_b 17.158113
_cell_length_c 14.003254
_cell_angle_alpha 90.000000
_cell_angle_beta 90.000000
_cell_angle_gamma 90.000000
_cell_volume 4122.569764
_symmetry_space_group_name_H-M "I 41 2 2"
_symmetry_group_IT_number 98
_symmetry_cell_setting 'tetragonal'
loop_
_space_group_symop_operation_xyz
x,y,z
-y,1/2+x,1/4+z
-x,-y,z
y,1/2-x,1/4+z
x,1/2-y,1/4-z
-x,1/2+y,1/4-z
y,x,-z
-y,-x,-z
1/2+x,1/2+y,1/2+z
1/2-y,x,3/4+z
1/2-x,1/2-y,1/2+z
1/2+y,-x,3/4+z
1/2+x,-y,3/4-z
1/2-x,y,3/4-z
1/2+y,1/2+x,1/2-z
1/2-y,1/2-x,1/2-z
loop_
_atom_site_type_symbol
_atom_site_label
_atom_site_fract_x
_atom_site_fract_y
_atom_site_fract_z
Si Si1 0.026537 0.712803 0.019747
Si Si2 0.015729 0.782418 0.829318
Si Si3 0.826217 0.203380 0.722305
Si Si4 0.320695 0.419152 0.947237
Si Si5 0.070166 0.060169 0.274610
O O1 0.034420 0.750000 0.125000
O O2 0.110244 0.683265 0.978101
O O3 0.002886 0.776872 0.941596
O O4 0.964251 0.642548 0.011575
O O5 0.980804 0.706650 0.775867
O O6 0.972702 0.858019 0.787412
O O7 0.106027 0.782588 0.799365
O O8 0.850496 0.250000 0.625000
O O9 0.745562 0.245562 0.750000
O O10 0.250000 0.411912 0.875000
O O11 0.395629 0.437821 0.882479
O O12 0.339164 0.339164 0.000000
O O13 0.000000 0.000000 0.269588
#
# Coordination Sequence:
#
# PCOD9551861 Si02
#       5
#    16  16  16  16  16
#     4  12  27  44  66  99 138 183 234 277 332 415
#     4  11  24  43  68  99 139 172 223 281 345 408
#     4  12  23  40  66  98 135 176 214 274 347 402
#     4  10  21  40  66  96 130 165 217 287 339 397
#     4  11  23  44  69 100 134 180 228 278 343 407
#
# _framework density 19.405370999999999
#
# number of rings (size 3 to 8) (size 9 to 14) (size 15 to 20)
#    0.000    0.800    6.000    2.400    0.000    1.200 
#    0.000    5.000    0.000    0.000    0.000    0.000 
#    0.000    0.000    0.000    0.000    0.000    0.000 
#
# Total GULP energy -223099.349808 kJ/mol
# GULP energy per Si atom -5577.483745 kJ/mol
# Density = 1.936120 g / cm^3
# Si number density = 19.405371 Si / 1000 Ang^3
#
#
#
# Elastic Constant Matrix: (Units=GPa)
#
#
# Indices 1 2 3 4 5 6 
#
# 1 153.2432 -36.5294 32.1338 0.0000 0.0000 0.0000
# 2 -36.5294 153.2432 32.1338 0.0000 0.0000 0.0000
# 3 32.1338 32.1338 141.7174 0.0000 0.0000 0.0000
# 4 0.0000 0.0000 0.0000 20.8460 0.0000 0.0000
# 5 0.0000 0.0000 0.0000 0.0000 20.8460 0.0000
# 6 0.0000 0.0000 0.0000 0.0000 0.0000 39.6854
#
#
#
# Elastic Compliance Matrix: (Units=1/GPa)
#
#
# Indices 1 2 3 4 5 6 
#
# 1 0.007530 0.002260 -0.002220 0.000000 0.000000 0.000000
# 2 0.002260 0.007530 -0.002220 0.000000 0.000000 0.000000
# 3 -0.002220 -0.002220 0.008063 0.000000 0.000000 0.000000
# 4 0.000000 0.000000 0.000000 0.047971 0.000000 0.000000
# 5 0.000000 0.000000 0.000000 0.000000 0.047971 0.000000
# 6 0.000000 0.000000 0.000000 0.000000 0.000000 0.025198
#
#
# Mechanical properties :
#
#
# Convention : Reuss Voigt Hill
#
# Bulk Modulus (GPa) = 53.29344 55.96446 54.62895
# Shear Modulus (GPa) = 32.28385 44.30651 38.29518
#
# Velocity S-wave (km/s) = 4.08322 4.78348 4.44715
# Velocity P-wave (km/s) = 7.05359 7.70786 7.38797
#
# Compressibility (1/GPa) = 0.01876403
#
# Stress axis : x y z
#
# Youngs Moduli (GPa) = 132.80377 132.80377 124.02323
#
# Poissons Ratio (x) = -0.30019 0.27532
# Poissons Ratio (y) = -0.30019 0.27532
# Poissons Ratio (z) = 0.29481 0.29481
#
# Static dielectric constant tensor:
#      x y z
#    x 1.685990 0.000000 0.000000 
#    y 0.000000 1.685990 0.000000 
#    z 0.000000 0.000000 1.728760 
# 
# From -- ./inp_files/6435.got.cif
#   From: 2010.05.17/outbox.cif.g08.bks.cpg/sg98_4_cif.got.tgz:6435.got - 2010.06.03 20:00:51.
