data_PCOD9551036
_publ_section_title
;
Structure prediction by ZEFSAII (Michael W. Deem and Ramdas Pophale) SiO2 
 PCOD9551036
Probable space group: P 43 21 2
;
_chemical_formula_sum "Si O2"
_cell_formula_units_Z 48
_cell_length_a 8.961183
_cell_length_b 8.961183
_cell_length_c 26.177549
_cell_angle_alpha 90.000000
_cell_angle_beta 90.000000
_cell_angle_gamma 90.000000
_cell_volume 2102.130502
_symmetry_space_group_name_H-M "P 43 21 2"
_symmetry_group_IT_number 96
_symmetry_cell_setting 'tetragonal'
loop_
_space_group_symop_operation_xyz
x,y,z
1/2-y,1/2+x,3/4+z
-x,-y,1/2+z
1/2+y,1/2-x,1/4+z
1/2+x,1/2-y,1/4-z
1/2-x,1/2+y,3/4-z
y,x,-z
-y,-x,1/2-z
loop_
_atom_site_type_symbol
_atom_site_label
_atom_site_fract_x
_atom_site_fract_y
_atom_site_fract_z
Si Si1 0.419530 0.531452 0.390821
Si Si2 0.572301 0.046233 0.474656
Si Si3 0.455557 0.155088 0.064785
Si Si4 0.614513 0.286352 0.155633
Si Si5 0.336983 0.851360 0.413668
Si Si6 0.357428 0.629976 0.497172
O O1 0.563762 0.461991 0.364784
O O2 0.407341 0.710547 0.383087
O O3 0.280713 0.442168 0.368631
O O4 0.416217 0.520411 0.452738
O O5 0.543394 0.998089 0.533215
O O6 0.724750 0.967676 0.455974
O O7 0.448995 0.968289 0.439314
O O8 0.572072 0.223494 0.468118
O O9 0.571969 0.169523 0.110826
O O10 0.289790 0.192603 0.084651
O O11 0.511901 0.278847 0.024428
O O12 0.273530 0.758782 0.462443
#
# Coordination Sequence:
#
# PCOD9551036 Si02
#       6
#     8   8   8   8   8   8
#     4  10  23  45  67 106 145 201 252 318 388 460
#     4  11  23  44  71 107 146 203 249 320 376 459
#     4  11  25  44  69 114 149 194 258 310 385 465
#     4  12  25  40  75 104 149 199 255 310 387 462
#     4   9  22  42  68 101 146 194 252 310 385 460
#     4   9  23  44  69 102 154 190 256 319 384 460
#
# _framework density 22.833977999999998
#
# number of rings (size 3 to 8) (size 9 to 14) (size 15 to 20)
#    1.000    0.667    0.000    3.500    4.667    1.333 
#    3.000    0.000    0.000    0.000    0.000    0.000 
#    0.000    0.000    0.000    0.000    0.000    0.000 
#
# Total GULP energy -268162.228663 kJ/mol
# GULP energy per Si atom -5586.713097 kJ/mol
# Density = 2.278201 g / cm^3
# Si number density = 22.833978 Si / 1000 Ang^3
#
#
#
# Elastic Constant Matrix: (Units=GPa)
#
#
# Indices 1 2 3 4 5 6 
#
# 1 128.0361 52.3650 27.7282 0.0000 0.0000 0.0000
# 2 52.3650 128.0361 27.7282 0.0000 0.0000 0.0000
# 3 27.7282 27.7282 60.1678 0.0000 0.0000 0.0000
# 4 0.0000 0.0000 0.0000 39.1192 0.0000 0.0000
# 5 0.0000 0.0000 0.0000 0.0000 39.1192 0.0000
# 6 0.0000 0.0000 0.0000 0.0000 0.0000 37.5531
#
#
#
# Elastic Compliance Matrix: (Units=1/GPa)
#
#
# Indices 1 2 3 4 5 6 
#
# 1 0.009837 -0.003378 -0.002976 0.000000 0.000000 0.000000
# 2 -0.003378 0.009837 -0.002976 0.000000 0.000000 0.000000
# 3 -0.002976 -0.002976 0.019363 0.000000 0.000000 0.000000
# 4 0.000000 0.000000 0.000000 0.025563 0.000000 0.000000
# 5 0.000000 0.000000 0.000000 0.000000 0.025563 0.000000
# 6 0.000000 0.000000 0.000000 0.000000 0.000000 0.026629
#
#
# Mechanical properties :
#
#
# Convention : Reuss Voigt Hill
#
# Bulk Modulus (GPa) = 49.08038 59.09807 54.08922
# Shear Modulus (GPa) = 35.15071 37.05287 36.10179
#
# Velocity S-wave (km/s) = 3.92778 4.03265 3.98056
# Velocity P-wave (km/s) = 6.48930 6.90079 6.69821
#
# Compressibility (1/GPa) = 0.02037474
#
# Stress axis : x y z
#
# Youngs Moduli (GPa) = 101.66118 101.66118 51.64403
#
# Poissons Ratio (x) = 0.34346 0.15370
# Poissons Ratio (y) = 0.34346 0.15370
# Poissons Ratio (z) = 0.30256 0.30256
#
# Static dielectric constant tensor:
#      x y z
#    x 1.871760 0.000000 0.000000 
#    y 0.000000 1.871760 0.000000 
#    z 0.000000 0.000000 1.925800 
# 
# From -- ./inp_files/4499.got.cif
#   From: 2010.05.17/outbox.cif.g08.bks.cpg/sg96_3_cif.got.tgz:4499.got - 2010.06.03 19:52:08.
