data_PCOD9551983
_publ_section_title
;
Structure prediction by ZEFSAII (Michael W. Deem and Ramdas Pophale) SiO2 
 PCOD9551983
Probable space group: I 41 2 2
;
_chemical_formula_sum "Si O2"
_cell_formula_units_Z 52
_cell_length_a 16.997186
_cell_length_b 16.997186
_cell_length_c 8.445103
_cell_angle_alpha 90.000000
_cell_angle_beta 90.000000
_cell_angle_gamma 90.000000
_cell_volume 2439.826840
_symmetry_space_group_name_H-M "I 41 2 2"
_symmetry_group_IT_number 98
_symmetry_cell_setting 'tetragonal'
loop_
_space_group_symop_operation_xyz
x,y,z
-y,1/2+x,1/4+z
-x,-y,z
y,1/2-x,1/4+z
x,1/2-y,1/4-z
-x,1/2+y,1/4-z
y,x,-z
-y,-x,-z
1/2+x,1/2+y,1/2+z
1/2-y,x,3/4+z
1/2-x,1/2-y,1/2+z
1/2+y,-x,3/4+z
1/2+x,-y,3/4-z
1/2-x,y,3/4-z
1/2+y,1/2+x,1/2-z
1/2-y,1/2-x,1/2-z
loop_
_atom_site_type_symbol
_atom_site_label
_atom_site_fract_x
_atom_site_fract_y
_atom_site_fract_z
Si Si1 0.653541 0.750000 0.625000
Si Si2 0.460300 0.615669 0.263300
Si Si3 0.495147 0.334842 0.600820
Si Si4 0.750000 0.349679 0.875000
Si Si5 0.500000 0.500000 0.000000
O O1 0.708826 0.791175 0.750000
O O2 0.589640 0.683702 0.677615
O O3 0.510726 0.643689 0.414802
O O4 0.403410 0.545363 0.322961
O O5 0.405651 0.687682 0.212253
O O6 0.500604 0.577297 0.110774
O O7 0.537740 0.250000 0.625000
O O8 0.796128 0.296128 0.750000
#
# Coordination Sequence:
#
# PCOD9551983 Si02
#       5
#     8  16  16   8   4
#     4  10  24  47  71 106 138 190 250 310 382 441
#     4  11  24  44  68 106 151 188 249 305 379 451
#     4   9  23  43  74  99 138 196 244 304 368 454
#     4  12  26  41  67 106 144 190 238 310 376 451
#     4  12  28  42  68 112 152 198 236 310 372 452
#
# _framework density 21.312988000000001
#
# number of rings (size 3 to 8) (size 9 to 14) (size 15 to 20)
#    0.923    0.615    1.538    1.846   10.769    1.231 
#    2.769    1.538    0.000    0.000    0.000    0.000 
#    0.000    0.000    0.000    0.000    0.000    0.000 
#
# Total GULP energy -145115.319348 kJ/mol
# GULP energy per Si atom -5581.358436 kJ/mol
# Density = 2.126448 g / cm^3
# Si number density = 21.312988 Si / 1000 Ang^3
#
#
#
# Elastic Constant Matrix: (Units=GPa)
#
#
# Indices 1 2 3 4 5 6 
#
# 1 88.2467 59.4954 47.1013 0.0000 0.0000 0.0000
# 2 59.4954 88.2466 47.0968 0.0000 0.0000 0.0000
# 3 47.1013 47.0968 98.4319 0.0000 0.0000 0.0000
# 4 0.0000 0.0000 0.0000 29.7171 0.0000 0.0000
# 5 0.0000 0.0000 0.0000 0.0000 29.7173 0.0000
# 6 0.0000 0.0000 0.0000 0.0000 0.0000 47.2320
#
#
#
# Elastic Compliance Matrix: (Units=1/GPa)
#
#
# Indices 1 2 3 4 5 6 
#
# 1 0.022261 -0.012520 -0.004662 0.000000 0.000000 0.000000
# 2 -0.012520 0.022260 -0.004659 0.000000 0.000000 0.000000
# 3 -0.004662 -0.004659 0.014619 0.000000 0.000000 0.000000
# 4 0.000000 0.000000 0.000000 0.033651 0.000000 0.000000
# 5 0.000000 0.000000 0.000000 0.000000 0.033650 0.000000
# 6 0.000000 0.000000 0.000000 0.000000 0.000000 0.021172
#
#
# Mechanical properties :
#
#
# Convention : Reuss Voigt Hill
#
# Bulk Modulus (GPa) = 64.69441 64.70136 64.69788
# Shear Modulus (GPa) = 25.45184 29.41537 27.43360
#
# Velocity S-wave (km/s) = 3.45946 3.71908 3.59162
# Velocity P-wave (km/s) = 6.81010 6.99040 6.90084
#
# Compressibility (1/GPa) = 0.01545729
#
# Stress axis : x y z
#
# Youngs Moduli (GPa) = 44.92106 44.92396 68.40216
#
# Poissons Ratio (x) = 0.56247 0.31887
# Poissons Ratio (y) = 0.56243 0.31872
# Poissons Ratio (z) = 0.20941 0.20932
#
# Static dielectric constant tensor:
#      x y z
#    x 1.800500 0.000000 0.000000 
#    y 0.000000 1.800500 0.000000 
#    z 0.000000 0.000000 1.780830 
# 
# From -- ./inp_files/2952.got.cif
#   From: 2010.05.17/outbox.cif.g08.bks.cpg/sg98_2_cif.got.tgz:2952.got - 2010.06.03 20:00:51.
