data_PCOD9551606
_publ_section_title
;
Structure prediction by ZEFSAII (Michael W. Deem and Ramdas Pophale) SiO2 
 PCOD9551606
Probable space group: I 4 2 2 
;
_chemical_formula_sum "Si O2"
_cell_formula_units_Z 56
_cell_length_a 11.959502
_cell_length_b 11.959502
_cell_length_c 14.402382
_cell_angle_alpha 90.000000
_cell_angle_beta 90.000000
_cell_angle_gamma 90.000000
_cell_volume 2059.968205
_symmetry_space_group_name_H-M "I 4 2 2 "
_symmetry_group_IT_number 97
_symmetry_cell_setting 'tetragonal'
loop_
_space_group_symop_operation_xyz
x,y,z
-y,x,z
-x,-y,z
y,-x,z
x,-y,-z
-x,y,-z
y,x,-z
-y,-x,-z
1/2+x,1/2+y,1/2+z
1/2-y,1/2+x,1/2+z
1/2-x,1/2-y,1/2+z
1/2+y,1/2-x,1/2+z
1/2+x,1/2-y,1/2-z
1/2-x,1/2+y,1/2-z
1/2+y,1/2+x,1/2-z
1/2-y,1/2-x,1/2-z
loop_
_atom_site_type_symbol
_atom_site_label
_atom_site_fract_x
_atom_site_fract_y
_atom_site_fract_z
Si Si1 0.849779 0.106389 0.770869
Si Si2 0.706930 0.785391 0.904904
Si Si3 0.143301 0.500000 0.500000
Si Si4 0.547157 0.160676 0.840763
O O1 0.782798 0.180560 0.842709
O O2 0.915189 0.304301 0.646709
O O3 0.974862 0.146296 0.781625
O O4 0.716847 0.608620 0.828122
O O5 0.716840 0.912489 0.945118
O O6 0.712290 0.712290 0.000000
O O7 0.078025 0.582280 0.427459
O O8 0.587502 0.087502 0.750000
#
# Coordination Sequence:
#
# PCOD9551606 Si02
#       4
#    16  16   8  16
#     4  11  28  50  82 127 176 237 291 361 463 550
#     4  12  26  50  84 128 175 229 302 384 450 543
#     4  12  29  54  86 137 176 233 318 384 451 542
#     4  12  28  52  91 131 177 239 303 380 465 548
#
# _framework density 27.184887
#
# number of rings (size 3 to 8) (size 9 to 14) (size 15 to 20)
#    0.000    0.286    0.000    7.714    8.000    6.857 
#    0.000    1.429    0.000    0.000    0.000    0.000 
#    0.000    0.000    0.000    0.000    0.000    0.000 
#
# Total GULP energy -156193.825031 kJ/mol
# GULP energy per Si atom -5578.350894 kJ/mol
# Density = 2.712301 g / cm^3
# Si number density = 27.184887 Si / 1000 Ang^3
#
#
#
# Elastic Constant Matrix: (Units=GPa)
#
#
# Indices 1 2 3 4 5 6 
#
# 1 133.6131 70.1916 84.4732 0.0000 0.0000 0.0000
# 2 70.1916 133.6131 84.4732 0.0000 0.0000 0.0000
# 3 84.4732 84.4732 237.7076 0.0000 0.0000 0.0000
# 4 0.0000 0.0000 0.0000 25.3877 0.0000 0.0000
# 5 0.0000 0.0000 0.0000 0.0000 25.3877 0.0000
# 6 0.0000 0.0000 0.0000 0.0000 0.0000 26.2711
#
#
#
# Elastic Compliance Matrix: (Units=1/GPa)
#
#
# Indices 1 2 3 4 5 6 
#
# 1 0.011362 -0.004406 -0.002472 0.000000 0.000000 0.000000
# 2 -0.004406 0.011362 -0.002472 0.000000 0.000000 0.000000
# 3 -0.002472 -0.002472 0.005964 0.000000 0.000000 0.000000
# 4 0.000000 0.000000 0.000000 0.039389 0.000000 0.000000
# 5 0.000000 0.000000 0.000000 0.000000 0.039389 0.000000
# 6 0.000000 0.000000 0.000000 0.000000 0.000000 0.038065
#
#
# Mechanical properties :
#
#
# Convention : Reuss Voigt Hill
#
# Bulk Modulus (GPa) = 100.12238 109.24553 104.68395
# Shear Modulus (GPa) = 29.84040 33.12904 31.48472
#
# Velocity S-wave (km/s) = 3.31672 3.49471 3.40688
# Velocity P-wave (km/s) = 7.18176 7.52046 7.35306
#
# Compressibility (1/GPa) = 0.00998778
#
# Stress axis : x y z
#
# Youngs Moduli (GPa) = 88.01574 88.01574 167.68257
#
# Poissons Ratio (x) = 0.38779 0.41448
# Poissons Ratio (y) = 0.38779 0.41448
# Poissons Ratio (z) = 0.21756 0.21756
#
# Static dielectric constant tensor:
#      x y z
#    x 2.720530 0.000000 0.000000 
#    y 0.000000 2.720530 0.000000 
#    z 0.000000 0.000000 -26.861030 
# 
# From -- ./inp_files/4484.got.cif
#   From: 2010.05.17/outbox.cif.g08.bks.cpg/sg97_3_cif.got.tgz:4484.got - 2010.06.03 19:55:32.
