data_PCOD9551528
_publ_section_title
;
Structure prediction by ZEFSAII (Michael W. Deem and Ramdas Pophale) SiO2 
 PCOD9551528
Probable space group: I 4 2 2 
;
_chemical_formula_sum "Si O2"
_cell_formula_units_Z 56
_cell_length_a 14.632018
_cell_length_b 14.632018
_cell_length_c 10.929428
_cell_angle_alpha 90.000000
_cell_angle_beta 90.000000
_cell_angle_gamma 90.000000
_cell_volume 2339.946279
_symmetry_space_group_name_H-M "I 4 2 2 "
_symmetry_group_IT_number 97
_symmetry_cell_setting 'tetragonal'
loop_
_space_group_symop_operation_xyz
x,y,z
-y,x,z
-x,-y,z
y,-x,z
x,-y,-z
-x,y,-z
y,x,-z
-y,-x,-z
1/2+x,1/2+y,1/2+z
1/2-y,1/2+x,1/2+z
1/2-x,1/2-y,1/2+z
1/2+y,1/2-x,1/2+z
1/2+x,1/2-y,1/2-z
1/2-x,1/2+y,1/2-z
1/2+y,1/2+x,1/2-z
1/2-y,1/2-x,1/2-z
loop_
_atom_site_type_symbol
_atom_site_label
_atom_site_fract_x
_atom_site_fract_y
_atom_site_fract_z
Si Si1 0.381128 0.152162 0.122197
Si Si2 0.559076 0.640762 0.684284
Si Si3 0.907394 0.297197 0.645961
Si Si4 0.500000 0.777669 0.500000
O O1 0.327682 0.172319 0.250000
O O2 0.490042 0.160074 0.141695
O O3 0.367245 0.201140 0.991360
O O4 0.343972 0.051411 0.092275
O O5 0.452175 0.614481 0.677149
O O6 0.581401 0.694195 0.807126
O O7 0.568624 0.711599 0.573065
O O8 0.850023 0.350023 0.750000
#
# Coordination Sequence:
#
# PCOD9551528 Si02
#       4
#    16  16  16   8
#     4  11  22  40  71 110 153 188 232 304 373 448
#     4  11  25  49  75 102 146 203 261 310 369 447
#     4  11  23  44  73 113 147 195 245 306 375 448
#     4  12  22  44  72 110 144 196 252 303 379 442
#
# _framework density 23.932174
#
# number of rings (size 3 to 8) (size 9 to 14) (size 15 to 20)
#    0.000    0.857    5.714    0.857    0.000    8.571 
#    5.143    5.714    0.000    6.857    0.000    0.000 
#    0.000    0.000    0.000    0.000    0.000    0.000 
#
# Total GULP energy -156423.096679 kJ/mol
# GULP energy per Si atom -5586.539167 kJ/mol
# Density = 2.387770 g / cm^3
# Si number density = 23.932174 Si / 1000 Ang^3
#
#
#
# Elastic Constant Matrix: (Units=GPa)
#
#
# Indices 1 2 3 4 5 6 
#
# 1 55.1768 41.5968 13.0158 0.0000 0.0000 0.0000
# 2 41.5968 55.1773 13.0158 0.0000 0.0000 0.0000
# 3 13.0158 13.0158 174.4408 0.0000 0.0000 0.0000
# 4 0.0000 0.0000 0.0000 75.7347 0.0000 0.0000
# 5 0.0000 0.0000 0.0000 0.0000 75.7418 0.0000
# 6 0.0000 0.0000 0.0000 0.0000 0.0000 3.8767
#
#
#
# Elastic Compliance Matrix: (Units=1/GPa)
#
#
# Indices 1 2 3 4 5 6 
#
# 1 0.042091 -0.031546 -0.000787 0.000000 0.000000 0.000000
# 2 -0.031546 0.042091 -0.000787 0.000000 0.000000 0.000000
# 3 -0.000787 -0.000787 0.005850 0.000000 0.000000 0.000000
# 4 0.000000 0.000000 0.000000 0.013204 0.000000 0.000000
# 5 0.000000 0.000000 0.000000 0.000000 0.013203 0.000000
# 6 0.000000 0.000000 0.000000 0.000000 0.000000 0.257950
#
#
# Mechanical properties :
#
#
# Convention : Reuss Voigt Hill
#
# Bulk Modulus (GPa) = 42.02952 46.67243 44.35098
# Shear Modulus (GPa) = 11.14684 45.54840 28.34762
#
# Velocity S-wave (km/s) = 2.16051 4.36733 3.44539
# Velocity P-wave (km/s) = 4.88096 6.70640 5.86513
#
# Compressibility (1/GPa) = 0.02379280
#
# Stress axis : x y z
#
# Youngs Moduli (GPa) = 23.75807 23.75827 170.93961
#
# Poissons Ratio (x) = 0.74947 0.13450
# Poissons Ratio (y) = 0.74947 0.13450
# Poissons Ratio (z) = 0.01869 0.01869
#
# Static dielectric constant tensor:
#      x y z
#    x 1.783730 0.000000 0.000000 
#    y 0.000000 1.783720 0.000000 
#    z 0.000000 0.000000 1.980530 
# 
# From -- ./inp_files/3303.got.cif
#   From: 2010.05.17/outbox.cif.g08.bks.cpg/sg97_2_cif.got.tgz:3303.got - 2010.06.03 19:55:32.
