data_PCOD9551384
_publ_section_title
;
Structure prediction by ZEFSAII (Michael W. Deem and Ramdas Pophale) SiO2 
 PCOD9551384
Probable space group: I 4 2 2 
;
_chemical_formula_sum "Si O2"
_cell_formula_units_Z 112
_cell_length_a 15.458519
_cell_length_b 15.458519
_cell_length_c 24.125565
_cell_angle_alpha 90.000000
_cell_angle_beta 90.000000
_cell_angle_gamma 90.000000
_cell_volume 5765.185174
_symmetry_space_group_name_H-M "I 4 2 2 "
_symmetry_group_IT_number 97
_symmetry_cell_setting 'tetragonal'
loop_
_space_group_symop_operation_xyz
x,y,z
-y,x,z
-x,-y,z
y,-x,z
x,-y,-z
-x,y,-z
y,x,-z
-y,-x,-z
1/2+x,1/2+y,1/2+z
1/2-y,1/2+x,1/2+z
1/2-x,1/2-y,1/2+z
1/2+y,1/2-x,1/2+z
1/2+x,1/2-y,1/2-z
1/2-x,1/2+y,1/2-z
1/2+y,1/2+x,1/2-z
1/2-y,1/2-x,1/2-z
loop_
_atom_site_type_symbol
_atom_site_label
_atom_site_fract_x
_atom_site_fract_y
_atom_site_fract_z
Si Si1 0.796666 0.200249 0.127461
Si Si2 0.877884 0.921178 0.783443
Si Si3 0.160488 0.576087 0.417339
Si Si4 0.516597 0.361145 0.933644
Si Si5 0.366202 0.769991 0.202494
Si Si6 0.822060 0.505707 0.109200
Si Si7 0.381339 0.828705 0.453279
O O1 0.832218 0.118407 0.161993
O O2 0.873508 0.267492 0.117601
O O3 0.717477 0.239775 0.163008
O O4 0.752614 0.171346 0.069983
O O5 0.819517 0.890834 0.731873
O O6 0.975276 0.884713 0.782463
O O7 0.171716 0.473359 0.421237
O O8 0.170026 0.606193 0.481238
O O9 0.066533 0.604497 0.395112
O O10 0.592564 0.426991 0.916821
O O11 0.535306 0.269408 0.907449
O O12 0.500000 0.354088 0.000000
O O13 0.336453 0.836453 0.250000
O O14 0.444745 0.809073 0.166997
O O15 0.837713 0.581712 0.064743
#
# Coordination Sequence:
#
# PCOD9551384 Si02
#       7
#    16  16  16  16  16  16  16
#     4  10  21  39  61  85 116 156 200 244 297 361
#     4  10  21  38  63  86 114 152 195 253 311 352
#     4  11  22  36  62  89 118 161 200 238 306 365
#     4   9  19  33  49  79 124 164 196 234 282 347
#     4   9  22  40  57  83 120 151 196 257 300 353
#     4  11  22  35  60  84 120 160 203 245 299 366
#     4  10  22  39  56  88 127 155 194 250 292 367
#
# _framework density 19.426956000000001
#
# number of rings (size 3 to 8) (size 9 to 14) (size 15 to 20)
#    0.000    2.000    0.000    3.429    6.000    1.143 
#    0.000    1.429    0.000    6.857    0.000    6.000 
#    0.000    0.000    0.000    0.000    0.000    0.000 
#
# Total GULP energy -312733.444407 kJ/mol
# GULP energy per Si atom -5584.525793 kJ/mol
# Density = 1.938274 g / cm^3
# Si number density = 19.426956 Si / 1000 Ang^3
#
#
#
# Elastic Constant Matrix: (Units=GPa)
#
#
# Indices 1 2 3 4 5 6 
#
# 1 66.2575 20.3048 10.1127 0.0000 0.0000 0.0000
# 2 20.3048 66.2575 10.1127 0.0000 0.0000 0.0000
# 3 10.1127 10.1127 42.3404 0.0000 0.0000 0.0000
# 4 0.0000 0.0000 0.0000 15.6648 0.0000 0.0000
# 5 0.0000 0.0000 0.0000 0.0000 15.6648 0.0000
# 6 0.0000 0.0000 0.0000 0.0000 0.0000 23.4492
#
#
#
# Elastic Compliance Matrix: (Units=1/GPa)
#
#
# Indices 1 2 3 4 5 6 
#
# 1 0.016998 -0.004763 -0.002922 0.000000 0.000000 0.000000
# 2 -0.004763 0.016998 -0.002922 0.000000 0.000000 0.000000
# 3 -0.002922 -0.002922 0.025014 0.000000 0.000000 0.000000
# 4 0.000000 0.000000 0.000000 0.063837 0.000000 0.000000
# 5 0.000000 0.000000 0.000000 0.000000 0.063837 0.000000
# 6 0.000000 0.000000 0.000000 0.000000 0.000000 0.042645
#
#
# Mechanical properties :
#
#
# Convention : Reuss Voigt Hill
#
# Bulk Modulus (GPa) = 26.45837 28.43511 27.44674
# Shear Modulus (GPa) = 19.00096 19.91078 19.45587
#
# Velocity S-wave (km/s) = 3.13081 3.20489 3.16806
# Velocity P-wave (km/s) = 5.16897 5.32577 5.24795
#
# Compressibility (1/GPa) = 0.03779522
#
# Stress axis : x y z
#
# Youngs Moduli (GPa) = 58.82922 58.82922 39.97750
#
# Poissons Ratio (x) = 0.28021 0.11683
# Poissons Ratio (y) = 0.28021 0.11683
# Poissons Ratio (z) = 0.17192 0.17192
#
# Static dielectric constant tensor:
#      x y z
#    x 1.659850 0.000000 0.000000 
#    y 0.000000 1.659850 0.000000 
#    z 0.000000 0.000000 1.676690 
# 
# From -- ./inp_files/7267.got.cif
#   From: 2010.05.17/outbox.cif.g08.bks.cpg/sg97_4_cif.got.tgz:7267.got - 2010.06.03 19:55:32.
