data_PCOD9551458
_publ_section_title
;
Structure prediction by ZEFSAII (Michael W. Deem and Ramdas Pophale) SiO2 
 PCOD9551458
Probable space group: I 4 2 2 
;
_chemical_formula_sum "Si O2"
_cell_formula_units_Z 56
_cell_length_a 11.155578
_cell_length_b 11.155578
_cell_length_c 21.439162
_cell_angle_alpha 90.000000
_cell_angle_beta 90.000000
_cell_angle_gamma 90.000000
_cell_volume 2668.037689
_symmetry_space_group_name_H-M "I 4 2 2 "
_symmetry_group_IT_number 97
_symmetry_cell_setting 'tetragonal'
loop_
_space_group_symop_operation_xyz
x,y,z
-y,x,z
-x,-y,z
y,-x,z
x,-y,-z
-x,y,-z
y,x,-z
-y,-x,-z
1/2+x,1/2+y,1/2+z
1/2-y,1/2+x,1/2+z
1/2-x,1/2-y,1/2+z
1/2+y,1/2-x,1/2+z
1/2+x,1/2-y,1/2-z
1/2-x,1/2+y,1/2-z
1/2+y,1/2+x,1/2-z
1/2-y,1/2-x,1/2-z
loop_
_atom_site_type_symbol
_atom_site_label
_atom_site_fract_x
_atom_site_fract_y
_atom_site_fract_z
Si Si1 0.674954 0.411236 0.847767
Si Si2 0.242426 0.213726 0.927957
Si Si3 0.117787 0.617787 0.750000
Si Si4 0.641311 0.980780 0.127753
O O1 0.653615 0.550102 0.839783
O O2 0.723365 0.370375 0.914834
O O3 0.771323 0.376116 0.796677
O O4 0.269338 0.081500 0.900942
O O5 0.143698 0.295350 0.891765
O O6 0.209460 0.209460 0.000000
O O7 0.006077 0.631905 0.797839
O O8 0.500000 0.000000 0.106606
#
# Coordination Sequence:
#
# PCOD9551458 Si02
#       4
#    16  16   8  16
#     4  10  23  40  61  94 129 171 223 285 351 410
#     4  11  24  43  68  99 136 183 235 286 353 426
#     4  10  23  40  68  89 132 174 225 290 342 428
#     4  11  25  44  69 101 139 187 235 294 362 421
#
# _framework density 20.989207
#
# number of rings (size 3 to 8) (size 9 to 14) (size 15 to 20)
#    0.000    1.429    0.000    4.714    8.000    6.286 
#    0.000    2.857    0.000    0.000    0.000    0.000 
#    0.000    0.000    0.000    0.000    0.000    0.000 
#
# Total GULP energy -156077.469721 kJ/mol
# GULP energy per Si atom -5574.195347 kJ/mol
# Density = 2.094143 g / cm^3
# Si number density = 20.989207 Si / 1000 Ang^3
#
#
#
# Elastic Constant Matrix: (Units=GPa)
#
#
# Indices 1 2 3 4 5 6 
#
# 1 100.7460 57.5221 40.3853 0.0000 0.0000 0.0000
# 2 57.5221 100.7460 40.3853 0.0000 0.0000 0.0000
# 3 40.3853 40.3853 132.5393 0.0000 0.0000 0.0000
# 4 0.0000 0.0000 0.0000 25.8286 0.0000 0.0000
# 5 0.0000 0.0000 0.0000 0.0000 25.8286 0.0000
# 6 0.0000 0.0000 0.0000 0.0000 0.0000 43.9406
#
#
#
# Elastic Compliance Matrix: (Units=1/GPa)
#
#
# Indices 1 2 3 4 5 6 
#
# 1 0.015309 -0.007827 -0.002280 0.000000 0.000000 0.000000
# 2 -0.007827 0.015309 -0.002280 0.000000 0.000000 0.000000
# 3 -0.002280 -0.002280 0.008934 0.000000 0.000000 0.000000
# 4 0.000000 0.000000 0.000000 0.038717 0.000000 0.000000
# 5 0.000000 0.000000 0.000000 0.000000 0.038717 0.000000
# 6 0.000000 0.000000 0.000000 0.000000 0.000000 0.022758
#
#
# Mechanical properties :
#
#
# Convention : Reuss Voigt Hill
#
# Bulk Modulus (GPa) = 67.66395 67.84629 67.75512
# Shear Modulus (GPa) = 29.50868 32.16881 30.83875
#
# Velocity S-wave (km/s) = 3.75360 3.91914 3.83726
# Velocity P-wave (km/s) = 7.14797 7.27145 7.20998
#
# Compressibility (1/GPa) = 0.01477892
#
# Stress axis : x y z
#
# Youngs Moduli (GPa) = 65.32284 65.32284 111.92914
#
# Poissons Ratio (x) = 0.51127 0.25517
# Poissons Ratio (y) = 0.51127 0.25517
# Poissons Ratio (z) = 0.14892 0.14892
#
# Static dielectric constant tensor:
#      x y z
#    x 1.804030 0.000000 0.000000 
#    y 0.000000 1.804030 0.000000 
#    z 0.000000 0.000000 1.760400 
# 
# From -- ./inp_files/6231.got.cif
#   From: 2010.05.17/outbox.cif.g08.bks.cpg/sg97_4_cif.got.tgz:6231.got - 2010.06.03 19:55:32.
