data_PCOD9551583
_publ_section_title
;
Structure prediction by ZEFSAII (Michael W. Deem and Ramdas Pophale) SiO2 
 PCOD9551583
Probable space group: I 4 2 2 
;
_chemical_formula_sum "Si O2"
_cell_formula_units_Z 112
_cell_length_a 16.105489
_cell_length_b 16.105489
_cell_length_c 24.592592
_cell_angle_alpha 90.000000
_cell_angle_beta 90.000000
_cell_angle_gamma 90.000000
_cell_volume 6378.993151
_symmetry_space_group_name_H-M "I 4 2 2 "
_symmetry_group_IT_number 97
_symmetry_cell_setting 'tetragonal'
loop_
_space_group_symop_operation_xyz
x,y,z
-y,x,z
-x,-y,z
y,-x,z
x,-y,-z
-x,y,-z
y,x,-z
-y,-x,-z
1/2+x,1/2+y,1/2+z
1/2-y,1/2+x,1/2+z
1/2-x,1/2-y,1/2+z
1/2+y,1/2-x,1/2+z
1/2+x,1/2-y,1/2-z
1/2-x,1/2+y,1/2-z
1/2+y,1/2+x,1/2-z
1/2-y,1/2-x,1/2-z
loop_
_atom_site_type_symbol
_atom_site_label
_atom_site_fract_x
_atom_site_fract_y
_atom_site_fract_z
Si Si1 0.844079 0.218189 0.654527
Si Si2 0.283176 0.341156 0.653601
Si Si3 0.598549 0.400183 0.749917
Si Si4 0.602688 0.409319 0.935189
Si Si5 0.602138 0.590747 0.564891
Si Si6 0.574399 0.109600 0.185400
Si Si7 0.926626 0.387792 0.185561
O O1 0.752556 0.254047 0.658723
O O2 0.862542 0.146859 0.698762
O O3 0.861056 0.172852 0.597486
O O4 0.897504 0.300207 0.666946
O O5 0.352802 0.365170 0.697881
O O6 0.327638 0.359659 0.596542
O O7 0.198038 0.389833 0.665219
O O8 0.613254 0.499302 0.750332
O O9 0.612749 0.507175 0.920943
O O10 0.605293 0.394708 0.000000
O O11 0.506826 0.612820 0.579611
O O12 0.604077 0.604077 0.500000
O O13 0.595251 0.095251 0.250000
O O14 0.478410 0.103757 0.166942
O O15 0.615609 0.023161 0.167055
O O16 0.901819 0.401819 0.250000
#
# Coordination Sequence:
#
# PCOD9551583 Si02
#       7
#    16  16  16  16  16  16  16
#     4  12  24  34  59  91 119 151 196 249 295 357
#     4  12  24  34  59  91 119 151 196 249 295 357
#     4  11  25  40  56  84 125 161 190 242 310 359
#     4   9  20  41  65  85 113 155 198 246 307 363
#     4   9  20  41  65  85 113 155 198 246 307 363
#     4   9  20  37  56  79 118 167 200 231 285 361
#     4   9  20  37  56  79 118 167 200 231 285 361
#
# _framework density 17.55763
#
# number of rings (size 3 to 8) (size 9 to 14) (size 15 to 20)
#    0.000    1.857    0.000    5.571   12.000    2.857 
#    0.000    0.000    0.000    0.000    0.000    0.000 
#    0.000    0.000    0.000    0.000    0.000    0.000 
#
# Total GULP energy -311865.676541 kJ/mol
# GULP energy per Si atom -5569.029938 kJ/mol
# Density = 1.751767 g / cm^3
# Si number density = 17.557630 Si / 1000 Ang^3
#
#
#
# Elastic Constant Matrix: (Units=GPa)
#
#
# Indices 1 2 3 4 5 6 
#
# 1 85.7218 43.3241 29.4482 0.0000 0.0000 0.0000
# 2 43.3241 85.7218 29.4483 0.0000 0.0000 0.0000
# 3 29.4482 29.4483 39.2728 0.0000 0.0000 0.0000
# 4 0.0000 0.0000 0.0000 -36.5729 0.0000 0.0000
# 5 0.0000 0.0000 0.0000 0.0000 -36.5715 0.0000
# 6 0.0000 0.0000 0.0000 0.0000 0.0000 16.0731
#
#
#
# Elastic Compliance Matrix: (Units=1/GPa)
#
#
# Indices 1 2 3 4 5 6 
#
# 1 0.017684 -0.005903 -0.008834 0.000000 0.000000 0.000000
# 2 -0.005903 0.017684 -0.008834 0.000000 0.000000 0.000000
# 3 -0.008834 -0.008834 0.038711 0.000000 0.000000 0.000000
# 4 0.000000 0.000000 0.000000 -0.027343 0.000000 0.000000
# 5 0.000000 0.000000 0.000000 0.000000 -0.027344 0.000000
# 6 0.000000 0.000000 0.000000 0.000000 0.000000 0.062216
#
#
# Mechanical properties :
#
#
# Convention : Reuss Voigt Hill
#
# Bulk Modulus (GPa) = 37.12305 46.12862 41.62583
# Shear Modulus (GPa) = 36.30370 -4.18122 16.06124
#
# Velocity S-wave (km/s) = 4.55212 -1.54486 3.02780
# Velocity P-wave (km/s) = 6.98702 4.81119 5.99859
#
# Compressibility (1/GPa) = 0.02693744
#
# Stress axis : x y z
#
# Youngs Moduli (GPa) = 56.54983 56.54961 25.83262
#
# Poissons Ratio (x) = 0.33379 0.22820
# Poissons Ratio (y) = 0.33379 0.22820
# Poissons Ratio (z) = 0.49955 0.49955
#
# Static dielectric constant tensor:
#      x y z
#    x 1.613560 0.000000 0.000000 
#    y 0.000000 1.613560 0.000000 
#    z 0.000000 0.000000 1.619370 
# 
# From -- ./inp_files/7680.got.cif
#   From: 2010.05.17/outbox.cif.g08.bks.cpg/sg97_4_cif.got.tgz:7680.got - 2010.06.03 19:55:32.
