data_PCOD9551067
_publ_section_title
;
Structure prediction by ZEFSAII (Michael W. Deem and Ramdas Pophale) SiO2 
 PCOD9551067
Probable space group: P 43 21 2
;
_chemical_formula_sum "Si O2"
_cell_formula_units_Z 60
_cell_length_a 18.055624
_cell_length_b 18.055624
_cell_length_c 8.826580
_cell_angle_alpha 90.000000
_cell_angle_beta 90.000000
_cell_angle_gamma 90.000000
_cell_volume 2877.514138
_symmetry_space_group_name_H-M "P 43 21 2"
_symmetry_group_IT_number 96
_symmetry_cell_setting 'tetragonal'
loop_
_space_group_symop_operation_xyz
x,y,z
1/2-y,1/2+x,3/4+z
-x,-y,1/2+z
1/2+y,1/2-x,1/4+z
1/2+x,1/2-y,1/4-z
1/2-x,1/2+y,3/4-z
y,x,-z
-y,-x,1/2-z
loop_
_atom_site_type_symbol
_atom_site_label
_atom_site_fract_x
_atom_site_fract_y
_atom_site_fract_z
Si Si1 0.527974 0.367012 0.543612
Si Si2 0.194605 0.794203 0.433111
Si Si3 0.319261 0.687624 0.429971
Si Si4 0.548151 0.213348 0.040928
Si Si5 0.451070 0.242285 0.748123
Si Si6 0.047990 0.574392 0.042258
Si Si7 0.533086 0.533086 0.500000
Si Si8 0.827494 0.034556 0.476971
O O1 0.609611 0.339213 0.499667
O O2 0.493251 0.310287 0.665163
O O3 0.534848 0.453425 0.583504
O O4 0.480933 0.361652 0.391038
O O5 0.193781 0.806220 0.250000
O O6 0.238819 0.719292 0.463566
O O7 0.235934 0.865491 0.500594
O O8 0.115002 0.792221 0.507629
O O9 0.324600 0.675401 0.250000
O O10 0.377210 0.749764 0.478515
O O11 0.522076 0.262270 0.182782
O O12 0.486166 0.229605 0.912670
O O13 0.560661 0.125262 0.049695
O O14 0.457835 0.161852 0.668254
O O15 0.053535 0.521740 0.187927
O O16 0.533724 0.604951 0.607753
#
# Coordination Sequence:
#
# PCOD9551067 Si02
#       8
#     8   8   8   8   8   8   4   8
#     4  12  25  43  66 103 133 181 228 278 340 417
#     4  11  23  43  67  98 130 174 229 276 329 408
#     4  11  23  42  68  96 134 176 222 275 342 408
#     4  11  23  44  66  96 137 174 218 275 351 399
#     4  11  22  43  69  95 131 173 224 278 337 406
#     4  10  24  46  72 100 130 179 232 290 344 407
#     4  12  26  42  66  98 146 180 224 274 348 418
#     4  12  26  44  65 100 142 178 228 282 338 417
#
# _framework density 20.851330999999998
#
# number of rings (size 3 to 8) (size 9 to 14) (size 15 to 20)
#    0.000    0.800    5.333    2.000    0.000    3.200 
#    7.200    1.333    0.000    0.000    0.000    0.000 
#    0.000    0.000    0.000    0.000    0.000    0.000 
#
# Total GULP energy -335459.874551 kJ/mol
# GULP energy per Si atom -5590.997909 kJ/mol
# Density = 2.080387 g / cm^3
# Si number density = 20.851331 Si / 1000 Ang^3
#
#
#
# Elastic Constant Matrix: (Units=GPa)
#
#
# Indices 1 2 3 4 5 6 
#
# 1 163.5313 -50.5636 0.3452 0.0000 0.0000 0.0000
# 2 -50.5636 163.5338 0.3435 0.0000 0.0000 0.0000
# 3 0.3452 0.3435 16.9562 0.0000 0.0000 0.0000
# 4 0.0000 0.0000 0.0000 10.2801 0.0000 0.0000
# 5 0.0000 0.0000 0.0000 0.0000 10.2793 0.0000
# 6 0.0000 0.0000 0.0000 0.0000 0.0000 34.6141
#
#
#
# Elastic Compliance Matrix: (Units=1/GPa)
#
#
# Indices 1 2 3 4 5 6 
#
# 1 0.006762 0.002091 -0.000180 0.000000 0.000000 0.000000
# 2 0.002091 0.006762 -0.000180 0.000000 0.000000 0.000000
# 3 -0.000180 -0.000180 0.058983 0.000000 0.000000 0.000000
# 4 0.000000 0.000000 0.000000 0.097275 0.000000 0.000000
# 5 0.000000 0.000000 0.000000 0.000000 0.097282 0.000000
# 6 0.000000 0.000000 0.000000 0.000000 0.000000 0.028890
#
#
# Mechanical properties :
#
#
# Convention : Reuss Voigt Hill
#
# Bulk Modulus (GPa) = 13.16316 27.14128 20.15222
# Shear Modulus (GPa) = 15.73247 37.29446 26.51347
#
# Velocity S-wave (km/s) = 2.74981 4.23376 3.56975
# Velocity P-wave (km/s) = 4.05074 6.07819 5.16493
#
# Compressibility (1/GPa) = 0.07596961
#
# Stress axis : x y z
#
# Youngs Moduli (GPa) = 147.88530 147.88761 16.95414
#
# Poissons Ratio (x) = -0.30925 0.00305
# Poissons Ratio (y) = -0.30925 0.00304
# Poissons Ratio (z) = 0.02663 0.02655
#
# Static dielectric constant tensor:
#      x y z
#    x 1.754230 0.000000 0.000000 
#    y 0.000000 1.754230 0.000000 
#    z 0.000000 0.000000 1.804290 
# 
# From -- ./inp_files/1635.got.cif
#   From: 2010.05.17/outbox.cif.g08.bks.cpg/sg96_1_cif.got.tgz:1635.got - 2010.06.03 19:52:08.
