data_PCOD9551424
_publ_section_title
;
Structure prediction by ZEFSAII (Michael W. Deem and Ramdas Pophale) SiO2 
 PCOD9551424
Probable space group: I 4 2 2 
;
_chemical_formula_sum "Si O2"
_cell_formula_units_Z 112
_cell_length_a 14.407571
_cell_length_b 14.407571
_cell_length_c 24.214839
_cell_angle_alpha 90.000000
_cell_angle_beta 90.000000
_cell_angle_gamma 90.000000
_cell_volume 5026.470323
_symmetry_space_group_name_H-M "I 4 2 2 "
_symmetry_group_IT_number 97
_symmetry_cell_setting 'tetragonal'
loop_
_space_group_symop_operation_xyz
x,y,z
-y,x,z
-x,-y,z
y,-x,z
x,-y,-z
-x,y,-z
y,x,-z
-y,-x,-z
1/2+x,1/2+y,1/2+z
1/2-y,1/2+x,1/2+z
1/2-x,1/2-y,1/2+z
1/2+y,1/2-x,1/2+z
1/2+x,1/2-y,1/2-z
1/2-x,1/2+y,1/2-z
1/2+y,1/2+x,1/2-z
1/2-y,1/2-x,1/2-z
loop_
_atom_site_type_symbol
_atom_site_label
_atom_site_fract_x
_atom_site_fract_y
_atom_site_fract_z
Si Si1 0.078433 0.578069 0.184901
Si Si2 0.467588 0.202562 0.416060
Si Si3 0.935517 0.772729 0.628879
Si Si4 0.827326 0.107199 0.444183
Si Si5 0.348526 0.193848 0.514614
Si Si6 0.920369 0.134024 0.142494
Si Si7 0.584478 0.631286 0.239887
O O1 0.100626 0.600626 0.250000
O O2 0.035472 0.656385 0.144241
O O3 0.169350 0.544686 0.150363
O O4 0.000000 0.500000 0.187164
O O5 0.406583 0.153538 0.462837
O O6 0.570519 0.216419 0.440606
O O7 0.409462 0.297590 0.407607
O O8 0.855890 0.796133 0.584962
O O9 0.893679 0.817822 0.684282
O O10 0.022985 0.827203 0.600231
O O11 0.890764 0.109237 0.500000
O O12 0.721505 0.116325 0.462881
O O13 0.281123 0.281123 0.500000
O O14 0.888492 0.174501 0.201498
O O15 0.031792 0.120428 0.141259
O O16 0.472802 0.622837 0.239291
#
# Coordination Sequence:
#
# PCOD9551424 Si02
#       7
#    16  16  16  16  16  16  16
#     4  11  25  43  64  89 125 172 221 269 317 382
#     4  11  21  39  63  85 118 166 211 262 321 389
#     4  12  22  40  65  87 129 165 208 262 321 384
#     4  11  24  40  61  93 125 164 208 262 320 386
#     4  10  22  40  61  89 123 158 211 270 324 373
#     4   9  18  32  57  89 121 151 194 249 319 388
#     4   9  17  33  55  87 121 155 190 243 311 387
#
# _framework density 22.282036999999999
#
# number of rings (size 3 to 8) (size 9 to 14) (size 15 to 20)
#    0.000    1.571    1.429    5.571    0.000    0.286 
#    0.000    5.000    3.143    3.429    0.000    0.000 
#    0.000    0.000    0.000    0.000    0.000    0.000 
#
# Total GULP energy -311800.988595 kJ/mol
# GULP energy per Si atom -5567.874796 kJ/mol
# Density = 2.223132 g / cm^3
# Si number density = 22.282037 Si / 1000 Ang^3
#
#
#
# Elastic Constant Matrix: (Units=GPa)
#
#
# Indices 1 2 3 4 5 6 
#
# 1 48.0686 -8.9432 19.7756 0.0000 0.0000 0.0000
# 2 -8.9432 48.0682 19.7753 0.0000 0.0000 0.0000
# 3 19.7756 19.7753 112.1901 0.0000 0.0000 0.0000
# 4 0.0000 0.0000 0.0000 31.0200 0.0000 0.0000
# 5 0.0000 0.0000 0.0000 0.0000 31.0199 0.0000
# 6 0.0000 0.0000 0.0000 0.0000 0.0000 20.8017
#
#
#
# Elastic Compliance Matrix: (Units=1/GPa)
#
#
# Indices 1 2 3 4 5 6 
#
# 1 0.024320 0.006780 -0.005482 0.000000 0.000000 0.000000
# 2 0.006780 0.024321 -0.005482 0.000000 0.000000 0.000000
# 3 -0.005482 -0.005482 0.010846 0.000000 0.000000 0.000000
# 4 0.000000 0.000000 0.000000 0.032237 0.000000 0.000000
# 5 0.000000 0.000000 0.000000 0.000000 0.032237 0.000000
# 6 0.000000 0.000000 0.000000 0.000000 0.000000 0.048073
#
#
# Mechanical properties :
#
#
# Convention : Reuss Voigt Hill
#
# Bulk Modulus (GPa) = 19.56212 29.94917 24.75564
# Shear Modulus (GPa) = 25.32388 28.41626 26.87007
#
# Velocity S-wave (km/s) = 3.37488 3.57501 3.47638
# Velocity P-wave (km/s) = 4.89743 5.52368 5.21995
#
# Compressibility (1/GPa) = 0.05111919
#
# Stress axis : x y z
#
# Youngs Moduli (GPa) = 41.11778 41.11750 92.19946
#
# Poissons Ratio (x) = -0.27878 0.50544
# Poissons Ratio (y) = -0.27879 0.50544
# Poissons Ratio (z) = 0.22541 0.22541
#
# Static dielectric constant tensor:
#      x y z
#    x 1.836120 0.000000 0.000000 
#    y 0.000000 1.836120 0.000000 
#    z 0.000000 0.000000 1.895890 
# 
# From -- ./inp_files/7275.got.cif
#   From: 2010.05.17/outbox.cif.g08.bks.cpg/sg97_4_cif.got.tgz:7275.got - 2010.06.03 19:55:32.
