data_PCOD9551519
_publ_section_title
;
Structure prediction by ZEFSAII (Michael W. Deem and Ramdas Pophale) SiO2 
 PCOD9551519
Probable space group: I 4 2 2 
;
_chemical_formula_sum "Si O2"
_cell_formula_units_Z 40
_cell_length_a 14.348880
_cell_length_b 14.348880
_cell_length_c 7.582772
_cell_angle_alpha 90.000000
_cell_angle_beta 90.000000
_cell_angle_gamma 90.000000
_cell_volume 1561.219636
_symmetry_space_group_name_H-M "I 4 2 2 "
_symmetry_group_IT_number 97
_symmetry_cell_setting 'tetragonal'
loop_
_space_group_symop_operation_xyz
x,y,z
-y,x,z
-x,-y,z
y,-x,z
x,-y,-z
-x,y,-z
y,x,-z
-y,-x,-z
1/2+x,1/2+y,1/2+z
1/2-y,1/2+x,1/2+z
1/2-x,1/2-y,1/2+z
1/2+y,1/2-x,1/2+z
1/2+x,1/2-y,1/2-z
1/2-x,1/2+y,1/2-z
1/2+y,1/2+x,1/2-z
1/2-y,1/2-x,1/2-z
loop_
_atom_site_type_symbol
_atom_site_label
_atom_site_fract_x
_atom_site_fract_y
_atom_site_fract_z
Si Si1 0.282647 0.217354 0.250000
Si Si2 0.894422 0.390140 0.956397
Si Si3 0.397520 0.609288 0.213412
O O1 0.321914 0.162084 0.419566
O O2 0.315244 0.323243 0.273418
O O3 0.879696 0.379696 0.750000
O O4 0.887643 0.500000 0.000000
O O5 0.000000 0.360203 0.000000
O O6 0.371897 0.503772 0.269967
O O7 0.394346 0.605655 0.000000
#
# Coordination Sequence:
#
# PCOD9551519 Si02
#       3
#     8  16  16
#     4  12  24  43  78 115 142 208 268 322 396 492
#     4  11  21  39  64 106 159 204 253 331 408 465
#     4   9  22  48  78 112 159 208 260 328 397 466
#
# _framework density 25.620995000000001
#
# number of rings (size 3 to 8) (size 9 to 14) (size 15 to 20)
#    0.000    1.600    4.000    2.400    5.600    0.000 
#   10.800    0.000    0.000    4.800    0.000    5.600 
#    0.000    0.000    0.000    0.000    0.000    0.000 
#
# Total GULP energy -112330.629203 kJ/mol
# GULP energy per Si atom -5616.531460 kJ/mol
# Density = 2.556268 g / cm^3
# Si number density = 25.620995 Si / 1000 Ang^3
#
#
#
# Elastic Constant Matrix: (Units=GPa)
#
#
# Indices 1 2 3 4 5 6 
#
# 1 173.0057 106.4369 30.6069 0.0000 0.0000 0.0000
# 2 106.4369 173.0085 30.6068 0.0000 0.0000 0.0000
# 3 30.6069 30.6068 168.2587 0.0000 0.0000 0.0000
# 4 0.0000 0.0000 0.0000 30.8960 0.0000 0.0000
# 5 0.0000 0.0000 0.0000 0.0000 30.8969 0.0000
# 6 0.0000 0.0000 0.0000 0.0000 0.0000 37.8436
#
#
#
# Elastic Compliance Matrix: (Units=1/GPa)
#
#
# Indices 1 2 3 4 5 6 
#
# 1 0.009374 -0.005647 -0.000678 0.000000 0.000000 0.000000
# 2 -0.005647 0.009374 -0.000678 0.000000 0.000000 0.000000
# 3 -0.000678 -0.000678 0.006190 0.000000 0.000000 0.000000
# 4 0.000000 0.000000 0.000000 0.032367 0.000000 0.000000
# 5 0.000000 0.000000 0.000000 0.000000 0.032366 0.000000
# 6 0.000000 0.000000 0.000000 0.000000 0.000000 0.026425
#
#
# Mechanical properties :
#
#
# Convention : Reuss Voigt Hill
#
# Bulk Modulus (GPa) = 91.47359 94.39713 92.93536
# Shear Modulus (GPa) = 37.38425 43.03545 40.20985
#
# Velocity S-wave (km/s) = 3.82399 4.10285 3.96588
# Velocity P-wave (km/s) = 7.43487 7.70508 7.57118
#
# Compressibility (1/GPa) = 0.01093212
#
# Stress axis : x y z
#
# Youngs Moduli (GPa) = 106.67266 106.67447 161.55409
#
# Poissons Ratio (x) = 0.60243 0.10953
# Poissons Ratio (y) = 0.60242 0.10952
# Poissons Ratio (z) = 0.07232 0.07232
#
# Static dielectric constant tensor:
#      x y z
#    x 2.000350 0.000000 0.000000 
#    y 0.000000 2.000340 0.000000 
#    z 0.000000 0.000000 1.980700 
# 
# From -- ./inp_files/1454.got.cif
#   From: 2010.05.17/outbox.cif.g08.bks.cpg/sg97_1_cif.got.tgz:1454.got - 2010.06.03 19:55:32.
