data_PCOD9551382
_publ_section_title
;
Structure prediction by ZEFSAII (Michael W. Deem and Ramdas Pophale) SiO2 
 PCOD9551382
Probable space group: I 4 2 2 
;
_chemical_formula_sum "Si O2"
_cell_formula_units_Z 96
_cell_length_a 22.857500
_cell_length_b 22.857500
_cell_length_c 9.273297
_cell_angle_alpha 90.000000
_cell_angle_beta 90.000000
_cell_angle_gamma 90.000000
_cell_volume 4844.975957
_symmetry_space_group_name_H-M "I 4 2 2 "
_symmetry_group_IT_number 97
_symmetry_cell_setting 'tetragonal'
loop_
_space_group_symop_operation_xyz
x,y,z
-y,x,z
-x,-y,z
y,-x,z
x,-y,-z
-x,y,-z
y,x,-z
-y,-x,-z
1/2+x,1/2+y,1/2+z
1/2-y,1/2+x,1/2+z
1/2-x,1/2-y,1/2+z
1/2+y,1/2-x,1/2+z
1/2+x,1/2-y,1/2-z
1/2-x,1/2+y,1/2-z
1/2+y,1/2+x,1/2-z
1/2-y,1/2-x,1/2-z
loop_
_atom_site_type_symbol
_atom_site_label
_atom_site_fract_x
_atom_site_fract_y
_atom_site_fract_z
Si Si1 0.142826 0.361817 0.903430
Si Si2 0.229664 0.807111 0.660645
Si Si3 0.936637 0.152703 0.573179
Si Si4 0.620119 0.655405 0.650288
Si Si5 0.226090 0.438616 0.428163
Si Si6 0.210222 0.556932 0.902115
O O1 0.117222 0.382779 0.750000
O O2 0.209143 0.341013 0.862094
O O3 0.097340 0.315701 0.966571
O O4 0.158755 0.403823 0.034870
O O5 0.208548 0.791453 0.500000
O O6 0.248865 0.748865 0.750000
O O7 0.180923 0.841146 0.756840
O O8 0.888978 0.111023 0.500000
O O9 0.931274 0.136376 0.741451
O O10 0.921023 0.222266 0.572939
O O11 0.000000 0.145924 0.500000
O O12 0.622078 0.622078 0.500000
O O13 0.604984 0.720688 0.601547
O O14 0.243938 0.500000 0.500000
O O15 0.202330 0.452360 0.267901
O O16 0.208517 0.500000 0.000000
#
# Coordination Sequence:
#
# PCOD9551382 Si02
#       6
#    16  16  16  16  16  16
#     4  11  21  34  56  84 119 157 195 245 303 365
#     4  11  20  32  53  85 122 156 195 243 306 374
#     4  10  22  39  60  83 113 155 201 252 314 381
#     4  11  22  36  58  86 118 154 199 257 313 374
#     4  11  23  38  57  86 125 166 205 248 306 382
#     4  10  21  38  59  85 115 154 206 259 311 366
#
# _framework density 19.814339
#
# number of rings (size 3 to 8) (size 9 to 14) (size 15 to 20)
#    0.000    1.333    0.000    8.500    0.000    4.167 
#    0.000    0.000    0.000    0.500    0.000    4.667 
#    0.000    0.000    0.000    0.000    0.000    0.000 
#
# Total GULP energy -267469.390888 kJ/mol
# GULP energy per Si atom -5572.278977 kJ/mol
# Density = 1.976924 g / cm^3
# Si number density = 19.814339 Si / 1000 Ang^3
#
#
#
# Elastic Constant Matrix: (Units=GPa)
#
#
# Indices 1 2 3 4 5 6 
#
# 1 29.8990 9.6399 12.2044 0.0000 0.0000 0.0000
# 2 9.6399 29.8985 12.2056 0.0000 0.0000 0.0000
# 3 12.2044 12.2056 157.7525 0.0000 0.0000 0.0000
# 4 0.0000 0.0000 0.0000 35.6201 0.0000 0.0000
# 5 0.0000 0.0000 0.0000 0.0000 35.6210 0.0000
# 6 0.0000 0.0000 0.0000 0.0000 0.0000 4.8194
#
#
#
# Elastic Compliance Matrix: (Units=1/GPa)
#
#
# Indices 1 2 3 4 5 6 
#
# 1 0.037960 -0.011400 -0.002055 0.000000 0.000000 0.000000
# 2 -0.011400 0.037961 -0.002055 0.000000 0.000000 0.000000
# 3 -0.002055 -0.002055 0.006657 0.000000 0.000000 0.000000
# 4 0.000000 0.000000 0.000000 0.028074 0.000000 0.000000
# 5 0.000000 0.000000 0.000000 0.000000 0.028073 0.000000
# 6 0.000000 0.000000 0.000000 0.000000 0.000000 0.207496
#
#
# Mechanical properties :
#
#
# Convention : Reuss Voigt Hill
#
# Bulk Modulus (GPa) = 19.39563 31.73888 25.56725
# Shear Modulus (GPa) = 12.67660 27.44545 20.06102
#
# Velocity S-wave (km/s) = 2.53211 3.72577 3.18535
# Velocity P-wave (km/s) = 4.28471 5.87890 5.14393
#
# Compressibility (1/GPa) = 0.05155802
#
# Stress axis : x y z
#
# Youngs Moduli (GPa) = 26.34336 26.34272 150.21749
#
# Poissons Ratio (x) = 0.30032 0.30865
# Poissons Ratio (y) = 0.30032 0.30872
# Poissons Ratio (z) = 0.05413 0.05414
#
# Static dielectric constant tensor:
#      x y z
#    x 1.681210 0.000000 0.000000 
#    y 0.000000 1.681210 0.000000 
#    z 0.000000 0.000000 1.768790 
# 
# From -- ./inp_files/2463.got.cif
#   From: 2010.05.17/outbox.cif.g08.bks.cpg/sg97_2_cif.got.tgz:2463.got - 2010.06.03 19:55:32.
