data_PCOD9551821
_publ_section_title
;
Structure prediction by ZEFSAII (Michael W. Deem and Ramdas Pophale) SiO2 
 PCOD9551821
Probable space group: I 41 2 2
;
_chemical_formula_sum "Si O2"
_cell_formula_units_Z 96
_cell_length_a 23.284925
_cell_length_b 23.284925
_cell_length_c 8.447102
_cell_angle_alpha 90.000000
_cell_angle_beta 90.000000
_cell_angle_gamma 90.000000
_cell_volume 4579.915078
_symmetry_space_group_name_H-M "I 41 2 2"
_symmetry_group_IT_number 98
_symmetry_cell_setting 'tetragonal'
loop_
_space_group_symop_operation_xyz
x,y,z
-y,1/2+x,1/4+z
-x,-y,z
y,1/2-x,1/4+z
x,1/2-y,1/4-z
-x,1/2+y,1/4-z
y,x,-z
-y,-x,-z
1/2+x,1/2+y,1/2+z
1/2-y,x,3/4+z
1/2-x,1/2-y,1/2+z
1/2+y,-x,3/4+z
1/2+x,-y,3/4-z
1/2-x,y,3/4-z
1/2+y,1/2+x,1/2-z
1/2-y,1/2-x,1/2-z
loop_
_atom_site_type_symbol
_atom_site_label
_atom_site_fract_x
_atom_site_fract_y
_atom_site_fract_z
Si Si1 0.480018 0.625928 0.708275
Si Si2 0.959740 0.750000 0.125000
Si Si3 0.919838 0.686370 0.437721
Si Si4 0.047988 0.809195 0.702492
Si Si5 0.250000 0.322499 0.875000
Si Si6 0.080328 0.919673 0.500000
Si Si7 0.391289 0.690762 0.536922
Si Si8 0.926731 0.926731 0.000000
O O1 0.508671 0.691193 0.696056
O O2 0.416818 0.641097 0.647344
O O3 0.513143 0.586683 0.582018
O O4 0.471243 0.590382 0.871219
O O5 0.926687 0.724264 0.276972
O O6 0.864987 0.706679 0.533964
O O7 0.915735 0.620737 0.383934
O O8 0.978715 0.690415 0.537207
O O9 0.067143 0.750000 0.625000
O O10 0.072441 0.861848 0.602214
O O11 0.069646 0.808273 0.882026
O O12 0.216426 0.283575 0.750000
O O13 0.394917 0.750000 0.625000
O O14 0.326716 0.673285 0.500000
#
# Coordination Sequence:
#
# PCOD9551821 Si02
#       8
#    16   8  16  16   8   8  16   8
#     4  11  22  43  70 109 141 190 236 295 365 434
#     4  10  20  41  78 102 134 187 248 298 342 430
#     4  11  24  45  72 101 137 188 238 296 348 429
#     4  12  24  43  70 104 139 184 243 292 359 420
#     4  12  32  47  68 106 150 187 232 296 362 420
#     4  12  26  40  71 110 142 184 242 306 354 436
#     4  12  23  45  72 100 139 191 239 294 361 433
#     4  10  24  42  77 102 140 190 240 288 356 427
#
# _framework density 20.961089000000001
#
# number of rings (size 3 to 8) (size 9 to 14) (size 15 to 20)
#    0.000    0.667    6.667    2.000    5.833    0.000 
#    0.000    5.417    0.000    0.000    0.000    0.000 
#    0.000    0.000    0.000    0.000    0.000    0.000 
#
# Total GULP energy -267829.522755 kJ/mol
# GULP energy per Si atom -5579.781724 kJ/mol
# Density = 2.091338 g / cm^3
# Si number density = 20.961089 Si / 1000 Ang^3
#
#
#
# Elastic Constant Matrix: (Units=GPa)
#
#
# Indices 1 2 3 4 5 6 
#
# 1 70.4005 81.3562 52.6074 0.0000 0.0000 0.0000
# 2 81.3562 70.3875 52.6058 0.0000 0.0000 0.0000
# 3 52.6074 52.6058 107.1658 0.0000 0.0000 0.0000
# 4 0.0000 0.0000 0.0000 30.1410 0.0000 0.0000
# 5 0.0000 0.0000 0.0000 0.0000 30.1485 0.0000
# 6 0.0000 0.0000 0.0000 0.0000 0.0000 15.5010
#
#
#
# Elastic Compliance Matrix: (Units=1/GPa)
#
#
# Indices 1 2 3 4 5 6 
#
# 1 -0.040611 0.050606 -0.004906 0.000000 0.000000 0.000000
# 2 0.050606 -0.040622 -0.004902 0.000000 0.000000 0.000000
# 3 -0.004906 -0.004902 0.014146 0.000000 0.000000 0.000000
# 4 0.000000 0.000000 0.000000 0.033177 0.000000 0.000000
# 5 0.000000 0.000000 0.000000 0.000000 0.033169 0.000000
# 6 0.000000 0.000000 0.000000 0.000000 0.000000 0.064512
#
#
# Mechanical properties :
#
#
# Convention : Reuss Voigt Hill
#
# Bulk Modulus (GPa) = 68.91842 69.01030 68.96436
# Shear Modulus (GPa) = -384.94879 19.25041 -182.84919
#
# Velocity S-wave (km/s) = -13.56643 3.03378 -9.34998
# Velocity P-wave (km/s) = 14.57555 6.72802 9.14277
#
# Compressibility (1/GPa) = 0.01450991
#
# Stress axis : x y z
#
# Youngs Moduli (GPa) = -24.62373 -24.61746 70.69203
#
# Poissons Ratio (x) = 1.24580 0.34680
# Poissons Ratio (y) = 1.24611 0.34654
# Poissons Ratio (z) = -0.12080 -0.12068
#
# Static dielectric constant tensor:
#      x y z
#    x 1.769520 0.000000 0.000000 
#    y 0.000000 1.769520 0.000000 
#    z 0.000000 0.000000 1.773690 
# 
# From -- ./inp_files/3803.got.cif
#   From: 2010.05.17/outbox.cif.g08.bks.cpg/sg98_2_cif.got.tgz:3803.got - 2010.06.03 20:00:51.
