data_PCOD9551217
_publ_section_title
;
Structure prediction by ZEFSAII (Michael W. Deem and Ramdas Pophale) SiO2 
 PCOD9551217
Probable space group: I 4 2 2 
;
_chemical_formula_sum "Si O2"
_cell_formula_units_Z 96
_cell_length_a 32.429116
_cell_length_b 32.429116
_cell_length_c 5.349657
_cell_angle_alpha 90.000000
_cell_angle_beta 90.000000
_cell_angle_gamma 90.000000
_cell_volume 5625.953755
_symmetry_space_group_name_H-M "I 4 2 2 "
_symmetry_group_IT_number 97
_symmetry_cell_setting 'tetragonal'
loop_
_space_group_symop_operation_xyz
x,y,z
-y,x,z
-x,-y,z
y,-x,z
x,-y,-z
-x,y,-z
y,x,-z
-y,-x,-z
1/2+x,1/2+y,1/2+z
1/2-y,1/2+x,1/2+z
1/2-x,1/2-y,1/2+z
1/2+y,1/2-x,1/2+z
1/2+x,1/2-y,1/2-z
1/2-x,1/2+y,1/2-z
1/2+y,1/2+x,1/2-z
1/2-y,1/2-x,1/2-z
loop_
_atom_site_type_symbol
_atom_site_label
_atom_site_fract_x
_atom_site_fract_y
_atom_site_fract_z
Si Si1 0.686716 0.424808 0.252572
Si Si2 0.345790 0.500000 0.000000
Si Si3 0.587932 0.049676 0.497737
Si Si4 0.057062 0.112902 0.121089
Si Si5 0.550043 0.231587 0.494744
Si Si6 0.316881 0.950262 0.505838
Si Si7 0.868581 0.868581 0.500000
O O1 0.647333 0.439040 0.411043
O O2 0.726000 0.427911 0.428677
O O3 0.685534 0.461923 0.051328
O O4 0.674647 0.381067 0.128151
O O5 0.376802 0.516992 0.784936
O O6 0.565200 0.065200 0.250000
O O7 0.635819 0.063113 0.480908
O O8 0.586421 0.000000 0.500000
O O9 0.567579 0.067579 0.750000
O O10 0.095580 0.123471 0.299888
O O11 0.068507 0.068507 0.000000
O O12 0.500000 0.238130 0.500000
O O13 0.560774 0.200997 0.723357
O O14 0.562037 0.211906 0.228527
O O15 0.317383 0.000000 0.500000
#
# Coordination Sequence:
#
# PCOD9551217 Si02
#       7
#    16   8  16  16  16  16   8
#     4  10  19  28  45  65  94 126 164 202 247 306
#     4  10  18  26  42  62  88 113 160 200 243 304
#     4  11  22  37  57  78 109 145 189 239 277 309
#     4   9  17  29  39  59  86 116 148 193 249 302
#     4  10  19  29  48  69  99 134 174 212 249 311
#     4   9  20  34  47  72 102 136 175 213 264 309
#     4   8  18  30  42  58  94 121 158 192 258 298
#
# _framework density 17.063773000000001
#
# number of rings (size 3 to 8) (size 9 to 14) (size 15 to 20)
#    0.000    2.333    0.000    3.000    8.167    3.667 
#    0.000    0.000    0.000    0.000    0.000    0.000 
#    0.000 1226.000    0.000    4.500    4.667    0.167 
#
# Total GULP energy -267212.767598 kJ/mol
# GULP energy per Si atom -5566.932658 kJ/mol
# Density = 1.702493 g / cm^3
# Si number density = 17.063773 Si / 1000 Ang^3
#
#
#
# Elastic Constant Matrix: (Units=GPa)
#
#
# Indices 1 2 3 4 5 6 
#
# 1 77.6618 25.9075 30.4598 0.0000 0.0000 0.0000
# 2 25.9075 77.6618 30.4598 0.0000 0.0000 0.0000
# 3 30.4598 30.4598 86.6346 0.0000 0.0000 0.0000
# 4 0.0000 0.0000 0.0000 26.8231 0.0000 0.0000
# 5 0.0000 0.0000 0.0000 0.0000 26.8231 0.0000
# 6 0.0000 0.0000 0.0000 0.0000 0.0000 0.8363
#
#
#
# Elastic Compliance Matrix: (Units=1/GPa)
#
#
# Indices 1 2 3 4 5 6 
#
# 1 0.015747 -0.003575 -0.004280 0.000000 0.000000 0.000000
# 2 -0.003575 0.015747 -0.004280 0.000000 0.000000 0.000000
# 3 -0.004280 -0.004280 0.014552 0.000000 0.000000 0.000000
# 4 0.000000 0.000000 0.000000 0.037281 0.000000 0.000000
# 5 0.000000 0.000000 0.000000 0.000000 0.037281 0.000000
# 6 0.000000 0.000000 0.000000 0.000000 0.000000 1.195686
#
#
# Mechanical properties :
#
#
# Convention : Reuss Voigt Hill
#
# Bulk Modulus (GPa) = 45.91691 46.17918 46.04805
# Shear Modulus (GPa) = 3.70968 21.23857 12.47413
#
# Velocity S-wave (km/s) = 1.47605 3.53180 2.70669
# Velocity P-wave (km/s) = 5.46556 6.61460 6.06734
#
# Compressibility (1/GPa) = 0.02177847
#
# Stress axis : x y z
#
# Youngs Moduli (GPa) = 63.50244 63.50244 68.71806
#
# Poissons Ratio (x) = 0.22700 0.29410
# Poissons Ratio (y) = 0.22700 0.29410
# Poissons Ratio (z) = 0.27178 0.27178
#
# Static dielectric constant tensor:
#      x y z
#    x 1.481520 0.000000 0.000000 
#    y 0.000000 1.481520 0.000000 
#    z 0.000000 0.000000 1.966290 
# 
# From -- ./inp_files/1121.got.cif
#   From: 2010.05.17/outbox.cif.g08.bks.cpg/sg97_1_cif.got.tgz:1121.got - 2010.06.03 19:55:32.
