data_PCOD9551385
_publ_section_title
;
Structure prediction by ZEFSAII (Michael W. Deem and Ramdas Pophale) SiO2 
 PCOD9551385
Probable space group: I 4 2 2 
;
_chemical_formula_sum "Si O2"
_cell_formula_units_Z 36
_cell_length_a 10.911849
_cell_length_b 10.911849
_cell_length_c 11.538368
_cell_angle_alpha 90.000000
_cell_angle_beta 90.000000
_cell_angle_gamma 90.000000
_cell_volume 1373.855577
_symmetry_space_group_name_H-M "I 4 2 2 "
_symmetry_group_IT_number 97
_symmetry_cell_setting 'tetragonal'
loop_
_space_group_symop_operation_xyz
x,y,z
-y,x,z
-x,-y,z
y,-x,z
x,-y,-z
-x,y,-z
y,x,-z
-y,-x,-z
1/2+x,1/2+y,1/2+z
1/2-y,1/2+x,1/2+z
1/2-x,1/2-y,1/2+z
1/2+y,1/2-x,1/2+z
1/2+x,1/2-y,1/2-z
1/2-x,1/2+y,1/2-z
1/2+y,1/2+x,1/2-z
1/2-y,1/2-x,1/2-z
loop_
_atom_site_type_symbol
_atom_site_label
_atom_site_fract_x
_atom_site_fract_y
_atom_site_fract_z
Si Si1 0.000000 0.500000 0.250000
Si Si2 0.228869 0.574934 0.888235
Si Si3 0.327344 0.401989 0.358981
O O1 0.118871 0.502397 0.169787
O O2 0.319446 0.600838 0.782006
O O3 0.163380 0.706377 0.907303
O O4 0.273194 0.500000 0.000000
O O5 0.454587 0.337551 0.389089
#
# Coordination Sequence:
#
# PCOD9551385 Si02
#       3
#     4  16  16
#     4   8  18  36  56  86 120 158 210 266 324 390
#     4  10  21  38  64  94 129 175 228 276 333 407
#     4   9  20  40  65  97 137 177 221 282 349 405
#
# _framework density 26.203626
#
# number of rings (size 3 to 8) (size 9 to 14) (size 15 to 20)
#    0.000    3.111    0.000    0.667    0.000   16.000 
#    0.000   11.111    0.000    2.667    0.000   49.778 
#    0.000    0.000    0.000    0.000    0.000    0.000 
#
# Total GULP energy -100855.449259 kJ/mol
# GULP energy per Si atom -5603.080514 kJ/mol
# Density = 2.614399 g / cm^3
# Si number density = 26.203626 Si / 1000 Ang^3
#
#
#
# Elastic Constant Matrix: (Units=GPa)
#
#
# Indices 1 2 3 4 5 6 
#
# 1 123.0038 73.7605 57.3491 0.0000 0.0000 0.0000
# 2 73.7605 123.0038 57.3492 0.0000 0.0000 0.0000
# 3 57.3491 57.3492 192.7747 0.0000 0.0000 0.0000
# 4 0.0000 0.0000 0.0000 61.4940 0.0000 0.0000
# 5 0.0000 0.0000 0.0000 0.0000 61.4940 0.0000
# 6 0.0000 0.0000 0.0000 0.0000 0.0000 34.3251
#
#
#
# Elastic Compliance Matrix: (Units=1/GPa)
#
#
# Indices 1 2 3 4 5 6 
#
# 1 0.013228 -0.007079 -0.001829 0.000000 0.000000 0.000000
# 2 -0.007079 0.013228 -0.001829 0.000000 0.000000 0.000000
# 3 -0.001829 -0.001829 0.006276 0.000000 0.000000 0.000000
# 4 0.000000 0.000000 0.000000 0.016262 0.000000 0.000000
# 5 0.000000 0.000000 0.000000 0.000000 0.016262 0.000000
# 6 0.000000 0.000000 0.000000 0.000000 0.000000 0.029133
#
#
# Mechanical properties :
#
#
# Convention : Reuss Voigt Hill
#
# Bulk Modulus (GPa) = 88.84049 90.63332 89.73690
# Shear Modulus (GPa) = 41.80055 48.15083 44.97569
#
# Velocity S-wave (km/s) = 3.99835 4.29133 4.14743
# Velocity P-wave (km/s) = 7.43594 7.69527 7.56672
#
# Compressibility (1/GPa) = 0.01125613
#
# Stress axis : x y z
#
# Youngs Moduli (GPa) = 75.59782 75.59782 159.34459
#
# Poissons Ratio (x) = 0.53519 0.29146
# Poissons Ratio (y) = 0.53519 0.29146
# Poissons Ratio (z) = 0.13828 0.13828
#
# Static dielectric constant tensor:
#      x y z
#    x 2.026220 0.000000 0.000000 
#    y 0.000000 2.026220 0.000000 
#    z 0.000000 0.000000 2.229860 
# 
# From -- ./inp_files/2915.got.cif
#   From: 2010.05.17/outbox.cif.g08.bks.cpg/sg97_2_cif.got.tgz:2915.got - 2010.06.03 19:55:32.
