data_PCOD9551201
_publ_section_title
;
Structure prediction by ZEFSAII (Michael W. Deem and Ramdas Pophale) SiO2 
 PCOD9551201
Probable space group: I 4 2 2 
;
_chemical_formula_sum "Si O2"
_cell_formula_units_Z 128
_cell_length_a 17.552909
_cell_length_b 17.552909
_cell_length_c 24.994480
_cell_angle_alpha 90.000000
_cell_angle_beta 90.000000
_cell_angle_gamma 90.000000
_cell_volume 7700.914622
_symmetry_space_group_name_H-M "I 4 2 2 "
_symmetry_group_IT_number 97
_symmetry_cell_setting 'tetragonal'
loop_
_space_group_symop_operation_xyz
x,y,z
-y,x,z
-x,-y,z
y,-x,z
x,-y,-z
-x,y,-z
y,x,-z
-y,-x,-z
1/2+x,1/2+y,1/2+z
1/2-y,1/2+x,1/2+z
1/2-x,1/2-y,1/2+z
1/2+y,1/2-x,1/2+z
1/2+x,1/2-y,1/2-z
1/2-x,1/2+y,1/2-z
1/2+y,1/2+x,1/2-z
1/2-y,1/2-x,1/2-z
loop_
_atom_site_type_symbol
_atom_site_label
_atom_site_fract_x
_atom_site_fract_y
_atom_site_fract_z
Si Si1 0.176232 0.424373 0.604891
Si Si2 0.211048 0.663479 0.492930
Si Si3 0.660536 0.795884 0.191294
Si Si4 0.652901 0.091542 0.103506
Si Si5 0.388318 0.992747 0.563637
Si Si6 0.811452 0.865804 0.448104
Si Si7 0.153746 0.755171 0.646433
Si Si8 0.014936 0.238809 0.628823
O O1 0.222867 0.398579 0.553021
O O2 0.188268 0.361239 0.650337
O O3 0.189790 0.511746 0.620496
O O4 0.088766 0.414316 0.584947
O O5 0.285630 0.714371 0.500000
O O6 0.184968 0.622106 0.546804
O O7 0.147857 0.725271 0.470939
O O8 0.670374 0.829626 0.250000
O O9 0.709390 0.718435 0.184127
O O10 0.575308 0.773374 0.171280
O O11 0.564280 0.073188 0.092388
O O12 0.658947 0.163686 0.142995
O O13 0.397380 0.000000 0.500000
O O14 0.301920 0.004061 0.583756
O O15 0.864431 0.864431 0.500000
O O16 0.826663 0.791483 0.411722
O O17 0.819602 0.936086 0.407400
O O18 0.065849 0.779973 0.655492
#
# Coordination Sequence:
#
# PCOD9551201 Si02
#       8
#    16  16  16  16  16  16  16  16
#     4  11  20  31  46  75 106 141 176 207 260 307
#     4  11  17  29  43  67 106 146 174 200 248 295
#     4  10  21  42  58  69 102 141 175 233 277 306
#     4  11  19  27  47  76 112 138 165 212 244 321
#     4  10  17  26  42  73 114 147 170 195 235 307
#     4  10  16  29  48  72 113 151 172 201 250 308
#     4  10  19  34  54  78 106 136 179 223 258 314
#     4   9  19  31  53  79 104 141 188 208 259 322
#
# _framework density 16.621402
#
# number of rings (size 3 to 8) (size 9 to 14) (size 15 to 20)
#    0.000    1.750    7.500    0.750    1.750    0.500 
#    2.250    0.000    0.000   12.750    0.000    3.500 
#    0.000   20.500    0.000    0.000    0.000    0.000 
#
# Total GULP energy -356319.617999 kJ/mol
# GULP energy per Si atom -5567.494031 kJ/mol
# Density = 1.658357 g / cm^3
# Si number density = 16.621402 Si / 1000 Ang^3
#
#
#
# Elastic Constant Matrix: (Units=GPa)
#
#
# Indices 1 2 3 4 5 6 
#
# 1 72.1880 24.4429 8.2301 0.0000 0.0000 0.0000
# 2 24.4429 72.1878 8.2301 0.0000 0.0000 0.0000
# 3 8.2301 8.2301 49.8815 0.0000 0.0000 0.0000
# 4 0.0000 0.0000 0.0000 7.2923 0.0000 0.0000
# 5 0.0000 0.0000 0.0000 0.0000 7.2924 0.0000
# 6 0.0000 0.0000 0.0000 0.0000 0.0000 14.0388
#
#
#
# Elastic Compliance Matrix: (Units=1/GPa)
#
#
# Indices 1 2 3 4 5 6 
#
# 1 0.015796 -0.005148 -0.001757 0.000000 0.000000 0.000000
# 2 -0.005148 0.015796 -0.001757 0.000000 0.000000 0.000000
# 3 -0.001757 -0.001757 0.020627 0.000000 0.000000 0.000000
# 4 0.000000 0.000000 0.000000 0.137131 0.000000 0.000000
# 5 0.000000 0.000000 0.000000 0.000000 0.137129 0.000000
# 6 0.000000 0.000000 0.000000 0.000000 0.000000 0.071231
#
#
# Mechanical properties :
#
#
# Convention : Reuss Voigt Hill
#
# Bulk Modulus (GPa) = 28.65676 30.67372 29.66524
# Shear Modulus (GPa) = 11.71876 15.94832 13.83354
#
# Velocity S-wave (km/s) = 2.65814 3.10095 2.88804
# Velocity P-wave (km/s) = 5.16713 5.59603 5.38585
#
# Compressibility (1/GPa) = 0.03489578
#
# Stress axis : x y z
#
# Youngs Moduli (GPa) = 63.30622 63.30601 48.47955
#
# Poissons Ratio (x) = 0.32592 0.08517
# Poissons Ratio (y) = 0.32592 0.08517
# Poissons Ratio (z) = 0.11122 0.11122
#
# Static dielectric constant tensor:
#      x y z
#    x 1.617550 0.000000 0.000000 
#    y 0.000000 1.617550 0.000000 
#    z 0.000000 0.000000 1.556930 
# 
# From -- ./inp_files/7421.got.cif
#   From: 2010.05.17/outbox.cif.g08.bks.cpg/sg97_4_cif.got.tgz:7421.got - 2010.06.03 19:55:32.
