data_PCOD9551378
_publ_section_title
;
Structure prediction by ZEFSAII (Michael W. Deem and Ramdas Pophale) SiO2 
 PCOD9551378
Probable space group: I 4 2 2 
;
_chemical_formula_sum "Si O2"
_cell_formula_units_Z 88
_cell_length_a 11.190553
_cell_length_b 11.190553
_cell_length_c 31.559715
_cell_angle_alpha 90.000000
_cell_angle_beta 90.000000
_cell_angle_gamma 90.000000
_cell_volume 3952.175027
_symmetry_space_group_name_H-M "I 4 2 2 "
_symmetry_group_IT_number 97
_symmetry_cell_setting 'tetragonal'
loop_
_space_group_symop_operation_xyz
x,y,z
-y,x,z
-x,-y,z
y,-x,z
x,-y,-z
-x,y,-z
y,x,-z
-y,-x,-z
1/2+x,1/2+y,1/2+z
1/2-y,1/2+x,1/2+z
1/2-x,1/2-y,1/2+z
1/2+y,1/2-x,1/2+z
1/2+x,1/2-y,1/2-z
1/2-x,1/2+y,1/2-z
1/2+y,1/2+x,1/2-z
1/2-y,1/2-x,1/2-z
loop_
_atom_site_type_symbol
_atom_site_label
_atom_site_fract_x
_atom_site_fract_y
_atom_site_fract_z
Si Si1 0.921588 0.603799 0.351731
Si Si2 0.202319 0.981707 0.093573
Si Si3 0.184748 0.025192 0.391665
Si Si4 0.666001 0.399041 0.289559
Si Si5 0.201626 0.000000 0.000000
Si Si6 0.806824 0.173449 0.692459
O O1 0.808304 0.547741 0.374967
O O2 0.879555 0.705402 0.318604
O O3 0.000000 0.500000 0.331755
O O4 0.999342 0.675103 0.387768
O O5 0.258715 0.991291 0.046189
O O6 0.103570 0.875116 0.098368
O O7 0.165306 0.075982 0.343091
O O8 0.098163 0.128299 0.410184
O O9 0.657163 0.537458 0.300670
O O10 0.776290 0.328351 0.309407
O O11 0.673750 0.378763 0.238863
O O12 0.114017 0.885984 0.000000
#
# Coordination Sequence:
#
# PCOD9551378 Si02
#       6
#    16  16  16  16   8  16
#     4  11  24  34  55  86 121 151 194 251 298 361
#     4   9  19  36  60  89 124 158 193 236 292 354
#     4   9  19  37  58  75 105 154 195 237 294 358
#     4  10  21  38  58  79 104 146 199 253 315 374
#     4   7  12  30  59  86 114 160 199 225 276 350
#     4  10  22  38  58  80 108 150 201 255 308 368
#
# _framework density 22.266220000000001
#
# number of rings (size 3 to 8) (size 9 to 14) (size 15 to 20)
#    0.000    2.455    0.000    3.273    7.636    2.909 
#    0.000    3.182    0.000    0.000    0.000    0.000 
#    0.000    0.000    0.000    0.000    0.000    0.000 
#
# Total GULP energy -244969.730012 kJ/mol
# GULP energy per Si atom -5567.493864 kJ/mol
# Density = 2.221554 g / cm^3
# Si number density = 22.266220 Si / 1000 Ang^3
#
#
#
# Elastic Constant Matrix: (Units=GPa)
#
#
# Indices 1 2 3 4 5 6 
#
# 1 82.8578 45.8597 19.5629 0.0000 0.0000 0.0000
# 2 45.8597 82.8579 19.5628 0.0000 0.0000 0.0000
# 3 19.5629 19.5628 66.3919 0.0000 0.0000 0.0000
# 4 0.0000 0.0000 0.0000 11.6161 0.0000 0.0000
# 5 0.0000 0.0000 0.0000 0.0000 11.6159 0.0000
# 6 0.0000 0.0000 0.0000 0.0000 0.0000 35.8467
#
#
#
# Elastic Compliance Matrix: (Units=1/GPa)
#
#
# Indices 1 2 3 4 5 6 
#
# 1 0.017781 -0.009248 -0.002514 0.000000 0.000000 0.000000
# 2 -0.009248 0.017781 -0.002514 0.000000 0.000000 0.000000
# 3 -0.002514 -0.002514 0.016544 0.000000 0.000000 0.000000
# 4 0.000000 0.000000 0.000000 0.086087 0.000000 0.000000
# 5 0.000000 0.000000 0.000000 0.000000 0.086089 0.000000
# 6 0.000000 0.000000 0.000000 0.000000 0.000000 0.027897
#
#
# Mechanical properties :
#
#
# Convention : Reuss Voigt Hill
#
# Bulk Modulus (GPa) = 42.45783 44.67539 43.56661
# Shear Modulus (GPa) = 17.32612 21.62389 19.47501
#
# Velocity S-wave (km/s) = 2.79253 3.11971 2.96065
# Velocity P-wave (km/s) = 5.43206 5.75192 5.59428
#
# Compressibility (1/GPa) = 0.02355278
#
# Stress axis : x y z
#
# Youngs Moduli (GPa) = 56.24034 56.24046 60.44549
#
# Poissons Ratio (x) = 0.52009 0.15198
# Poissons Ratio (y) = 0.52009 0.15198
# Poissons Ratio (z) = 0.14141 0.14141
#
# Static dielectric constant tensor:
#      x y z
#    x 1.891330 0.000000 0.000000 
#    y 0.000000 1.891330 0.000000 
#    z 0.000000 0.000000 1.865520 
# 
# From -- ./inp_files/8025.got.cif
#   From: 2010.05.17/outbox.cif.g08.bks.cpg/sg97_5_cif.got.tgz:8025.got - 2010.06.03 19:55:32.
