data_PCOD9551311
_publ_section_title
;
Structure prediction by ZEFSAII (Michael W. Deem and Ramdas Pophale) SiO2 
 PCOD9551311
Probable space group: I 4 2 2 
;
_chemical_formula_sum "Si O2"
_cell_formula_units_Z 56
_cell_length_a 17.214236
_cell_length_b 17.214236
_cell_length_c 9.242934
_cell_angle_alpha 90.000000
_cell_angle_beta 90.000000
_cell_angle_gamma 90.000000
_cell_volume 2738.957903
_symmetry_space_group_name_H-M "I 4 2 2 "
_symmetry_group_IT_number 97
_symmetry_cell_setting 'tetragonal'
loop_
_space_group_symop_operation_xyz
x,y,z
-y,x,z
-x,-y,z
y,-x,z
x,-y,-z
-x,y,-z
y,x,-z
-y,-x,-z
1/2+x,1/2+y,1/2+z
1/2-y,1/2+x,1/2+z
1/2-x,1/2-y,1/2+z
1/2+y,1/2-x,1/2+z
1/2+x,1/2-y,1/2-z
1/2-x,1/2+y,1/2-z
1/2+y,1/2+x,1/2-z
1/2-y,1/2-x,1/2-z
loop_
_atom_site_type_symbol
_atom_site_label
_atom_site_fract_x
_atom_site_fract_y
_atom_site_fract_z
Si Si1 0.404645 0.404645 0.500000
Si Si2 0.915643 0.426605 0.576865
Si Si3 0.736769 0.091749 0.506499
Si Si4 0.317730 0.315297 0.238538
O O1 0.500000 0.393052 0.500000
O O2 0.358264 0.363135 0.367151
O O3 0.876003 0.500000 0.500000
O O4 0.928181 0.428181 0.750000
O O5 0.874251 0.347571 0.533426
O O6 0.000000 0.423375 0.500000
O O7 0.760967 0.118063 0.664431
O O8 0.793239 0.123003 0.383414
O O9 0.735014 0.000000 0.500000
O O10 0.242468 0.257533 0.250000
#
# Coordination Sequence:
#
# PCOD9551311 Si02
#       4
#     8  16  16  16
#     4  11  24  44  74 106 132 169 232 302 350 399
#     4  10  20  35  55  83 119 160 213 271 325 390
#     4  10  22  39  60  84 118 166 210 256 324 406
#     4  11  23  42  62  91 131 168 209 266 341 415
#
# _framework density 20.445733000000001
#
# number of rings (size 3 to 8) (size 9 to 14) (size 15 to 20)
#    0.000    1.571    0.000    6.000    0.000    4.571 
#    0.000   10.000    0.000    8.571    0.000    0.000 
#    0.000    0.000    0.000    0.000    0.000    0.000 
#
# Total GULP energy -155922.757040 kJ/mol
# GULP energy per Si atom -5568.669894 kJ/mol
# Density = 2.039920 g / cm^3
# Si number density = 20.445733 Si / 1000 Ang^3
#
#
#
# Elastic Constant Matrix: (Units=GPa)
#
#
# Indices 1 2 3 4 5 6 
#
# 1 114.6499 45.0209 60.9949 0.0000 0.0000 0.0000
# 2 45.0209 114.6491 60.9952 0.0000 0.0000 0.0000
# 3 60.9949 60.9952 158.5855 0.0000 0.0000 0.0000
# 4 0.0000 0.0000 0.0000 -98.2819 0.0000 0.0000
# 5 0.0000 0.0000 0.0000 0.0000 -98.1978 0.0000
# 6 0.0000 0.0000 0.0000 0.0000 0.0000 32.7541
#
#
#
# Elastic Compliance Matrix: (Units=1/GPa)
#
#
# Indices 1 2 3 4 5 6 
#
# 1 0.011615 -0.002746 -0.003411 0.000000 0.000000 0.000000
# 2 -0.002746 0.011616 -0.003411 0.000000 0.000000 0.000000
# 3 -0.003411 -0.003411 0.008930 0.000000 0.000000 0.000000
# 4 0.000000 0.000000 0.000000 -0.010175 0.000000 0.000000
# 5 0.000000 0.000000 0.000000 0.000000 -0.010184 0.000000
# 6 0.000000 0.000000 0.000000 0.000000 0.000000 0.030531
#
#
# Mechanical properties :
#
#
# Convention : Reuss Voigt Hill
#
# Bulk Modulus (GPa) = 76.78658 80.21182 78.49920
# Shear Modulus (GPa) = 75.97422 -18.02020 28.97701
#
# Velocity S-wave (km/s) = 6.10243 -2.97200 3.76874
# Velocity P-wave (km/s) = 9.34295 5.24782 7.57728
#
# Compressibility (1/GPa) = 0.01302311
#
# Stress axis : x y z
#
# Youngs Moduli (GPa) = 86.09225 86.09126 111.98460
#
# Poissons Ratio (x) = 0.23644 0.38200
# Poissons Ratio (y) = 0.23644 0.38201
# Poissons Ratio (z) = 0.29368 0.29368
#
# Static dielectric constant tensor:
#      x y z
#    x 2.655150 0.000000 0.000000 
#    y 0.000000 2.654420 0.000000 
#    z 0.000000 0.000000 1.719020 
# 
# From -- ./inp_files/1801.got.cif
#   From: 2010.05.17/outbox.cif.g08.bks.cpg/sg97_1_cif.got.tgz:1801.got - 2010.06.03 19:55:32.
