data_PCOD9551005
_publ_section_title
;
Structure prediction by ZEFSAII (Michael W. Deem and Ramdas Pophale) SiO2 
 PCOD9551005
Probable space group: P 43 21 2
;
_chemical_formula_sum "Si O2"
_cell_formula_units_Z 52
_cell_length_a 19.007347
_cell_length_b 19.007347
_cell_length_c 5.458051
_cell_angle_alpha 90.000000
_cell_angle_beta 90.000000
_cell_angle_gamma 90.000000
_cell_volume 1971.880517
_symmetry_space_group_name_H-M "P 43 21 2"
_symmetry_group_IT_number 96
_symmetry_cell_setting 'tetragonal'
loop_
_space_group_symop_operation_xyz
x,y,z
1/2-y,1/2+x,3/4+z
-x,-y,1/2+z
1/2+y,1/2-x,1/4+z
1/2+x,1/2-y,1/4-z
1/2-x,1/2+y,3/4-z
y,x,-z
-y,-x,1/2-z
loop_
_atom_site_type_symbol
_atom_site_label
_atom_site_fract_x
_atom_site_fract_y
_atom_site_fract_z
Si Si1 0.807010 0.095779 0.655229
Si Si2 0.032633 0.401002 0.479890
Si Si3 0.042429 0.704006 0.688993
Si Si4 0.209220 0.307043 0.114609
Si Si5 0.071724 0.928277 0.750000
Si Si6 0.830184 0.975100 0.051949
Si Si7 0.728604 0.867738 0.885380
O O1 0.826566 0.173435 0.750000
O O2 0.729297 0.081602 0.554991
O O3 0.867480 0.083676 0.452058
O O4 0.820049 0.037650 0.858492
O O5 0.077296 0.336672 0.590522
O O6 0.969189 0.423459 0.656164
O O7 0.998347 0.367744 0.231095
O O8 0.108793 0.703619 0.873180
O O9 0.989346 0.768077 0.748817
O O10 0.162690 0.277907 0.887525
O O11 0.284742 0.284742 0.000000
O O12 0.181844 0.278688 0.373775
O O13 0.093345 0.006500 0.662611
O O14 0.803537 0.906487 0.914866
#
# Coordination Sequence:
#
# PCOD9551005 Si02
#       7
#     8   8   8   8   4   8   8
#     4   9  18  31  58  92 131 173 216 287 356 408
#     4  11  25  44  69 101 142 198 246 293 346 421
#     4  10  23  38  62  91 132 179 236 287 345 401
#     4  12  28  47  69  96 134 183 238 294 351 414
#     4   8  16  32  54 100 126 160 210 266 354 404
#     4   9  20  36  63  90 136 168 216 278 343 412
#     4  11  27  47  68 101 137 186 236 286 346 418
#
# _framework density 26.370764999999999
#
# number of rings (size 3 to 8) (size 9 to 14) (size 15 to 20)
#    0.000    1.846    1.538    0.462   17.231    0.000 
#    0.000    0.000    0.000    0.000    0.000    2.154 
#    0.000    0.000    0.000    0.000    0.000    0.000 
#
# Total GULP energy -290711.492016 kJ/mol
# GULP energy per Si atom -5590.605616 kJ/mol
# Density = 2.631074 g / cm^3
# Si number density = 26.370765 Si / 1000 Ang^3
#
#
#
# Elastic Constant Matrix: (Units=GPa)
#
#
# Indices 1 2 3 4 5 6 
#
# 1 52.1454 62.0688 22.7092 0.0000 0.0000 0.0000
# 2 62.0688 52.1445 22.7100 0.0000 0.0000 0.0000
# 3 22.7092 22.7100 106.0966 0.0000 0.0000 0.0000
# 4 0.0000 0.0000 0.0000 34.6930 0.0000 0.0000
# 5 0.0000 0.0000 0.0000 0.0000 34.6932 0.0000
# 6 0.0000 0.0000 0.0000 0.0000 0.0000 64.7605
#
#
#
# Elastic Compliance Matrix: (Units=1/GPa)
#
#
# Indices 1 2 3 4 5 6 
#
# 1 -0.045598 0.055169 -0.002049 0.000000 0.000000 0.000000
# 2 0.055169 -0.045599 -0.002048 0.000000 0.000000 0.000000
# 3 -0.002049 -0.002048 0.010302 0.000000 0.000000 0.000000
# 4 0.000000 0.000000 0.000000 0.028824 0.000000 0.000000
# 5 0.000000 0.000000 0.000000 0.000000 0.028824 0.000000
# 6 0.000000 0.000000 0.000000 0.000000 0.000000 0.015442
#
#
# Mechanical properties :
#
#
# Convention : Reuss Voigt Hill
#
# Bulk Modulus (GPa) = 47.06164 47.26252 47.16208
# Shear Modulus (GPa) = -48.60731 33.68924 -7.45904
#
# Velocity S-wave (km/s) = -4.29794 3.57812 -1.68365
# Velocity P-wave (km/s) = 2.59708 5.91877 3.76078
#
# Compressibility (1/GPa) = 0.02124873
#
# Stress axis : x y z
#
# Youngs Moduli (GPa) = -21.93085 -21.93030 97.06565
#
# Poissons Ratio (x) = 1.20986 0.19888
# Poissons Ratio (y) = 1.20989 0.19879
# Poissons Ratio (z) = -0.04494 -0.04491
#
# Static dielectric constant tensor:
#      x y z
#    x 2.107430 0.000000 0.000000 
#    y 0.000000 2.107430 0.000000 
#    z 0.000000 0.000000 2.156700 
# 
# From -- ./inp_files/717.got.cif
#   From: 2010.05.17/outbox.cif.g08.bks.cpg/sg96_1_cif.got.tgz:717.got - 2010.06.03 19:52:08.
