data_PCOD9551460
_publ_section_title
;
Structure prediction by ZEFSAII (Michael W. Deem and Ramdas Pophale) SiO2 
 PCOD9551460
Probable space group: I 4 2 2 
;
_chemical_formula_sum "Si O2"
_cell_formula_units_Z 112
_cell_length_a 15.360299
_cell_length_b 15.360299
_cell_length_c 22.402430
_cell_angle_alpha 90.000000
_cell_angle_beta 90.000000
_cell_angle_gamma 90.000000
_cell_volume 5285.602124
_symmetry_space_group_name_H-M "I 4 2 2 "
_symmetry_group_IT_number 97
_symmetry_cell_setting 'tetragonal'
loop_
_space_group_symop_operation_xyz
x,y,z
-y,x,z
-x,-y,z
y,-x,z
x,-y,-z
-x,y,-z
y,x,-z
-y,-x,-z
1/2+x,1/2+y,1/2+z
1/2-y,1/2+x,1/2+z
1/2-x,1/2-y,1/2+z
1/2+y,1/2-x,1/2+z
1/2+x,1/2-y,1/2-z
1/2-x,1/2+y,1/2-z
1/2+y,1/2+x,1/2-z
1/2-y,1/2-x,1/2-z
loop_
_atom_site_type_symbol
_atom_site_label
_atom_site_fract_x
_atom_site_fract_y
_atom_site_fract_z
Si Si1 0.937329 0.603474 0.443610
Si Si2 0.412231 0.623860 0.894262
Si Si3 0.516183 0.896968 0.182923
Si Si4 0.833643 0.555571 0.613437
Si Si5 0.834173 0.282082 0.472471
Si Si6 0.254541 0.016204 0.779679
Si Si7 0.335092 0.311418 0.233051
O O1 0.978916 0.632615 0.380934
O O2 0.890020 0.513809 0.424915
O O3 0.883167 0.682571 0.469368
O O4 0.000000 0.590316 0.500000
O O5 0.382169 0.520090 0.896659
O O6 0.381286 0.696999 0.943314
O O7 0.364747 0.664513 0.835063
O O8 0.618355 0.896312 0.169524
O O9 0.482465 0.840237 0.236817
O O10 0.500000 0.000000 0.187840
O O11 0.817640 0.636750 0.571182
O O12 0.770391 0.492110 0.649658
O O13 0.743491 0.256510 0.500000
O O14 0.208351 0.927397 0.762381
O O15 0.203661 0.101608 0.761744
O O16 0.265054 0.234947 0.250000
#
# Coordination Sequence:
#
# PCOD9551460 Si02
#       7
#    16  16  16  16  16  16  16
#     4  11  25  43  68 103 141 192 241 297 386 445
#     4  11  26  49  72 101 149 212 255 302 370 452
#     4  10  23  40  71 102 148 189 244 310 382 451
#     4  11  25  43  69 101 148 192 246 313 378 446
#     4  12  28  41  71 104 147 195 255 311 367 448
#     4  12  27  48  70 112 150 197 258 311 378 454
#     4  12  27  45  75 106 153 199 254 311 380 452
#
# _framework density 21.189640000000001
#
# number of rings (size 3 to 8) (size 9 to 14) (size 15 to 20)
#    0.000    0.714    2.857    3.429   12.000    3.143 
#    0.000    0.714    0.000    0.000    0.000    0.000 
#    0.000    1.143    0.000    0.000    0.000    0.000 
#
# Total GULP energy -311951.229895 kJ/mol
# GULP energy per Si atom -5570.557677 kJ/mol
# Density = 2.114141 g / cm^3
# Si number density = 21.189640 Si / 1000 Ang^3
#
#
#
# Elastic Constant Matrix: (Units=GPa)
#
#
# Indices 1 2 3 4 5 6 
#
# 1 116.5071 62.0963 55.8863 0.0000 0.0000 0.0000
# 2 62.0963 116.5058 55.8857 0.0000 0.0000 0.0000
# 3 55.8863 55.8857 134.5856 0.0000 0.0000 0.0000
# 4 0.0000 0.0000 0.0000 12.9569 0.0000 0.0000
# 5 0.0000 0.0000 0.0000 0.0000 12.9654 0.0000
# 6 0.0000 0.0000 0.0000 0.0000 0.0000 40.5953
#
#
#
# Elastic Compliance Matrix: (Units=1/GPa)
#
#
# Indices 1 2 3 4 5 6 
#
# 1 0.012972 -0.005407 -0.003141 0.000000 0.000000 0.000000
# 2 -0.005407 0.012972 -0.003141 0.000000 0.000000 0.000000
# 3 -0.003141 -0.003141 0.010039 0.000000 0.000000 0.000000
# 4 0.000000 0.000000 0.000000 0.077179 0.000000 0.000000
# 5 0.000000 0.000000 0.000000 0.000000 0.077128 0.000000
# 6 0.000000 0.000000 0.000000 0.000000 0.000000 0.024633
#
#
# Mechanical properties :
#
#
# Convention : Reuss Voigt Hill
#
# Bulk Modulus (GPa) = 79.34206 79.48166 79.41186
# Shear Modulus (GPa) = 20.61821 26.21887 23.41854
#
# Velocity S-wave (km/s) = 3.12273 3.52141 3.32804
# Velocity P-wave (km/s) = 7.10824 7.35696 7.23367
#
# Compressibility (1/GPa) = 0.01260366
#
# Stress axis : x y z
#
# Youngs Moduli (GPa) = 77.09004 77.08950 99.61134
#
# Poissons Ratio (x) = 0.41682 0.31291
# Poissons Ratio (y) = 0.41683 0.31290
# Poissons Ratio (z) = 0.24216 0.24216
#
# Static dielectric constant tensor:
#      x y z
#    x 2.258800 0.000000 0.000000 
#    y 0.000000 2.258970 0.000000 
#    z 0.000000 0.000000 2.052470 
# 
# From -- ./inp_files/7289.got.cif
#   From: 2010.05.17/outbox.cif.g08.bks.cpg/sg97_4_cif.got.tgz:7289.got - 2010.06.03 19:55:32.
