data_PCOD9551921
_publ_section_title
;
Structure prediction by ZEFSAII (Michael W. Deem and Ramdas Pophale) SiO2 
 PCOD9551921
Probable space group: I 41 2 2
;
_chemical_formula_sum "Si O2"
_cell_formula_units_Z 48
_cell_length_a 18.711682
_cell_length_b 18.711682
_cell_length_c 6.149671
_cell_angle_alpha 90.000000
_cell_angle_beta 90.000000
_cell_angle_gamma 90.000000
_cell_volume 2153.166124
_symmetry_space_group_name_H-M "I 41 2 2"
_symmetry_group_IT_number 98
_symmetry_cell_setting 'tetragonal'
loop_
_space_group_symop_operation_xyz
x,y,z
-y,1/2+x,1/4+z
-x,-y,z
y,1/2-x,1/4+z
x,1/2-y,1/4-z
-x,1/2+y,1/4-z
y,x,-z
-y,-x,-z
1/2+x,1/2+y,1/2+z
1/2-y,x,3/4+z
1/2-x,1/2-y,1/2+z
1/2+y,-x,3/4+z
1/2+x,-y,3/4-z
1/2-x,y,3/4-z
1/2+y,1/2+x,1/2-z
1/2-y,1/2-x,1/2-z
loop_
_atom_site_type_symbol
_atom_site_label
_atom_site_fract_x
_atom_site_fract_y
_atom_site_fract_z
Si Si1 0.481441 0.250000 0.625000
Si Si2 0.675051 0.824950 0.250000
Si Si3 0.371170 0.433346 0.685540
Si Si4 0.443078 0.674469 0.002581
O O1 0.440230 0.204900 0.809630
O O2 0.530073 0.194640 0.488098
O O3 0.750000 0.827696 0.375000
O O4 0.626098 0.856720 0.443559
O O5 0.431111 0.431111 0.500000
O O6 0.368733 0.496295 0.860938
O O7 0.432796 0.750000 0.125000
O O8 0.372557 0.627444 0.000000
#
# Coordination Sequence:
#
# PCOD9551921 Si02
#       4
#     8   8  16  16
#     4  10  22  44  68  90 138 180 220 292 344 410
#     4  12  26  40  57  96 128 176 237 288 336 412
#     4  11  22  41  66  89 132 182 226 279 342 408
#     4  10  23  45  70 104 137 178 232 290 365 431
#
# _framework density 22.292752
#
# number of rings (size 3 to 8) (size 9 to 14) (size 15 to 20)
#    0.000    1.333    0.000    7.000    2.333    5.333 
#    6.000   12.500    0.000    0.000    0.000    0.000 
#    0.000    0.000    0.000    0.000    0.000    0.000 
#
# Total GULP energy -133829.789921 kJ/mol
# GULP energy per Si atom -5576.241247 kJ/mol
# Density = 2.224201 g / cm^3
# Si number density = 22.292752 Si / 1000 Ang^3
#
#
#
# Elastic Constant Matrix: (Units=GPa)
#
#
# Indices 1 2 3 4 5 6 
#
# 1 78.1735 60.0393 48.8989 0.0000 0.0000 0.0000
# 2 60.0393 78.1624 48.8943 0.0000 0.0000 0.0000
# 3 48.8989 48.8943 135.2355 0.0000 0.0000 0.0000
# 4 0.0000 0.0000 0.0000 23.4934 0.0000 0.0000
# 5 0.0000 0.0000 0.0000 0.0000 23.4944 0.0000
# 6 0.0000 0.0000 0.0000 0.0000 0.0000 26.9076
#
#
#
# Elastic Compliance Matrix: (Units=1/GPa)
#
#
# Indices 1 2 3 4 5 6 
#
# 1 0.032440 -0.022719 -0.003516 0.000000 0.000000 0.000000
# 2 -0.022719 0.032444 -0.003515 0.000000 0.000000 0.000000
# 3 -0.003516 -0.003515 0.009937 0.000000 0.000000 0.000000
# 4 0.000000 0.000000 0.000000 0.042565 0.000000 0.000000
# 5 0.000000 0.000000 0.000000 0.000000 0.042563 0.000000
# 6 0.000000 0.000000 0.000000 0.000000 0.000000 0.037164
#
#
# Mechanical properties :
#
#
# Convention : Reuss Voigt Hill
#
# Bulk Modulus (GPa) = 65.27126 67.47072 66.37099
# Shear Modulus (GPa) = 19.10429 23.69500 21.39965
#
# Velocity S-wave (km/s) = 2.93059 3.26375 3.10165
# Velocity P-wave (km/s) = 6.38700 6.67340 6.53177
#
# Compressibility (1/GPa) = 0.01532068
#
# Stress axis : x y z
#
# Youngs Moduli (GPa) = 30.82599 30.82203 100.63710
#
# Poissons Ratio (x) = 0.70025 0.35381
# Poissons Ratio (y) = 0.70034 0.35377
# Poissons Ratio (z) = 0.10838 0.10835
#
# Static dielectric constant tensor:
#      x y z
#    x 1.820130 0.000000 0.000000 
#    y 0.000000 1.820130 0.000000 
#    z 0.000000 0.000000 1.866120 
# 
# From -- ./inp_files/891.got.cif
#   From: 2010.05.17/outbox.cif.g08.bks.cpg/sg98_1_cif.got.tgz:891.got - 2010.06.03 20:00:51.
