data_PCOD9551216
_publ_section_title
;
Structure prediction by ZEFSAII (Michael W. Deem and Ramdas Pophale) SiO2 
 PCOD9551216
Probable space group: I 4 2 2 
;
_chemical_formula_sum "Si O2"
_cell_formula_units_Z 116
_cell_length_a 18.381627
_cell_length_b 18.381627
_cell_length_c 18.175280
_cell_angle_alpha 90.000000
_cell_angle_beta 90.000000
_cell_angle_gamma 90.000000
_cell_volume 6141.140146
_symmetry_space_group_name_H-M "I 4 2 2 "
_symmetry_group_IT_number 97
_symmetry_cell_setting 'tetragonal'
loop_
_space_group_symop_operation_xyz
x,y,z
-y,x,z
-x,-y,z
y,-x,z
x,-y,-z
-x,y,-z
y,x,-z
-y,-x,-z
1/2+x,1/2+y,1/2+z
1/2-y,1/2+x,1/2+z
1/2-x,1/2-y,1/2+z
1/2+y,1/2-x,1/2+z
1/2+x,1/2-y,1/2-z
1/2-x,1/2+y,1/2-z
1/2+y,1/2+x,1/2-z
1/2-y,1/2-x,1/2-z
loop_
_atom_site_type_symbol
_atom_site_label
_atom_site_fract_x
_atom_site_fract_y
_atom_site_fract_z
Si Si1 0.584060 0.703923 0.975672
Si Si2 0.000000 0.000000 0.866156
Si Si3 0.866411 0.608708 0.973634
Si Si4 0.525206 0.082459 0.116294
Si Si5 0.889979 0.264545 0.840350
Si Si6 0.214506 0.395226 0.172494
Si Si7 0.966123 0.735960 0.920751
Si Si8 0.389857 0.382625 0.411836
O O1 0.583409 0.726553 0.889081
O O2 0.500000 0.690887 0.000000
O O3 0.638517 0.638517 0.000000
O O4 0.611696 0.780818 0.010096
O O5 0.074458 0.048423 0.873360
O O6 0.878731 0.545657 0.915347
O O7 0.903223 0.679320 0.940380
O O8 0.910871 0.581327 0.046583
O O9 0.556254 0.140048 0.174853
O O10 0.500000 0.000000 0.134455
O O11 0.821959 0.318447 0.849915
O O12 0.894249 0.251822 0.753156
O O13 0.876682 0.193043 0.887488
O O14 0.968868 0.292587 0.868792
O O15 0.930570 0.808822 0.890456
O O16 0.000000 0.754495 0.000000
O O17 0.394780 0.394780 0.500000
#
# Coordination Sequence:
#
# PCOD9551216 Si02
#       8
#    16   4  16  16  16  16  16  16
#     4  11  23  44  71  93 118 163 223 282 332 381
#     4  12  21  44  60  92 132 164 197 270 317 360
#     4  10  19  33  59  98 126 150 202 266 312 365
#     4  10  17  34  63  91 125 167 200 248 309 378
#     4  11  24  41  58  93 132 174 203 260 326 389
#     4  10  23  44  63  88 139 168 205 265 334 385
#     4  12  21  35  60  96 125 160 214 256 299 397
#     4  12  23  37  63  91 126 165 215 259 310 376
#
# _framework density 18.889002000000001
#
# number of rings (size 3 to 8) (size 9 to 14) (size 15 to 20)
#    0.000    1.103    5.517    4.759    1.931    0.138 
#    2.483    4.828    0.000    0.000    0.000    0.000 
#    0.000    0.000    0.000    0.000    0.000    0.000 
#
# Total GULP energy -322921.968008 kJ/mol
# GULP energy per Si atom -5567.620138 kJ/mol
# Density = 1.884601 g / cm^3
# Si number density = 18.889002 Si / 1000 Ang^3
#
#
#
# Elastic Constant Matrix: (Units=GPa)
#
#
# Indices 1 2 3 4 5 6 
#
# 1 99.5322 24.9482 14.8909 0.0000 0.0000 0.0000
# 2 24.9482 99.5322 14.8909 0.0000 0.0000 0.0000
# 3 14.8909 14.8909 38.9719 0.0000 0.0000 0.0000
# 4 0.0000 0.0000 0.0000 5.1677 0.0000 0.0000
# 5 0.0000 0.0000 0.0000 0.0000 5.1677 0.0000
# 6 0.0000 0.0000 0.0000 0.0000 0.0000 32.4311
#
#
#
# Elastic Compliance Matrix: (Units=1/GPa)
#
#
# Indices 1 2 3 4 5 6 
#
# 1 0.011125 -0.002283 -0.003378 0.000000 0.000000 0.000000
# 2 -0.002283 0.011125 -0.003378 0.000000 0.000000 0.000000
# 3 -0.003378 -0.003378 0.028241 0.000000 0.000000 0.000000
# 4 0.000000 0.000000 0.000000 0.193508 0.000000 0.000000
# 5 0.000000 0.000000 0.000000 0.000000 0.193508 0.000000
# 6 0.000000 0.000000 0.000000 0.000000 0.000000 0.030835
#
#
# Mechanical properties :
#
#
# Convention : Reuss Voigt Hill
#
# Bulk Modulus (GPa) = 30.85356 38.61069 34.73213
# Shear Modulus (GPa) = 10.05582 20.77374 15.41478
#
# Velocity S-wave (km/s) = 2.30980 3.31989 2.85980
# Velocity P-wave (km/s) = 4.84595 5.93134 5.41590
#
# Compressibility (1/GPa) = 0.03241117
#
# Stress axis : x y z
#
# Youngs Moduli (GPa) = 89.89027 89.89027 35.40926
#
# Poissons Ratio (x) = 0.20522 0.11962
# Poissons Ratio (y) = 0.20522 0.11962
# Poissons Ratio (z) = 0.30368 0.30368
#
# Static dielectric constant tensor:
#      x y z
#    x 1.741770 0.000000 0.000000 
#    y 0.000000 1.741770 0.000000 
#    z 0.000000 0.000000 1.670680 
# 
# From -- ./inp_files/5905.got.cif
#   From: 2010.05.17/outbox.cif.g08.bks.cpg/sg97_3_cif.got.tgz:5905.got - 2010.06.03 19:55:32.
