data_PCOD9551354
_publ_section_title
;
Structure prediction by ZEFSAII (Michael W. Deem and Ramdas Pophale) SiO2 
 PCOD9551354
Probable space group: I 4 2 2 
;
_chemical_formula_sum "Si O2"
_cell_formula_units_Z 112
_cell_length_a 15.044104
_cell_length_b 15.044104
_cell_length_c 23.588644
_cell_angle_alpha 90.000000
_cell_angle_beta 90.000000
_cell_angle_gamma 90.000000
_cell_volume 5338.701390
_symmetry_space_group_name_H-M "I 4 2 2 "
_symmetry_group_IT_number 97
_symmetry_cell_setting 'tetragonal'
loop_
_space_group_symop_operation_xyz
x,y,z
-y,x,z
-x,-y,z
y,-x,z
x,-y,-z
-x,y,-z
y,x,-z
-y,-x,-z
1/2+x,1/2+y,1/2+z
1/2-y,1/2+x,1/2+z
1/2-x,1/2-y,1/2+z
1/2+y,1/2-x,1/2+z
1/2+x,1/2-y,1/2-z
1/2-x,1/2+y,1/2-z
1/2+y,1/2+x,1/2-z
1/2-y,1/2-x,1/2-z
loop_
_atom_site_type_symbol
_atom_site_label
_atom_site_fract_x
_atom_site_fract_y
_atom_site_fract_z
Si Si1 0.368526 0.433180 0.751244
Si Si2 0.681543 0.016206 0.566709
Si Si3 0.192123 0.251018 0.811491
Si Si4 0.235031 0.102868 0.009324
Si Si5 0.658675 0.068721 0.884767
Si Si6 0.055092 0.860292 0.381316
Si Si7 0.824955 0.643562 0.393597
O O1 0.462860 0.385091 0.746446
O O2 0.311524 0.392347 0.701664
O O3 0.335507 0.423156 0.815992
O O4 0.679526 0.925187 0.602639
O O5 0.681465 0.000000 0.500000
O O6 0.591839 0.068445 0.582611
O O7 0.772399 0.069216 0.581742
O O8 0.235297 0.264703 0.750000
O O9 0.138015 0.337495 0.832812
O O10 0.263206 0.202304 0.852204
O O11 0.267694 0.112282 0.073231
O O12 0.136025 0.136025 0.000000
O O13 0.289380 0.149554 0.958668
O O14 0.246571 0.000000 0.000000
O O15 0.673432 0.962858 0.877262
O O16 0.951643 0.889931 0.390550
#
# Coordination Sequence:
#
# PCOD9551354 Si02
#       7
#    16  16  16  16  16  16  16
#     4   9  19  39  66  90 123 168 211 257 320 388
#     4  12  25  40  68  97 132 179 221 269 338 406
#     4  12  25  41  67  97 128 170 215 275 325 387
#     4  10  20  39  66  93 128 166 210 269 330 388
#     4  11  24  44  65  93 131 172 220 270 326 397
#     4   9  21  40  64  95 133 173 219 279 333 392
#     4  11  25  43  66  95 129 171 223 273 325 401
#
# _framework density 20.978884999999998
#
# number of rings (size 3 to 8) (size 9 to 14) (size 15 to 20)
#    0.000    1.429    2.857    3.000    6.000    1.286 
#    2.571    0.714    0.000    0.000    0.000    0.000 
#    0.000    0.000    0.000    0.000    0.000    0.000 
#
# Total GULP energy -312151.889662 kJ/mol
# GULP energy per Si atom -5574.140887 kJ/mol
# Density = 2.093114 g / cm^3
# Si number density = 20.978885 Si / 1000 Ang^3
#
#
#
# Elastic Constant Matrix: (Units=GPa)
#
#
# Indices 1 2 3 4 5 6 
#
# 1 69.3306 -10.1473 16.6043 0.0000 0.0000 0.0000
# 2 -10.1473 69.3305 16.6047 0.0000 0.0000 0.0000
# 3 16.6043 16.6047 53.8500 0.0000 0.0000 0.0000
# 4 0.0000 0.0000 0.0000 30.8675 0.0000 0.0000
# 5 0.0000 0.0000 0.0000 0.0000 30.8674 0.0000
# 6 0.0000 0.0000 0.0000 0.0000 0.0000 28.9072
#
#
#
# Elastic Compliance Matrix: (Units=1/GPa)
#
#
# Indices 1 2 3 4 5 6 
#
# 1 0.016507 0.003925 -0.006300 0.000000 0.000000 0.000000
# 2 0.003925 0.016507 -0.006300 0.000000 0.000000 0.000000
# 3 -0.006300 -0.006300 0.022455 0.000000 0.000000 0.000000
# 4 0.000000 0.000000 0.000000 0.032397 0.000000 0.000000
# 5 0.000000 0.000000 0.000000 0.000000 0.032397 0.000000
# 6 0.000000 0.000000 0.000000 0.000000 0.000000 0.034593
#
#
# Mechanical properties :
#
#
# Convention : Reuss Voigt Hill
#
# Bulk Modulus (GPa) = 26.23393 26.51493 26.37443
# Shear Modulus (GPa) = 27.03977 29.42503 28.23240
#
# Velocity S-wave (km/s) = 3.59403 3.74920 3.67243
# Velocity P-wave (km/s) = 5.45479 5.60431 5.53006
#
# Compressibility (1/GPa) = 0.03811858
#
# Stress axis : x y z
#
# Youngs Moduli (GPa) = 60.58067 60.58034 44.53285
#
# Poissons Ratio (x) = -0.23777 0.28056
# Poissons Ratio (y) = -0.23777 0.28056
# Poissons Ratio (z) = 0.38166 0.38167
#
# Static dielectric constant tensor:
#      x y z
#    x 1.774610 0.000000 0.000000 
#    y 0.000000 1.774610 0.000000 
#    z 0.000000 0.000000 1.821590 
# 
# From -- ./inp_files/7261.got.cif
#   From: 2010.05.17/outbox.cif.g08.bks.cpg/sg97_4_cif.got.tgz:7261.got - 2010.06.03 19:55:32.
