data_PCOD9551658
_publ_section_title
;
Structure prediction by ZEFSAII (Michael W. Deem and Ramdas Pophale) SiO2 
 PCOD9551658
Probable space group: I 41 2 2
;
_chemical_formula_sum "Si O2"
_cell_formula_units_Z 48
_cell_length_a 13.471402
_cell_length_b 13.471402
_cell_length_c 15.759872
_cell_angle_alpha 90.000000
_cell_angle_beta 90.000000
_cell_angle_gamma 90.000000
_cell_volume 2860.080639
_symmetry_space_group_name_H-M "I 41 2 2"
_symmetry_group_IT_number 98
_symmetry_cell_setting 'tetragonal'
loop_
_space_group_symop_operation_xyz
x,y,z
-y,1/2+x,1/4+z
-x,-y,z
y,1/2-x,1/4+z
x,1/2-y,1/4-z
-x,1/2+y,1/4-z
y,x,-z
-y,-x,-z
1/2+x,1/2+y,1/2+z
1/2-y,x,3/4+z
1/2-x,1/2-y,1/2+z
1/2+y,-x,3/4+z
1/2+x,-y,3/4-z
1/2-x,y,3/4-z
1/2+y,1/2+x,1/2-z
1/2-y,1/2-x,1/2-z
loop_
_atom_site_type_symbol
_atom_site_label
_atom_site_fract_x
_atom_site_fract_y
_atom_site_fract_z
Si Si1 0.936674 0.364785 0.902366
Si Si2 0.570660 0.861403 0.157261
Si Si3 0.807171 0.169495 0.190989
O O1 0.886328 0.452932 0.846814
O O2 0.908473 0.259552 0.860643
O O3 0.053812 0.382016 0.902151
O O4 0.888024 0.372934 0.995021
O O5 0.586251 0.750000 0.125000
O O6 0.615079 0.884922 0.250000
O O7 0.849579 0.250000 0.125000
O O8 0.730791 0.230791 0.250000
#
# Coordination Sequence:
#
# PCOD9551658 Si02
#       3
#    16  16  16
#     4  10  18  30  50  75 101 128 162 210 261 310
#     4  11  21  33  49  73 101 133 170 211 257 309
#     4   9  16  28  49  76 101 124 156 205 258 303
#
# _framework density 16.782744000000001
#
# number of rings (size 3 to 8) (size 9 to 14) (size 15 to 20)
#    0.000    2.000    0.000    9.000    0.000    0.000 
#    0.000    1.667    0.000    0.000    0.000   32.667 
#    0.000    0.000    0.000    0.000    0.000    0.000 
#
# Total GULP energy -133834.467347 kJ/mol
# GULP energy per Si atom -5576.436139 kJ/mol
# Density = 1.674455 g / cm^3
# Si number density = 16.782744 Si / 1000 Ang^3
#
#
#
# Elastic Constant Matrix: (Units=GPa)
#
#
# Indices 1 2 3 4 5 6 
#
# 1 109.8840 53.5309 51.5832 0.0000 0.0000 0.0000
# 2 53.5309 109.8841 51.5833 0.0000 0.0000 0.0000
# 3 51.5832 51.5833 88.7853 0.0000 0.0000 0.0000
# 4 0.0000 0.0000 0.0000 28.4811 0.0000 0.0000
# 5 0.0000 0.0000 0.0000 0.0000 28.4810 0.0000
# 6 0.0000 0.0000 0.0000 0.0000 0.0000 14.1728
#
#
#
# Elastic Compliance Matrix: (Units=1/GPa)
#
#
# Indices 1 2 3 4 5 6 
#
# 1 0.013705 -0.004041 -0.005615 0.000000 0.000000 0.000000
# 2 -0.004041 0.013705 -0.005615 0.000000 0.000000 0.000000
# 3 -0.005615 -0.005615 0.017787 0.000000 0.000000 0.000000
# 4 0.000000 0.000000 0.000000 0.035111 0.000000 0.000000
# 5 0.000000 0.000000 0.000000 0.000000 0.035111 0.000000
# 6 0.000000 0.000000 0.000000 0.000000 0.000000 0.070558
#
#
# Mechanical properties :
#
#
# Convention : Reuss Voigt Hill
#
# Bulk Modulus (GPa) = 68.22879 69.10535 68.66707
# Shear Modulus (GPa) = 22.58335 24.35071 23.46703
#
# Velocity S-wave (km/s) = 3.67226 3.81325 3.74342
# Velocity P-wave (km/s) = 7.66310 7.78805 7.72582
#
# Compressibility (1/GPa) = 0.01465657
#
# Stress axis : x y z
#
# Youngs Moduli (GPa) = 72.96794 72.96802 56.21996
#
# Poissons Ratio (x) = 0.29483 0.31566
# Poissons Ratio (y) = 0.29483 0.31566
# Poissons Ratio (z) = 0.40969 0.40969
#
# Static dielectric constant tensor:
#      x y z
#    x 1.572560 0.000000 0.000000 
#    y 0.000000 1.572560 0.000000 
#    z 0.000000 0.000000 1.606590 
# 
# From -- ./inp_files/6034.got.cif
#   From: 2010.05.17/outbox.cif.g08.bks.cpg/sg98_4_cif.got.tgz:6034.got - 2010.06.03 20:00:51.
