data_PCOD9551434
_publ_section_title
;
Structure prediction by ZEFSAII (Michael W. Deem and Ramdas Pophale) SiO2 
 PCOD9551434
Probable space group: I 4 2 2 
;
_chemical_formula_sum "Si O2"
_cell_formula_units_Z 72
_cell_length_a 19.214762
_cell_length_b 19.214762
_cell_length_c 8.801183
_cell_angle_alpha 90.000000
_cell_angle_beta 90.000000
_cell_angle_gamma 90.000000
_cell_volume 3249.459065
_symmetry_space_group_name_H-M "I 4 2 2 "
_symmetry_group_IT_number 97
_symmetry_cell_setting 'tetragonal'
loop_
_space_group_symop_operation_xyz
x,y,z
-y,x,z
-x,-y,z
y,-x,z
x,-y,-z
-x,y,-z
y,x,-z
-y,-x,-z
1/2+x,1/2+y,1/2+z
1/2-y,1/2+x,1/2+z
1/2-x,1/2-y,1/2+z
1/2+y,1/2-x,1/2+z
1/2+x,1/2-y,1/2-z
1/2-x,1/2+y,1/2-z
1/2+y,1/2+x,1/2-z
1/2-y,1/2-x,1/2-z
loop_
_atom_site_type_symbol
_atom_site_label
_atom_site_fract_x
_atom_site_fract_y
_atom_site_fract_z
Si Si1 0.297368 0.081429 0.504576
Si Si2 0.063288 0.222431 0.789512
Si Si3 0.943458 0.620177 0.879727
Si Si4 0.500000 0.382399 0.500000
Si Si5 0.186900 0.686900 0.750000
Si Si6 0.803411 0.803411 0.000000
O O1 0.231451 0.085789 0.388200
O O2 0.363967 0.121886 0.438156
O O3 0.295402 0.112026 0.674623
O O4 0.314640 0.000000 0.500000
O O5 0.040457 0.301150 0.829283
O O6 0.128663 0.202838 0.894923
O O7 0.006022 0.167395 0.850448
O O8 0.937063 0.562938 0.750000
O O9 0.000000 0.599090 0.000000
O O10 0.566365 0.433636 0.500000
O O11 0.199759 0.739610 0.885636
#
# Coordination Sequence:
#
# PCOD9551434 Si02
#       6
#    16  16  16   8   8   8
#     4  11  27  42  66 101 148 193 240 301 375 452
#     4  11  23  44  68 103 139 194 237 308 381 441
#     4  10  22  41  67  95 140 184 245 294 357 440
#     4  11  24  42  74 114 145 188 254 314 393 486
#     4  12  26  44  68 109 146 184 257 310 380 456
#     4  12  24  42  75 100 138 184 243 320 358 454
#
# _framework density 22.157533999999998
#
# number of rings (size 3 to 8) (size 9 to 14) (size 15 to 20)
#    0.000    1.000    4.444    1.333   10.889    0.444 
#    0.000    3.333    0.000    0.000    0.000    1.556 
#    0.000    0.000    0.000    0.000    0.000    0.000 
#
# Total GULP energy -200924.421112 kJ/mol
# GULP energy per Si atom -5581.233920 kJ/mol
# Density = 2.210710 g / cm^3
# Si number density = 22.157534 Si / 1000 Ang^3
#
#
#
# Elastic Constant Matrix: (Units=GPa)
#
#
# Indices 1 2 3 4 5 6 
#
# 1 137.9844 28.9618 63.9421 0.0000 0.0000 0.0000
# 2 28.9618 137.9856 63.9415 0.0000 0.0000 0.0000
# 3 63.9421 63.9415 129.4954 0.0000 0.0000 0.0000
# 4 0.0000 0.0000 0.0000 38.2793 0.0000 0.0000
# 5 0.0000 0.0000 0.0000 0.0000 38.2836 0.0000
# 6 0.0000 0.0000 0.0000 0.0000 0.0000 26.0301
#
#
#
# Elastic Compliance Matrix: (Units=1/GPa)
#
#
# Indices 1 2 3 4 5 6 
#
# 1 0.009403 0.000231 -0.004757 0.000000 0.000000 0.000000
# 2 0.000231 0.009403 -0.004757 0.000000 0.000000 0.000000
# 3 -0.004757 -0.004757 0.012420 0.000000 0.000000 0.000000
# 4 0.000000 0.000000 0.000000 0.026124 0.000000 0.000000
# 5 0.000000 0.000000 0.000000 0.000000 0.026121 0.000000
# 6 0.000000 0.000000 0.000000 0.000000 0.000000 0.038417
#
#
# Mechanical properties :
#
#
# Convention : Reuss Voigt Hill
#
# Bulk Modulus (GPa) = 78.98987 79.90626 79.44807
# Shear Modulus (GPa) = 34.56041 37.09327 35.82684
#
# Velocity S-wave (km/s) = 3.95366 4.09598 4.02545
# Velocity P-wave (km/s) = 7.52121 7.64921 7.58548
#
# Compressibility (1/GPa) = 0.01265985
#
# Stress axis : x y z
#
# Youngs Moduli (GPa) = 106.34714 106.34881 80.51512
#
# Poissons Ratio (x) = -0.02454 0.38301
# Poissons Ratio (y) = -0.02454 0.38300
# Poissons Ratio (z) = 0.50589 0.50589
#
# Static dielectric constant tensor:
#      x y z
#    x 1.875660 0.000000 0.000000 
#    y 0.000000 1.875650 0.000000 
#    z 0.000000 0.000000 1.965830 
# 
# From -- ./inp_files/2286.got.cif
#   From: 2010.05.17/outbox.cif.g08.bks.cpg/sg97_2_cif.got.tgz:2286.got - 2010.06.03 19:55:32.
