data_PCOD9551645
_publ_section_title
;
Structure prediction by ZEFSAII (Michael W. Deem and Ramdas Pophale) SiO2 
 PCOD9551645
Probable space group: I 41 2 2
;
_chemical_formula_sum "Si O2"
_cell_formula_units_Z 112
_cell_length_a 13.369761
_cell_length_b 13.369761
_cell_length_c 34.641875
_cell_angle_alpha 90.000000
_cell_angle_beta 90.000000
_cell_angle_gamma 90.000000
_cell_volume 6192.252796
_symmetry_space_group_name_H-M "I 41 2 2"
_symmetry_group_IT_number 98
_symmetry_cell_setting 'tetragonal'
loop_
_space_group_symop_operation_xyz
x,y,z
-y,1/2+x,1/4+z
-x,-y,z
y,1/2-x,1/4+z
x,1/2-y,1/4-z
-x,1/2+y,1/4-z
y,x,-z
-y,-x,-z
1/2+x,1/2+y,1/2+z
1/2-y,x,3/4+z
1/2-x,1/2-y,1/2+z
1/2+y,-x,3/4+z
1/2+x,-y,3/4-z
1/2-x,y,3/4-z
1/2+y,1/2+x,1/2-z
1/2-y,1/2-x,1/2-z
loop_
_atom_site_type_symbol
_atom_site_label
_atom_site_fract_x
_atom_site_fract_y
_atom_site_fract_z
Si Si1 0.909082 0.922352 0.815653
Si Si2 0.387024 0.047295 0.482003
Si Si3 0.038478 0.115740 0.897657
Si Si4 0.112428 0.223741 0.970025
Si Si5 0.827564 0.302365 0.340018
Si Si6 0.243352 0.554255 0.277290
Si Si7 0.279059 0.852193 0.475219
O O1 0.935402 0.861143 0.777300
O O2 0.902785 0.874372 0.857338
O O3 0.813029 0.984569 0.803238
O O4 0.000000 0.000000 0.819798
O O5 0.390845 0.157036 0.462868
O O6 0.500000 0.000000 0.479811
O O7 0.306311 0.967220 0.467816
O O8 0.106796 0.155724 0.932406
O O9 0.940872 0.188134 0.895353
O O10 0.000000 0.000000 0.902533
O O11 0.200723 0.200723 0.000000
O O12 0.014035 0.194708 0.994876
O O13 0.750000 0.320093 0.375000
O O14 0.823895 0.386919 0.306920
O O15 0.792593 0.205986 0.315351
O O16 0.310681 0.633642 0.253841
O O17 0.180890 0.819111 0.500000
#
# Coordination Sequence:
#
# PCOD9551645 Si02
#       7
#    16  16  16  16  16  16  16
#     4   9  16  29  51  69 102 141 187 218 261 328
#     4  10  17  36  58  75 104 152 194 228 273 346
#     4  11  21  31  46  78 118 155 179 228 287 340
#     4  11  22  34  52  79 111 150 195 228 287 358
#     4  11  21  30  48  79 117 145 180 233 282 334
#     4  10  18  34  49  73 108 149 184 217 270 346
#     4  10  19  32  57  81 104 140 196 240 280 329
#
# _framework density 18.087118
#
# number of rings (size 3 to 8) (size 9 to 14) (size 15 to 20)
#    0.000    1.714    5.714    2.571    2.000    1.429 
#    0.000    2.143    0.000    3.857    0.000    0.000 
#    0.000    0.000    0.000    0.000    0.000    0.000 
#
# Total GULP energy -311980.347776 kJ/mol
# GULP energy per Si atom -5571.077639 kJ/mol
# Density = 1.804595 g / cm^3
# Si number density = 18.087118 Si / 1000 Ang^3
#
#
#
# Elastic Constant Matrix: (Units=GPa)
#
#
# Indices 1 2 3 4 5 6 
#
# 1 46.4376 12.6209 11.4073 0.0000 0.0000 0.0000
# 2 12.6209 46.4359 11.4069 0.0000 0.0000 0.0000
# 3 11.4073 11.4069 76.0629 0.0000 0.0000 0.0000
# 4 0.0000 0.0000 0.0000 18.8058 0.0000 0.0000
# 5 0.0000 0.0000 0.0000 0.0000 18.8059 0.0000
# 6 0.0000 0.0000 0.0000 0.0000 0.0000 17.1755
#
#
#
# Elastic Compliance Matrix: (Units=1/GPa)
#
#
# Indices 1 2 3 4 5 6 
#
# 1 0.023773 -0.005799 -0.002696 0.000000 0.000000 0.000000
# 2 -0.005799 0.023773 -0.002696 0.000000 0.000000 0.000000
# 3 -0.002696 -0.002696 0.013956 0.000000 0.000000 0.000000
# 4 0.000000 0.000000 0.000000 0.053175 0.000000 0.000000
# 5 0.000000 0.000000 0.000000 0.000000 0.053175 0.000000
# 6 0.000000 0.000000 0.000000 0.000000 0.000000 0.058222
#
#
# Mechanical properties :
#
#
# Convention : Reuss Voigt Hill
#
# Bulk Modulus (GPa) = 25.56160 26.64518 26.10339
# Shear Modulus (GPa) = 19.12089 19.85754 19.48921
#
# Velocity S-wave (km/s) = 3.25492 3.31703 3.28612
# Velocity P-wave (km/s) = 5.31876 5.42529 5.37229
#
# Compressibility (1/GPa) = 0.03912118
#
# Stress axis : x y z
#
# Youngs Moduli (GPa) = 42.06540 42.06394 71.65631
#
# Poissons Ratio (x) = 0.24393 0.19315
# Poissons Ratio (y) = 0.24394 0.19315
# Poissons Ratio (z) = 0.11339 0.11338
#
# Static dielectric constant tensor:
#      x y z
#    x 1.666620 0.000000 0.000000 
#    y 0.000000 1.666620 0.000000 
#    z 0.000000 0.000000 1.652740 
# 
# From -- ./inp_files/12117.got.cif
#   From: 2010.05.17/outbox.cif.g08.bks.cpg/sg98_7_cif.got.tgz:12117.got - 2010.06.03 20:00:51.
