data_PCOD9551659
_publ_section_title
;
Structure prediction by ZEFSAII (Michael W. Deem and Ramdas Pophale) SiO2 
 PCOD9551659
Probable space group: I 41 2 2
;
_chemical_formula_sum "Si O2"
_cell_formula_units_Z 80
_cell_length_a 16.898019
_cell_length_b 16.898019
_cell_length_c 12.643477
_cell_angle_alpha 90.000000
_cell_angle_beta 90.000000
_cell_angle_gamma 90.000000
_cell_volume 3610.256936
_symmetry_space_group_name_H-M "I 41 2 2"
_symmetry_group_IT_number 98
_symmetry_cell_setting 'tetragonal'
loop_
_space_group_symop_operation_xyz
x,y,z
-y,1/2+x,1/4+z
-x,-y,z
y,1/2-x,1/4+z
x,1/2-y,1/4-z
-x,1/2+y,1/4-z
y,x,-z
-y,-x,-z
1/2+x,1/2+y,1/2+z
1/2-y,x,3/4+z
1/2-x,1/2-y,1/2+z
1/2+y,-x,3/4+z
1/2+x,-y,3/4-z
1/2-x,y,3/4-z
1/2+y,1/2+x,1/2-z
1/2-y,1/2-x,1/2-z
loop_
_atom_site_type_symbol
_atom_site_label
_atom_site_fract_x
_atom_site_fract_y
_atom_site_fract_z
Si Si1 0.658395 0.928873 0.535111
Si Si2 0.958701 0.250000 0.625000
Si Si3 0.696005 0.157029 0.636165
Si Si4 0.158274 0.203502 0.385549
Si Si5 0.894252 0.135133 0.333609
Si Si6 0.000000 0.500000 0.507549
O O1 0.718416 0.894548 0.620297
O O2 0.638507 0.856290 0.457120
O O3 0.575518 0.970228 0.559063
O O4 0.713483 0.985700 0.464267
O O5 0.904106 0.324546 0.653168
O O6 0.721666 0.250000 0.625000
O O7 0.653508 0.153508 0.750000
O O8 0.772822 0.100826 0.636818
O O9 0.640980 0.139581 0.536484
O O10 0.158351 0.158351 0.500000
O O11 0.250000 0.226906 0.375000
O O12 0.966640 0.073595 0.327794
#
# Coordination Sequence:
#
# PCOD9551659 Si02
#       6
#    16   8  16  16  16   8
#     4  10  19  36  53  83 116 148 186 232 294 345
#     4  10  18  30  56  82 122 142 170 238 298 358
#     4   9  18  36  62  83 103 147 206 242 271 340
#     4   9  16  32  59  79 101 143 196 232 266 339
#     4  10  20  36  55  87 117 150 191 235 298 353
#     4  10  24  34  48  80 126 152 176 236 304 339
#
# _framework density 22.159087
#
# number of rings (size 3 to 8) (size 9 to 14) (size 15 to 20)
#    0.000    2.400    4.000    0.000    0.000    3.200 
#    0.000    6.000    0.000    4.800    0.000    0.000 
#    0.000    0.000    0.000    0.000    0.000    0.000 
#
# Total GULP energy -223165.091146 kJ/mol
# GULP energy per Si atom -5579.127279 kJ/mol
# Density = 2.210865 g / cm^3
# Si number density = 22.159087 Si / 1000 Ang^3
#
#
#
# Elastic Constant Matrix: (Units=GPa)
#
#
# Indices 1 2 3 4 5 6 
#
# 1 110.9448 41.2748 17.0743 0.0000 0.0000 0.0000
# 2 41.2748 110.9448 17.0743 0.0000 0.0000 0.0000
# 3 17.0743 17.0743 74.5338 0.0000 0.0000 0.0000
# 4 0.0000 0.0000 0.0000 16.6334 0.0000 0.0000
# 5 0.0000 0.0000 0.0000 0.0000 16.6334 0.0000
# 6 0.0000 0.0000 0.0000 0.0000 0.0000 54.4558
#
#
#
# Elastic Compliance Matrix: (Units=1/GPa)
#
#
# Indices 1 2 3 4 5 6 
#
# 1 0.010639 -0.003714 -0.001586 0.000000 0.000000 0.000000
# 2 -0.003714 0.010639 -0.001586 0.000000 0.000000 0.000000
# 3 -0.001586 -0.001586 0.014144 0.000000 0.000000 0.000000
# 4 0.000000 0.000000 0.000000 0.060120 0.000000 0.000000
# 5 0.000000 0.000000 0.000000 0.000000 0.060120 0.000000
# 6 0.000000 0.000000 0.000000 0.000000 0.000000 0.018364
#
#
# Mechanical properties :
#
#
# Convention : Reuss Voigt Hill
#
# Bulk Modulus (GPa) = 46.19271 49.69668 47.94469
# Shear Modulus (GPa) = 25.63892 32.27784 28.95838
#
# Velocity S-wave (km/s) = 3.40522 3.82074 3.61895
# Velocity P-wave (km/s) = 6.02925 6.47611 6.25667
#
# Compressibility (1/GPa) = 0.02164844
#
# Stress axis : x y z
#
# Youngs Moduli (GPa) = 93.99045 93.99045 70.70338
#
# Poissons Ratio (x) = 0.34908 0.11217
# Poissons Ratio (y) = 0.34908 0.11217
# Poissons Ratio (z) = 0.14911 0.14911
#
# Static dielectric constant tensor:
#      x y z
#    x 1.862410 0.000000 0.000000 
#    y 0.000000 1.862410 0.000000 
#    z 0.000000 0.000000 1.859120 
# 
# From -- ./inp_files/6472.got.cif
#   From: 2010.05.17/outbox.cif.g08.bks.cpg/sg98_4_cif.got.tgz:6472.got - 2010.06.03 20:00:51.
