data_PCOD9551497
_publ_section_title
;
Structure prediction by ZEFSAII (Michael W. Deem and Ramdas Pophale) SiO2 
 PCOD9551497
Probable space group: I 4 2 2 
;
_chemical_formula_sum "Si O2"
_cell_formula_units_Z 96
_cell_length_a 15.825177
_cell_length_b 15.825177
_cell_length_c 18.810683
_cell_angle_alpha 90.000000
_cell_angle_beta 90.000000
_cell_angle_gamma 90.000000
_cell_volume 4710.876479
_symmetry_space_group_name_H-M "I 4 2 2 "
_symmetry_group_IT_number 97
_symmetry_cell_setting 'tetragonal'
loop_
_space_group_symop_operation_xyz
x,y,z
-y,x,z
-x,-y,z
y,-x,z
x,-y,-z
-x,y,-z
y,x,-z
-y,-x,-z
1/2+x,1/2+y,1/2+z
1/2-y,1/2+x,1/2+z
1/2-x,1/2-y,1/2+z
1/2+y,1/2-x,1/2+z
1/2+x,1/2-y,1/2-z
1/2-x,1/2+y,1/2-z
1/2+y,1/2+x,1/2-z
1/2-y,1/2-x,1/2-z
loop_
_atom_site_type_symbol
_atom_site_label
_atom_site_fract_x
_atom_site_fract_y
_atom_site_fract_z
Si Si1 0.900926 0.492612 0.155574
Si Si2 0.217809 0.838346 0.875749
Si Si3 0.082956 0.108455 0.414781
Si Si4 0.705888 0.141352 0.387545
Si Si5 0.372995 0.096470 0.027328
Si Si6 0.159170 0.659170 0.250000
Si Si7 0.099268 0.099268 0.000000
O O1 0.850314 0.579829 0.160946
O O2 0.901436 0.456681 0.075191
O O3 0.851693 0.421385 0.198933
O O4 0.000000 0.500000 0.174458
O O5 0.199560 0.739238 0.872559
O O6 0.295681 0.873326 0.923188
O O7 0.254677 0.853218 0.795696
O O8 0.140061 0.869808 0.925277
O O9 0.100077 0.100077 0.500000
O O10 0.122985 0.194408 0.387844
O O11 0.984354 0.113938 0.392712
O O12 0.664778 0.125741 0.464848
O O13 0.360302 0.000000 0.000000
O O14 0.000000 0.116131 0.000000
#
# Coordination Sequence:
#
# PCOD9551497 Si02
#       7
#    16  16  16  16  16   8   8
#     4  11  24  42  66  98 142 183 229 282 357 432
#     4  11  24  44  68 102 138 180 229 289 352 417
#     4   9  20  34  52  84 131 177 211 262 331 406
#     4  12  23  36  67 102 132 174 231 289 350 417
#     4  11  21  38  64 102 139 175 221 291 352 412
#     4  10  27  48  66  96 145 188 226 280 356 426
#     4  11  24  46  78 108 134 179 244 314 368 407
#
# _framework density 20.378374000000001
#
# number of rings (size 3 to 8) (size 9 to 14) (size 15 to 20)
#    0.000    1.250    3.333    2.750    9.333    0.000 
#    6.000    0.000    0.000    0.000    0.000    0.000 
#    0.000    0.000    0.000    0.000    0.000    0.000 
#
# Total GULP energy -267447.995858 kJ/mol
# GULP energy per Si atom -5571.833247 kJ/mol
# Density = 2.033199 g / cm^3
# Si number density = 20.378374 Si / 1000 Ang^3
#
#
#
# Elastic Constant Matrix: (Units=GPa)
#
#
# Indices 1 2 3 4 5 6 
#
# 1 129.5220 49.2161 34.7195 0.0000 0.0000 0.0000
# 2 49.2161 129.5220 34.7195 0.0000 0.0000 0.0000
# 3 34.7195 34.7195 89.7509 0.0000 0.0000 0.0000
# 4 0.0000 0.0000 0.0000 28.3112 0.0000 0.0000
# 5 0.0000 0.0000 0.0000 0.0000 28.3112 0.0000
# 6 0.0000 0.0000 0.0000 0.0000 0.0000 28.0840
#
#
#
# Elastic Compliance Matrix: (Units=1/GPa)
#
#
# Indices 1 2 3 4 5 6 
#
# 1 0.009518 -0.002934 -0.002547 0.000000 0.000000 0.000000
# 2 -0.002934 0.009518 -0.002547 0.000000 0.000000 0.000000
# 3 -0.002547 -0.002547 0.013113 0.000000 0.000000 0.000000
# 4 0.000000 0.000000 0.000000 0.035322 0.000000 0.000000
# 5 0.000000 0.000000 0.000000 0.000000 0.035322 0.000000
# 6 0.000000 0.000000 0.000000 0.000000 0.000000 0.035607
#
#
# Mechanical properties :
#
#
# Convention : Reuss Voigt Hill
#
# Bulk Modulus (GPa) = 62.13941 65.12280 63.63110
# Shear Modulus (GPa) = 31.28500 32.28392 31.78446
#
# Velocity S-wave (km/s) = 3.92242 3.98455 3.95361
# Velocity P-wave (km/s) = 7.14653 7.29349 7.22038
#
# Compressibility (1/GPa) = 0.01609285
#
# Stress axis : x y z
#
# Youngs Moduli (GPa) = 105.06027 105.06027 76.26250
#
# Poissons Ratio (x) = 0.30825 0.19425
# Poissons Ratio (y) = 0.30825 0.19425
# Poissons Ratio (z) = 0.26760 0.26760
#
# Static dielectric constant tensor:
#      x y z
#    x 1.706680 0.000000 0.000000 
#    y 0.000000 1.706680 0.000000 
#    z 0.000000 0.000000 1.764360 
# 
# From -- ./inp_files/6690.got.cif
#   From: 2010.05.17/outbox.cif.g08.bks.cpg/sg97_4_cif.got.tgz:6690.got - 2010.06.03 19:55:32.
