data_PCOD9551243
_publ_section_title
;
Structure prediction by ZEFSAII (Michael W. Deem and Ramdas Pophale) SiO2 
 PCOD9551243
Probable space group: I 4 2 2 
;
_chemical_formula_sum "Si O2"
_cell_formula_units_Z 88
_cell_length_a 14.829014
_cell_length_b 14.829014
_cell_length_c 20.012149
_cell_angle_alpha 90.000000
_cell_angle_beta 90.000000
_cell_angle_gamma 90.000000
_cell_volume 4400.664685
_symmetry_space_group_name_H-M "I 4 2 2 "
_symmetry_group_IT_number 97
_symmetry_cell_setting 'tetragonal'
loop_
_space_group_symop_operation_xyz
x,y,z
-y,x,z
-x,-y,z
y,-x,z
x,-y,-z
-x,y,-z
y,x,-z
-y,-x,-z
1/2+x,1/2+y,1/2+z
1/2-y,1/2+x,1/2+z
1/2-x,1/2-y,1/2+z
1/2+y,1/2-x,1/2+z
1/2+x,1/2-y,1/2-z
1/2-x,1/2+y,1/2-z
1/2+y,1/2+x,1/2-z
1/2-y,1/2-x,1/2-z
loop_
_atom_site_type_symbol
_atom_site_label
_atom_site_fract_x
_atom_site_fract_y
_atom_site_fract_z
Si Si1 0.869878 0.924654 0.882731
Si Si2 0.219472 0.539537 0.879269
Si Si3 0.500000 0.349497 0.000000
Si Si4 0.241029 0.285898 0.427772
Si Si5 0.864997 0.302779 0.322175
Si Si6 0.795187 0.139941 0.259021
O O1 0.798841 0.876924 0.931013
O O2 0.831603 0.900168 0.809313
O O3 0.968784 0.881433 0.890783
O O4 0.190875 0.638938 0.904956
O O5 0.159941 0.452096 0.860816
O O6 0.263222 0.563629 0.808526
O O7 0.288206 0.503524 0.934615
O O8 0.586512 0.413489 0.000000
O O9 0.239831 0.239831 0.500000
O O10 0.292486 0.218995 0.374649
O O11 0.850435 0.350435 0.250000
O O12 0.870205 0.198621 0.297531
O O13 0.710999 0.210999 0.250000
#
# Coordination Sequence:
#
# PCOD9551243 Si02
#       6
#    16  16   8  16  16  16
#     4  11  23  40  65  94 123 157 211 276 337 384
#     4  11  20  35  63  88 131 175 212 257 319 390
#     4  11  22  34  52  96 142 175 214 255 318 412
#     4  11  23  41  63  90 130 174 214 260 330 396
#     4  10  19  35  58  93 124 164 213 263 307 380
#     4  10  18  36  61  93 127 170 215 262 325 383
#
# _framework density 19.996981000000002
#
# number of rings (size 3 to 8) (size 9 to 14) (size 15 to 20)
#    0.000    1.364    5.455    4.909    0.000    0.727 
#    0.000    2.727    0.000    4.909    0.000    2.545 
#    0.000    0.000    0.000    0.000    0.000    0.000 
#
# Total GULP energy -245063.774856 kJ/mol
# GULP energy per Si atom -5569.631247 kJ/mol
# Density = 1.995147 g / cm^3
# Si number density = 19.996981 Si / 1000 Ang^3
#
#
#
# Elastic Constant Matrix: (Units=GPa)
#
#
# Indices 1 2 3 4 5 6 
#
# 1 77.4930 48.5199 19.4957 0.0000 0.0000 0.0000
# 2 48.5199 77.4927 19.4957 0.0000 0.0000 0.0000
# 3 19.4957 19.4957 86.9646 0.0000 0.0000 0.0000
# 4 0.0000 0.0000 0.0000 -3.1012 0.0000 0.0000
# 5 0.0000 0.0000 0.0000 0.0000 -3.0654 0.0000
# 6 0.0000 0.0000 0.0000 0.0000 0.0000 26.8968
#
#
#
# Elastic Compliance Matrix: (Units=1/GPa)
#
#
# Indices 1 2 3 4 5 6 
#
# 1 0.021521 -0.012994 -0.001912 0.000000 0.000000 0.000000
# 2 -0.012994 0.021521 -0.001912 0.000000 0.000000 0.000000
# 3 -0.001912 -0.001912 0.012356 0.000000 0.000000 0.000000
# 4 0.000000 0.000000 0.000000 -0.322459 0.000000 0.000000
# 5 0.000000 0.000000 0.000000 0.000000 -0.326220 0.000000
# 6 0.000000 0.000000 0.000000 0.000000 0.000000 0.037179
#
#
# Mechanical properties :
#
#
# Convention : Reuss Voigt Hill
#
# Bulk Modulus (GPa) = 45.94759 46.33034 46.13897
# Shear Modulus (GPa) = -9.70472 14.44198 2.36863
#
# Velocity S-wave (km/s) = -2.20536 2.69031 1.08953
# Velocity P-wave (km/s) = 4.06722 5.73318 4.97049
#
# Compressibility (1/GPa) = 0.02176393
#
# Stress axis : x y z
#
# Youngs Moduli (GPa) = 46.46614 46.46599 80.93219
#
# Poissons Ratio (x) = 0.60377 0.15471
# Poissons Ratio (y) = 0.60378 0.15471
# Poissons Ratio (z) = 0.08883 0.08883
#
# Static dielectric constant tensor:
#      x y z
#    x 1.739230 0.000000 0.000000 
#    y 0.000000 1.739230 0.000000 
#    z 0.000000 0.000000 1.759190 
# 
# From -- ./inp_files/6537.got.cif
#   From: 2010.05.17/outbox.cif.g08.bks.cpg/sg97_4_cif.got.tgz:6537.got - 2010.06.03 19:55:32.
