data_PCOD9551866
_publ_section_title
;
Structure prediction by ZEFSAII (Michael W. Deem and Ramdas Pophale) SiO2 
 PCOD9551866
Probable space group: I 41 2 2
;
_chemical_formula_sum "Si O2"
_cell_formula_units_Z 116
_cell_length_a 17.857147
_cell_length_b 17.857147
_cell_length_c 19.723315
_cell_angle_alpha 90.000000
_cell_angle_beta 90.000000
_cell_angle_gamma 90.000000
_cell_volume 6289.325303
_symmetry_space_group_name_H-M "I 41 2 2"
_symmetry_group_IT_number 98
_symmetry_cell_setting 'tetragonal'
loop_
_space_group_symop_operation_xyz
x,y,z
-y,1/2+x,1/4+z
-x,-y,z
y,1/2-x,1/4+z
x,1/2-y,1/4-z
-x,1/2+y,1/4-z
y,x,-z
-y,-x,-z
1/2+x,1/2+y,1/2+z
1/2-y,x,3/4+z
1/2-x,1/2-y,1/2+z
1/2+y,-x,3/4+z
1/2+x,-y,3/4-z
1/2-x,y,3/4-z
1/2+y,1/2+x,1/2-z
1/2-y,1/2-x,1/2-z
loop_
_atom_site_type_symbol
_atom_site_label
_atom_site_fract_x
_atom_site_fract_y
_atom_site_fract_z
Si Si1 0.300022 0.005197 0.941658
Si Si2 0.815566 0.868224 0.320779
Si Si3 0.212279 0.397070 0.206723
Si Si4 0.117444 0.984696 0.386014
Si Si5 0.135180 0.769636 0.553970
Si Si6 0.000000 0.500000 0.750000
Si Si7 0.083708 0.890419 0.749338
Si Si8 0.362686 0.424323 0.685083
O O1 0.250000 0.992737 0.875000
O O2 0.362085 0.071412 0.933607
O O3 0.241706 0.034789 0.997677
O O4 0.349247 0.935163 0.966086
O O5 0.750000 0.861358 0.375000
O O6 0.853487 0.787573 0.314827
O O7 0.803911 0.895725 0.242932
O O8 0.863276 0.936988 0.350891
O O9 0.157911 0.342090 0.250000
O O10 0.172306 0.424958 0.139019
O O11 0.185664 0.936430 0.416456
O O12 0.078912 0.935864 0.326281
O O13 0.069082 0.000202 0.450704
O O14 0.177952 0.750000 0.625000
O O15 0.180774 0.819227 0.500000
O O16 0.107852 0.694866 0.516243
O O17 0.006553 0.890894 0.792165
#
# Coordination Sequence:
#
# PCOD9551866 Si02
#       8
#    16  16  16  16  16   4  16  16
#     4  11  23  42  66  91 125 162 218 277 315 384
#     4  10  23  36  60  93 132 166 213 259 307 396
#     4  11  24  40  63  93 126 173 214 259 334 387
#     4  10  22  40  57  97 132 169 208 265 315 388
#     4  10  21  41  65  91 134 169 211 268 332 382
#     4  12  24  32  64  92 136 164 222 248 306 394
#     4  10  23  41  67  89 125 171 216 264 332 385
#     4  10  22  41  64  88 129 173 209 258 330 381
#
# _framework density 18.443950999999998
#
# number of rings (size 3 to 8) (size 9 to 14) (size 15 to 20)
#    0.000    1.655    2.069    2.483    9.655    4.966 
#    0.000    0.690    0.000    0.000    0.000    0.000 
#    0.000    0.000    0.000    0.000    0.000    0.000 
#
# Total GULP energy -323381.180927 kJ/mol
# GULP energy per Si atom -5575.537602 kJ/mol
# Density = 1.840197 g / cm^3
# Si number density = 18.443951 Si / 1000 Ang^3
#
#
#
# Elastic Constant Matrix: (Units=GPa)
#
#
# Indices 1 2 3 4 5 6 
#
# 1 126.5132 5.5105 79.5255 0.0000 0.0000 0.0000
# 2 5.5105 126.5146 79.5285 0.0000 0.0000 0.0000
# 3 79.5255 79.5285 178.5818 0.0000 0.0000 0.0000
# 4 0.0000 0.0000 0.0000 38.4048 0.0000 0.0000
# 5 0.0000 0.0000 0.0000 0.0000 38.4046 0.0000
# 6 0.0000 0.0000 0.0000 0.0000 0.0000 11.4110
#
#
#
# Elastic Compliance Matrix: (Units=1/GPa)
#
#
# Indices 1 2 3 4 5 6 
#
# 1 0.012303 0.004039 -0.007277 0.000000 0.000000 0.000000
# 2 0.004039 0.012303 -0.007277 0.000000 0.000000 0.000000
# 3 -0.007277 -0.007277 0.012081 0.000000 0.000000 0.000000
# 4 0.000000 0.000000 0.000000 0.026038 0.000000 0.000000
# 5 0.000000 0.000000 0.000000 0.000000 0.026039 0.000000
# 6 0.000000 0.000000 0.000000 0.000000 0.000000 0.087635
#
#
# Mechanical properties :
#
#
# Convention : Reuss Voigt Hill
#
# Bulk Modulus (GPa) = 63.87692 84.52651 74.20171
# Shear Modulus (GPa) = 24.67318 35.44709 30.06013
#
# Velocity S-wave (km/s) = 3.66148 4.38868 4.04147
# Velocity P-wave (km/s) = 7.25144 8.46221 7.88012
#
# Compressibility (1/GPa) = 0.01565511
#
# Stress axis : x y z
#
# Youngs Moduli (GPa) = 81.28215 81.28107 82.77304
#
# Poissons Ratio (x) = -0.32827 0.60236
# Poissons Ratio (y) = -0.32827 0.60237
# Poissons Ratio (z) = 0.59151 0.59152
#
# Static dielectric constant tensor:
#      x y z
#    x 1.630470 0.000000 0.000000 
#    y 0.000000 1.630470 0.000000 
#    z 0.000000 0.000000 1.648440 
# 
# From -- ./inp_files/7838.got.cif
#   From: 2010.05.17/outbox.cif.g08.bks.cpg/sg98_4_cif.got.tgz:7838.got - 2010.06.03 20:00:51.
