data_PCOD9551561
_publ_section_title
;
Structure prediction by ZEFSAII (Michael W. Deem and Ramdas Pophale) SiO2 
 PCOD9551561
Probable space group: I 4 2 2 
;
_chemical_formula_sum "Si O2"
_cell_formula_units_Z 56
_cell_length_a 17.299750
_cell_length_b 17.299750
_cell_length_c 7.429647
_cell_angle_alpha 90.000000
_cell_angle_beta 90.000000
_cell_angle_gamma 90.000000
_cell_volume 2223.554785
_symmetry_space_group_name_H-M "I 4 2 2 "
_symmetry_group_IT_number 97
_symmetry_cell_setting 'tetragonal'
loop_
_space_group_symop_operation_xyz
x,y,z
-y,x,z
-x,-y,z
y,-x,z
x,-y,-z
-x,y,-z
y,x,-z
-y,-x,-z
1/2+x,1/2+y,1/2+z
1/2-y,1/2+x,1/2+z
1/2-x,1/2-y,1/2+z
1/2+y,1/2-x,1/2+z
1/2+x,1/2-y,1/2-z
1/2-x,1/2+y,1/2-z
1/2+y,1/2+x,1/2-z
1/2-y,1/2-x,1/2-z
loop_
_atom_site_type_symbol
_atom_site_label
_atom_site_fract_x
_atom_site_fract_y
_atom_site_fract_z
Si Si1 0.650205 0.921653 0.605423
Si Si2 0.671029 0.428014 0.865876
Si Si3 0.648816 0.236527 0.597511
Si Si4 0.826158 0.000000 0.000000
O O1 0.582984 0.917017 0.750000
O O2 0.738732 0.911966 0.674290
O O3 0.634224 0.845506 0.492685
O O4 0.649094 0.000000 0.500000
O O5 0.635459 0.451940 0.669134
O O6 0.662791 0.500000 0.000000
O O7 0.638796 0.361205 0.000000
O O8 0.698822 0.301178 0.500000
O O9 0.707803 0.207803 0.750000
O O10 0.563889 0.275534 0.611735
#
# Coordination Sequence:
#
# PCOD9551561 Si02
#       4
#    16  16  16   8
#     4  11  23  45  78 117 159 210 274 337 407 489
#     4  11  26  47  77 115 159 208 271 349 412 503
#     4  12  27  47  81 117 156 215 274 333 415 498
#     4  12  28  48  79 119 164 212 278 350 418 485
#
# _framework density 25.184898
#
# number of rings (size 3 to 8) (size 9 to 14) (size 15 to 20)
#    0.000    0.571    2.857    5.143    8.000    0.286 
#    0.000    0.714    6.286    2.143    0.000    0.000 
#    0.000    0.000    0.000    0.000    0.000    0.000 
#
# Total GULP energy -156246.120169 kJ/mol
# GULP energy per Si atom -5580.218577 kJ/mol
# Density = 2.512758 g / cm^3
# Si number density = 25.184898 Si / 1000 Ang^3
#
#
#
# Elastic Constant Matrix: (Units=GPa)
#
#
# Indices 1 2 3 4 5 6 
#
# 1 106.4351 55.9392 44.5877 0.0000 0.0000 0.0000
# 2 55.9392 106.4212 44.5897 0.0000 0.0000 0.0000
# 3 44.5877 44.5897 139.1938 0.0000 0.0000 0.0000
# 4 0.0000 0.0000 0.0000 42.5156 0.0000 0.0000
# 5 0.0000 0.0000 0.0000 0.0000 42.5246 0.0000
# 6 0.0000 0.0000 0.0000 0.0000 0.0000 13.4358
#
#
#
# Elastic Compliance Matrix: (Units=1/GPa)
#
#
# Indices 1 2 3 4 5 6 
#
# 1 0.013639 -0.006166 -0.002394 0.000000 0.000000 0.000000
# 2 -0.006166 0.013641 -0.002395 0.000000 0.000000 0.000000
# 3 -0.002394 -0.002395 0.008718 0.000000 0.000000 0.000000
# 4 0.000000 0.000000 0.000000 0.023521 0.000000 0.000000
# 5 0.000000 0.000000 0.000000 0.000000 0.023516 0.000000
# 6 0.000000 0.000000 0.000000 0.000000 0.000000 0.074428
#
#
# Mechanical properties :
#
#
# Convention : Reuss Voigt Hill
#
# Bulk Modulus (GPa) = 70.97643 71.36482 71.17062
# Shear Modulus (GPa) = 27.16385 33.49077 30.32731
#
# Velocity S-wave (km/s) = 3.28773 3.65059 3.47390
# Velocity P-wave (km/s) = 6.53112 6.79463 6.66418
#
# Compressibility (1/GPa) = 0.01408918
#
# Stress axis : x y z
#
# Youngs Moduli (GPa) = 73.31952 73.30743 114.70422
#
# Poissons Ratio (x) = 0.45203 0.27456
# Poissons Ratio (y) = 0.45211 0.27467
# Poissons Ratio (z) = 0.17550 0.17554
#
# Static dielectric constant tensor:
#      x y z
#    x 2.008500 0.000000 0.000000 
#    y 0.000000 2.008540 0.000000 
#    z 0.000000 0.000000 4.417830 
# 
# From -- ./inp_files/1853.got.cif
#   From: 2010.05.17/outbox.cif.g08.bks.cpg/sg97_1_cif.got.tgz:1853.got - 2010.06.03 19:55:32.
