data_PCOD9551231
_publ_section_title
;
Structure prediction by ZEFSAII (Michael W. Deem and Ramdas Pophale) SiO2 
 PCOD9551231
Probable space group: I 4 2 2 
;
_chemical_formula_sum "Si O2"
_cell_formula_units_Z 96
_cell_length_a 16.031692
_cell_length_b 16.031692
_cell_length_c 20.183461
_cell_angle_alpha 90.000000
_cell_angle_beta 90.000000
_cell_angle_gamma 90.000000
_cell_volume 5187.455224
_symmetry_space_group_name_H-M "I 4 2 2 "
_symmetry_group_IT_number 97
_symmetry_cell_setting 'tetragonal'
loop_
_space_group_symop_operation_xyz
x,y,z
-y,x,z
-x,-y,z
y,-x,z
x,-y,-z
-x,y,-z
y,x,-z
-y,-x,-z
1/2+x,1/2+y,1/2+z
1/2-y,1/2+x,1/2+z
1/2-x,1/2-y,1/2+z
1/2+y,1/2-x,1/2+z
1/2+x,1/2-y,1/2-z
1/2-x,1/2+y,1/2-z
1/2+y,1/2+x,1/2-z
1/2-y,1/2-x,1/2-z
loop_
_atom_site_type_symbol
_atom_site_label
_atom_site_fract_x
_atom_site_fract_y
_atom_site_fract_z
Si Si1 0.086254 0.112037 0.711660
Si Si2 0.761957 0.985331 0.920947
Si Si3 0.077654 0.545364 0.571115
Si Si4 0.227564 0.587857 0.984427
Si Si5 0.224256 0.816146 0.607667
Si Si6 0.171782 0.848082 0.854298
O O1 0.124096 0.175029 0.657557
O O2 0.123507 0.142246 0.781855
O O3 0.985451 0.112800 0.706006
O O4 0.793619 0.069278 0.888373
O O5 0.667530 0.967250 0.897395
O O6 0.815129 0.906327 0.897165
O O7 0.764753 0.000000 0.000000
O O8 0.084073 0.500000 0.500000
O O9 0.065594 0.641857 0.553127
O O10 0.000000 0.500000 0.605875
O O11 0.275015 0.651972 0.937396
O O12 0.271943 0.500000 0.000000
O O13 0.217144 0.634467 0.055040
O O14 0.277982 0.744184 0.643162
#
# Coordination Sequence:
#
# PCOD9551231 Si02
#       6
#    16  16  16  16  16  16
#     4  11  24  46  64  83 115 163 214 256 308 366
#     4  11  23  37  61  95 127 160 198 250 301 358
#     4  10  18  33  56  88 128 160 185 234 302 373
#     4  11  21  37  61  95 122 154 199 243 312 366
#     4  11  24  39  64  89 125 155 199 264 301 366
#     4  12  23  41  63  90 126 163 209 248 303 370
#
# _framework density 18.506184000000001
#
# number of rings (size 3 to 8) (size 9 to 14) (size 15 to 20)
#    0.000    1.000    5.000    4.000    2.333    0.333 
#    0.000    0.833    0.000    4.000    0.000    2.333 
#    0.000    0.000    0.000    0.000    0.000    0.000 
#
# Total GULP energy -267816.938642 kJ/mol
# GULP energy per Si atom -5579.519555 kJ/mol
# Density = 1.846406 g / cm^3
# Si number density = 18.506184 Si / 1000 Ang^3
#
#
#
# Elastic Constant Matrix: (Units=GPa)
#
#
# Indices 1 2 3 4 5 6 
#
# 1 127.9433 58.5823 43.2012 0.0000 0.0000 0.0000
# 2 58.5823 127.9433 43.2012 0.0000 0.0000 0.0000
# 3 43.2012 43.2012 86.2271 0.0000 0.0000 0.0000
# 4 0.0000 0.0000 0.0000 -225.1201 0.0000 0.0001
# 5 0.0000 0.0000 0.0000 0.0000 -225.1204 0.0001
# 6 0.0000 0.0000 0.0000 0.0001 0.0001 -109.9174
#
#
#
# Elastic Compliance Matrix: (Units=1/GPa)
#
#
# Indices 1 2 3 4 5 6 
#
# 1 0.010699 -0.003718 -0.003498 0.000000 0.000000 0.000000
# 2 -0.003718 0.010699 -0.003498 0.000000 0.000000 0.000000
# 3 -0.003498 -0.003498 0.015102 0.000000 0.000000 0.000000
# 4 0.000000 0.000000 0.000000 -0.004442 0.000000 0.000000
# 5 0.000000 0.000000 0.000000 0.000000 -0.004442 0.000000
# 6 0.000000 0.000000 0.000000 0.000000 0.000000 -0.009098
#
#
# Mechanical properties :
#
#
# Convention : Reuss Voigt Hill
#
# Bulk Modulus (GPa) = 66.34013 70.23144 68.28579
# Shear Modulus (GPa) = 111.18305 -98.88967 6.14669
#
# Velocity S-wave (km/s) = 7.75946 -7.31792 1.82446
# Velocity P-wave (km/s) = 10.77982 5.77668 6.43562
#
# Compressibility (1/GPa) = 0.01507383
#
# Stress axis : x y z
#
# Youngs Moduli (GPa) = 93.46325 93.46325 66.21549
#
# Poissons Ratio (x) = 0.34749 0.23161
# Poissons Ratio (y) = 0.34749 0.23161
# Poissons Ratio (z) = 0.32692 0.32692
#
# Static dielectric constant tensor:
#      x y z
#    x 2.068870 0.000000 0.000000 
#    y 0.000000 2.068870 0.000000 
#    z 0.000000 0.000000 1.620470 
# 
# From -- ./inp_files/6641.got.cif
#   From: 2010.05.17/outbox.cif.g08.bks.cpg/sg97_4_cif.got.tgz:6641.got - 2010.06.03 19:55:32.
