data_PCOD9551668
_publ_section_title
;
Structure prediction by ZEFSAII (Michael W. Deem and Ramdas Pophale) SiO2 
 PCOD9551668
Probable space group: I 41 2 2
;
_chemical_formula_sum "Si O2"
_cell_formula_units_Z 76
_cell_length_a 13.701381
_cell_length_b 13.701381
_cell_length_c 21.161610
_cell_angle_alpha 90.000000
_cell_angle_beta 90.000000
_cell_angle_gamma 90.000000
_cell_volume 3972.623364
_symmetry_space_group_name_H-M "I 41 2 2"
_symmetry_group_IT_number 98
_symmetry_cell_setting 'tetragonal'
loop_
_space_group_symop_operation_xyz
x,y,z
-y,1/2+x,1/4+z
-x,-y,z
y,1/2-x,1/4+z
x,1/2-y,1/4-z
-x,1/2+y,1/4-z
y,x,-z
-y,-x,-z
1/2+x,1/2+y,1/2+z
1/2-y,x,3/4+z
1/2-x,1/2-y,1/2+z
1/2+y,-x,3/4+z
1/2+x,-y,3/4-z
1/2-x,y,3/4-z
1/2+y,1/2+x,1/2-z
1/2-y,1/2-x,1/2-z
loop_
_atom_site_type_symbol
_atom_site_label
_atom_site_fract_x
_atom_site_fract_y
_atom_site_fract_z
Si Si1 0.332278 0.991192 0.000233
Si Si2 0.264551 0.420162 0.619171
Si Si3 0.500000 0.000000 0.250000
Si Si4 0.655345 0.498921 0.748192
Si Si5 0.674156 0.592384 0.938864
Si Si6 0.750000 0.922937 0.875000
O O1 0.419304 0.071237 0.999769
O O2 0.276205 0.010986 0.935017
O O3 0.391784 0.890253 0.004210
O O4 0.261369 0.015179 0.058571
O O5 0.290342 0.484948 0.680844
O O6 0.166549 0.358448 0.634916
O O7 0.351469 0.341895 0.609971
O O8 0.487395 0.091075 0.203818
O O9 0.728249 0.530916 0.803762
O O10 0.666183 0.666183 0.000000
#
# Coordination Sequence:
#
# PCOD9551668 Si02
#       6
#    16  16   4  16  16   8
#     4  10  20  34  56  83 111 150 191 240 295 334
#     4  10  18  33  58  83 112 148 188 237 295 350
#     4   8  16  28  52  84 116 152 182 210 286 372
#     4   9  19  35  53  82 117 143 183 240 284 351
#     4   8  16  31  53  81 115 146 179 227 282 356
#     4  10  20  34  56  82 112 142 198 256 286 330
#
# _framework density 19.130934
#
# number of rings (size 3 to 8) (size 9 to 14) (size 15 to 20)
#    0.632    2.105    0.000    1.895    0.000    5.053 
#    0.000    1.053    4.632    5.053    0.000    0.000 
#    0.000    0.000    0.000    0.000    0.000    0.000 
#
# Total GULP energy -211578.780503 kJ/mol
# GULP energy per Si atom -5567.862645 kJ/mol
# Density = 1.908739 g / cm^3
# Si number density = 19.130934 Si / 1000 Ang^3
#
#
#
# Elastic Constant Matrix: (Units=GPa)
#
#
# Indices 1 2 3 4 5 6 
#
# 1 67.1166 40.6201 29.7552 0.0000 0.0000 0.0000
# 2 40.6201 67.1166 29.7552 0.0000 0.0000 0.0000
# 3 29.7552 29.7552 90.6811 0.0000 0.0000 0.0000
# 4 0.0000 0.0000 0.0000 13.9218 0.0000 0.0000
# 5 0.0000 0.0000 0.0000 0.0000 13.9218 0.0000
# 6 0.0000 0.0000 0.0000 0.0000 0.0000 32.5061
#
#
#
# Elastic Compliance Matrix: (Units=1/GPa)
#
#
# Indices 1 2 3 4 5 6 
#
# 1 0.024539 -0.013202 -0.003720 0.000000 0.000000 0.000000
# 2 -0.013202 0.024539 -0.003720 0.000000 0.000000 0.000000
# 3 -0.003720 -0.003720 0.013469 0.000000 0.000000 0.000000
# 4 0.000000 0.000000 0.000000 0.071830 0.000000 0.000000
# 5 0.000000 0.000000 0.000000 0.000000 0.071830 0.000000
# 6 0.000000 0.000000 0.000000 0.000000 0.000000 0.030763
#
#
# Mechanical properties :
#
#
# Convention : Reuss Voigt Hill
#
# Bulk Modulus (GPa) = 47.03097 47.24170 47.13634
# Shear Modulus (GPa) = 17.52289 20.38885 18.95587
#
# Velocity S-wave (km/s) = 3.02974 3.26813 3.15119
# Velocity P-wave (km/s) = 6.07258 6.24407 6.15892
#
# Compressibility (1/GPa) = 0.02126258
#
# Stress axis : x y z
#
# Youngs Moduli (GPa) = 40.75187 40.75187 74.24525
#
# Poissons Ratio (x) = 0.53801 0.27618
# Poissons Ratio (y) = 0.53801 0.27618
# Poissons Ratio (z) = 0.15159 0.15159
#
# Static dielectric constant tensor:
#      x y z
#    x 1.684180 0.000000 0.000000 
#    y 0.000000 1.684180 0.000000 
#    z 0.000000 0.000000 1.812330 
# 
# From -- ./inp_files/8734.got.cif
#   From: 2010.05.17/outbox.cif.g08.bks.cpg/sg98_5_cif.got.tgz:8734.got - 2010.06.03 20:00:51.
