data_PCOD9551663
_publ_section_title
;
Structure prediction by ZEFSAII (Michael W. Deem and Ramdas Pophale) SiO2 
 PCOD9551663
Probable space group: I 41 2 2
;
_chemical_formula_sum "Si O2"
_cell_formula_units_Z 96
_cell_length_a 21.496216
_cell_length_b 21.496216
_cell_length_c 9.462777
_cell_angle_alpha 90.000000
_cell_angle_beta 90.000000
_cell_angle_gamma 90.000000
_cell_volume 4372.629096
_symmetry_space_group_name_H-M "I 41 2 2"
_symmetry_group_IT_number 98
_symmetry_cell_setting 'tetragonal'
loop_
_space_group_symop_operation_xyz
x,y,z
-y,1/2+x,1/4+z
-x,-y,z
y,1/2-x,1/4+z
x,1/2-y,1/4-z
-x,1/2+y,1/4-z
y,x,-z
-y,-x,-z
1/2+x,1/2+y,1/2+z
1/2-y,x,3/4+z
1/2-x,1/2-y,1/2+z
1/2+y,-x,3/4+z
1/2+x,-y,3/4-z
1/2-x,y,3/4-z
1/2+y,1/2+x,1/2-z
1/2-y,1/2-x,1/2-z
loop_
_atom_site_type_symbol
_atom_site_label
_atom_site_fract_x
_atom_site_fract_y
_atom_site_fract_z
Si Si1 0.616828 0.020951 0.425718
Si Si2 0.086789 0.720698 0.987402
Si Si3 0.006377 0.895846 0.347902
Si Si4 0.800934 0.135767 0.265323
Si Si5 0.163461 0.117576 0.655915
Si Si6 0.712360 0.918962 0.520662
O O1 0.600915 0.998217 0.267709
O O2 0.549709 0.050278 0.469405
O O3 0.660206 0.081766 0.407287
O O4 0.659041 0.973261 0.517874
O O5 0.056788 0.750000 0.125000
O O6 0.044058 0.667229 0.926631
O O7 0.151378 0.688155 0.031294
O O8 0.103627 0.769323 0.867528
O O9 0.937743 0.882187 0.293134
O O10 0.750000 0.160403 0.375000
O O11 0.141626 0.141626 0.500000
O O12 0.146517 0.175958 0.753940
O O13 0.233176 0.090461 0.636415
O O14 0.750000 0.932695 0.375000
#
# Coordination Sequence:
#
# PCOD9551663 Si02
#       6
#    16  16  16  16  16  16
#     4  10  18  31  53  79 108 142 182 227 294 349
#     4  11  23  34  48  71 107 147 191 236 284 345
#     4  10  19  33  51  78 110 144 184 232 284 350
#     4  11  20  33  51  72 101 145 191 241 291 340
#     4  10  19  32  53  80 114 146 178 234 297 356
#     4  10  18  31  49  81 112 145 177 228 302 352
#
# _framework density 21.954754000000001
#
# number of rings (size 3 to 8) (size 9 to 14) (size 15 to 20)
#    0.000    1.667    5.000    2.500    0.000    2.667 
#    0.000    0.000    0.000    7.000    0.000    3.500 
#    0.000   10.667    0.000    0.000    0.000    0.000 
#
# Total GULP energy -267618.675957 kJ/mol
# GULP energy per Si atom -5575.389082 kJ/mol
# Density = 2.190478 g / cm^3
# Si number density = 21.954754 Si / 1000 Ang^3
#
#
#
# Elastic Constant Matrix: (Units=GPa)
#
#
# Indices 1 2 3 4 5 6 
#
# 1 87.6719 81.0037 11.8537 0.0000 0.0000 0.0000
# 2 81.0037 87.6719 11.8537 0.0000 0.0000 0.0000
# 3 11.8537 11.8537 33.0753 0.0000 0.0000 0.0000
# 4 0.0000 0.0000 0.0000 8.0773 0.0000 0.0000
# 5 0.0000 0.0000 0.0000 0.0000 8.0773 0.0000
# 6 0.0000 0.0000 0.0000 0.0000 0.0000 52.8802
#
#
#
# Elastic Compliance Matrix: (Units=1/GPa)
#
#
# Indices 1 2 3 4 5 6 
#
# 1 0.078105 -0.071862 -0.002237 0.000000 0.000000 0.000000
# 2 -0.071862 0.078105 -0.002237 0.000000 0.000000 0.000000
# 3 -0.002237 -0.002237 0.031838 0.000000 0.000000 0.000000
# 4 0.000000 0.000000 0.000000 0.123804 0.000000 0.000000
# 5 0.000000 0.000000 0.000000 0.000000 0.123804 0.000000
# 6 0.000000 0.000000 0.000000 0.000000 0.000000 0.018911
#
#
# Mechanical properties :
#
#
# Convention : Reuss Voigt Hill
#
# Bulk Modulus (GPa) = 28.26921 46.42682 37.34801
# Shear Modulus (GPa) = 8.07715 20.72081 14.39898
#
# Velocity S-wave (km/s) = 1.92015 3.07546 2.56373
# Velocity P-wave (km/s) = 4.22138 5.81410 5.08054
#
# Compressibility (1/GPa) = 0.03537417
#
# Stress axis : x y z
#
# Youngs Moduli (GPa) = 12.80333 12.80333 31.40920
#
# Poissons Ratio (x) = 0.92007 0.07028
# Poissons Ratio (y) = 0.92007 0.07028
# Poissons Ratio (z) = 0.02865 0.02865
#
# Static dielectric constant tensor:
#      x y z
#    x 1.850780 0.000000 0.000000 
#    y 0.000000 1.850780 0.000000 
#    z 0.000000 0.000000 1.766690 
# 
# From -- ./inp_files/5284.got.cif
#   From: 2010.05.17/outbox.cif.g08.bks.cpg/sg98_3_cif.got.tgz:5284.got - 2010.06.03 20:00:51.
