data_PCOD9551899
_publ_section_title
;
Structure prediction by ZEFSAII (Michael W. Deem and Ramdas Pophale) SiO2 
 PCOD9551899
Probable space group: I 41 2 2
;
_chemical_formula_sum "Si O2"
_cell_formula_units_Z 60
_cell_length_a 16.548595
_cell_length_b 16.548595
_cell_length_c 10.246583
_cell_angle_alpha 90.000000
_cell_angle_beta 90.000000
_cell_angle_gamma 90.000000
_cell_volume 2806.088198
_symmetry_space_group_name_H-M "I 41 2 2"
_symmetry_group_IT_number 98
_symmetry_cell_setting 'tetragonal'
loop_
_space_group_symop_operation_xyz
x,y,z
-y,1/2+x,1/4+z
-x,-y,z
y,1/2-x,1/4+z
x,1/2-y,1/4-z
-x,1/2+y,1/4-z
y,x,-z
-y,-x,-z
1/2+x,1/2+y,1/2+z
1/2-y,x,3/4+z
1/2-x,1/2-y,1/2+z
1/2+y,-x,3/4+z
1/2+x,-y,3/4-z
1/2-x,y,3/4-z
1/2+y,1/2+x,1/2-z
1/2-y,1/2-x,1/2-z
loop_
_atom_site_type_symbol
_atom_site_label
_atom_site_fract_x
_atom_site_fract_y
_atom_site_fract_z
Si Si1 0.250000 0.675124 0.375000
Si Si2 0.584407 0.401402 0.283700
Si Si3 0.556218 0.703037 0.251601
Si Si4 0.000000 0.500000 0.250000
Si Si5 0.632942 0.559431 0.134876
O O1 0.271290 0.728711 0.500000
O O2 0.329306 0.622831 0.341872
O O3 0.535251 0.326713 0.224832
O O4 0.522157 0.429285 0.397458
O O5 0.598977 0.473317 0.181526
O O6 0.611638 0.623581 0.248356
O O7 0.556552 0.770721 0.362596
O O8 0.587201 0.750000 0.125000
O O9 0.589121 0.589121 0.000000
#
# Coordination Sequence:
#
# PCOD9551899 Si02
#       5
#     8  16  16   4  16
#     4  12  28  46  68 106 150 188 230 300 372 436
#     4  12  24  45  70  99 138 181 235 285 349 436
#     4  10  22  40  68  98 132 172 224 280 344 410
#     4  12  24  44  66  92 132 184 236 264 328 418
#     4  10  22  42  71  98 136 174 229 289 346 416
#
# _framework density 21.382079999999998
#
# number of rings (size 3 to 8) (size 9 to 14) (size 15 to 20)
#    0.000    1.067    4.000    1.600    1.867    7.467 
#    0.000    0.000   41.067    0.000    0.000    0.000 
#    0.000    0.000    0.000    0.000    0.000    0.000 
#
# Total GULP energy -167144.300381 kJ/mol
# GULP energy per Si atom -5571.476679 kJ/mol
# Density = 2.133341 g / cm^3
# Si number density = 21.382080 Si / 1000 Ang^3
#
#
#
# Elastic Constant Matrix: (Units=GPa)
#
#
# Indices 1 2 3 4 5 6 
#
# 1 129.9712 75.8903 40.7807 0.0000 0.0000 0.0000
# 2 75.8903 129.9689 40.7807 0.0000 0.0000 0.0000
# 3 40.7807 40.7807 78.0778 0.0000 0.0000 0.0000
# 4 0.0000 0.0000 0.0000-1889.6963 0.0000 0.0000
# 5 0.0000 0.0000 0.0000 0.0000-1950.4399 0.0000
# 6 0.0000 0.0000 0.0000 0.0000 0.0000 13.8583
#
#
#
# Elastic Compliance Matrix: (Units=1/GPa)
#
#
# Indices 1 2 3 4 5 6 
#
# 1 0.012308 -0.006183 -0.003199 0.000000 0.000000 0.000000
# 2 -0.006183 0.012308 -0.003199 0.000000 0.000000 0.000000
# 3 -0.003199 -0.003199 0.016150 0.000000 0.000000 0.000000
# 4 0.000000 0.000000 0.000000 -0.000529 0.000000 0.000000
# 5 0.000000 0.000000 0.000000 0.000000 -0.000513 0.000000
# 6 0.000000 0.000000 0.000000 0.000000 0.000000 0.072159
#
#
# Mechanical properties :
#
#
# Convention : Reuss Voigt Hill
#
# Bulk Modulus (GPa) = 64.08967 72.54681 68.31824
# Shear Modulus (GPa) = 35.15003 -753.21784 -359.03390
#
# Velocity S-wave (km/s) = 4.05890 -18.78911 -12.97220
# Velocity P-wave (km/s) = 7.21144 20.89749 13.86903
#
# Compressibility (1/GPa) = 0.01560314
#
# Stress axis : x y z
#
# Youngs Moduli (GPa) = 81.24750 81.24582 61.92059
#
# Poissons Ratio (x) = 0.50234 0.19809
# Poissons Ratio (y) = 0.50235 0.19810
# Poissons Ratio (z) = 0.25993 0.25993
#
# Static dielectric constant tensor:
#      x y z
#    x 2.477910 0.000000 0.000000 
#    y 0.000000 2.499020 0.000000 
#    z 0.000000 0.000000 1.814210 
# 
# From -- ./inp_files/3061.got.cif
#   From: 2010.05.17/outbox.cif.g08.bks.cpg/sg98_2_cif.got.tgz:3061.got - 2010.06.03 20:00:51.
