data_PCOD9551524
_publ_section_title
;
Structure prediction by ZEFSAII (Michael W. Deem and Ramdas Pophale) SiO2 
 PCOD9551524
Probable space group: I 4 2 2 
;
_chemical_formula_sum "Si O2"
_cell_formula_units_Z 112
_cell_length_a 15.212743
_cell_length_b 15.212743
_cell_length_c 25.016816
_cell_angle_alpha 90.000000
_cell_angle_beta 90.000000
_cell_angle_gamma 90.000000
_cell_volume 5789.580425
_symmetry_space_group_name_H-M "I 4 2 2 "
_symmetry_group_IT_number 97
_symmetry_cell_setting 'tetragonal'
loop_
_space_group_symop_operation_xyz
x,y,z
-y,x,z
-x,-y,z
y,-x,z
x,-y,-z
-x,y,-z
y,x,-z
-y,-x,-z
1/2+x,1/2+y,1/2+z
1/2-y,1/2+x,1/2+z
1/2-x,1/2-y,1/2+z
1/2+y,1/2-x,1/2+z
1/2+x,1/2-y,1/2-z
1/2-x,1/2+y,1/2-z
1/2+y,1/2+x,1/2-z
1/2-y,1/2-x,1/2-z
loop_
_atom_site_type_symbol
_atom_site_label
_atom_site_fract_x
_atom_site_fract_y
_atom_site_fract_z
Si Si1 0.640650 0.688655 0.672030
Si Si2 0.291074 0.010141 0.351428
Si Si3 0.669068 0.882641 0.191344
Si Si4 0.358261 0.527138 0.768664
Si Si5 0.609900 0.600044 0.440709
Si Si6 0.918240 0.621648 0.188809
Si Si7 0.002300 0.144497 0.436397
O O1 0.729197 0.643633 0.693528
O O2 0.555178 0.658472 0.706865
O O3 0.635219 0.661571 0.610259
O O4 0.642640 0.792813 0.680829
O O5 0.315988 0.111968 0.344224
O O6 0.231358 0.973532 0.301977
O O7 0.380672 0.955377 0.347976
O O8 0.233146 0.995796 0.403412
O O9 0.629269 0.870732 0.250000
O O10 0.651785 0.983130 0.175434
O O11 0.401797 0.433401 0.782135
O O12 0.505664 0.618954 0.437341
O O13 0.634343 0.634343 0.500000
O O14 0.911389 0.588612 0.250000
O O15 0.916759 0.085820 0.422775
O O16 0.000000 0.157980 0.500000
#
# Coordination Sequence:
#
# PCOD9551524 Si02
#       7
#    16  16  16  16  16  16  16
#     4  12  23  38  60  91 121 160 215 269 316 380
#     4  12  24  38  63  90 126 169 216 262 311 396
#     4  12  25  40  62  87 128 173 215 254 317 393
#     4  11  22  35  56  90 126 156 192 260 333 375
#     4   9  18  35  60  87 118 156 195 243 312 382
#     4  12  24  42  60  87 127 171 212 254 323 396
#     4   9  20  41  69  99 133 172 214 271 341 396
#
# _framework density 19.345098
#
# number of rings (size 3 to 8) (size 9 to 14) (size 15 to 20)
#    0.000    1.000    2.857    6.000    4.000    2.286 
#    0.000    1.429    0.000    3.429    0.000    0.000 
#    0.000    0.000    0.000    0.000    0.000    0.000 
#
# Total GULP energy -312770.674485 kJ/mol
# GULP energy per Si atom -5585.190616 kJ/mol
# Density = 1.930107 g / cm^3
# Si number density = 19.345098 Si / 1000 Ang^3
#
#
#
# Elastic Constant Matrix: (Units=GPa)
#
#
# Indices 1 2 3 4 5 6 
#
# 1 87.3488 29.4025 19.7289 0.0000 0.0000 0.0000
# 2 29.4025 87.3486 19.7286 0.0000 0.0000 0.0000
# 3 19.7289 19.7286 70.8990 0.0000 0.0000 0.0000
# 4 0.0000 0.0000 0.0000 21.8846 0.0000 0.0000
# 5 0.0000 0.0000 0.0000 0.0000 21.8846 0.0000
# 6 0.0000 0.0000 0.0000 0.0000 0.0000 19.3294
#
#
#
# Elastic Compliance Matrix: (Units=1/GPa)
#
#
# Indices 1 2 3 4 5 6 
#
# 1 0.013356 -0.003902 -0.002631 0.000000 0.000000 0.000000
# 2 -0.003902 0.013356 -0.002631 0.000000 0.000000 0.000000
# 3 -0.002631 -0.002631 0.015569 0.000000 0.000000 0.000000
# 4 0.000000 0.000000 0.000000 0.045694 0.000000 0.000000
# 5 0.000000 0.000000 0.000000 0.000000 0.045694 0.000000
# 6 0.000000 0.000000 0.000000 0.000000 0.000000 0.051735
#
#
# Mechanical properties :
#
#
# Convention : Reuss Voigt Hill
#
# Bulk Modulus (GPa) = 41.74649 42.59072 42.16861
# Shear Modulus (GPa) = 23.61667 24.40212 24.00940
#
# Velocity S-wave (km/s) = 3.49780 3.55549 3.52676
# Velocity P-wave (km/s) = 6.15951 6.23854 6.19915
#
# Compressibility (1/GPa) = 0.02395411
#
# Stress axis : x y z
#
# Youngs Moduli (GPa) = 74.87350 74.87347 64.23136
#
# Poissons Ratio (x) = 0.29212 0.16898
# Poissons Ratio (y) = 0.29212 0.16898
# Poissons Ratio (z) = 0.19698 0.19698
#
# Static dielectric constant tensor:
#      x y z
#    x 1.704030 0.000000 0.000000 
#    y 0.000000 1.704040 0.000000 
#    z 0.000000 0.000000 1.674670 
# 
# From -- ./inp_files/7269.got.cif
#   From: 2010.05.17/outbox.cif.g08.bks.cpg/sg97_4_cif.got.tgz:7269.got - 2010.06.03 19:55:32.
