data_PCOD9551349
_publ_section_title
;
Structure prediction by ZEFSAII (Michael W. Deem and Ramdas Pophale) SiO2 
 PCOD9551349
Probable space group: I 4 2 2 
;
_chemical_formula_sum "Si O2"
_cell_formula_units_Z 52
_cell_length_a 13.660599
_cell_length_b 13.660599
_cell_length_c 12.008536
_cell_angle_alpha 90.000000
_cell_angle_beta 90.000000
_cell_angle_gamma 90.000000
_cell_volume 2240.936500
_symmetry_space_group_name_H-M "I 4 2 2 "
_symmetry_group_IT_number 97
_symmetry_cell_setting 'tetragonal'
loop_
_space_group_symop_operation_xyz
x,y,z
-y,x,z
-x,-y,z
y,-x,z
x,-y,-z
-x,y,-z
y,x,-z
-y,-x,-z
1/2+x,1/2+y,1/2+z
1/2-y,1/2+x,1/2+z
1/2-x,1/2-y,1/2+z
1/2+y,1/2-x,1/2+z
1/2+x,1/2-y,1/2-z
1/2-x,1/2+y,1/2-z
1/2+y,1/2+x,1/2-z
1/2-y,1/2-x,1/2-z
loop_
_atom_site_type_symbol
_atom_site_label
_atom_site_fract_x
_atom_site_fract_y
_atom_site_fract_z
Si Si1 0.284520 0.887226 0.354955
Si Si2 0.267949 0.111811 0.035896
Si Si3 0.588741 0.288559 0.775862
Si Si4 0.000000 0.000000 0.785013
O O1 0.348655 0.848655 0.250000
O O2 0.339779 0.854691 0.465568
O O3 0.181191 0.829009 0.344694
O O4 0.261845 0.001567 0.343883
O O5 0.275406 0.117200 0.168391
O O6 0.171595 0.171595 0.000000
O O7 0.258870 0.000000 0.000000
O O8 0.539698 0.386189 0.722638
#
# Coordination Sequence:
#
# PCOD9551349 Si02
#       4
#    16  16  16   4
#     4  11  21  39  66  99 139 190 232 293 359 408
#     4  12  22  36  66 102 134 180 239 287 352 416
#     4  10  20  38  65  99 144 177 240 296 352 423
#     4   8  16  36  65 108 129 174 220 313 356 380
#
# _framework density 23.204585000000002
#
# number of rings (size 3 to 8) (size 9 to 14) (size 15 to 20)
#    0.000    1.231    6.154    1.846    0.000    0.308 
#    0.000    1.538    0.000    8.308    0.000    6.462 
#    0.000    0.000    0.000    0.000    0.000    0.000 
#
# Total GULP energy -145137.190556 kJ/mol
# GULP energy per Si atom -5582.199637 kJ/mol
# Density = 2.315177 g / cm^3
# Si number density = 23.204585 Si / 1000 Ang^3
#
#
#
# Elastic Constant Matrix: (Units=GPa)
#
#
# Indices 1 2 3 4 5 6 
#
# 1 135.2271 28.5242 68.3759 0.0000 0.0000 0.0000
# 2 28.5242 135.2271 68.3759 0.0000 0.0000 0.0000
# 3 68.3759 68.3759 118.7441 0.0000 0.0000 0.0000
# 4 0.0000 0.0000 0.0000 25.1817 0.0000 0.0000
# 5 0.0000 0.0000 0.0000 0.0000 25.1817 0.0000
# 6 0.0000 0.0000 0.0000 0.0000 0.0000 35.0549
#
#
#
# Elastic Compliance Matrix: (Units=1/GPa)
#
#
# Indices 1 2 3 4 5 6 
#
# 1 0.010568 0.001196 -0.006774 0.000000 0.000000 0.000000
# 2 0.001196 0.010568 -0.006774 0.000000 0.000000 0.000000
# 3 -0.006774 -0.006774 0.016223 0.000000 0.000000 0.000000
# 4 0.000000 0.000000 0.000000 0.039711 0.000000 0.000000
# 5 0.000000 0.000000 0.000000 0.000000 0.039711 0.000000
# 6 0.000000 0.000000 0.000000 0.000000 0.000000 0.028527
#
#
# Mechanical properties :
#
#
# Convention : Reuss Voigt Hill
#
# Bulk Modulus (GPa) = 79.02222 79.97226 79.49724
# Shear Modulus (GPa) = 28.69773 32.01180 30.35476
#
# Velocity S-wave (km/s) = 3.52053 3.71825 3.62074
# Velocity P-wave (km/s) = 7.11716 7.27823 7.19815
#
# Compressibility (1/GPa) = 0.01265467
#
# Stress axis : x y z
#
# Youngs Moduli (GPa) = 94.62677 94.62677 61.64211
#
# Poissons Ratio (x) = -0.11318 0.41756
# Poissons Ratio (y) = -0.11318 0.41756
# Poissons Ratio (z) = 0.64099 0.64099
#
# Static dielectric constant tensor:
#      x y z
#    x 1.875520 0.000000 0.000000 
#    y 0.000000 1.875520 0.000000 
#    z 0.000000 0.000000 1.906400 
# 
# From -- ./inp_files/3250.got.cif
#   From: 2010.05.17/outbox.cif.g08.bks.cpg/sg97_2_cif.got.tgz:3250.got - 2010.06.03 19:55:32.
