data_PCOD9551532
_publ_section_title
;
Structure prediction by ZEFSAII (Michael W. Deem and Ramdas Pophale) SiO2 
 PCOD9551532
Probable space group: I 4 2 2 
;
_chemical_formula_sum "Si O2"
_cell_formula_units_Z 112
_cell_length_a 14.290576
_cell_length_b 14.290576
_cell_length_c 26.469478
_cell_angle_alpha 90.000000
_cell_angle_beta 90.000000
_cell_angle_gamma 90.000000
_cell_volume 5405.611684
_symmetry_space_group_name_H-M "I 4 2 2 "
_symmetry_group_IT_number 97
_symmetry_cell_setting 'tetragonal'
loop_
_space_group_symop_operation_xyz
x,y,z
-y,x,z
-x,-y,z
y,-x,z
x,-y,-z
-x,y,-z
y,x,-z
-y,-x,-z
1/2+x,1/2+y,1/2+z
1/2-y,1/2+x,1/2+z
1/2-x,1/2-y,1/2+z
1/2+y,1/2-x,1/2+z
1/2+x,1/2-y,1/2-z
1/2-x,1/2+y,1/2-z
1/2+y,1/2+x,1/2-z
1/2-y,1/2-x,1/2-z
loop_
_atom_site_type_symbol
_atom_site_label
_atom_site_fract_x
_atom_site_fract_y
_atom_site_fract_z
Si Si1 0.649706 0.542378 0.785865
Si Si2 0.720246 0.019348 0.370281
Si Si3 0.288253 0.323085 0.707566
Si Si4 0.259423 0.106049 0.014246
Si Si5 0.655923 0.098239 0.874324
Si Si6 0.100712 0.754726 0.525577
Si Si7 0.850800 0.589583 0.305747
O O1 0.561970 0.611040 0.787402
O O2 0.713549 0.543884 0.835057
O O3 0.696742 0.576118 0.734060
O O4 0.768532 0.075079 0.415780
O O5 0.670864 0.096112 0.335891
O O6 0.641493 0.945369 0.387398
O O7 0.233774 0.266227 0.750000
O O8 0.221858 0.336698 0.660183
O O9 0.378035 0.257889 0.697200
O O10 0.289285 0.097158 0.072758
O O11 0.170964 0.170964 0.000000
O O12 0.344155 0.157674 0.984198
O O13 0.241770 0.000000 0.000000
O O14 0.640969 0.004806 0.839555
O O15 0.165768 0.834233 0.500000
O O16 0.000000 0.752742 0.500000
O O17 0.901464 0.598537 0.250000
#
# Coordination Sequence:
#
# PCOD9551532 Si02
#       7
#    16  16  16  16  16  16  16
#     4  11  24  41  64  96 137 182 228 281 347 427
#     4  12  25  43  70 102 138 184 235 296 369 436
#     4  11  22  42  67  97 140 183 229 285 347 435
#     4  11  27  49  74 102 141 189 248 316 374 444
#     4  12  25  42  72 102 137 186 233 298 367 436
#     4  11  26  46  72 104 144 184 242 303 369 442
#     4  11  26  42  70 106 144 185 238 294 367 448
#
# _framework density 20.719208999999999
#
# number of rings (size 3 to 8) (size 9 to 14) (size 15 to 20)
#    0.000    0.714    2.857    4.714    8.000    1.143 
#    0.000    0.000    0.000    0.000    0.000    0.000 
#    0.000    0.000    0.000    0.000    0.000    0.000 
#
# Total GULP energy -312484.014084 kJ/mol
# GULP energy per Si atom -5580.071680 kJ/mol
# Density = 2.067205 g / cm^3
# Si number density = 20.719209 Si / 1000 Ang^3
#
#
#
# Elastic Constant Matrix: (Units=GPa)
#
#
# Indices 1 2 3 4 5 6 
#
# 1 103.1266 49.6840 39.3133 0.0000 0.0000 0.0000
# 2 49.6840 103.1314 39.3153 0.0000 0.0000 0.0000
# 3 39.3133 39.3153 122.7543 0.0000 0.0000 0.0000
# 4 0.0000 0.0000 0.0000 30.0005 0.0000 0.0000
# 5 0.0000 0.0000 0.0000 0.0000 30.0017 0.0000
# 6 0.0000 0.0000 0.0000 0.0000 0.0000 40.5031
#
#
#
# Elastic Compliance Matrix: (Units=1/GPa)
#
#
# Indices 1 2 3 4 5 6 
#
# 1 0.013273 -0.005438 -0.002509 0.000000 0.000000 0.000000
# 2 -0.005438 0.013273 -0.002509 0.000000 0.000000 0.000000
# 3 -0.002509 -0.002509 0.009754 0.000000 0.000000 0.000000
# 4 0.000000 0.000000 0.000000 0.033333 0.000000 0.000000
# 5 0.000000 0.000000 0.000000 0.000000 0.033331 0.000000
# 6 0.000000 0.000000 0.000000 0.000000 0.000000 0.024689
#
#
# Mechanical properties :
#
#
# Convention : Reuss Voigt Hill
#
# Bulk Modulus (GPa) = 64.99186 65.07083 65.03135
# Shear Modulus (GPa) = 32.53190 33.48103 33.00647
#
# Velocity S-wave (km/s) = 3.96679 4.02424 3.99562
# Velocity P-wave (km/s) = 7.23993 7.28470 7.26235
#
# Compressibility (1/GPa) = 0.01538654
#
# Stress axis : x y z
#
# Youngs Moduli (GPa) = 75.33962 75.34253 102.52548
#
# Poissons Ratio (x) = 0.40970 0.25726
# Poissons Ratio (y) = 0.40969 0.25728
# Poissons Ratio (z) = 0.18905 0.18906
#
# Static dielectric constant tensor:
#      x y z
#    x 1.774010 0.000000 0.000000 
#    y 0.000000 1.774010 0.000000 
#    z 0.000000 0.000000 1.562130 
# 
# From -- ./inp_files/7260.got.cif
#   From: 2010.05.17/outbox.cif.g08.bks.cpg/sg97_4_cif.got.tgz:7260.got - 2010.06.03 19:55:32.
