data_PCOD9551060
_publ_section_title
;
Structure prediction by ZEFSAII (Michael W. Deem and Ramdas Pophale) SiO2 
 PCOD9551060
Probable space group: P 43 21 2
;
_chemical_formula_sum "Si O2"
_cell_formula_units_Z 36
_cell_length_a 9.641672
_cell_length_b 9.641672
_cell_length_c 17.518182
_cell_angle_alpha 90.000000
_cell_angle_beta 90.000000
_cell_angle_gamma 90.000000
_cell_volume 1628.522414
_symmetry_space_group_name_H-M "P 43 21 2"
_symmetry_group_IT_number 96
_symmetry_cell_setting 'tetragonal'
loop_
_space_group_symop_operation_xyz
x,y,z
1/2-y,1/2+x,3/4+z
-x,-y,1/2+z
1/2+y,1/2-x,1/4+z
1/2+x,1/2-y,1/4-z
1/2-x,1/2+y,3/4-z
y,x,-z
-y,-x,1/2-z
loop_
_atom_site_type_symbol
_atom_site_label
_atom_site_fract_x
_atom_site_fract_y
_atom_site_fract_z
Si Si1 0.893089 0.877219 0.332122
Si Si2 0.680833 0.319168 0.750000
Si Si3 0.163762 0.438639 0.858338
Si Si4 0.021178 0.569440 0.214053
Si Si5 0.143533 0.053726 0.342304
O O1 0.850746 0.728257 0.366118
O O2 0.870943 0.884188 0.239625
O O3 0.814208 0.000945 0.375031
O O4 0.055582 0.911833 0.341432
O O5 0.630781 0.387283 0.670813
O O6 0.841520 0.365886 0.751828
O O7 0.098771 0.459874 0.775232
O O8 0.068683 0.529827 0.915118
O O9 0.974162 0.693583 0.159536
#
# Coordination Sequence:
#
# PCOD9551060 Si02
#       5
#     8   4   8   8   8
#     4  10  25  46  69 103 146 182 233 293 353 418
#     4  12  24  42  76 102 130 192 242 286 348 430
#     4  11  25  44  69 101 141 184 226 290 350 412
#     4  11  24  45  69 102 138 182 239 289 343 417
#     4  10  24  45  71 100 140 184 236 290 346 417
#
# _framework density 22.105929
#
# number of rings (size 3 to 8) (size 9 to 14) (size 15 to 20)
#    0.000    1.333    2.222    2.667    6.222    4.444 
#    0.000    0.000    0.000    0.000    0.000    0.000 
#    0.000    0.000    0.000    0.000    0.000    0.000 
#
# Total GULP energy -200793.518987 kJ/mol
# GULP energy per Si atom -5577.597750 kJ/mol
# Density = 2.205561 g / cm^3
# Si number density = 22.105929 Si / 1000 Ang^3
#
#
#
# Elastic Constant Matrix: (Units=GPa)
#
#
# Indices 1 2 3 4 5 6 
#
# 1 48.4343 23.9574 25.4540 0.0000 0.0000 0.0000
# 2 23.9574 48.4340 25.4541 0.0000 0.0000 0.0000
# 3 25.4540 25.4541 85.2363 0.0000 0.0000 0.0000
# 4 0.0000 0.0000 0.0000 25.2611 0.0000 0.0000
# 5 0.0000 0.0000 0.0000 0.0000 25.2611 0.0000
# 6 0.0000 0.0000 0.0000 0.0000 0.0000 25.4144
#
#
#
# Elastic Compliance Matrix: (Units=1/GPa)
#
#
# Indices 1 2 3 4 5 6 
#
# 1 0.029170 -0.011685 -0.005222 0.000000 0.000000 0.000000
# 2 -0.011685 0.029171 -0.005222 0.000000 0.000000 0.000000
# 3 -0.005222 -0.005222 0.014851 0.000000 0.000000 0.000000
# 4 0.000000 0.000000 0.000000 0.039587 0.000000 0.000000
# 5 0.000000 0.000000 0.000000 0.000000 0.039587 0.000000
# 6 0.000000 0.000000 0.000000 0.000000 0.000000 0.039348
#
#
# Mechanical properties :
#
#
# Convention : Reuss Voigt Hill
#
# Bulk Modulus (GPa) = 34.55966 36.87060 35.71513
# Shear Modulus (GPa) = 20.35713 22.33658 21.34685
#
# Velocity S-wave (km/s) = 3.03791 3.18218 3.11088
# Velocity P-wave (km/s) = 5.28893 5.49700 5.39397
#
# Compressibility (1/GPa) = 0.02893547
#
# Stress axis : x y z
#
# Youngs Moduli (GPa) = 34.28144 34.28110 67.33619
#
# Poissons Ratio (x) = 0.40056 0.35161
# Poissons Ratio (y) = 0.40056 0.35162
# Poissons Ratio (z) = 0.17901 0.17901
#
# Static dielectric constant tensor:
#      x y z
#    x 1.814530 0.000000 0.000000 
#    y 0.000000 1.814530 0.000000 
#    z 0.000000 0.000000 1.817130 
# 
# From -- ./inp_files/3415.got.cif
#   From: 2010.05.17/outbox.cif.g08.bks.cpg/sg96_2_cif.got.tgz:3415.got - 2010.06.03 19:52:08.
