data_PCOD9551449
_publ_section_title
;
Structure prediction by ZEFSAII (Michael W. Deem and Ramdas Pophale) SiO2 
 PCOD9551449
Probable space group: I 4 2 2 
;
_chemical_formula_sum "Si O2"
_cell_formula_units_Z 48
_cell_length_a 12.144863
_cell_length_b 12.144863
_cell_length_c 12.572658
_cell_angle_alpha 90.000000
_cell_angle_beta 90.000000
_cell_angle_gamma 90.000000
_cell_volume 1854.438104
_symmetry_space_group_name_H-M "I 4 2 2 "
_symmetry_group_IT_number 97
_symmetry_cell_setting 'tetragonal'
loop_
_space_group_symop_operation_xyz
x,y,z
-y,x,z
-x,-y,z
y,-x,z
x,-y,-z
-x,y,-z
y,x,-z
-y,-x,-z
1/2+x,1/2+y,1/2+z
1/2-y,1/2+x,1/2+z
1/2-x,1/2-y,1/2+z
1/2+y,1/2-x,1/2+z
1/2+x,1/2-y,1/2-z
1/2-x,1/2+y,1/2-z
1/2+y,1/2+x,1/2-z
1/2-y,1/2-x,1/2-z
loop_
_atom_site_type_symbol
_atom_site_label
_atom_site_fract_x
_atom_site_fract_y
_atom_site_fract_z
Si Si1 0.181508 0.363142 0.602851
Si Si2 0.380419 0.800276 0.362725
Si Si3 0.826211 0.971131 0.373206
O O1 0.146196 0.355648 0.478131
O O2 0.296163 0.301315 0.625928
O O3 0.207018 0.488484 0.629647
O O4 0.208482 0.417466 0.846511
O O5 0.355196 0.855196 0.250000
O O6 0.877367 0.086552 0.334225
O O7 0.832635 0.000000 0.500000
#
# Coordination Sequence:
#
# PCOD9551449 Si02
#       3
#    16  16  16
#     4  10  22  45  75 106 153 198 258 321 390 467
#     4  10  22  45  73 109 149 206 254 319 395 465
#     4   9  17  35  67 103 139 192 245 309 383 444
#
# _framework density 25.883851
#
# number of rings (size 3 to 8) (size 9 to 14) (size 15 to 20)
#    0.000    2.333    0.000    5.000    0.000    0.667 
#   18.000   15.000    0.000    0.000    0.000    0.000 
#    0.000    0.000    0.000    0.000    0.000    0.000 
#
# Total GULP energy -133856.473345 kJ/mol
# GULP energy per Si atom -5577.353056 kJ/mol
# Density = 2.582494 g / cm^3
# Si number density = 25.883851 Si / 1000 Ang^3
#
#
#
# Elastic Constant Matrix: (Units=GPa)
#
#
# Indices 1 2 3 4 5 6 
#
# 1 170.4584 117.6189 52.7314 0.0000 0.0000 0.0000
# 2 117.6189 170.4584 52.7314 0.0000 0.0000 0.0000
# 3 52.7314 52.7314 152.7525 0.0000 0.0000 0.0000
# 4 0.0000 0.0000 0.0000 29.5760 0.0000 0.0000
# 5 0.0000 0.0000 0.0000 0.0000 29.5760 0.0000
# 6 0.0000 0.0000 0.0000 0.0000 0.0000 2.9860
#
#
#
# Elastic Compliance Matrix: (Units=1/GPa)
#
#
# Indices 1 2 3 4 5 6 
#
# 1 0.011449 -0.007476 -0.001372 0.000000 0.000000 0.000000
# 2 -0.007476 0.011449 -0.001372 0.000000 0.000000 0.000000
# 3 -0.001372 -0.001372 0.007494 0.000000 0.000000 0.000000
# 4 0.000000 0.000000 0.000000 0.033811 0.000000 0.000000
# 5 0.000000 0.000000 0.000000 0.000000 0.033811 0.000000
# 6 0.000000 0.000000 0.000000 0.000000 0.000000 0.334892
#
#
# Mechanical properties :
#
#
# Convention : Reuss Voigt Hill
#
# Bulk Modulus (GPa) = 100.46426 104.42585 102.44506
# Shear Modulus (GPa) = 10.94900 30.46679 20.70789
#
# Velocity S-wave (km/s) = 2.05894 3.43455 2.83155
# Velocity P-wave (km/s) = 6.67458 7.49398 7.09612
#
# Compressibility (1/GPa) = 0.00995379
#
# Stress axis : x y z
#
# Youngs Moduli (GPa) = 87.34119 87.34119 133.44790
#
# Poissons Ratio (x) = 0.65295 0.18305
# Poissons Ratio (y) = 0.65295 0.18305
# Poissons Ratio (z) = 0.11980 0.11980
#
# Static dielectric constant tensor:
#      x y z
#    x 2.057800 0.000000 0.000000 
#    y 0.000000 2.057800 0.000000 
#    z 0.000000 0.000000 2.143150 
# 
# From -- ./inp_files/3062.got.cif
#   From: 2010.05.17/outbox.cif.g08.bks.cpg/sg97_2_cif.got.tgz:3062.got - 2010.06.03 19:55:32.
