data_PCOD9551720
_publ_section_title
;
Structure prediction by ZEFSAII (Michael W. Deem and Ramdas Pophale) SiO2 
 PCOD9551720
Probable space group: I 41 2 2
;
_chemical_formula_sum "Si O2"
_cell_formula_units_Z 64
_cell_length_a 23.744200
_cell_length_b 23.744200
_cell_length_c 5.318617
_cell_angle_alpha 90.000000
_cell_angle_beta 90.000000
_cell_angle_gamma 90.000000
_cell_volume 2998.567301
_symmetry_space_group_name_H-M "I 41 2 2"
_symmetry_group_IT_number 98
_symmetry_cell_setting 'tetragonal'
loop_
_space_group_symop_operation_xyz
x,y,z
-y,1/2+x,1/4+z
-x,-y,z
y,1/2-x,1/4+z
x,1/2-y,1/4-z
-x,1/2+y,1/4-z
y,x,-z
-y,-x,-z
1/2+x,1/2+y,1/2+z
1/2-y,x,3/4+z
1/2-x,1/2-y,1/2+z
1/2+y,-x,3/4+z
1/2+x,-y,3/4-z
1/2-x,y,3/4-z
1/2+y,1/2+x,1/2-z
1/2-y,1/2-x,1/2-z
loop_
_atom_site_type_symbol
_atom_site_label
_atom_site_fract_x
_atom_site_fract_y
_atom_site_fract_z
Si Si1 0.461832 0.750000 0.125000
Si Si2 0.360057 0.666503 0.244812
Si Si3 0.456191 0.914618 0.497301
Si Si4 0.579379 0.868493 0.503152
Si Si5 0.041159 0.250000 0.125000
O O1 0.418292 0.699715 0.199995
O O2 0.501678 0.750645 0.373413
O O3 0.326383 0.673618 0.500000
O O4 0.374593 0.599065 0.249418
O O5 0.323250 0.676751 0.000000
O O6 0.451698 0.951698 0.250000
O O7 0.513073 0.880620 0.473726
O O8 0.450632 0.950632 0.750000
O O9 0.611802 0.888199 0.250000
O O10 0.581068 0.803546 0.581374
O O11 0.598142 0.901859 0.750000
#
# Coordination Sequence:
#
# PCOD9551720 Si02
#       5
#     8  16  16  16   8
#     4  12  22  40  70  96 128 184 236 278 324 396
#     4  10  20  35  58  90 126 165 221 276 322 378
#     4  10  19  35  55  86 129 168 206 250 313 388
#     4  12  26  42  64  96 131 170 214 270 338 403
#     4  12  24  44  68  94 132 172 226 280 328 410
#
# _framework density 21.343527000000002
#
# number of rings (size 3 to 8) (size 9 to 14) (size 15 to 20)
#    0.000    1.000    0.000   10.500    0.000    3.000 
#    0.000    0.000    0.000    3.000    0.000    0.000 
#    0.000    0.000    0.000    0.000    0.000    0.000 
#
# Total GULP energy -178577.594001 kJ/mol
# GULP energy per Si atom -5580.549813 kJ/mol
# Density = 2.129495 g / cm^3
# Si number density = 21.343527 Si / 1000 Ang^3
#
#
#
# Elastic Constant Matrix: (Units=GPa)
#
#
# Indices 1 2 3 4 5 6 
#
# 1 74.5337 31.8982 21.0237 0.0000 0.0000 0.0000
# 2 31.8982 74.5229 21.0195 0.0000 0.0000 0.0000
# 3 21.0237 21.0195 216.3644 0.0000 0.0000 0.0000
# 4 0.0000 0.0000 0.0000 27.3021 0.0000 0.0000
# 5 0.0000 0.0000 0.0000 0.0000 27.3031 0.0000
# 6 0.0000 0.0000 0.0000 0.0000 0.0000 19.8834
#
#
#
# Elastic Compliance Matrix: (Units=1/GPa)
#
#
# Indices 1 2 3 4 5 6 
#
# 1 0.016613 -0.006843 -0.000949 0.000000 0.000000 0.000000
# 2 -0.006843 0.016616 -0.000949 0.000000 0.000000 0.000000
# 3 -0.000949 -0.000949 0.004806 0.000000 0.000000 0.000000
# 4 0.000000 0.000000 0.000000 0.036627 0.000000 0.000000
# 5 0.000000 0.000000 0.000000 0.000000 0.036626 0.000000
# 6 0.000000 0.000000 0.000000 0.000000 0.000000 0.050293
#
#
# Mechanical properties :
#
#
# Convention : Reuss Voigt Hill
#
# Bulk Modulus (GPa) = 48.65877 57.03376 52.84626
# Shear Modulus (GPa) = 26.89390 34.32968 30.61179
#
# Velocity S-wave (km/s) = 3.55357 4.01488 3.79125
# Velocity P-wave (km/s) = 6.29957 6.94782 6.63162
#
# Compressibility (1/GPa) = 0.02055128
#
# Stress axis : x y z
#
# Youngs Moduli (GPa) = 60.19282 60.18452 208.05993
#
# Poissons Ratio (x) = 0.41186 0.19755
# Poissons Ratio (y) = 0.41191 0.19750
# Poissons Ratio (z) = 0.05715 0.05713
#
# Static dielectric constant tensor:
#      x y z
#    x 1.826660 0.000000 0.000000 
#    y 0.000000 1.826660 0.000000 
#    z 0.000000 0.000000 1.880410 
# 
# From -- ./inp_files/1416.got.cif
#   From: 2010.05.17/outbox.cif.g08.bks.cpg/sg98_1_cif.got.tgz:1416.got - 2010.06.03 20:00:51.
