data_PCOD9551629
_publ_section_title
;
Structure prediction by ZEFSAII (Michael W. Deem and Ramdas Pophale) SiO2 
 PCOD9551629
Probable space group: I 41 2 2
;
_chemical_formula_sum "Si O2"
_cell_formula_units_Z 64
_cell_length_a 29.873336
_cell_length_b 29.873336
_cell_length_c 5.524211
_cell_angle_alpha 90.000000
_cell_angle_beta 90.000000
_cell_angle_gamma 90.000000
_cell_volume 4929.895409
_symmetry_space_group_name_H-M "I 41 2 2"
_symmetry_group_IT_number 98
_symmetry_cell_setting 'tetragonal'
loop_
_space_group_symop_operation_xyz
x,y,z
-y,1/2+x,1/4+z
-x,-y,z
y,1/2-x,1/4+z
x,1/2-y,1/4-z
-x,1/2+y,1/4-z
y,x,-z
-y,-x,-z
1/2+x,1/2+y,1/2+z
1/2-y,x,3/4+z
1/2-x,1/2-y,1/2+z
1/2+y,-x,3/4+z
1/2+x,-y,3/4-z
1/2-x,y,3/4-z
1/2+y,1/2+x,1/2-z
1/2-y,1/2-x,1/2-z
loop_
_atom_site_type_symbol
_atom_site_label
_atom_site_fract_x
_atom_site_fract_y
_atom_site_fract_z
Si Si1 0.705429 0.907322 0.991008
Si Si2 0.433974 0.393140 0.751251
Si Si3 0.342486 0.250000 0.125000
Si Si4 0.549293 0.476809 0.250324
Si Si5 0.316316 0.316316 0.500000
O O1 0.719530 0.877282 0.221450
O O2 0.750000 0.929117 0.875000
O O3 0.660747 0.935797 0.018879
O O4 0.691453 0.867679 0.810456
O O5 0.409569 0.409569 0.500000
O O6 0.482900 0.415449 0.747808
O O7 0.409938 0.409938 0.000000
O O8 0.311037 0.282401 0.280976
O O9 0.500000 0.500000 0.250206
O O10 0.550779 0.449222 0.500000
O O11 0.550646 0.449355 0.000000
#
# Coordination Sequence:
#
# PCOD9551629 Si02
#       5
#    16  16   8  16   8
#     4  10  22  34  47  59  78 100 139 173 205 258
#     4  12  20  30  51  67  83 112 133 158 220 259
#     4  10  20  34  50  56  74  90 128 178 210 266
#     4  10  16  29  42  69  96 103 121 159 191 263
#     4  10  18  34  50  54  73  90 120 174 220 252
#
# _framework density 12.98202
#
# number of rings (size 3 to 8) (size 9 to 14) (size 15 to 20)
#    0.000    1.500    6.250    2.250    3.500    0.000 
#    0.000    0.000   99.000    0.000    0.000    0.000 
#    0.000    0.000    0.000    0.000    0.000    0.000 
#
# Total GULP energy -178152.397008 kJ/mol
# GULP energy per Si atom -5567.262407 kJ/mol
# Density = 1.295247 g / cm^3
# Si number density = 12.982020 Si / 1000 Ang^3
#
#
#
# Elastic Constant Matrix: (Units=GPa)
#
#
# Indices 1 2 3 4 5 6 
#
# 1 60.4528 51.0470 23.8903 0.0000 0.0000 0.0000
# 2 51.0470 60.4537 23.8911 0.0000 0.0000 0.0000
# 3 23.8903 23.8911 97.3207 0.0000 0.0000 0.0000
# 4 0.0000 0.0000 0.0000 7.8201 0.0000 0.0000
# 5 0.0000 0.0000 0.0000 0.0000 7.8184 0.0000
# 6 0.0000 0.0000 0.0000 0.0000 0.0000 20.7765
#
#
#
# Elastic Compliance Matrix: (Units=1/GPa)
#
#
# Indices 1 2 3 4 5 6 
#
# 1 0.058168 -0.048145 -0.002460 0.000000 0.000000 0.000000
# 2 -0.048145 0.058167 -0.002461 0.000000 0.000000 0.000000
# 3 -0.002460 -0.002461 0.011483 0.000000 0.000000 0.000000
# 4 0.000000 0.000000 0.000000 0.127876 0.000000 0.000000
# 5 0.000000 0.000000 0.000000 0.000000 0.127904 0.000000
# 6 0.000000 0.000000 0.000000 0.000000 0.000000 0.048131
#
#
# Mechanical properties :
#
#
# Convention : Reuss Voigt Hill
#
# Bulk Modulus (GPa) = 46.10981 46.20933 46.15957
# Shear Modulus (GPa) = 9.17279 15.24290 12.20785
#
# Velocity S-wave (km/s) = 2.66103 3.43031 3.06987
# Velocity P-wave (km/s) = 6.71095 7.16670 6.94256
#
# Compressibility (1/GPa) = 0.02168736
#
# Stress axis : x y z
#
# Youngs Moduli (GPa) = 17.19157 17.19175 87.08278
#
# Poissons Ratio (x) = 0.82769 0.21424
# Poissons Ratio (y) = 0.82768 0.21430
# Poissons Ratio (z) = 0.04229 0.04231
#
# Static dielectric constant tensor:
#      x y z
#    x 1.419710 0.000000 0.000000 
#    y 0.000000 1.419720 0.000000 
#    z 0.000000 0.000000 1.571070 
# 
# From -- ./inp_files/1555.got.cif
#   From: 2010.05.17/outbox.cif.g08.bks.cpg/sg98_1_cif.got.tgz:1555.got - 2010.06.03 20:00:51.
