data_PCOD9551336
_publ_section_title
;
Structure prediction by ZEFSAII (Michael W. Deem and Ramdas Pophale) SiO2 
 PCOD9551336
Probable space group: I 4 2 2 
;
_chemical_formula_sum "Si O2"
_cell_formula_units_Z 40
_cell_length_a 11.950425
_cell_length_b 11.950425
_cell_length_c 10.535618
_cell_angle_alpha 90.000000
_cell_angle_beta 90.000000
_cell_angle_gamma 90.000000
_cell_volume 1504.619607
_symmetry_space_group_name_H-M "I 4 2 2 "
_symmetry_group_IT_number 97
_symmetry_cell_setting 'tetragonal'
loop_
_space_group_symop_operation_xyz
x,y,z
-y,x,z
-x,-y,z
y,-x,z
x,-y,-z
-x,y,-z
y,x,-z
-y,-x,-z
1/2+x,1/2+y,1/2+z
1/2-y,1/2+x,1/2+z
1/2-x,1/2-y,1/2+z
1/2+y,1/2-x,1/2+z
1/2+x,1/2-y,1/2-z
1/2-x,1/2+y,1/2-z
1/2+y,1/2+x,1/2-z
1/2-y,1/2-x,1/2-z
loop_
_atom_site_type_symbol
_atom_site_label
_atom_site_fract_x
_atom_site_fract_y
_atom_site_fract_z
Si Si1 0.337585 0.327173 0.867428
Si Si2 0.929901 0.737490 0.120987
Si Si3 0.607731 0.892270 0.250000
O O1 0.306379 0.196317 0.897231
O O2 0.412661 0.321689 0.740416
O O3 0.220739 0.385050 0.832355
O O4 0.376598 0.376598 0.000000
O O5 0.002122 0.629862 0.162867
O O6 0.000000 0.783066 0.000000
#
# Coordination Sequence:
#
# PCOD9551336 Si02
#       3
#    16  16   8
#     4  10  22  38  58  93 132 169 219 274 337 403
#     4  10  20  37  63  88 128 175 213 281 336 405
#     4  10  20  37  60  91 128 162 226 270 334 404
#
# _framework density 26.584793999999999
#
# number of rings (size 3 to 8) (size 9 to 14) (size 15 to 20)
#    0.000    2.400    4.000    0.000    0.000    4.800 
#    0.000    8.000    0.000   19.200    0.000   11.200 
#    0.000    0.000    0.000    0.000    0.000    0.000 
#
# Total GULP energy -111709.730769 kJ/mol
# GULP energy per Si atom -5585.486538 kJ/mol
# Density = 2.652429 g / cm^3
# Si number density = 26.584794 Si / 1000 Ang^3
#
#
#
# Elastic Constant Matrix: (Units=GPa)
#
#
# Indices 1 2 3 4 5 6 
#
# 1 131.4321 7.3426 24.8227 0.0000 0.0000 0.0000
# 2 7.3426 131.4307 24.8227 0.0000 0.0000 0.0000
# 3 24.8227 24.8227 240.7901 0.0000 0.0000 0.0000
# 4 0.0000 0.0000 0.0000 22.0803 0.0000 0.0000
# 5 0.0000 0.0000 0.0000 0.0000 22.0805 0.0000
# 6 0.0000 0.0000 0.0000 0.0000 0.0000 16.5173
#
#
#
# Elastic Compliance Matrix: (Units=1/GPa)
#
#
# Indices 1 2 3 4 5 6 
#
# 1 0.007770 -0.000288 -0.000771 0.000000 0.000000 0.000000
# 2 -0.000288 0.007770 -0.000771 0.000000 0.000000 0.000000
# 3 -0.000771 -0.000771 0.004312 0.000000 0.000000 0.000000
# 4 0.000000 0.000000 0.000000 0.045289 0.000000 0.000000
# 5 0.000000 0.000000 0.000000 0.000000 0.045289 0.000000
# 6 0.000000 0.000000 0.000000 0.000000 0.000000 0.060543
#
#
# Mechanical properties :
#
#
# Convention : Reuss Voigt Hill
#
# Bulk Modulus (GPa) = 61.76422 68.62543 65.19482
# Shear Modulus (GPa) = 27.77283 41.91330 34.84306
#
# Velocity S-wave (km/s) = 3.23567 3.97494 3.62420
# Velocity P-wave (km/s) = 6.10269 6.85103 6.48766
#
# Compressibility (1/GPa) = 0.01619060
#
# Stress axis : x y z
#
# Youngs Moduli (GPa) = 128.69557 128.69425 231.90996
#
# Poissons Ratio (x) = 0.03712 0.17887
# Poissons Ratio (y) = 0.03712 0.17887
# Poissons Ratio (z) = 0.09926 0.09926
#
# Static dielectric constant tensor:
#      x y z
#    x 2.061920 0.000000 0.000000 
#    y 0.000000 2.061920 0.000000 
#    z 0.000000 0.000000 2.227890 
# 
# From -- ./inp_files/3009.got.cif
#   From: 2010.05.17/outbox.cif.g08.bks.cpg/sg97_2_cif.got.tgz:3009.got - 2010.06.03 19:55:32.
