data_PCOD9551371
_publ_section_title
;
Structure prediction by ZEFSAII (Michael W. Deem and Ramdas Pophale) SiO2 
 PCOD9551371
Probable space group: I 4 2 2 
;
_chemical_formula_sum "Si O2"
_cell_formula_units_Z 48
_cell_length_a 22.769581
_cell_length_b 22.769581
_cell_length_c 5.061838
_cell_angle_alpha 90.000000
_cell_angle_beta 90.000000
_cell_angle_gamma 90.000000
_cell_volume 2624.329242
_symmetry_space_group_name_H-M "I 4 2 2 "
_symmetry_group_IT_number 97
_symmetry_cell_setting 'tetragonal'
loop_
_space_group_symop_operation_xyz
x,y,z
-y,x,z
-x,-y,z
y,-x,z
x,-y,-z
-x,y,-z
y,x,-z
-y,-x,-z
1/2+x,1/2+y,1/2+z
1/2-y,1/2+x,1/2+z
1/2-x,1/2-y,1/2+z
1/2+y,1/2-x,1/2+z
1/2+x,1/2-y,1/2-z
1/2-x,1/2+y,1/2-z
1/2+y,1/2+x,1/2-z
1/2-y,1/2-x,1/2-z
loop_
_atom_site_type_symbol
_atom_site_label
_atom_site_fract_x
_atom_site_fract_y
_atom_site_fract_z
Si Si1 0.877328 0.434267 0.001531
Si Si2 0.250166 0.461762 0.773615
Si Si3 0.233269 0.173229 0.247488
O O1 0.902631 0.402631 0.250000
O O2 0.808992 0.443386 0.064260
O O3 0.902959 0.500000 0.000000
O O4 0.896659 0.396659 0.750000
O O5 0.241254 0.500000 0.500000
O O6 0.273587 0.396674 0.714297
O O7 0.283219 0.500000 0.000000
O O8 0.198711 0.198711 0.500000
O O9 0.300260 0.199741 0.250000
O O10 0.204000 0.204000 0.000000
#
# Coordination Sequence:
#
# PCOD9551371 Si02
#       3
#    16  16  16
#     4  11  22  34  48  68  96 136 181 226 269 308
#     4  11  22  37  56  79 110 145 183 226 277 340
#     4  10  21  36  57  84 114 148 184 229 282 337
#
# _framework density 18.290388
#
# number of rings (size 3 to 8) (size 9 to 14) (size 15 to 20)
#    0.000    1.333    0.000    8.000    0.000    6.000 
#    0.000    0.000    0.000    0.000    0.000    0.000 
#    0.000   46.667    0.000    0.000    0.000    0.000 
#
# Total GULP energy -133620.397950 kJ/mol
# GULP energy per Si atom -5567.516581 kJ/mol
# Density = 1.824876 g / cm^3
# Si number density = 18.290388 Si / 1000 Ang^3
#
#
#
# Elastic Constant Matrix: (Units=GPa)
#
#
# Indices 1 2 3 4 5 6 
#
# 1 91.2479 12.6454 31.2246 0.0000 0.0000 0.0000
# 2 12.6454 91.2503 31.2252 0.0000 0.0000 0.0000
# 3 31.2246 31.2252 162.6120 0.0000 0.0000 0.0000
# 4 0.0000 0.0000 0.0000 20.3209 0.0000 0.0000
# 5 0.0000 0.0000 0.0000 0.0000 20.3200 0.0000
# 6 0.0000 0.0000 0.0000 0.0000 0.0000 19.6418
#
#
#
# Elastic Compliance Matrix: (Units=1/GPa)
#
#
# Indices 1 2 3 4 5 6 
#
# 1 0.011802 -0.000920 -0.002089 0.000000 0.000000 0.000000
# 2 -0.000920 0.011801 -0.002089 0.000000 0.000000 0.000000
# 3 -0.002089 -0.002089 0.006952 0.000000 0.000000 0.000000
# 4 0.000000 0.000000 0.000000 0.049210 0.000000 0.000000
# 5 0.000000 0.000000 0.000000 0.000000 0.049213 0.000000
# 6 0.000000 0.000000 0.000000 0.000000 0.000000 0.050912
#
#
# Mechanical properties :
#
#
# Convention : Reuss Voigt Hill
#
# Bulk Modulus (GPa) = 49.12419 55.03341 52.07880
# Shear Modulus (GPa) = 25.39696 30.05754 27.72725
#
# Velocity S-wave (km/s) = 3.73036 4.05823 3.89774
# Velocity P-wave (km/s) = 6.74317 7.21893 6.98510
#
# Compressibility (1/GPa) = 0.02035657
#
# Stress axis : x y z
#
# Youngs Moduli (GPa) = 84.73347 84.73574 143.84303
#
# Poissons Ratio (x) = 0.07800 0.30055
# Poissons Ratio (y) = 0.07800 0.30054
# Poissons Ratio (z) = 0.17704 0.17705
#
# Static dielectric constant tensor:
#      x y z
#    x 1.756510 0.000000 0.000000 
#    y 0.000000 1.756500 0.000000 
#    z 0.000000 0.000000 1.632450 
# 
# From -- ./inp_files/449.got.cif
#   From: 2010.05.17/outbox.cif.g08.bks.cpg/sg97_1_cif.got.tgz:449.got - 2010.06.03 19:55:32.
