data_PCOD9551380
_publ_section_title
;
Structure prediction by ZEFSAII (Michael W. Deem and Ramdas Pophale) SiO2 
 PCOD9551380
Probable space group: I 4 2 2 
;
_chemical_formula_sum "Si O2"
_cell_formula_units_Z 64
_cell_length_a 20.103342
_cell_length_b 20.103342
_cell_length_c 8.696068
_cell_angle_alpha 90.000000
_cell_angle_beta 90.000000
_cell_angle_gamma 90.000000
_cell_volume 3514.466833
_symmetry_space_group_name_H-M "I 4 2 2 "
_symmetry_group_IT_number 97
_symmetry_cell_setting 'tetragonal'
loop_
_space_group_symop_operation_xyz
x,y,z
-y,x,z
-x,-y,z
y,-x,z
x,-y,-z
-x,y,-z
y,x,-z
-y,-x,-z
1/2+x,1/2+y,1/2+z
1/2-y,1/2+x,1/2+z
1/2-x,1/2-y,1/2+z
1/2+y,1/2-x,1/2+z
1/2+x,1/2-y,1/2-z
1/2-x,1/2+y,1/2-z
1/2+y,1/2+x,1/2-z
1/2-y,1/2-x,1/2-z
loop_
_atom_site_type_symbol
_atom_site_label
_atom_site_fract_x
_atom_site_fract_y
_atom_site_fract_z
Si Si1 0.358429 0.756059 0.678853
Si Si2 0.254126 0.857184 0.180970
Si Si3 0.997841 0.253673 0.682397
Si Si4 0.996842 0.600891 0.815786
O O1 0.320477 0.820477 0.750000
O O2 0.305194 0.696487 0.694376
O O3 0.370037 0.768874 0.498328
O O4 0.429157 0.734697 0.751875
O O5 0.319744 0.819744 0.250000
O O6 0.228599 0.926199 0.255970
O O7 0.000000 0.246974 0.500000
O O8 0.992694 0.328952 0.740069
O O9 0.052618 0.552618 0.750000
O O10 0.928740 0.571261 0.750000
O O11 0.000000 0.602209 0.000000
#
# Coordination Sequence:
#
# PCOD9551380 Si02
#       4
#    16  16  16  16
#     4  10  21  38  59  83 112 145 183 227 275 326
#     4  10  21  38  59  83 112 145 183 227 275 326
#     4  12  23  35  54  79 108 142 181 222 268 322
#     4  11  21  34  49  70 103 139 177 216 261 315
#
# _framework density 18.210443999999999
#
# number of rings (size 3 to 8) (size 9 to 14) (size 15 to 20)
#    0.000    1.250    0.000    8.250    0.000    3.000 
#    0.000    0.000    0.000    0.750    0.000    5.250 
#    0.000    0.000    0.000    0.000    0.000    0.000 
#
# Total GULP energy -178502.414784 kJ/mol
# GULP energy per Si atom -5578.200462 kJ/mol
# Density = 1.816900 g / cm^3
# Si number density = 18.210444 Si / 1000 Ang^3
#
#
#
# Elastic Constant Matrix: (Units=GPa)
#
#
# Indices 1 2 3 4 5 6 
#
# 1 88.2089 2.3025 50.7563 0.0000 0.0000 0.0000
# 2 2.3025 88.2083 50.7539 0.0000 0.0000 0.0000
# 3 50.7563 50.7539 162.4907 0.0000 0.0000 0.0000
# 4 0.0000 0.0000 0.0000 31.3795 0.0000 0.0000
# 5 0.0000 0.0000 0.0000 0.0000 31.3796 0.0000
# 6 0.0000 0.0000 0.0000 0.0000 0.0000 21.4523
#
#
#
# Elastic Compliance Matrix: (Units=1/GPa)
#
#
# Indices 1 2 3 4 5 6 
#
# 1 0.014323 0.002683 -0.005312 0.000000 0.000000 0.000000
# 2 0.002683 0.014323 -0.005312 0.000000 0.000000 0.000000
# 3 -0.005312 -0.005312 0.009473 0.000000 0.000000 0.000000
# 4 0.000000 0.000000 0.000000 0.031868 0.000000 0.000000
# 5 0.000000 0.000000 0.000000 0.000000 0.031868 0.000000
# 6 0.000000 0.000000 0.000000 0.000000 0.000000 0.046615
#
#
# Mechanical properties :
#
#
# Convention : Reuss Voigt Hill
#
# Bulk Modulus (GPa) = 44.97088 60.72592 52.84840
# Shear Modulus (GPa) = 29.10967 32.51529 30.81248
#
# Velocity S-wave (km/s) = 4.00248 4.23014 4.11788
# Velocity P-wave (km/s) = 6.79033 7.56822 7.18980
#
# Compressibility (1/GPa) = 0.02223661
#
# Stress axis : x y z
#
# Youngs Moduli (GPa) = 69.81651 69.81741 105.56781
#
# Poissons Ratio (x) = -0.18729 0.56077
# Poissons Ratio (y) = -0.18729 0.56075
# Poissons Ratio (z) = 0.37086 0.37085
#
# Static dielectric constant tensor:
#      x y z
#    x 1.642420 0.000000 0.000000 
#    y 0.000000 1.642430 0.000000 
#    z 0.000000 0.000000 1.608920 
# 
# From -- ./inp_files/2115.got.cif
#   From: 2010.05.17/outbox.cif.g08.bks.cpg/sg97_2_cif.got.tgz:2115.got - 2010.06.03 19:55:32.
