data_PCOD9551032
_publ_section_title
;
Structure prediction by ZEFSAII (Michael W. Deem and Ramdas Pophale) SiO2 
 PCOD9551032
Probable space group: P 43 21 2
;
_chemical_formula_sum "Si O2"
_cell_formula_units_Z 48
_cell_length_a 11.600362
_cell_length_b 11.600362
_cell_length_c 18.159192
_cell_angle_alpha 90.000000
_cell_angle_beta 90.000000
_cell_angle_gamma 90.000000
_cell_volume 2443.653386
_symmetry_space_group_name_H-M "P 43 21 2"
_symmetry_group_IT_number 96
_symmetry_cell_setting 'tetragonal'
loop_
_space_group_symop_operation_xyz
x,y,z
1/2-y,1/2+x,3/4+z
-x,-y,1/2+z
1/2+y,1/2-x,1/4+z
1/2+x,1/2-y,1/4-z
1/2-x,1/2+y,3/4-z
y,x,-z
-y,-x,1/2-z
loop_
_atom_site_type_symbol
_atom_site_label
_atom_site_fract_x
_atom_site_fract_y
_atom_site_fract_z
Si Si1 0.661389 0.812797 0.304535
Si Si2 0.908484 0.000000 0.078511
Si Si3 0.811076 0.751781 0.856814
Si Si4 0.869006 0.861074 0.411112
Si Si5 0.933635 0.547137 0.945103
Si Si6 0.816312 0.558662 0.102202
O O1 0.589944 0.695862 0.318590
O O2 0.733816 0.799285 0.230012
O O3 0.746935 0.844086 0.370911
O O4 0.563850 0.909428 0.291687
O O5 0.016798 0.071400 0.108227
O O6 0.861359 0.892096 0.125249
O O7 0.947535 0.947535 0.000000
O O8 0.874391 0.642343 0.892978
O O9 0.685160 0.760508 0.892423
O O10 0.856351 0.856351 0.500000
O O11 0.958312 0.766081 0.381450
O O12 0.935968 0.426300 0.904983
O O13 0.862660 0.538644 0.020277
#
# Coordination Sequence:
#
# PCOD9551032 Si02
#       6
#     8   8   8   8   8   8
#     4  11  24  45  68  98 135 182 227 284 343 413
#     4  10  23  44  68  96 137 182 217 283 349 401
#     4  11  22  43  70  97 137 175 223 287 345 405
#     4  11  27  44  69  98 143 183 229 284 342 421
#     4  11  25  43  69 100 135 173 228 285 342 405
#     4  12  25  41  71 100 133 177 228 282 341 412
#
# _framework density 19.642719
#
# number of rings (size 3 to 8) (size 9 to 14) (size 15 to 20)
#    0.000    1.000    1.667    5.500    7.000    0.667 
#    3.000    0.000    0.000    0.000    0.000    0.000 
#    0.000    0.000    0.000    0.000    0.000    0.000 
#
# Total GULP energy -268472.359889 kJ/mol
# GULP energy per Si atom -5593.174164 kJ/mol
# Density = 1.959801 g / cm^3
# Si number density = 19.642719 Si / 1000 Ang^3
#
#
#
# Elastic Constant Matrix: (Units=GPa)
#
#
# Indices 1 2 3 4 5 6 
#
# 1 72.9927 48.1078 22.4157 0.0000 0.0000 0.0000
# 2 48.1078 72.9927 22.4157 0.0000 0.0000 0.0000
# 3 22.4157 22.4157 91.9184 0.0000 0.0000 0.0000
# 4 0.0000 0.0000 0.0000 22.8809 0.0000 0.0000
# 5 0.0000 0.0000 0.0000 0.0000 22.8809 0.0000
# 6 0.0000 0.0000 0.0000 0.0000 0.0000 37.2397
#
#
#
# Elastic Compliance Matrix: (Units=1/GPa)
#
#
# Indices 1 2 3 4 5 6 
#
# 1 0.024631 -0.015554 -0.002214 0.000000 0.000000 0.000000
# 2 -0.015554 0.024631 -0.002214 0.000000 0.000000 0.000000
# 3 -0.002214 -0.002214 0.011959 0.000000 0.000000 0.000000
# 4 0.000000 0.000000 0.000000 0.043705 0.000000 0.000000
# 5 0.000000 0.000000 0.000000 0.000000 0.043705 0.000000
# 6 0.000000 0.000000 0.000000 0.000000 0.000000 0.026853
#
#
# Mechanical properties :
#
#
# Convention : Reuss Voigt Hill
#
# Bulk Modulus (GPa) = 47.03963 47.08689 47.06326
# Shear Modulus (GPa) = 22.46873 26.26462 24.36668
#
# Velocity S-wave (km/s) = 3.38579 3.66063 3.52589
# Velocity P-wave (km/s) = 6.26772 6.47230 6.37083
#
# Compressibility (1/GPa) = 0.02125867
#
# Stress axis : x y z
#
# Youngs Moduli (GPa) = 40.59922 40.59922 83.62007
#
# Poissons Ratio (x) = 0.63148 0.18510
# Poissons Ratio (y) = 0.63148 0.18510
# Poissons Ratio (z) = 0.08987 0.08987
#
# Static dielectric constant tensor:
#      x y z
#    x 1.696360 0.000000 0.000000 
#    y 0.000000 1.696360 0.000000 
#    z 0.000000 0.000000 1.682650 
# 
# From -- ./inp_files/3127.got.cif
#   From: 2010.05.17/outbox.cif.g08.bks.cpg/sg96_2_cif.got.tgz:3127.got - 2010.06.03 19:52:08.
