data_PCOD9551062
_publ_section_title
;
Structure prediction by ZEFSAII (Michael W. Deem and Ramdas Pophale) SiO2 
 PCOD9551062
Probable space group: P 43 21 2
;
_chemical_formula_sum "Si O2"
_cell_formula_units_Z 60
_cell_length_a 17.947893
_cell_length_b 17.947893
_cell_length_c 9.094364
_cell_angle_alpha 90.000000
_cell_angle_beta 90.000000
_cell_angle_gamma 90.000000
_cell_volume 2929.538948
_symmetry_space_group_name_H-M "P 43 21 2"
_symmetry_group_IT_number 96
_symmetry_cell_setting 'tetragonal'
loop_
_space_group_symop_operation_xyz
x,y,z
1/2-y,1/2+x,3/4+z
-x,-y,1/2+z
1/2+y,1/2-x,1/4+z
1/2+x,1/2-y,1/4-z
1/2-x,1/2+y,3/4-z
y,x,-z
-y,-x,1/2-z
loop_
_atom_site_type_symbol
_atom_site_label
_atom_site_fract_x
_atom_site_fract_y
_atom_site_fract_z
Si Si1 0.952028 0.715558 0.736410
Si Si2 0.292445 0.305158 0.825025
Si Si3 0.472939 0.329932 0.220706
Si Si4 0.971062 0.028939 0.250000
Si Si5 0.138161 0.032251 0.294506
Si Si6 0.945671 0.259995 0.520642
Si Si7 0.300485 0.695726 0.080885
Si Si8 0.951590 0.428841 0.562019
O O1 0.873511 0.749164 0.786027
O O2 0.944006 0.626503 0.725921
O O3 0.978459 0.762762 0.596662
O O4 0.011768 0.732726 0.865030
O O5 0.300448 0.388854 0.768267
O O6 0.360014 0.258037 0.756894
O O7 0.217584 0.265374 0.772500
O O8 0.302011 0.302011 0.000000
O O9 0.505925 0.355065 0.375827
O O10 0.470400 0.400036 0.108333
O O11 0.050788 0.031207 0.331030
O O12 0.168945 0.115116 0.314754
O O13 0.190617 0.980121 0.392355
O O14 0.955060 0.340533 0.596224
O O15 0.284951 0.715050 0.250000
O O16 0.949019 0.479764 0.706367
#
# Coordination Sequence:
#
# PCOD9551062 Si02
#       8
#     8   8   8   4   8   8   8   8
#     4  11  22  45  69  95 138 183 231 283 363 414
#     4  12  26  45  70 101 137 187 235 290 352 434
#     4  12  26  44  70 106 144 190 240 295 348 434
#     4  12  24  44  68 104 152 192 242 284 350 428
#     4  12  28  43  71 107 144 187 240 292 357 431
#     4  11  23  46  68  97 137 184 227 292 357 420
#     4  12  27  45  70 101 143 185 232 292 363 428
#     4  10  24  45  73  99 131 182 237 294 353 417
#
# _framework density 20.481038999999999
#
# number of rings (size 3 to 8) (size 9 to 14) (size 15 to 20)
#    0.000    0.533    6.000    1.200    3.733    3.200 
#    2.400    0.000    0.000    0.000    0.000    0.000 
#    0.000    0.000    0.000    0.000    0.000    0.000 
#
# Total GULP energy -335821.609963 kJ/mol
# GULP energy per Si atom -5597.026833 kJ/mol
# Density = 2.043442 g / cm^3
# Si number density = 20.481039 Si / 1000 Ang^3
#
#
#
# Elastic Constant Matrix: (Units=GPa)
#
#
# Indices 1 2 3 4 5 6 
#
# 1 46.7565 38.8419 -8.0559 0.0000 0.0000 0.0000
# 2 38.8419 46.7563 -8.0552 0.0000 0.0000 0.0000
# 3 -8.0559 -8.0552 18.2295 0.0000 0.0000 0.0000
# 4 0.0000 0.0000 0.0000 6.2926 0.0000 0.0000
# 5 0.0000 0.0000 0.0000 0.0000 6.2895 0.0000
# 6 0.0000 0.0000 0.0000 0.0000 0.0000 27.8197
#
#
#
# Elastic Compliance Matrix: (Units=1/GPa)
#
#
# Indices 1 2 3 4 5 6 
#
# 1 0.069546 -0.056804 0.005633 0.000000 0.000000 0.000000
# 2 -0.056804 0.069546 0.005628 0.000000 0.000000 0.000000
# 3 0.005633 0.005628 0.059833 0.000000 0.000000 0.000000
# 4 0.000000 0.000000 0.000000 0.158917 0.000000 0.000000
# 5 0.000000 0.000000 0.000000 0.000000 0.158996 0.000000
# 6 0.000000 0.000000 0.000000 0.000000 0.000000 0.035946
#
#
# Mechanical properties :
#
#
# Convention : Reuss Voigt Hill
#
# Bulk Modulus (GPa) = 9.27298 17.46709 13.37004
# Shear Modulus (GPa) = 7.35494 14.01445 10.68470
#
# Velocity S-wave (km/s) = 1.89707 2.61868 2.28653
# Velocity P-wave (km/s) = 3.05548 4.20598 3.67602
#
# Compressibility (1/GPa) = 0.10784020
#
# Stress axis : x y z
#
# Youngs Moduli (GPa) = 14.37887 14.37903 16.71331
#
# Poissons Ratio (x) = 0.81678 -0.09415
# Poissons Ratio (y) = 0.81677 -0.09406
# Poissons Ratio (z) = -0.08100 -0.08093
#
# Static dielectric constant tensor:
#      x y z
#    x 1.723490 0.000000 0.000000 
#    y 0.000000 1.723490 0.000000 
#    z 0.000000 0.000000 1.715470 
# 
# From -- ./inp_files/1620.got.cif
#   From: 2010.05.17/outbox.cif.g08.bks.cpg/sg96_1_cif.got.tgz:1620.got - 2010.06.03 19:52:08.
