data_PCOD9551805
_publ_section_title
;
Structure prediction by ZEFSAII (Michael W. Deem and Ramdas Pophale) SiO2 
 PCOD9551805
Probable space group: I 41 2 2
;
_chemical_formula_sum "Si O2"
_cell_formula_units_Z 64
_cell_length_a 24.310843
_cell_length_b 24.310843
_cell_length_c 5.278408
_cell_angle_alpha 90.000000
_cell_angle_beta 90.000000
_cell_angle_gamma 90.000000
_cell_volume 3119.629322
_symmetry_space_group_name_H-M "I 41 2 2"
_symmetry_group_IT_number 98
_symmetry_cell_setting 'tetragonal'
loop_
_space_group_symop_operation_xyz
x,y,z
-y,1/2+x,1/4+z
-x,-y,z
y,1/2-x,1/4+z
x,1/2-y,1/4-z
-x,1/2+y,1/4-z
y,x,-z
-y,-x,-z
1/2+x,1/2+y,1/2+z
1/2-y,x,3/4+z
1/2-x,1/2-y,1/2+z
1/2+y,-x,3/4+z
1/2+x,-y,3/4-z
1/2-x,y,3/4-z
1/2+y,1/2+x,1/2-z
1/2-y,1/2-x,1/2-z
loop_
_atom_site_type_symbol
_atom_site_label
_atom_site_fract_x
_atom_site_fract_y
_atom_site_fract_z
Si Si1 0.093403 0.593403 0.750000
Si Si2 0.406573 0.488629 0.630903
Si Si3 0.611596 0.611596 0.000000
Si Si4 0.191169 0.045029 0.759854
Si Si5 0.784303 0.431794 0.637067
O O1 0.153995 0.590887 0.628882
O O2 0.046140 0.585746 0.532021
O O3 0.460049 0.460049 0.500000
O O4 0.355326 0.484806 0.436060
O O5 0.390529 0.443516 0.837669
O O6 0.664340 0.601607 0.168661
O O7 0.250000 0.057322 0.875000
O O8 0.205138 0.996682 0.563096
O O9 0.750000 0.426459 0.375000
O O10 0.750000 0.409203 0.875000
#
# Coordination Sequence:
#
# PCOD9551805 Si02
#       5
#     8  16   8  16  16
#     4  12  22  45  68  92 132 192 218 288 358 414
#     4  10  23  41  56  97 139 172 215 266 344 420
#     4  10  20  39  54  94 134 166 218 260 334 404
#     4  10  21  38  62  87 135 174 223 276 324 401
#     4  11  25  43  66  98 130 175 237 280 329 410
#
# _framework density 20.515256999999998
#
# number of rings (size 3 to 8) (size 9 to 14) (size 15 to 20)
#    0.000    1.500    2.500    3.000    0.000    4.500 
#    4.500    0.000    0.000    1.500    0.000    0.000 
#  135.000    0.000    0.000    0.000    0.000    0.000 
#
# Total GULP energy -178408.131833 kJ/mol
# GULP energy per Si atom -5575.254120 kJ/mol
# Density = 2.046856 g / cm^3
# Si number density = 20.515257 Si / 1000 Ang^3
#
#
#
# Elastic Constant Matrix: (Units=GPa)
#
#
# Indices 1 2 3 4 5 6 
#
# 1 145.7594 67.5701 44.3547 0.0000 0.0000 0.0000
# 2 67.5701 145.7594 44.3547 0.0000 0.0000 0.0000
# 3 44.3547 44.3547 76.8145 0.0000 0.0000 0.0000
# 4 0.0000 0.0000 0.0000 26.9088 0.0000 0.0000
# 5 0.0000 0.0000 0.0000 0.0000 26.9088 0.0000
# 6 0.0000 0.0000 0.0000 0.0000 0.0000 17.9545
#
#
#
# Elastic Compliance Matrix: (Units=1/GPa)
#
#
# Indices 1 2 3 4 5 6 
#
# 1 0.009479 -0.003310 -0.003562 0.000000 0.000000 0.000000
# 2 -0.003310 0.009479 -0.003562 0.000000 0.000000 0.000000
# 3 -0.003562 -0.003562 0.017132 0.000000 0.000000 0.000000
# 4 0.000000 0.000000 0.000000 0.037163 0.000000 0.000000
# 5 0.000000 0.000000 0.000000 0.000000 0.037163 0.000000
# 6 0.000000 0.000000 0.000000 0.000000 0.000000 0.055696
#
#
# Mechanical properties :
#
#
# Convention : Reuss Voigt Hill
#
# Bulk Modulus (GPa) = 65.69664 75.65471 70.67568
# Shear Modulus (GPa) = 26.03432 28.49135 27.26284
#
# Velocity S-wave (km/s) = 3.56620 3.73069 3.64937
# Velocity P-wave (km/s) = 7.00356 7.45082 7.23065
#
# Compressibility (1/GPa) = 0.01522148
#
# Stress axis : x y z
#
# Youngs Moduli (GPa) = 105.49490 105.49490 58.37041
#
# Poissons Ratio (x) = 0.34922 0.20792
# Poissons Ratio (y) = 0.34922 0.20792
# Poissons Ratio (z) = 0.37577 0.37577
#
# Static dielectric constant tensor:
#      x y z
#    x 1.960070 0.000000 0.000000 
#    y 0.000000 1.960070 0.000000 
#    z 0.000000 0.000000 1.946950 
# 
# From -- ./inp_files/1422.got.cif
#   From: 2010.05.17/outbox.cif.g08.bks.cpg/sg98_1_cif.got.tgz:1422.got - 2010.06.03 20:00:51.
