data_PCOD9551218
_publ_section_title
;
Structure prediction by ZEFSAII (Michael W. Deem and Ramdas Pophale) SiO2 
 PCOD9551218
Probable space group: I 4 2 2 
;
_chemical_formula_sum "Si O2"
_cell_formula_units_Z 72
_cell_length_a 17.601027
_cell_length_b 17.601027
_cell_length_c 10.890242
_cell_angle_alpha 90.000000
_cell_angle_beta 90.000000
_cell_angle_gamma 90.000000
_cell_volume 3373.755060
_symmetry_space_group_name_H-M "I 4 2 2 "
_symmetry_group_IT_number 97
_symmetry_cell_setting 'tetragonal'
loop_
_space_group_symop_operation_xyz
x,y,z
-y,x,z
-x,-y,z
y,-x,z
x,-y,-z
-x,y,-z
y,x,-z
-y,-x,-z
1/2+x,1/2+y,1/2+z
1/2-y,1/2+x,1/2+z
1/2-x,1/2-y,1/2+z
1/2+y,1/2-x,1/2+z
1/2+x,1/2-y,1/2-z
1/2-x,1/2+y,1/2-z
1/2+y,1/2+x,1/2-z
1/2-y,1/2-x,1/2-z
loop_
_atom_site_type_symbol
_atom_site_label
_atom_site_fract_x
_atom_site_fract_y
_atom_site_fract_z
Si Si1 0.959837 0.667100 0.123512
Si Si2 0.229894 0.152924 0.715872
Si Si3 0.091146 0.916460 0.647644
Si Si4 0.611221 0.111221 0.750000
Si Si5 0.679802 0.910648 0.502378
O O1 0.911194 0.729025 0.198910
O O2 0.025814 0.627493 0.202448
O O3 0.898254 0.605570 0.076713
O O4 0.000000 0.698522 0.000000
O O5 0.267923 0.232078 0.750000
O O6 0.140064 0.146582 0.717516
O O7 0.255888 0.131668 0.578288
O O8 0.092990 0.907011 0.500000
O O9 0.004034 0.895753 0.679212
O O10 0.665525 0.121016 0.633101
O O11 0.695899 0.000000 0.500000
#
# Coordination Sequence:
#
# PCOD9551218 Si02
#       5
#    16  16  16   8  16
#     4   9  19  30  45  75 114 158 208 250 304 383
#     4  10  20  37  59  85 124 161 197 256 334 384
#     4   9  20  38  67  98 120 156 215 271 312 364
#     4  10  18  27  40  68 110 156 210 256 304 377
#     4  10  19  28  44  74 107 160 205 251 314 379
#
# _framework density 21.341204999999999
#
# number of rings (size 3 to 8) (size 9 to 14) (size 15 to 20)
#    0.000    2.444    2.222    0.667    3.111    4.889 
#    0.000    0.000   19.556    0.000    0.000    1.556 
#    0.000    0.000    0.000    0.000    0.000    0.000 
#
# Total GULP energy -201211.649378 kJ/mol
# GULP energy per Si atom -5589.212483 kJ/mol
# Density = 2.129263 g / cm^3
# Si number density = 21.341205 Si / 1000 Ang^3
#
#
#
# Elastic Constant Matrix: (Units=GPa)
#
#
# Indices 1 2 3 4 5 6 
#
# 1 87.3152 41.9667 23.0022 0.0000 0.0000 0.0000
# 2 41.9667 87.3144 23.0019 0.0000 0.0000 0.0000
# 3 23.0022 23.0019 94.0458 0.0000 0.0000 0.0000
# 4 0.0000 0.0000 0.0000 10.0838 0.0000 0.0000
# 5 0.0000 0.0000 0.0000 0.0000 10.0839 0.0000
# 6 0.0000 0.0000 0.0000 0.0000 0.0000 14.3229
#
#
#
# Elastic Compliance Matrix: (Units=1/GPa)
#
#
# Indices 1 2 3 4 5 6 
#
# 1 0.015262 -0.006790 -0.002072 0.000000 0.000000 0.000000
# 2 -0.006790 0.015262 -0.002072 0.000000 0.000000 0.000000
# 3 -0.002072 -0.002072 0.011647 0.000000 0.000000 0.000000
# 4 0.000000 0.000000 0.000000 0.099169 0.000000 0.000000
# 5 0.000000 0.000000 0.000000 0.000000 0.099168 0.000000
# 6 0.000000 0.000000 0.000000 0.000000 0.000000 0.069818
#
#
# Mechanical properties :
#
#
# Convention : Reuss Voigt Hill
#
# Bulk Modulus (GPa) = 49.25432 49.40189 49.32810
# Shear Modulus (GPa) = 14.75091 18.94508 16.84800
#
# Velocity S-wave (km/s) = 2.63191 2.98270 2.81278
# Velocity P-wave (km/s) = 5.68907 5.92122 5.80630
#
# Compressibility (1/GPa) = 0.02030279
#
# Stress axis : x y z
#
# Youngs Moduli (GPa) = 65.52227 65.52173 85.86063
#
# Poissons Ratio (x) = 0.44487 0.17792
# Poissons Ratio (y) = 0.44487 0.17792
# Poissons Ratio (z) = 0.13578 0.13577
#
# Static dielectric constant tensor:
#      x y z
#    x 1.770420 0.000000 0.000000 
#    y 0.000000 1.770420 0.000000 
#    z 0.000000 0.000000 1.784650 
# 
# From -- ./inp_files/3589.got.cif
#   From: 2010.05.17/outbox.cif.g08.bks.cpg/sg97_2_cif.got.tgz:3589.got - 2010.06.03 19:55:32.
