data_PCOD9551294
_publ_section_title
;
Structure prediction by ZEFSAII (Michael W. Deem and Ramdas Pophale) SiO2 
 PCOD9551294
Probable space group: I 4 2 2 
;
_chemical_formula_sum "Si O2"
_cell_formula_units_Z 88
_cell_length_a 32.277235
_cell_length_b 32.277235
_cell_length_c 5.143261
_cell_angle_alpha 90.000000
_cell_angle_beta 90.000000
_cell_angle_gamma 90.000000
_cell_volume 5358.351657
_symmetry_space_group_name_H-M "I 4 2 2 "
_symmetry_group_IT_number 97
_symmetry_cell_setting 'tetragonal'
loop_
_space_group_symop_operation_xyz
x,y,z
-y,x,z
-x,-y,z
y,-x,z
x,-y,-z
-x,y,-z
y,x,-z
-y,-x,-z
1/2+x,1/2+y,1/2+z
1/2-y,1/2+x,1/2+z
1/2-x,1/2-y,1/2+z
1/2+y,1/2-x,1/2+z
1/2+x,1/2-y,1/2-z
1/2-x,1/2+y,1/2-z
1/2+y,1/2+x,1/2-z
1/2-y,1/2-x,1/2-z
loop_
_atom_site_type_symbol
_atom_site_label
_atom_site_fract_x
_atom_site_fract_y
_atom_site_fract_z
Si Si1 0.717827 0.922898 0.791815
Si Si2 0.000000 0.272714 0.500000
Si Si3 0.696796 0.870291 0.280481
Si Si4 0.543393 0.290515 0.608444
Si Si5 0.847273 0.115888 0.745145
Si Si6 0.276386 0.313543 0.752751
O O1 0.703781 0.968038 0.687838
O O2 0.708309 0.891038 0.557941
O O3 0.698592 0.904548 0.053744
O O4 0.765838 0.931210 0.881806
O O5 0.970939 0.243841 0.318978
O O6 0.653617 0.846384 0.250000
O O7 0.732510 0.836008 0.234029
O O8 0.500000 0.307032 0.500000
O O9 0.571849 0.325249 0.732098
O O10 0.876152 0.123849 0.500000
O O11 0.809575 0.148949 0.729432
O O12 0.872937 0.127064 0.000000
O O13 0.287534 0.287534 0.500000
O O14 0.284556 0.284556 0.000000
#
# Coordination Sequence:
#
# PCOD9551294 Si02
#       6
#    16   8  16  16  16  16
#     4  11  21  37  54  77 100 129 189 220 283 314
#     4  10  20  36  62  78 102 132 173 251 260 330
#     4  12  24  36  52  71 107 143 181 233 267 318
#     4  10  21  34  59  81 104 137 176 235 274 334
#     4  10  21  32  50  74 106 139 169 214 278 326
#     4  10  20  32  49  67  92 135 188 229 259 302
#
# _framework density 16.422961000000001
#
# number of rings (size 3 to 8) (size 9 to 14) (size 15 to 20)
#    0.000    1.455    3.636    1.636   10.182    0.727 
#    0.000    0.000    0.000    0.000    0.000    0.000 
#    0.000    0.364    1.091    0.000    0.000   12.727 
#
# Total GULP energy -245491.682599 kJ/mol
# GULP energy per Si atom -5579.356423 kJ/mol
# Density = 1.638558 g / cm^3
# Si number density = 16.422961 Si / 1000 Ang^3
#
#
#
# Elastic Constant Matrix: (Units=GPa)
#
#
# Indices 1 2 3 4 5 6 
#
# 1 73.3346 45.0790 43.3756 0.0000 0.0000 0.0000
# 2 45.0790 73.3310 43.3729 0.0000 0.0000 0.0000
# 3 43.3756 43.3729 114.7259 0.0000 0.0000 0.0000
# 4 0.0000 0.0000 0.0000 16.7522 0.0000 0.0000
# 5 0.0000 0.0000 0.0000 0.0000 16.7513 0.0000
# 6 0.0000 0.0000 0.0000 0.0000 0.0000 22.7486
#
#
#
# Elastic Compliance Matrix: (Units=1/GPa)
#
#
# Indices 1 2 3 4 5 6 
#
# 1 0.023537 -0.011857 -0.004416 0.000000 0.000000 0.000000
# 2 -0.011857 0.023537 -0.004416 0.000000 0.000000 0.000000
# 3 -0.004416 -0.004416 0.012055 0.000000 0.000000 0.000000
# 4 0.000000 0.000000 0.000000 0.059694 0.000000 0.000000
# 5 0.000000 0.000000 0.000000 0.000000 0.059697 0.000000
# 6 0.000000 0.000000 0.000000 0.000000 0.000000 0.043959
#
#
# Mechanical properties :
#
#
# Convention : Reuss Voigt Hill
#
# Bulk Modulus (GPa) = 56.33104 58.33852 57.33478
# Shear Modulus (GPa) = 18.53412 19.88801 19.21107
#
# Velocity S-wave (km/s) = 3.36303 3.48370 3.42390
# Velocity P-wave (km/s) = 7.03240 7.19592 7.11463
#
# Compressibility (1/GPa) = 0.01775220
#
# Stress axis : x y z
#
# Youngs Moduli (GPa) = 42.48719 42.48603 82.94987
#
# Poissons Ratio (x) = 0.50374 0.36632
# Poissons Ratio (y) = 0.50375 0.36628
# Poissons Ratio (z) = 0.18763 0.18760
#
# Static dielectric constant tensor:
#      x y z
#    x 1.554800 0.000000 0.000000 
#    y 0.000000 1.554800 0.000000 
#    z 0.000000 0.000000 1.611610 
# 
# From -- ./inp_files/1081.got.cif
#   From: 2010.05.17/outbox.cif.g08.bks.cpg/sg97_1_cif.got.tgz:1081.got - 2010.06.03 19:55:32.
