data_PCOD9551853
_publ_section_title
;
Structure prediction by ZEFSAII (Michael W. Deem and Ramdas Pophale) SiO2 
 PCOD9551853
Probable space group: I 41 2 2
;
_chemical_formula_sum "Si O2"
_cell_formula_units_Z 80
_cell_length_a 17.598436
_cell_length_b 17.598436
_cell_length_c 13.899893
_cell_angle_alpha 90.000000
_cell_angle_beta 90.000000
_cell_angle_gamma 90.000000
_cell_volume 4304.865662
_symmetry_space_group_name_H-M "I 41 2 2"
_symmetry_group_IT_number 98
_symmetry_cell_setting 'tetragonal'
loop_
_space_group_symop_operation_xyz
x,y,z
-y,1/2+x,1/4+z
-x,-y,z
y,1/2-x,1/4+z
x,1/2-y,1/4-z
-x,1/2+y,1/4-z
y,x,-z
-y,-x,-z
1/2+x,1/2+y,1/2+z
1/2-y,x,3/4+z
1/2-x,1/2-y,1/2+z
1/2+y,-x,3/4+z
1/2+x,-y,3/4-z
1/2-x,y,3/4-z
1/2+y,1/2+x,1/2-z
1/2-y,1/2-x,1/2-z
loop_
_atom_site_type_symbol
_atom_site_label
_atom_site_fract_x
_atom_site_fract_y
_atom_site_fract_z
Si Si1 0.007334 0.683928 0.052579
Si Si2 0.307100 0.060057 0.146658
Si Si3 0.545056 0.664384 0.107810
Si Si4 0.416092 0.530433 0.720902
Si Si5 0.108348 0.141653 0.888985
O O1 0.028435 0.750000 0.125000
O O2 0.921726 0.657413 0.083109
O O3 0.067121 0.615707 0.059498
O O4 0.997564 0.704988 0.941050
O O5 0.330657 0.020141 0.246651
O O6 0.380742 0.112377 0.129053
O O7 0.228808 0.109403 0.148132
O O8 0.569693 0.750000 0.125000
O O9 0.484467 0.636713 0.186552
O O10 0.500000 0.500000 0.748667
O O11 0.385166 0.477853 0.634597
O O12 0.132570 0.132570 0.000000
#
# Coordination Sequence:
#
# PCOD9551853 Si02
#       5
#    16  16  16  16  16
#     4  11  22  38  56  87 122 155 205 256 306 369
#     4  11  21  35  57  89 119 162 197 242 308 374
#     4  11  21  38  58  85 128 156 203 246 303 377
#     4  10  21  39  58  86 121 157 211 256 304 363
#     4  11  21  37  59  84 125 159 202 241 306 372
#
# _framework density 18.583624
#
# number of rings (size 3 to 8) (size 9 to 14) (size 15 to 20)
#    0.000    1.200    8.000    0.000    0.000    5.200 
#    3.600    0.000    0.000    0.000    0.000    4.200 
#    0.000    0.000    0.000    0.000    0.000    0.000 
#
# Total GULP energy -222872.516178 kJ/mol
# GULP energy per Si atom -5571.812904 kJ/mol
# Density = 1.854133 g / cm^3
# Si number density = 18.583624 Si / 1000 Ang^3
#
#
#
# Elastic Constant Matrix: (Units=GPa)
#
#
# Indices 1 2 3 4 5 6 
#
# 1 60.4280 27.9875 25.3929 0.0000 0.0000 0.0000
# 2 27.9875 60.4280 25.3929 0.0000 0.0000 0.0000
# 3 25.3929 25.3929 113.4651 0.0000 0.0000 0.0000
# 4 0.0000 0.0000 0.0000 12.3687 0.0000 0.0000
# 5 0.0000 0.0000 0.0000 0.0000 12.3687 0.0000
# 6 0.0000 0.0000 0.0000 0.0000 0.0000 10.3080
#
#
#
# Elastic Compliance Matrix: (Units=1/GPa)
#
#
# Indices 1 2 3 4 5 6 
#
# 1 0.021902 -0.008924 -0.002905 0.000000 0.000000 0.000000
# 2 -0.008924 0.021902 -0.002905 0.000000 0.000000 0.000000
# 3 -0.002905 -0.002905 0.010113 0.000000 0.000000 0.000000
# 4 0.000000 0.000000 0.000000 0.080849 0.000000 0.000000
# 5 0.000000 0.000000 0.000000 0.000000 0.080849 0.000000
# 6 0.000000 0.000000 0.000000 0.000000 0.000000 0.097012
#
#
# Mechanical properties :
#
#
# Convention : Reuss Voigt Hill
#
# Bulk Modulus (GPa) = 40.89584 43.54084 42.21834
# Shear Modulus (GPa) = 14.27576 17.37894 15.82735
#
# Velocity S-wave (km/s) = 2.77463 3.06138 2.92153
# Velocity P-wave (km/s) = 5.68497 5.99805 5.84361
#
# Compressibility (1/GPa) = 0.02445236
#
# Stress axis : x y z
#
# Youngs Moduli (GPa) = 45.65764 45.65764 98.87948
#
# Poissons Ratio (x) = 0.40743 0.28720
# Poissons Ratio (y) = 0.40743 0.28720
# Poissons Ratio (z) = 0.13261 0.13261
#
# Static dielectric constant tensor:
#      x y z
#    x 1.649470 0.000000 0.000000 
#    y 0.000000 1.649470 0.000000 
#    z 0.000000 0.000000 1.750160 
# 
# From -- ./inp_files/6418.got.cif
#   From: 2010.05.17/outbox.cif.g08.bks.cpg/sg98_4_cif.got.tgz:6418.got - 2010.06.03 20:00:51.
