data_PCOD9551422
_publ_section_title
;
Structure prediction by ZEFSAII (Michael W. Deem and Ramdas Pophale) SiO2 
 PCOD9551422
Probable space group: I 4 2 2 
;
_chemical_formula_sum "Si O2"
_cell_formula_units_Z 92
_cell_length_a 14.740506
_cell_length_b 14.740506
_cell_length_c 20.014974
_cell_angle_alpha 90.000000
_cell_angle_beta 90.000000
_cell_angle_gamma 90.000000
_cell_volume 4348.903931
_symmetry_space_group_name_H-M "I 4 2 2 "
_symmetry_group_IT_number 97
_symmetry_cell_setting 'tetragonal'
loop_
_space_group_symop_operation_xyz
x,y,z
-y,x,z
-x,-y,z
y,-x,z
x,-y,-z
-x,y,-z
y,x,-z
-y,-x,-z
1/2+x,1/2+y,1/2+z
1/2-y,1/2+x,1/2+z
1/2-x,1/2-y,1/2+z
1/2+y,1/2-x,1/2+z
1/2+x,1/2-y,1/2-z
1/2-x,1/2+y,1/2-z
1/2+y,1/2+x,1/2-z
1/2-y,1/2-x,1/2-z
loop_
_atom_site_type_symbol
_atom_site_label
_atom_site_fract_x
_atom_site_fract_y
_atom_site_fract_z
Si Si1 0.727421 0.184405 0.628073
Si Si2 0.291483 0.791483 0.250000
Si Si3 0.916950 0.788074 0.955587
Si Si4 0.000000 0.500000 0.750000
Si Si5 0.700923 0.001671 0.709402
Si Si6 0.900838 0.104036 0.579941
Si Si7 0.529450 0.353901 0.688147
O O1 0.730501 0.258560 0.687427
O O2 0.652709 0.214272 0.574419
O O3 0.828064 0.179055 0.597340
O O4 0.716209 0.081908 0.655252
O O5 0.280157 0.893284 0.280065
O O6 0.960942 0.835375 0.890554
O O7 0.859206 0.859206 0.000000
O O8 0.000000 0.751467 0.000000
O O9 0.001152 0.407440 0.710213
O O10 0.760542 0.038755 0.771582
O O11 0.902916 0.097084 0.500000
O O12 0.002408 0.122745 0.605100
O O13 0.602066 0.431800 0.705269
#
# Coordination Sequence:
#
# PCOD9551422 Si02
#       7
#    16   8  16   4  16  16  16
#     4  12  23  42  66  98 138 178 229 290 339 426
#     4  11  25  41  66 103 133 183 226 278 358 425
#     4  12  25  41  64  98 133 184 233 280 353 426
#     4  10  22  40  60  80 120 178 216 260 324 392
#     4  11  23  42  65  95 132 177 229 280 347 412
#     4   9  19  38  67 100 135 173 221 283 350 405
#     4  11  22  39  67 101 139 172 217 288 353 428
#
# _framework density 21.154755000000002
#
# number of rings (size 3 to 8) (size 9 to 14) (size 15 to 20)
#    0.000    1.043    1.739    6.783    0.000    0.174 
#    0.000    1.739    0.000    0.000   13.565    0.000 
#    0.000    0.000    0.000    0.000    0.000    0.000 
#
# Total GULP energy -256345.408730 kJ/mol
# GULP energy per Si atom -5572.726277 kJ/mol
# Density = 2.110661 g / cm^3
# Si number density = 21.154755 Si / 1000 Ang^3
#
#
#
# Elastic Constant Matrix: (Units=GPa)
#
#
# Indices 1 2 3 4 5 6 
#
# 1 224.6572 -32.3850 51.2808 0.0000 0.0000 0.0000
# 2 -32.3850 224.6571 51.2811 0.0000 0.0000 0.0000
# 3 51.2808 51.2811 67.7812 0.0000 0.0000 0.0000
# 4 0.0000 0.0000 0.0000 27.4095 0.0000 0.0000
# 5 0.0000 0.0000 0.0000 0.0000 27.4096 0.0000
# 6 0.0000 0.0000 0.0000 0.0000 0.0000 28.2968
#
#
#
# Elastic Compliance Matrix: (Units=1/GPa)
#
#
# Indices 1 2 3 4 5 6 
#
# 1 0.006305 0.002415 -0.006597 0.000000 0.000000 0.000000
# 2 0.002415 0.006305 -0.006597 0.000000 0.000000 0.000000
# 3 -0.006597 -0.006597 0.024736 0.000000 0.000000 0.000000
# 4 0.000000 0.000000 0.000000 0.036484 0.000000 0.000000
# 5 0.000000 0.000000 0.000000 0.000000 0.036484 0.000000
# 6 0.000000 0.000000 0.000000 0.000000 0.000000 0.035340
#
#
# Mechanical properties :
#
#
# Convention : Reuss Voigt Hill
#
# Bulk Modulus (GPa) = 63.34383 73.04993 68.19688
# Shear Modulus (GPa) = 28.98965 46.41777 37.70371
#
# Velocity S-wave (km/s) = 3.70585 4.68931 4.22629
# Velocity P-wave (km/s) = 6.95120 7.99535 7.49149
#
# Compressibility (1/GPa) = 0.01578686
#
# Stress axis : x y z
#
# Youngs Moduli (GPa) = 158.59781 158.59728 40.42691
#
# Poissons Ratio (x) = -0.38299 0.26671
# Poissons Ratio (y) = -0.38299 0.26671
# Poissons Ratio (z) = 1.04632 1.04632
#
# Static dielectric constant tensor:
#      x y z
#    x 1.799620 0.000000 0.000000 
#    y 0.000000 1.799620 0.000000 
#    z 0.000000 0.000000 1.780480 
# 
# From -- ./inp_files/6657.got.cif
#   From: 2010.05.17/outbox.cif.g08.bks.cpg/sg97_4_cif.got.tgz:6657.got - 2010.06.03 19:55:32.
