data_PCOD9551704
_publ_section_title
;
Structure prediction by ZEFSAII (Michael W. Deem and Ramdas Pophale) SiO2 
 PCOD9551704
Probable space group: I 41 2 2
;
_chemical_formula_sum "Si O2"
_cell_formula_units_Z 72
_cell_length_a 11.216591
_cell_length_b 11.216591
_cell_length_c 27.260583
_cell_angle_alpha 90.000000
_cell_angle_beta 90.000000
_cell_angle_gamma 90.000000
_cell_volume 3429.706115
_symmetry_space_group_name_H-M "I 41 2 2"
_symmetry_group_IT_number 98
_symmetry_cell_setting 'tetragonal'
loop_
_space_group_symop_operation_xyz
x,y,z
-y,1/2+x,1/4+z
-x,-y,z
y,1/2-x,1/4+z
x,1/2-y,1/4-z
-x,1/2+y,1/4-z
y,x,-z
-y,-x,-z
1/2+x,1/2+y,1/2+z
1/2-y,x,3/4+z
1/2-x,1/2-y,1/2+z
1/2+y,-x,3/4+z
1/2+x,-y,3/4-z
1/2-x,y,3/4-z
1/2+y,1/2+x,1/2-z
1/2-y,1/2-x,1/2-z
loop_
_atom_site_type_symbol
_atom_site_label
_atom_site_fract_x
_atom_site_fract_y
_atom_site_fract_z
Si Si1 0.243859 0.367438 0.650180
Si Si2 0.029047 0.783458 0.991662
Si Si3 0.239047 0.260954 0.250000
Si Si4 0.620704 0.265557 0.860434
Si Si5 0.373310 0.987506 0.913226
O O1 0.188164 0.250000 0.625000
O O2 0.247274 0.338196 0.708233
O O3 0.191955 0.496591 0.635788
O O4 0.385561 0.366674 0.635903
O O5 0.105296 0.726547 0.947903
O O6 0.892077 0.766372 0.975222
O O7 0.087407 0.912594 0.000000
O O8 0.031924 0.721342 0.044376
O O9 0.750000 0.316837 0.875000
O O10 0.624433 0.126078 0.877815
O O11 0.500000 0.000000 0.939946
#
# Coordination Sequence:
#
# PCOD9551704 Si02
#       5
#    16  16   8  16  16
#     4  10  19  32  50  76 116 154 200 247 302 371
#     4  11  20  30  50  80 113 151 197 242 305 378
#     4  10  21  32  48  82 114 159 194 244 313 366
#     4  11  20  33  51  80 116 159 198 251 316 369
#     4   9  20  32  48  76 114 152 191 249 313 366
#
# _framework density 20.993051000000001
#
# number of rings (size 3 to 8) (size 9 to 14) (size 15 to 20)
#    0.000    1.778    4.444    1.000    3.111    1.778 
#    0.000    0.000    0.000    0.000   23.111    0.000 
#    0.000    0.000    0.000    0.000    0.000    0.667 
#
# Total GULP energy -200434.019518 kJ/mol
# GULP energy per Si atom -5567.611653 kJ/mol
# Density = 2.094527 g / cm^3
# Si number density = 20.993051 Si / 1000 Ang^3
#
#
#
# Elastic Constant Matrix: (Units=GPa)
#
#
# Indices 1 2 3 4 5 6 
#
# 1 83.9995 18.3137 23.1222 0.0000 0.0000 0.0000
# 2 18.3137 84.0001 23.1224 0.0000 0.0000 0.0000
# 3 23.1222 23.1224 78.6480 0.0000 0.0000 0.0000
# 4 0.0000 0.0000 0.0000 15.1381 0.0000 0.0000
# 5 0.0000 0.0000 0.0000 0.0000 15.1381 0.0000
# 6 0.0000 0.0000 0.0000 0.0000 0.0000 6.3539
#
#
#
# Elastic Compliance Matrix: (Units=1/GPa)
#
#
# Indices 1 2 3 4 5 6 
#
# 1 0.013248 -0.001976 -0.003314 0.000000 0.000000 0.000000
# 2 -0.001976 0.013248 -0.003314 0.000000 0.000000 0.000000
# 3 -0.003314 -0.003314 0.014663 0.000000 0.000000 0.000000
# 4 0.000000 0.000000 0.000000 0.066059 0.000000 0.000000
# 5 0.000000 0.000000 0.000000 0.000000 0.066058 0.000000
# 6 0.000000 0.000000 0.000000 0.000000 0.000000 0.157385
#
#
# Mechanical properties :
#
#
# Convention : Reuss Voigt Hill
#
# Bulk Modulus (GPa) = 41.75120 41.75160 41.75140
# Shear Modulus (GPa) = 14.05078 19.46530 16.75804
#
# Velocity S-wave (km/s) = 2.58990 3.04834 2.82843
# Velocity P-wave (km/s) = 5.37352 5.68518 5.53155
#
# Compressibility (1/GPa) = 0.02395140
#
# Stress axis : x y z
#
# Youngs Moduli (GPa) = 75.48397 75.48439 68.19699
#
# Poissons Ratio (x) = 0.14917 0.22599
# Poissons Ratio (y) = 0.14916 0.22600
# Poissons Ratio (z) = 0.25014 0.25015
#
# Static dielectric constant tensor:
#      x y z
#    x 1.817150 0.000000 0.000000 
#    y 0.000000 1.817150 0.000000 
#    z 0.000000 0.000000 1.817660 
# 
# From -- ./inp_files/10808.got.cif
#   From: 2010.05.17/outbox.cif.g08.bks.cpg/sg98_6_cif.got.tgz:10808.got - 2010.06.03 20:00:51.
