data_PCOD9551406
_publ_section_title
;
Structure prediction by ZEFSAII (Michael W. Deem and Ramdas Pophale) SiO2 
 PCOD9551406
Probable space group: I 4 2 2 
;
_chemical_formula_sum "Si O2"
_cell_formula_units_Z 128
_cell_length_a 24.161309
_cell_length_b 24.161309
_cell_length_c 11.695282
_cell_angle_alpha 90.000000
_cell_angle_beta 90.000000
_cell_angle_gamma 90.000000
_cell_volume 6827.341354
_symmetry_space_group_name_H-M "I 4 2 2 "
_symmetry_group_IT_number 97
_symmetry_cell_setting 'tetragonal'
loop_
_space_group_symop_operation_xyz
x,y,z
-y,x,z
-x,-y,z
y,-x,z
x,-y,-z
-x,y,-z
y,x,-z
-y,-x,-z
1/2+x,1/2+y,1/2+z
1/2-y,1/2+x,1/2+z
1/2-x,1/2-y,1/2+z
1/2+y,1/2-x,1/2+z
1/2+x,1/2-y,1/2-z
1/2-x,1/2+y,1/2-z
1/2+y,1/2+x,1/2-z
1/2-y,1/2-x,1/2-z
loop_
_atom_site_type_symbol
_atom_site_label
_atom_site_fract_x
_atom_site_fract_y
_atom_site_fract_z
Si Si1 0.355416 0.335613 0.213633
Si Si2 0.433715 0.155127 0.238535
Si Si3 0.562127 0.567601 0.137925
Si Si4 0.644342 0.942308 0.778274
Si Si5 0.350404 0.222926 0.083811
Si Si6 0.739223 0.662032 0.572093
Si Si7 0.059471 0.704482 0.008153
Si Si8 0.271704 0.851375 0.311629
O O1 0.399150 0.384701 0.191841
O O2 0.355887 0.287051 0.118099
O O3 0.362507 0.300675 0.330485
O O4 0.292845 0.358023 0.212669
O O5 0.403242 0.096759 0.250000
O O6 0.498576 0.149006 0.219069
O O7 0.400410 0.190308 0.144754
O O8 0.430569 0.183763 0.363171
O O9 0.496800 0.576078 0.167077
O O10 0.569652 0.569652 0.000000
O O11 0.587168 0.912833 0.750000
O O12 0.692544 0.902436 0.733344
O O13 0.655772 0.945124 0.914676
O O14 0.293133 0.193431 0.121805
O O15 0.348800 0.218461 0.947297
O O16 0.706559 0.706559 0.500000
O O17 0.758400 0.612891 0.488284
O O18 0.000000 0.733933 0.000000
O O19 0.296958 0.796958 0.250000
#
# Coordination Sequence:
#
# PCOD9551406 Si02
#       8
#    16  16  16  16  16  16  16  16
#     4  12  22  36  61  96 121 151 205 251 297 367
#     4  11  22  39  64  85 117 163 205 254 302 362
#     4   9  20  41  64  83 114 158 197 243 305 367
#     4  10  23  41  61  88 120 158 207 256 309 360
#     4  12  22  38  60  89 131 161 197 247 306 373
#     4  12  22  38  61  91 121 164 203 243 306 377
#     4  10  21  42  63  84 120 164 203 247 303 371
#     4  11  23  38  57  89 130 164 191 250 313 365
#
# _framework density 18.748148
#
# number of rings (size 3 to 8) (size 9 to 14) (size 15 to 20)
#    0.000    1.125    2.500    6.375    0.000    1.750 
#    2.250    0.000    0.000    2.250    0.000    0.875 
#    0.000    0.000    0.000    0.000    0.000    0.000 
#
# Total GULP energy -357365.733605 kJ/mol
# GULP energy per Si atom -5583.839588 kJ/mol
# Density = 1.870548 g / cm^3
# Si number density = 18.748148 Si / 1000 Ang^3
#
#
#
# Elastic Constant Matrix: (Units=GPa)
#
#
# Indices 1 2 3 4 5 6 
#
# 1 128.8915 89.6377 29.2637 0.0000 0.0000 0.0000
# 2 89.6377 128.9002 29.2668 0.0000 0.0000 0.0000
# 3 29.2637 29.2668 89.7872 0.0000 0.0000 0.0000
# 4 0.0000 0.0000 0.0000 23.7824 0.0000 0.0000
# 5 0.0000 0.0000 0.0000 0.0000 23.7845 0.0000
# 6 0.0000 0.0000 0.0000 0.0000 0.0000 31.5753
#
#
#
# Elastic Compliance Matrix: (Units=1/GPa)
#
#
# Indices 1 2 3 4 5 6 
#
# 1 0.015243 -0.010229 -0.001634 0.000000 0.000000 0.000000
# 2 -0.010229 0.015243 -0.001634 0.000000 0.000000 0.000000
# 3 -0.001634 -0.001634 0.012203 0.000000 0.000000 0.000000
# 4 0.000000 0.000000 0.000000 0.042048 0.000000 0.000000
# 5 0.000000 0.000000 0.000000 0.000000 0.042044 0.000000
# 6 0.000000 0.000000 0.000000 0.000000 0.000000 0.031670
#
#
# Mechanical properties :
#
#
# Convention : Reuss Voigt Hill
#
# Bulk Modulus (GPa) = 63.72106 71.54615 67.63361
# Shear Modulus (GPa) = 26.22228 29.12250 27.67239
#
# Velocity S-wave (km/s) = 3.74392 3.94554 3.84605
# Velocity P-wave (km/s) = 7.26299 7.68120 7.47502
#
# Compressibility (1/GPa) = 0.01569340
#
# Stress axis : x y z
#
# Youngs Moduli (GPa) = 65.60201 65.60570 81.94904
#
# Poissons Ratio (x) = 0.67111 0.13389
# Poissons Ratio (y) = 0.67107 0.13394
# Poissons Ratio (z) = 0.10718 0.10723
#
# Static dielectric constant tensor:
#      x y z
#    x 1.658460 0.000000 0.000000 
#    y 0.000000 1.658450 0.000000 
#    z 0.000000 0.000000 1.693110 
# 
# From -- ./inp_files/4077.got.cif
#   From: 2010.05.17/outbox.cif.g08.bks.cpg/sg97_3_cif.got.tgz:4077.got - 2010.06.03 19:55:32.
