data_PCOD9551847
_publ_section_title
;
Structure prediction by ZEFSAII (Michael W. Deem and Ramdas Pophale) SiO2 
 PCOD9551847
Probable space group: I 41 2 2
;
_chemical_formula_sum "Si O2"
_cell_formula_units_Z 80
_cell_length_a 12.439153
_cell_length_b 12.439153
_cell_length_c 26.725661
_cell_angle_alpha 90.000000
_cell_angle_beta 90.000000
_cell_angle_gamma 90.000000
_cell_volume 4135.329072
_symmetry_space_group_name_H-M "I 41 2 2"
_symmetry_group_IT_number 98
_symmetry_cell_setting 'tetragonal'
loop_
_space_group_symop_operation_xyz
x,y,z
-y,1/2+x,1/4+z
-x,-y,z
y,1/2-x,1/4+z
x,1/2-y,1/4-z
-x,1/2+y,1/4-z
y,x,-z
-y,-x,-z
1/2+x,1/2+y,1/2+z
1/2-y,x,3/4+z
1/2-x,1/2-y,1/2+z
1/2+y,-x,3/4+z
1/2+x,-y,3/4-z
1/2-x,y,3/4-z
1/2+y,1/2+x,1/2-z
1/2-y,1/2-x,1/2-z
loop_
_atom_site_type_symbol
_atom_site_label
_atom_site_fract_x
_atom_site_fract_y
_atom_site_fract_z
Si Si1 0.675389 0.675389 0.500000
Si Si2 0.082825 0.701407 0.678033
Si Si3 0.762175 0.023930 0.815375
Si Si4 0.000000 0.500000 0.862096
Si Si5 0.733028 0.266973 0.500000
Si Si6 0.652329 0.600030 0.804000
Si Si7 0.500000 0.500000 0.277302
O O1 0.697355 0.570763 0.464530
O O2 0.670149 0.777904 0.462510
O O3 0.117812 0.750000 0.625000
O O4 0.158199 0.757803 0.718017
O O5 0.077846 0.573865 0.671388
O O6 0.960184 0.736683 0.686415
O O7 0.750000 0.019908 0.875000
O O8 0.727585 0.134456 0.788391
O O9 0.891039 0.020039 0.807074
O O10 0.074602 0.427333 0.898953
O O11 0.596830 0.536026 0.758594
#
# Coordination Sequence:
#
# PCOD9551847 Si02
#       7
#     8  16  16   8   8  16   8
#     4  10  24  41  68  93 132 174 224 276 328 387
#     4  10  21  38  62  95 122 168 207 263 329 394
#     4  11  25  44  67  99 134 184 228 282 337 405
#     4   9  20  35  62  93 130 155 210 263 327 388
#     4  12  24  42  64  92 134 174 218 270 332 402
#     4   9  18  39  63  89 124 165 204 265 324 384
#     4   9  18  42  64  86 124 172 210 264 331 382
#
# _framework density 19.345497999999999
#
# number of rings (size 3 to 8) (size 9 to 14) (size 15 to 20)
#    0.000    2.000    2.000    0.600    2.800    6.400 
#    3.600    0.000    0.000    0.000    0.000    0.000 
#    0.000    0.000    0.000    0.000    0.000    0.000 
#
# Total GULP energy -222751.553891 kJ/mol
# GULP energy per Si atom -5568.788847 kJ/mol
# Density = 1.930147 g / cm^3
# Si number density = 19.345498 Si / 1000 Ang^3
#
#
#
# Elastic Constant Matrix: (Units=GPa)
#
#
# Indices 1 2 3 4 5 6 
#
# 1 101.7797 45.5512 36.3884 0.0000 0.0000 0.0000
# 2 45.5512 101.7787 36.3881 0.0000 0.0000 0.0000
# 3 36.3884 36.3881 88.6345 0.0000 0.0000 0.0000
# 4 0.0000 0.0000 0.0000 30.4675 0.0000 0.0000
# 5 0.0000 0.0000 0.0000 0.0000 30.4659 0.0000
# 6 0.0000 0.0000 0.0000 0.0000 0.0000 20.4686
#
#
#
# Elastic Compliance Matrix: (Units=1/GPa)
#
#
# Indices 1 2 3 4 5 6 
#
# 1 0.013149 -0.004635 -0.003495 0.000000 0.000000 0.000000
# 2 -0.004635 0.013149 -0.003495 0.000000 0.000000 0.000000
# 3 -0.003495 -0.003495 0.014152 0.000000 0.000000 0.000000
# 4 0.000000 0.000000 0.000000 0.032822 0.000000 0.000000
# 5 0.000000 0.000000 0.000000 0.000000 0.032824 0.000000
# 6 0.000000 0.000000 0.000000 0.000000 0.000000 0.048855
#
#
# Mechanical properties :
#
#
# Convention : Reuss Voigt Hill
#
# Bulk Modulus (GPa) = 58.14328 58.76091 58.45209
# Shear Modulus (GPa) = 27.18321 27.87142 27.52732
#
# Velocity S-wave (km/s) = 3.75259 3.79980 3.77627
# Velocity P-wave (km/s) = 6.99259 7.04923 7.02097
#
# Compressibility (1/GPa) = 0.01719889
#
# Stress axis : x y z
#
# Youngs Moduli (GPa) = 76.04939 76.04880 70.65988
#
# Poissons Ratio (x) = 0.35251 0.24698
# Poissons Ratio (y) = 0.35251 0.24698
# Poissons Ratio (z) = 0.26582 0.26582
#
# Static dielectric constant tensor:
#      x y z
#    x 1.749750 0.000000 0.000000 
#    y 0.000000 1.749750 0.000000 
#    z 0.000000 0.000000 1.718770 
# 
# From -- ./inp_files/11879.got.cif
#   From: 2010.05.17/outbox.cif.g08.bks.cpg/sg98_6_cif.got.tgz:11879.got - 2010.06.03 20:00:51.
