data_PCOD9551252
_publ_section_title
;
Structure prediction by ZEFSAII (Michael W. Deem and Ramdas Pophale) SiO2 
 PCOD9551252
Probable space group: I 4 2 2 
;
_chemical_formula_sum "Si O2"
_cell_formula_units_Z 116
_cell_length_a 17.846624
_cell_length_b 17.846624
_cell_length_c 16.132841
_cell_angle_alpha 90.000000
_cell_angle_beta 90.000000
_cell_angle_gamma 90.000000
_cell_volume 5138.341934
_symmetry_space_group_name_H-M "I 4 2 2 "
_symmetry_group_IT_number 97
_symmetry_cell_setting 'tetragonal'
loop_
_space_group_symop_operation_xyz
x,y,z
-y,x,z
-x,-y,z
y,-x,z
x,-y,-z
-x,y,-z
y,x,-z
-y,-x,-z
1/2+x,1/2+y,1/2+z
1/2-y,1/2+x,1/2+z
1/2-x,1/2-y,1/2+z
1/2+y,1/2-x,1/2+z
1/2+x,1/2-y,1/2-z
1/2-x,1/2+y,1/2-z
1/2+y,1/2+x,1/2-z
1/2-y,1/2-x,1/2-z
loop_
_atom_site_type_symbol
_atom_site_label
_atom_site_fract_x
_atom_site_fract_y
_atom_site_fract_z
Si Si1 0.000000 0.000000 0.896192
Si Si2 0.007032 0.714072 0.375388
Si Si3 0.205781 0.241371 0.165760
Si Si4 0.521658 0.380347 0.139949
Si Si5 0.152127 0.947368 0.167678
Si Si6 0.165594 0.667750 0.080906
Si Si7 0.978451 0.305678 0.178323
Si Si8 0.614458 0.873139 0.594126
O O1 0.919074 0.955772 0.890517
O O2 0.090799 0.710586 0.409524
O O3 0.009951 0.701193 0.276404
O O4 0.971639 0.795857 0.391705
O O5 0.955650 0.648073 0.410265
O O6 0.252584 0.247417 0.250000
O O7 0.137270 0.183261 0.173795
O O8 0.260952 0.218167 0.092525
O O9 0.170201 0.322656 0.149655
O O10 0.584245 0.441225 0.116108
O O11 0.526331 0.374700 0.240598
O O12 0.224040 0.997163 0.143670
O O13 0.105100 0.674539 0.154091
O O14 0.119242 0.664169 0.995997
O O15 0.034338 0.365395 0.136833
#
# Coordination Sequence:
#
# PCOD9551252 Si02
#       8
#     4  16  16  16  16  16  16  16
#     4  12  16  28  52  92 133 156 193 260 332 394
#     4  11  24  39  67  97 131 170 226 277 330 413
#     4  11  23  40  64  93 131 177 230 282 330 404
#     4  10  19  34  59  97 134 166 209 270 332 386
#     4  10  19  32  59  92 133 165 213 267 333 395
#     4  12  25  40  64  98 133 167 227 283 349 402
#     4  10  22  42  65  93 125 173 219 281 333 406
#     4  11  24  45  63  90 132 183 217 274 352 418
#
# _framework density 22.575375999999999
#
# number of rings (size 3 to 8) (size 9 to 14) (size 15 to 20)
#    0.000    1.241    1.379    6.207    5.793    0.552 
#    0.000    2.759    0.000    0.000    0.000   36.690 
#    0.000    0.000    0.000    0.000    0.000    0.000 
#
# Total GULP energy -324009.376474 kJ/mol
# GULP energy per Si atom -5586.368560 kJ/mol
# Density = 2.252399 g / cm^3
# Si number density = 22.575376 Si / 1000 Ang^3
#
#
#
# Elastic Constant Matrix: (Units=GPa)
#
#
# Indices 1 2 3 4 5 6 
#
# 1 79.9512 22.4159 0.5058 0.0000 0.0000 0.0000
# 2 22.4159 79.9516 0.5058 0.0000 0.0000 0.0000
# 3 0.5058 0.5058 63.8870 0.0000 0.0000 0.0000
# 4 0.0000 0.0000 0.0000 13.7546 0.0000 0.0000
# 5 0.0000 0.0000 0.0000 0.0000 13.7541 0.0000
# 6 0.0000 0.0000 0.0000 0.0000 0.0000 23.3358
#
#
#
# Elastic Compliance Matrix: (Units=1/GPa)
#
#
# Indices 1 2 3 4 5 6 
#
# 1 0.013575 -0.003806 -0.000077 0.000000 0.000000 0.000000
# 2 -0.003806 0.013575 -0.000077 0.000000 0.000000 0.000000
# 3 -0.000077 -0.000077 0.015654 0.000000 0.000000 0.000000
# 4 0.000000 0.000000 0.000000 0.072703 0.000000 0.000000
# 5 0.000000 0.000000 0.000000 0.000000 0.072706 0.000000
# 6 0.000000 0.000000 0.000000 0.000000 0.000000 0.042853
#
#
# Mechanical properties :
#
#
# Convention : Reuss Voigt Hill
#
# Bulk Modulus (GPa) = 28.66682 30.07161 29.36922
# Shear Modulus (GPa) = 19.95106 23.52639 21.73873
#
# Velocity S-wave (km/s) = 2.97602 3.23170 3.10649
# Velocity P-wave (km/s) = 4.95326 5.22251 5.08967
#
# Compressibility (1/GPa) = 0.03488353
#
# Stress axis : x y z
#
# Youngs Moduli (GPa) = 73.66442 73.66479 63.88198
#
# Poissons Ratio (x) = 0.28033 0.00494
# Poissons Ratio (y) = 0.28033 0.00494
# Poissons Ratio (z) = 0.00570 0.00570
#
# Static dielectric constant tensor:
#      x y z
#    x 1.827910 0.000000 0.000000 
#    y 0.000000 1.827910 0.000000 
#    z 0.000000 0.000000 1.882240 
# 
# From -- ./inp_files/5917.got.cif
#   From: 2010.05.17/outbox.cif.g08.bks.cpg/sg97_3_cif.got.tgz:5917.got - 2010.06.03 19:55:32.
