data_PCOD9551614
_publ_section_title
;
Structure prediction by ZEFSAII (Michael W. Deem and Ramdas Pophale) SiO2 
 PCOD9551614
Probable space group: I 4 2 2 
;
_chemical_formula_sum "Si O2"
_cell_formula_units_Z 64
_cell_length_a 10.379975
_cell_length_b 10.379975
_cell_length_c 27.655442
_cell_angle_alpha 90.000000
_cell_angle_beta 90.000000
_cell_angle_gamma 90.000000
_cell_volume 2979.704652
_symmetry_space_group_name_H-M "I 4 2 2 "
_symmetry_group_IT_number 97
_symmetry_cell_setting 'tetragonal'
loop_
_space_group_symop_operation_xyz
x,y,z
-y,x,z
-x,-y,z
y,-x,z
x,-y,-z
-x,y,-z
y,x,-z
-y,-x,-z
1/2+x,1/2+y,1/2+z
1/2-y,1/2+x,1/2+z
1/2-x,1/2-y,1/2+z
1/2+y,1/2-x,1/2+z
1/2+x,1/2-y,1/2-z
1/2-x,1/2+y,1/2-z
1/2+y,1/2+x,1/2-z
1/2-y,1/2-x,1/2-z
loop_
_atom_site_type_symbol
_atom_site_label
_atom_site_fract_x
_atom_site_fract_y
_atom_site_fract_z
Si Si1 0.903598 0.400866 0.616404
Si Si2 0.217775 0.005671 0.801780
Si Si3 0.784352 0.000041 0.306275
Si Si4 0.868699 0.168957 0.943315
O O1 0.823559 0.477304 0.657598
O O2 0.990219 0.305205 0.647811
O O3 0.797893 0.326411 0.583986
O O4 0.000000 0.500000 0.589722
O O5 0.274248 0.002869 0.747585
O O6 0.120169 0.127484 0.806732
O O7 0.876297 0.124761 0.307991
O O8 0.022761 0.171785 0.931331
O O9 0.831878 0.168122 0.000000
#
# Coordination Sequence:
#
# PCOD9551614 Si02
#       4
#    16  16  16  16
#     4  12  24  33  58  97 124 153 207 265 315 370
#     4   9  19  37  58  82 119 171 220 261 299 352
#     4   9  21  39  55  77 124 179 214 244 300 368
#     4   9  20  42  69  89 114 150 196 260 332 384
#
# _framework density 21.478638
#
# number of rings (size 3 to 8) (size 9 to 14) (size 15 to 20)
#    0.000    2.250    0.000    4.500    7.000    4.000 
#    0.000    2.500    0.000    0.000    0.000    1.750 
#    0.000    0.000    0.000    0.000    0.000    0.000 
#
# Total GULP energy -178553.175737 kJ/mol
# GULP energy per Si atom -5579.786742 kJ/mol
# Density = 2.142975 g / cm^3
# Si number density = 21.478638 Si / 1000 Ang^3
#
#
#
# Elastic Constant Matrix: (Units=GPa)
#
#
# Indices 1 2 3 4 5 6 
#
# 1 56.2413 10.7512 21.1666 0.0000 0.0000 0.0000
# 2 10.7512 56.2413 21.1666 0.0000 0.0000 0.0000
# 3 21.1666 21.1666 66.7026 0.0000 0.0000 0.0000
# 4 0.0000 0.0000 0.0000 18.2073 0.0000 0.0000
# 5 0.0000 0.0000 0.0000 0.0000 18.2073 0.0000
# 6 0.0000 0.0000 0.0000 0.0000 0.0000 26.5707
#
#
#
# Elastic Compliance Matrix: (Units=1/GPa)
#
#
# Indices 1 2 3 4 5 6 
#
# 1 0.020327 -0.001656 -0.005925 0.000000 0.000000 0.000000
# 2 -0.001656 0.020327 -0.005925 0.000000 0.000000 0.000000
# 3 -0.005925 -0.005925 0.018752 0.000000 0.000000 0.000000
# 4 0.000000 0.000000 0.000000 0.054923 0.000000 0.000000
# 5 0.000000 0.000000 0.000000 0.000000 0.054923 0.000000
# 6 0.000000 0.000000 0.000000 0.000000 0.000000 0.037635
#
#
# Mechanical properties :
#
#
# Convention : Reuss Voigt Hill
#
# Bulk Modulus (GPa) = 30.86914 31.70602 31.28758
# Shear Modulus (GPa) = 20.43343 21.00376 20.71860
#
# Velocity S-wave (km/s) = 3.08772 3.13052 3.10919
# Velocity P-wave (km/s) = 5.20723 5.27831 5.24289
#
# Compressibility (1/GPa) = 0.03239481
#
# Stress axis : x y z
#
# Youngs Moduli (GPa) = 49.19589 49.19589 53.32712
#
# Poissons Ratio (x) = 0.08146 0.31596
# Poissons Ratio (y) = 0.08146 0.31596
# Poissons Ratio (z) = 0.29148 0.29148
#
# Static dielectric constant tensor:
#      x y z
#    x 1.831390 0.000000 0.000000 
#    y 0.000000 1.831390 0.000000 
#    z 0.000000 0.000000 1.806030 
# 
# From -- ./inp_files/7043.got.cif
#   From: 2010.05.17/outbox.cif.g08.bks.cpg/sg97_4_cif.got.tgz:7043.got - 2010.06.03 19:55:32.
