data_PCOD9551951
_publ_section_title
;
Structure prediction by ZEFSAII (Michael W. Deem and Ramdas Pophale) SiO2 
 PCOD9551951
Probable space group: I 41 2 2
;
_chemical_formula_sum "Si O2"
_cell_formula_units_Z 116
_cell_length_a 18.226898
_cell_length_b 18.226898
_cell_length_c 17.342362
_cell_angle_alpha 90.000000
_cell_angle_beta 90.000000
_cell_angle_gamma 90.000000
_cell_volume 5761.476221
_symmetry_space_group_name_H-M "I 41 2 2"
_symmetry_group_IT_number 98
_symmetry_cell_setting 'tetragonal'
loop_
_space_group_symop_operation_xyz
x,y,z
-y,1/2+x,1/4+z
-x,-y,z
y,1/2-x,1/4+z
x,1/2-y,1/4-z
-x,1/2+y,1/4-z
y,x,-z
-y,-x,-z
1/2+x,1/2+y,1/2+z
1/2-y,x,3/4+z
1/2-x,1/2-y,1/2+z
1/2+y,-x,3/4+z
1/2+x,-y,3/4-z
1/2-x,y,3/4-z
1/2+y,1/2+x,1/2-z
1/2-y,1/2-x,1/2-z
loop_
_atom_site_type_symbol
_atom_site_label
_atom_site_fract_x
_atom_site_fract_y
_atom_site_fract_z
Si Si1 0.194915 0.331445 0.591368
Si Si2 0.494634 0.413331 0.599826
Si Si3 0.640429 0.989063 0.147390
Si Si4 0.294913 0.963113 0.558169
Si Si5 0.873198 0.658277 0.424583
Si Si6 0.363269 0.585613 0.255955
Si Si7 0.000000 0.000000 0.500000
Si Si8 0.806077 0.078927 0.011659
O O1 0.174623 0.250000 0.625000
O O2 0.155119 0.403155 0.628194
O O3 0.278754 0.346709 0.616065
O O4 0.178697 0.337620 0.500009
O O5 0.500000 0.500000 0.581710
O O6 0.416925 0.382079 0.628218
O O7 0.546977 0.403075 0.673157
O O8 0.523445 0.359845 0.532850
O O9 0.708123 0.023835 0.194929
O O10 0.569772 0.997530 0.196969
O O11 0.628939 0.035973 0.069672
O O12 0.334562 0.902026 0.505751
O O13 0.305850 0.942311 0.648514
O O14 0.327548 0.044040 0.544764
O O15 0.276100 0.583322 0.270133
O O16 0.842452 0.157549 0.000000
#
# Coordination Sequence:
#
# PCOD9551951 Si02
#       8
#    16  16  16  16  16  16   4  16
#     4  11  25  45  69  96 139 180 230 287 355 417
#     4  12  23  40  68  99 138 182 229 278 346 417
#     4  10  26  46  72 105 133 183 232 290 348 421
#     4  10  23  44  68  97 141 174 232 281 343 415
#     4  11  24  44  66  96 135 180 232 279 346 416
#     4  11  22  44  69  97 136 180 226 285 345 415
#     4  12  28  48  76 100 144 170 244 292 344 404
#     4  11  23  40  64 102 137 182 225 278 346 414
#
# _framework density 20.133728999999999
#
# number of rings (size 3 to 8) (size 9 to 14) (size 15 to 20)
#    0.000    1.103    4.138    0.828    6.759    3.034 
#    8.690    0.690    0.000    0.000    0.000    0.000 
#    0.000    0.000    0.000    0.000    0.000    0.000 
#
# Total GULP energy -323937.679401 kJ/mol
# GULP energy per Si atom -5585.132403 kJ/mol
# Density = 2.008790 g / cm^3
# Si number density = 20.133729 Si / 1000 Ang^3
#
#
#
# Elastic Constant Matrix: (Units=GPa)
#
#
# Indices 1 2 3 4 5 6 
#
# 1 147.4520 81.2075 59.1666 0.0000 0.0000 0.0000
# 2 81.2075 147.4494 59.1664 0.0000 0.0000 0.0000
# 3 59.1666 59.1664 50.6387 0.0000 0.0000 0.0000
# 4 0.0000 0.0000 0.0000 20.8304 0.0000 0.0000
# 5 0.0000 0.0000 0.0000 0.0000 20.8302 0.0000
# 6 0.0000 0.0000 0.0000 0.0000 0.0000 25.2577
#
#
#
# Elastic Compliance Matrix: (Units=1/GPa)
#
#
# Indices 1 2 3 4 5 6 
#
# 1 0.013079 -0.002017 -0.012925 0.000000 0.000000 0.000000
# 2 -0.002017 0.013079 -0.012925 0.000000 0.000000 0.000000
# 3 -0.012925 -0.012925 0.049952 0.000000 0.000000 0.000000
# 4 0.000000 0.000000 0.000000 0.048007 0.000000 0.000000
# 5 0.000000 0.000000 0.000000 0.000000 0.048007 0.000000
# 6 0.000000 0.000000 0.000000 0.000000 0.000000 0.039592
#
#
# Mechanical properties :
#
#
# Convention : Reuss Voigt Hill
#
# Bulk Modulus (GPa) = 49.07929 82.73570 65.90749
# Shear Modulus (GPa) = 18.23209 23.11697 20.67453
#
# Velocity S-wave (km/s) = 3.01250 3.39214 3.20794
# Velocity P-wave (km/s) = 6.04399 7.51828 6.82108
#
# Compressibility (1/GPa) = 0.02037519
#
# Stress axis : x y z
#
# Youngs Moduli (GPa) = 76.45893 76.45695 20.01940
#
# Poissons Ratio (x) = 0.15420 0.25875
# Poissons Ratio (y) = 0.15420 0.25876
# Poissons Ratio (z) = 0.98824 0.98824
#
# Static dielectric constant tensor:
#      x y z
#    x 1.740180 0.000000 0.000000 
#    y 0.000000 1.740180 0.000000 
#    z 0.000000 0.000000 1.705200 
# 
# From -- ./inp_files/7827.got.cif
#   From: 2010.05.17/outbox.cif.g08.bks.cpg/sg98_4_cif.got.tgz:7827.got - 2010.06.03 20:00:51.
