data_PCOD9551226
_publ_section_title
;
Structure prediction by ZEFSAII (Michael W. Deem and Ramdas Pophale) SiO2 
 PCOD9551226
Probable space group: I 4 2 2 
;
_chemical_formula_sum "Si O2"
_cell_formula_units_Z 104
_cell_length_a 16.780670
_cell_length_b 16.780670
_cell_length_c 17.683797
_cell_angle_alpha 90.000000
_cell_angle_beta 90.000000
_cell_angle_gamma 90.000000
_cell_volume 4979.596059
_symmetry_space_group_name_H-M "I 4 2 2 "
_symmetry_group_IT_number 97
_symmetry_cell_setting 'tetragonal'
loop_
_space_group_symop_operation_xyz
x,y,z
-y,x,z
-x,-y,z
y,-x,z
x,-y,-z
-x,y,-z
y,x,-z
-y,-x,-z
1/2+x,1/2+y,1/2+z
1/2-y,1/2+x,1/2+z
1/2-x,1/2-y,1/2+z
1/2+y,1/2-x,1/2+z
1/2+x,1/2-y,1/2-z
1/2-x,1/2+y,1/2-z
1/2+y,1/2+x,1/2-z
1/2-y,1/2-x,1/2-z
loop_
_atom_site_type_symbol
_atom_site_label
_atom_site_fract_x
_atom_site_fract_y
_atom_site_fract_z
Si Si1 0.889653 0.719505 0.367977
Si Si2 0.039166 0.126693 0.106040
Si Si3 0.238178 0.999416 0.239670
Si Si4 0.731799 0.335568 0.572407
Si Si5 0.500000 0.266496 0.000000
Si Si6 0.614332 0.294280 0.876350
Si Si7 0.208248 0.653070 0.330155
O O1 0.934030 0.713456 0.287802
O O2 0.818491 0.661202 0.391222
O O3 0.953598 0.718103 0.435379
O O4 0.847239 0.806863 0.368526
O O5 0.037689 0.169189 0.188182
O O6 0.078696 0.195105 0.054757
O O7 0.950711 0.094137 0.094998
O O8 0.199539 0.056851 0.303827
O O9 0.291265 0.059349 0.187962
O O10 0.721814 0.278187 0.500000
O O11 0.676132 0.292359 0.634243
O O12 0.565054 0.314032 0.951252
O O13 0.642675 0.200732 0.879473
O O14 0.196785 0.696785 0.250000
#
# Coordination Sequence:
#
# PCOD9551226 Si02
#       7
#    16  16  16  16   8  16  16
#     4  10  20  33  59  88 125 158 210 256 312 376
#     4  11  23  38  57  83 125 163 200 249 311 380
#     4  10  19  34  57  89 120 160 204 264 311 361
#     4  11  23  38  58  85 121 165 210 258 307 378
#     4  10  18  32  54  91 125 162 204 260 304 366
#     4   9  18  32  56  86 127 167 209 248 312 376
#     4   9  18  35  58  85 119 164 208 255 305 370
#
# _framework density 20.885227
#
# number of rings (size 3 to 8) (size 9 to 14) (size 15 to 20)
#    0.000    2.000    1.538    3.231    4.308    0.615 
#    0.000    0.769    0.000   17.538    0.000   34.462 
#    0.000    0.000    0.000    0.000    0.000    0.000 
#
# Total GULP energy -289873.012283 kJ/mol
# GULP energy per Si atom -5574.481005 kJ/mol
# Density = 2.083769 g / cm^3
# Si number density = 20.885227 Si / 1000 Ang^3
#
#
#
# Elastic Constant Matrix: (Units=GPa)
#
#
# Indices 1 2 3 4 5 6 
#
# 1 89.3840 43.7803 28.6664 0.0000 0.0000 0.0000
# 2 43.7803 89.3844 28.6664 0.0000 0.0000 0.0000
# 3 28.6664 28.6664 60.9550 0.0000 0.0000 0.0000
# 4 0.0000 0.0000 0.0000 25.0588 0.0000 0.0000
# 5 0.0000 0.0000 0.0000 0.0000 25.0587 0.0000
# 6 0.0000 0.0000 0.0000 0.0000 0.0000 29.5749
#
#
#
# Elastic Compliance Matrix: (Units=1/GPa)
#
#
# Indices 1 2 3 4 5 6 
#
# 1 0.015672 -0.006256 -0.004428 0.000000 0.000000 0.000000
# 2 -0.006256 0.015672 -0.004428 0.000000 0.000000 0.000000
# 3 -0.004428 -0.004428 0.020571 0.000000 0.000000 0.000000
# 4 0.000000 0.000000 0.000000 0.039906 0.000000 0.000000
# 5 0.000000 0.000000 0.000000 0.000000 0.039906 0.000000
# 6 0.000000 0.000000 0.000000 0.000000 0.000000 0.033813
#
#
# Mechanical properties :
#
#
# Convention : Reuss Voigt Hill
#
# Bulk Modulus (GPa) = 46.10475 49.10552 47.60514
# Shear Modulus (GPa) = 24.63121 25.17916 24.90519
#
# Velocity S-wave (km/s) = 3.43791 3.47594 3.45697
# Velocity P-wave (km/s) = 6.15485 6.29862 6.22715
#
# Compressibility (1/GPa) = 0.02168974
#
# Stress axis : x y z
#
# Youngs Moduli (GPa) = 63.80784 63.80823 48.61296
#
# Poissons Ratio (x) = 0.39918 0.21527
# Poissons Ratio (y) = 0.39918 0.21527
# Poissons Ratio (z) = 0.28256 0.28256
#
# Static dielectric constant tensor:
#      x y z
#    x 1.783270 0.000000 0.000000 
#    y 0.000000 1.783270 0.000000 
#    z 0.000000 0.000000 1.828330 
# 
# From -- ./inp_files/5872.got.cif
#   From: 2010.05.17/outbox.cif.g08.bks.cpg/sg97_3_cif.got.tgz:5872.got - 2010.06.03 19:55:32.
