data_PCOD9551506
_publ_section_title
;
Structure prediction by ZEFSAII (Michael W. Deem and Ramdas Pophale) SiO2 
 PCOD9551506
Probable space group: I 4 2 2 
;
_chemical_formula_sum "Si O2"
_cell_formula_units_Z 72
_cell_length_a 13.739874
_cell_length_b 13.739874
_cell_length_c 17.802124
_cell_angle_alpha 90.000000
_cell_angle_beta 90.000000
_cell_angle_gamma 90.000000
_cell_volume 3360.758626
_symmetry_space_group_name_H-M "I 4 2 2 "
_symmetry_group_IT_number 97
_symmetry_cell_setting 'tetragonal'
loop_
_space_group_symop_operation_xyz
x,y,z
-y,x,z
-x,-y,z
y,-x,z
x,-y,-z
-x,y,-z
y,x,-z
-y,-x,-z
1/2+x,1/2+y,1/2+z
1/2-y,1/2+x,1/2+z
1/2-x,1/2-y,1/2+z
1/2+y,1/2-x,1/2+z
1/2+x,1/2-y,1/2-z
1/2-x,1/2+y,1/2-z
1/2+y,1/2+x,1/2-z
1/2-y,1/2-x,1/2-z
loop_
_atom_site_type_symbol
_atom_site_label
_atom_site_fract_x
_atom_site_fract_y
_atom_site_fract_z
Si Si1 0.146330 0.415477 0.327385
Si Si2 0.625856 0.874145 0.250000
Si Si3 0.925519 0.140034 0.822077
Si Si4 0.174734 0.868069 0.660741
Si Si5 0.043733 0.736160 0.581498
O O1 0.144364 0.355637 0.250000
O O2 0.130924 0.525875 0.297950
O O3 0.255757 0.400956 0.356908
O O4 0.062352 0.367803 0.377845
O O5 0.717422 0.861960 0.304748
O O6 0.897838 0.142277 0.732603
O O7 0.039199 0.126227 0.841657
O O8 0.145991 0.789379 0.598166
O O9 0.185029 0.970642 0.618800
O O10 0.000000 0.719672 0.500000
#
# Coordination Sequence:
#
# PCOD9551506 Si02
#       5
#    16   8  16  16  16
#     4  12  22  40  65  96 137 184 244 309 368 433
#     4  12  23  38  68 104 128 189 242 322 370 425
#     4  11  20  35  64 105 137 170 234 316 376 423
#     4  12  21  40  65  93 141 179 239 301 371 451
#     4  12  27  42  62  97 141 200 241 297 378 469
#
# _framework density 21.423734
#
# number of rings (size 3 to 8) (size 9 to 14) (size 15 to 20)
#    0.000    0.222    8.889    2.333    0.000    0.444 
#    0.000    3.333    0.000    0.000    0.000    0.000 
#    0.000    0.000    1.333    0.000    0.000    0.000 
#
# Total GULP energy -200512.710341 kJ/mol
# GULP energy per Si atom -5569.797509 kJ/mol
# Density = 2.137497 g / cm^3
# Si number density = 21.423734 Si / 1000 Ang^3
#
#
#
# Elastic Constant Matrix: (Units=GPa)
#
#
# Indices 1 2 3 4 5 6 
#
# 1 119.2790 30.2370 21.6917 0.0000 0.0000 0.0000
# 2 30.2370 119.2792 21.6915 0.0000 0.0000 0.0000
# 3 21.6917 21.6915 48.2248 0.0000 0.0000 0.0000
# 4 0.0000 0.0000 0.0000 23.5065 0.0000 0.0000
# 5 0.0000 0.0000 0.0000 0.0000 23.5066 0.0000
# 6 0.0000 0.0000 0.0000 0.0000 0.0000 28.3235
#
#
#
# Elastic Compliance Matrix: (Units=1/GPa)
#
#
# Indices 1 2 3 4 5 6 
#
# 1 0.009461 -0.001769 -0.003460 0.000000 0.000000 0.000000
# 2 -0.001769 0.009461 -0.003460 0.000000 0.000000 0.000000
# 3 -0.003460 -0.003460 0.023849 0.000000 0.000000 0.000000
# 4 0.000000 0.000000 0.000000 0.042541 0.000000 0.000000
# 5 0.000000 0.000000 0.000000 0.000000 0.042541 0.000000
# 6 0.000000 0.000000 0.000000 0.000000 0.000000 0.035306
#
#
# Mechanical properties :
#
#
# Convention : Reuss Voigt Hill
#
# Bulk Modulus (GPa) = 39.38040 48.22482 43.80261
# Shear Modulus (GPa) = 26.45454 29.27816 27.86635
#
# Velocity S-wave (km/s) = 3.51782 3.70080 3.61047
# Velocity P-wave (km/s) = 5.90945 6.38906 6.15393
#
# Compressibility (1/GPa) = 0.02539334
#
# Stress axis : x y z
#
# Youngs Moduli (GPa) = 105.69230 105.69268 41.93081
#
# Poissons Ratio (x) = 0.18700 0.14508
# Poissons Ratio (y) = 0.18699 0.14508
# Poissons Ratio (z) = 0.36569 0.36569
#
# Static dielectric constant tensor:
#      x y z
#    x 1.861500 0.000000 0.000000 
#    y 0.000000 1.861500 0.000000 
#    z 0.000000 0.000000 1.796500 
# 
# From -- ./inp_files/5605.got.cif
#   From: 2010.05.17/outbox.cif.g08.bks.cpg/sg97_3_cif.got.tgz:5605.got - 2010.06.03 19:55:32.
