data_PCOD9551269
_publ_section_title
;
Structure prediction by ZEFSAII (Michael W. Deem and Ramdas Pophale) SiO2 
 PCOD9551269
Probable space group: I 4 2 2 
;
_chemical_formula_sum "Si O2"
_cell_formula_units_Z 96
_cell_length_a 16.929921
_cell_length_b 16.929921
_cell_length_c 18.965313
_cell_angle_alpha 90.000000
_cell_angle_beta 90.000000
_cell_angle_gamma 90.000000
_cell_volume 5435.880211
_symmetry_space_group_name_H-M "I 4 2 2 "
_symmetry_group_IT_number 97
_symmetry_cell_setting 'tetragonal'
loop_
_space_group_symop_operation_xyz
x,y,z
-y,x,z
-x,-y,z
y,-x,z
x,-y,-z
-x,y,-z
y,x,-z
-y,-x,-z
1/2+x,1/2+y,1/2+z
1/2-y,1/2+x,1/2+z
1/2-x,1/2-y,1/2+z
1/2+y,1/2-x,1/2+z
1/2+x,1/2-y,1/2-z
1/2-x,1/2+y,1/2-z
1/2+y,1/2+x,1/2-z
1/2-y,1/2-x,1/2-z
loop_
_atom_site_type_symbol
_atom_site_label
_atom_site_fract_x
_atom_site_fract_y
_atom_site_fract_z
Si Si1 0.511864 0.629675 0.270784
Si Si2 0.570009 0.061598 0.833224
Si Si3 0.128295 0.970857 0.602487
Si Si4 0.867720 0.264383 0.997649
Si Si5 0.764365 0.499676 0.615089
Si Si6 0.195816 0.431200 0.946900
O O1 0.431083 0.582558 0.286541
O O2 0.521750 0.643108 0.186958
O O3 0.509937 0.705632 0.319650
O O4 0.575807 0.075807 0.750000
O O5 0.561464 0.142955 0.876408
O O6 0.500000 0.000000 0.847086
O O7 0.648363 0.018687 0.859313
O O8 0.211083 0.944588 0.568676
O O9 0.057643 0.908609 0.585300
O O10 0.827044 0.347859 0.017296
O O11 0.933721 0.246100 0.056684
O O12 0.801885 0.198116 0.000000
O O13 0.915153 0.263645 0.923886
O O14 0.170477 0.500000 0.000000
#
# Coordination Sequence:
#
# PCOD9551269 Si02
#       6
#    16  16  16  16  16  16
#     4   9  17  32  57  84 109 141 180 223 278 338
#     4  10  21  38  58  80 106 142 188 231 274 324
#     4   9  20  37  56  82 111 141 182 229 280 336
#     4  10  22  35  51  80 112 145 186 223 271 334
#     4  10  19  35  56  77 111 147 178 229 278 324
#     4  11  23  36  57  80 109 147 184 227 276 328
#
# _framework density 17.660433999999999
#
# number of rings (size 3 to 8) (size 9 to 14) (size 15 to 20)
#    0.000    2.167    0.000    4.000    2.333    1.667 
#    0.000    0.833    0.000    4.000    0.000    0.000 
#    0.000    0.000    0.000    0.000    0.000    0.000 
#
# Total GULP energy -267766.405049 kJ/mol
# GULP energy per Si atom -5578.466772 kJ/mol
# Density = 1.762024 g / cm^3
# Si number density = 17.660434 Si / 1000 Ang^3
#
#
#
# Elastic Constant Matrix: (Units=GPa)
#
#
# Indices 1 2 3 4 5 6 
#
# 1 109.4022 77.3982 46.8384 0.0000 0.0000 0.0000
# 2 77.3982 109.4027 46.8405 0.0000 0.0000 0.0000
# 3 46.8384 46.8405 50.4270 0.0000 0.0000 0.0000
# 4 0.0000 0.0000 0.0000 31.4427 0.0000 0.0000
# 5 0.0000 0.0000 0.0000 0.0000 31.4419 0.0000
# 6 0.0000 0.0000 0.0000 0.0000 0.0000 -8.5338
#
#
#
# Elastic Compliance Matrix: (Units=1/GPa)
#
#
# Indices 1 2 3 4 5 6 
#
# 1 0.020633 -0.010612 -0.009307 0.000000 0.000000 0.000000
# 2 -0.010612 0.020634 -0.009310 0.000000 0.000000 0.000000
# 3 -0.009307 -0.009310 0.037123 0.000000 0.000000 0.000000
# 4 0.000000 0.000000 0.000000 0.031804 0.000000 0.000000
# 5 0.000000 0.000000 0.000000 0.000000 0.031805 0.000000
# 6 0.000000 0.000000 0.000000 0.000000 0.000000 -0.117182
#
#
# Mechanical properties :
#
#
# Convention : Reuss Voigt Hill
#
# Bulk Modulus (GPa) = 50.17032 67.93177 59.05104
# Shear Modulus (GPa) = 55.60527 17.41382 36.50955
#
# Velocity S-wave (km/s) = 5.61731 3.14353 4.55170
# Velocity P-wave (km/s) = 8.39894 7.19199 7.81879
#
# Compressibility (1/GPa) = 0.01993210
#
# Stress axis : x y z
#
# Youngs Moduli (GPa) = 48.46577 48.46332 26.93738
#
# Poissons Ratio (x) = 0.51430 0.25072
# Poissons Ratio (y) = 0.51433 0.25078
# Poissons Ratio (z) = 0.45109 0.45117
#
# Static dielectric constant tensor:
#      x y z
#    x 1.600610 0.000000 0.000000 
#    y 0.000000 1.600620 0.000000 
#    z 0.000000 0.000000 1.405040 
# 
# From -- ./inp_files/6603.got.cif
#   From: 2010.05.17/outbox.cif.g08.bks.cpg/sg97_4_cif.got.tgz:6603.got - 2010.06.03 19:55:32.
