data_PCOD9551848
_publ_section_title
;
Structure prediction by ZEFSAII (Michael W. Deem and Ramdas Pophale) SiO2 
 PCOD9551848
Probable space group: I 41 2 2
;
_chemical_formula_sum "Si O2"
_cell_formula_units_Z 80
_cell_length_a 16.701000
_cell_length_b 16.701000
_cell_length_c 13.778655
_cell_angle_alpha 90.000000
_cell_angle_beta 90.000000
_cell_angle_gamma 90.000000
_cell_volume 3843.189314
_symmetry_space_group_name_H-M "I 41 2 2"
_symmetry_group_IT_number 98
_symmetry_cell_setting 'tetragonal'
loop_
_space_group_symop_operation_xyz
x,y,z
-y,1/2+x,1/4+z
-x,-y,z
y,1/2-x,1/4+z
x,1/2-y,1/4-z
-x,1/2+y,1/4-z
y,x,-z
-y,-x,-z
1/2+x,1/2+y,1/2+z
1/2-y,x,3/4+z
1/2-x,1/2-y,1/2+z
1/2+y,-x,3/4+z
1/2+x,-y,3/4-z
1/2-x,y,3/4-z
1/2+y,1/2+x,1/2-z
1/2-y,1/2-x,1/2-z
loop_
_atom_site_type_symbol
_atom_site_label
_atom_site_fract_x
_atom_site_fract_y
_atom_site_fract_z
Si Si1 0.800326 0.496457 0.087591
Si Si2 0.543137 0.921990 0.526142
Si Si3 0.499479 0.385834 0.945123
Si Si4 0.660947 0.292907 0.219152
Si Si5 0.449545 0.767816 0.523468
O O1 0.708859 0.511067 0.055664
O O2 0.797790 0.491836 0.205279
O O3 0.863991 0.558789 0.044141
O O4 0.816725 0.409098 0.042836
O O5 0.511865 0.916234 0.414930
O O6 0.512475 0.835212 0.559100
O O7 0.500000 0.000000 0.571203
O O8 0.426845 0.426845 0.000000
O O9 0.578449 0.421552 0.000000
O O10 0.624060 0.250000 0.125000
O O11 0.730003 0.230003 0.250000
O O12 0.700817 0.379178 0.202080
O O13 0.405887 0.750000 0.625000
#
# Coordination Sequence:
#
# PCOD9551848 Si02
#       5
#    16  16  16  16  16
#     4  11  25  39  65  99 132 175 221 272 340 398
#     4  11  22  42  64  98 128 177 230 271 326 412
#     4  10  21  38  64  97 139 170 215 279 341 396
#     4  12  23  36  62  99 136 167 210 267 348 415
#     4  11  26  45  65  93 136 179 227 285 327 398
#
# _framework density 20.816044999999999
#
# number of rings (size 3 to 8) (size 9 to 14) (size 15 to 20)
#    0.000    1.000    6.000    1.200    5.600    0.800 
#    0.000    1.000    8.800    0.000    0.000    0.000 
#    0.000    0.000    0.000    0.000    0.000    0.000 
#
# Total GULP energy -222866.148958 kJ/mol
# GULP energy per Si atom -5571.653724 kJ/mol
# Density = 2.076867 g / cm^3
# Si number density = 20.816045 Si / 1000 Ang^3
#
#
#
# Elastic Constant Matrix: (Units=GPa)
#
#
# Indices 1 2 3 4 5 6 
#
# 1 77.1513 15.1326 5.2007 0.0000 0.0000 0.0000
# 2 15.1326 77.1508 5.2008 0.0000 0.0000 0.0000
# 3 5.2007 5.2008 79.3619 0.0000 0.0000 0.0000
# 4 0.0000 0.0000 0.0000 16.4316 0.0000 0.0000
# 5 0.0000 0.0000 0.0000 0.0000 16.4313 0.0000
# 6 0.0000 0.0000 0.0000 0.0000 0.0000 34.8227
#
#
#
# Elastic Compliance Matrix: (Units=1/GPa)
#
#
# Indices 1 2 3 4 5 6 
#
# 1 0.013520 -0.002604 -0.000715 0.000000 0.000000 0.000000
# 2 -0.002604 0.013521 -0.000715 0.000000 0.000000 0.000000
# 3 -0.000715 -0.000715 0.012694 0.000000 0.000000 0.000000
# 4 0.000000 0.000000 0.000000 0.060858 0.000000 0.000000
# 5 0.000000 0.000000 0.000000 0.000000 0.060860 0.000000
# 6 0.000000 0.000000 0.000000 0.000000 0.000000 0.028717
#
#
# Mechanical properties :
#
#
# Convention : Reuss Voigt Hill
#
# Bulk Modulus (GPa) = 31.57936 31.63690 31.60813
# Shear Modulus (GPa) = 23.94698 27.41245 25.67971
#
# Velocity S-wave (km/s) = 3.39545 3.63284 3.51615
# Velocity P-wave (km/s) = 5.52953 5.72957 5.63044
#
# Compressibility (1/GPa) = 0.03166626
#
# Stress axis : x y z
#
# Youngs Moduli (GPa) = 73.96197 73.96150 78.77571
#
# Poissons Ratio (x) = 0.19257 0.05636
# Poissons Ratio (y) = 0.19258 0.05636
# Poissons Ratio (z) = 0.05291 0.05291
#
# Static dielectric constant tensor:
#      x y z
#    x 1.831370 0.000000 0.000000 
#    y 0.000000 1.831370 0.000000 
#    z 0.000000 0.000000 1.908250 
# 
# From -- ./inp_files/6415.got.cif
#   From: 2010.05.17/outbox.cif.g08.bks.cpg/sg98_4_cif.got.tgz:6415.got - 2010.06.03 20:00:51.
