data_PCOD9551159
_publ_section_title
;
Structure prediction by ZEFSAII (Michael W. Deem and Ramdas Pophale) SiO2 
 PCOD9551159
Probable space group: P 43 21 2
;
_chemical_formula_sum "Si O2"
_cell_formula_units_Z 28
_cell_length_a 10.403942
_cell_length_b 10.403942
_cell_length_c 11.489624
_cell_angle_alpha 90.000000
_cell_angle_beta 90.000000
_cell_angle_gamma 90.000000
_cell_volume 1243.659986
_symmetry_space_group_name_H-M "P 43 21 2"
_symmetry_group_IT_number 96
_symmetry_cell_setting 'tetragonal'
loop_
_space_group_symop_operation_xyz
x,y,z
1/2-y,1/2+x,3/4+z
-x,-y,1/2+z
1/2+y,1/2-x,1/4+z
1/2+x,1/2-y,1/4-z
1/2-x,1/2+y,3/4-z
y,x,-z
-y,-x,1/2-z
loop_
_atom_site_type_symbol
_atom_site_label
_atom_site_fract_x
_atom_site_fract_y
_atom_site_fract_z
Si Si1 0.262708 0.573624 0.410296
Si Si2 0.253520 0.253520 0.000000
Si Si3 0.230185 0.967402 0.089026
Si Si4 0.817935 0.032695 0.062720
O O1 0.285541 0.484821 0.522081
O O2 0.147791 0.671264 0.435217
O O3 0.279264 0.002585 0.458737
O O4 0.399399 0.641338 0.376334
O O5 0.271679 0.364238 0.095053
O O6 0.268446 0.109350 0.047708
O O7 0.106990 0.925162 0.014264
#
# Coordination Sequence:
#
# PCOD9551159 Si02
#       4
#     8   4   8   8
#     4  11  28  48  81 112 157 202 266 325 388 476
#     4  12  28  50  82 112 162 206 256 326 404 472
#     4  12  27  54  78 118 157 206 264 325 396 472
#     4  11  28  49  78 114 155 213 255 320 402 473
#
# _framework density 22.514194
#
# number of rings (size 3 to 8) (size 9 to 14) (size 15 to 20)
#    0.000    0.571    2.857    2.571   20.000    2.286 
#    0.000    0.000    0.000    0.000    0.000    0.000 
#    0.000    0.000    0.000    0.000    0.000    0.000 
#
# Total GULP energy -156407.958620 kJ/mol
# GULP energy per Si atom -5585.998522 kJ/mol
# Density = 2.246295 g / cm^3
# Si number density = 22.514194 Si / 1000 Ang^3
#
#
#
# Elastic Constant Matrix: (Units=GPa)
#
#
# Indices 1 2 3 4 5 6 
#
# 1 126.3939 82.4390 54.0881 0.0000 0.0000 0.0000
# 2 82.4390 126.3939 54.0881 0.0000 0.0000 0.0000
# 3 54.0881 54.0881 122.5644 0.0000 0.0000 0.0000
# 4 0.0000 0.0000 0.0000 27.9657 0.0000 0.0000
# 5 0.0000 0.0000 0.0000 0.0000 27.9657 0.0000
# 6 0.0000 0.0000 0.0000 0.0000 0.0000 -29.0104
#
#
#
# Elastic Compliance Matrix: (Units=1/GPa)
#
#
# Indices 1 2 3 4 5 6 
#
# 1 0.014479 -0.008272 -0.002739 0.000000 0.000000 0.000000
# 2 -0.008272 0.014479 -0.002739 0.000000 0.000000 0.000000
# 3 -0.002739 -0.002739 0.010577 0.000000 0.000000 0.000000
# 4 0.000000 0.000000 0.000000 0.035758 0.000000 0.000000
# 5 0.000000 0.000000 0.000000 0.000000 0.035758 0.000000
# 6 0.000000 0.000000 0.000000 0.000000 0.000000 -0.034470
#
#
# Mechanical properties :
#
#
# Convention : Reuss Voigt Hill
#
# Bulk Modulus (GPa) = 83.09624 84.06476 83.58050
# Shear Modulus (GPa) = 46.25655 17.70000 31.97828
#
# Velocity S-wave (km/s) = 4.53763 2.80692 3.77286
# Velocity P-wave (km/s) = 8.02758 6.92276 7.49555
#
# Compressibility (1/GPa) = 0.01203424
#
# Stress axis : x y z
#
# Youngs Moduli (GPa) = 69.06518 69.06518 94.54648
#
# Poissons Ratio (x) = 0.57127 0.25900
# Poissons Ratio (y) = 0.57127 0.25900
# Poissons Ratio (z) = 0.18920 0.18920
#
# Static dielectric constant tensor:
#      x y z
#    x 1.981650 0.000000 0.000000 
#    y 0.000000 1.981650 0.000000 
#    z 0.000000 0.000000 1.870670 
# 
# From -- ./inp_files/1864.got.cif
#   From: 2010.05.17/outbox.cif.g08.bks.cpg/sg96_1_cif.got.tgz:1864.got - 2010.06.03 19:52:08.
