data_PCOD9551515
_publ_section_title
;
Structure prediction by ZEFSAII (Michael W. Deem and Ramdas Pophale) SiO2 
 PCOD9551515
Probable space group: I 4 2 2 
;
_chemical_formula_sum "Si O2"
_cell_formula_units_Z 48
_cell_length_a 9.851631
_cell_length_b 9.851631
_cell_length_c 26.886117
_cell_angle_alpha 90.000000
_cell_angle_beta 90.000000
_cell_angle_gamma 90.000000
_cell_volume 2609.422228
_symmetry_space_group_name_H-M "I 4 2 2 "
_symmetry_group_IT_number 97
_symmetry_cell_setting 'tetragonal'
loop_
_space_group_symop_operation_xyz
x,y,z
-y,x,z
-x,-y,z
y,-x,z
x,-y,-z
-x,y,-z
y,x,-z
-y,-x,-z
1/2+x,1/2+y,1/2+z
1/2-y,1/2+x,1/2+z
1/2-x,1/2-y,1/2+z
1/2+y,1/2-x,1/2+z
1/2+x,1/2-y,1/2-z
1/2-x,1/2+y,1/2-z
1/2+y,1/2+x,1/2-z
1/2-y,1/2-x,1/2-z
loop_
_atom_site_type_symbol
_atom_site_label
_atom_site_fract_x
_atom_site_fract_y
_atom_site_fract_z
Si Si1 0.840905 0.663455 0.153085
Si Si2 0.148188 0.176360 0.055173
Si Si3 0.866326 0.634911 0.807742
O O1 0.805749 0.722661 0.098579
O O2 0.830304 0.502961 0.162698
O O3 0.740188 0.744611 0.188527
O O4 0.997034 0.694661 0.167636
O O5 0.983838 0.182382 0.059331
O O6 0.205500 0.205500 0.000000
O O7 0.894317 0.605684 0.750000
#
# Coordination Sequence:
#
# PCOD9551515 Si02
#       3
#    16  16  16
#     4  11  21  38  58  85 119 157 195 247 298 350
#     4   9  17  33  59  87 112 144 198 252 291 339
#     4  11  23  38  58  85 121 159 202 242 294 360
#
# _framework density 18.394877000000001
#
# number of rings (size 3 to 8) (size 9 to 14) (size 15 to 20)
#    0.000    1.667    3.333    5.000    0.000    1.333 
#    0.000    5.000    0.000    0.000    0.000    2.333 
#    0.000    0.000    0.000    0.000    0.000    0.000 
#
# Total GULP energy -133684.477915 kJ/mol
# GULP energy per Si atom -5570.186580 kJ/mol
# Density = 1.835301 g / cm^3
# Si number density = 18.394877 Si / 1000 Ang^3
#
#
#
# Elastic Constant Matrix: (Units=GPa)
#
#
# Indices 1 2 3 4 5 6 
#
# 1 38.3852 63.7855 31.0137 0.0000 0.0000 0.0000
# 2 63.7855 38.3858 31.0143 0.0000 0.0000 0.0000
# 3 31.0137 31.0143 172.0567 0.0000 0.0000 0.0000
# 4 0.0000 0.0000 0.0000 21.5182 0.0000 0.0000
# 5 0.0000 0.0000 0.0000 0.0000 21.5183 0.0000
# 6 0.0000 0.0000 0.0000 0.0000 0.0000 35.5463
#
#
#
# Elastic Compliance Matrix: (Units=1/GPa)
#
#
# Indices 1 2 3 4 5 6 
#
# 1 -0.014190 0.025180 -0.001981 0.000000 0.000000 0.000000
# 2 0.025180 -0.014190 -0.001981 0.000000 0.000000 0.000000
# 3 -0.001981 -0.001981 0.006526 0.000000 0.000000 0.000000
# 4 0.000000 0.000000 0.000000 0.046472 0.000000 0.000000
# 5 0.000000 0.000000 0.000000 0.000000 0.046472 0.000000
# 6 0.000000 0.000000 0.000000 0.000000 0.000000 0.028132
#
#
# Mechanical properties :
#
#
# Convention : Reuss Voigt Hill
#
# Bulk Modulus (GPa) = 48.58502 55.60607 52.09554
# Shear Modulus (GPa) = 78.55773 23.91753 51.23763
#
# Velocity S-wave (km/s) = 6.54210 3.60978 5.28344
# Velocity P-wave (km/s) = 9.13975 6.90425 8.09950
#
# Compressibility (1/GPa) = 0.02058248
#
# Stress axis : x y z
#
# Youngs Moduli (GPa) = -70.47186 -70.47273 153.22811
#
# Poissons Ratio (x) = 1.77451 0.30356
# Poissons Ratio (y) = 1.77449 0.30354
# Poissons Ratio (z) = -0.13961 -0.13961
#
# Static dielectric constant tensor:
#      x y z
#    x 1.617750 0.000000 0.000000 
#    y 0.000000 1.617750 0.000000 
#    z 0.000000 0.000000 1.702850 
# 
# From -- ./inp_files/7812.got.cif
#   From: 2010.05.17/outbox.cif.g08.bks.cpg/sg97_4_cif.got.tgz:7812.got - 2010.06.03 19:55:32.
