data_PCOD9551946
_publ_section_title
;
Structure prediction by ZEFSAII (Michael W. Deem and Ramdas Pophale) SiO2 
 PCOD9551946
Probable space group: I 41 2 2
;
_chemical_formula_sum "Si O2"
_cell_formula_units_Z 48
_cell_length_a 11.224809
_cell_length_b 11.224809
_cell_length_c 16.388708
_cell_angle_alpha 90.000000
_cell_angle_beta 90.000000
_cell_angle_gamma 90.000000
_cell_volume 2064.917178
_symmetry_space_group_name_H-M "I 41 2 2"
_symmetry_group_IT_number 98
_symmetry_cell_setting 'tetragonal'
loop_
_space_group_symop_operation_xyz
x,y,z
-y,1/2+x,1/4+z
-x,-y,z
y,1/2-x,1/4+z
x,1/2-y,1/4-z
-x,1/2+y,1/4-z
y,x,-z
-y,-x,-z
1/2+x,1/2+y,1/2+z
1/2-y,x,3/4+z
1/2-x,1/2-y,1/2+z
1/2+y,-x,3/4+z
1/2+x,-y,3/4-z
1/2-x,y,3/4-z
1/2+y,1/2+x,1/2-z
1/2-y,1/2-x,1/2-z
loop_
_atom_site_type_symbol
_atom_site_label
_atom_site_fract_x
_atom_site_fract_y
_atom_site_fract_z
Si Si1 0.117348 0.155232 0.408385
Si Si2 0.367684 0.968733 0.602595
Si Si3 0.156348 0.631198 0.572062
O O1 0.108625 0.108625 0.500000
O O2 0.250000 0.131302 0.375000
O O3 0.092952 0.297060 0.410135
O O4 0.997984 0.117986 0.359333
O O5 0.297509 0.889588 0.668164
O O6 0.357271 0.898227 0.516973
O O7 0.500000 0.000000 0.624622
O O8 0.127255 0.750000 0.625000
#
# Coordination Sequence:
#
# PCOD9551946 Si02
#       3
#    16  16  16
#     4  10  23  44  74 106 147 190 253 307 375 435
#     4  10  23  42  72  97 152 190 251 303 372 448
#     4  10  23  43  67 106 148 193 247 305 377 449
#
# _framework density 23.245486
#
# number of rings (size 3 to 8) (size 9 to 14) (size 15 to 20)
#    2.000    0.000    0.000    3.000    0.000    5.333 
#    0.000    3.333    0.000    0.000    0.000    0.000 
#    0.000    0.000    0.000    0.000    0.000    0.000 
#
# Total GULP energy -133760.481142 kJ/mol
# GULP energy per Si atom -5573.353381 kJ/mol
# Density = 2.319258 g / cm^3
# Si number density = 23.245486 Si / 1000 Ang^3
#
#
#
# Elastic Constant Matrix: (Units=GPa)
#
#
# Indices 1 2 3 4 5 6 
#
# 1 189.9749 37.1830 48.1322 0.0000 0.0000 0.0000
# 2 37.1830 189.9749 48.1322 0.0000 0.0000 0.0000
# 3 48.1322 48.1322 104.2237 0.0000 0.0000 0.0000
# 4 0.0000 0.0000 0.0000 26.5938 0.0000 0.0000
# 5 0.0000 0.0000 0.0000 0.0000 26.5938 0.0000
# 6 0.0000 0.0000 0.0000 0.0000 0.0000 26.2980
#
#
#
# Elastic Compliance Matrix: (Units=1/GPa)
#
#
# Indices 1 2 3 4 5 6 
#
# 1 0.006009 -0.000536 -0.002528 0.000000 0.000000 0.000000
# 2 -0.000536 0.006009 -0.002528 0.000000 0.000000 0.000000
# 3 -0.002528 -0.002528 0.011929 0.000000 0.000000 0.000000
# 4 0.000000 0.000000 0.000000 0.037603 0.000000 0.000000
# 5 0.000000 0.000000 0.000000 0.000000 0.037603 0.000000
# 6 0.000000 0.000000 0.000000 0.000000 0.000000 0.038026
#
#
# Mechanical properties :
#
#
# Convention : Reuss Voigt Hill
#
# Bulk Modulus (GPa) = 78.33674 83.45204 80.89439
# Shear Modulus (GPa) = 32.76189 39.27885 36.02037
#
# Velocity S-wave (km/s) = 3.75825 4.11511 3.94072
# Velocity P-wave (km/s) = 7.25297 7.65226 7.45529
#
# Compressibility (1/GPa) = 0.01276540
#
# Stress axis : x y z
#
# Youngs Moduli (GPa) = 166.41343 166.41343 83.82639
#
# Poissons Ratio (x) = 0.08915 0.21189
# Poissons Ratio (y) = 0.08915 0.21189
# Poissons Ratio (z) = 0.42064 0.42064
#
# Static dielectric constant tensor:
#      x y z
#    x 1.921740 0.000000 0.000000 
#    y 0.000000 1.921740 0.000000 
#    z 0.000000 0.000000 1.825140 
# 
# From -- ./inp_files/7204.got.cif
#   From: 2010.05.17/outbox.cif.g08.bks.cpg/sg98_4_cif.got.tgz:7204.got - 2010.06.03 20:00:51.
