data_PCOD9551102
_publ_section_title
;
Structure prediction by ZEFSAII (Michael W. Deem and Ramdas Pophale) SiO2 
 PCOD9551102
Probable space group: P 43 21 2
;
_chemical_formula_sum "Si O2"
_cell_formula_units_Z 48
_cell_length_a 16.025770
_cell_length_b 16.025770
_cell_length_c 7.899058
_cell_angle_alpha 90.000000
_cell_angle_beta 90.000000
_cell_angle_gamma 90.000000
_cell_volume 2028.677973
_symmetry_space_group_name_H-M "P 43 21 2"
_symmetry_group_IT_number 96
_symmetry_cell_setting 'tetragonal'
loop_
_space_group_symop_operation_xyz
x,y,z
1/2-y,1/2+x,3/4+z
-x,-y,1/2+z
1/2+y,1/2-x,1/4+z
1/2+x,1/2-y,1/4-z
1/2-x,1/2+y,3/4-z
y,x,-z
-y,-x,1/2-z
loop_
_atom_site_type_symbol
_atom_site_label
_atom_site_fract_x
_atom_site_fract_y
_atom_site_fract_z
Si Si1 0.038139 0.833983 0.194555
Si Si2 0.114615 0.323591 0.190600
Si Si3 0.917324 0.306457 0.136488
Si Si4 0.038672 0.848698 0.809340
Si Si5 0.860656 0.858679 0.687169
Si Si6 0.804532 0.666277 0.043313
O O1 0.076926 0.923075 0.250000
O O2 0.092002 0.762712 0.281247
O O3 0.940170 0.819732 0.231293
O O4 0.059833 0.826842 0.998348
O O5 0.166916 0.237184 0.159630
O O6 0.164529 0.355177 0.735042
O O7 0.017953 0.318976 0.128530
O O8 0.153283 0.390142 0.063556
O O9 0.913535 0.207572 0.172529
O O10 0.842507 0.371138 0.640276
O O11 0.058994 0.941007 0.750000
O O12 0.940486 0.839025 0.800295
O O13 0.887162 0.887162 0.500000
O O14 0.751573 0.751573 0.000000
#
# Coordination Sequence:
#
# PCOD9551102 Si02
#       6
#     8   8   8   8   8   8
#     4  11  21  40  67 103 151 194 235 287 361 445
#     4  11  27  50  73 106 143 190 250 310 366 435
#     4  11  26  49  73 106 141 193 248 310 367 431
#     4  11  21  39  68 100 148 190 236 286 364 447
#     4  11  24  40  64 105 143 182 238 294 359 436
#     4  11  25  46  76 109 149 196 238 296 377 440
#
# _framework density 23.660729
#
# number of rings (size 3 to 8) (size 9 to 14) (size 15 to 20)
#    0.000    1.000    1.667    6.000    2.333    4.000 
#    3.000    0.000    0.000    0.000    0.000    0.000 
#    0.000    0.000    0.000    0.000    0.000    0.000 
#
# Total GULP energy -267548.242149 kJ/mol
# GULP energy per Si atom -5573.921711 kJ/mol
# Density = 2.360688 g / cm^3
# Si number density = 23.660729 Si / 1000 Ang^3
#
#
#
# Elastic Constant Matrix: (Units=GPa)
#
#
# Indices 1 2 3 4 5 6 
#
# 1 32.3055 52.0231 16.4368 0.0000 0.0000 0.0000
# 2 52.0231 32.2961 16.4324 0.0000 0.0000 0.0000
# 3 16.4368 16.4324 151.5623 0.0000 0.0000 0.0000
# 4 0.0000 0.0000 0.0000 25.0600 0.0000 0.0000
# 5 0.0000 0.0000 0.0000 0.0000 25.0605 0.0000
# 6 0.0000 0.0000 0.0000 0.0000 0.0000 23.8858
#
#
#
# Elastic Compliance Matrix: (Units=1/GPa)
#
#
# Indices 1 2 3 4 5 6 
#
# 1 -0.019158 0.031543 -0.001342 0.000000 0.000000 0.000000
# 2 0.031543 -0.019163 -0.001343 0.000000 0.000000 0.000000
# 3 -0.001342 -0.001343 0.006889 0.000000 0.000000 0.000000
# 4 0.000000 0.000000 0.000000 0.039904 0.000000 0.000000
# 5 0.000000 0.000000 0.000000 0.000000 0.039903 0.000000
# 6 0.000000 0.000000 0.000000 0.000000 0.000000 0.041866
#
#
# Mechanical properties :
#
#
# Convention : Reuss Voigt Hill
#
# Bulk Modulus (GPa) = 38.04710 42.88316 40.46513
# Shear Modulus (GPa) = 121.10486 23.55272 72.32879
#
# Velocity S-wave (km/s) = 7.16205 3.15847 5.53493
# Velocity P-wave (km/s) = 9.19285 5.60935 7.61490
#
# Compressibility (1/GPa) = 0.02628322
#
# Stress axis : x y z
#
# Youngs Moduli (GPa) = -52.19730 -52.18277 145.15616
#
# Poissons Ratio (x) = 1.64601 0.19483
# Poissons Ratio (y) = 1.64647 0.19496
# Poissons Ratio (z) = -0.07006 -0.07009
#
# Static dielectric constant tensor:
#      x y z
#    x 1.988560 0.000000 0.000000 
#    y 0.000000 1.988560 0.000000 
#    z 0.000000 0.000000 2.014510 
# 
# From -- ./inp_files/1504.got.cif
#   From: 2010.05.17/outbox.cif.g08.bks.cpg/sg96_1_cif.got.tgz:1504.got - 2010.06.03 19:52:08.
