data_PCOD9551956
_publ_section_title
;
Structure prediction by ZEFSAII (Michael W. Deem and Ramdas Pophale) SiO2 
 PCOD9551956
Probable space group: I 41 2 2
;
_chemical_formula_sum "Si O2"
_cell_formula_units_Z 80
_cell_length_a 10.850591
_cell_length_b 10.850591
_cell_length_c 28.862463
_cell_angle_alpha 90.000000
_cell_angle_beta 90.000000
_cell_angle_gamma 90.000000
_cell_volume 3398.131463
_symmetry_space_group_name_H-M "I 41 2 2"
_symmetry_group_IT_number 98
_symmetry_cell_setting 'tetragonal'
loop_
_space_group_symop_operation_xyz
x,y,z
-y,1/2+x,1/4+z
-x,-y,z
y,1/2-x,1/4+z
x,1/2-y,1/4-z
-x,1/2+y,1/4-z
y,x,-z
-y,-x,-z
1/2+x,1/2+y,1/2+z
1/2-y,x,3/4+z
1/2-x,1/2-y,1/2+z
1/2+y,-x,3/4+z
1/2+x,-y,3/4-z
1/2-x,y,3/4-z
1/2+y,1/2+x,1/2-z
1/2-y,1/2-x,1/2-z
loop_
_atom_site_type_symbol
_atom_site_label
_atom_site_fract_x
_atom_site_fract_y
_atom_site_fract_z
Si Si1 0.736283 0.732323 0.824866
Si Si2 0.497332 0.645534 0.660416
Si Si3 0.986418 0.645995 0.801685
Si Si4 0.143843 0.978209 0.656924
Si Si5 0.848762 0.162351 0.748572
O O1 0.750000 0.669370 0.875000
O O2 0.791078 0.869528 0.830115
O O3 0.841248 0.667394 0.796632
O O4 0.591691 0.714293 0.816773
O O5 0.500000 0.500000 0.643126
O O6 0.439287 0.750000 0.625000
O O7 0.438541 0.636494 0.711450
O O8 0.030381 0.691543 0.853880
O O9 0.000000 0.500000 0.798731
O O10 0.060024 0.730617 0.766006
O O11 0.137513 0.871345 0.694972
O O12 0.000000 0.000000 0.649673
O O13 0.710511 0.210511 0.750000
#
# Coordination Sequence:
#
# PCOD9551956 Si02
#       5
#    16  16  16  16  16
#     4   9  20  43  75 102 138 193 244 298 386 464
#     4  11  24  46  75 106 150 206 254 319 398 480
#     4  10  23  46  73 103 147 193 245 313 390 459
#     4  10  24  46  73 107 143 196 253 310 386 469
#     4  12  28  43  67 110 145 188 253 321 390 463
#
# _framework density 23.542348
#
# number of rings (size 3 to 8) (size 9 to 14) (size 15 to 20)
#    0.000    1.600    2.000    0.600    5.600    1.200 
#    0.000    1.000    0.000    0.000    0.000    0.000 
#    0.000    0.000    0.000    0.000    0.000    0.000 
#
# Total GULP energy -222790.293184 kJ/mol
# GULP energy per Si atom -5569.757330 kJ/mol
# Density = 2.348876 g / cm^3
# Si number density = 23.542348 Si / 1000 Ang^3
#
#
#
# Elastic Constant Matrix: (Units=GPa)
#
#
# Indices 1 2 3 4 5 6 
#
# 1 93.0017 38.8674 36.3284 0.0000 0.0000 0.0000
# 2 38.8674 93.0017 36.3284 0.0000 0.0000 0.0000
# 3 36.3284 36.3284 171.3906 0.0000 0.0000 0.0000
# 4 0.0000 0.0000 0.0000 -940.5291 0.0000 0.0000
# 5 0.0000 0.0000 0.0000 0.0000 -940.5290 0.0000
# 6 0.0000 0.0000 0.0000 0.0000 0.0000 34.9134
#
#
#
# Elastic Compliance Matrix: (Units=1/GPa)
#
#
# Indices 1 2 3 4 5 6 
#
# 1 0.013529 -0.004943 -0.001820 0.000000 0.000000 0.000000
# 2 -0.004943 0.013529 -0.001820 0.000000 0.000000 0.000000
# 3 -0.001820 -0.001820 0.006606 0.000000 0.000000 0.000000
# 4 0.000000 0.000000 0.000000 -0.001063 0.000000 0.000000
# 5 0.000000 0.000000 0.000000 0.000000 -0.001063 0.000000
# 6 0.000000 0.000000 0.000000 0.000000 0.000000 0.028642
#
#
# Mechanical properties :
#
#
# Convention : Reuss Voigt Hill
#
# Bulk Modulus (GPa) = 60.61159 64.49360 62.55259
# Shear Modulus (GPa) = 60.35273 -352.83763 -146.24245
#
# Velocity S-wave (km/s) = 5.06868 -12.25557 -7.89010
# Velocity P-wave (km/s) = 7.74964 13.14576 7.50847
#
# Compressibility (1/GPa) = 0.01649850
#
# Stress axis : x y z
#
# Youngs Moduli (GPa) = 73.91370 73.91370 151.37455
#
# Poissons Ratio (x) = 0.36538 0.27549
# Poissons Ratio (y) = 0.36538 0.27549
# Poissons Ratio (z) = 0.13452 0.13452
#
# Static dielectric constant tensor:
#      x y z
#    x 1.995530 0.000000 0.000000 
#    y 0.000000 1.995530 0.000000 
#    z 0.000000 0.000000 2.149490 
# 
# From -- ./inp_files/11799.got.cif
#   From: 2010.05.17/outbox.cif.g08.bks.cpg/sg98_6_cif.got.tgz:11799.got - 2010.06.03 20:00:51.
