data_PCOD9551798
_publ_section_title
;
Structure prediction by ZEFSAII (Michael W. Deem and Ramdas Pophale) SiO2 
 PCOD9551798
Probable space group: I 41 2 2
;
_chemical_formula_sum "Si O2"
_cell_formula_units_Z 48
_cell_length_a 8.224140
_cell_length_b 8.224140
_cell_length_c 30.982049
_cell_angle_alpha 90.000000
_cell_angle_beta 90.000000
_cell_angle_gamma 90.000000
_cell_volume 2095.516698
_symmetry_space_group_name_H-M "I 41 2 2"
_symmetry_group_IT_number 98
_symmetry_cell_setting 'tetragonal'
loop_
_space_group_symop_operation_xyz
x,y,z
-y,1/2+x,1/4+z
-x,-y,z
y,1/2-x,1/4+z
x,1/2-y,1/4-z
-x,1/2+y,1/4-z
y,x,-z
-y,-x,-z
1/2+x,1/2+y,1/2+z
1/2-y,x,3/4+z
1/2-x,1/2-y,1/2+z
1/2+y,-x,3/4+z
1/2+x,-y,3/4-z
1/2-x,y,3/4-z
1/2+y,1/2+x,1/2-z
1/2-y,1/2-x,1/2-z
loop_
_atom_site_type_symbol
_atom_site_label
_atom_site_fract_x
_atom_site_fract_y
_atom_site_fract_z
Si Si1 0.270123 0.413569 0.786693
Si Si2 0.825795 0.465144 0.172459
Si Si3 0.227869 0.772132 0.000000
Si Si4 0.575690 0.250000 0.125000
O O1 0.157240 0.342761 0.750000
O O2 0.396435 0.272164 0.800926
O O3 0.313066 0.587542 0.764280
O O4 0.203961 0.470555 0.833291
O O5 0.869562 0.327642 0.208005
O O6 0.693872 0.395243 0.139495
O O7 0.000000 0.500000 0.151453
#
# Coordination Sequence:
#
# PCOD9551798 Si02
#       4
#    16  16   8   8
#     4  11  24  43  71 104 142 188 242 305 372 445
#     4  11  24  44  69 101 144 192 247 303 363 441
#     4  10  20  38  66 100 138 184 238 298 366 432
#     4  10  24  44  68 104 142 186 242 298 364 436
#
# _framework density 22.906044999999999
#
# number of rings (size 3 to 8) (size 9 to 14) (size 15 to 20)
#    0.000    1.333    0.000    7.000    0.000   12.000 
#    0.000   13.333    0.000    0.000    0.000    0.000 
#    0.000    0.000    0.000    0.000    0.000    0.000 
#
# Total GULP energy -133789.630409 kJ/mol
# GULP energy per Si atom -5574.567934 kJ/mol
# Density = 2.285391 g / cm^3
# Si number density = 22.906045 Si / 1000 Ang^3
#
#
#
# Elastic Constant Matrix: (Units=GPa)
#
#
# Indices 1 2 3 4 5 6 
#
# 1 86.6617 55.7452 54.3892 0.0000 0.0000 0.0000
# 2 55.7452 86.6629 54.3884 0.0000 0.0000 0.0000
# 3 54.3892 54.3884 173.4874 0.0000 0.0000 0.0000
# 4 0.0000 0.0000 0.0000 19.4725 0.0000 0.0000
# 5 0.0000 0.0000 0.0000 0.0000 19.4750 0.0000
# 6 0.0000 0.0000 0.0000 0.0000 0.0000 34.5819
#
#
#
# Elastic Compliance Matrix: (Units=1/GPa)
#
#
# Indices 1 2 3 4 5 6 
#
# 1 0.020789 -0.011556 -0.002895 0.000000 0.000000 0.000000
# 2 -0.011556 0.020789 -0.002894 0.000000 0.000000 0.000000
# 3 -0.002895 -0.002894 0.007579 0.000000 0.000000 0.000000
# 4 0.000000 0.000000 0.000000 0.051354 0.000000 0.000000
# 5 0.000000 0.000000 0.000000 0.000000 0.051348 0.000000
# 6 0.000000 0.000000 0.000000 0.000000 0.000000 0.028917
#
#
# Mechanical properties :
#
#
# Convention : Reuss Voigt Hill
#
# Bulk Modulus (GPa) = 69.12342 75.09529 72.10935
# Shear Modulus (GPa) = 22.69755 26.85849 24.77802
#
# Velocity S-wave (km/s) = 3.15127 3.42797 3.29253
# Velocity P-wave (km/s) = 6.59417 6.96586 6.78256
#
# Compressibility (1/GPa) = 0.01446688
#
# Stress axis : x y z
#
# Youngs Moduli (GPa) = 48.10210 48.10330 131.94264
#
# Poissons Ratio (x) = 0.55587 0.38194
# Poissons Ratio (y) = 0.55585 0.38190
# Poissons Ratio (z) = 0.13924 0.13923
#
# Static dielectric constant tensor:
#      x y z
#    x 1.959430 0.000000 0.000000 
#    y 0.000000 1.959440 0.000000 
#    z 0.000000 0.000000 1.811250 
# 
# From -- ./inp_files/11491.got.cif
#   From: 2010.05.17/outbox.cif.g08.bks.cpg/sg98_6_cif.got.tgz:11491.got - 2010.06.03 20:00:51.
