data_PCOD9551132
_publ_section_title
;
Structure prediction by ZEFSAII (Michael W. Deem and Ramdas Pophale) SiO2 
 PCOD9551132
Probable space group: P 43 21 2
;
_chemical_formula_sum "Si O2"
_cell_formula_units_Z 48
_cell_length_a 10.089923
_cell_length_b 10.089923
_cell_length_c 17.490929
_cell_angle_alpha 90.000000
_cell_angle_beta 90.000000
_cell_angle_gamma 90.000000
_cell_volume 1780.691070
_symmetry_space_group_name_H-M "P 43 21 2"
_symmetry_group_IT_number 96
_symmetry_cell_setting 'tetragonal'
loop_
_space_group_symop_operation_xyz
x,y,z
1/2-y,1/2+x,3/4+z
-x,-y,1/2+z
1/2+y,1/2-x,1/4+z
1/2+x,1/2-y,1/4-z
1/2-x,1/2+y,3/4-z
y,x,-z
-y,-x,1/2-z
loop_
_atom_site_type_symbol
_atom_site_label
_atom_site_fract_x
_atom_site_fract_y
_atom_site_fract_z
Si Si1 0.051547 0.459083 0.429206
Si Si2 0.822685 0.974549 0.134561
Si Si3 0.335960 0.664041 0.750000
Si Si4 0.732332 0.929062 0.637214
Si Si5 0.370564 0.301968 0.223521
Si Si6 0.761775 0.472566 0.814669
Si Si7 0.955038 0.044963 0.750000
O O1 0.009583 0.334942 0.373679
O O2 0.972145 0.593142 0.407237
O O3 0.061550 0.388779 0.511854
O O4 0.196308 0.494356 0.400014
O O5 0.888203 0.106934 0.100663
O O6 0.897477 0.949507 0.212665
O O7 0.866637 0.855020 0.077245
O O8 0.303342 0.707057 0.835591
O O9 0.489152 0.692148 0.763747
O O10 0.674075 0.843665 0.707634
O O11 0.841827 0.029594 0.679694
O O12 0.279168 0.389155 0.277129
#
# Coordination Sequence:
#
# PCOD9551132 Si02
#       7
#     8   8   4   8   8   8   4
#     4  11  28  48  75 121 161 216 283 350 431 513
#     4  11  25  50  82 116 166 221 287 353 430 519
#     4  12  26  55  75 120 172 220 286 355 428 515
#     4  12  30  46  86 124 177 219 290 359 438 523
#     4  11  23  49  77 117 158 225 276 346 433 510
#     4  11  25  49  77 116 161 220 281 357 423 517
#     4  12  26  53  87 136 170 234 282 367 446 527
#
# _framework density 26.955829000000001
#
# number of rings (size 3 to 8) (size 9 to 14) (size 15 to 20)
#    0.000    0.667    3.333    2.500    9.333    4.667 
#    3.000    0.000    0.000    0.000    0.000    0.000 
#    0.000    0.000    0.000    0.000    0.000    0.000 
#
# Total GULP energy -267379.970496 kJ/mol
# GULP energy per Si atom -5570.416052 kJ/mol
# Density = 2.689448 g / cm^3
# Si number density = 26.955829 Si / 1000 Ang^3
#
#
#
# Elastic Constant Matrix: (Units=GPa)
#
#
# Indices 1 2 3 4 5 6 
#
# 1 119.8097 31.6378 23.8278 0.0000 0.0000 0.0000
# 2 31.6378 119.8093 23.8270 0.0000 0.0000 0.0000
# 3 23.8278 23.8270 119.6219 0.0000 0.0000 0.0000
# 4 0.0000 0.0000 0.0000 323.2001 0.0000 0.0000
# 5 0.0000 0.0000 0.0000 0.0000 323.0212 0.0000
# 6 0.0000 0.0000 0.0000 0.0000 0.0000 -53.7928
#
#
#
# Elastic Compliance Matrix: (Units=1/GPa)
#
#
# Indices 1 2 3 4 5 6 
#
# 1 0.009193 -0.002149 -0.001403 0.000000 0.000000 0.000000
# 2 -0.002149 0.009193 -0.001403 0.000000 0.000000 0.000000
# 3 -0.001403 -0.001403 0.008919 0.000000 0.000000 0.000000
# 4 0.000000 0.000000 0.000000 0.003094 0.000000 0.000000
# 5 0.000000 0.000000 0.000000 0.000000 0.003096 0.000000
# 6 0.000000 0.000000 0.000000 0.000000 0.000000 -0.018590
#
#
# Mechanical properties :
#
#
# Convention : Reuss Voigt Hill
#
# Bulk Modulus (GPa) = 57.48813 57.53625 57.51219
# Shear Modulus (GPa) = 163.33080 137.14892 150.23986
#
# Velocity S-wave (km/s) = 7.79253 7.14070 7.47373
# Velocity P-wave (km/s) = 10.11622 9.45395 9.79068
#
# Compressibility (1/GPa) = 0.01739490
#
# Stress axis : x y z
#
# Youngs Moduli (GPa) = 108.77846 108.77844 112.12434
#
# Poissons Ratio (x) = 0.23371 0.15734
# Poissons Ratio (y) = 0.23371 0.15733
# Poissons Ratio (z) = 0.15264 0.15263
#
# Static dielectric constant tensor:
#      x y z
#    x -0.859740 0.000000 0.000000 
#    y 0.000000 -0.857600 0.000000 
#    z 0.000000 0.000000 1.186670 
# 
# From -- ./inp_files/3525.got.cif
#   From: 2010.05.17/outbox.cif.g08.bks.cpg/sg96_2_cif.got.tgz:3525.got - 2010.06.03 19:52:08.
