data_PCOD9551875
_publ_section_title
;
Structure prediction by ZEFSAII (Michael W. Deem and Ramdas Pophale) SiO2 
 PCOD9551875
Probable space group: I 41 2 2
;
_chemical_formula_sum "Si O2"
_cell_formula_units_Z 112
_cell_length_a 13.105363
_cell_length_b 13.105363
_cell_length_c 25.567806
_cell_angle_alpha 90.000000
_cell_angle_beta 90.000000
_cell_angle_gamma 90.000000
_cell_volume 4391.284471
_symmetry_space_group_name_H-M "I 41 2 2"
_symmetry_group_IT_number 98
_symmetry_cell_setting 'tetragonal'
loop_
_space_group_symop_operation_xyz
x,y,z
-y,1/2+x,1/4+z
-x,-y,z
y,1/2-x,1/4+z
x,1/2-y,1/4-z
-x,1/2+y,1/4-z
y,x,-z
-y,-x,-z
1/2+x,1/2+y,1/2+z
1/2-y,x,3/4+z
1/2-x,1/2-y,1/2+z
1/2+y,-x,3/4+z
1/2+x,-y,3/4-z
1/2-x,y,3/4-z
1/2+y,1/2+x,1/2-z
1/2-y,1/2-x,1/2-z
loop_
_atom_site_type_symbol
_atom_site_label
_atom_site_fract_x
_atom_site_fract_y
_atom_site_fract_z
Si Si1 0.103033 0.740392 0.499107
Si Si2 0.167018 0.219753 0.440633
Si Si3 0.995764 0.645400 0.657636
Si Si4 0.884162 0.719122 0.300176
Si Si5 0.938309 0.353743 0.927598
Si Si6 0.074366 0.370655 0.110854
Si Si7 0.129054 0.663030 0.386040
O O1 0.218429 0.781572 0.500000
O O2 0.071492 0.923079 0.627641
O O3 0.096926 0.633964 0.528975
O O4 0.088866 0.720835 0.438056
O O5 0.183347 0.183347 0.500000
O O6 0.284419 0.232224 0.423950
O O7 0.123220 0.334676 0.432861
O O8 0.113371 0.122457 0.414505
O O9 0.994706 0.750000 0.625000
O O10 0.041402 0.677531 0.714925
O O11 0.841944 0.658057 0.250000
O O12 0.921787 0.631202 0.339629
O O13 0.957503 0.816408 0.294917
O O14 0.900025 0.242700 0.909214
O O15 0.067670 0.250000 0.125000
O O16 0.956144 0.401790 0.105522
O O17 0.250000 0.657322 0.375000
#
# Coordination Sequence:
#
# PCOD9551875 Si02
#       7
#    16  16  16  16  16  16  16
#     4  11  21  38  65  97 140 189 243 309 379 454
#     4  10  22  44  73  97 136 192 249 312 379 451
#     4  10  21  43  67  94 137 188 246 306 378 444
#     4  10  23  41  67 105 143 190 249 303 387 472
#     4  11  23  38  68 102 142 193 237 314 377 461
#     4   9  21  40  64  94 136 190 236 305 374 462
#     4  11  21  38  65  98 142 192 245 307 390 462
#
# _framework density 25.505067
#
# number of rings (size 3 to 8) (size 9 to 14) (size 15 to 20)
#    0.000    1.714    2.857    1.714    8.000    1.714 
#    0.000    7.143    3.143    0.000    0.000    0.000 
#    0.000    0.000    0.000    0.000    0.000    0.000 
#
# Total GULP energy -312112.519643 kJ/mol
# GULP energy per Si atom -5573.437851 kJ/mol
# Density = 2.544702 g / cm^3
# Si number density = 25.505067 Si / 1000 Ang^3
#
#
#
# Elastic Constant Matrix: (Units=GPa)
#
#
# Indices 1 2 3 4 5 6 
#
# 1 118.6013 32.4390 18.2142 0.0000 0.0000 0.0000
# 2 32.4390 118.6050 18.2147 0.0000 0.0000 0.0000
# 3 18.2142 18.2147 108.2579 0.0000 0.0000 0.0000
# 4 0.0000 0.0000 0.0000 3.0974 0.0000 0.0000
# 5 0.0000 0.0000 0.0000 0.0000 3.0978 0.0000
# 6 0.0000 0.0000 0.0000 0.0000 0.0000 30.1411
#
#
#
# Elastic Compliance Matrix: (Units=1/GPa)
#
#
# Indices 1 2 3 4 5 6 
#
# 1 0.009253 -0.002353 -0.001161 0.000000 0.000000 0.000000
# 2 -0.002353 0.009253 -0.001161 0.000000 0.000000 0.000000
# 3 -0.001161 -0.001161 0.009628 0.000000 0.000000 0.000000
# 4 0.000000 0.000000 0.000000 0.322849 0.000000 0.000000
# 5 0.000000 0.000000 0.000000 0.000000 0.322813 0.000000
# 6 0.000000 0.000000 0.000000 0.000000 0.000000 0.033177
#
#
# Mechanical properties :
#
#
# Convention : Reuss Voigt Hill
#
# Bulk Modulus (GPa) = 53.23367 53.68888 53.46127
# Shear Modulus (GPa) = 6.91961 25.70700 16.31330
#
# Velocity S-wave (km/s) = 1.64892 3.17822 2.53180
# Velocity P-wave (km/s) = 4.95402 5.87912 5.43628
#
# Compressibility (1/GPa) = 0.01878510
#
# Stress axis : x y z
#
# Youngs Moduli (GPa) = 108.06874 108.07204 103.86483
#
# Poissons Ratio (x) = 0.25424 0.12059
# Poissons Ratio (y) = 0.25424 0.12059
# Poissons Ratio (z) = 0.12547 0.12548
#
# Static dielectric constant tensor:
#      x y z
#    x 2.078350 0.000000 0.000000 
#    y 0.000000 2.078350 0.000000 
#    z 0.000000 0.000000 2.111330 
# 
# From -- ./inp_files/12099.got.cif
#   From: 2010.05.17/outbox.cif.g08.bks.cpg/sg98_7_cif.got.tgz:12099.got - 2010.06.03 20:00:51.
