data_PCOD9551356
_publ_section_title
;
Structure prediction by ZEFSAII (Michael W. Deem and Ramdas Pophale) SiO2 
 PCOD9551356
Probable space group: I 4 2 2 
;
_chemical_formula_sum "Si O2"
_cell_formula_units_Z 48
_cell_length_a 12.827768
_cell_length_b 12.827768
_cell_length_c 13.630178
_cell_angle_alpha 90.000000
_cell_angle_beta 90.000000
_cell_angle_gamma 90.000000
_cell_volume 2242.868032
_symmetry_space_group_name_H-M "I 4 2 2 "
_symmetry_group_IT_number 97
_symmetry_cell_setting 'tetragonal'
loop_
_space_group_symop_operation_xyz
x,y,z
-y,x,z
-x,-y,z
y,-x,z
x,-y,-z
-x,y,-z
y,x,-z
-y,-x,-z
1/2+x,1/2+y,1/2+z
1/2-y,1/2+x,1/2+z
1/2-x,1/2-y,1/2+z
1/2+y,1/2-x,1/2+z
1/2+x,1/2-y,1/2-z
1/2-x,1/2+y,1/2-z
1/2+y,1/2+x,1/2-z
1/2-y,1/2-x,1/2-z
loop_
_atom_site_type_symbol
_atom_site_label
_atom_site_fract_x
_atom_site_fract_y
_atom_site_fract_z
Si Si1 0.673185 0.292646 0.110201
Si Si2 0.796562 0.476728 0.191975
Si Si3 0.440207 0.134300 0.601382
O O1 0.755655 0.364514 0.164372
O O2 0.562377 0.291943 0.165421
O O3 0.699744 0.169223 0.103369
O O4 0.665426 0.334575 0.000000
O O5 0.831063 0.495233 0.303247
O O6 0.890649 0.519379 0.122743
O O7 0.500000 0.145996 0.500000
#
# Coordination Sequence:
#
# PCOD9551356 Si02
#       3
#    16  16  16
#     4  10  20  39  69  98 144 191 242 292 365 428
#     4   9  21  40  65 107 139 184 246 291 363 434
#     4   9  21  40  67 105 143 187 236 301 367 431
#
# _framework density 21.40117
#
# number of rings (size 3 to 8) (size 9 to 14) (size 15 to 20)
#    2.000    0.667    0.000    1.000    0.000    6.000 
#    0.000    5.000    0.000    8.000    0.000    2.333 
#    0.000    0.000    0.000    0.000    0.000    0.000 
#
# Total GULP energy -133980.011697 kJ/mol
# GULP energy per Si atom -5582.500487 kJ/mol
# Density = 2.135246 g / cm^3
# Si number density = 21.401170 Si / 1000 Ang^3
#
#
#
# Elastic Constant Matrix: (Units=GPa)
#
#
# Indices 1 2 3 4 5 6 
#
# 1 132.4557 82.2536 80.4462 0.0000 0.0000 0.0000
# 2 82.2536 132.4551 80.4461 0.0000 0.0000 0.0000
# 3 80.4462 80.4461 192.6512 0.0000 0.0000 0.0000
# 4 0.0000 0.0000 0.0000 34.1412 0.0000 0.0000
# 5 0.0000 0.0000 0.0000 0.0000 34.1415 0.0000
# 6 0.0000 0.0000 0.0000 0.0000 0.0000 37.3000
#
#
#
# Elastic Compliance Matrix: (Units=1/GPa)
#
#
# Indices 1 2 3 4 5 6 
#
# 1 0.013349 -0.006571 -0.002831 0.000000 0.000000 0.000000
# 2 -0.006571 0.013349 -0.002831 0.000000 0.000000 0.000000
# 3 -0.002831 -0.002831 0.007555 0.000000 0.000000 0.000000
# 4 0.000000 0.000000 0.000000 0.029290 0.000000 0.000000
# 5 0.000000 0.000000 0.000000 0.000000 0.029290 0.000000
# 6 0.000000 0.000000 0.000000 0.000000 0.000000 0.026810
#
#
# Mechanical properties :
#
#
# Convention : Reuss Voigt Hill
#
# Bulk Modulus (GPa) = 102.14971 104.87266 103.51118
# Shear Modulus (GPa) = 33.92847 35.41095 34.66971
#
# Velocity S-wave (km/s) = 3.98597 4.07212 4.02928
# Velocity P-wave (km/s) = 8.30774 8.43915 8.37370
#
# Compressibility (1/GPa) = 0.00978955
#
# Stress axis : x y z
#
# Youngs Moduli (GPa) = 74.91175 74.91140 132.36886
#
# Poissons Ratio (x) = 0.49221 0.37467
# Poissons Ratio (y) = 0.49221 0.37468
# Poissons Ratio (z) = 0.21204 0.21204
#
# Static dielectric constant tensor:
#      x y z
#    x 1.852390 0.000000 0.000000 
#    y 0.000000 1.852390 0.000000 
#    z 0.000000 0.000000 1.760030 
# 
# From -- ./inp_files/3127.got.cif
#   From: 2010.05.17/outbox.cif.g08.bks.cpg/sg97_2_cif.got.tgz:3127.got - 2010.06.03 19:55:32.
