data_PCOD9551377
_publ_section_title
;
Structure prediction by ZEFSAII (Michael W. Deem and Ramdas Pophale) SiO2 
 PCOD9551377
Probable space group: I 4 2 2 
;
_chemical_formula_sum "Si O2"
_cell_formula_units_Z 96
_cell_length_a 19.429848
_cell_length_b 19.429848
_cell_length_c 12.917407
_cell_angle_alpha 90.000000
_cell_angle_beta 90.000000
_cell_angle_gamma 90.000000
_cell_volume 4876.566487
_symmetry_space_group_name_H-M "I 4 2 2 "
_symmetry_group_IT_number 97
_symmetry_cell_setting 'tetragonal'
loop_
_space_group_symop_operation_xyz
x,y,z
-y,x,z
-x,-y,z
y,-x,z
x,-y,-z
-x,y,-z
y,x,-z
-y,-x,-z
1/2+x,1/2+y,1/2+z
1/2-y,1/2+x,1/2+z
1/2-x,1/2-y,1/2+z
1/2+y,1/2-x,1/2+z
1/2+x,1/2-y,1/2-z
1/2-x,1/2+y,1/2-z
1/2+y,1/2+x,1/2-z
1/2-y,1/2-x,1/2-z
loop_
_atom_site_type_symbol
_atom_site_label
_atom_site_fract_x
_atom_site_fract_y
_atom_site_fract_z
Si Si1 0.989732 0.885549 0.220345
Si Si2 0.415098 0.668786 0.085055
Si Si3 0.707364 0.000000 0.500000
Si Si4 0.306488 0.500000 0.500000
Si Si5 0.787669 0.827069 0.266869
Si Si6 0.245324 0.146819 0.052120
Si Si7 0.895827 0.659279 0.649673
O O1 0.975638 0.848747 0.331429
O O2 0.059693 0.928079 0.222667
O O3 0.992161 0.846932 0.109684
O O4 0.349064 0.683204 0.156023
O O5 0.388896 0.611105 0.000000
O O6 0.439952 0.739667 0.033580
O O7 0.659365 0.034330 0.586641
O O8 0.265774 0.427644 0.502607
O O9 0.741229 0.758772 0.250000
O O10 0.804601 0.852085 0.152617
O O11 0.736347 0.885578 0.307280
O O12 0.325428 0.150278 0.083491
O O13 0.216762 0.216762 0.000000
O O14 0.889469 0.610532 0.750000
#
# Coordination Sequence:
#
# PCOD9551377 Si02
#       7
#    16  16   8   8  16  16  16
#     4  11  24  38  52  80 127 174 217 259 317 400
#     4  12  23  37  58  91 130 171 225 270 330 420
#     4  12  24  36  68  96 126 186 220 268 352 408
#     4  12  22  37  64  89 114 170 222 278 340 402
#     4   9  20  37  59  84 122 164 204 277 331 384
#     4  10  21  37  61  90 124 160 212 283 343 388
#     4   9  22  40  62  91 131 167 216 274 347 399
#
# _framework density 19.685981999999999
#
# number of rings (size 3 to 8) (size 9 to 14) (size 15 to 20)
#    0.000    1.833    1.667    4.500    9.333    0.667 
#    0.000    0.833    0.000    0.500    0.000    4.667 
#    0.000    0.000    0.000    0.000    0.000    0.000 
#
# Total GULP energy -267228.958999 kJ/mol
# GULP energy per Si atom -5567.269979 kJ/mol
# Density = 1.964118 g / cm^3
# Si number density = 19.685982 Si / 1000 Ang^3
#
#
#
# Elastic Constant Matrix: (Units=GPa)
#
#
# Indices 1 2 3 4 5 6 
#
# 1 42.2202 16.1765 26.1697 0.0000 0.0000 0.0000
# 2 16.1765 42.2193 26.1694 0.0000 0.0000 0.0000
# 3 26.1697 26.1694 97.1501 0.0000 0.0000 0.0000
# 4 0.0000 0.0000 0.0000 40.5869 0.0000 0.0000
# 5 0.0000 0.0000 0.0000 0.0000 40.5866 0.0000
# 6 0.0000 0.0000 0.0000 0.0000 0.0000 26.6194
#
#
#
# Elastic Compliance Matrix: (Units=1/GPa)
#
#
# Indices 1 2 3 4 5 6 
#
# 1 0.030486 -0.007912 -0.006081 0.000000 0.000000 0.000000
# 2 -0.007912 0.030487 -0.006081 0.000000 0.000000 0.000000
# 3 -0.006081 -0.006081 0.013569 0.000000 0.000000 0.000000
# 4 0.000000 0.000000 0.000000 0.024639 0.000000 0.000000
# 5 0.000000 0.000000 0.000000 0.000000 0.024639 0.000000
# 6 0.000000 0.000000 0.000000 0.000000 0.000000 0.037567
#
#
# Mechanical properties :
#
#
# Convention : Reuss Voigt Hill
#
# Bulk Modulus (GPa) = 29.07421 35.40231 32.23826
# Shear Modulus (GPa) = 23.47446 29.09684 26.28565
#
# Velocity S-wave (km/s) = 3.45693 3.84871 3.65807
# Velocity P-wave (km/s) = 5.54390 6.14595 5.85267
#
# Compressibility (1/GPa) = 0.03439475
#
# Stress axis : x y z
#
# Youngs Moduli (GPa) = 32.80214 32.80140 73.69505
#
# Poissons Ratio (x) = 0.25951 0.44813
# Poissons Ratio (y) = 0.25952 0.44814
# Poissons Ratio (z) = 0.19947 0.19947
#
# Static dielectric constant tensor:
#      x y z
#    x 1.719010 0.000000 0.000000 
#    y 0.000000 1.719010 0.000000 
#    z 0.000000 0.000000 1.843450 
# 
# From -- ./inp_files/3907.got.cif
#   From: 2010.05.17/outbox.cif.g08.bks.cpg/sg97_2_cif.got.tgz:3907.got - 2010.06.03 19:55:32.
