data_PCOD9551128
_publ_section_title
;
Structure prediction by ZEFSAII (Michael W. Deem and Ramdas Pophale) SiO2 
 PCOD9551128
Probable space group: P 43 21 2
;
_chemical_formula_sum "Si O2"
_cell_formula_units_Z 48
_cell_length_a 12.533173
_cell_length_b 12.533173
_cell_length_c 15.186939
_cell_angle_alpha 90.000000
_cell_angle_beta 90.000000
_cell_angle_gamma 90.000000
_cell_volume 2385.570839
_symmetry_space_group_name_H-M "P 43 21 2"
_symmetry_group_IT_number 96
_symmetry_cell_setting 'tetragonal'
loop_
_space_group_symop_operation_xyz
x,y,z
1/2-y,1/2+x,3/4+z
-x,-y,1/2+z
1/2+y,1/2-x,1/4+z
1/2+x,1/2-y,1/4-z
1/2-x,1/2+y,3/4-z
y,x,-z
-y,-x,1/2-z
loop_
_atom_site_type_symbol
_atom_site_label
_atom_site_fract_x
_atom_site_fract_y
_atom_site_fract_z
Si Si1 0.648879 0.426561 0.154970
Si Si2 0.343803 0.878105 0.893374
Si Si3 0.685224 0.507135 0.483610
Si Si4 0.752373 0.647403 0.169984
Si Si5 0.444753 0.920824 0.197216
Si Si6 0.324013 0.117389 0.634121
O O1 0.596461 0.403540 0.250000
O O2 0.765877 0.372863 0.151565
O O3 0.578904 0.377673 0.076248
O O4 0.673954 0.551626 0.142030
O O5 0.285872 0.953519 0.823909
O O6 0.452349 0.927003 0.934125
O O7 0.265249 0.857618 0.974981
O O8 0.606314 0.606314 0.500000
O O9 0.731325 0.455424 0.573166
O O10 0.869019 0.628273 0.128108
O O11 0.712003 0.761061 0.139685
O O12 0.408142 0.865436 0.286873
O O13 0.569007 0.898036 0.190171
#
# Coordination Sequence:
#
# PCOD9551128 Si02
#       6
#     8   8   8   8   8   8
#     4  11  24  43  71  97 138 185 227 286 360 423
#     4  11  23  45  69 100 136 184 237 283 353 422
#     4  12  28  43  69 108 143 179 235 302 358 420
#     4  11  24  44  70 100 136 181 234 284 348 421
#     4  11  25  44  71  98 135 187 233 282 341 427
#     4  12  26  44  70 102 138 178 233 288 347 416
#
# _framework density 20.12097
#
# number of rings (size 3 to 8) (size 9 to 14) (size 15 to 20)
#    0.000    0.667    5.000    2.000    4.667    6.667 
#    0.000    0.000    0.000    0.000    0.000    0.000 
#    0.000    0.000    0.000    0.000    0.000    0.000 
#
# Total GULP energy -268350.895811 kJ/mol
# GULP energy per Si atom -5590.643663 kJ/mol
# Density = 2.007517 g / cm^3
# Si number density = 20.120970 Si / 1000 Ang^3
#
#
#
# Elastic Constant Matrix: (Units=GPa)
#
#
# Indices 1 2 3 4 5 6 
#
# 1 96.7448 68.8229 25.0851 0.0000 0.0000 0.0000
# 2 68.8229 96.7440 25.0849 0.0000 0.0000 0.0000
# 3 25.0851 25.0849 47.2817 0.0000 0.0000 0.0000
# 4 0.0000 0.0000 0.0000 30.6138 0.0000 0.0000
# 5 0.0000 0.0000 0.0000 0.0000 30.6141 0.0000
# 6 0.0000 0.0000 0.0000 0.0000 0.0000 10.4713
#
#
#
# Elastic Compliance Matrix: (Units=1/GPa)
#
#
# Indices 1 2 3 4 5 6 
#
# 1 0.021506 -0.014309 -0.003818 0.000000 0.000000 0.000000
# 2 -0.014309 0.021506 -0.003818 0.000000 0.000000 0.000000
# 3 -0.003818 -0.003818 0.025201 0.000000 0.000000 0.000000
# 4 0.000000 0.000000 0.000000 0.032665 0.000000 0.000000
# 5 0.000000 0.000000 0.000000 0.000000 0.032665 0.000000
# 6 0.000000 0.000000 0.000000 0.000000 0.000000 0.095499
#
#
# Mechanical properties :
#
#
# Convention : Reuss Voigt Hill
#
# Bulk Modulus (GPa) = 41.11495 53.19513 47.15504
# Shear Modulus (GPa) = 17.79106 22.45833 20.12469
#
# Velocity S-wave (km/s) = 2.97678 3.34453 3.16600
# Velocity P-wave (km/s) = 5.68271 6.43503 6.07054
#
# Compressibility (1/GPa) = 0.02432205
#
# Stress axis : x y z
#
# Youngs Moduli (GPa) = 46.49927 46.49890 39.68047
#
# Poissons Ratio (x) = 0.66535 0.15151
# Poissons Ratio (y) = 0.66536 0.15151
# Poissons Ratio (z) = 0.17755 0.17754
#
# Static dielectric constant tensor:
#      x y z
#    x 1.689020 0.000000 0.000000 
#    y 0.000000 1.689020 0.000000 
#    z 0.000000 0.000000 1.961980 
# 
# From -- ./inp_files/3107.got.cif
#   From: 2010.05.17/outbox.cif.g08.bks.cpg/sg96_2_cif.got.tgz:3107.got - 2010.06.03 19:52:08.
