data_PCOD9551457
_publ_section_title
;
Structure prediction by ZEFSAII (Michael W. Deem and Ramdas Pophale) SiO2 
 PCOD9551457
Probable space group: I 4 2 2 
;
_chemical_formula_sum "Si O2"
_cell_formula_units_Z 80
_cell_length_a 12.066753
_cell_length_b 12.066753
_cell_length_c 25.861606
_cell_angle_alpha 90.000000
_cell_angle_beta 90.000000
_cell_angle_gamma 90.000000
_cell_volume 3765.618657
_symmetry_space_group_name_H-M "I 4 2 2 "
_symmetry_group_IT_number 97
_symmetry_cell_setting 'tetragonal'
loop_
_space_group_symop_operation_xyz
x,y,z
-y,x,z
-x,-y,z
y,-x,z
x,-y,-z
-x,y,-z
y,x,-z
-y,-x,-z
1/2+x,1/2+y,1/2+z
1/2-y,1/2+x,1/2+z
1/2-x,1/2-y,1/2+z
1/2+y,1/2-x,1/2+z
1/2+x,1/2-y,1/2-z
1/2-x,1/2+y,1/2-z
1/2+y,1/2+x,1/2-z
1/2-y,1/2-x,1/2-z
loop_
_atom_site_type_symbol
_atom_site_label
_atom_site_fract_x
_atom_site_fract_y
_atom_site_fract_z
Si Si1 0.312048 0.507999 0.685761
Si Si2 0.228572 0.593914 0.094739
Si Si3 0.240619 0.366273 0.046554
Si Si4 0.369175 0.990217 0.097175
Si Si5 0.488148 0.687339 0.801991
O O1 0.388975 0.397821 0.679619
O O2 0.214124 0.521330 0.644868
O O3 0.265494 0.496574 0.744088
O O4 0.260097 0.497424 0.054325
O O5 0.315243 0.692496 0.094748
O O6 0.113948 0.647930 0.076538
O O7 0.229214 0.536160 0.151112
O O8 0.109779 0.352573 0.056895
O O9 0.298350 0.298350 0.000000
O O10 0.500000 0.000000 0.110665
O O11 0.388020 0.598204 0.805518
#
# Coordination Sequence:
#
# PCOD9551457 Si02
#       5
#    16  16  16  16  16
#     4   9  18  36  64  92 121 168 227 269 311 370
#     4  11  21  39  64  89 125 164 212 263 323 383
#     4  11  24  41  62  91 122 166 212 268 327 387
#     4  10  23  40  59  89 131 172 206 262 330 395
#     4   9  17  33  60  93 125 166 212 268 316 368
#
# _framework density 21.244848999999999
#
# number of rings (size 3 to 8) (size 9 to 14) (size 15 to 20)
#    0.000    2.000    2.000    3.000    0.000    2.000 
#    0.000   11.000    0.000    0.000    0.000    1.400 
#    0.000    0.000    0.000    0.000    0.000    0.000 
#
# Total GULP energy -222802.997568 kJ/mol
# GULP energy per Si atom -5570.074939 kJ/mol
# Density = 2.119649 g / cm^3
# Si number density = 21.244849 Si / 1000 Ang^3
#
#
#
# Elastic Constant Matrix: (Units=GPa)
#
#
# Indices 1 2 3 4 5 6 
#
# 1 83.0876 28.2647 46.5725 0.0000 0.0000 0.0000
# 2 28.2647 83.0876 46.5725 0.0000 0.0000 0.0000
# 3 46.5725 46.5725 96.5692 0.0000 0.0000 0.0000
# 4 0.0000 0.0000 0.0000 24.6000 0.0000 0.0000
# 5 0.0000 0.0000 0.0000 0.0000 24.6000 0.0000
# 6 0.0000 0.0000 0.0000 0.0000 0.0000 -2.0281
#
#
#
# Elastic Compliance Matrix: (Units=1/GPa)
#
#
# Indices 1 2 3 4 5 6 
#
# 1 0.016647 -0.001594 -0.007260 0.000000 0.000000 0.000000
# 2 -0.001594 0.016647 -0.007260 0.000000 0.000000 0.000000
# 3 -0.007260 -0.007260 0.017358 0.000000 0.000000 0.000000
# 4 0.000000 0.000000 0.000000 0.040650 0.000000 0.000000
# 5 0.000000 0.000000 0.000000 0.000000 0.040650 0.000000
# 6 0.000000 0.000000 0.000000 0.000000 0.000000 -0.493080
#
#
# Mechanical properties :
#
#
# Convention : Reuss Voigt Hill
#
# Bulk Modulus (GPa) = 54.27383 56.17373 55.22378
# Shear Modulus (GPa) = -15.49139 18.85672 1.68266
#
# Velocity S-wave (km/s) = -2.70327 2.98248 0.89093
# Velocity P-wave (km/s) = 3.98230 6.19344 5.20660
#
# Compressibility (1/GPa) = 0.01842509
#
# Stress axis : x y z
#
# Youngs Moduli (GPa) = 60.07140 60.07140 57.61189
#
# Poissons Ratio (x) = 0.09574 0.41824
# Poissons Ratio (y) = 0.09574 0.41824
# Poissons Ratio (z) = 0.43610 0.43610
#
# Static dielectric constant tensor:
#      x y z
#    x 1.800160 0.000000 0.000000 
#    y 0.000000 1.800160 0.000000 
#    z 0.000000 0.000000 1.858700 
# 
# From -- ./inp_files/7961.got.cif
#   From: 2010.05.17/outbox.cif.g08.bks.cpg/sg97_4_cif.got.tgz:7961.got - 2010.06.03 19:55:32.
