data_PCOD9551941
_publ_section_title
;
Structure prediction by ZEFSAII (Michael W. Deem and Ramdas Pophale) SiO2 
 PCOD9551941
Probable space group: I 41 2 2
;
_chemical_formula_sum "Si O2"
_cell_formula_units_Z 96
_cell_length_a 14.677457
_cell_length_b 14.677457
_cell_length_c 19.768927
_cell_angle_alpha 90.000000
_cell_angle_beta 90.000000
_cell_angle_gamma 90.000000
_cell_volume 4258.775345
_symmetry_space_group_name_H-M "I 41 2 2"
_symmetry_group_IT_number 98
_symmetry_cell_setting 'tetragonal'
loop_
_space_group_symop_operation_xyz
x,y,z
-y,1/2+x,1/4+z
-x,-y,z
y,1/2-x,1/4+z
x,1/2-y,1/4-z
-x,1/2+y,1/4-z
y,x,-z
-y,-x,-z
1/2+x,1/2+y,1/2+z
1/2-y,x,3/4+z
1/2-x,1/2-y,1/2+z
1/2+y,-x,3/4+z
1/2+x,-y,3/4-z
1/2-x,y,3/4-z
1/2+y,1/2+x,1/2-z
1/2-y,1/2-x,1/2-z
loop_
_atom_site_type_symbol
_atom_site_label
_atom_site_fract_x
_atom_site_fract_y
_atom_site_fract_z
Si Si1 0.393954 0.464560 0.431733
Si Si2 0.193288 0.729726 0.436241
Si Si3 0.538250 0.898767 0.424684
Si Si4 0.258272 0.140793 0.453181
Si Si5 0.016193 0.844653 0.471604
Si Si6 0.690454 0.473757 0.302502
O O1 0.500000 0.500000 0.426920
O O2 0.400978 0.400978 0.500000
O O3 0.362030 0.453067 0.351909
O O4 0.299800 0.517166 0.450023
O O5 0.259772 0.740229 0.500000
O O6 0.250000 0.772674 0.375000
O O7 0.100073 0.778954 0.454453
O O8 0.168552 0.626274 0.419574
O O9 0.637305 0.889262 0.457811
O O10 0.535412 0.860861 0.348826
O O11 0.475898 0.843470 0.476145
O O12 0.500000 0.000000 0.421919
O O13 0.223044 0.223044 0.500000
O O14 0.250000 0.166937 0.375000
O O15 0.198438 0.053127 0.474803
O O16 0.065980 0.934021 0.500000
#
# Coordination Sequence:
#
# PCOD9551941 Si02
#       6
#    16  16  16  16  16  16
#     4  10  23  41  69 100 141 203 251 315 386 472
#     4  11  23  42  71 107 153 191 249 317 394 464
#     4  12  26  46  77 110 158 207 264 324 396 479
#     4  12  26  50  77 109 153 203 259 332 395 481
#     4  11  26  45  77 114 150 201 254 318 403 477
#     4  11  24  45  67 107 147 196 262 319 388 473
#
# _framework density 22.541691
#
# number of rings (size 3 to 8) (size 9 to 14) (size 15 to 20)
#    0.000    0.833    3.333    3.500    2.333    8.667 
#    3.000    0.000    0.000    0.000    0.000    0.000 
#    0.000    0.000    0.000    0.000    0.000    0.000 
#
# Total GULP energy -267461.254995 kJ/mol
# GULP energy per Si atom -5572.109479 kJ/mol
# Density = 2.249039 g / cm^3
# Si number density = 22.541691 Si / 1000 Ang^3
#
#
#
# Elastic Constant Matrix: (Units=GPa)
#
#
# Indices 1 2 3 4 5 6 
#
# 1 96.1312 21.1380 34.8720 0.0000 0.0000 0.0000
# 2 21.1380 96.1307 34.8722 0.0000 0.0000 0.0000
# 3 34.8720 34.8722 168.1362 0.0000 0.0000 0.0000
# 4 0.0000 0.0000 0.0000 27.8134 0.0000 0.0000
# 5 0.0000 0.0000 0.0000 0.0000 27.8160 0.0000
# 6 0.0000 0.0000 0.0000 0.0000 0.0000 35.4462
#
#
#
# Elastic Compliance Matrix: (Units=1/GPa)
#
#
# Indices 1 2 3 4 5 6 
#
# 1 0.011531 -0.001804 -0.002017 0.000000 0.000000 0.000000
# 2 -0.001804 0.011531 -0.002017 0.000000 0.000000 0.000000
# 3 -0.002017 -0.002017 0.006784 0.000000 0.000000 0.000000
# 4 0.000000 0.000000 0.000000 0.035954 0.000000 0.000000
# 5 0.000000 0.000000 0.000000 0.000000 0.035951 0.000000
# 6 0.000000 0.000000 0.000000 0.000000 0.000000 0.028212
#
#
# Mechanical properties :
#
#
# Convention : Reuss Voigt Hill
#
# Bulk Modulus (GPa) = 55.03860 60.24030 57.63945
# Shear Modulus (GPa) = 33.85332 36.18285 35.01808
#
# Velocity S-wave (km/s) = 3.87952 4.01078 3.94570
# Velocity P-wave (km/s) = 6.67360 6.94482 6.81056
#
# Compressibility (1/GPa) = 0.01816907
#
# Stress axis : x y z
#
# Youngs Moduli (GPa) = 86.72353 86.72297 147.39647
#
# Poissons Ratio (x) = 0.15642 0.29737
# Poissons Ratio (y) = 0.15642 0.29737
# Poissons Ratio (z) = 0.17496 0.17496
#
# Static dielectric constant tensor:
#      x y z
#    x 1.863630 0.000000 0.000000 
#    y 0.000000 1.863630 0.000000 
#    z 0.000000 0.000000 1.891460 
# 
# From -- ./inp_files/8900.got.cif
#   From: 2010.05.17/outbox.cif.g08.bks.cpg/sg98_5_cif.got.tgz:8900.got - 2010.06.03 20:00:51.
