data_PCOD9551068
_publ_section_title
;
Structure prediction by ZEFSAII (Michael W. Deem and Ramdas Pophale) SiO2 
 PCOD9551068
Probable space group: P 43 21 2
;
_chemical_formula_sum "Si O2"
_cell_formula_units_Z 60
_cell_length_a 18.004907
_cell_length_b 18.004907
_cell_length_c 8.486260
_cell_angle_alpha 90.000000
_cell_angle_beta 90.000000
_cell_angle_gamma 90.000000
_cell_volume 2751.047559
_symmetry_space_group_name_H-M "P 43 21 2"
_symmetry_group_IT_number 96
_symmetry_cell_setting 'tetragonal'
loop_
_space_group_symop_operation_xyz
x,y,z
1/2-y,1/2+x,3/4+z
-x,-y,1/2+z
1/2+y,1/2-x,1/4+z
1/2+x,1/2-y,1/4-z
1/2-x,1/2+y,3/4-z
y,x,-z
-y,-x,1/2-z
loop_
_atom_site_type_symbol
_atom_site_label
_atom_site_fract_x
_atom_site_fract_y
_atom_site_fract_z
Si Si1 0.531364 0.372749 0.569289
Si Si2 0.199644 0.792198 0.562389
Si Si3 0.323917 0.683341 0.562462
Si Si4 0.544895 0.205765 0.046793
Si Si5 0.449736 0.242023 0.741577
Si Si6 0.044326 0.579022 0.069078
Si Si7 0.539813 0.539813 0.500000
Si Si8 0.822094 0.036422 0.493852
O O1 0.613342 0.340707 0.544035
O O2 0.487397 0.318976 0.687045
O O3 0.539174 0.460799 0.589234
O O4 0.491729 0.360594 0.401009
O O5 0.194354 0.805647 0.750000
O O6 0.242073 0.715394 0.541365
O O7 0.244278 0.862418 0.498291
O O8 0.119513 0.793811 0.486853
O O9 0.334431 0.665570 0.750000
O O10 0.380179 0.748576 0.515468
O O11 0.484258 0.221805 0.911349
O O12 0.564240 0.118466 0.039257
O O13 0.512106 0.250014 0.196960
O O14 0.462762 0.166710 0.642990
O O15 0.055087 0.527691 0.220630
O O16 0.537519 0.613421 0.609247
#
# Coordination Sequence:
#
# PCOD9551068 Si02
#       8
#     8   8   8   8   8   8   4   8
#     4  12  26  42  64 101 138 178 217 283 341 401
#     4  11  22  41  68  97 126 175 221 269 326 402
#     4  11  22  42  68  96 130 168 227 273 327 402
#     4  11  21  43  68  93 129 174 222 271 334 400
#     4  11  24  44  64  96 137 173 217 275 340 404
#     4  10  24  46  72  98 130 176 231 287 339 401
#     4  12  22  40  68  94 136 178 232 268 332 410
#     4  12  23  42  66 100 134 175 231 277 332 407
#
# _framework density 21.809873
#
# number of rings (size 3 to 8) (size 9 to 14) (size 15 to 20)
#    0.000    0.800    6.000    1.200    0.000    2.667 
#    7.200    1.333    0.000    0.000    0.000    0.000 
#    0.000    0.000    0.000    0.000    0.000    0.000 
#
# Total GULP energy -335493.217345 kJ/mol
# GULP energy per Si atom -5591.553622 kJ/mol
# Density = 2.176023 g / cm^3
# Si number density = 21.809873 Si / 1000 Ang^3
#
#
#
# Elastic Constant Matrix: (Units=GPa)
#
#
# Indices 1 2 3 4 5 6 
#
# 1 1294.7550-1211.4033 -4.6696 0.0000 0.0000 0.0000
# 2 -1211.4033 1294.9049 -4.7048 0.0000 0.0000 0.0000
# 3 -4.6696 -4.7048 19.6394 0.0000 0.0000 0.0000
# 4 0.0000 0.0000 0.0000 12.2994 0.0000 0.0000
# 5 0.0000 0.0000 0.0000 0.0000 12.2997 0.0000
# 6 0.0000 0.0000 0.0000 0.0000 0.0000 33.8714
#
#
#
# Elastic Compliance Matrix: (Units=1/GPa)
#
#
# Indices 1 2 3 4 5 6 
#
# 1 0.006358 0.005959 0.002939 0.000000 0.000000 0.000000
# 2 0.005959 0.006358 0.002940 0.000000 0.000000 0.000000
# 3 0.002939 0.002940 0.052321 0.000000 0.000000 0.000000
# 4 0.000000 0.000000 0.000000 0.081305 0.000000 0.000000
# 5 0.000000 0.000000 0.000000 0.000000 0.081303 0.000000
# 6 0.000000 0.000000 0.000000 0.000000 0.000000 0.029523
#
#
# Mechanical properties :
#
#
# Convention : Reuss Voigt Hill
#
# Bulk Modulus (GPa) = 11.27224 18.63821 14.95523
# Shear Modulus (GPa) = 19.00685 267.03257 143.01971
#
# Velocity S-wave (km/s) = 2.95528 11.07711 8.10667
# Velocity P-wave (km/s) = 4.10178 13.12126 9.72091
#
# Compressibility (1/GPa) = 0.08871350
#
# Stress axis : x y z
#
# Youngs Moduli (GPa) = 157.27542 157.29159 19.11267
#
# Poissons Ratio (x) = -0.93729 -0.05618
# Poissons Ratio (y) = -0.93719 -0.05619
# Poissons Ratio (z) = -0.46228 -0.46242
#
# Static dielectric constant tensor:
#      x y z
#    x 1.861100 0.000000 0.000000 
#    y 0.000000 1.861080 0.000000 
#    z 0.000000 0.000000 1.789350 
# 
# From -- ./inp_files/1619.got.cif
#   From: 2010.05.17/outbox.cif.g08.bks.cpg/sg96_1_cif.got.tgz:1619.got - 2010.06.03 19:52:08.
