data_PCOD9551573
_publ_section_title
;
Structure prediction by ZEFSAII (Michael W. Deem and Ramdas Pophale) SiO2 
 PCOD9551573
Probable space group: I 4 2 2 
;
_chemical_formula_sum "Si O2"
_cell_formula_units_Z 56
_cell_length_a 15.936982
_cell_length_b 15.936982
_cell_length_c 10.431484
_cell_angle_alpha 90.000000
_cell_angle_beta 90.000000
_cell_angle_gamma 90.000000
_cell_volume 2649.465450
_symmetry_space_group_name_H-M "I 4 2 2 "
_symmetry_group_IT_number 97
_symmetry_cell_setting 'tetragonal'
loop_
_space_group_symop_operation_xyz
x,y,z
-y,x,z
-x,-y,z
y,-x,z
x,-y,-z
-x,y,-z
y,x,-z
-y,-x,-z
1/2+x,1/2+y,1/2+z
1/2-y,1/2+x,1/2+z
1/2-x,1/2-y,1/2+z
1/2+y,1/2-x,1/2+z
1/2+x,1/2-y,1/2-z
1/2-x,1/2+y,1/2-z
1/2+y,1/2+x,1/2-z
1/2-y,1/2-x,1/2-z
loop_
_atom_site_type_symbol
_atom_site_label
_atom_site_fract_x
_atom_site_fract_y
_atom_site_fract_z
Si Si1 0.219394 0.688369 0.612598
Si Si2 0.289184 0.991040 0.819104
Si Si3 0.356753 0.917957 0.562128
Si Si4 0.000000 0.138648 0.000000
O O1 0.286781 0.713220 0.500000
O O2 0.234225 0.734225 0.750000
O O3 0.203719 0.591521 0.658882
O O4 0.133078 0.702829 0.535038
O O5 0.302231 0.955970 0.677598
O O6 0.355785 0.931104 0.893104
O O7 0.198591 0.980418 0.880558
O O8 0.396622 0.000000 0.500000
O O9 0.921122 0.078879 0.000000
#
# Coordination Sequence:
#
# PCOD9551573 Si02
#       4
#    16  16  16   8
#     4  12  26  44  69 101 143 191 242 300 364 444
#     4  11  24  42  70 100 142 185 242 303 366 448
#     4  11  24  45  67 108 142 190 239 301 379 444
#     4  11  24  44  73 104 140 192 255 312 366 437
#
# _framework density 21.136337999999999
#
# number of rings (size 3 to 8) (size 9 to 14) (size 15 to 20)
#    0.000    0.714    5.714    0.857    4.000    2.286 
#    0.000    0.000    0.000    0.000    0.000    2.000 
#    0.000    0.000    0.000    0.000    0.000    0.000 
#
# Total GULP energy -155905.931103 kJ/mol
# GULP energy per Si atom -5568.068968 kJ/mol
# Density = 2.108823 g / cm^3
# Si number density = 21.136338 Si / 1000 Ang^3
#
#
#
# Elastic Constant Matrix: (Units=GPa)
#
#
# Indices 1 2 3 4 5 6 
#
# 1 144.3966 40.8427 66.0417 0.0000 0.0000 0.0000
# 2 40.8427 144.3922 66.0402 0.0000 0.0000 0.0000
# 3 66.0417 66.0402 187.7538 0.0000 0.0000 0.0000
# 4 0.0000 0.0000 0.0000 31.5264 0.0000 0.0000
# 5 0.0000 0.0000 0.0000 0.0000 31.5256 0.0000
# 6 0.0000 0.0000 0.0000 0.0000 0.0000 39.9342
#
#
#
# Elastic Compliance Matrix: (Units=1/GPa)
#
#
# Indices 1 2 3 4 5 6 
#
# 1 0.008431 -0.001226 -0.002535 0.000000 0.000000 0.000000
# 2 -0.001226 0.008431 -0.002535 0.000000 0.000000 0.000000
# 3 -0.002535 -0.002535 0.007109 0.000000 0.000000 0.000000
# 4 0.000000 0.000000 0.000000 0.031719 0.000000 0.000000
# 5 0.000000 0.000000 0.000000 0.000000 0.031720 0.000000
# 6 0.000000 0.000000 0.000000 0.000000 0.000000 0.025041
#
#
# Mechanical properties :
#
#
# Convention : Reuss Voigt Hill
#
# Bulk Modulus (GPa) = 87.85514 91.37687 89.61600
# Shear Modulus (GPa) = 38.80888 40.83843 39.82366
#
# Velocity S-wave (km/s) = 4.28965 4.40038 4.34537
# Velocity P-wave (km/s) = 8.13578 8.31528 8.22602
#
# Compressibility (1/GPa) = 0.01138237
#
# Stress axis : x y z
#
# Youngs Moduli (GPa) = 118.60632 118.60295 140.66379
#
# Poissons Ratio (x) = 0.14536 0.35652
# Poissons Ratio (y) = 0.14537 0.35652
# Poissons Ratio (z) = 0.30061 0.30061
#
# Static dielectric constant tensor:
#      x y z
#    x 1.833230 0.000000 0.000000 
#    y 0.000000 1.833250 0.000000 
#    z 0.000000 0.000000 1.792460 
# 
# From -- ./inp_files/3266.got.cif
#   From: 2010.05.17/outbox.cif.g08.bks.cpg/sg97_2_cif.got.tgz:3266.got - 2010.06.03 19:55:32.
