data_PCOD9551124
_publ_section_title
;
Structure prediction by ZEFSAII (Michael W. Deem and Ramdas Pophale) SiO2 
 PCOD9551124
Probable space group: P 43 21 2
;
_chemical_formula_sum "Si O2"
_cell_formula_units_Z 32
_cell_length_a 7.528668
_cell_length_b 7.528668
_cell_length_c 27.168330
_cell_angle_alpha 90.000000
_cell_angle_beta 90.000000
_cell_angle_gamma 90.000000
_cell_volume 1539.923816
_symmetry_space_group_name_H-M "P 43 21 2"
_symmetry_group_IT_number 96
_symmetry_cell_setting 'tetragonal'
loop_
_space_group_symop_operation_xyz
x,y,z
1/2-y,1/2+x,3/4+z
-x,-y,1/2+z
1/2+y,1/2-x,1/4+z
1/2+x,1/2-y,1/4-z
1/2-x,1/2+y,3/4-z
y,x,-z
-y,-x,1/2-z
loop_
_atom_site_type_symbol
_atom_site_label
_atom_site_fract_x
_atom_site_fract_y
_atom_site_fract_z
Si Si1 0.112671 0.086455 0.058521
Si Si2 0.631732 0.623879 0.397995
Si Si3 0.715184 0.245730 0.601145
Si Si4 0.131972 0.869259 0.306746
O O1 0.948116 0.152588 0.092360
O O2 0.278693 0.203377 0.077958
O O3 0.148751 0.883127 0.074021
O O4 0.097510 0.097510 0.000000
O O5 0.456899 0.749982 0.399069
O O6 0.560922 0.454468 0.430070
O O7 0.525422 0.235744 0.574769
O O8 0.710083 0.173662 0.656713
O O9 0.159876 0.840125 0.250000
#
# Coordination Sequence:
#
# PCOD9551124 Si02
#       4
#     8   8   8   8
#     4  11  23  41  67  98 129 178 221 270 342 397
#     4   9  23  40  61  95 135 161 222 276 314 405
#     4   9  22  41  58  94 129 159 224 259 317 406
#     4   9  19  40  61  85 125 173 201 266 333 373
#
# _framework density 20.780249000000001
#
# number of rings (size 3 to 8) (size 9 to 14) (size 15 to 20)
#    1.500    1.000    0.000    0.750    3.500    5.000 
#    0.000    0.000    0.000    0.000    0.000    0.000 
#    0.000    0.000    0.000    0.000    0.000    0.000 
#
# Total GULP energy -178152.245556 kJ/mol
# GULP energy per Si atom -5567.257674 kJ/mol
# Density = 2.073295 g / cm^3
# Si number density = 20.780249 Si / 1000 Ang^3
#
#
#
# Elastic Constant Matrix: (Units=GPa)
#
#
# Indices 1 2 3 4 5 6 
#
# 1 47.0121 38.9557 37.6999 0.0000 0.0000 0.0000
# 2 38.9557 47.0121 37.7005 0.0000 0.0000 0.0000
# 3 37.6999 37.7005 224.5016 0.0000 0.0000 0.0000
# 4 0.0000 0.0000 0.0000 21.3016 0.0000 0.0000
# 5 0.0000 0.0000 0.0000 0.0000 21.3016 0.0000
# 6 0.0000 0.0000 0.0000 0.0000 0.0000 21.4708
#
#
#
# Elastic Compliance Matrix: (Units=1/GPa)
#
#
# Indices 1 2 3 4 5 6 
#
# 1 0.068883 -0.055242 -0.002291 0.000000 0.000000 0.000000
# 2 -0.055242 0.068883 -0.002291 0.000000 0.000000 0.000000
# 3 -0.002291 -0.002291 0.005224 0.000000 0.000000 0.000000
# 4 0.000000 0.000000 0.000000 0.046945 0.000000 0.000000
# 5 0.000000 0.000000 0.000000 0.000000 0.046945 0.000000
# 6 0.000000 0.000000 0.000000 0.000000 0.000000 0.046575
#
#
# Mechanical properties :
#
#
# Convention : Reuss Voigt Hill
#
# Bulk Modulus (GPa) = 42.83856 60.80423 51.82140
# Shear Modulus (GPa) = 12.16892 26.42609 19.29751
#
# Velocity S-wave (km/s) = 2.42254 3.56995 3.05068
# Velocity P-wave (km/s) = 5.33711 6.80565 6.11562
#
# Compressibility (1/GPa) = 0.02334345
#
# Stress axis : x y z
#
# Youngs Moduli (GPa) = 14.51736 14.51729 191.43559
#
# Poissons Ratio (x) = 0.80196 0.43850
# Poissons Ratio (y) = 0.80196 0.43858
# Poissons Ratio (z) = 0.03325 0.03326
#
# Static dielectric constant tensor:
#      x y z
#    x 1.780640 0.000000 0.000000 
#    y 0.000000 1.780640 0.000000 
#    z 0.000000 0.000000 1.725550 
# 
# From -- ./inp_files/4006.got.cif
#   From: 2010.05.17/outbox.cif.g08.bks.cpg/sg96_3_cif.got.tgz:4006.got - 2010.06.03 19:52:08.
