data_PCOD9551396
_publ_section_title
;
Structure prediction by ZEFSAII (Michael W. Deem and Ramdas Pophale) SiO2 
 PCOD9551396
Probable space group: I 4 2 2 
;
_chemical_formula_sum "Si O2"
_cell_formula_units_Z 96
_cell_length_a 24.997191
_cell_length_b 24.997191
_cell_length_c 8.014496
_cell_angle_alpha 90.000000
_cell_angle_beta 90.000000
_cell_angle_gamma 90.000000
_cell_volume 5007.934427
_symmetry_space_group_name_H-M "I 4 2 2 "
_symmetry_group_IT_number 97
_symmetry_cell_setting 'tetragonal'
loop_
_space_group_symop_operation_xyz
x,y,z
-y,x,z
-x,-y,z
y,-x,z
x,-y,-z
-x,y,-z
y,x,-z
-y,-x,-z
1/2+x,1/2+y,1/2+z
1/2-y,1/2+x,1/2+z
1/2-x,1/2-y,1/2+z
1/2+y,1/2-x,1/2+z
1/2+x,1/2-y,1/2-z
1/2-x,1/2+y,1/2-z
1/2+y,1/2+x,1/2-z
1/2-y,1/2-x,1/2-z
loop_
_atom_site_type_symbol
_atom_site_label
_atom_site_fract_x
_atom_site_fract_y
_atom_site_fract_z
Si Si1 0.164072 0.345321 0.940480
Si Si2 0.193358 0.763137 0.659744
Si Si3 0.938398 0.149703 0.556017
Si Si4 0.606300 0.680046 0.605604
Si Si5 0.213516 0.439695 0.443845
Si Si6 0.227450 0.560846 0.955113
O O1 0.171560 0.328441 0.750000
O O2 0.206423 0.322348 0.075137
O O3 0.104876 0.328081 0.994506
O O4 0.181643 0.406876 0.950369
O O5 0.199768 0.800233 0.500000
O O6 0.248525 0.748525 0.750000
O O7 0.153717 0.789675 0.791662
O O8 0.895974 0.104027 0.500000
O O9 0.933390 0.155523 0.756570
O O10 0.923072 0.210948 0.499691
O O11 0.000000 0.139603 0.500000
O O12 0.634205 0.634205 0.500000
O O13 0.577871 0.726564 0.498543
O O14 0.201909 0.500000 0.500000
O O15 0.218068 0.435357 0.243315
O O16 0.223809 0.500000 0.000000
#
# Coordination Sequence:
#
# PCOD9551396 Si02
#       6
#    16  16  16  16  16  16
#     4  12  23  36  60  90 124 169 213 256 319 393
#     4  12  22  37  54  88 131 169 206 256 324 398
#     4  10  22  41  64  88 124 169 217 271 330 388
#     4  11  24  38  61  93 127 166 216 269 330 392
#     4  11  23  41  59  87 127 168 212 261 317 386
#     4  10  21  40  61  90 123 160 210 271 327 385
#
# _framework density 19.16958
#
# number of rings (size 3 to 8) (size 9 to 14) (size 15 to 20)
#    0.000    1.000    5.000    3.000    2.333    4.167 
#    0.000    0.000    0.000    0.500    0.000    4.667 
#    0.000    0.000    0.000    0.000    0.000    0.000 
#
# Total GULP energy -267756.571870 kJ/mol
# GULP energy per Si atom -5578.261914 kJ/mol
# Density = 1.912595 g / cm^3
# Si number density = 19.169580 Si / 1000 Ang^3
#
#
#
# Elastic Constant Matrix: (Units=GPa)
#
#
# Indices 1 2 3 4 5 6 
#
# 1 123.2180 79.0980 32.6327 0.0000 0.0000 0.0000
# 2 79.0980 123.2212 32.6337 0.0000 0.0000 0.0000
# 3 32.6327 32.6337 68.2137 0.0000 0.0000 0.0000
# 4 0.0000 0.0000 0.0000 31.9235 0.0000 0.0000
# 5 0.0000 0.0000 0.0000 0.0000 31.9233 0.0000
# 6 0.0000 0.0000 0.0000 0.0000 0.0000 30.0135
#
#
#
# Elastic Compliance Matrix: (Units=1/GPa)
#
#
# Indices 1 2 3 4 5 6 
#
# 1 0.014255 -0.008410 -0.002796 0.000000 0.000000 0.000000
# 2 -0.008410 0.014255 -0.002796 0.000000 0.000000 0.000000
# 3 -0.002796 -0.002796 0.017335 0.000000 0.000000 0.000000
# 4 0.000000 0.000000 0.000000 0.031325 0.000000 0.000000
# 5 0.000000 0.000000 0.000000 0.000000 0.031325 0.000000
# 6 0.000000 0.000000 0.000000 0.000000 0.000000 0.033318
#
#
# Mechanical properties :
#
#
# Convention : Reuss Voigt Hill
#
# Bulk Modulus (GPa) = 56.05333 67.04243 61.54788
# Shear Modulus (GPa) = 28.44728 30.12464 29.28596
#
# Velocity S-wave (km/s) = 3.85643 3.96849 3.91286
# Velocity P-wave (km/s) = 7.00954 7.48651 7.25195
#
# Compressibility (1/GPa) = 0.01784015
#
# Stress axis : x y z
#
# Youngs Moduli (GPa) = 70.15170 70.15313 57.68644
#
# Poissons Ratio (x) = 0.58998 0.16129
# Poissons Ratio (y) = 0.58997 0.16130
# Poissons Ratio (z) = 0.19614 0.19616
#
# Static dielectric constant tensor:
#      x y z
#    x 1.708250 0.000000 0.000000 
#    y 0.000000 1.708250 0.000000 
#    z 0.000000 0.000000 1.703100 
# 
# From -- ./inp_files/2461.got.cif
#   From: 2010.05.17/outbox.cif.g08.bks.cpg/sg97_2_cif.got.tgz:2461.got - 2010.06.03 19:55:32.
