data_PCOD9551001
_publ_section_title
;
Structure prediction by ZEFSAII (Michael W. Deem and Ramdas Pophale) SiO2 
 PCOD9551001
Probable space group: P 43 21 2
;
_chemical_formula_sum "Si O2"
_cell_formula_units_Z 36
_cell_length_a 8.497050
_cell_length_b 8.497050
_cell_length_c 18.657886
_cell_angle_alpha 90.000000
_cell_angle_beta 90.000000
_cell_angle_gamma 90.000000
_cell_volume 1347.096733
_symmetry_space_group_name_H-M "P 43 21 2"
_symmetry_group_IT_number 96
_symmetry_cell_setting 'tetragonal'
loop_
_space_group_symop_operation_xyz
x,y,z
1/2-y,1/2+x,3/4+z
-x,-y,1/2+z
1/2+y,1/2-x,1/4+z
1/2+x,1/2-y,1/4-z
1/2-x,1/2+y,3/4-z
y,x,-z
-y,-x,1/2-z
loop_
_atom_site_type_symbol
_atom_site_label
_atom_site_fract_x
_atom_site_fract_y
_atom_site_fract_z
Si Si1 0.894284 0.797976 0.704895
Si Si2 0.080019 0.842416 0.893139
Si Si3 0.521500 0.792300 0.874232
Si Si4 0.376256 0.623745 0.750000
Si Si5 0.636267 0.837381 0.144345
O O1 0.822607 0.673646 0.647741
O O2 0.894174 0.702735 0.778366
O O3 0.051538 0.880636 0.676064
O O4 0.758412 0.932086 0.697257
O O5 0.906626 0.775497 0.905351
O O6 0.127467 0.962953 0.954610
O O7 0.404647 0.767464 0.805912
O O8 0.651877 0.657418 0.861595
O O9 0.597542 0.963568 0.878645
#
# Coordination Sequence:
#
# PCOD9551001 Si02
#       5
#     8   8   8   4   8
#     4  11  25  47  73 112 160 212 269 338 410 502
#     4  11  24  47  72 113 159 209 267 341 409 500
#     4  11  25  49  81 111 164 212 271 344 421 494
#     4  10  22  50  72 106 162 208 268 344 394 516
#     4  12  26  49  77 122 154 217 275 342 419 504
#
# _framework density 26.724139999999998
#
# number of rings (size 3 to 8) (size 9 to 14) (size 15 to 20)
#    0.000    0.889    2.222    4.667    0.000    3.556 
#   24.000    2.222    0.000    0.000    0.000    0.000 
#    0.000    0.000    0.000    0.000    0.000    0.000 
#
# Total GULP energy -201142.063051 kJ/mol
# GULP energy per Si atom -5587.279529 kJ/mol
# Density = 2.666332 g / cm^3
# Si number density = 26.724140 Si / 1000 Ang^3
#
#
#
# Elastic Constant Matrix: (Units=GPa)
#
#
# Indices 1 2 3 4 5 6 
#
# 1 43.5905 148.2134 23.7910 0.0000 0.0000 0.0000
# 2 148.2134 43.5899 23.7924 0.0000 0.0000 0.0000
# 3 23.7910 23.7924 95.4836 0.0000 0.0000 0.0000
# 4 0.0000 0.0000 0.0000 39.3781 0.0000 0.0000
# 5 0.0000 0.0000 0.0000 0.0000 39.3782 0.0000
# 6 0.0000 0.0000 0.0000 0.0000 0.0000 59.0923
#
#
#
# Elastic Compliance Matrix: (Units=1/GPa)
#
#
# Indices 1 2 3 4 5 6 
#
# 1 -0.002000 0.007558 -0.001385 0.000000 0.000000 0.000000
# 2 0.007558 -0.002000 -0.001385 0.000000 0.000000 0.000000
# 3 -0.001385 -0.001385 0.011163 0.000000 0.000000 0.000000
# 4 0.000000 0.000000 0.000000 0.025395 0.000000 0.000000
# 5 0.000000 0.000000 0.000000 0.000000 0.025395 0.000000
# 6 0.000000 0.000000 0.000000 0.000000 0.000000 0.016923
#
#
# Mechanical properties :
#
#
# Convention : Reuss Voigt Hill
#
# Bulk Modulus (GPa) = 59.74188 63.80638 61.77413
# Shear Modulus (GPa) = 70.54439 26.69421 48.61930
#
# Velocity S-wave (km/s) = 5.14340 3.16394 4.26996
# Velocity P-wave (km/s) = 7.59449 6.10533 6.89026
#
# Compressibility (1/GPa) = 0.01673868
#
# Stress axis : x y z
#
# Youngs Moduli (GPa) = -499.89219 -499.87558 89.58124
#
# Poissons Ratio (x) = 3.77788 0.12405
# Poissons Ratio (y) = 3.77801 0.12403
# Poissons Ratio (z) = -0.69223 -0.69213
#
# Static dielectric constant tensor:
#      x y z
#    x 2.121190 0.000000 0.000000 
#    y 0.000000 2.121190 0.000000 
#    z 0.000000 0.000000 2.226790 
# 
# From -- ./inp_files/3443.got.cif
#   From: 2010.05.17/outbox.cif.g08.bks.cpg/sg96_2_cif.got.tgz:3443.got - 2010.06.03 19:52:08.
