data_PCOD9551551
_publ_section_title
;
Structure prediction by ZEFSAII (Michael W. Deem and Ramdas Pophale) SiO2 
 PCOD9551551
Probable space group: I 4 2 2 
;
_chemical_formula_sum "Si O2"
_cell_formula_units_Z 56
_cell_length_a 13.631960
_cell_length_b 13.631960
_cell_length_c 12.481128
_cell_angle_alpha 90.000000
_cell_angle_beta 90.000000
_cell_angle_gamma 90.000000
_cell_volume 2319.372178
_symmetry_space_group_name_H-M "I 4 2 2 "
_symmetry_group_IT_number 97
_symmetry_cell_setting 'tetragonal'
loop_
_space_group_symop_operation_xyz
x,y,z
-y,x,z
-x,-y,z
y,-x,z
x,-y,-z
-x,y,-z
y,x,-z
-y,-x,-z
1/2+x,1/2+y,1/2+z
1/2-y,1/2+x,1/2+z
1/2-x,1/2-y,1/2+z
1/2+y,1/2-x,1/2+z
1/2+x,1/2-y,1/2-z
1/2-x,1/2+y,1/2-z
1/2+y,1/2+x,1/2-z
1/2-y,1/2-x,1/2-z
loop_
_atom_site_type_symbol
_atom_site_label
_atom_site_fract_x
_atom_site_fract_y
_atom_site_fract_z
Si Si1 0.699784 0.500000 0.500000
Si Si2 0.675813 0.161521 0.537737
Si Si3 0.450176 0.354234 0.726957
Si Si4 0.967646 0.347149 0.671548
O O1 0.765402 0.584875 0.554516
O O2 0.644230 0.450152 0.598297
O O3 0.771783 0.228218 0.500000
O O4 0.645806 0.095116 0.436490
O O5 0.673397 0.080939 0.634869
O O6 0.559100 0.381468 0.765616
O O7 0.426534 0.248673 0.768651
O O8 0.934092 0.434092 0.750000
#
# Coordination Sequence:
#
# PCOD9551551 Si02
#       4
#     8  16  16  16
#     4  12  24  42  68  98 138 182 236 295 375 440
#     4  11  25  47  72 104 150 194 242 309 384 457
#     4  11  23  42  68 101 138 185 246 308 370 450
#     4  11  24  46  71 105 146 191 250 301 384 465
#
# _framework density 24.144465
#
# number of rings (size 3 to 8) (size 9 to 14) (size 15 to 20)
#    0.000    0.857    2.857    4.286    0.000    4.571 
#    5.143    0.000    0.000    6.857    0.000    0.000 
#    0.000    0.000    0.000    0.000    0.000    0.000 
#
# Total GULP energy -156402.001346 kJ/mol
# GULP energy per Si atom -5585.785762 kJ/mol
# Density = 2.408951 g / cm^3
# Si number density = 24.144465 Si / 1000 Ang^3
#
#
#
# Elastic Constant Matrix: (Units=GPa)
#
#
# Indices 1 2 3 4 5 6 
#
# 1 101.0491 70.0300 25.5698 0.0000 0.0000 0.0000
# 2 70.0300 101.0500 25.5696 0.0000 0.0000 0.0000
# 3 25.5698 25.5696 89.0905 0.0000 0.0000 0.0000
# 4 0.0000 0.0000 0.0000 24.6459 0.0000 0.0000
# 5 0.0000 0.0000 0.0000 0.0000 24.6452 0.0000
# 6 0.0000 0.0000 0.0000 0.0000 0.0000 1430.9251
#
#
#
# Elastic Compliance Matrix: (Units=1/GPa)
#
#
# Indices 1 2 3 4 5 6 
#
# 1 0.019316 -0.012922 -0.001835 0.000000 0.000000 0.000000
# 2 -0.012922 0.019316 -0.001835 0.000000 0.000000 0.000000
# 3 -0.001835 -0.001835 0.012278 0.000000 0.000000 0.000000
# 4 0.000000 0.000000 0.000000 0.040575 0.000000 0.000000
# 5 0.000000 0.000000 0.000000 0.000000 0.040576 0.000000
# 6 0.000000 0.000000 0.000000 0.000000 0.000000 0.000699
#
#
# Mechanical properties :
#
#
# Convention : Reuss Voigt Hill
#
# Bulk Modulus (GPa) = 56.41690 59.28094 57.84892
# Shear Modulus (GPa) = 29.09489 307.37790 168.23639
#
# Velocity S-wave (km/s) = 3.47513 11.29532 8.35646
# Velocity P-wave (km/s) = 6.28642 13.95414 10.82214
#
# Compressibility (1/GPa) = 0.01772518
#
# Stress axis : x y z
#
# Youngs Moduli (GPa) = 51.77094 51.77147 81.44709
#
# Poissons Ratio (x) = 0.66899 0.14947
# Poissons Ratio (y) = 0.66898 0.14946
# Poissons Ratio (z) = 0.09501 0.09500
#
# Static dielectric constant tensor:
#      x y z
#    x 1.929260 0.000000 0.000000 
#    y 0.000000 1.929260 0.000000 
#    z 0.000000 0.000000 1.748920 
# 
# From -- ./inp_files/3277.got.cif
#   From: 2010.05.17/outbox.cif.g08.bks.cpg/sg97_2_cif.got.tgz:3277.got - 2010.06.03 19:55:32.
