data_PCOD9551050
_publ_section_title
;
Structure prediction by ZEFSAII (Michael W. Deem and Ramdas Pophale) SiO2 
 PCOD9551050
Probable space group: P 43 21 2
;
_chemical_formula_sum "Si O2"
_cell_formula_units_Z 32
_cell_length_a 10.059247
_cell_length_b 10.059247
_cell_length_c 14.417796
_cell_angle_alpha 90.000000
_cell_angle_beta 90.000000
_cell_angle_gamma 90.000000
_cell_volume 1458.914433
_symmetry_space_group_name_H-M "P 43 21 2"
_symmetry_group_IT_number 96
_symmetry_cell_setting 'tetragonal'
loop_
_space_group_symop_operation_xyz
x,y,z
1/2-y,1/2+x,3/4+z
-x,-y,1/2+z
1/2+y,1/2-x,1/4+z
1/2+x,1/2-y,1/4-z
1/2-x,1/2+y,3/4-z
y,x,-z
-y,-x,1/2-z
loop_
_atom_site_type_symbol
_atom_site_label
_atom_site_fract_x
_atom_site_fract_y
_atom_site_fract_z
Si Si1 0.561097 0.298869 0.937988
Si Si2 0.926130 0.758871 0.324475
Si Si3 0.728903 0.658940 0.189006
Si Si4 0.265515 0.265515 0.000000
Si Si5 0.044018 0.044018 0.500000
O O1 0.684168 0.194568 0.935439
O O2 0.582577 0.380635 0.843907
O O3 0.600711 0.389319 0.026954
O O4 0.411257 0.252862 0.952572
O O5 0.860999 0.656447 0.252081
O O6 0.843457 0.746165 0.419437
O O7 0.080916 0.744833 0.344409
O O8 0.609221 0.579714 0.235442
#
# Coordination Sequence:
#
# PCOD9551050 Si02
#       5
#     8   8   8   4   4
#     4  10  24  41  68 107 131 190 236 297 352 430
#     4  10  24  42  69 102 139 187 233 295 355 426
#     4  10  24  45  68 102 141 190 236 296 355 442
#     4  12  21  44  71  98 144 186 248 283 359 434
#     4  12  21  48  73 100 148 198 238 295 379 430
#
# _framework density 21.934117000000001
#
# number of rings (size 3 to 8) (size 9 to 14) (size 15 to 20)
#    1.500    0.000    2.500    2.250    3.500    2.000 
#    4.500    0.000    0.000    0.000    0.000    0.000 
#    0.000    0.000    0.000    0.000    0.000    0.000 
#
# Total GULP energy -178441.171532 kJ/mol
# GULP energy per Si atom -5576.286610 kJ/mol
# Density = 2.188419 g / cm^3
# Si number density = 21.934117 Si / 1000 Ang^3
#
#
#
# Elastic Constant Matrix: (Units=GPa)
#
#
# Indices 1 2 3 4 5 6 
#
# 1 83.9961 31.6270 7.6571 0.0000 0.0000 0.0000
# 2 31.6270 83.9961 7.6571 0.0000 0.0000 0.0000
# 3 7.6571 7.6571 75.9972 0.0000 0.0000 0.0000
# 4 0.0000 0.0000 0.0000 23.5288 0.0000 0.0000
# 5 0.0000 0.0000 0.0000 0.0000 23.5288 0.0000
# 6 0.0000 0.0000 0.0000 0.0000 0.0000 28.7908
#
#
#
# Elastic Compliance Matrix: (Units=1/GPa)
#
#
# Indices 1 2 3 4 5 6 
#
# 1 0.013930 -0.005165 -0.000883 0.000000 0.000000 0.000000
# 2 -0.005165 0.013930 -0.000883 0.000000 0.000000 0.000000
# 3 -0.000883 -0.000883 0.013336 0.000000 0.000000 0.000000
# 4 0.000000 0.000000 0.000000 0.042501 0.000000 0.000000
# 5 0.000000 0.000000 0.000000 0.000000 0.042501 0.000000
# 6 0.000000 0.000000 0.000000 0.000000 0.000000 0.034733
#
#
# Mechanical properties :
#
#
# Convention : Reuss Voigt Hill
#
# Bulk Modulus (GPa) = 36.58299 37.54131 37.06215
# Shear Modulus (GPa) = 27.18766 28.30621 27.74694
#
# Velocity S-wave (km/s) = 3.52449 3.59627 3.56056
# Velocity P-wave (km/s) = 5.76867 5.86488 5.81697
#
# Compressibility (1/GPa) = 0.02733511
#
# Stress axis : x y z
#
# Youngs Moduli (GPa) = 71.78495 71.78495 74.98301
#
# Poissons Ratio (x) = 0.37075 0.06622
# Poissons Ratio (y) = 0.37075 0.06622
# Poissons Ratio (z) = 0.06340 0.06340
#
# Static dielectric constant tensor:
#      x y z
#    x 1.832590 0.000000 0.000000 
#    y 0.000000 1.832590 0.000000 
#    z 0.000000 0.000000 1.831010 
# 
# From -- ./inp_files/2548.got.cif
#   From: 2010.05.17/outbox.cif.g08.bks.cpg/sg96_2_cif.got.tgz:2548.got - 2010.06.03 19:52:08.
