data_PCOD9551411
_publ_section_title
;
Structure prediction by ZEFSAII (Michael W. Deem and Ramdas Pophale) SiO2 
 PCOD9551411
Probable space group: I 4 2 2 
;
_chemical_formula_sum "Si O2"
_cell_formula_units_Z 108
_cell_length_a 15.162010
_cell_length_b 15.162010
_cell_length_c 24.436696
_cell_angle_alpha 90.000000
_cell_angle_beta 90.000000
_cell_angle_gamma 90.000000
_cell_volume 5617.667669
_symmetry_space_group_name_H-M "I 4 2 2 "
_symmetry_group_IT_number 97
_symmetry_cell_setting 'tetragonal'
loop_
_space_group_symop_operation_xyz
x,y,z
-y,x,z
-x,-y,z
y,-x,z
x,-y,-z
-x,y,-z
y,x,-z
-y,-x,-z
1/2+x,1/2+y,1/2+z
1/2-y,1/2+x,1/2+z
1/2-x,1/2-y,1/2+z
1/2+y,1/2-x,1/2+z
1/2+x,1/2-y,1/2-z
1/2-x,1/2+y,1/2-z
1/2+y,1/2+x,1/2-z
1/2-y,1/2-x,1/2-z
loop_
_atom_site_type_symbol
_atom_site_label
_atom_site_fract_x
_atom_site_fract_y
_atom_site_fract_z
Si Si1 0.500000 0.000000 0.500000
Si Si2 0.849249 0.000000 0.000000
Si Si3 0.859536 0.950291 0.339444
Si Si4 0.590663 0.885453 0.908219
Si Si5 0.465160 0.642503 0.712654
Si Si6 0.763565 0.092726 0.490185
Si Si7 0.910777 0.323368 0.396276
Si Si8 0.268279 0.024020 0.110676
O O1 0.552872 0.062942 0.459044
O O2 0.914405 0.085596 0.000000
O O3 0.788884 0.991421 0.054915
O O4 0.830450 0.951135 0.275643
O O5 0.775497 0.913743 0.372190
O O6 0.948023 0.891526 0.349661
O O7 0.499800 0.871658 0.875356
O O8 0.671373 0.936445 0.881426
O O9 0.607944 0.789109 0.934052
O O10 0.397879 0.562221 0.706328
O O11 0.457922 0.709893 0.663737
O O12 0.827109 0.172892 0.500000
O O13 0.692347 0.083821 0.538624
O O14 0.813764 0.000000 0.500000
O O15 0.830359 0.389840 0.391097
#
# Coordination Sequence:
#
# PCOD9551411 Si02
#       8
#     4   8  16  16  16  16  16  16
#     4  12  14  40  58  68 108 170 200 214 268 376
#     4  11  25  42  58  90 130 166 205 245 300 374
#     4   9  21  43  66  83 114 161 203 248 311 373
#     4  11  21  37  57  82 120 165 198 232 302 373
#     4   9  20  42  65  86 114 157 202 245 309 378
#     4  10  22  36  51  80 121 158 198 245 294 361
#     4  11  22  36  57  90 118 157 203 250 297 364
#     4  12  22  36  64  90 122 158 199 253 309 353
#
# _framework density 19.225061
#
# number of rings (size 3 to 8) (size 9 to 14) (size 15 to 20)
#    0.000    1.556    3.704    3.111    4.148    5.481 
#    0.000    0.741    0.000    1.778    0.000    0.000 
#    0.000    0.000    0.000    0.000    0.000    0.000 
#
# Total GULP energy -300872.607339 kJ/mol
# GULP energy per Si atom -5571.714951 kJ/mol
# Density = 1.918130 g / cm^3
# Si number density = 19.225061 Si / 1000 Ang^3
#
#
#
# Elastic Constant Matrix: (Units=GPa)
#
#
# Indices 1 2 3 4 5 6 
#
# 1 85.3157 33.9067 39.6141 0.0000 0.0000 0.0000
# 2 33.9067 85.3130 39.6134 0.0000 0.0000 0.0000
# 3 39.6141 39.6134 64.6227 0.0000 0.0000 0.0000
# 4 0.0000 0.0000 0.0000 23.7090 0.0000 0.0000
# 5 0.0000 0.0000 0.0000 0.0000 23.7087 0.0000
# 6 0.0000 0.0000 0.0000 0.0000 0.0000 39.8657
#
#
#
# Elastic Compliance Matrix: (Units=1/GPa)
#
#
# Indices 1 2 3 4 5 6 
#
# 1 0.016803 -0.002649 -0.008676 0.000000 0.000000 0.000000
# 2 -0.002649 0.016803 -0.008676 0.000000 0.000000 0.000000
# 3 -0.008676 -0.008676 0.026111 0.000000 0.000000 0.000000
# 4 0.000000 0.000000 0.000000 0.042178 0.000000 0.000000
# 5 0.000000 0.000000 0.000000 0.000000 0.042179 0.000000
# 6 0.000000 0.000000 0.000000 0.000000 0.000000 0.025084
#
#
# Mechanical properties :
#
#
# Convention : Reuss Voigt Hill
#
# Bulk Modulus (GPa) = 50.72563 51.27997 51.00280
# Shear Modulus (GPa) = 23.17686 25.59781 24.38734
#
# Velocity S-wave (km/s) = 3.47588 3.65291 3.56549
# Velocity P-wave (km/s) = 6.52314 6.67256 6.59827
#
# Compressibility (1/GPa) = 0.01971390
#
# Stress axis : x y z
#
# Youngs Moduli (GPa) = 59.51451 59.51277 38.29763
#
# Poissons Ratio (x) = 0.15768 0.33227
# Poissons Ratio (y) = 0.15768 0.33227
# Poissons Ratio (z) = 0.51635 0.51634
#
# Static dielectric constant tensor:
#      x y z
#    x 1.728790 0.000000 0.000000 
#    y 0.000000 1.728790 0.000000 
#    z 0.000000 0.000000 1.710750 
# 
# From -- ./inp_files/7297.got.cif
#   From: 2010.05.17/outbox.cif.g08.bks.cpg/sg97_4_cif.got.tgz:7297.got - 2010.06.03 19:55:32.
