data_PCOD9551751
_publ_section_title
;
Structure prediction by ZEFSAII (Michael W. Deem and Ramdas Pophale) SiO2 
 PCOD9551751
Probable space group: I 41 2 2
;
_chemical_formula_sum "Si O2"
_cell_formula_units_Z 112
_cell_length_a 19.644599
_cell_length_b 19.644599
_cell_length_c 17.538059
_cell_angle_alpha 90.000000
_cell_angle_beta 90.000000
_cell_angle_gamma 90.000000
_cell_volume 6768.117082
_symmetry_space_group_name_H-M "I 41 2 2"
_symmetry_group_IT_number 98
_symmetry_cell_setting 'tetragonal'
loop_
_space_group_symop_operation_xyz
x,y,z
-y,1/2+x,1/4+z
-x,-y,z
y,1/2-x,1/4+z
x,1/2-y,1/4-z
-x,1/2+y,1/4-z
y,x,-z
-y,-x,-z
1/2+x,1/2+y,1/2+z
1/2-y,x,3/4+z
1/2-x,1/2-y,1/2+z
1/2+y,-x,3/4+z
1/2+x,-y,3/4-z
1/2-x,y,3/4-z
1/2+y,1/2+x,1/2-z
1/2-y,1/2-x,1/2-z
loop_
_atom_site_type_symbol
_atom_site_label
_atom_site_fract_x
_atom_site_fract_y
_atom_site_fract_z
Si Si1 0.902591 0.623614 0.966271
Si Si2 0.483328 0.577071 0.271927
Si Si3 0.459160 0.391640 0.435089
Si Si4 0.322893 0.178874 0.158703
Si Si5 0.430316 0.819084 0.722025
Si Si6 0.824103 0.835246 0.857863
Si Si7 0.950333 0.162796 0.208518
O O1 0.886682 0.642326 0.879978
O O2 0.885307 0.543831 0.978656
O O3 0.849029 0.662129 0.019649
O O4 0.975133 0.647906 0.003246
O O5 0.500000 0.500000 0.248172
O O6 0.501982 0.582574 0.360911
O O7 0.403670 0.591858 0.264090
O O8 0.446857 0.446857 0.500000
O O9 0.505504 0.334916 0.474141
O O10 0.384986 0.367542 0.406616
O O11 0.352028 0.250000 0.125000
O O12 0.323626 0.176375 0.250000
O O13 0.244933 0.176449 0.130121
O O14 0.367388 0.867388 0.750000
O O15 0.420612 0.737370 0.727115
O O16 0.450993 0.837812 0.634443
O O17 0.750000 0.865124 0.875000
#
# Coordination Sequence:
#
# PCOD9551751 Si02
#       7
#    16  16  16  16  16  16  16
#     4  10  20  34  53  74 104 151 185 224 276 315
#     4   9  18  34  50  73 104 141 175 221 269 319
#     4  11  21  29  48  73 109 148 184 216 257 315
#     4  11  21  36  50  73 108 147 187 231 272 318
#     4  11  21  33  52  81 111 150 179 218 272 329
#     4  10  22  30  44  71 109 149 186 222 258 307
#     4  10  21  35  52  77 112 138 184 223 267 340
#
# _framework density 16.548178
#
# number of rings (size 3 to 8) (size 9 to 14) (size 15 to 20)
#    0.000    1.714    2.857    3.429    6.000    0.000 
#    0.000    0.000    0.000    3.857    3.714    0.000 
#    0.000    0.000    0.000    0.000    0.000    0.000 
#
# Total GULP energy -311788.104941 kJ/mol
# GULP energy per Si atom -5567.644731 kJ/mol
# Density = 1.651051 g / cm^3
# Si number density = 16.548178 Si / 1000 Ang^3
#
#
#
# Elastic Constant Matrix: (Units=GPa)
#
#
# Indices 1 2 3 4 5 6 
#
# 1 79.5220 41.0477 27.6670 0.0000 0.0000 0.0000
# 2 41.0477 79.5221 27.6670 0.0000 0.0000 0.0000
# 3 27.6670 27.6670 71.4394 0.0000 0.0000 0.0000
# 4 0.0000 0.0000 0.0000 10.3581 0.0000 0.0000
# 5 0.0000 0.0000 0.0000 0.0000 10.3581 0.0000
# 6 0.0000 0.0000 0.0000 0.0000 0.0000 14.2703
#
#
#
# Elastic Compliance Matrix: (Units=1/GPa)
#
#
# Indices 1 2 3 4 5 6 
#
# 1 0.018039 -0.007952 -0.003906 0.000000 0.000000 0.000000
# 2 -0.007952 0.018039 -0.003906 0.000000 0.000000 0.000000
# 3 -0.003906 -0.003906 0.017024 0.000000 0.000000 0.000000
# 4 0.000000 0.000000 0.000000 0.096543 0.000000 0.000000
# 5 0.000000 0.000000 0.000000 0.000000 0.096543 0.000000
# 6 0.000000 0.000000 0.000000 0.000000 0.000000 0.070075
#
#
# Mechanical properties :
#
#
# Convention : Reuss Voigt Hill
#
# Bulk Modulus (GPa) = 46.35736 47.02742 46.69239
# Shear Modulus (GPa) = 14.08518 15.93743 15.01130
#
# Velocity S-wave (km/s) = 2.92063 3.10674 3.01512
# Velocity P-wave (km/s) = 6.28075 6.43034 6.35599
#
# Compressibility (1/GPa) = 0.02157155
#
# Stress axis : x y z
#
# Youngs Moduli (GPa) = 55.43532 55.43536 58.74196
#
# Poissons Ratio (x) = 0.44084 0.22947
# Poissons Ratio (y) = 0.44084 0.22947
# Poissons Ratio (z) = 0.21655 0.21655
#
# Static dielectric constant tensor:
#      x y z
#    x 1.602050 0.000000 0.000000 
#    y 0.000000 1.602050 0.000000 
#    z 0.000000 0.000000 1.594510 
# 
# From -- ./inp_files/7896.got.cif
#   From: 2010.05.17/outbox.cif.g08.bks.cpg/sg98_4_cif.got.tgz:7896.got - 2010.06.03 20:00:51.
