data_PCOD9551357
_publ_section_title
;
Structure prediction by ZEFSAII (Michael W. Deem and Ramdas Pophale) SiO2 
 PCOD9551357
Probable space group: I 4 2 2 
;
_chemical_formula_sum "Si O2"
_cell_formula_units_Z 56
_cell_length_a 17.908339
_cell_length_b 17.908339
_cell_length_c 8.116852
_cell_angle_alpha 90.000000
_cell_angle_beta 90.000000
_cell_angle_gamma 90.000000
_cell_volume 2603.144288
_symmetry_space_group_name_H-M "I 4 2 2 "
_symmetry_group_IT_number 97
_symmetry_cell_setting 'tetragonal'
loop_
_space_group_symop_operation_xyz
x,y,z
-y,x,z
-x,-y,z
y,-x,z
x,-y,-z
-x,y,-z
y,x,-z
-y,-x,-z
1/2+x,1/2+y,1/2+z
1/2-y,1/2+x,1/2+z
1/2-x,1/2-y,1/2+z
1/2+y,1/2-x,1/2+z
1/2+x,1/2-y,1/2-z
1/2-x,1/2+y,1/2-z
1/2+y,1/2+x,1/2-z
1/2-y,1/2-x,1/2-z
loop_
_atom_site_type_symbol
_atom_site_label
_atom_site_fract_x
_atom_site_fract_y
_atom_site_fract_z
Si Si1 0.085196 0.584399 0.052204
Si Si2 0.278503 0.500000 0.500000
Si Si3 0.509091 0.625796 0.822062
Si Si4 0.165340 0.282886 0.929682
O O1 0.087644 0.587644 0.250000
O O2 0.151709 0.636655 0.983379
O O3 0.097121 0.500000 0.000000
O O4 0.000000 0.604385 0.000000
O O5 0.324784 0.520355 0.662824
O O6 0.242574 0.578602 0.439244
O O7 0.433841 0.576300 0.816233
O O8 0.500000 0.665286 0.000000
O O9 0.197712 0.302289 0.750000
O O10 0.220641 0.220641 0.000000
#
# Coordination Sequence:
#
# PCOD9551357 Si02
#       4
#    16   8  16  16
#     4  10  20  39  70 102 133 178 240 297 359 439
#     4  12  22  45  71  94 142 206 236 300 384 457
#     4   9  18  34  63 104 139 178 243 300 353 445
#     4  11  26  48  68 105 149 184 246 312 388 457
#
# _framework density 21.512445
#
# number of rings (size 3 to 8) (size 9 to 14) (size 15 to 20)
#    0.000    1.714    1.429    5.143    0.000    3.429 
#   10.286    1.429    0.000    0.000    0.000    0.000 
#    0.000    0.571    0.000    0.000    0.000    0.000 
#
# Total GULP energy -155905.005676 kJ/mol
# GULP energy per Si atom -5568.035917 kJ/mol
# Density = 2.146348 g / cm^3
# Si number density = 21.512445 Si / 1000 Ang^3
#
#
#
# Elastic Constant Matrix: (Units=GPa)
#
#
# Indices 1 2 3 4 5 6 
#
# 1 111.3436 83.3825 38.9608 0.0000 0.0000 0.0000
# 2 83.3825 111.3446 38.9607 0.0000 0.0000 0.0000
# 3 38.9608 38.9607 123.3482 0.0000 0.0000 0.0000
# 4 0.0000 0.0000 0.0000 34.5310 0.0000 0.0000
# 5 0.0000 0.0000 0.0000 0.0000 34.5293 0.0000
# 6 0.0000 0.0000 0.0000 0.0000 0.0000 46.3461
#
#
#
# Elastic Compliance Matrix: (Units=1/GPa)
#
#
# Indices 1 2 3 4 5 6 
#
# 1 0.020821 -0.014942 -0.001857 0.000000 0.000000 0.000000
# 2 -0.014942 0.020821 -0.001857 0.000000 0.000000 0.000000
# 3 -0.001857 -0.001857 0.009280 0.000000 0.000000 0.000000
# 4 0.000000 0.000000 0.000000 0.028959 0.000000 0.000000
# 5 0.000000 0.000000 0.000000 0.000000 0.028961 0.000000
# 6 0.000000 0.000000 0.000000 0.000000 0.000000 0.021577
#
#
# Mechanical properties :
#
#
# Convention : Reuss Voigt Hill
#
# Bulk Modulus (GPa) = 73.47605 74.29380 73.88493
# Shear Modulus (GPa) = 29.02462 35.39678 32.21070
#
# Velocity S-wave (km/s) = 3.67713 4.06077 3.87370
# Velocity P-wave (km/s) = 7.22895 7.52307 7.37748
#
# Compressibility (1/GPa) = 0.01360988
#
# Stress axis : x y z
#
# Youngs Moduli (GPa) = 48.02850 48.02899 107.75780
#
# Poissons Ratio (x) = 0.71767 0.20008
# Poissons Ratio (y) = 0.71766 0.20007
# Poissons Ratio (z) = 0.08918 0.08918
#
# Static dielectric constant tensor:
#      x y z
#    x 1.844320 0.000000 0.000000 
#    y 0.000000 1.844320 0.000000 
#    z 0.000000 0.000000 1.777090 
# 
# From -- ./inp_files/1803.got.cif
#   From: 2010.05.17/outbox.cif.g08.bks.cpg/sg97_1_cif.got.tgz:1803.got - 2010.06.03 19:55:32.
