data_PCOD9551483
_publ_section_title
;
Structure prediction by ZEFSAII (Michael W. Deem and Ramdas Pophale) SiO2 
 PCOD9551483
Probable space group: I 4 2 2 
;
_chemical_formula_sum "Si O2"
_cell_formula_units_Z 72
_cell_length_a 11.380425
_cell_length_b 11.380425
_cell_length_c 26.537732
_cell_angle_alpha 90.000000
_cell_angle_beta 90.000000
_cell_angle_gamma 90.000000
_cell_volume 3437.009764
_symmetry_space_group_name_H-M "I 4 2 2 "
_symmetry_group_IT_number 97
_symmetry_cell_setting 'tetragonal'
loop_
_space_group_symop_operation_xyz
x,y,z
-y,x,z
-x,-y,z
y,-x,z
x,-y,-z
-x,y,-z
y,x,-z
-y,-x,-z
1/2+x,1/2+y,1/2+z
1/2-y,1/2+x,1/2+z
1/2-x,1/2-y,1/2+z
1/2+y,1/2-x,1/2+z
1/2+x,1/2-y,1/2-z
1/2-x,1/2+y,1/2-z
1/2+y,1/2+x,1/2-z
1/2-y,1/2-x,1/2-z
loop_
_atom_site_type_symbol
_atom_site_label
_atom_site_fract_x
_atom_site_fract_y
_atom_site_fract_z
Si Si1 0.834768 0.636957 0.666839
Si Si2 0.253951 0.746050 0.500000
Si Si3 0.831425 0.500000 0.000000
Si Si4 0.353725 0.633122 0.600071
Si Si5 0.193880 0.041637 0.260058
Si Si6 0.000000 0.500000 0.590316
O O1 0.657738 0.506230 0.605367
O O2 0.722299 0.699918 0.640957
O O3 0.925865 0.728727 0.691252
O O4 0.778462 0.561660 0.712231
O O5 0.267492 0.881606 0.514985
O O6 0.302087 0.670984 0.546719
O O7 0.903791 0.458891 0.950572
O O8 0.096998 0.441661 0.625986
O O9 0.086249 0.134940 0.258495
#
# Coordination Sequence:
#
# PCOD9551483 Si02
#       6
#    16   8   8  16  16   8
#     4  11  23  42  71  98 134 183 223 285 356 418
#     4  12  24  44  66  98 130 194 226 294 336 414
#     4  11  26  45  68  94 146 175 239 282 346 418
#     4  11  23  40  66 101 136 176 233 293 352 409
#     4  10  24  44  65 100 137 175 229 287 343 424
#     4  11  24  45  64 104 134 181 222 299 338 418
#
# _framework density 20.948443000000001
#
# number of rings (size 3 to 8) (size 9 to 14) (size 15 to 20)
#    0.000    1.111    2.222    3.333    3.111   11.778 
#    0.000    0.000    0.000    0.000    0.000    0.000 
#    0.000    0.000    0.000    0.000    0.000    0.000 
#
# Total GULP energy -200989.117135 kJ/mol
# GULP energy per Si atom -5583.031032 kJ/mol
# Density = 2.090076 g / cm^3
# Si number density = 20.948443 Si / 1000 Ang^3
#
#
#
# Elastic Constant Matrix: (Units=GPa)
#
#
# Indices 1 2 3 4 5 6 
#
# 1 72.7313 35.5517 29.0466 0.0000 0.0000 0.0000
# 2 35.5517 72.7327 29.0469 0.0000 0.0000 0.0000
# 3 29.0466 29.0469 112.2556 0.0000 0.0000 0.0000
# 4 0.0000 0.0000 0.0000 35.0478 0.0000 0.0000
# 5 0.0000 0.0000 0.0000 0.0000 35.0478 0.0000
# 6 0.0000 0.0000 0.0000 0.0000 0.0000 9.6774
#
#
#
# Elastic Compliance Matrix: (Units=1/GPa)
#
#
# Indices 1 2 3 4 5 6 
#
# 1 0.018810 -0.008086 -0.002775 0.000000 0.000000 0.000000
# 2 -0.008086 0.018810 -0.002775 0.000000 0.000000 0.000000
# 3 -0.002775 -0.002775 0.010344 0.000000 0.000000 0.000000
# 4 0.000000 0.000000 0.000000 0.028532 0.000000 0.000000
# 5 0.000000 0.000000 0.000000 0.000000 0.028532 0.000000
# 6 0.000000 0.000000 0.000000 0.000000 0.000000 0.103333
#
#
# Mechanical properties :
#
#
# Convention : Reuss Voigt Hill
#
# Bulk Modulus (GPa) = 48.32703 49.44553 48.88628
# Shear Modulus (GPa) = 20.61592 26.89290 23.75441
#
# Velocity S-wave (km/s) = 3.14048 3.58686 3.37107
# Velocity P-wave (km/s) = 6.02244 6.38817 6.20800
#
# Compressibility (1/GPa) = 0.02069235
#
# Stress axis : x y z
#
# Youngs Moduli (GPa) = 53.16325 53.16424 96.67230
#
# Poissons Ratio (x) = 0.42989 0.26825
# Poissons Ratio (y) = 0.42989 0.26825
# Poissons Ratio (z) = 0.14752 0.14752
#
# Static dielectric constant tensor:
#      x y z
#    x 1.776080 0.000000 0.000000 
#    y 0.000000 1.776080 0.000000 
#    z 0.000000 0.000000 1.749420 
# 
# From -- ./inp_files/7610.got.cif
#   From: 2010.05.17/outbox.cif.g08.bks.cpg/sg97_4_cif.got.tgz:7610.got - 2010.06.03 19:55:32.
