data_PCOD9551553
_publ_section_title
;
Structure prediction by ZEFSAII (Michael W. Deem and Ramdas Pophale) SiO2 
 PCOD9551553
Probable space group: I 4 2 2 
;
_chemical_formula_sum "Si O2"
_cell_formula_units_Z 84
_cell_length_a 18.930247
_cell_length_b 18.930247
_cell_length_c 11.670172
_cell_angle_alpha 90.000000
_cell_angle_beta 90.000000
_cell_angle_gamma 90.000000
_cell_volume 4182.055752
_symmetry_space_group_name_H-M "I 4 2 2 "
_symmetry_group_IT_number 97
_symmetry_cell_setting 'tetragonal'
loop_
_space_group_symop_operation_xyz
x,y,z
-y,x,z
-x,-y,z
y,-x,z
x,-y,-z
-x,y,-z
y,x,-z
-y,-x,-z
1/2+x,1/2+y,1/2+z
1/2-y,1/2+x,1/2+z
1/2-x,1/2-y,1/2+z
1/2+y,1/2-x,1/2+z
1/2+x,1/2-y,1/2-z
1/2-x,1/2+y,1/2-z
1/2+y,1/2+x,1/2-z
1/2-y,1/2-x,1/2-z
loop_
_atom_site_type_symbol
_atom_site_label
_atom_site_fract_x
_atom_site_fract_y
_atom_site_fract_z
Si Si1 0.078371 0.240398 0.980348
Si Si2 0.219377 0.604018 0.741349
Si Si3 0.464333 0.757431 0.888881
Si Si4 0.893106 0.399490 0.384712
Si Si5 0.214428 0.165266 0.240243
Si Si6 0.500000 0.000000 0.500000
O O1 0.072574 0.317881 0.924141
O O2 0.133557 0.205238 0.889870
O O3 0.102339 0.258678 0.108231
O O4 0.000000 0.207462 0.000000
O O5 0.144844 0.644844 0.750000
O O6 0.220202 0.528216 0.803256
O O7 0.281811 0.654681 0.787621
O O8 0.420147 0.825197 0.935203
O O9 0.404914 0.716869 0.817433
O O10 0.500000 0.722555 0.000000
O O11 0.891461 0.391461 0.250000
O O12 0.951206 0.454188 0.420316
O O13 0.285972 0.214029 0.250000
#
# Coordination Sequence:
#
# PCOD9551553 Si02
#       6
#    16  16  16  16  16   4
#     4  12  20  40  64  91 127 166 205 255 316 376
#     4  11  26  39  64  96 122 165 216 260 312 386
#     4  12  23  41  62  86 125 163 205 263 312 371
#     4  12  22  36  55  84 126 168 205 245 298 366
#     4  11  23  43  64  91 129 165 208 264 318 369
#     4  12  26  32  52  86 124 180 206 236 286 376
#
# _framework density 20.085813999999999
#
# number of rings (size 3 to 8) (size 9 to 14) (size 15 to 20)
#    0.000    0.381    7.619    2.000    0.000    0.762 
#    0.000    0.000    0.000    0.571    0.000    2.667 
#    0.000    0.000    0.000    0.000    0.000    0.000 
#
# Total GULP energy -234322.119110 kJ/mol
# GULP energy per Si atom -5579.098074 kJ/mol
# Density = 2.004010 g / cm^3
# Si number density = 20.085814 Si / 1000 Ang^3
#
#
#
# Elastic Constant Matrix: (Units=GPa)
#
#
# Indices 1 2 3 4 5 6 
#
# 1 52.0094 14.0709 2.1417 0.0000 0.0000 0.0000
# 2 14.0709 52.0098 2.1413 0.0000 0.0000 0.0000
# 3 2.1417 2.1413 78.4559 0.0000 0.0000 0.0000
# 4 0.0000 0.0000 0.0000 21.9301 0.0000 0.0000
# 5 0.0000 0.0000 0.0000 0.0000 21.9303 0.0000
# 6 0.0000 0.0000 0.0000 0.0000 0.0000 54.1520
#
#
#
# Elastic Compliance Matrix: (Units=1/GPa)
#
#
# Indices 1 2 3 4 5 6 
#
# 1 0.020759 -0.005599 -0.000414 0.000000 0.000000 0.000000
# 2 -0.005599 0.020759 -0.000414 0.000000 0.000000 0.000000
# 3 -0.000414 -0.000414 0.012769 0.000000 0.000000 0.000000
# 4 0.000000 0.000000 0.000000 0.045599 0.000000 0.000000
# 5 0.000000 0.000000 0.000000 0.000000 0.045599 0.000000
# 6 0.000000 0.000000 0.000000 0.000000 0.000000 0.018467
#
#
# Mechanical properties :
#
#
# Convention : Reuss Voigt Hill
#
# Bulk Modulus (GPa) = 24.13524 24.35364 24.24444
# Shear Modulus (GPa) = 26.23070 30.54391 28.38730
#
# Velocity S-wave (km/s) = 3.61769 3.90381 3.76347
# Velocity P-wave (km/s) = 5.43069 5.69831 5.56611
#
# Compressibility (1/GPa) = 0.04143319
#
# Stress axis : x y z
#
# Youngs Moduli (GPa) = 48.17145 48.17183 78.31706
#
# Poissons Ratio (x) = 0.26973 0.03241
# Poissons Ratio (y) = 0.26972 0.03240
# Poissons Ratio (z) = 0.01994 0.01993
#
# Static dielectric constant tensor:
#      x y z
#    x 1.720570 0.000000 0.000000 
#    y 0.000000 1.720570 0.000000 
#    z 0.000000 0.000000 1.775800 
# 
# From -- ./inp_files/3833.got.cif
#   From: 2010.05.17/outbox.cif.g08.bks.cpg/sg97_2_cif.got.tgz:3833.got - 2010.06.03 19:55:32.
