data_PCOD9551324
_publ_section_title
;
Structure prediction by ZEFSAII (Michael W. Deem and Ramdas Pophale) SiO2 
 PCOD9551324
Probable space group: I 4 2 2 
;
_chemical_formula_sum "Si O2"
_cell_formula_units_Z 120
_cell_length_a 27.311044
_cell_length_b 27.311044
_cell_length_c 7.919802
_cell_angle_alpha 90.000000
_cell_angle_beta 90.000000
_cell_angle_gamma 90.000000
_cell_volume 5907.325858
_symmetry_space_group_name_H-M "I 4 2 2 "
_symmetry_group_IT_number 97
_symmetry_cell_setting 'tetragonal'
loop_
_space_group_symop_operation_xyz
x,y,z
-y,x,z
-x,-y,z
y,-x,z
x,-y,-z
-x,y,-z
y,x,-z
-y,-x,-z
1/2+x,1/2+y,1/2+z
1/2-y,1/2+x,1/2+z
1/2-x,1/2-y,1/2+z
1/2+y,1/2-x,1/2+z
1/2+x,1/2-y,1/2-z
1/2-x,1/2+y,1/2-z
1/2+y,1/2+x,1/2-z
1/2-y,1/2-x,1/2-z
loop_
_atom_site_type_symbol
_atom_site_label
_atom_site_fract_x
_atom_site_fract_y
_atom_site_fract_z
Si Si1 0.890107 0.707919 0.230769
Si Si2 0.044533 0.203306 0.212397
Si Si3 0.644337 0.365697 0.798614
Si Si4 0.596001 0.904000 0.750000
Si Si5 0.209302 0.934779 0.812902
Si Si6 0.618305 0.808767 0.341746
Si Si7 0.095514 0.447723 0.588940
Si Si8 0.265189 0.305172 0.171112
O O1 0.929963 0.747833 0.281112
O O2 0.910994 0.654195 0.248564
O O3 0.843864 0.721272 0.345669
O O4 0.872196 0.708953 0.034794
O O5 0.078036 0.156834 0.259541
O O6 0.988365 0.202506 0.267438
O O7 0.052252 0.210805 0.011484
O O8 0.598578 0.337881 0.720035
O O9 0.692176 0.335159 0.734500
O O10 0.639219 0.360782 0.000000
O O11 0.579635 0.926500 0.574172
O O12 0.259437 0.905860 0.762028
O O13 0.664764 0.835237 0.250000
O O14 0.578067 0.852869 0.357773
O O15 0.105101 0.500000 0.500000
O O16 0.059890 0.440111 0.750000
O O17 0.243254 0.256747 0.250000
O O18 0.289035 0.289035 0.000000
#
# Coordination Sequence:
#
# PCOD9551324 Si02
#       8
#    16  16  16   8  16  16  16  16
#     4   9  18  36  59  80 118 160 198 252 305 368
#     4   9  20  37  61  88 114 156 207 251 300 370
#     4  10  22  38  54  81 124 154 194 252 304 366
#     4  10  20  38  67  86 126 162 204 268 324 384
#     4  10  20  36  63  89 115 160 203 248 312 364
#     4   9  20  35  60  93 123 159 206 259 316 380
#     4  10  23  43  66  95 125 162 215 272 336 390
#     4  10  21  35  50  76 113 156 198 237 295 358
#
# _framework density 20.313759999999998
#
# number of rings (size 3 to 8) (size 9 to 14) (size 15 to 20)
#    0.000    2.400    0.667    0.400    5.600    6.933 
#    9.600    1.000    0.000    0.400    0.000    2.800 
#    0.000    0.000    0.000    0.000    0.000    0.000 
#
# Total GULP energy -334263.450987 kJ/mol
# GULP energy per Si atom -5571.057516 kJ/mol
# Density = 2.026752 g / cm^3
# Si number density = 20.313760 Si / 1000 Ang^3
#
#
#
# Elastic Constant Matrix: (Units=GPa)
#
#
# Indices 1 2 3 4 5 6 
#
# 1 67.6483 88.8893 21.1640 0.0000 0.0000 0.0000
# 2 88.8893 67.6552 21.1633 0.0000 0.0000 0.0000
# 3 21.1640 21.1633 59.3113 0.0000 0.0000 0.0000
# 4 0.0000 0.0000 0.0000 -0.3393 0.0000 0.0000
# 5 0.0000 0.0000 0.0000 0.0000 -0.4050 0.0000
# 6 0.0000 0.0000 0.0000 0.0000 0.0000 17.6453
#
#
#
# Elastic Compliance Matrix: (Units=1/GPa)
#
#
# Indices 1 2 3 4 5 6 
#
# 1 -0.020009 0.027078 -0.002522 0.000000 0.000000 0.000000
# 2 0.027078 -0.020007 -0.002524 0.000000 0.000000 0.000000
# 3 -0.002522 -0.002524 0.018661 0.000000 0.000000 0.000000
# 4 0.000000 0.000000 0.000000 -2.947526 0.000000 0.000000
# 5 0.000000 0.000000 0.000000 0.000000 -2.469234 0.000000
# 6 0.000000 0.000000 0.000000 0.000000 0.000000 0.056672
#
#
# Mechanical properties :
#
#
# Convention : Reuss Voigt Hill
#
# Bulk Modulus (GPa) = 44.03390 50.78312 47.40851
# Shear Modulus (GPa) = -0.92286 7.60676 3.34195
#
# Velocity S-wave (km/s) = -0.67475 1.93721 1.28403
# Velocity P-wave (km/s) = 4.59531 5.48246 5.05837
#
# Compressibility (1/GPa) = 0.02270977
#
# Stress axis : x y z
#
# Youngs Moduli (GPa) = -49.97688 -49.98301 53.58888
#
# Poissons Ratio (x) = 1.35345 0.13516
# Poissons Ratio (y) = 1.35329 0.13523
# Poissons Ratio (z) = -0.12605 -0.12613
#
# Static dielectric constant tensor:
#      x y z
#    x 2.117910 0.000000 0.000000 
#    y 0.000000 2.118870 0.000000 
#    z 0.000000 0.000000 1.743430 
# 
# From -- ./inp_files/2668.got.cif
#   From: 2010.05.17/outbox.cif.g08.bks.cpg/sg97_2_cif.got.tgz:2668.got - 2010.06.03 19:55:32.
