data_PCOD9551978
_publ_section_title
;
Structure prediction by ZEFSAII (Michael W. Deem and Ramdas Pophale) SiO2 
 PCOD9551978
Probable space group: I 41 2 2
;
_chemical_formula_sum "Si O2"
_cell_formula_units_Z 64
_cell_length_a 11.201595
_cell_length_b 11.201595
_cell_length_c 24.754579
_cell_angle_alpha 90.000000
_cell_angle_beta 90.000000
_cell_angle_gamma 90.000000
_cell_volume 3106.098884
_symmetry_space_group_name_H-M "I 41 2 2"
_symmetry_group_IT_number 98
_symmetry_cell_setting 'tetragonal'
loop_
_space_group_symop_operation_xyz
x,y,z
-y,1/2+x,1/4+z
-x,-y,z
y,1/2-x,1/4+z
x,1/2-y,1/4-z
-x,1/2+y,1/4-z
y,x,-z
-y,-x,-z
1/2+x,1/2+y,1/2+z
1/2-y,x,3/4+z
1/2-x,1/2-y,1/2+z
1/2+y,-x,3/4+z
1/2+x,-y,3/4-z
1/2-x,y,3/4-z
1/2+y,1/2+x,1/2-z
1/2-y,1/2-x,1/2-z
loop_
_atom_site_type_symbol
_atom_site_label
_atom_site_fract_x
_atom_site_fract_y
_atom_site_fract_z
Si Si1 0.643654 0.674202 0.832609
Si Si2 0.362778 0.862778 0.250000
Si Si3 0.887243 0.914032 0.882564
Si Si4 0.482867 0.357853 0.268041
Si Si5 0.000000 0.000000 0.593565
O O1 0.750000 0.674859 0.875000
O O2 0.612325 0.811335 0.822625
O O3 0.679771 0.607011 0.778705
O O4 0.543649 0.601557 0.865274
O O5 0.400488 0.726069 0.262425
O O6 0.439953 0.905405 0.197787
O O7 0.750000 0.961948 0.875000
O O8 0.922364 0.847851 0.826406
O O9 0.000000 0.000000 0.891719
O O10 0.500000 0.500000 0.260959
#
# Coordination Sequence:
#
# PCOD9551978 Si02
#       5
#    16   8  16  16   8
#     4  11  21  37  64  93 129 166 216 273 328 395
#     4  11  22  38  64  94 126 169 214 266 343 382
#     4  10  24  45  64  89 132 178 222 275 338 406
#     4  11  23  41  62  98 135 168 221 275 332 410
#     4  11  20  34  60  96 120 158 210 267 326 384
#
# _framework density 20.604623
#
# number of rings (size 3 to 8) (size 9 to 14) (size 15 to 20)
#    0.000    1.250    6.250    0.000    0.000    4.000 
#    9.000    2.500    0.000    0.000    0.000    0.000 
#    0.000    0.000    0.000    0.000    0.000    0.000 
#
# Total GULP energy -178364.858021 kJ/mol
# GULP energy per Si atom -5573.901813 kJ/mol
# Density = 2.055773 g / cm^3
# Si number density = 20.604623 Si / 1000 Ang^3
#
#
#
# Elastic Constant Matrix: (Units=GPa)
#
#
# Indices 1 2 3 4 5 6 
#
# 1 110.2996 69.1757 6.1874 0.0000 0.0000 0.0000
# 2 69.1757 110.2996 6.1874 0.0000 0.0000 0.0000
# 3 6.1874 6.1874 42.5449 0.0000 0.0000 0.0000
# 4 0.0000 0.0000 0.0000 15.5113 0.0000 0.0000
# 5 0.0000 0.0000 0.0000 0.0000 15.5113 0.0000
# 6 0.0000 0.0000 0.0000 0.0000 0.0000 27.9154
#
#
#
# Elastic Compliance Matrix: (Units=1/GPa)
#
#
# Indices 1 2 3 4 5 6 
#
# 1 0.014972 -0.009344 -0.000819 0.000000 0.000000 0.000000
# 2 -0.009344 0.014972 -0.000819 0.000000 0.000000 0.000000
# 3 -0.000819 -0.000819 0.023743 0.000000 0.000000 0.000000
# 4 0.000000 0.000000 0.000000 0.064469 0.000000 0.000000
# 5 0.000000 0.000000 0.000000 0.000000 0.064469 0.000000
# 6 0.000000 0.000000 0.000000 0.000000 0.000000 0.035822
#
#
# Mechanical properties :
#
#
# Convention : Reuss Voigt Hill
#
# Bulk Modulus (GPa) = 31.52086 47.36055 39.44070
# Shear Modulus (GPa) = 19.92141 23.89384 21.90762
#
# Velocity S-wave (km/s) = 3.11278 3.40904 3.26427
# Velocity P-wave (km/s) = 5.31511 6.20731 5.77845
#
# Compressibility (1/GPa) = 0.03172502
#
# Stress axis : x y z
#
# Youngs Moduli (GPa) = 66.78918 66.78918 42.11833
#
# Poissons Ratio (x) = 0.62409 0.03447
# Poissons Ratio (y) = 0.62409 0.03447
# Poissons Ratio (z) = 0.05467 0.05467
#
# Static dielectric constant tensor:
#      x y z
#    x 1.844000 0.000000 0.000000 
#    y 0.000000 1.844000 0.000000 
#    z 0.000000 0.000000 1.733150 
# 
# From -- ./inp_files/10714.got.cif
#   From: 2010.05.17/outbox.cif.g08.bks.cpg/sg98_6_cif.got.tgz:10714.got - 2010.06.03 20:00:51.
