data_PCOD9551107
_publ_section_title
;
Structure prediction by ZEFSAII (Michael W. Deem and Ramdas Pophale) SiO2 
 PCOD9551107
Probable space group: P 43 21 2
;
_chemical_formula_sum "Si O2"
_cell_formula_units_Z 40
_cell_length_a 13.062601
_cell_length_b 13.062601
_cell_length_c 8.949635
_cell_angle_alpha 90.000000
_cell_angle_beta 90.000000
_cell_angle_gamma 90.000000
_cell_volume 1527.090046
_symmetry_space_group_name_H-M "P 43 21 2"
_symmetry_group_IT_number 96
_symmetry_cell_setting 'tetragonal'
loop_
_space_group_symop_operation_xyz
x,y,z
1/2-y,1/2+x,3/4+z
-x,-y,1/2+z
1/2+y,1/2-x,1/4+z
1/2+x,1/2-y,1/4-z
1/2-x,1/2+y,3/4-z
y,x,-z
-y,-x,1/2-z
loop_
_atom_site_type_symbol
_atom_site_label
_atom_site_fract_x
_atom_site_fract_y
_atom_site_fract_z
Si Si1 0.105751 0.829790 0.914349
Si Si2 0.738487 0.354139 0.401095
Si Si3 0.616690 0.024306 0.441419
Si Si4 0.630921 0.470788 0.918957
Si Si5 0.373297 0.241362 0.411125
O O1 0.127528 0.872473 0.750000
O O2 0.161009 0.718187 0.927125
O O3 0.996164 0.853533 0.990419
O O4 0.174073 0.888584 0.034106
O O5 0.690301 0.309700 0.250000
O O6 0.785488 0.465428 0.375201
O O7 0.642647 0.356917 0.985881
O O8 0.554915 0.060241 0.299110
O O9 0.642391 0.114263 0.560240
O O10 0.533924 0.533924 0.000000
O O11 0.731877 0.534525 0.978895
O O12 0.270085 0.270085 0.500000
#
# Coordination Sequence:
#
# PCOD9551107 Si02
#       5
#     8   8   8   8   8
#     4   9  19  38  75 114 154 202 271 348 420 513
#     4  11  21  43  78 112 158 223 280 335 425 510
#     4  12  27  47  76 116 165 224 278 350 425 517
#     4   9  20  41  76 107 151 207 263 348 418 487
#     4   9  20  42  74 104 147 204 264 333 402 485
#
# _framework density 26.19361
#
# number of rings (size 3 to 8) (size 9 to 14) (size 15 to 20)
#    0.000    2.400    2.000    2.400    0.000    3.200 
#    0.000    4.000   17.600   14.400    0.000    0.000 
#    0.000    0.000    0.000    0.000    0.000    0.000 
#
# Total GULP energy -223084.568529 kJ/mol
# GULP energy per Si atom -5577.114213 kJ/mol
# Density = 2.613399 g / cm^3
# Si number density = 26.193610 Si / 1000 Ang^3
#
#
#
# Elastic Constant Matrix: (Units=GPa)
#
#
# Indices 1 2 3 4 5 6 
#
# 1 116.4889 84.5726 66.0372 0.0000 0.0000 0.0000
# 2 84.5726 116.4890 66.0369 0.0000 0.0000 0.0000
# 3 66.0372 66.0369 182.3905 0.0000 0.0000 0.0000
# 4 0.0000 0.0000 0.0000 25.3653 0.0000 0.0000
# 5 0.0000 0.0000 0.0000 0.0000 25.3644 0.0000
# 6 0.0000 0.0000 0.0000 0.0000 0.0000 442.6497
#
#
#
# Elastic Compliance Matrix: (Units=1/GPa)
#
#
# Indices 1 2 3 4 5 6 
#
# 1 0.018929 -0.012403 -0.002363 0.000000 0.000000 0.000000
# 2 -0.012403 0.018929 -0.002363 0.000000 0.000000 0.000000
# 3 -0.002363 -0.002363 0.007194 0.000000 0.000000 0.000000
# 4 0.000000 0.000000 0.000000 0.039424 0.000000 0.000000
# 5 0.000000 0.000000 0.000000 0.000000 0.039425 0.000000
# 6 0.000000 0.000000 0.000000 0.000000 0.000000 0.002259
#
#
# Mechanical properties :
#
#
# Convention : Reuss Voigt Hill
#
# Bulk Modulus (GPa) = 92.64319 94.29574 93.46947
# Shear Modulus (GPa) = 30.48513 111.92401 71.20457
#
# Velocity S-wave (km/s) = 3.41521 6.54387 5.21948
# Velocity P-wave (km/s) = 7.14121 9.65267 8.49032
#
# Compressibility (1/GPa) = 0.01079410
#
# Stress axis : x y z
#
# Youngs Moduli (GPa) = 52.82966 52.82985 139.01187
#
# Poissons Ratio (x) = 0.65525 0.32845
# Poissons Ratio (y) = 0.65525 0.32844
# Poissons Ratio (z) = 0.12482 0.12482
#
# Static dielectric constant tensor:
#      x y z
#    x 2.208560 0.000000 0.000000 
#    y 0.000000 2.208560 0.000000 
#    z 0.000000 0.000000 2.082310 
# 
# From -- ./inp_files/1345.got.cif
#   From: 2010.05.17/outbox.cif.g08.bks.cpg/sg96_1_cif.got.tgz:1345.got - 2010.06.03 19:52:08.
