data_PCOD9551238
_publ_section_title
;
Structure prediction by ZEFSAII (Michael W. Deem and Ramdas Pophale) SiO2 
 PCOD9551238
Probable space group: I 4 2 2 
;
_chemical_formula_sum "Si O2"
_cell_formula_units_Z 48
_cell_length_a 13.662693
_cell_length_b 13.662693
_cell_length_c 13.653219
_cell_angle_alpha 90.000000
_cell_angle_beta 90.000000
_cell_angle_gamma 90.000000
_cell_volume 2548.635195
_symmetry_space_group_name_H-M "I 4 2 2 "
_symmetry_group_IT_number 97
_symmetry_cell_setting 'tetragonal'
loop_
_space_group_symop_operation_xyz
x,y,z
-y,x,z
-x,-y,z
y,-x,z
x,-y,-z
-x,y,-z
y,x,-z
-y,-x,-z
1/2+x,1/2+y,1/2+z
1/2-y,1/2+x,1/2+z
1/2-x,1/2-y,1/2+z
1/2+y,1/2-x,1/2+z
1/2+x,1/2-y,1/2-z
1/2-x,1/2+y,1/2-z
1/2+y,1/2+x,1/2-z
1/2-y,1/2-x,1/2-z
loop_
_atom_site_type_symbol
_atom_site_label
_atom_site_fract_x
_atom_site_fract_y
_atom_site_fract_z
Si Si1 0.184576 0.184576 0.000000
Si Si2 0.887802 0.393730 0.966317
Si Si3 0.870206 0.904670 0.793940
Si Si4 0.335758 0.835758 0.250000
O O1 0.300027 0.165987 0.013185
O O2 0.150870 0.120906 0.907432
O O3 0.883018 0.377736 0.849110
O O4 0.849523 0.500000 0.000000
O O5 0.000000 0.388266 0.000000
O O6 0.779953 0.854410 0.739870
O O7 0.979481 0.867950 0.773698
#
# Coordination Sequence:
#
# PCOD9551238 Si02
#       4
#     8  16  16   8
#     4  10  18  35  58  83 114 148 192 242 288 341
#     4  10  22  38  58  86 118 156 198 244 299 354
#     4  10  20  35  58  86 114 148 191 239 292 348
#     4  10  22  37  56  87 120 150 194 252 300 345
#
# _framework density 18.833608000000002
#
# number of rings (size 3 to 8) (size 9 to 14) (size 15 to 20)
#    0.000    2.000    0.000    5.000    0.000    9.333 
#    0.000    0.000    0.000    0.500    0.000    0.000 
#    0.000    0.000    0.000    0.000    0.000    0.000 
#
# Total GULP energy -133879.687838 kJ/mol
# GULP energy per Si atom -5578.320327 kJ/mol
# Density = 1.879074 g / cm^3
# Si number density = 18.833608 Si / 1000 Ang^3
#
#
#
# Elastic Constant Matrix: (Units=GPa)
#
#
# Indices 1 2 3 4 5 6 
#
# 1 144.9248 80.8840 22.8027 0.0000 0.0000 0.0000
# 2 80.8840 144.9248 22.8027 0.0000 0.0000 0.0000
# 3 22.8027 22.8027 75.2965 0.0000 0.0000 0.0000
# 4 0.0000 0.0000 0.0000 29.8759 0.0000 0.0000
# 5 0.0000 0.0000 0.0000 0.0000 29.8759 0.0000
# 6 0.0000 0.0000 0.0000 0.0000 0.0000 14.9206
#
#
#
# Elastic Compliance Matrix: (Units=1/GPa)
#
#
# Indices 1 2 3 4 5 6 
#
# 1 0.010166 -0.005449 -0.001428 0.000000 0.000000 0.000000
# 2 -0.005449 0.010166 -0.001428 0.000000 0.000000 0.000000
# 3 -0.001428 -0.001428 0.014146 0.000000 0.000000 0.000000
# 4 0.000000 0.000000 0.000000 0.033472 0.000000 0.000000
# 5 0.000000 0.000000 0.000000 0.000000 0.033472 0.000000
# 6 0.000000 0.000000 0.000000 0.000000 0.000000 0.067022
#
#
# Mechanical properties :
#
#
# Convention : Reuss Voigt Hill
#
# Bulk Modulus (GPa) = 55.97193 68.68055 62.32624
# Shear Modulus (GPa) = 26.17656 30.84494 28.51075
#
# Velocity S-wave (km/s) = 3.73216 4.05132 3.89501
# Velocity P-wave (km/s) = 6.95383 7.64398 7.30706
#
# Compressibility (1/GPa) = 0.01786610
#
# Stress axis : x y z
#
# Youngs Moduli (GPa) = 98.36678 98.36678 70.69121
#
# Poissons Ratio (x) = 0.53600 0.10098
# Poissons Ratio (y) = 0.53600 0.10098
# Poissons Ratio (z) = 0.14052 0.14052
#
# Static dielectric constant tensor:
#      x y z
#    x 1.662800 0.000000 0.000000 
#    y 0.000000 1.662800 0.000000 
#    z 0.000000 0.000000 1.679270 
# 
# From -- ./inp_files/4372.got.cif
#   From: 2010.05.17/outbox.cif.g08.bks.cpg/sg97_3_cif.got.tgz:4372.got - 2010.06.03 19:55:32.
