data_PCOD9551591
_publ_section_title
;
Structure prediction by ZEFSAII (Michael W. Deem and Ramdas Pophale) SiO2 
 PCOD9551591
Probable space group: I 4 2 2 
;
_chemical_formula_sum "Si O2"
_cell_formula_units_Z 36
_cell_length_a 10.555647
_cell_length_b 10.555647
_cell_length_c 12.080941
_cell_angle_alpha 90.000000
_cell_angle_beta 90.000000
_cell_angle_gamma 90.000000
_cell_volume 1346.078786
_symmetry_space_group_name_H-M "I 4 2 2 "
_symmetry_group_IT_number 97
_symmetry_cell_setting 'tetragonal'
loop_
_space_group_symop_operation_xyz
x,y,z
-y,x,z
-x,-y,z
y,-x,z
x,-y,-z
-x,y,-z
y,x,-z
-y,-x,-z
1/2+x,1/2+y,1/2+z
1/2-y,1/2+x,1/2+z
1/2-x,1/2-y,1/2+z
1/2+y,1/2-x,1/2+z
1/2+x,1/2-y,1/2-z
1/2-x,1/2+y,1/2-z
1/2+y,1/2+x,1/2-z
1/2-y,1/2-x,1/2-z
loop_
_atom_site_type_symbol
_atom_site_label
_atom_site_fract_x
_atom_site_fract_y
_atom_site_fract_z
Si Si1 0.713720 0.025898 0.311605
Si Si2 0.000000 0.000000 0.766629
Si Si3 0.174359 0.645747 0.478124
O O1 0.603658 0.103658 0.250000
O O2 0.889623 0.325530 0.361195
O O3 0.728606 0.106115 0.426167
O O4 0.843671 0.018223 0.245149
O O5 0.149317 0.500000 0.500000
O O6 0.319772 0.680229 0.500000
#
# Coordination Sequence:
#
# PCOD9551591 Si02
#       3
#    16   4  16
#     4  11  25  47  78 116 161 209 288 358 430 518
#     4  12  24  49  84 116 161 220 302 352 441 541
#     4  11  25  47  77 113 162 226 279 354 432 518
#
# _framework density 26.744347000000001
#
# number of rings (size 3 to 8) (size 9 to 14) (size 15 to 20)
#    0.000    0.889    4.444    2.667    0.000   11.111 
#    8.000    0.000    0.000    0.000    0.000    0.000 
#    0.000    0.000    0.000    0.000    0.000    0.000 
#
# Total GULP energy -100304.447748 kJ/mol
# GULP energy per Si atom -5572.469319 kJ/mol
# Density = 2.668348 g / cm^3
# Si number density = 26.744347 Si / 1000 Ang^3
#
#
#
# Elastic Constant Matrix: (Units=GPa)
#
#
# Indices 1 2 3 4 5 6 
#
# 1 12201.7197********** 29.6964 -0.0002 0.0002 0.0000
# 2 **********12200.7556 29.4418 0.0002 -0.0002 0.0000
# 3 29.6964 29.4418 133.1513 0.0000 0.0000 0.0000
# 4 -0.0002 0.0002 0.0000 18.9774 0.0000 0.0000
# 5 0.0002 -0.0002 0.0000 0.0000 18.9770 0.0000
# 6 0.0000 0.0000 0.0000 0.0000 0.0000 50.4190
#
#
#
# Elastic Compliance Matrix: (Units=1/GPa)
#
#
# Indices 1 2 3 4 5 6 
#
# 1 0.002217 0.002176 -0.000976 0.000000 0.000000 0.000000
# 2 0.002176 0.002218 -0.000976 0.000000 0.000000 0.000000
# 3 -0.000976 -0.000976 0.007944 0.000000 0.000000 0.000000
# 4 0.000000 0.000000 0.000000 0.052694 0.000000 0.000000
# 5 0.000000 0.000000 0.000000 0.000000 0.052695 0.000000
# 6 0.000000 0.000000 0.000000 0.000000 0.000000 0.019834
#
#
# Mechanical properties :
#
#
# Convention : Reuss Voigt Hill
#
# Bulk Modulus (GPa) = 77.95367 81.43246 79.69306
# Shear Modulus (GPa) = 35.35357 2446.80762 1241.08059
#
# Velocity S-wave (km/s) = 3.63975 30.27993 21.56527
# Velocity P-wave (km/s) = 6.84651 35.39793 25.49400
#
# Compressibility (1/GPa) = 0.01282813
#
# Stress axis : x y z
#
# Youngs Moduli (GPa) = 450.96636 450.93489 125.88739
#
# Poissons Ratio (x) = -0.98130 0.12283
# Poissons Ratio (y) = -0.98137 0.12283
# Poissons Ratio (z) = 0.44002 0.43997
#
# Static dielectric constant tensor:
#      x y z
#    x 2.158390 0.000000 0.000000 
#    y 0.000000 2.158390 0.000000 
#    z 0.000000 0.000000 2.198570 
# 
# From -- ./inp_files/2872.got.cif
#   From: 2010.05.17/outbox.cif.g08.bks.cpg/sg97_2_cif.got.tgz:2872.got - 2010.06.03 19:55:32.
