data_PCOD9551929
_publ_section_title
;
Structure prediction by ZEFSAII (Michael W. Deem and Ramdas Pophale) SiO2 
 PCOD9551929
Probable space group: I 41 2 2
;
_chemical_formula_sum "Si O2"
_cell_formula_units_Z 72
_cell_length_a 11.093572
_cell_length_b 11.093572
_cell_length_c 25.887558
_cell_angle_alpha 90.000000
_cell_angle_beta 90.000000
_cell_angle_gamma 90.000000
_cell_volume 3185.912895
_symmetry_space_group_name_H-M "I 41 2 2"
_symmetry_group_IT_number 98
_symmetry_cell_setting 'tetragonal'
loop_
_space_group_symop_operation_xyz
x,y,z
-y,1/2+x,1/4+z
-x,-y,z
y,1/2-x,1/4+z
x,1/2-y,1/4-z
-x,1/2+y,1/4-z
y,x,-z
-y,-x,-z
1/2+x,1/2+y,1/2+z
1/2-y,x,3/4+z
1/2-x,1/2-y,1/2+z
1/2+y,-x,3/4+z
1/2+x,-y,3/4-z
1/2-x,y,3/4-z
1/2+y,1/2+x,1/2-z
1/2-y,1/2-x,1/2-z
loop_
_atom_site_type_symbol
_atom_site_label
_atom_site_fract_x
_atom_site_fract_y
_atom_site_fract_z
Si Si1 0.807672 0.692329 0.250000
Si Si2 0.394549 0.605452 0.000000
Si Si3 0.773618 0.931726 0.194897
Si Si4 0.000000 0.500000 0.519394
Si Si5 0.510324 0.355942 0.419626
Si Si6 0.679929 0.335102 0.823115
O O1 0.775423 0.789567 0.205683
O O2 0.811158 0.568455 0.218175
O O3 0.508015 0.645595 0.963522
O O4 0.276778 0.617121 0.966070
O O5 0.889104 0.967618 0.231076
O O6 0.802259 0.968612 0.136022
O O7 0.902392 0.443167 0.558522
O O8 0.500000 0.500000 0.417180
O O9 0.645372 0.305840 0.428316
O O10 0.750000 0.361607 0.875000
#
# Coordination Sequence:
#
# PCOD9551929 Si02
#       6
#     8   8  16   8  16  16
#     4  12  27  45  68 104 148 186 230 307 355 426
#     4  10  24  43  73 100 134 188 232 292 350 434
#     4  11  23  47  69 102 142 184 234 291 361 423
#     4  10  22  46  70 100 140 178 230 296 350 414
#     4  12  26  43  70 105 139 189 241 294 362 429
#     4  11  23  45  71 102 137 184 238 285 356 424
#
# _framework density 22.599487
#
# number of rings (size 3 to 8) (size 9 to 14) (size 15 to 20)
#    0.000    0.889    5.556    1.000    3.111    2.222 
#    8.000    0.000    0.000    0.000    0.000    0.000 
#    0.000    0.000    0.000    0.000    0.000    0.000 
#
# Total GULP energy -200468.963078 kJ/mol
# GULP energy per Si atom -5568.582308 kJ/mol
# Density = 2.254805 g / cm^3
# Si number density = 22.599487 Si / 1000 Ang^3
#
#
#
# Elastic Constant Matrix: (Units=GPa)
#
#
# Indices 1 2 3 4 5 6 
#
# 1 47.9206 15.9609 18.4871 0.0000 0.0000 0.0000
# 2 15.9609 47.9217 18.4878 0.0000 0.0000 0.0000
# 3 18.4871 18.4878 71.3754 0.0000 0.0000 0.0000
# 4 0.0000 0.0000 0.0000 27.1705 0.0000 0.0000
# 5 0.0000 0.0000 0.0000 0.0000 27.1705 0.0000
# 6 0.0000 0.0000 0.0000 0.0000 0.0000 26.9448
#
#
#
# Elastic Compliance Matrix: (Units=1/GPa)
#
#
# Indices 1 2 3 4 5 6 
#
# 1 0.024852 -0.006437 -0.004770 0.000000 0.000000 0.000000
# 2 -0.006437 0.024851 -0.004770 0.000000 0.000000 0.000000
# 3 -0.004770 -0.004770 0.016481 0.000000 0.000000 0.000000
# 4 0.000000 0.000000 0.000000 0.036805 0.000000 0.000000
# 5 0.000000 0.000000 0.000000 0.000000 0.036805 0.000000
# 6 0.000000 0.000000 0.000000 0.000000 0.000000 0.037113
#
#
# Mechanical properties :
#
#
# Convention : Reuss Voigt Hill
#
# Bulk Modulus (GPa) = 29.21273 30.34324 29.77798
# Shear Modulus (GPa) = 22.69937 23.87595 23.28766
#
# Velocity S-wave (km/s) = 3.17270 3.25388 3.21355
# Velocity P-wave (km/s) = 5.13573 5.25097 5.19367
#
# Compressibility (1/GPa) = 0.03423165
#
# Stress axis : x y z
#
# Youngs Moduli (GPa) = 40.23835 40.23904 60.67494
#
# Poissons Ratio (x) = 0.25903 0.28939
# Poissons Ratio (y) = 0.25902 0.28940
# Poissons Ratio (z) = 0.19192 0.19193
#
# Static dielectric constant tensor:
#      x y z
#    x 1.956750 0.000000 0.000000 
#    y 0.000000 1.956750 0.000000 
#    z 0.000000 0.000000 1.801520 
# 
# From -- ./inp_files/10849.got.cif
#   From: 2010.05.17/outbox.cif.g08.bks.cpg/sg98_6_cif.got.tgz:10849.got - 2010.06.03 20:00:51.
