data_PCOD9551116
_publ_section_title
;
Structure prediction by ZEFSAII (Michael W. Deem and Ramdas Pophale) SiO2 
 PCOD9551116
Probable space group: P 43 21 2
;
_chemical_formula_sum "Si O2"
_cell_formula_units_Z 44
_cell_length_a 8.450635
_cell_length_b 8.450635
_cell_length_c 28.241964
_cell_angle_alpha 90.000000
_cell_angle_beta 90.000000
_cell_angle_gamma 90.000000
_cell_volume 2016.849925
_symmetry_space_group_name_H-M "P 43 21 2"
_symmetry_group_IT_number 96
_symmetry_cell_setting 'tetragonal'
loop_
_space_group_symop_operation_xyz
x,y,z
1/2-y,1/2+x,3/4+z
-x,-y,1/2+z
1/2+y,1/2-x,1/4+z
1/2+x,1/2-y,1/4-z
1/2-x,1/2+y,3/4-z
y,x,-z
-y,-x,1/2-z
loop_
_atom_site_type_symbol
_atom_site_label
_atom_site_fract_x
_atom_site_fract_y
_atom_site_fract_z
Si Si1 0.011362 0.573538 0.650109
Si Si2 0.598274 0.456951 0.828090
Si Si3 0.091275 0.314633 0.725719
Si Si4 0.819138 0.232788 0.073019
Si Si5 0.695526 0.833229 0.155625
Si Si6 0.239261 0.239261 0.500000
O O1 0.089915 0.468627 0.691567
O O2 0.128807 0.689755 0.622599
O O3 0.859704 0.666726 0.671641
O O4 0.940216 0.457058 0.609048
O O5 0.417761 0.433909 0.813476
O O6 0.630062 0.327981 0.867715
O O7 0.659396 0.619645 0.848963
O O8 0.714804 0.407795 0.785384
O O9 0.147810 0.338547 0.779322
O O10 0.209079 0.180959 0.704613
O O11 0.907113 0.267916 0.724560
#
# Coordination Sequence:
#
# PCOD9551116 Si02
#       6
#     8   8   8   8   8   4
#     4  11  26  48  68 112 144 194 237 305 372 430
#     4  11  22  42  72 101 136 190 230 305 355 439
#     4  12  26  43  75 106 136 198 246 308 354 452
#     4  11  27  45  73 103 155 180 242 300 373 439
#     4  11  22  43  71 102 137 183 246 289 361 428
#     4  12  22  44  68 102 134 188 256 286 360 428
#
# _framework density 21.816201
#
# number of rings (size 3 to 8) (size 9 to 14) (size 15 to 20)
#    0.000    0.727    5.455    2.182    5.091    2.909 
#    0.000    0.000    0.000    0.000    0.000    0.000 
#    0.000    0.000    0.000    0.000    0.000    0.000 
#
# Total GULP energy -245635.410861 kJ/mol
# GULP energy per Si atom -5582.622974 kJ/mol
# Density = 2.176655 g / cm^3
# Si number density = 21.816201 Si / 1000 Ang^3
#
#
#
# Elastic Constant Matrix: (Units=GPa)
#
#
# Indices 1 2 3 4 5 6 
#
# 1 140.7115 -60.0029 15.8712 0.0000 0.0000 0.0000
# 2 -60.0029 140.7115 15.8712 0.0000 0.0000 0.0000
# 3 15.8712 15.8712 78.6676 0.0000 0.0000 0.0000
# 4 0.0000 0.0000 0.0000 30.4093 0.0000 0.0000
# 5 0.0000 0.0000 0.0000 0.0000 30.4093 0.0000
# 6 0.0000 0.0000 0.0000 0.0000 0.0000 30.5895
#
#
#
# Elastic Compliance Matrix: (Units=1/GPa)
#
#
# Indices 1 2 3 4 5 6 
#
# 1 0.009220 0.004238 -0.002715 0.000000 0.000000 0.000000
# 2 0.004238 0.009220 -0.002715 0.000000 0.000000 0.000000
# 3 -0.002715 -0.002715 0.013807 0.000000 0.000000 0.000000
# 4 0.000000 0.000000 0.000000 0.032885 0.000000 0.000000
# 5 0.000000 0.000000 0.000000 0.000000 0.032885 0.000000
# 6 0.000000 0.000000 0.000000 0.000000 0.000000 0.032691
#
#
# Mechanical properties :
#
#
# Convention : Reuss Voigt Hill
#
# Bulk Modulus (GPa) = 33.48643 33.72993 33.60818
# Shear Modulus (GPa) = 34.95354 44.17168 39.56261
#
# Velocity S-wave (km/s) = 4.00707 4.50457 4.26308
# Velocity P-wave (km/s) = 6.06560 6.52299 6.29845
#
# Compressibility (1/GPa) = 0.02986285
#
# Stress axis : x y z
#
# Youngs Moduli (GPa) = 108.45796 108.45796 72.42552
#
# Poissons Ratio (x) = -0.45964 0.19665
# Poissons Ratio (y) = -0.45964 0.19665
# Poissons Ratio (z) = 0.29448 0.29448
#
# Static dielectric constant tensor:
#      x y z
#    x 1.857200 0.000000 0.000000 
#    y 0.000000 1.857200 0.000000 
#    z 0.000000 0.000000 1.825260 
# 
# From -- ./inp_files/4371.got.cif
#   From: 2010.05.17/outbox.cif.g08.bks.cpg/sg96_3_cif.got.tgz:4371.got - 2010.06.03 19:52:08.
