data_PCOD9551656
_publ_section_title
;
Structure prediction by ZEFSAII (Michael W. Deem and Ramdas Pophale) SiO2 
 PCOD9551656
Probable space group: I 41 2 2
;
_chemical_formula_sum "Si O2"
_cell_formula_units_Z 104
_cell_length_a 29.062401
_cell_length_b 29.062401
_cell_length_c 8.679554
_cell_angle_alpha 90.000000
_cell_angle_beta 90.000000
_cell_angle_gamma 90.000000
_cell_volume 7330.952256
_symmetry_space_group_name_H-M "I 41 2 2"
_symmetry_group_IT_number 98
_symmetry_cell_setting 'tetragonal'
loop_
_space_group_symop_operation_xyz
x,y,z
-y,1/2+x,1/4+z
-x,-y,z
y,1/2-x,1/4+z
x,1/2-y,1/4-z
-x,1/2+y,1/4-z
y,x,-z
-y,-x,-z
1/2+x,1/2+y,1/2+z
1/2-y,x,3/4+z
1/2-x,1/2-y,1/2+z
1/2+y,-x,3/4+z
1/2+x,-y,3/4-z
1/2-x,y,3/4-z
1/2+y,1/2+x,1/2-z
1/2-y,1/2-x,1/2-z
loop_
_atom_site_type_symbol
_atom_site_label
_atom_site_fract_x
_atom_site_fract_y
_atom_site_fract_z
Si Si1 0.611755 0.743182 0.945693
Si Si2 0.609165 0.517973 0.158206
Si Si3 0.294207 0.035523 0.959530
Si Si4 0.103247 0.041621 0.299195
Si Si5 0.209044 0.209044 0.500000
Si Si6 0.036477 0.542132 0.425735
Si Si7 0.164536 0.094056 0.068655
O O1 0.569831 0.723707 0.844303
O O2 0.624017 0.793897 0.884472
O O3 0.599453 0.750000 0.125000
O O4 0.657739 0.713180 0.931238
O O5 0.660455 0.510754 0.223765
O O6 0.580659 0.563065 0.218288
O O7 0.576934 0.475367 0.211496
O O8 0.612092 0.529941 0.977374
O O9 0.250000 0.011777 0.875000
O O10 0.314948 0.065594 0.821691
O O11 0.145787 0.061300 0.203768
O O12 0.084657 0.993905 0.230849
O O13 0.213201 0.250000 0.625000
O O14 0.050993 0.550993 0.250000
O O15 0.000000 0.500000 0.424245
O O16 0.124186 0.124186 0.000000
#
# Coordination Sequence:
#
# PCOD9551656 Si02
#       7
#    16  16  16  16   8  16  16
#     4  10  23  37  47  63  78 104 140 190 233 291
#     4  10  18  30  45  66  92 116 140 177 221 272
#     4  10  21  33  48  63  83 109 147 182 224 277
#     4  10  19  29  47  68  88 115 141 172 228 285
#     4  10  24  34  48  58  76  96 133 182 247 286
#     4   9  17  27  44  67  95 114 139 168 211 276
#     4  11  21  32  49  64  82 108 142 179 232 283
#
# _framework density 14.186425
#
# number of rings (size 3 to 8) (size 9 to 14) (size 15 to 20)
#    0.000    2.000    1.538    2.308    7.538    3.692 
#    0.000    0.000    0.000    0.000    0.000    0.000 
#    0.000    0.000    0.000    0.000    0.000    0.000 
#
# Total GULP energy -289538.943231 kJ/mol
# GULP energy per Si atom -5568.056601 kJ/mol
# Density = 1.415414 g / cm^3
# Si number density = 14.186425 Si / 1000 Ang^3
#
#
#
# Elastic Constant Matrix: (Units=GPa)
#
#
# Indices 1 2 3 4 5 6 
#
# 1 47.5702 27.3672 18.5555 0.0000 0.0000 0.0000
# 2 27.3672 47.5702 18.5555 0.0000 0.0000 0.0000
# 3 18.5555 18.5555 59.6653 0.0000 0.0000 0.0000
# 4 0.0000 0.0000 0.0000 18.0524 0.0000 0.0000
# 5 0.0000 0.0000 0.0000 0.0000 18.0524 0.0000
# 6 0.0000 0.0000 0.0000 0.0000 0.0000 25.3237
#
#
#
# Elastic Compliance Matrix: (Units=1/GPa)
#
#
# Indices 1 2 3 4 5 6 
#
# 1 0.032636 -0.016862 -0.004906 0.000000 0.000000 0.000000
# 2 -0.016862 0.032636 -0.004906 0.000000 0.000000 0.000000
# 3 -0.004906 -0.004906 0.019811 0.000000 0.000000 0.000000
# 4 0.000000 0.000000 0.000000 0.055394 0.000000 0.000000
# 5 0.000000 0.000000 0.000000 0.000000 0.055394 0.000000
# 6 0.000000 0.000000 0.000000 0.000000 0.000000 0.039489
#
#
# Mechanical properties :
#
#
# Convention : Reuss Voigt Hill
#
# Bulk Modulus (GPa) = 31.50915 31.52911 31.51913
# Shear Modulus (GPa) = 16.70648 18.30752 17.50700
#
# Velocity S-wave (km/s) = 3.43540 3.59624 3.51674
# Velocity P-wave (km/s) = 6.16400 6.28626 6.22543
#
# Compressibility (1/GPa) = 0.03173681
#
# Stress axis : x y z
#
# Youngs Moduli (GPa) = 30.64128 30.64128 50.47615
#
# Poissons Ratio (x) = 0.51667 0.24761
# Poissons Ratio (y) = 0.51667 0.24761
# Poissons Ratio (z) = 0.15031 0.15031
#
# Static dielectric constant tensor:
#      x y z
#    x 1.472150 0.000000 0.000000 
#    y 0.000000 1.472150 0.000000 
#    z 0.000000 0.000000 1.518020 
# 
# From -- ./inp_files/3904.got.cif
#   From: 2010.05.17/outbox.cif.g08.bks.cpg/sg98_2_cif.got.tgz:3904.got - 2010.06.03 20:00:51.
