data_PCOD9551445
_publ_section_title
;
Structure prediction by ZEFSAII (Michael W. Deem and Ramdas Pophale) SiO2 
 PCOD9551445
Probable space group: I 4 2 2 
;
_chemical_formula_sum "Si O2"
_cell_formula_units_Z 40
_cell_length_a 18.744608
_cell_length_b 18.744608
_cell_length_c 4.998302
_cell_angle_alpha 90.000000
_cell_angle_beta 90.000000
_cell_angle_gamma 90.000000
_cell_volume 1756.205036
_symmetry_space_group_name_H-M "I 4 2 2 "
_symmetry_group_IT_number 97
_symmetry_cell_setting 'tetragonal'
loop_
_space_group_symop_operation_xyz
x,y,z
-y,x,z
-x,-y,z
y,-x,z
x,-y,-z
-x,y,-z
y,x,-z
-y,-x,-z
1/2+x,1/2+y,1/2+z
1/2-y,1/2+x,1/2+z
1/2-x,1/2-y,1/2+z
1/2+y,1/2-x,1/2+z
1/2+x,1/2-y,1/2-z
1/2-x,1/2+y,1/2-z
1/2+y,1/2+x,1/2-z
1/2-y,1/2-x,1/2-z
loop_
_atom_site_type_symbol
_atom_site_label
_atom_site_fract_x
_atom_site_fract_y
_atom_site_fract_z
Si Si1 0.926749 0.676835 0.908182
Si Si2 0.294062 0.638184 0.759215
Si Si3 0.500000 0.711801 0.000000
O O1 0.874027 0.625974 0.750000
O O2 0.956863 0.738786 0.711280
O O3 0.887257 0.716481 0.153882
O O4 0.000000 0.639142 0.000000
O O5 0.330562 0.669439 0.500000
O O6 0.328593 0.563517 0.853369
O O7 0.304983 0.695018 0.000000
#
# Coordination Sequence:
#
# PCOD9551445 Si02
#       3
#    16  16   8
#     4  10  23  44  70 104 146 189 236 292 349 424
#     4  11  22  42  69 103 136 186 232 292 359 417
#     4  10  22  44  63 101 144 182 228 292 344 428
#
# _framework density 22.776384
#
# number of rings (size 3 to 8) (size 9 to 14) (size 15 to 20)
#    0.000    1.600    4.000    0.000    0.000    6.400 
#    7.200    3.000    0.000    0.600   20.800    0.000 
#    0.000    0.000    0.000    0.000    0.000    0.000 
#
# Total GULP energy -111695.960799 kJ/mol
# GULP energy per Si atom -5584.798040 kJ/mol
# Density = 2.272454 g / cm^3
# Si number density = 22.776384 Si / 1000 Ang^3
#
#
#
# Elastic Constant Matrix: (Units=GPa)
#
#
# Indices 1 2 3 4 5 6 
#
# 1 84.2050 79.7493 54.1655 0.0000 0.0000 0.0000
# 2 79.7493 84.1970 54.1629 0.0000 0.0000 0.0000
# 3 54.1655 54.1629 163.8188 0.0000 0.0000 0.0000
# 4 0.0000 0.0000 0.0000 46.8830 0.0000 0.0000
# 5 0.0000 0.0000 0.0000 0.0000 46.8847 0.0000
# 6 0.0000 0.0000 0.0000 0.0000 0.0000 16.9218
#
#
#
# Elastic Compliance Matrix: (Units=1/GPa)
#
#
# Indices 1 2 3 4 5 6 
#
# 1 0.116213 -0.108414 -0.002580 0.000000 0.000000 0.000000
# 2 -0.108414 0.116224 -0.002580 0.000000 0.000000 0.000000
# 3 -0.002580 -0.002580 0.007811 0.000000 0.000000 0.000000
# 4 0.000000 0.000000 0.000000 0.021330 0.000000 0.000000
# 5 0.000000 0.000000 0.000000 0.000000 0.021329 0.000000
# 6 0.000000 0.000000 0.000000 0.000000 0.000000 0.059095
#
#
# Mechanical properties :
#
#
# Convention : Reuss Voigt Hill
#
# Bulk Modulus (GPa) = 76.34866 78.70847 77.52857
# Shear Modulus (GPa) = 8.71814 31.74745 20.23279
#
# Velocity S-wave (km/s) = 1.95858 3.73752 2.98371
# Velocity P-wave (km/s) = 6.22161 7.29777 6.78107
#
# Compressibility (1/GPa) = 0.01309781
#
# Stress axis : x y z
#
# Youngs Moduli (GPa) = 8.60489 8.60408 128.03038
#
# Poissons Ratio (x) = 0.93280 0.33037
# Poissons Ratio (y) = 0.93289 0.33037
# Poissons Ratio (z) = 0.02220 0.02220
#
# Static dielectric constant tensor:
#      x y z
#    x 1.902160 0.000000 0.000000 
#    y 0.000000 1.902170 0.000000 
#    z 0.000000 0.000000 1.949230 
# 
# From -- ./inp_files/275.got.cif
#   From: 2010.05.17/outbox.cif.g08.bks.cpg/sg97_1_cif.got.tgz:275.got - 2010.06.03 19:55:32.
