data_PCOD9551930
_publ_section_title
;
Structure prediction by ZEFSAII (Michael W. Deem and Ramdas Pophale) SiO2 
 PCOD9551930
Probable space group: I 41 2 2
;
_chemical_formula_sum "Si O2"
_cell_formula_units_Z 40
_cell_length_a 8.039284
_cell_length_b 8.039284
_cell_length_c 26.487226
_cell_angle_alpha 90.000000
_cell_angle_beta 90.000000
_cell_angle_gamma 90.000000
_cell_volume 1711.871727
_symmetry_space_group_name_H-M "I 41 2 2"
_symmetry_group_IT_number 98
_symmetry_cell_setting 'tetragonal'
loop_
_space_group_symop_operation_xyz
x,y,z
-y,1/2+x,1/4+z
-x,-y,z
y,1/2-x,1/4+z
x,1/2-y,1/4-z
-x,1/2+y,1/4-z
y,x,-z
-y,-x,-z
1/2+x,1/2+y,1/2+z
1/2-y,x,3/4+z
1/2-x,1/2-y,1/2+z
1/2+y,-x,3/4+z
1/2+x,-y,3/4-z
1/2-x,y,3/4-z
1/2+y,1/2+x,1/2-z
1/2-y,1/2-x,1/2-z
loop_
_atom_site_type_symbol
_atom_site_label
_atom_site_fract_x
_atom_site_fract_y
_atom_site_fract_z
Si Si1 0.144430 0.611887 0.974276
Si Si2 0.556303 0.184000 0.860393
Si Si3 0.750000 0.595764 0.875000
O O1 0.049911 0.767066 0.948494
O O2 0.204841 0.505226 0.925665
O O3 0.000000 0.500000 0.001016
O O4 0.305392 0.694609 0.000000
O O5 0.750000 0.197720 0.875000
O O6 0.417931 0.300562 0.886266
O O7 0.500000 0.000000 0.869807
#
# Coordination Sequence:
#
# PCOD9551930 Si02
#       3
#    16  16   8
#     4  10  23  45  73 104 144 184 239 294 360 438
#     4  11  22  41  73 101 137 187 234 286 361 426
#     4  10  22  46  72 106 140 184 244 300 354 434
#
# _framework density 23.366235
#
# number of rings (size 3 to 8) (size 9 to 14) (size 15 to 20)
#    0.000    1.600    4.000    0.000    0.000    2.400 
#    0.000    4.000   26.400    0.000    0.000    0.000 
#    0.000    0.000    0.000    0.000    0.000    0.000 
#
# Total GULP energy -111476.761937 kJ/mol
# GULP energy per Si atom -5573.838097 kJ/mol
# Density = 2.331305 g / cm^3
# Si number density = 23.366235 Si / 1000 Ang^3
#
#
#
# Elastic Constant Matrix: (Units=GPa)
#
#
# Indices 1 2 3 4 5 6 
#
# 1 175.4464 95.1570 41.5925 0.0000 0.0000 0.0000
# 2 95.1570 175.4472 41.5924 0.0000 0.0000 0.0000
# 3 41.5925 41.5924 49.9525 0.0000 0.0000 0.0000
# 4 0.0000 0.0000 0.0000 -3.2451 0.0000 0.0000
# 5 0.0000 0.0000 0.0000 0.0000 -3.2459 0.0000
# 6 0.0000 0.0000 0.0000 0.0000 0.0000 39.2231
#
#
#
# Elastic Compliance Matrix: (Units=1/GPa)
#
#
# Indices 1 2 3 4 5 6 
#
# 1 0.008711 -0.003744 -0.004136 0.000000 0.000000 0.000000
# 2 -0.003744 0.008711 -0.004135 0.000000 0.000000 0.000000
# 3 -0.004136 -0.004135 0.026906 0.000000 0.000000 0.000000
# 4 0.000000 0.000000 0.000000 -0.308161 0.000000 0.000000
# 5 0.000000 0.000000 0.000000 0.000000 -0.308085 0.000000
# 6 0.000000 0.000000 0.000000 0.000000 0.000000 0.025495
#
#
# Mechanical properties :
#
#
# Convention : Reuss Voigt Hill
#
# Bulk Modulus (GPa) = 49.26781 84.17000 66.71891
# Shear Modulus (GPa) = -9.69691 21.38005 5.84157
#
# Velocity S-wave (km/s) = -2.03936 3.02817 1.58286
# Velocity P-wave (km/s) = 3.94785 6.95174 5.65297
#
# Compressibility (1/GPa) = 0.02029723
#
# Stress axis : x y z
#
# Youngs Moduli (GPa) = 114.79976 114.80060 37.16682
#
# Poissons Ratio (x) = 0.42982 0.15370
# Poissons Ratio (y) = 0.42982 0.15370
# Poissons Ratio (z) = 0.47476 0.47475
#
# Static dielectric constant tensor:
#      x y z
#    x 1.967020 0.000000 0.000000 
#    y 0.000000 1.967020 0.000000 
#    z 0.000000 0.000000 1.929610 
# 
# From -- ./inp_files/9492.got.cif
#   From: 2010.05.17/outbox.cif.g08.bks.cpg/sg98_5_cif.got.tgz:9492.got - 2010.06.03 20:00:51.
