data_PCOD9551892
_publ_section_title
;
Structure prediction by ZEFSAII (Michael W. Deem and Ramdas Pophale) SiO2 
 PCOD9551892
Probable space group: I 41 2 2
;
_chemical_formula_sum "Si O2"
_cell_formula_units_Z 108
_cell_length_a 13.720119
_cell_length_b 13.720119
_cell_length_c 22.954249
_cell_angle_alpha 90.000000
_cell_angle_beta 90.000000
_cell_angle_gamma 90.000000
_cell_volume 4320.946059
_symmetry_space_group_name_H-M "I 41 2 2"
_symmetry_group_IT_number 98
_symmetry_cell_setting 'tetragonal'
loop_
_space_group_symop_operation_xyz
x,y,z
-y,1/2+x,1/4+z
-x,-y,z
y,1/2-x,1/4+z
x,1/2-y,1/4-z
-x,1/2+y,1/4-z
y,x,-z
-y,-x,-z
1/2+x,1/2+y,1/2+z
1/2-y,x,3/4+z
1/2-x,1/2-y,1/2+z
1/2+y,-x,3/4+z
1/2+x,-y,3/4-z
1/2-x,y,3/4-z
1/2+y,1/2+x,1/2-z
1/2-y,1/2-x,1/2-z
loop_
_atom_site_type_symbol
_atom_site_label
_atom_site_fract_x
_atom_site_fract_y
_atom_site_fract_z
Si Si1 0.375492 0.148646 0.065145
Si Si2 0.201953 0.459637 0.139610
Si Si3 0.183603 0.183603 0.500000
Si Si4 0.000000 0.500000 0.750000
Si Si5 0.803516 0.038383 0.540927
Si Si6 0.757688 0.077995 0.006353
Si Si7 0.110973 0.458718 0.440719
Si Si8 0.599007 0.307807 0.180071
O O1 0.309155 0.087554 0.107732
O O2 0.486816 0.164145 0.083717
O O3 0.308807 0.243554 0.053172
O O4 0.381553 0.099411 0.001580
O O5 0.225177 0.544954 0.092572
O O6 0.183022 0.498916 0.204605
O O7 0.117937 0.391434 0.112781
O O8 0.198710 0.072686 0.517167
O O9 0.958985 0.419941 0.797981
O O10 0.760289 0.097053 0.486844
O O11 0.667462 0.105747 0.049024
O O12 0.829065 0.170936 0.000000
O O13 0.701677 0.033925 0.949578
O O14 0.000000 0.500000 0.439163
O O15 0.639405 0.250000 0.125000
#
# Coordination Sequence:
#
# PCOD9551892 Si02
#       8
#    16  16   8   4  16  16  16  16
#     4  10  22  39  68 102 143 190 248 318 397 483
#     4  11  24  42  74 104 136 201 257 316 399 475
#     4   9  18  39  56  92 143 169 232 310 371 478
#     4  10  24  32  56  92 148 190 210 314 374 488
#     4  10  22  39  57  96 147 184 239 298 388 488
#     4  11  27  48  74 110 158 205 272 333 401 496
#     4  11  21  49  74  98 150 205 259 327 403 477
#     4  11  24  39  67 102 148 202 243 323 400 481
#
# _framework density 24.994526
#
# number of rings (size 3 to 8) (size 9 to 14) (size 15 to 20)
#    0.000    1.481    4.444    0.000    9.333    1.185 
#    0.000    4.444    0.000    0.000    0.000    2.074 
#    0.000    0.000    0.000    0.000    0.000    0.000 
#
# Total GULP energy -300909.939448 kJ/mol
# GULP energy per Si atom -5572.406286 kJ/mol
# Density = 2.493764 g / cm^3
# Si number density = 24.994526 Si / 1000 Ang^3
#
#
#
# Elastic Constant Matrix: (Units=GPa)
#
#
# Indices 1 2 3 4 5 6 
#
# 1 92.5787 37.7051 31.8043 0.0000 0.0000 0.0000
# 2 37.7051 92.5783 31.8043 0.0000 0.0000 0.0000
# 3 31.8043 31.8043 78.1322 0.0000 0.0000 0.0000
# 4 0.0000 0.0000 0.0000 34.5579 0.0000 0.0000
# 5 0.0000 0.0000 0.0000 0.0000 34.5590 0.0000
# 6 0.0000 0.0000 0.0000 0.0000 0.0000 27.2981
#
#
#
# Elastic Compliance Matrix: (Units=1/GPa)
#
#
# Indices 1 2 3 4 5 6 
#
# 1 0.013902 -0.004322 -0.003899 0.000000 0.000000 0.000000
# 2 -0.004322 0.013902 -0.003899 0.000000 0.000000 0.000000
# 3 -0.003899 -0.003899 0.015973 0.000000 0.000000 0.000000
# 4 0.000000 0.000000 0.000000 0.028937 0.000000 0.000000
# 5 0.000000 0.000000 0.000000 0.000000 0.028936 0.000000
# 6 0.000000 0.000000 0.000000 0.000000 0.000000 0.036633
#
#
# Mechanical properties :
#
#
# Convention : Reuss Voigt Hill
#
# Bulk Modulus (GPa) = 51.19107 51.76849 51.47978
# Shear Modulus (GPa) = 29.57963 30.08138 29.83050
#
# Velocity S-wave (km/s) = 3.44385 3.47294 3.45843
# Velocity P-wave (km/s) = 6.02817 6.06948 6.04886
#
# Compressibility (1/GPa) = 0.01953466
#
# Stress axis : x y z
#
# Youngs Moduli (GPa) = 71.93458 71.93425 62.60439
#
# Poissons Ratio (x) = 0.31091 0.24411
# Poissons Ratio (y) = 0.31092 0.24412
# Poissons Ratio (z) = 0.28050 0.28050
#
# Static dielectric constant tensor:
#      x y z
#    x 1.787380 0.000000 0.000000 
#    y 0.000000 1.787490 0.000000 
#    z 0.000000 0.000000 1.998000 
# 
# From -- ./inp_files/10120.got.cif
#   From: 2010.05.17/outbox.cif.g08.bks.cpg/sg98_6_cif.got.tgz:10120.got - 2010.06.03 20:00:51.
