data_PCOD9551763
_publ_section_title
;
Structure prediction by ZEFSAII (Michael W. Deem and Ramdas Pophale) SiO2 
 PCOD9551763
Probable space group: I 41 2 2
;
_chemical_formula_sum "Si O2"
_cell_formula_units_Z 64
_cell_length_a 19.441642
_cell_length_b 19.441642
_cell_length_c 8.860210
_cell_angle_alpha 90.000000
_cell_angle_beta 90.000000
_cell_angle_gamma 90.000000
_cell_volume 3348.959526
_symmetry_space_group_name_H-M "I 41 2 2"
_symmetry_group_IT_number 98
_symmetry_cell_setting 'tetragonal'
loop_
_space_group_symop_operation_xyz
x,y,z
-y,1/2+x,1/4+z
-x,-y,z
y,1/2-x,1/4+z
x,1/2-y,1/4-z
-x,1/2+y,1/4-z
y,x,-z
-y,-x,-z
1/2+x,1/2+y,1/2+z
1/2-y,x,3/4+z
1/2-x,1/2-y,1/2+z
1/2+y,-x,3/4+z
1/2+x,-y,3/4-z
1/2-x,y,3/4-z
1/2+y,1/2+x,1/2-z
1/2-y,1/2-x,1/2-z
loop_
_atom_site_type_symbol
_atom_site_label
_atom_site_fract_x
_atom_site_fract_y
_atom_site_fract_z
Si Si1 0.520933 0.178071 0.533890
Si Si2 0.380035 0.767570 0.288328
Si Si3 0.131739 0.167529 0.163198
Si Si4 0.633196 0.366805 0.500000
Si Si5 0.250000 0.334059 0.875000
O O1 0.517716 0.250000 0.625000
O O2 0.565404 0.189249 0.384592
O O3 0.442201 0.158763 0.510587
O O4 0.566372 0.132347 0.645353
O O5 0.312248 0.812248 0.250000
O O6 0.363934 0.700104 0.389853
O O7 0.410076 0.750000 0.125000
O O8 0.144146 0.250000 0.125000
O O9 0.190071 0.134824 0.270733
O O10 0.132957 0.132957 0.000000
O O11 0.210032 0.289969 0.750000
#
# Coordination Sequence:
#
# PCOD9551763 Si02
#       5
#    16  16  16   8   8
#     4   9  21  36  53  84 118 154 202 244 299 364
#     4  11  21  32  57  86 124 166 204 259 299 346
#     4  11  20  37  61  87 117 146 187 248 312 371
#     4  10  20  36  53  84 118 164 210 250 293 356
#     4  12  18  34  60  92 114 136 180 248 304 368
#
# _framework density 19.110412
#
# number of rings (size 3 to 8) (size 9 to 14) (size 15 to 20)
#    0.000    1.500    6.250    0.000    1.750    0.000 
#    2.250    0.625    0.000    0.000    0.000    0.000 
#    0.000    0.000    0.000    0.000    0.000    0.000 
#
# Total GULP energy -178336.777023 kJ/mol
# GULP energy per Si atom -5573.024282 kJ/mol
# Density = 1.906692 g / cm^3
# Si number density = 19.110412 Si / 1000 Ang^3
#
#
#
# Elastic Constant Matrix: (Units=GPa)
#
#
# Indices 1 2 3 4 5 6 
#
# 1 64.1055 26.5252 24.7954 0.0000 0.0000 0.0000
# 2 26.5252 64.1076 24.7973 0.0000 0.0000 0.0000
# 3 24.7954 24.7973 133.0615 0.0000 0.0000 0.0000
# 4 0.0000 0.0000 0.0000 2.3706 0.0000 0.0000
# 5 0.0000 0.0000 0.0000 0.0000 2.3684 0.0000
# 6 0.0000 0.0000 0.0000 0.0000 0.0000 5.1395
#
#
#
# Elastic Compliance Matrix: (Units=1/GPa)
#
#
# Indices 1 2 3 4 5 6 
#
# 1 0.019448 -0.007161 -0.002289 0.000000 0.000000 0.000000
# 2 -0.007161 0.019447 -0.002290 0.000000 0.000000 0.000000
# 3 -0.002289 -0.002290 0.008369 0.000000 0.000000 0.000000
# 4 0.000000 0.000000 0.000000 0.421838 0.000000 0.000000
# 5 0.000000 0.000000 0.000000 0.000000 0.422222 0.000000
# 6 0.000000 0.000000 0.000000 0.000000 0.000000 0.194573
#
#
# Mechanical properties :
#
#
# Convention : Reuss Voigt Hill
#
# Bulk Modulus (GPa) = 42.04648 45.94562 43.99605
# Shear Modulus (GPa) = 4.47505 14.31947 9.39726
#
# Velocity S-wave (km/s) = 1.53192 2.74031 2.21992
# Velocity P-wave (km/s) = 5.01783 5.84010 5.44451
#
# Compressibility (1/GPa) = 0.02378321
#
# Stress axis : x y z
#
# Youngs Moduli (GPa) = 51.41924 51.42050 119.49321
#
# Poissons Ratio (x) = 0.36823 0.27358
# Poissons Ratio (y) = 0.36822 0.27361
# Poissons Ratio (z) = 0.11772 0.11774
#
# Static dielectric constant tensor:
#      x y z
#    x 1.693890 0.000000 0.000000 
#    y 0.000000 1.693890 0.000000 
#    z 0.000000 0.000000 1.674810 
# 
# From -- ./inp_files/3341.got.cif
#   From: 2010.05.17/outbox.cif.g08.bks.cpg/sg98_2_cif.got.tgz:3341.got - 2010.06.03 20:00:51.
