data_PCOD9551675
_publ_section_title
;
Structure prediction by ZEFSAII (Michael W. Deem and Ramdas Pophale) SiO2 
 PCOD9551675
Probable space group: I 41 2 2
;
_chemical_formula_sum "Si O2"
_cell_formula_units_Z 72
_cell_length_a 11.631637
_cell_length_b 11.631637
_cell_length_c 27.265052
_cell_angle_alpha 90.000000
_cell_angle_beta 90.000000
_cell_angle_gamma 90.000000
_cell_volume 3688.824646
_symmetry_space_group_name_H-M "I 41 2 2"
_symmetry_group_IT_number 98
_symmetry_cell_setting 'tetragonal'
loop_
_space_group_symop_operation_xyz
x,y,z
-y,1/2+x,1/4+z
-x,-y,z
y,1/2-x,1/4+z
x,1/2-y,1/4-z
-x,1/2+y,1/4-z
y,x,-z
-y,-x,-z
1/2+x,1/2+y,1/2+z
1/2-y,x,3/4+z
1/2-x,1/2-y,1/2+z
1/2+y,-x,3/4+z
1/2+x,-y,3/4-z
1/2-x,y,3/4-z
1/2+y,1/2+x,1/2-z
1/2-y,1/2-x,1/2-z
loop_
_atom_site_type_symbol
_atom_site_label
_atom_site_fract_x
_atom_site_fract_y
_atom_site_fract_z
Si Si1 0.108443 0.926966 0.084639
Si Si2 0.840540 0.383409 0.441369
Si Si3 0.292314 0.002364 0.430521
Si Si4 0.004798 0.155740 0.290541
Si Si5 0.647885 0.352116 0.000000
O O1 0.114385 0.920318 0.143779
O O2 0.099902 0.793473 0.070691
O O3 0.215840 0.984803 0.058180
O O4 0.000000 0.000000 0.069540
O O5 0.866325 0.475456 0.483651
O O6 0.848579 0.256345 0.463830
O O7 0.250000 0.014247 0.375000
O O8 0.397091 0.909333 0.432849
O O9 0.185319 0.961093 0.465323
O O10 0.367007 0.112245 0.447746
#
# Coordination Sequence:
#
# PCOD9551675 Si02
#       5
#    16  16  16  16   8
#     4  11  22  36  62  89 124 156 205 253 330 391
#     4  10  20  37  58  93 113 156 210 256 315 384
#     4  10  20  37  63  88 122 167 212 262 317 378
#     4  10  21  38  61  90 123 162 211 268 318 381
#     4  10  18  34  65  87 114 160 216 262 300 382
#
# _framework density 19.518412000000001
#
# number of rings (size 3 to 8) (size 9 to 14) (size 15 to 20)
#    0.000    1.778    4.444    1.333    6.222    1.778 
#    4.000    0.000    0.000   20.000    0.000    0.000 
#    0.000    0.000    0.000    0.000    0.000    0.000 
#
# Total GULP energy -200534.391602 kJ/mol
# GULP energy per Si atom -5570.399767 kJ/mol
# Density = 1.947399 g / cm^3
# Si number density = 19.518412 Si / 1000 Ang^3
#
#
#
# Elastic Constant Matrix: (Units=GPa)
#
#
# Indices 1 2 3 4 5 6 
#
# 1 56.5939 26.2446 23.6494 0.0000 0.0000 0.0000
# 2 26.2446 56.5933 23.6499 0.0000 0.0000 0.0000
# 3 23.6494 23.6499 112.6582 0.0000 0.0000 0.0000
# 4 0.0000 0.0000 0.0000 -80.4530 0.0000 0.0000
# 5 0.0000 0.0000 0.0000 0.0000 -80.6283 0.0000
# 6 0.0000 0.0000 0.0000 0.0000 0.0000 17.9221
#
#
#
# Elastic Compliance Matrix: (Units=1/GPa)
#
#
# Indices 1 2 3 4 5 6 
#
# 1 0.023333 -0.009617 -0.002879 0.000000 0.000000 0.000000
# 2 -0.009617 0.023333 -0.002879 0.000000 0.000000 0.000000
# 3 -0.002879 -0.002879 0.010085 0.000000 0.000000 0.000000
# 4 0.000000 0.000000 0.000000 -0.012430 0.000000 0.000000
# 5 0.000000 0.000000 0.000000 0.000000 -0.012403 0.000000
# 6 0.000000 0.000000 0.000000 0.000000 0.000000 0.055797
#
#
# Mechanical properties :
#
#
# Convention : Reuss Voigt Hill
#
# Bulk Modulus (GPa) = 38.46201 41.43703 39.94952
# Shear Modulus (GPa) = 39.32867 -18.47842 10.42513
#
# Velocity S-wave (km/s) = 4.49369 -3.08021 2.31361
# Velocity P-wave (km/s) = 6.83174 2.93692 5.25824
#
# Compressibility (1/GPa) = 0.02599968
#
# Stress axis : x y z
#
# Youngs Moduli (GPa) = 42.85833 42.85759 99.15462
#
# Poissons Ratio (x) = 0.41217 0.28548
# Poissons Ratio (y) = 0.41217 0.28550
# Poissons Ratio (z) = 0.12340 0.12340
#
# Static dielectric constant tensor:
#      x y z
#    x 3.236170 0.000000 0.000000 
#    y 0.000000 3.238900 0.000000 
#    z 0.000000 0.000000 1.729650 
# 
# From -- ./inp_files/10771.got.cif
#   From: 2010.05.17/outbox.cif.g08.bks.cpg/sg98_6_cif.got.tgz:10771.got - 2010.06.03 20:00:51.
