data_PCOD9551305
_publ_section_title
;
Structure prediction by ZEFSAII (Michael W. Deem and Ramdas Pophale) SiO2 
 PCOD9551305
Probable space group: I 4 2 2 
;
_chemical_formula_sum "Si O2"
_cell_formula_units_Z 64
_cell_length_a 25.386989
_cell_length_b 25.386989
_cell_length_c 4.917025
_cell_angle_alpha 90.000000
_cell_angle_beta 90.000000
_cell_angle_gamma 90.000000
_cell_volume 3169.018730
_symmetry_space_group_name_H-M "I 4 2 2 "
_symmetry_group_IT_number 97
_symmetry_cell_setting 'tetragonal'
loop_
_space_group_symop_operation_xyz
x,y,z
-y,x,z
-x,-y,z
y,-x,z
x,-y,-z
-x,y,-z
y,x,-z
-y,-x,-z
1/2+x,1/2+y,1/2+z
1/2-y,1/2+x,1/2+z
1/2-x,1/2-y,1/2+z
1/2+y,1/2-x,1/2+z
1/2+x,1/2-y,1/2-z
1/2-x,1/2+y,1/2-z
1/2+y,1/2+x,1/2-z
1/2-y,1/2-x,1/2-z
loop_
_atom_site_type_symbol
_atom_site_label
_atom_site_fract_x
_atom_site_fract_y
_atom_site_fract_z
Si Si1 0.344925 0.895430 0.481064
Si Si2 0.604620 0.660145 0.255036
Si Si3 0.330839 0.245157 0.081639
Si Si4 0.000000 0.719817 0.500000
Si Si5 0.500000 0.701996 0.500000
O O1 0.369595 0.869595 0.750000
O O2 0.293561 0.861684 0.381177
O O3 0.319537 0.951307 0.549942
O O4 0.388838 0.888838 0.250000
O O5 0.639034 0.639034 0.500000
O O6 0.622568 0.720556 0.211893
O O7 0.545080 0.665184 0.364468
O O8 0.622844 0.622844 0.000000
O O9 0.293727 0.206274 0.250000
O O10 0.290642 0.290642 0.000000
O O11 0.014838 0.758434 0.752167
#
# Coordination Sequence:
#
# PCOD9551305 Si02
#       5
#    16  16  16   8   8
#     4  11  24  40  62  92 128 170 221 273 333 398
#     4  11  24  40  62  94 133 173 223 272 329 394
#     4  10  20  34  54  88 128 176 208 250 313 402
#     4  12  24  42  68  95 128 177 228 284 332 398
#     4  12  24  42  68  97 130 181 226 276 332 400
#
# _framework density 20.195526000000001
#
# number of rings (size 3 to 8) (size 9 to 14) (size 15 to 20)
#    0.000    1.000    2.500    4.500    7.000    0.000 
#    0.000    0.000    0.000    2.625    0.000    1.750 
#    0.000    0.000    0.000    0.000    0.000    0.000 
#
# Total GULP energy -178157.962842 kJ/mol
# GULP energy per Si atom -5567.436339 kJ/mol
# Density = 2.014956 g / cm^3
# Si number density = 20.195526 Si / 1000 Ang^3
#
#
#
# Elastic Constant Matrix: (Units=GPa)
#
#
# Indices 1 2 3 4 5 6 
#
# 1 165.7285 -12.1003 22.4803 0.0000 0.0000 0.0000
# 2 -12.1003 165.7342 22.4961 0.0000 0.0000 0.0000
# 3 22.4803 22.4961 104.8762 0.0000 0.0000 0.0000
# 4 0.0000 0.0000 0.0000 14.1752 0.0000 0.0000
# 5 0.0000 0.0000 0.0000 0.0000 14.1738 0.0000
# 6 0.0000 0.0000 0.0000 0.0000 0.0000 17.9105
#
#
#
# Elastic Compliance Matrix: (Units=1/GPa)
#
#
# Indices 1 2 3 4 5 6 
#
# 1 0.006284 0.000661 -0.001489 0.000000 0.000000 0.000000
# 2 0.000661 0.006284 -0.001490 0.000000 0.000000 0.000000
# 3 -0.001489 -0.001490 0.010174 0.000000 0.000000 0.000000
# 4 0.000000 0.000000 0.000000 0.070546 0.000000 0.000000
# 5 0.000000 0.000000 0.000000 0.000000 0.070553 0.000000
# 6 0.000000 0.000000 0.000000 0.000000 0.000000 0.055833
#
#
# Mechanical properties :
#
#
# Convention : Reuss Voigt Hill
#
# Bulk Modulus (GPa) = 55.22717 55.78790 55.50754
# Shear Modulus (GPa) = 21.70661 36.14941 28.92801
#
# Velocity S-wave (km/s) = 3.28201 4.23540 3.78881
# Velocity P-wave (km/s) = 6.46279 7.18345 6.83263
#
# Compressibility (1/GPa) = 0.01810703
#
# Stress axis : x y z
#
# Youngs Moduli (GPa) = 159.13014 159.12908 98.29265
#
# Poissons Ratio (x) = -0.10517 0.14634
# Poissons Ratio (y) = -0.10517 0.14642
# Poissons Ratio (z) = 0.23691 0.23704
#
# Static dielectric constant tensor:
#      x y z
#    x 1.809270 0.000000 0.000000 
#    y 0.000000 1.809260 0.000000 
#    z 0.000000 0.000000 1.832440 
# 
# From -- ./inp_files/773.got.cif
#   From: 2010.05.17/outbox.cif.g08.bks.cpg/sg97_1_cif.got.tgz:773.got - 2010.06.03 19:55:32.
