data_PCOD9551819
_publ_section_title
;
Structure prediction by ZEFSAII (Michael W. Deem and Ramdas Pophale) SiO2 
 PCOD9551819
Probable space group: I 41 2 2
;
_chemical_formula_sum "Si O2"
_cell_formula_units_Z 88
_cell_length_a 11.407106
_cell_length_b 11.407106
_cell_length_c 30.528895
_cell_angle_alpha 90.000000
_cell_angle_beta 90.000000
_cell_angle_gamma 90.000000
_cell_volume 3972.482930
_symmetry_space_group_name_H-M "I 41 2 2"
_symmetry_group_IT_number 98
_symmetry_cell_setting 'tetragonal'
loop_
_space_group_symop_operation_xyz
x,y,z
-y,1/2+x,1/4+z
-x,-y,z
y,1/2-x,1/4+z
x,1/2-y,1/4-z
-x,1/2+y,1/4-z
y,x,-z
-y,-x,-z
1/2+x,1/2+y,1/2+z
1/2-y,x,3/4+z
1/2-x,1/2-y,1/2+z
1/2+y,-x,3/4+z
1/2+x,-y,3/4-z
1/2-x,y,3/4-z
1/2+y,1/2+x,1/2-z
1/2-y,1/2-x,1/2-z
loop_
_atom_site_type_symbol
_atom_site_label
_atom_site_fract_x
_atom_site_fract_y
_atom_site_fract_z
Si Si1 0.057098 0.768145 0.713815
Si Si2 0.876651 0.435422 0.399297
Si Si3 0.801912 0.698089 0.250000
Si Si4 0.303924 0.546474 0.064562
Si Si5 0.357341 0.516856 0.247418
Si Si6 0.329066 0.289744 0.078712
O O1 0.024024 0.742429 0.764595
O O2 0.110174 0.653584 0.692156
O O3 0.156409 0.866167 0.718498
O O4 0.938985 0.788834 0.686590
O O5 0.750000 0.452566 0.375000
O O6 0.914298 0.299322 0.403166
O O7 0.854108 0.468321 0.450218
O O8 0.000000 0.500000 0.384830
O O9 0.749862 0.571189 0.237328
O O10 0.724349 0.732309 0.291753
O O11 0.360693 0.426166 0.080060
O O12 0.500000 0.500000 0.239016
O O13 0.283178 0.250000 0.125000
#
# Coordination Sequence:
#
# PCOD9551819 Si02
#       6
#    16  16   8  16  16  16
#     4  10  20  42  66  92 139 186 233 285 368 433
#     4  10  22  42  66  94 131 179 244 298 360 443
#     4  12  22  42  67  99 142 182 236 298 366 428
#     4  10  21  41  69  92 133 186 226 289 367 433
#     4  10  20  41  69  93 133 193 236 291 364 442
#     4  12  23  39  67 106 139 185 239 292 360 450
#
# _framework density 22.152391999999999
#
# number of rings (size 3 to 8) (size 9 to 14) (size 15 to 20)
#    0.000    1.455    3.636    2.727    0.000    5.091 
#   13.091    0.000    0.000    0.000    0.000    0.000 
#    0.000    0.000    0.000    0.000    0.000    0.000 
#
# Total GULP energy -245064.858176 kJ/mol
# GULP energy per Si atom -5569.655868 kJ/mol
# Density = 2.210197 g / cm^3
# Si number density = 22.152392 Si / 1000 Ang^3
#
#
#
# Elastic Constant Matrix: (Units=GPa)
#
#
# Indices 1 2 3 4 5 6 
#
# 1 113.2881 53.2086 22.2334 0.0000 0.0000 0.0000
# 2 53.2086 113.2876 22.2335 0.0000 0.0000 0.0000
# 3 22.2334 22.2335 37.2350 0.0000 0.0000 0.0000
# 4 0.0000 0.0000 0.0000 33.0932 0.0000 0.0000
# 5 0.0000 0.0000 0.0000 0.0000 33.0953 0.0000
# 6 0.0000 0.0000 0.0000 0.0000 0.0000 31.8250
#
#
#
# Elastic Compliance Matrix: (Units=1/GPa)
#
#
# Indices 1 2 3 4 5 6 
#
# 1 0.011895 -0.004750 -0.004267 0.000000 0.000000 0.000000
# 2 -0.004750 0.011895 -0.004267 0.000000 0.000000 0.000000
# 3 -0.004267 -0.004267 0.031952 0.000000 0.000000 0.000000
# 4 0.000000 0.000000 0.000000 0.030218 0.000000 0.000000
# 5 0.000000 0.000000 0.000000 0.000000 0.030216 0.000000
# 6 0.000000 0.000000 0.000000 0.000000 0.000000 0.031422
#
#
# Mechanical properties :
#
#
# Convention : Reuss Voigt Hill
#
# Bulk Modulus (GPa) = 34.27451 51.01800 42.64625
# Shear Modulus (GPa) = 27.19028 30.67835 28.93432
#
# Velocity S-wave (km/s) = 3.50726 3.72543 3.61799
# Velocity P-wave (km/s) = 5.64862 6.44869 6.06187
#
# Compressibility (1/GPa) = 0.02917620
#
# Stress axis : x y z
#
# Youngs Moduli (GPa) = 84.06792 84.06737 31.29699
#
# Poissons Ratio (x) = 0.39928 0.13354
# Poissons Ratio (y) = 0.39928 0.13354
# Poissons Ratio (z) = 0.35869 0.35870
#
# Static dielectric constant tensor:
#      x y z
#    x 1.890530 0.000000 0.000000 
#    y 0.000000 1.890530 0.000000 
#    z 0.000000 0.000000 1.776240 
# 
# From -- ./inp_files/11957.got.cif
#   From: 2010.05.17/outbox.cif.g08.bks.cpg/sg98_6_cif.got.tgz:11957.got - 2010.06.03 20:00:51.
