data_PCOD9551546
_publ_section_title
;
Structure prediction by ZEFSAII (Michael W. Deem and Ramdas Pophale) SiO2 
 PCOD9551546
Probable space group: I 4 2 2 
;
_chemical_formula_sum "Si O2"
_cell_formula_units_Z 60
_cell_length_a 11.587108
_cell_length_b 11.587108
_cell_length_c 20.028433
_cell_angle_alpha 90.000000
_cell_angle_beta 90.000000
_cell_angle_gamma 90.000000
_cell_volume 2689.038881
_symmetry_space_group_name_H-M "I 4 2 2 "
_symmetry_group_IT_number 97
_symmetry_cell_setting 'tetragonal'
loop_
_space_group_symop_operation_xyz
x,y,z
-y,x,z
-x,-y,z
y,-x,z
x,-y,-z
-x,y,-z
y,x,-z
-y,-x,-z
1/2+x,1/2+y,1/2+z
1/2-y,1/2+x,1/2+z
1/2-x,1/2-y,1/2+z
1/2+y,1/2-x,1/2+z
1/2+x,1/2-y,1/2-z
1/2-x,1/2+y,1/2-z
1/2+y,1/2+x,1/2-z
1/2-y,1/2-x,1/2-z
loop_
_atom_site_type_symbol
_atom_site_label
_atom_site_fract_x
_atom_site_fract_y
_atom_site_fract_z
Si Si1 0.000000 0.000000 0.668793
Si Si2 0.180761 0.713633 0.885767
Si Si3 0.860219 0.860219 0.500000
Si Si4 0.564819 0.196725 0.650935
Si Si5 0.266455 0.000677 0.695361
O O1 0.970692 0.861348 0.671276
O O2 0.274420 0.678360 0.940996
O O3 0.203885 0.846444 0.869624
O O4 0.207522 0.631738 0.823080
O O5 0.045094 0.691859 0.897602
O O6 0.000000 0.845866 0.500000
O O7 0.522499 0.223595 0.726055
O O8 0.639502 0.079540 0.657655
#
# Coordination Sequence:
#
# PCOD9551546 Si02
#       5
#     4  16   8  16  16
#     4  12  20  36  72 101 148 197 232 308 380 470
#     4  12  25  46  68 103 149 195 250 314 376 454
#     4  11  28  50  78 107 142 202 272 323 372 455
#     4  11  25  42  69 107 149 196 245 309 392 467
#     4  11  23  40  69 109 149 192 243 310 395 461
#
# _framework density 22.312805000000001
#
# number of rings (size 3 to 8) (size 9 to 14) (size 15 to 20)
#    0.000    0.667    2.667    4.800    3.733    3.733 
#    0.000    1.333    0.000    1.600    0.000    0.000 
#    0.000    0.000    0.000    0.000    0.000    0.000 
#
# Total GULP energy -167234.372979 kJ/mol
# GULP energy per Si atom -5574.479099 kJ/mol
# Density = 2.226202 g / cm^3
# Si number density = 22.312805 Si / 1000 Ang^3
#
#
#
# Elastic Constant Matrix: (Units=GPa)
#
#
# Indices 1 2 3 4 5 6 
#
# 1 187.3427 57.3244 55.5188 0.0000 0.0000 0.0000
# 2 57.3244 187.3427 55.5188 0.0000 0.0000 0.0000
# 3 55.5188 55.5188 79.9397 0.0000 0.0000 0.0000
# 4 0.0000 0.0000 0.0000 23.4801 0.0000 0.0000
# 5 0.0000 0.0000 0.0000 0.0000 23.4801 0.0000
# 6 0.0000 0.0000 0.0000 0.0000 0.0000 41.3727
#
#
#
# Elastic Compliance Matrix: (Units=1/GPa)
#
#
# Indices 1 2 3 4 5 6 
#
# 1 0.006830 -0.000861 -0.004145 0.000000 0.000000 0.000000
# 2 -0.000861 0.006830 -0.004145 0.000000 0.000000 0.000000
# 3 -0.004145 -0.004145 0.018267 0.000000 0.000000 0.000000
# 4 0.000000 0.000000 0.000000 0.042589 0.000000 0.000000
# 5 0.000000 0.000000 0.000000 0.000000 0.042589 0.000000
# 6 0.000000 0.000000 0.000000 0.000000 0.000000 0.024171
#
#
# Mechanical properties :
#
#
# Convention : Reuss Voigt Hill
#
# Bulk Modulus (GPa) = 73.40302 87.92769 80.66536
# Shear Modulus (GPa) = 30.46552 36.75078 33.60815
#
# Velocity S-wave (km/s) = 3.69912 4.06282 3.88522
# Velocity P-wave (km/s) = 7.15635 7.84226 7.50714
#
# Compressibility (1/GPa) = 0.01362342
#
# Stress axis : x y z
#
# Youngs Moduli (GPa) = 146.41740 146.41739 54.74351
#
# Poissons Ratio (x) = 0.12613 0.22692
# Poissons Ratio (y) = 0.12613 0.22692
# Poissons Ratio (z) = 0.60691 0.60691
#
# Static dielectric constant tensor:
#      x y z
#    x 1.831410 0.000000 0.000000 
#    y 0.000000 1.831410 0.000000 
#    z 0.000000 0.000000 1.877610 
# 
# From -- ./inp_files/6368.got.cif
#   From: 2010.05.17/outbox.cif.g08.bks.cpg/sg97_4_cif.got.tgz:6368.got - 2010.06.03 19:55:32.
