data_PCOD9551890
_publ_section_title
;
Structure prediction by ZEFSAII (Michael W. Deem and Ramdas Pophale) SiO2 
 PCOD9551890
Probable space group: I 41 2 2
;
_chemical_formula_sum "Si O2"
_cell_formula_units_Z 72
_cell_length_a 21.098783
_cell_length_b 21.098783
_cell_length_c 7.679016
_cell_angle_alpha 90.000000
_cell_angle_beta 90.000000
_cell_angle_gamma 90.000000
_cell_volume 3418.380350
_symmetry_space_group_name_H-M "I 41 2 2"
_symmetry_group_IT_number 98
_symmetry_cell_setting 'tetragonal'
loop_
_space_group_symop_operation_xyz
x,y,z
-y,1/2+x,1/4+z
-x,-y,z
y,1/2-x,1/4+z
x,1/2-y,1/4-z
-x,1/2+y,1/4-z
y,x,-z
-y,-x,-z
1/2+x,1/2+y,1/2+z
1/2-y,x,3/4+z
1/2-x,1/2-y,1/2+z
1/2+y,-x,3/4+z
1/2+x,-y,3/4-z
1/2-x,y,3/4-z
1/2+y,1/2+x,1/2-z
1/2-y,1/2-x,1/2-z
loop_
_atom_site_type_symbol
_atom_site_label
_atom_site_fract_x
_atom_site_fract_y
_atom_site_fract_z
Si Si1 0.115892 0.544865 0.598399
Si Si2 0.600999 0.646113 0.810163
Si Si3 0.375740 0.624261 0.500000
Si Si4 0.258402 0.947159 0.672163
Si Si5 0.581442 0.780798 0.936045
O O1 0.068192 0.568192 0.750000
O O2 0.118262 0.470056 0.553717
O O3 0.107405 0.580877 0.415629
O O4 0.188597 0.561119 0.656279
O O5 0.598215 0.722506 0.808868
O O6 0.653448 0.618389 0.680509
O O7 0.625139 0.625139 0.000000
O O8 0.304619 0.612173 0.566204
O O9 0.292447 0.006491 0.582777
O O10 0.250000 0.965666 0.875000
O O11 0.592660 0.750000 0.125000
#
# Coordination Sequence:
#
# PCOD9551890 Si02
#       5
#    16  16   8  16  16
#     4  10  22  39  64  93 125 165 209 260 321 385
#     4   9  19  36  62  92 121 163 209 262 311 384
#     4  10  22  38  63  88 124 162 206 258 316 383
#     4   9  20  39  59  88 123 163 206 259 323 386
#     4   9  18  35  63  86 118 162 206 252 315 371
#
# _framework density 21.062605999999999
#
# number of rings (size 3 to 8) (size 9 to 14) (size 15 to 20)
#    0.000    2.667    0.000    0.000    9.333    0.444 
#    0.000   11.111   22.000   82.667    0.000    0.000 
#    0.000    0.000    0.000    0.000    0.000    0.000 
#
# Total GULP energy -200724.098661 kJ/mol
# GULP energy per Si atom -5575.669407 kJ/mol
# Density = 2.101467 g / cm^3
# Si number density = 21.062606 Si / 1000 Ang^3
#
#
#
# Elastic Constant Matrix: (Units=GPa)
#
#
# Indices 1 2 3 4 5 6 
#
# 1 116.8122 82.9208 25.0326 0.0000 0.0000 0.0000
# 2 82.9208 116.8141 25.0317 0.0000 0.0000 0.0000
# 3 25.0326 25.0317 66.9775 0.0000 0.0000 0.0000
# 4 0.0000 0.0000 0.0000 26.6027 0.0000 0.0000
# 5 0.0000 0.0000 0.0000 0.0000 26.6022 0.0000
# 6 0.0000 0.0000 0.0000 0.0000 0.0000 41.4620
#
#
#
# Elastic Compliance Matrix: (Units=1/GPa)
#
#
# Indices 1 2 3 4 5 6 
#
# 1 0.017515 -0.011990 -0.002065 0.000000 0.000000 0.000000
# 2 -0.011990 0.017514 -0.002064 0.000000 0.000000 0.000000
# 3 -0.002065 -0.002064 0.016474 0.000000 0.000000 0.000000
# 4 0.000000 0.000000 0.000000 0.037590 0.000000 0.000000
# 5 0.000000 0.000000 0.000000 0.000000 0.037591 0.000000
# 6 0.000000 0.000000 0.000000 0.000000 0.000000 0.024118
#
#
# Mechanical properties :
#
#
# Convention : Reuss Voigt Hill
#
# Bulk Modulus (GPa) = 51.91147 62.95265 57.43206
# Shear Modulus (GPa) = 26.39039 30.10798 28.24919
#
# Velocity S-wave (km/s) = 3.54354 3.78491 3.66621
# Velocity P-wave (km/s) = 6.43755 7.00385 6.72666
#
# Compressibility (1/GPa) = 0.01926357
#
# Stress axis : x y z
#
# Youngs Moduli (GPa) = 57.09439 57.09573 60.70307
#
# Poissons Ratio (x) = 0.68461 0.12534
# Poissons Ratio (y) = 0.68459 0.12531
# Poissons Ratio (z) = 0.11789 0.11786
#
# Static dielectric constant tensor:
#      x y z
#    x 1.787890 0.000000 0.000000 
#    y 0.000000 1.787890 0.000000 
#    z 0.000000 0.000000 1.805280 
# 
# From -- ./inp_files/3412.got.cif
#   From: 2010.05.17/outbox.cif.g08.bks.cpg/sg98_2_cif.got.tgz:3412.got - 2010.06.03 20:00:51.
