data_PCOD9551408
_publ_section_title
;
Structure prediction by ZEFSAII (Michael W. Deem and Ramdas Pophale) SiO2 
 PCOD9551408
Probable space group: I 4 2 2 
;
_chemical_formula_sum "Si O2"
_cell_formula_units_Z 112
_cell_length_a 14.909871
_cell_length_b 14.909871
_cell_length_c 20.943345
_cell_angle_alpha 90.000000
_cell_angle_beta 90.000000
_cell_angle_gamma 90.000000
_cell_volume 4655.794671
_symmetry_space_group_name_H-M "I 4 2 2 "
_symmetry_group_IT_number 97
_symmetry_cell_setting 'tetragonal'
loop_
_space_group_symop_operation_xyz
x,y,z
-y,x,z
-x,-y,z
y,-x,z
x,-y,-z
-x,y,-z
y,x,-z
-y,-x,-z
1/2+x,1/2+y,1/2+z
1/2-y,1/2+x,1/2+z
1/2-x,1/2-y,1/2+z
1/2+y,1/2-x,1/2+z
1/2+x,1/2-y,1/2-z
1/2-x,1/2+y,1/2-z
1/2+y,1/2+x,1/2-z
1/2-y,1/2-x,1/2-z
loop_
_atom_site_type_symbol
_atom_site_label
_atom_site_fract_x
_atom_site_fract_y
_atom_site_fract_z
Si Si1 0.759926 0.606708 0.504377
Si Si2 0.605432 0.098434 0.113590
Si Si3 0.002093 0.150620 0.432778
Si Si4 0.780052 0.907228 0.320525
Si Si5 0.266818 0.219847 0.824429
Si Si6 0.092329 0.883468 0.187127
Si Si7 0.105671 0.400282 0.880077
O O1 0.732302 0.500000 0.500000
O O2 0.676505 0.676505 0.500000
O O3 0.827289 0.618332 0.444680
O O4 0.824769 0.623222 0.565829
O O5 0.647633 0.157564 0.168952
O O6 0.502352 0.110572 0.093840
O O7 0.615523 0.996830 0.137012
O O8 0.990085 0.201113 0.366883
O O9 0.085103 0.083952 0.433091
O O10 0.000000 0.202617 0.500000
O O11 0.793212 0.812696 0.357005
O O12 0.846446 0.909904 0.260524
O O13 0.671799 0.901759 0.319108
O O14 0.256104 0.243897 0.750000
O O15 0.171907 0.175492 0.843760
O O16 0.986258 0.879126 0.172369
#
# Coordination Sequence:
#
# PCOD9551408 Si02
#       7
#    16  16  16  16  16  16  16
#     4  10  21  42  68  97 137 176 227 285 343 418
#     4  10  22  43  65  91 132 173 230 275 338 404
#     4   9  19  35  54  85 132 172 211 258 313 390
#     4  11  22  37  62  97 131 170 220 273 343 404
#     4  10  24  41  64  94 127 174 226 285 336 400
#     4  10  23  43  68  94 129 177 224 286 360 410
#     4  10  23  39  65  97 129 180 213 273 347 417
#
# _framework density 24.056045000000001
#
# number of rings (size 3 to 8) (size 9 to 14) (size 15 to 20)
#    0.000    2.000    0.000    2.571    8.000    4.143 
#    5.143    1.429    0.000    0.000    0.000    0.000 
#    0.000    0.000    0.000    0.000    0.000    0.000 
#
# Total GULP energy -312110.451289 kJ/mol
# GULP energy per Si atom -5573.400916 kJ/mol
# Density = 2.400129 g / cm^3
# Si number density = 24.056045 Si / 1000 Ang^3
#
#
#
# Elastic Constant Matrix: (Units=GPa)
#
#
# Indices 1 2 3 4 5 6 
#
# 1 135.0561 57.1054 31.0980 0.0000 0.0000 0.0000
# 2 57.1054 135.0562 31.0979 0.0000 0.0000 0.0000
# 3 31.0980 31.0979 41.3410 0.0000 0.0000 0.0000
# 4 0.0000 0.0000 0.0000 22.6635 0.0000 0.0000
# 5 0.0000 0.0000 0.0000 0.0000 22.6635 0.0000
# 6 0.0000 0.0000 0.0000 0.0000 0.0000 40.4215
#
#
#
# Elastic Compliance Matrix: (Units=1/GPa)
#
#
# Indices 1 2 3 4 5 6 
#
# 1 0.009854 -0.002975 -0.005174 0.000000 0.000000 0.000000
# 2 -0.002975 0.009854 -0.005174 0.000000 0.000000 0.000000
# 3 -0.005174 -0.005174 0.031974 0.000000 0.000000 0.000000
# 4 0.000000 0.000000 0.000000 0.044124 0.000000 0.000000
# 5 0.000000 0.000000 0.000000 0.000000 0.044124 0.000000
# 6 0.000000 0.000000 0.000000 0.000000 0.000000 0.024739
#
#
# Mechanical properties :
#
#
# Convention : Reuss Voigt Hill
#
# Bulk Modulus (GPa) = 39.94626 61.11732 50.53179
# Shear Modulus (GPa) = 25.04258 29.95983 27.50121
#
# Velocity S-wave (km/s) = 3.22997 3.53288 3.38481
# Velocity P-wave (km/s) = 5.52737 6.48868 6.02722
#
# Compressibility (1/GPa) = 0.02503363
#
# Stress axis : x y z
#
# Youngs Moduli (GPa) = 101.48496 101.48520 31.27572
#
# Poissons Ratio (x) = 0.30191 0.16183
# Poissons Ratio (y) = 0.30191 0.16183
# Poissons Ratio (z) = 0.52512 0.52512
#
# Static dielectric constant tensor:
#      x y z
#    x 1.980220 0.000000 0.000000 
#    y 0.000000 1.980220 0.000000 
#    z 0.000000 0.000000 1.974860 
# 
# From -- ./inp_files/7247.got.cif
#   From: 2010.05.17/outbox.cif.g08.bks.cpg/sg97_4_cif.got.tgz:7247.got - 2010.06.03 19:55:32.
