data_PCOD9551923
_publ_section_title
;
Structure prediction by ZEFSAII (Michael W. Deem and Ramdas Pophale) SiO2 
 PCOD9551923
Probable space group: I 41 2 2
;
_chemical_formula_sum "Si O2"
_cell_formula_units_Z 52
_cell_length_a 18.276900
_cell_length_b 18.276900
_cell_length_c 6.886608
_cell_angle_alpha 90.000000
_cell_angle_beta 90.000000
_cell_angle_gamma 90.000000
_cell_volume 2300.437476
_symmetry_space_group_name_H-M "I 41 2 2"
_symmetry_group_IT_number 98
_symmetry_cell_setting 'tetragonal'
loop_
_space_group_symop_operation_xyz
x,y,z
-y,1/2+x,1/4+z
-x,-y,z
y,1/2-x,1/4+z
x,1/2-y,1/4-z
-x,1/2+y,1/4-z
y,x,-z
-y,-x,-z
1/2+x,1/2+y,1/2+z
1/2-y,x,3/4+z
1/2-x,1/2-y,1/2+z
1/2+y,-x,3/4+z
1/2+x,-y,3/4-z
1/2-x,y,3/4-z
1/2+y,1/2+x,1/2-z
1/2-y,1/2-x,1/2-z
loop_
_atom_site_type_symbol
_atom_site_label
_atom_site_fract_x
_atom_site_fract_y
_atom_site_fract_z
Si Si1 0.175789 0.175789 0.000000
Si Si2 0.000000 0.500000 0.750000
Si Si3 0.675669 0.175669 0.250000
Si Si4 0.432995 0.163601 0.095062
Si Si5 0.415702 0.915752 0.981657
O O1 0.174505 0.250000 0.125000
O O2 0.164979 0.110319 0.146027
O O3 0.065690 0.508465 0.591935
O O4 0.750000 0.171502 0.375000
O O5 0.615787 0.157154 0.417243
O O6 0.443609 0.250000 0.125000
O O7 0.379091 0.120909 0.250000
O O8 0.513598 0.130371 0.054051
O O9 0.415420 0.915420 0.750000
#
# Coordination Sequence:
#
# PCOD9551923 Si02
#       5
#     8   4   8  16  16
#     4  12  24  40  68 106 152 206 256 302 368 448
#     4  10  22  44  70 106 156 192 236 310 388 464
#     4  11  28  53  80 112 152 197 262 339 400 472
#     4  12  25  46  72 109 155 201 257 310 368 459
#     4  11  26  47  79 111 150 202 259 321 399 471
#
# _framework density 22.604396999999999
#
# number of rings (size 3 to 8) (size 9 to 14) (size 15 to 20)
#    0.000    0.615    4.615    2.308    6.462    0.000 
#    5.538    0.000    0.000    0.000    0.000    0.000 
#    0.000    0.000    0.000    0.000    0.000    0.000 
#
# Total GULP energy -144857.708709 kJ/mol
# GULP energy per Si atom -5571.450335 kJ/mol
# Density = 2.255295 g / cm^3
# Si number density = 22.604397 Si / 1000 Ang^3
#
#
#
# Elastic Constant Matrix: (Units=GPa)
#
#
# Indices 1 2 3 4 5 6 
#
# 1 95.7797 54.3834 56.5162 0.0000 0.0000 0.0000
# 2 54.3834 95.7797 56.5162 0.0000 0.0000 0.0000
# 3 56.5162 56.5162 236.7609 0.0000 0.0000 0.0000
# 4 0.0000 0.0000 0.0000 41.9738 0.0000 0.0000
# 5 0.0000 0.0000 0.0000 0.0000 41.9738 0.0000
# 6 0.0000 0.0000 0.0000 0.0000 0.0000 32.5447
#
#
#
# Elastic Compliance Matrix: (Units=1/GPa)
#
#
# Indices 1 2 3 4 5 6 
#
# 1 0.016137 -0.008019 -0.001938 0.000000 0.000000 0.000000
# 2 -0.008019 0.016137 -0.001938 0.000000 0.000000 0.000000
# 3 -0.001938 -0.001938 0.005149 0.000000 0.000000 0.000000
# 4 0.000000 0.000000 0.000000 0.023824 0.000000 0.000000
# 5 0.000000 0.000000 0.000000 0.000000 0.023824 0.000000
# 6 0.000000 0.000000 0.000000 0.000000 0.000000 0.030727
#
#
# Mechanical properties :
#
#
# Convention : Reuss Voigt Hill
#
# Bulk Modulus (GPa) = 73.34785 84.79463 79.07124
# Shear Modulus (GPa) = 34.68995 40.69211 37.69103
#
# Velocity S-wave (km/s) = 3.92172 4.24746 4.08784
# Velocity P-wave (km/s) = 7.28186 7.85165 7.57212
#
# Compressibility (1/GPa) = 0.01363367
#
# Stress axis : x y z
#
# Youngs Moduli (GPa) = 61.96774 61.96774 194.21948
#
# Poissons Ratio (x) = 0.49694 0.37637
# Poissons Ratio (y) = 0.49694 0.37637
# Poissons Ratio (z) = 0.12008 0.12008
#
# Static dielectric constant tensor:
#      x y z
#    x 2.036100 0.000000 0.000000 
#    y 0.000000 2.036100 0.000000 
#    z 0.000000 0.000000 1.796810 
# 
# From -- ./inp_files/1003.got.cif
#   From: 2010.05.17/outbox.cif.g08.bks.cpg/sg98_1_cif.got.tgz:1003.got - 2010.06.03 20:00:51.
