data_PCOD9551771
_publ_section_title
;
Structure prediction by ZEFSAII (Michael W. Deem and Ramdas Pophale) SiO2 
 PCOD9551771
Probable space group: I 41 2 2
;
_chemical_formula_sum "Si O2"
_cell_formula_units_Z 72
_cell_length_a 14.480928
_cell_length_b 14.480928
_cell_length_c 19.215939
_cell_angle_alpha 90.000000
_cell_angle_beta 90.000000
_cell_angle_gamma 90.000000
_cell_volume 4029.530059
_symmetry_space_group_name_H-M "I 41 2 2"
_symmetry_group_IT_number 98
_symmetry_cell_setting 'tetragonal'
loop_
_space_group_symop_operation_xyz
x,y,z
-y,1/2+x,1/4+z
-x,-y,z
y,1/2-x,1/4+z
x,1/2-y,1/4-z
-x,1/2+y,1/4-z
y,x,-z
-y,-x,-z
1/2+x,1/2+y,1/2+z
1/2-y,x,3/4+z
1/2-x,1/2-y,1/2+z
1/2+y,-x,3/4+z
1/2+x,-y,3/4-z
1/2-x,y,3/4-z
1/2+y,1/2+x,1/2-z
1/2-y,1/2-x,1/2-z
loop_
_atom_site_type_symbol
_atom_site_label
_atom_site_fract_x
_atom_site_fract_y
_atom_site_fract_z
Si Si1 0.840675 0.653682 0.011475
Si Si2 0.768405 0.152232 0.797849
Si Si3 0.522229 0.675371 0.483931
Si Si4 0.603100 0.474242 0.664301
Si Si5 0.750000 0.786631 0.375000
O O1 0.877739 0.554046 0.029991
O O2 0.779742 0.683354 0.079064
O O3 0.912355 0.737205 0.999839
O O4 0.791190 0.652569 0.936904
O O5 0.750000 0.184406 0.875000
O O6 0.736902 0.236902 0.750000
O O7 0.874181 0.116660 0.800337
O O8 0.699186 0.066688 0.780816
O O9 0.584966 0.584966 0.500000
O O10 0.487795 0.666582 0.404304
O O11 0.500000 0.500000 0.639819
#
# Coordination Sequence:
#
# PCOD9551771 Si02
#       5
#    16  16  16  16   8
#     4  11  20  37  60  91 125 164 206 265 317 381
#     4  12  26  43  62  88 130 173 214 263 322 384
#     4  12  23  37  64  98 130 161 200 262 335 388
#     4  12  24  40  64  93 128 169 215 260 323 394
#     4  10  20  36  60  90 128 158 204 264 330 366
#
# _framework density 17.868089999999999
#
# number of rings (size 3 to 8) (size 9 to 14) (size 15 to 20)
#    0.000    0.444    8.889    1.333    1.556    0.000 
#    2.000    0.000    0.000    0.000    0.000    1.556 
#    0.000    0.000    0.000    0.000    0.000    0.000 
#
# Total GULP energy -200633.664127 kJ/mol
# GULP energy per Si atom -5573.157337 kJ/mol
# Density = 1.782742 g / cm^3
# Si number density = 17.868090 Si / 1000 Ang^3
#
#
#
# Elastic Constant Matrix: (Units=GPa)
#
#
# Indices 1 2 3 4 5 6 
#
# 1 94.8456 40.4242 47.2492 0.0000 0.0000 0.0000
# 2 40.4242 94.8456 47.2492 0.0000 0.0000 0.0000
# 3 47.2492 47.2492 123.4343 0.0000 0.0000 0.0000
# 4 0.0000 0.0000 0.0000 23.8798 0.0000 0.0000
# 5 0.0000 0.0000 0.0000 0.0000 23.8798 0.0000
# 6 0.0000 0.0000 0.0000 0.0000 0.0000 28.3172
#
#
#
# Elastic Compliance Matrix: (Units=1/GPa)
#
#
# Indices 1 2 3 4 5 6 
#
# 1 0.014233 -0.004142 -0.003863 0.000000 0.000000 0.000000
# 2 -0.004142 0.014233 -0.003863 0.000000 0.000000 0.000000
# 3 -0.003863 -0.003863 0.011059 0.000000 0.000000 0.000000
# 4 0.000000 0.000000 0.000000 0.041876 0.000000 0.000000
# 5 0.000000 0.000000 0.000000 0.000000 0.041876 0.000000
# 6 0.000000 0.000000 0.000000 0.000000 0.000000 0.035314
#
#
# Mechanical properties :
#
#
# Convention : Reuss Voigt Hill
#
# Bulk Modulus (GPa) = 63.33156 64.77453 64.05305
# Shear Modulus (GPa) = 26.65385 27.09557 26.87471
#
# Velocity S-wave (km/s) = 3.86644 3.89835 3.88243
# Velocity P-wave (km/s) = 7.44671 7.52284 7.48487
#
# Compressibility (1/GPa) = 0.01578991
#
# Stress axis : x y z
#
# Youngs Moduli (GPa) = 70.25861 70.25861 90.42626
#
# Poissons Ratio (x) = 0.29101 0.34930
# Poissons Ratio (y) = 0.29101 0.34930
# Poissons Ratio (z) = 0.27139 0.27139
#
# Static dielectric constant tensor:
#      x y z
#    x 1.661910 0.000000 0.000000 
#    y 0.000000 1.661910 0.000000 
#    z 0.000000 0.000000 1.599130 
# 
# From -- ./inp_files/7480.got.cif
#   From: 2010.05.17/outbox.cif.g08.bks.cpg/sg98_4_cif.got.tgz:7480.got - 2010.06.03 20:00:51.
