data_PCOD9551287
_publ_section_title
;
Structure prediction by ZEFSAII (Michael W. Deem and Ramdas Pophale) SiO2 
 PCOD9551287
Probable space group: I 4 2 2 
;
_chemical_formula_sum "Si O2"
_cell_formula_units_Z 96
_cell_length_a 14.969495
_cell_length_b 14.969495
_cell_length_c 20.209807
_cell_angle_alpha 90.000000
_cell_angle_beta 90.000000
_cell_angle_gamma 90.000000
_cell_volume 4528.730376
_symmetry_space_group_name_H-M "I 4 2 2 "
_symmetry_group_IT_number 97
_symmetry_cell_setting 'tetragonal'
loop_
_space_group_symop_operation_xyz
x,y,z
-y,x,z
-x,-y,z
y,-x,z
x,-y,-z
-x,y,-z
y,x,-z
-y,-x,-z
1/2+x,1/2+y,1/2+z
1/2-y,1/2+x,1/2+z
1/2-x,1/2-y,1/2+z
1/2+y,1/2-x,1/2+z
1/2+x,1/2-y,1/2-z
1/2-x,1/2+y,1/2-z
1/2+y,1/2+x,1/2-z
1/2-y,1/2-x,1/2-z
loop_
_atom_site_type_symbol
_atom_site_label
_atom_site_fract_x
_atom_site_fract_y
_atom_site_fract_z
Si Si1 0.006872 0.361782 0.099901
Si Si2 0.497670 0.357376 0.079057
Si Si3 0.421313 0.681847 0.454144
Si Si4 0.565914 0.369622 0.300601
Si Si5 0.150607 0.478650 0.885573
Si Si6 0.536470 0.186451 0.254600
O O1 0.050025 0.283287 0.058090
O O2 0.082770 0.438185 0.103646
O O3 0.992528 0.323727 0.173816
O O4 0.909327 0.400440 0.081870
O O5 0.585724 0.411370 0.103849
O O6 0.493307 0.251589 0.090972
O O7 0.500000 0.366258 0.000000
O O8 0.500000 0.641602 0.500000
O O9 0.335198 0.664803 0.500000
O O10 0.417369 0.643817 0.379641
O O11 0.615360 0.461204 0.285595
O O12 0.586110 0.282045 0.257868
O O13 0.166118 0.471753 0.806407
O O14 0.611324 0.111324 0.250000
#
# Coordination Sequence:
#
# PCOD9551287 Si02
#       6
#    16  16  16  16  16  16
#     4   9  21  38  59  90 122 158 208 261 309 381
#     4   9  20  40  62  87 119 159 206 256 316 384
#     4  11  21  37  58  85 119 166 211 245 306 378
#     4  10  20  35  57  86 118 153 200 251 305 370
#     4  10  19  39  64  86 119 163 204 257 327 375
#     4   9  19  37  59  84 117 158 201 251 310 373
#
# _framework density 21.197993
#
# number of rings (size 3 to 8) (size 9 to 14) (size 15 to 20)
#    0.000    2.333    1.667    1.000    0.000    4.833 
#    6.000    8.333    0.000    0.000    0.000    0.000 
#    0.000    0.000    0.000    0.000    0.000    0.000 
#
# Total GULP energy -267373.188876 kJ/mol
# GULP energy per Si atom -5570.274768 kJ/mol
# Density = 2.114975 g / cm^3
# Si number density = 21.197993 Si / 1000 Ang^3
#
#
#
# Elastic Constant Matrix: (Units=GPa)
#
#
# Indices 1 2 3 4 5 6 
#
# 1 103.1670 40.8032 22.4119 0.0000 0.0000 0.0000
# 2 40.8032 103.1658 22.4118 0.0000 0.0000 0.0000
# 3 22.4119 22.4118 49.8569 0.0000 0.0000 0.0000
# 4 0.0000 0.0000 0.0000 23.6259 0.0000 0.0000
# 5 0.0000 0.0000 0.0000 0.0000 23.6267 0.0000
# 6 0.0000 0.0000 0.0000 0.0000 0.0000 14.6686
#
#
#
# Elastic Compliance Matrix: (Units=1/GPa)
#
#
# Indices 1 2 3 4 5 6 
#
# 1 0.012056 -0.003979 -0.003630 0.000000 0.000000 0.000000
# 2 -0.003979 0.012056 -0.003630 0.000000 0.000000 0.000000
# 3 -0.003630 -0.003630 0.023321 0.000000 0.000000 0.000000
# 4 0.000000 0.000000 0.000000 0.042326 0.000000 0.000000
# 5 0.000000 0.000000 0.000000 0.000000 0.042325 0.000000
# 6 0.000000 0.000000 0.000000 0.000000 0.000000 0.068173
#
#
# Mechanical properties :
#
#
# Convention : Reuss Voigt Hill
#
# Bulk Modulus (GPa) = 40.07694 47.49370 43.78532
# Shear Modulus (GPa) = 21.63986 23.75509 22.69747
#
# Velocity S-wave (km/s) = 3.19853 3.35121 3.27576
# Velocity P-wave (km/s) = 5.70858 6.11781 5.91673
#
# Compressibility (1/GPa) = 0.02495200
#
# Stress axis : x y z
#
# Youngs Moduli (GPa) = 82.94911 82.94807 42.87914
#
# Poissons Ratio (x) = 0.33009 0.15567
# Poissons Ratio (y) = 0.33009 0.15567
# Poissons Ratio (z) = 0.30114 0.30114
#
# Static dielectric constant tensor:
#      x y z
#    x 1.806460 0.000000 0.000000 
#    y 0.000000 1.806450 0.000000 
#    z 0.000000 0.000000 1.835210 
# 
# From -- ./inp_files/6615.got.cif
#   From: 2010.05.17/outbox.cif.g08.bks.cpg/sg97_4_cif.got.tgz:6615.got - 2010.06.03 19:55:32.
