data_PCOD9551395
_publ_section_title
;
Structure prediction by ZEFSAII (Michael W. Deem and Ramdas Pophale) SiO2 
 PCOD9551395
Probable space group: I 4 2 2 
;
_chemical_formula_sum "Si O2"
_cell_formula_units_Z 116
_cell_length_a 18.502981
_cell_length_b 18.502981
_cell_length_c 17.205399
_cell_angle_alpha 90.000000
_cell_angle_beta 90.000000
_cell_angle_gamma 90.000000
_cell_volume 5890.445665
_symmetry_space_group_name_H-M "I 4 2 2 "
_symmetry_group_IT_number 97
_symmetry_cell_setting 'tetragonal'
loop_
_space_group_symop_operation_xyz
x,y,z
-y,x,z
-x,-y,z
y,-x,z
x,-y,-z
-x,y,-z
y,x,-z
-y,-x,-z
1/2+x,1/2+y,1/2+z
1/2-y,1/2+x,1/2+z
1/2-x,1/2-y,1/2+z
1/2+y,1/2-x,1/2+z
1/2+x,1/2-y,1/2-z
1/2-x,1/2+y,1/2-z
1/2+y,1/2+x,1/2-z
1/2-y,1/2-x,1/2-z
loop_
_atom_site_type_symbol
_atom_site_label
_atom_site_fract_x
_atom_site_fract_y
_atom_site_fract_z
Si Si1 0.757563 0.536583 0.843347
Si Si2 0.622662 0.246363 0.305992
Si Si3 0.345332 0.228149 0.022007
Si Si4 0.971539 0.826525 0.806248
Si Si5 0.893096 0.682189 0.352619
Si Si6 0.500000 0.500000 0.285800
Si Si7 0.384723 0.490786 0.092578
Si Si8 0.347637 0.295405 0.421227
O O1 0.764316 0.597132 0.908843
O O2 0.722490 0.563345 0.763133
O O3 0.822943 0.479223 0.835846
O O4 0.693370 0.484675 0.874074
O O5 0.550551 0.292402 0.316758
O O6 0.617225 0.163216 0.335480
O O7 0.635464 0.239134 0.213314
O O8 0.681893 0.285971 0.358868
O O9 0.285239 0.171336 0.051002
O O10 0.301998 0.301998 0.000000
O O11 0.381569 0.202819 0.942012
O O12 0.978827 0.911746 0.788843
O O13 0.922921 0.811341 0.880846
O O14 0.436401 0.426038 0.117303
O O15 0.381685 0.500000 0.000000
O O16 0.341016 0.341016 0.500000
#
# Coordination Sequence:
#
# PCOD9551395 Si02
#       8
#    16  16  16  16  16   4  16  16
#     4  11  25  35  60  91 129 171 212 257 319 387
#     4  10  21  41  66  85 122 171 216 266 324 388
#     4  11  23  37  61  95 127 167 212 272 319 377
#     4  11  26  41  63  94 126 177 210 274 329 397
#     4  10  21  40  60  88 123 167 214 264 317 387
#     4  12  24  44  61  92 141 164 218 264 332 393
#     4   9  19  29  41  69 113 162 200 233 277 353
#     4  11  23  43  62  94 124 162 226 271 329 384
#
# _framework density 19.692907000000002
#
# number of rings (size 3 to 8) (size 9 to 14) (size 15 to 20)
#    0.000    1.517    4.138    1.655    7.724    1.103 
#    0.000    0.345    0.000    0.828    0.000    5.793 
#    0.000    0.000    0.000    0.000    0.000    0.000 
#
# Total GULP energy -322882.501619 kJ/mol
# GULP energy per Si atom -5566.939683 kJ/mol
# Density = 1.964809 g / cm^3
# Si number density = 19.692907 Si / 1000 Ang^3
#
#
#
# Elastic Constant Matrix: (Units=GPa)
#
#
# Indices 1 2 3 4 5 6 
#
# 1 56.5923 34.0278 36.6153 0.0000 0.0000 0.0000
# 2 34.0278 56.5923 36.6153 0.0000 0.0000 0.0000
# 3 36.6153 36.6153 122.1758 0.0000 0.0000 0.0000
# 4 0.0000 0.0000 0.0000 29.2764 0.0000 0.0000
# 5 0.0000 0.0000 0.0000 0.0000 29.2764 0.0000
# 6 0.0000 0.0000 0.0000 0.0000 0.0000 8.6348
#
#
#
# Elastic Compliance Matrix: (Units=1/GPa)
#
#
# Indices 1 2 3 4 5 6 
#
# 1 0.029439 -0.014878 -0.004364 0.000000 0.000000 0.000000
# 2 -0.014878 0.029439 -0.004364 0.000000 0.000000 0.000000
# 3 -0.004364 -0.004364 0.010801 0.000000 0.000000 0.000000
# 4 0.000000 0.000000 0.000000 0.034157 0.000000 0.000000
# 5 0.000000 0.000000 0.000000 0.000000 0.034157 0.000000
# 6 0.000000 0.000000 0.000000 0.000000 0.000000 0.115810
#
#
# Mechanical properties :
#
#
# Convention : Reuss Voigt Hill
#
# Bulk Modulus (GPa) = 44.50798 49.98636 47.24717
# Shear Modulus (GPa) = 16.20718 21.97768 19.09243
#
# Velocity S-wave (km/s) = 2.87190 3.34431 3.11707
# Velocity P-wave (km/s) = 5.80062 6.35221 6.08267
#
# Compressibility (1/GPa) = 0.02246788
#
# Stress axis : x y z
#
# Youngs Moduli (GPa) = 33.96801 33.96801 92.58680
#
# Poissons Ratio (x) = 0.50537 0.40405
# Poissons Ratio (y) = 0.50537 0.40405
# Poissons Ratio (z) = 0.14824 0.14824
#
# Static dielectric constant tensor:
#      x y z
#    x 1.719880 0.000000 0.000000 
#    y 0.000000 1.719880 0.000000 
#    z 0.000000 0.000000 1.737260 
# 
# From -- ./inp_files/5908.got.cif
#   From: 2010.05.17/outbox.cif.g08.bks.cpg/sg97_3_cif.got.tgz:5908.got - 2010.06.03 19:55:32.
