data_PCOD9551710
_publ_section_title
;
Structure prediction by ZEFSAII (Michael W. Deem and Ramdas Pophale) SiO2 
 PCOD9551710
Probable space group: I 41 2 2
;
_chemical_formula_sum "Si O2"
_cell_formula_units_Z 72
_cell_length_a 13.709107
_cell_length_b 13.709107
_cell_length_c 18.671938
_cell_angle_alpha 90.000000
_cell_angle_beta 90.000000
_cell_angle_gamma 90.000000
_cell_volume 3509.196834
_symmetry_space_group_name_H-M "I 41 2 2"
_symmetry_group_IT_number 98
_symmetry_cell_setting 'tetragonal'
loop_
_space_group_symop_operation_xyz
x,y,z
-y,1/2+x,1/4+z
-x,-y,z
y,1/2-x,1/4+z
x,1/2-y,1/4-z
-x,1/2+y,1/4-z
y,x,-z
-y,-x,-z
1/2+x,1/2+y,1/2+z
1/2-y,x,3/4+z
1/2-x,1/2-y,1/2+z
1/2+y,-x,3/4+z
1/2+x,-y,3/4-z
1/2-x,y,3/4-z
1/2+y,1/2+x,1/2-z
1/2-y,1/2-x,1/2-z
loop_
_atom_site_type_symbol
_atom_site_label
_atom_site_fract_x
_atom_site_fract_y
_atom_site_fract_z
Si Si1 0.970311 0.170169 0.785358
Si Si2 0.867104 0.513969 0.880158
Si Si3 0.116259 0.383742 0.250000
Si Si4 0.000000 0.500000 0.359714
Si Si5 0.126702 0.873299 0.500000
Si Si6 0.236465 0.367505 0.621444
O O1 0.897368 0.262379 0.775802
O O2 0.974652 0.116197 0.709387
O O3 0.954357 0.087522 0.844283
O O4 0.075470 0.212976 0.812335
O O5 0.750000 0.518761 0.875000
O O6 0.896692 0.444383 0.815960
O O7 0.899821 0.624806 0.874614
O O8 0.088846 0.461118 0.311180
O O9 0.106262 0.283952 0.294463
O O10 0.245649 0.250000 0.625000
#
# Coordination Sequence:
#
# PCOD9551710 Si02
#       6
#    16  16   8   8   8  16
#     4  10  21  37  61  89 122 166 214 263 318 386
#     4   9  20  36  58  89 123 155 194 242 304 377
#     4   9  18  36  60  86 124 161 206 264 316 367
#     4   9  20  38  60  87 118 164 218 265 314 370
#     4  10  22  39  60  88 124 164 198 251 322 386
#     4  10  19  33  58  93 127 159 199 256 319 380
#
# _framework density 20.517516000000001
#
# number of rings (size 3 to 8) (size 9 to 14) (size 15 to 20)
#    0.000    2.444    0.000    1.333    0.000   10.667 
#    0.000    4.444    0.000   72.000    0.000    0.000 
#    0.000    0.000    0.000    0.000    0.000    0.000 
#
# Total GULP energy -200697.194886 kJ/mol
# GULP energy per Si atom -5574.922080 kJ/mol
# Density = 2.047082 g / cm^3
# Si number density = 20.517516 Si / 1000 Ang^3
#
#
#
# Elastic Constant Matrix: (Units=GPa)
#
#
# Indices 1 2 3 4 5 6 
#
# 1 106.4814 56.0311 64.3897 0.0000 0.0000 0.0000
# 2 56.0311 106.4800 64.3898 0.0000 0.0000 0.0000
# 3 64.3897 64.3898 169.4564 0.0000 0.0000 0.0000
# 4 0.0000 0.0000 0.0000 14.0237 0.0000 0.0000
# 5 0.0000 0.0000 0.0000 0.0000 14.0254 0.0000
# 6 0.0000 0.0000 0.0000 0.0000 0.0000 24.5661
#
#
#
# Elastic Compliance Matrix: (Units=1/GPa)
#
#
# Indices 1 2 3 4 5 6 
#
# 1 0.014313 -0.005509 -0.003345 0.000000 0.000000 0.000000
# 2 -0.005509 0.014313 -0.003346 0.000000 0.000000 0.000000
# 3 -0.003345 -0.003346 0.008444 0.000000 0.000000 0.000000
# 4 0.000000 0.000000 0.000000 0.071308 0.000000 0.000000
# 5 0.000000 0.000000 0.000000 0.000000 0.071299 0.000000
# 6 0.000000 0.000000 0.000000 0.000000 0.000000 0.040706
#
#
# Mechanical properties :
#
#
# Convention : Reuss Voigt Hill
#
# Bulk Modulus (GPa) = 78.92291 83.55989 81.24140
# Shear Modulus (GPa) = 20.07981 23.69686 21.88833
#
# Velocity S-wave (km/s) = 3.13176 3.40215 3.26975
# Velocity P-wave (km/s) = 7.18518 7.49983 7.34419
#
# Compressibility (1/GPa) = 0.01267059
#
# Stress axis : x y z
#
# Youngs Moduli (GPa) = 69.86657 69.86535 118.43191
#
# Poissons Ratio (x) = 0.38486 0.39621
# Poissons Ratio (y) = 0.38487 0.39622
# Poissons Ratio (z) = 0.23374 0.23374
#
# Static dielectric constant tensor:
#      x y z
#    x 1.746660 0.000000 0.000000 
#    y 0.000000 1.746670 0.000000 
#    z 0.000000 0.000000 1.741680 
# 
# From -- ./inp_files/7547.got.cif
#   From: 2010.05.17/outbox.cif.g08.bks.cpg/sg98_4_cif.got.tgz:7547.got - 2010.06.03 20:00:51.
