data_PCOD9551615
_publ_section_title
;
Structure prediction by ZEFSAII (Michael W. Deem and Ramdas Pophale) SiO2 
 PCOD9551615
Probable space group: I 4 2 2 
;
_chemical_formula_sum "Si O2"
_cell_formula_units_Z 80
_cell_length_a 9.821151
_cell_length_b 9.821151
_cell_length_c 30.005484
_cell_angle_alpha 90.000000
_cell_angle_beta 90.000000
_cell_angle_gamma 90.000000
_cell_volume 2894.179168
_symmetry_space_group_name_H-M "I 4 2 2 "
_symmetry_group_IT_number 97
_symmetry_cell_setting 'tetragonal'
loop_
_space_group_symop_operation_xyz
x,y,z
-y,x,z
-x,-y,z
y,-x,z
x,-y,-z
-x,y,-z
y,x,-z
-y,-x,-z
1/2+x,1/2+y,1/2+z
1/2-y,1/2+x,1/2+z
1/2-x,1/2-y,1/2+z
1/2+y,1/2-x,1/2+z
1/2+x,1/2-y,1/2-z
1/2-x,1/2+y,1/2-z
1/2+y,1/2+x,1/2-z
1/2-y,1/2-x,1/2-z
loop_
_atom_site_type_symbol
_atom_site_label
_atom_site_fract_x
_atom_site_fract_y
_atom_site_fract_z
Si Si1 0.362627 0.158204 0.473581
Si Si2 0.230966 0.024059 0.220556
Si Si3 0.271017 0.510129 0.913388
Si Si4 0.276225 0.552216 0.376814
Si Si5 0.001476 0.767444 0.317228
O O1 0.500000 0.172174 0.500000
O O2 0.251432 0.251432 0.500000
O O3 0.316155 0.007030 0.457291
O O4 0.408731 0.206925 0.423093
O O5 0.296479 0.050345 0.172107
O O6 0.301543 0.013642 0.269041
O O7 0.116407 0.143608 0.220780
O O8 0.366018 0.375550 0.915189
O O9 0.199249 0.513156 0.865552
O O10 0.342589 0.402667 0.376889
O O11 0.870391 0.869182 0.317618
#
# Coordination Sequence:
#
# PCOD9551615 Si02
#       5
#    16  16  16  16  16
#     4  12  24  38  59  84 118 159 209 264 308 363
#     4   7  10  18  40  77 112 145 187 245 296 353
#     4   9  20  41  66  88 114 156 202 253 315 381
#     4   9  16  29  51  77 114 161 207 246 302 368
#     4   7  10  22  48  80 112 142 185 245 305 357
#
# _framework density 27.641687999999998
#
# number of rings (size 3 to 8) (size 9 to 14) (size 15 to 20)
#    0.000    3.200    2.000    3.600    0.000    1.000 
#    0.000    4.000    0.000    0.000    0.000    0.000 
#    0.000    0.000    8.400    0.000    0.000    0.000 
#
# Total GULP energy -223468.253465 kJ/mol
# GULP energy per Si atom -5586.706337 kJ/mol
# Density = 2.757877 g / cm^3
# Si number density = 27.641688 Si / 1000 Ang^3
#
#
#
# Elastic Constant Matrix: (Units=GPa)
#
#
# Indices 1 2 3 4 5 6 
#
# 1 76.2287 21.5932 43.5415 0.0000 0.0000 0.0000
# 2 21.5932 76.2287 43.5415 0.0000 0.0000 0.0000
# 3 43.5415 43.5415 254.9065 0.0000 0.0000 0.0000
# 4 0.0000 0.0000 0.0000 30.5072 0.0000 0.0000
# 5 0.0000 0.0000 0.0000 0.0000 30.5072 0.0000
# 6 0.0000 0.0000 0.0000 0.0000 0.0000 11.3426
#
#
#
# Elastic Compliance Matrix: (Units=1/GPa)
#
#
# Indices 1 2 3 4 5 6 
#
# 1 0.015180 -0.003124 -0.002059 0.000000 0.000000 0.000000
# 2 -0.003124 0.015180 -0.002059 0.000000 0.000000 0.000000
# 3 -0.002059 -0.002059 0.004627 0.000000 0.000000 0.000000
# 4 0.000000 0.000000 0.000000 0.032779 0.000000 0.000000
# 5 0.000000 0.000000 0.000000 0.000000 0.032779 0.000000
# 6 0.000000 0.000000 0.000000 0.000000 0.000000 0.088163
#
#
# Mechanical properties :
#
#
# Convention : Reuss Voigt Hill
#
# Bulk Modulus (GPa) = 48.77791 69.41290 59.09541
# Shear Modulus (GPa) = 23.80670 34.38394 29.09532
#
# Velocity S-wave (km/s) = 2.93791 3.53075 3.24788
# Velocity P-wave (km/s) = 5.40308 6.46434 5.95739
#
# Compressibility (1/GPa) = 0.02050108
#
# Stress axis : x y z
#
# Youngs Moduli (GPa) = 65.87828 65.87827 216.14502
#
# Poissons Ratio (x) = 0.20578 0.44511
# Poissons Ratio (y) = 0.20578 0.44511
# Poissons Ratio (z) = 0.13566 0.13566
#
# Static dielectric constant tensor:
#      x y z
#    x 2.180170 0.000000 0.000000 
#    y 0.000000 2.180170 0.000000 
#    z 0.000000 0.000000 2.236580 
# 
# From -- ./inp_files/7973.got.cif
#   From: 2010.05.17/outbox.cif.g08.bks.cpg/sg97_4_cif.got.tgz:7973.got - 2010.06.03 19:55:32.
