data_PCOD9551234
_publ_section_title
;
Structure prediction by ZEFSAII (Michael W. Deem and Ramdas Pophale) SiO2 
 PCOD9551234
Probable space group: I 4 2 2 
;
_chemical_formula_sum "Si O2"
_cell_formula_units_Z 120
_cell_length_a 21.505311
_cell_length_b 21.505311
_cell_length_c 13.320017
_cell_angle_alpha 90.000000
_cell_angle_beta 90.000000
_cell_angle_gamma 90.000000
_cell_volume 6160.220166
_symmetry_space_group_name_H-M "I 4 2 2 "
_symmetry_group_IT_number 97
_symmetry_cell_setting 'tetragonal'
loop_
_space_group_symop_operation_xyz
x,y,z
-y,x,z
-x,-y,z
y,-x,z
x,-y,-z
-x,y,-z
y,x,-z
-y,-x,-z
1/2+x,1/2+y,1/2+z
1/2-y,1/2+x,1/2+z
1/2-x,1/2-y,1/2+z
1/2+y,1/2-x,1/2+z
1/2+x,1/2-y,1/2-z
1/2-x,1/2+y,1/2-z
1/2+y,1/2+x,1/2-z
1/2-y,1/2-x,1/2-z
loop_
_atom_site_type_symbol
_atom_site_label
_atom_site_fract_x
_atom_site_fract_y
_atom_site_fract_z
Si Si1 0.226385 0.972808 0.291319
Si Si2 0.095883 0.728892 0.324208
Si Si3 0.226075 0.247505 0.134263
Si Si4 0.632142 0.807393 0.398788
Si Si5 0.916754 0.253299 0.912861
Si Si6 0.500000 0.645265 0.500000
Si Si7 0.514397 0.401561 0.714695
Si Si8 0.321588 0.345831 0.106822
O O1 0.263273 0.955224 0.189348
O O2 0.166910 0.013427 0.257035
O O3 0.198706 0.910128 0.340901
O O4 0.263618 0.023884 0.354860
O O5 0.131182 0.673774 0.383338
O O6 0.099660 0.709725 0.206549
O O7 0.135426 0.793179 0.339228
O O8 0.248026 0.251975 0.250000
O O9 0.254135 0.184960 0.088418
O O10 0.152822 0.245241 0.127502
O O11 0.256356 0.309560 0.088688
O O12 0.588100 0.802414 0.495803
O O13 0.945082 0.190849 0.962188
O O14 0.480546 0.605031 0.594887
O O15 0.567648 0.448930 0.745511
O O16 0.354997 0.354997 0.000000
#
# Coordination Sequence:
#
# PCOD9551234 Si02
#       8
#    16  16  16  16  16   8  16  16
#     4  11  22  35  54  81 114 149 201 248 292 339
#     4  10  20  36  54  79 116 155 191 240 293 351
#     4  11  18  34  55  82 109 150 186 235 298 358
#     4  10  18  34  56  81 115 152 187 230 305 366
#     4  11  21  33  55  84 116 144 184 237 287 361
#     4  10  22  33  48  84 116 151 182 232 288 354
#     4  10  20  33  48  69 106 154 200 239 276 324
#     4  11  22  38  56  78 112 155 205 245 292 347
#
# _framework density 19.479823
#
# number of rings (size 3 to 8) (size 9 to 14) (size 15 to 20)
#    0.000    1.467    4.000    4.800    0.000    6.400 
#    0.000    0.000    0.000    0.000    0.000    0.933 
#    0.000   23.467    0.000    0.000    0.000    0.000 
#
# Total GULP energy -334582.792747 kJ/mol
# GULP energy per Si atom -5576.379879 kJ/mol
# Density = 1.943549 g / cm^3
# Si number density = 19.479823 Si / 1000 Ang^3
#
#
#
# Elastic Constant Matrix: (Units=GPa)
#
#
# Indices 1 2 3 4 5 6 
#
# 1 78.4398 28.4117 24.0528 0.0000 0.0000 0.0000
# 2 28.4117 78.4397 24.0529 0.0000 0.0000 0.0000
# 3 24.0528 24.0529 79.2351 0.0000 0.0000 0.0000
# 4 0.0000 0.0000 0.0000 18.0007 0.0000 0.0000
# 5 0.0000 0.0000 0.0000 0.0000 18.0008 0.0000
# 6 0.0000 0.0000 0.0000 0.0000 0.0000 4.9967
#
#
#
# Elastic Compliance Matrix: (Units=1/GPa)
#
#
# Indices 1 2 3 4 5 6 
#
# 1 0.015415 -0.004574 -0.003291 0.000000 0.000000 0.000000
# 2 -0.004574 0.015415 -0.003291 0.000000 0.000000 0.000000
# 3 -0.003291 -0.003291 0.014619 0.000000 0.000000 0.000000
# 4 0.000000 0.000000 0.000000 0.055553 0.000000 0.000000
# 5 0.000000 0.000000 0.000000 0.000000 0.055553 0.000000
# 6 0.000000 0.000000 0.000000 0.000000 0.000000 0.200133
#
#
# Mechanical properties :
#
#
# Convention : Reuss Voigt Hill
#
# Bulk Modulus (GPa) = 43.22211 43.23879 43.23045
# Shear Modulus (GPa) = 12.92958 18.83945 15.88451
#
# Velocity S-wave (km/s) = 2.57911 3.11324 2.85868
# Velocity P-wave (km/s) = 5.57722 5.93025 5.75645
#
# Compressibility (1/GPa) = 0.02313631
#
# Stress axis : x y z
#
# Youngs Moduli (GPa) = 64.87389 64.87373 68.40623
#
# Poissons Ratio (x) = 0.29675 0.22510
# Poissons Ratio (y) = 0.29675 0.22511
# Poissons Ratio (z) = 0.21348 0.21348
#
# Static dielectric constant tensor:
#      x y z
#    x 1.692380 0.000000 0.000000 
#    y 0.000000 1.692380 0.000000 
#    z 0.000000 0.000000 1.780290 
# 
# From -- ./inp_files/5073.got.cif
#   From: 2010.05.17/outbox.cif.g08.bks.cpg/sg97_3_cif.got.tgz:5073.got - 2010.06.03 19:55:32.
