data_PCOD9551717
_publ_section_title
;
Structure prediction by ZEFSAII (Michael W. Deem and Ramdas Pophale) SiO2 
 PCOD9551717
Probable space group: I 41 2 2
;
_chemical_formula_sum "Si O2"
_cell_formula_units_Z 64
_cell_length_a 13.331160
_cell_length_b 13.331160
_cell_length_c 16.065417
_cell_angle_alpha 90.000000
_cell_angle_beta 90.000000
_cell_angle_gamma 90.000000
_cell_volume 2855.143129
_symmetry_space_group_name_H-M "I 41 2 2"
_symmetry_group_IT_number 98
_symmetry_cell_setting 'tetragonal'
loop_
_space_group_symop_operation_xyz
x,y,z
-y,1/2+x,1/4+z
-x,-y,z
y,1/2-x,1/4+z
x,1/2-y,1/4-z
-x,1/2+y,1/4-z
y,x,-z
-y,-x,-z
1/2+x,1/2+y,1/2+z
1/2-y,x,3/4+z
1/2-x,1/2-y,1/2+z
1/2+y,-x,3/4+z
1/2+x,-y,3/4-z
1/2-x,y,3/4-z
1/2+y,1/2+x,1/2-z
1/2-y,1/2-x,1/2-z
loop_
_atom_site_type_symbol
_atom_site_label
_atom_site_fract_x
_atom_site_fract_y
_atom_site_fract_z
Si Si1 0.337874 0.676491 0.283606
Si Si2 0.679407 0.046600 0.706796
Si Si3 0.956832 0.823713 0.698701
Si Si4 0.739727 0.868980 0.131760
O O1 0.274867 0.774867 0.250000
O O2 0.263354 0.583116 0.272031
O O3 0.381616 0.697276 0.375486
O O4 0.437490 0.641776 0.234092
O O5 0.577368 0.077368 0.750000
O O6 0.687869 0.934394 0.675635
O O7 0.985559 0.750000 0.625000
O O8 0.903935 0.762844 0.774451
O O9 0.871465 0.891818 0.655413
O O10 0.753514 0.750000 0.125000
#
# Coordination Sequence:
#
# PCOD9551717 Si02
#       4
#    16  16  16  16
#     4  10  19  34  58  90 128 165 208 260 312 376
#     4  10  20  36  59  89 124 164 209 260 320 379
#     4  10  19  35  59  87 122 168 209 252 316 373
#     4  10  21  37  59  85 121 165 209 260 315 377
#
# _framework density 22.415690999999999
#
# number of rings (size 3 to 8) (size 9 to 14) (size 15 to 20)
#    0.000    2.000    0.000    7.500    0.000    1.000 
#    0.000   12.500    0.000   21.000    0.000    7.000 
#    0.000    0.000    0.000    1.000    0.000    0.000 
#
# Total GULP energy -178411.561700 kJ/mol
# GULP energy per Si atom -5575.361303 kJ/mol
# Density = 2.236467 g / cm^3
# Si number density = 22.415691 Si / 1000 Ang^3
#
#
#
# Elastic Constant Matrix: (Units=GPa)
#
#
# Indices 1 2 3 4 5 6 
#
# 1 73.2872 47.6228 21.1479 0.0000 0.0000 0.0000
# 2 47.6228 73.2871 21.1479 0.0000 0.0000 0.0000
# 3 21.1479 21.1479 76.0015 0.0000 0.0000 0.0000
# 4 0.0000 0.0000 0.0000 30.8810 0.0000 0.0000
# 5 0.0000 0.0000 0.0000 0.0000 30.8810 0.0000
# 6 0.0000 0.0000 0.0000 0.0000 0.0000 20.5366
#
#
#
# Elastic Compliance Matrix: (Units=1/GPa)
#
#
# Indices 1 2 3 4 5 6 
#
# 1 0.024064 -0.014901 -0.002550 0.000000 0.000000 0.000000
# 2 -0.014901 0.024064 -0.002550 0.000000 0.000000 0.000000
# 3 -0.002550 -0.002550 0.014576 0.000000 0.000000 0.000000
# 4 0.000000 0.000000 0.000000 0.032382 0.000000 0.000000
# 5 0.000000 0.000000 0.000000 0.000000 0.032382 0.000000
# 6 0.000000 0.000000 0.000000 0.000000 0.000000 0.048694
#
#
# Mechanical properties :
#
#
# Convention : Reuss Voigt Hill
#
# Bulk Modulus (GPa) = 44.04637 44.71257 44.37947
# Shear Modulus (GPa) = 22.34839 25.30354 23.82597
#
# Velocity S-wave (km/s) = 3.16095 3.36345 3.26377
# Velocity P-wave (km/s) = 5.74583 5.92234 5.83475
#
# Compressibility (1/GPa) = 0.02270334
#
# Stress axis : x y z
#
# Youngs Moduli (GPa) = 41.55666 41.55665 68.60375
#
# Poissons Ratio (x) = 0.61924 0.17491
# Poissons Ratio (y) = 0.61924 0.17491
# Poissons Ratio (z) = 0.10595 0.10595
#
# Static dielectric constant tensor:
#      x y z
#    x 1.874310 0.000000 0.000000 
#    y 0.000000 1.874310 0.000000 
#    z 0.000000 0.000000 1.825360 
# 
# From -- ./inp_files/6237.got.cif
#   From: 2010.05.17/outbox.cif.g08.bks.cpg/sg98_4_cif.got.tgz:6237.got - 2010.06.03 20:00:51.
