data_PCOD9551672
_publ_section_title
;
Structure prediction by ZEFSAII (Michael W. Deem and Ramdas Pophale) SiO2 
 PCOD9551672
Probable space group: I 41 2 2
;
_chemical_formula_sum "Si O2"
_cell_formula_units_Z 84
_cell_length_a 11.407499
_cell_length_b 11.407499
_cell_length_c 33.380623
_cell_angle_alpha 90.000000
_cell_angle_beta 90.000000
_cell_angle_gamma 90.000000
_cell_volume 4343.854968
_symmetry_space_group_name_H-M "I 41 2 2"
_symmetry_group_IT_number 98
_symmetry_cell_setting 'tetragonal'
loop_
_space_group_symop_operation_xyz
x,y,z
-y,1/2+x,1/4+z
-x,-y,z
y,1/2-x,1/4+z
x,1/2-y,1/4-z
-x,1/2+y,1/4-z
y,x,-z
-y,-x,-z
1/2+x,1/2+y,1/2+z
1/2-y,x,3/4+z
1/2-x,1/2-y,1/2+z
1/2+y,-x,3/4+z
1/2+x,-y,3/4-z
1/2-x,y,3/4-z
1/2+y,1/2+x,1/2-z
1/2-y,1/2-x,1/2-z
loop_
_atom_site_type_symbol
_atom_site_label
_atom_site_fract_x
_atom_site_fract_y
_atom_site_fract_z
Si Si1 0.001026 0.749391 0.670932
Si Si2 0.400852 0.294537 0.851422
Si Si3 0.750000 0.579832 0.375000
Si Si4 0.729416 0.431725 0.454426
Si Si5 0.500000 0.000000 0.750000
Si Si6 0.000000 0.500000 0.659603
Si Si7 0.100498 0.689441 0.961259
O O1 0.048503 0.750000 0.625000
O O2 0.866636 0.789418 0.666110
O O3 0.019824 0.617154 0.684817
O O4 0.069529 0.843673 0.696321
O O5 0.358335 0.170904 0.868974
O O6 0.464290 0.387620 0.881771
O O7 0.488660 0.277718 0.814971
O O8 0.764196 0.496619 0.413825
O O9 0.613664 0.495049 0.472106
O O10 0.691731 0.294986 0.451555
O O11 0.816697 0.432180 0.492131
#
# Coordination Sequence:
#
# PCOD9551672 Si02
#       7
#    16  16   8  16   4   8  16
#     4  10  18  34  65  95 119 165 215 252 313 386
#     4  11  19  34  67  94 127 166 211 263 313 386
#     4  12  22  36  58 102 130 158 224 268 314 370
#     4  10  23  36  62  88 125 168 207 265 320 374
#     4   8  16  44  56  82 116 180 204 238 336 376
#     4  10  18  34  58 104 116 162 210 261 314 379
#     4  10  20  40  64  87 126 176 211 253 325 398
#
# _framework density 19.337662000000002
#
# number of rings (size 3 to 8) (size 9 to 14) (size 15 to 20)
#    0.000    1.905    6.667    2.286    1.333    0.000 
#    0.000    0.000   29.333    2.286    0.000    0.000 
#    0.000    0.000    0.000    0.000    0.000    0.000 
#
# Total GULP energy -234019.432735 kJ/mol
# GULP energy per Si atom -5571.891256 kJ/mol
# Density = 1.929365 g / cm^3
# Si number density = 19.337662 Si / 1000 Ang^3
#
#
#
# Elastic Constant Matrix: (Units=GPa)
#
#
# Indices 1 2 3 4 5 6 
#
# 1 58.8368 8.7770 39.3378 0.0000 0.0000 0.0000
# 2 8.7770 58.8368 39.3378 0.0000 0.0000 0.0000
# 3 39.3378 39.3378 127.7984 0.0000 0.0000 0.0000
# 4 0.0000 0.0000 0.0000 13.6122 0.0000 0.0000
# 5 0.0000 0.0000 0.0000 0.0000 13.6122 0.0000
# 6 0.0000 0.0000 0.0000 0.0000 0.0000 26.1346
#
#
#
# Elastic Compliance Matrix: (Units=1/GPa)
#
#
# Indices 1 2 3 4 5 6 
#
# 1 0.021510 0.001534 -0.007093 0.000000 0.000000 0.000000
# 2 0.001534 0.021510 -0.007093 0.000000 0.000000 0.000000
# 3 -0.007093 -0.007093 0.012191 0.000000 0.000000 0.000000
# 4 0.000000 0.000000 0.000000 0.073463 0.000000 0.000000
# 5 0.000000 0.000000 0.000000 0.000000 0.073463 0.000000
# 6 0.000000 0.000000 0.000000 0.000000 0.000000 0.038264
#
#
# Mechanical properties :
#
#
# Convention : Reuss Voigt Hill
#
# Bulk Modulus (GPa) = 33.43803 46.70856 40.07330
# Shear Modulus (GPa) = 18.13734 21.20645 19.67190
#
# Velocity S-wave (km/s) = 3.06588 3.31515 3.19295
# Velocity P-wave (km/s) = 5.46462 6.23380 5.86184
#
# Compressibility (1/GPa) = 0.02990607
#
# Stress axis : x y z
#
# Youngs Moduli (GPa) = 46.49070 46.49070 82.02492
#
# Poissons Ratio (x) = -0.07130 0.58180
# Poissons Ratio (y) = -0.07130 0.58180
# Poissons Ratio (z) = 0.32976 0.32976
#
# Static dielectric constant tensor:
#      x y z
#    x 1.719490 0.000000 0.000000 
#    y 0.000000 1.719490 0.000000 
#    z 0.000000 0.000000 1.680510 
# 
# From -- ./inp_files/11986.got.cif
#   From: 2010.05.17/outbox.cif.g08.bks.cpg/sg98_6_cif.got.tgz:11986.got - 2010.06.03 20:00:51.
