data_PCOD9551183
_publ_section_title
;
Structure prediction by ZEFSAII (Michael W. Deem and Ramdas Pophale) SiO2 
 PCOD9551183
Probable space group: P 43 21 2
;
_chemical_formula_sum "Si O2"
_cell_formula_units_Z 24
_cell_length_a 8.199619
_cell_length_b 8.199619
_cell_length_c 12.384611
_cell_angle_alpha 90.000000
_cell_angle_beta 90.000000
_cell_angle_gamma 90.000000
_cell_volume 832.663861
_symmetry_space_group_name_H-M "P 43 21 2"
_symmetry_group_IT_number 96
_symmetry_cell_setting 'tetragonal'
loop_
_space_group_symop_operation_xyz
x,y,z
1/2-y,1/2+x,3/4+z
-x,-y,1/2+z
1/2+y,1/2-x,1/4+z
1/2+x,1/2-y,1/4-z
1/2-x,1/2+y,3/4-z
y,x,-z
-y,-x,1/2-z
loop_
_atom_site_type_symbol
_atom_site_label
_atom_site_fract_x
_atom_site_fract_y
_atom_site_fract_z
Si Si1 0.026318 0.251806 0.805917
Si Si2 0.745776 0.982477 0.937863
Si Si3 0.236841 0.485076 0.938391
O O1 0.978110 0.206983 0.683713
O O2 0.146927 0.403021 0.838149
O O3 0.864263 0.329784 0.849111
O O4 0.123250 0.102665 0.854003
O O5 0.897746 0.897746 0.000000
O O6 0.617932 0.111821 0.997719
O O7 0.338634 0.338634 0.000000
#
# Coordination Sequence:
#
# PCOD9551183 Si02
#       3
#     8   8   8
#     4  12  27  50  82 118 177 224 296 366 446 526
#     4  12  27  51  81 124 173 230 293 361 449 530
#     4  12  29  52  85 126 172 233 303 366 447 532
#
# _framework density 28.823156000000001
#
# number of rings (size 3 to 8) (size 9 to 14) (size 15 to 20)
#    0.000    0.000    3.333    5.000    4.667    0.000 
#    0.000    0.000    0.000    0.000    0.000    0.000 
#    0.000    0.000    0.000    0.000    0.000    0.000 
#
# Total GULP energy -133629.815480 kJ/mol
# GULP energy per Si atom -5567.908978 kJ/mol
# Density = 2.875755 g / cm^3
# Si number density = 28.823156 Si / 1000 Ang^3
#
#
#
# Elastic Constant Matrix: (Units=GPa)
#
#
# Indices 1 2 3 4 5 6 
#
# 1 171.3263 92.1697 65.0034 0.0000 0.0000 0.0000
# 2 92.1697 171.3263 65.0034 0.0000 0.0000 0.0000
# 3 65.0034 65.0034 157.1247 0.0000 0.0000 0.0000
# 4 0.0000 0.0000 0.0000 41.2003 0.0000 0.0000
# 5 0.0000 0.0000 0.0000 0.0000 41.2003 0.0000
# 6 0.0000 0.0000 0.0000 0.0000 0.0000 134.7681
#
#
#
# Elastic Compliance Matrix: (Units=1/GPa)
#
#
# Indices 1 2 3 4 5 6 
#
# 1 0.008701 -0.003932 -0.001973 0.000000 0.000000 0.000000
# 2 -0.003932 0.008701 -0.001973 0.000000 0.000000 0.000000
# 3 -0.001973 -0.001973 0.007997 0.000000 0.000000 0.000000
# 4 0.000000 0.000000 0.000000 0.024272 0.000000 0.000000
# 5 0.000000 0.000000 0.000000 0.000000 0.024272 0.000000
# 6 0.000000 0.000000 0.000000 0.000000 0.000000 0.007420
#
#
# Mechanical properties :
#
#
# Convention : Reuss Voigt Hill
#
# Bulk Modulus (GPa) = 103.70647 104.90336 104.30491
# Shear Modulus (GPa) = 49.83474 61.94047 55.88760
#
# Velocity S-wave (km/s) = 4.16261 4.64074 4.40817
# Velocity P-wave (km/s) = 7.69165 8.07402 7.88516
#
# Compressibility (1/GPa) = 0.00964260
#
# Stress axis : x y z
#
# Youngs Moduli (GPa) = 114.93168 114.93168 125.05259
#
# Poissons Ratio (x) = 0.45195 0.24670
# Poissons Ratio (y) = 0.45195 0.24670
# Poissons Ratio (z) = 0.22673 0.22673
#
# Static dielectric constant tensor:
#      x y z
#    x 3.331080 0.000000 0.000000 
#    y 0.000000 3.331080 0.000000 
#    z 0.000000 0.000000 2.321840 
# 
# From -- ./inp_files/2444.got.cif
#   From: 2010.05.17/outbox.cif.g08.bks.cpg/sg96_2_cif.got.tgz:2444.got - 2010.06.03 19:52:08.
