data_PCOD9551689
_publ_section_title
;
Structure prediction by ZEFSAII (Michael W. Deem and Ramdas Pophale) SiO2 
 PCOD9551689
Probable space group: I 41 2 2
;
_chemical_formula_sum "Si O2"
_cell_formula_units_Z 60
_cell_length_a 15.726172
_cell_length_b 15.726172
_cell_length_c 12.834342
_cell_angle_alpha 90.000000
_cell_angle_beta 90.000000
_cell_angle_gamma 90.000000
_cell_volume 3174.093023
_symmetry_space_group_name_H-M "I 41 2 2"
_symmetry_group_IT_number 98
_symmetry_cell_setting 'tetragonal'
loop_
_space_group_symop_operation_xyz
x,y,z
-y,1/2+x,1/4+z
-x,-y,z
y,1/2-x,1/4+z
x,1/2-y,1/4-z
-x,1/2+y,1/4-z
y,x,-z
-y,-x,-z
1/2+x,1/2+y,1/2+z
1/2-y,x,3/4+z
1/2-x,1/2-y,1/2+z
1/2+y,-x,3/4+z
1/2+x,-y,3/4-z
1/2-x,y,3/4-z
1/2+y,1/2+x,1/2-z
1/2-y,1/2-x,1/2-z
loop_
_atom_site_type_symbol
_atom_site_label
_atom_site_fract_x
_atom_site_fract_y
_atom_site_fract_z
Si Si1 0.631484 0.869930 0.967974
Si Si2 0.193931 0.945166 0.769537
Si Si3 0.159766 0.956652 0.149815
Si Si4 0.500000 0.500000 0.500000
Si Si5 0.806187 0.806187 0.000000
O O1 0.538420 0.830207 0.974393
O O2 0.708340 0.823277 0.026625
O O3 0.662301 0.859397 0.848151
O O4 0.638825 0.969019 0.994410
O O5 0.250000 0.953204 0.875000
O O6 0.127395 0.869756 0.789784
O O7 0.259720 0.938996 0.674100
O O8 0.081623 0.987780 0.075006
#
# Coordination Sequence:
#
# PCOD9551689 Si02
#       5
#    16  16  16   4   8
#     4  11  18  32  47  80 114 145 178 230 292 341
#     4  12  19  31  48  79 115 149 183 224 283 347
#     4  12  22  31  51  80 117 149 183 228 292 336
#     4  12  18  28  48  76 112 140 162 232 266 344
#     4  10  19  26  51  74 116 143 173 226 284 362
#
# _framework density 18.903037000000001
#
# number of rings (size 3 to 8) (size 9 to 14) (size 15 to 20)
#    0.000    0.533   10.667    0.800    0.000    0.000 
#    0.000    0.000    0.000    0.000   20.800    0.000 
#    0.000    0.000    0.000    0.000    0.000    0.000 
#
# Total GULP energy -167338.184865 kJ/mol
# GULP energy per Si atom -5577.939495 kJ/mol
# Density = 1.886001 g / cm^3
# Si number density = 18.903037 Si / 1000 Ang^3
#
#
#
# Elastic Constant Matrix: (Units=GPa)
#
#
# Indices 1 2 3 4 5 6 
#
# 1 120.0646 57.5518 31.4435 0.0000 0.0000 0.0000
# 2 57.5518 120.0646 31.4435 0.0000 0.0000 0.0000
# 3 31.4435 31.4435 26.6767 0.0000 0.0000 0.0000
# 4 0.0000 0.0000 0.0000 21.0066 0.0000 0.0000
# 5 0.0000 0.0000 0.0000 0.0000 21.0066 0.0000
# 6 0.0000 0.0000 0.0000 0.0000 0.0000 29.3257
#
#
#
# Elastic Compliance Matrix: (Units=1/GPa)
#
#
# Indices 1 2 3 4 5 6 
#
# 1 0.012830 -0.003167 -0.011389 0.000000 0.000000 0.000000
# 2 -0.003167 0.012830 -0.011389 0.000000 0.000000 0.000000
# 3 -0.011389 -0.011389 0.064335 0.000000 0.000000 0.000000
# 4 0.000000 0.000000 0.000000 0.047604 0.000000 0.000000
# 5 0.000000 0.000000 0.000000 0.000000 0.047604 0.000000
# 6 0.000000 0.000000 0.000000 0.000000 0.000000 0.034100
#
#
# Mechanical properties :
#
#
# Convention : Reuss Voigt Hill
#
# Bulk Modulus (GPa) = 26.24465 56.40930 41.32697
# Shear Modulus (GPa) = 17.61222 24.02557 20.81889
#
# Velocity S-wave (km/s) = 3.05571 3.56896 3.32226
# Velocity P-wave (km/s) = 5.13457 6.84759 6.05199
#
# Compressibility (1/GPa) = 0.03810301
#
# Stress axis : x y z
#
# Youngs Moduli (GPa) = 77.94446 77.94446 15.54374
#
# Poissons Ratio (x) = 0.24686 0.17703
# Poissons Ratio (y) = 0.24686 0.17703
# Poissons Ratio (z) = 0.88772 0.88772
#
# Static dielectric constant tensor:
#      x y z
#    x 1.731730 0.000000 0.000000 
#    y 0.000000 1.731730 0.000000 
#    z 0.000000 0.000000 1.663000 
# 
# From -- ./inp_files/6285.got.cif
#   From: 2010.05.17/outbox.cif.g08.bks.cpg/sg98_4_cif.got.tgz:6285.got - 2010.06.03 20:00:51.
