data_PCOD9551877
_publ_section_title
;
Structure prediction by ZEFSAII (Michael W. Deem and Ramdas Pophale) SiO2 
 PCOD9551877
Probable space group: I 41 2 2
;
_chemical_formula_sum "Si O2"
_cell_formula_units_Z 112
_cell_length_a 13.894609
_cell_length_b 13.894609
_cell_length_c 27.959592
_cell_angle_alpha 90.000000
_cell_angle_beta 90.000000
_cell_angle_gamma 90.000000
_cell_volume 5397.883284
_symmetry_space_group_name_H-M "I 41 2 2"
_symmetry_group_IT_number 98
_symmetry_cell_setting 'tetragonal'
loop_
_space_group_symop_operation_xyz
x,y,z
-y,1/2+x,1/4+z
-x,-y,z
y,1/2-x,1/4+z
x,1/2-y,1/4-z
-x,1/2+y,1/4-z
y,x,-z
-y,-x,-z
1/2+x,1/2+y,1/2+z
1/2-y,x,3/4+z
1/2-x,1/2-y,1/2+z
1/2+y,-x,3/4+z
1/2+x,-y,3/4-z
1/2-x,y,3/4-z
1/2+y,1/2+x,1/2-z
1/2-y,1/2-x,1/2-z
loop_
_atom_site_type_symbol
_atom_site_label
_atom_site_fract_x
_atom_site_fract_y
_atom_site_fract_z
Si Si1 0.347386 0.575380 0.701952
Si Si2 0.500000 0.000000 0.116070
Si Si3 0.420394 0.133256 0.033084
Si Si4 0.610202 0.477100 0.600021
Si Si5 0.707909 0.386882 0.458086
Si Si6 0.630882 0.039245 0.202500
Si Si7 0.659042 0.659042 0.000000
Si Si8 0.570940 0.716873 0.483368
O O1 0.370024 0.513948 0.749185
O O2 0.375363 0.512313 0.656169
O O3 0.392889 0.680302 0.696616
O O4 0.233018 0.590238 0.700422
O O5 0.547504 0.916843 0.082799
O O6 0.425553 0.950621 0.153032
O O7 0.371899 0.240775 0.027246
O O8 0.331266 0.070025 0.014572
O O9 0.500000 0.500000 0.588091
O O10 0.632702 0.367217 0.584075
O O11 0.679980 0.544794 0.569382
O O12 0.691055 0.308946 0.500000
O O13 0.677453 0.487502 0.482400
O O14 0.576695 0.076695 0.250000
O O15 0.648734 0.925923 0.211186
O O16 0.670680 0.670680 0.500000
#
# Coordination Sequence:
#
# PCOD9551877 Si02
#       8
#    16   8  16  16  16  16   8  16
#     4  11  25  42  63 101 139 171 220 278 354 403
#     4  12  23  42  70 102 130 180 235 286 340 416
#     4  11  25  41  68  99 140 175 224 288 344 408
#     4  11  23  40  65  94 130 179 225 274 336 414
#     4  10  22  40  68  93 132 175 223 275 336 409
#     4  11  22  46  73  93 135 181 224 280 346 414
#     4  10  21  44  66  98 133 186 220 272 346 421
#     4  11  21  42  66  94 128 177 228 276 332 406
#
# _framework density 20.748874000000001
#
# number of rings (size 3 to 8) (size 9 to 14) (size 15 to 20)
#    0.000    1.143    3.571    2.571    3.000    1.714 
#    0.000    3.571    0.000    0.000    0.000    0.000 
#    0.000    0.000    0.000    0.000    0.000    0.000 
#
# Total GULP energy -312421.806891 kJ/mol
# GULP energy per Si atom -5578.960837 kJ/mol
# Density = 2.070165 g / cm^3
# Si number density = 20.748874 Si / 1000 Ang^3
#
#
#
# Elastic Constant Matrix: (Units=GPa)
#
#
# Indices 1 2 3 4 5 6 
#
# 1 81.2287 19.4523 34.4341 0.0000 0.0000 0.0000
# 2 19.4523 81.2300 34.4341 0.0000 0.0000 0.0000
# 3 34.4341 34.4341 114.1346 0.0000 0.0000 0.0000
# 4 0.0000 0.0000 0.0000 11.7737 0.0000 0.0000
# 5 0.0000 0.0000 0.0000 0.0000 11.7739 0.0000
# 6 0.0000 0.0000 0.0000 0.0000 0.0000 28.2989
#
#
#
# Elastic Compliance Matrix: (Units=1/GPa)
#
#
# Indices 1 2 3 4 5 6 
#
# 1 0.014351 -0.001836 -0.003776 0.000000 0.000000 0.000000
# 2 -0.001836 0.014351 -0.003776 0.000000 0.000000 0.000000
# 3 -0.003776 -0.003776 0.011040 0.000000 0.000000 0.000000
# 4 0.000000 0.000000 0.000000 0.084935 0.000000 0.000000
# 5 0.000000 0.000000 0.000000 0.000000 0.084933 0.000000
# 6 0.000000 0.000000 0.000000 0.000000 0.000000 0.035337
#
#
# Mechanical properties :
#
#
# Convention : Reuss Voigt Hill
#
# Bulk Modulus (GPa) = 47.69432 50.35937 49.02685
# Shear Modulus (GPa) = 18.46981 22.92081 20.69531
#
# Velocity S-wave (km/s) = 2.98679 3.32727 3.16162
# Velocity P-wave (km/s) = 5.91024 6.25177 6.08340
#
# Compressibility (1/GPa) = 0.02096686
#
# Stress axis : x y z
#
# Youngs Moduli (GPa) = 69.68036 69.68167 90.58096
#
# Poissons Ratio (x) = 0.12794 0.34201
# Poissons Ratio (y) = 0.12794 0.34201
# Poissons Ratio (z) = 0.26310 0.26310
#
# Static dielectric constant tensor:
#      x y z
#    x 1.808500 0.000000 0.000000 
#    y 0.000000 1.808500 0.000000 
#    z 0.000000 0.000000 1.724490 
# 
# From -- ./inp_files/11021.got.cif
#   From: 2010.05.17/outbox.cif.g08.bks.cpg/sg98_6_cif.got.tgz:11021.got - 2010.06.03 20:00:51.
