data_PCOD9551286
_publ_section_title
;
Structure prediction by ZEFSAII (Michael W. Deem and Ramdas Pophale) SiO2 
 PCOD9551286
Probable space group: I 4 2 2 
;
_chemical_formula_sum "Si O2"
_cell_formula_units_Z 96
_cell_length_a 19.714279
_cell_length_b 19.714279
_cell_length_c 14.834988
_cell_angle_alpha 90.000000
_cell_angle_beta 90.000000
_cell_angle_gamma 90.000000
_cell_volume 5765.659572
_symmetry_space_group_name_H-M "I 4 2 2 "
_symmetry_group_IT_number 97
_symmetry_cell_setting 'tetragonal'
loop_
_space_group_symop_operation_xyz
x,y,z
-y,x,z
-x,-y,z
y,-x,z
x,-y,-z
-x,y,-z
y,x,-z
-y,-x,-z
1/2+x,1/2+y,1/2+z
1/2-y,1/2+x,1/2+z
1/2-x,1/2-y,1/2+z
1/2+y,1/2-x,1/2+z
1/2+x,1/2-y,1/2-z
1/2-x,1/2+y,1/2-z
1/2+y,1/2+x,1/2-z
1/2-y,1/2-x,1/2-z
loop_
_atom_site_type_symbol
_atom_site_label
_atom_site_fract_x
_atom_site_fract_y
_atom_site_fract_z
Si Si1 0.002416 0.294690 0.729076
Si Si2 0.421179 0.982031 0.394460
Si Si3 0.206776 0.685262 0.504244
Si Si4 0.262327 0.850537 0.683613
Si Si5 0.350732 0.758476 0.185732
Si Si6 0.333827 0.048654 0.919598
O O1 0.010913 0.366579 0.675641
O O2 0.931021 0.260526 0.700866
O O3 0.993544 0.304562 0.836430
O O4 0.070157 0.255048 0.702856
O O5 0.415554 0.901400 0.383743
O O6 0.500000 0.000000 0.375906
O O7 0.406703 0.000000 0.500000
O O8 0.280421 0.719580 0.500000
O O9 0.167172 0.705484 0.413741
O O10 0.166578 0.721757 0.584211
O O11 0.210605 0.606962 0.533476
O O12 0.317218 0.817218 0.750000
O O13 0.191569 0.810834 0.700313
O O14 0.314134 0.814134 0.250000
O O15 0.356685 0.000000 0.000000
#
# Coordination Sequence:
#
# PCOD9551286 Si02
#       6
#    16  16  16  16  16  16
#     4  12  23  35  58  78 106 149 185 226 277 330
#     4  11  22  35  49  74 115 149 178 215 260 323
#     4  10  20  37  57  76 107 150 187 228 270 320
#     4  10  23  36  55  83 111 141 188 238 269 323
#     4  10  19  39  57  77 108 148 188 228 278 329
#     4  12  22  36  50  79 111 146 183 219 264 323
#
# _framework density 16.650307000000002
#
# number of rings (size 3 to 8) (size 9 to 14) (size 15 to 20)
#    0.000    1.167    5.000    2.500    2.333    0.667 
#    0.000    0.000    0.000    0.500    0.000    0.000 
#    0.000    4.333    0.000    0.000    0.000    0.000 
#
# Total GULP energy -267750.249016 kJ/mol
# GULP energy per Si atom -5578.130188 kJ/mol
# Density = 1.661241 g / cm^3
# Si number density = 16.650307 Si / 1000 Ang^3
#
#
#
# Elastic Constant Matrix: (Units=GPa)
#
#
# Indices 1 2 3 4 5 6 
#
# 1 87.4390 46.6195 27.0504 0.0000 0.0000 0.0000
# 2 46.6195 87.4402 27.0524 0.0000 0.0000 0.0000
# 3 27.0504 27.0524 104.5491 0.0000 0.0000 0.0000
# 4 0.0000 0.0000 0.0000 16.7293 0.0000 0.0000
# 5 0.0000 0.0000 0.0000 0.0000 16.7289 0.0000
# 6 0.0000 0.0000 0.0000 0.0000 0.0000 21.4721
#
#
#
# Elastic Compliance Matrix: (Units=1/GPa)
#
#
# Indices 1 2 3 4 5 6 
#
# 1 0.016413 -0.008084 -0.002155 0.000000 0.000000 0.000000
# 2 -0.008084 0.016413 -0.002155 0.000000 0.000000 0.000000
# 3 -0.002155 -0.002155 0.010680 0.000000 0.000000 0.000000
# 4 0.000000 0.000000 0.000000 0.059775 0.000000 0.000000
# 5 0.000000 0.000000 0.000000 0.000000 0.059777 0.000000
# 6 0.000000 0.000000 0.000000 0.000000 0.000000 0.046572
#
#
# Mechanical properties :
#
#
# Convention : Reuss Voigt Hill
#
# Bulk Modulus (GPa) = 53.42461 53.43032 53.42747
# Shear Modulus (GPa) = 20.77623 22.89980 21.83801
#
# Velocity S-wave (km/s) = 3.53625 3.71258 3.62549
# Velocity P-wave (km/s) = 6.98780 7.10894 7.04863
#
# Compressibility (1/GPa) = 0.01871797
#
# Stress axis : x y z
#
# Youngs Moduli (GPa) = 60.92565 60.92573 93.63185
#
# Poissons Ratio (x) = 0.49254 0.20177
# Poissons Ratio (y) = 0.49254 0.20181
# Poissons Ratio (z) = 0.13129 0.13132
#
# Static dielectric constant tensor:
#      x y z
#    x 1.608660 0.000000 0.000000 
#    y 0.000000 1.608670 0.000000 
#    z 0.000000 0.000000 1.726380 
# 
# From -- ./inp_files/4987.got.cif
#   From: 2010.05.17/outbox.cif.g08.bks.cpg/sg97_3_cif.got.tgz:4987.got - 2010.06.03 19:55:32.
