data_PCOD9551621
_publ_section_title
;
Structure prediction by ZEFSAII (Michael W. Deem and Ramdas Pophale) SiO2 
 PCOD9551621
Probable space group: I 4 2 2 
;
_chemical_formula_sum "Si O2"
_cell_formula_units_Z 64
_cell_length_a 10.756668
_cell_length_b 10.756668
_cell_length_c 20.660225
_cell_angle_alpha 90.000000
_cell_angle_beta 90.000000
_cell_angle_gamma 90.000000
_cell_volume 2390.510061
_symmetry_space_group_name_H-M "I 4 2 2 "
_symmetry_group_IT_number 97
_symmetry_cell_setting 'tetragonal'
loop_
_space_group_symop_operation_xyz
x,y,z
-y,x,z
-x,-y,z
y,-x,z
x,-y,-z
-x,y,-z
y,x,-z
-y,-x,-z
1/2+x,1/2+y,1/2+z
1/2-y,1/2+x,1/2+z
1/2-x,1/2-y,1/2+z
1/2+y,1/2-x,1/2+z
1/2+x,1/2-y,1/2-z
1/2-x,1/2+y,1/2-z
1/2+y,1/2+x,1/2-z
1/2-y,1/2-x,1/2-z
loop_
_atom_site_type_symbol
_atom_site_label
_atom_site_fract_x
_atom_site_fract_y
_atom_site_fract_z
Si Si1 0.207687 0.013215 0.238026
Si Si2 0.683174 0.279956 0.931489
Si Si3 0.352009 0.025795 0.639958
Si Si4 0.550538 0.697880 0.413073
O O1 0.237696 0.038596 0.162410
O O2 0.111820 0.126713 0.248944
O O3 0.324064 0.994295 0.284223
O O4 0.794914 0.346908 0.891557
O O5 0.566308 0.257304 0.886622
O O6 0.702367 0.131962 0.950047
O O7 0.657982 0.342019 0.000000
O O8 0.500000 0.000000 0.625849
O O9 0.419299 0.639992 0.426154
#
# Coordination Sequence:
#
# PCOD9551621 Si02
#       4
#    16  16  16  16
#     4   9  18  42  74 102 144 187 239 307 379 450
#     4  12  27  47  69 101 149 197 252 312 373 454
#     4  12  26  46  75 109 146 195 255 315 385 452
#     4   9  20  41  70 102 140 190 237 301 376 442
#
# _framework density 26.77253
#
# number of rings (size 3 to 8) (size 9 to 14) (size 15 to 20)
#    0.000    1.500    2.500    3.750    0.000    6.500 
#    0.000   12.500    0.000    0.000    0.000    0.000 
#    0.000    0.000    0.000    0.000    0.000    0.000 
#
# Total GULP energy -178295.572794 kJ/mol
# GULP energy per Si atom -5571.736650 kJ/mol
# Density = 2.671159 g / cm^3
# Si number density = 26.772530 Si / 1000 Ang^3
#
#
#
# Elastic Constant Matrix: (Units=GPa)
#
#
# Indices 1 2 3 4 5 6 
#
# 1 50.3553 123.4830 42.9702 0.0000 0.0000 0.0000
# 2 123.4830 50.3553 42.9754 0.0000 0.0000 0.0000
# 3 42.9702 42.9754 127.0385 0.0000 0.0000 0.0000
# 4 0.0000 0.0000 0.0000 20.4521 0.0000 0.0000
# 5 0.0000 0.0000 0.0000 0.0000 20.4525 0.0000
# 6 0.0000 0.0000 0.0000 0.0000 0.0000 41.5580
#
#
#
# Elastic Compliance Matrix: (Units=1/GPa)
#
#
# Indices 1 2 3 4 5 6 
#
# 1 -0.003383 0.010291 -0.002337 0.000000 0.000000 0.000000
# 2 0.010291 -0.003384 -0.002336 0.000000 0.000000 0.000000
# 3 -0.002337 -0.002336 0.009452 0.000000 0.000000 0.000000
# 4 0.000000 0.000000 0.000000 0.048895 0.000000 0.000000
# 5 0.000000 0.000000 0.000000 0.000000 0.048894 0.000000
# 6 0.000000 0.000000 0.000000 0.000000 0.000000 0.024063
#
#
# Mechanical properties :
#
#
# Convention : Reuss Voigt Hill
#
# Bulk Modulus (GPa) = 71.83244 71.84515 71.83879
# Shear Modulus (GPa) = 42.39398 17.71388 30.05393
#
# Velocity S-wave (km/s) = 3.98362 2.57503 3.35411
# Velocity P-wave (km/s) = 6.93166 5.97785 6.47235
#
# Compressibility (1/GPa) = 0.01392129
#
# Stress axis : x y z
#
# Youngs Moduli (GPa) = -295.56704 -295.53733 105.79269
#
# Poissons Ratio (x) = 3.04144 0.24724
# Poissons Ratio (y) = 3.04174 0.24716
# Poissons Ratio (z) = -0.69074 -0.69047
#
# Static dielectric constant tensor:
#      x y z
#    x 2.160560 0.000000 0.000000 
#    y 0.000000 2.160560 0.000000 
#    z 0.000000 0.000000 2.228830 
# 
# From -- ./inp_files/6289.got.cif
#   From: 2010.05.17/outbox.cif.g08.bks.cpg/sg97_4_cif.got.tgz:6289.got - 2010.06.03 19:55:32.
