data_PCOD9551224
_publ_section_title
;
Structure prediction by ZEFSAII (Michael W. Deem and Ramdas Pophale) SiO2 
 PCOD9551224
Probable space group: I 4 2 2 
;
_chemical_formula_sum "Si O2"
_cell_formula_units_Z 56
_cell_length_a 17.812337
_cell_length_b 17.812337
_cell_length_c 10.891263
_cell_angle_alpha 90.000000
_cell_angle_beta 90.000000
_cell_angle_gamma 90.000000
_cell_volume 3455.572839
_symmetry_space_group_name_H-M "I 4 2 2 "
_symmetry_group_IT_number 97
_symmetry_cell_setting 'tetragonal'
loop_
_space_group_symop_operation_xyz
x,y,z
-y,x,z
-x,-y,z
y,-x,z
x,-y,-z
-x,y,-z
y,x,-z
-y,-x,-z
1/2+x,1/2+y,1/2+z
1/2-y,1/2+x,1/2+z
1/2-x,1/2-y,1/2+z
1/2+y,1/2-x,1/2+z
1/2+x,1/2-y,1/2-z
1/2-x,1/2+y,1/2-z
1/2+y,1/2+x,1/2-z
1/2-y,1/2-x,1/2-z
loop_
_atom_site_type_symbol
_atom_site_label
_atom_site_fract_x
_atom_site_fract_y
_atom_site_fract_z
Si Si1 0.355445 0.911833 0.373753
Si Si2 0.414327 0.707840 0.966202
Si Si3 0.065389 0.691448 0.250997
Si Si4 0.000000 0.347566 0.000000
O O1 0.362391 0.862391 0.250000
O O2 0.282887 0.894321 0.455597
O O3 0.431877 0.897327 0.447478
O O4 0.346389 0.997575 0.329068
O O5 0.413306 0.733632 0.824249
O O6 0.500000 0.687893 0.000000
O O7 0.357467 0.642534 0.000000
O O8 0.134926 0.634926 0.250000
O O9 0.033415 0.699533 0.113678
#
# Coordination Sequence:
#
# PCOD9551224 Si02
#       4
#    16  16  16   8
#     4   9  19  31  48  78 109 139 176 214 255 328
#     4  10  21  38  54  74 102 135 185 236 276 325
#     4  10  19  31  50  79 111 149 178 215 266 328
#     4  10  18  31  50  78 116 149 180 204 264 333
#
# _framework density 16.205707
#
# number of rings (size 3 to 8) (size 9 to 14) (size 15 to 20)
#    0.000    2.286    2.857    0.000    0.000    7.714 
#    0.000    0.000    0.000    0.000    0.000    0.000 
#    0.000   20.571    0.000    0.000    0.000    0.000 
#
# Total GULP energy -156126.410328 kJ/mol
# GULP energy per Si atom -5575.943226 kJ/mol
# Density = 1.616882 g / cm^3
# Si number density = 16.205707 Si / 1000 Ang^3
#
#
#
# Elastic Constant Matrix: (Units=GPa)
#
#
# Indices 1 2 3 4 5 6 
#
# 1 76.6851 59.4856 47.0368 0.0000 0.0000 0.0000
# 2 59.4856 76.6890 47.0384 0.0000 0.0000 0.0000
# 3 47.0368 47.0384 126.6896 0.0000 0.0000 0.0000
# 4 0.0000 0.0000 0.0000 19.3903 0.0000 0.0000
# 5 0.0000 0.0000 0.0000 0.0000 19.3898 0.0000
# 6 0.0000 0.0000 0.0000 0.0000 0.0000 22.7817
#
#
#
# Elastic Compliance Matrix: (Units=1/GPa)
#
#
# Indices 1 2 3 4 5 6 
#
# 1 0.034007 -0.024129 -0.003667 0.000000 0.000000 0.000000
# 2 -0.024129 0.034005 -0.003667 0.000000 0.000000 0.000000
# 3 -0.003667 -0.003667 0.010616 0.000000 0.000000 0.000000
# 4 0.000000 0.000000 0.000000 0.051572 0.000000 0.000000
# 5 0.000000 0.000000 0.000000 0.000000 0.051574 0.000000
# 6 0.000000 0.000000 0.000000 0.000000 0.000000 0.043895
#
#
# Mechanical properties :
#
#
# Convention : Reuss Voigt Hill
#
# Bulk Modulus (GPa) = 63.68664 65.24279 64.46472
# Shear Modulus (GPa) = 17.01670 20.74588 18.88129
#
# Velocity S-wave (km/s) = 3.24395 3.58181 3.41706
# Velocity P-wave (km/s) = 7.30857 7.57973 7.44539
#
# Compressibility (1/GPa) = 0.01570188
#
# Stress axis : x y z
#
# Youngs Moduli (GPa) = 29.40601 29.40740 94.19354
#
# Poissons Ratio (x) = 0.70956 0.34542
# Poissons Ratio (y) = 0.70953 0.34543
# Poissons Ratio (z) = 0.10784 0.10784
#
# Static dielectric constant tensor:
#      x y z
#    x 1.518310 0.000000 0.000000 
#    y 0.000000 1.518310 0.000000 
#    z 0.000000 0.000000 1.605910 
# 
# From -- ./inp_files/3347.got.cif
#   From: 2010.05.17/outbox.cif.g08.bks.cpg/sg97_2_cif.got.tgz:3347.got - 2010.06.03 19:55:32.
