data_PCOD9551488
_publ_section_title
;
Structure prediction by ZEFSAII (Michael W. Deem and Ramdas Pophale) SiO2 
 PCOD9551488
Probable space group: I 4 2 2 
;
_chemical_formula_sum "Si O2"
_cell_formula_units_Z 56
_cell_length_a 14.787639
_cell_length_b 14.787639
_cell_length_c 10.855166
_cell_angle_alpha 90.000000
_cell_angle_beta 90.000000
_cell_angle_gamma 90.000000
_cell_volume 2373.745470
_symmetry_space_group_name_H-M "I 4 2 2 "
_symmetry_group_IT_number 97
_symmetry_cell_setting 'tetragonal'
loop_
_space_group_symop_operation_xyz
x,y,z
-y,x,z
-x,-y,z
y,-x,z
x,-y,-z
-x,y,-z
y,x,-z
-y,-x,-z
1/2+x,1/2+y,1/2+z
1/2-y,1/2+x,1/2+z
1/2-x,1/2-y,1/2+z
1/2+y,1/2-x,1/2+z
1/2+x,1/2-y,1/2-z
1/2-x,1/2+y,1/2-z
1/2+y,1/2+x,1/2-z
1/2-y,1/2-x,1/2-z
loop_
_atom_site_type_symbol
_atom_site_label
_atom_site_fract_x
_atom_site_fract_y
_atom_site_fract_z
Si Si1 0.613046 0.113046 0.750000
Si Si2 0.864679 0.967592 0.854307
Si Si3 0.606585 0.240191 0.987459
Si Si4 0.664062 0.936945 0.878137
O O1 0.626848 0.185511 0.859775
O O2 0.508874 0.122279 0.713532
O O3 0.767501 0.927748 0.837771
O O4 0.936218 0.895618 0.802144
O O5 0.870152 0.000000 0.000000
O O6 0.500000 0.264750 0.000000
O O7 0.675931 0.324070 0.000000
O O8 0.625657 0.160632 0.088291
O O9 0.663456 0.000000 0.000000
#
# Coordination Sequence:
#
# PCOD9551488 Si02
#       4
#     8  16  16  16
#     4  10  24  45  74 112 142 193 240 302 390 433
#     4   8  14  25  49  88 133 175 213 273 348 410
#     4  11  27  48  73 106 146 195 250 311 372 453
#     4   9  20  36  65  98 141 176 236 295 356 437
#
# _framework density 23.591407
#
# number of rings (size 3 to 8) (size 9 to 14) (size 15 to 20)
#    0.000    2.571    0.000    0.857   12.000   10.000 
#    0.000    0.000    0.000    0.000    0.000    0.000 
#    0.000    0.000    0.000    0.000    0.000    0.000 
#
# Total GULP energy -156118.536585 kJ/mol
# GULP energy per Si atom -5575.662021 kJ/mol
# Density = 2.353771 g / cm^3
# Si number density = 23.591407 Si / 1000 Ang^3
#
#
#
# Elastic Constant Matrix: (Units=GPa)
#
#
# Indices 1 2 3 4 5 6 
#
# 1 176.1630 116.0205 56.2824 0.0000 0.0000 0.0000
# 2 116.0205 176.1642 56.2814 0.0000 0.0000 0.0000
# 3 56.2824 56.2814 74.1459 0.0000 0.0000 0.0000
# 4 0.0000 0.0000 0.0000 10.8371 0.0000 0.0000
# 5 0.0000 0.0000 0.0000 0.0000 10.8359 0.0000
# 6 0.0000 0.0000 0.0000 0.0000 0.0000 29.4803
#
#
#
# Elastic Compliance Matrix: (Units=1/GPa)
#
#
# Indices 1 2 3 4 5 6 
#
# 1 0.010732 -0.005895 -0.003672 0.000000 0.000000 0.000000
# 2 -0.005895 0.010732 -0.003671 0.000000 0.000000 0.000000
# 3 -0.003672 -0.003671 0.019061 0.000000 0.000000 0.000000
# 4 0.000000 0.000000 0.000000 0.092276 0.000000 0.000000
# 5 0.000000 0.000000 0.000000 0.000000 0.092286 0.000000
# 6 0.000000 0.000000 0.000000 0.000000 0.000000 0.033921
#
#
# Mechanical properties :
#
#
# Convention : Reuss Voigt Hill
#
# Bulk Modulus (GPa) = 71.18211 98.18241 84.68226
# Shear Modulus (GPa) = 17.23146 23.42325 20.32735
#
# Velocity S-wave (km/s) = 2.70555 3.15441 2.93856
# Velocity P-wave (km/s) = 6.32443 7.41453 6.89107
#
# Compressibility (1/GPa) = 0.01404847
#
# Stress axis : x y z
#
# Youngs Moduli (GPa) = 93.17836 93.18026 52.46330
#
# Poissons Ratio (x) = 0.54930 0.19264
# Poissons Ratio (y) = 0.54929 0.19261
# Poissons Ratio (z) = 0.34213 0.34210
#
# Static dielectric constant tensor:
#      x y z
#    x 1.885430 0.000000 0.000000 
#    y 0.000000 1.885430 0.000000 
#    z 0.000000 0.000000 2.082710 
# 
# From -- ./inp_files/3299.got.cif
#   From: 2010.05.17/outbox.cif.g08.bks.cpg/sg97_2_cif.got.tgz:3299.got - 2010.06.03 19:55:32.
