data_PCOD9551412
_publ_section_title
;
Structure prediction by ZEFSAII (Michael W. Deem and Ramdas Pophale) SiO2 
 PCOD9551412
Probable space group: I 4 2 2 
;
_chemical_formula_sum "Si O2"
_cell_formula_units_Z 64
_cell_length_a 10.995076
_cell_length_b 10.995076
_cell_length_c 28.508941
_cell_angle_alpha 90.000000
_cell_angle_beta 90.000000
_cell_angle_gamma 90.000000
_cell_volume 3446.494236
_symmetry_space_group_name_H-M "I 4 2 2 "
_symmetry_group_IT_number 97
_symmetry_cell_setting 'tetragonal'
loop_
_space_group_symop_operation_xyz
x,y,z
-y,x,z
-x,-y,z
y,-x,z
x,-y,-z
-x,y,-z
y,x,-z
-y,-x,-z
1/2+x,1/2+y,1/2+z
1/2-y,1/2+x,1/2+z
1/2-x,1/2-y,1/2+z
1/2+y,1/2-x,1/2+z
1/2+x,1/2-y,1/2-z
1/2-x,1/2+y,1/2-z
1/2+y,1/2+x,1/2-z
1/2-y,1/2-x,1/2-z
loop_
_atom_site_type_symbol
_atom_site_label
_atom_site_fract_x
_atom_site_fract_y
_atom_site_fract_z
Si Si1 0.204641 0.998530 0.446276
Si Si2 0.817018 0.066932 0.167890
Si Si3 0.197652 0.493439 0.760199
Si Si4 0.636463 0.050177 0.358482
O O1 0.307947 0.990786 0.407401
O O2 0.115888 0.882027 0.440419
O O3 0.249750 0.000000 0.500000
O O4 0.694633 0.121263 0.146986
O O5 0.929478 0.150560 0.153441
O O6 0.797487 0.043280 0.223991
O O7 0.140316 0.359685 0.750000
O O8 0.220126 0.503539 0.815406
O O9 0.088231 0.588231 0.750000
O O10 0.500000 0.000000 0.351292
#
# Coordination Sequence:
#
# PCOD9551412 Si02
#       4
#    16  16  16  16
#     4   9  21  41  62  88 118 144 184 248 305 345
#     4  10  22  36  52  81 121 159 192 235 284 342
#     4   9  16  33  49  76 110 147 189 234 275 320
#     4  11  21  35  60  86 113 150 201 235 288 355
#
# _framework density 18.569596000000001
#
# number of rings (size 3 to 8) (size 9 to 14) (size 15 to 20)
#    0.000    2.250    5.000    0.750    3.500    5.500 
#    0.000    2.500    0.000    0.000    0.000    0.000 
#    0.000    0.000    0.000    0.000    0.000    0.000 
#
# Total GULP energy -178333.525612 kJ/mol
# GULP energy per Si atom -5572.922675 kJ/mol
# Density = 1.852733 g / cm^3
# Si number density = 18.569596 Si / 1000 Ang^3
#
#
#
# Elastic Constant Matrix: (Units=GPa)
#
#
# Indices 1 2 3 4 5 6 
#
# 1 25.7218 15.6452 19.5640 0.0000 0.0000 0.0000
# 2 15.6452 25.7224 19.5646 0.0000 0.0000 0.0000
# 3 19.5640 19.5646 99.0033 0.0000 0.0000 0.0000
# 4 0.0000 0.0000 0.0000 18.8597 0.0000 0.0000
# 5 0.0000 0.0000 0.0000 0.0000 18.8596 0.0000
# 6 0.0000 0.0000 0.0000 0.0000 0.0000 11.9672
#
#
#
# Elastic Compliance Matrix: (Units=1/GPa)
#
#
# Indices 1 2 3 4 5 6 
#
# 1 0.064484 -0.034753 -0.005875 0.000000 0.000000 0.000000
# 2 -0.034753 0.064483 -0.005875 0.000000 0.000000 0.000000
# 3 -0.005875 -0.005875 0.012423 0.000000 0.000000 0.000000
# 4 0.000000 0.000000 0.000000 0.053023 0.000000 0.000000
# 5 0.000000 0.000000 0.000000 0.000000 0.053023 0.000000
# 6 0.000000 0.000000 0.000000 0.000000 0.000000 0.083562
#
#
# Mechanical properties :
#
#
# Convention : Reuss Voigt Hill
#
# Bulk Modulus (GPa) = 20.66809 28.88834 24.77821
# Shear Modulus (GPa) = 11.36021 16.31555 13.83788
#
# Velocity S-wave (km/s) = 2.47607 2.96736 2.73278
# Velocity P-wave (km/s) = 4.39645 5.22789 4.83010
#
# Compressibility (1/GPa) = 0.04838377
#
# Stress axis : x y z
#
# Youngs Moduli (GPa) = 15.50766 15.50791 80.49774
#
# Poissons Ratio (x) = 0.53894 0.47293
# Poissons Ratio (y) = 0.53893 0.47296
# Poissons Ratio (z) = 0.09111 0.09112
#
# Static dielectric constant tensor:
#      x y z
#    x 1.660120 0.000000 0.000000 
#    y 0.000000 1.660120 0.000000 
#    z 0.000000 0.000000 1.659630 
# 
# From -- ./inp_files/7032.got.cif
#   From: 2010.05.17/outbox.cif.g08.bks.cpg/sg97_4_cif.got.tgz:7032.got - 2010.06.03 19:55:32.
