data_PCOD9551756
_publ_section_title
;
Structure prediction by ZEFSAII (Michael W. Deem and Ramdas Pophale) SiO2 
 PCOD9551756
Probable space group: I 41 2 2
;
_chemical_formula_sum "Si O2"
_cell_formula_units_Z 96
_cell_length_a 14.821819
_cell_length_b 14.821819
_cell_length_c 21.237333
_cell_angle_alpha 90.000000
_cell_angle_beta 90.000000
_cell_angle_gamma 90.000000
_cell_volume 4665.551501
_symmetry_space_group_name_H-M "I 41 2 2"
_symmetry_group_IT_number 98
_symmetry_cell_setting 'tetragonal'
loop_
_space_group_symop_operation_xyz
x,y,z
-y,1/2+x,1/4+z
-x,-y,z
y,1/2-x,1/4+z
x,1/2-y,1/4-z
-x,1/2+y,1/4-z
y,x,-z
-y,-x,-z
1/2+x,1/2+y,1/2+z
1/2-y,x,3/4+z
1/2-x,1/2-y,1/2+z
1/2+y,-x,3/4+z
1/2+x,-y,3/4-z
1/2-x,y,3/4-z
1/2+y,1/2+x,1/2-z
1/2-y,1/2-x,1/2-z
loop_
_atom_site_type_symbol
_atom_site_label
_atom_site_fract_x
_atom_site_fract_y
_atom_site_fract_z
Si Si1 0.969025 0.776153 0.471887
Si Si2 0.541273 0.805965 0.751581
Si Si3 0.250000 0.938277 0.875000
Si Si4 0.068379 0.669696 0.372933
Si Si5 0.418900 0.347504 0.093768
Si Si6 0.592425 0.888309 0.472180
Si Si7 0.500000 0.000000 0.564364
O O1 0.989117 0.832199 0.536343
O O2 0.890026 0.830666 0.437561
O O3 0.929119 0.681829 0.496357
O O4 0.044425 0.751566 0.420316
O O5 0.606035 0.893965 0.750000
O O6 0.501874 0.781000 0.683054
O O7 0.457939 0.813238 0.800722
O O8 0.596591 0.719601 0.778325
O O9 0.166037 0.871275 0.864721
O O10 0.003478 0.586972 0.392712
O O11 0.402066 0.250000 0.125000
O O12 0.434260 0.411305 0.153698
O O13 0.509543 0.916396 0.516703
#
# Coordination Sequence:
#
# PCOD9551756 Si02
#       7
#    16  16   8  16  16  16   8
#     4   9  19  31  55  86 128 163 203 264 331 387
#     4  12  26  39  64  97 133 175 225 282 337 411
#     4  12  26  44  62  90 134 182 234 276 340 418
#     4  11  22  41  61  88 125 175 223 273 331 403
#     4   9  17  31  53  91 127 164 203 260 325 391
#     4  10  20  34  58  90 125 171 209 262 330 398
#     4  10  20  40  63  87 126 174 216 262 328 402
#
# _framework density 20.576346000000001
#
# number of rings (size 3 to 8) (size 9 to 14) (size 15 to 20)
#    0.000    1.667    3.333    1.500    7.000    0.667 
#    0.000    0.000    0.000    6.000    2.167    0.000 
#    0.000    0.000    0.000    0.000    0.000    0.000 
#
# Total GULP energy -267281.688461 kJ/mol
# GULP energy per Si atom -5568.368510 kJ/mol
# Density = 2.052951 g / cm^3
# Si number density = 20.576346 Si / 1000 Ang^3
#
#
#
# Elastic Constant Matrix: (Units=GPa)
#
#
# Indices 1 2 3 4 5 6 
#
# 1 47.3107 22.4266 42.8578 0.0000 0.0000 0.0000
# 2 22.4266 47.3107 42.8581 0.0000 0.0000 0.0000
# 3 42.8578 42.8581 160.8031 0.0000 0.0000 0.0000
# 4 0.0000 0.0000 0.0000 19.6431 0.0000 0.0000
# 5 0.0000 0.0000 0.0000 0.0000 19.6428 0.0000
# 6 0.0000 0.0000 0.0000 0.0000 0.0000 23.9545
#
#
#
# Elastic Compliance Matrix: (Units=1/GPa)
#
#
# Indices 1 2 3 4 5 6 
#
# 1 0.030756 -0.009430 -0.005684 0.000000 0.000000 0.000000
# 2 -0.009430 0.030756 -0.005684 0.000000 0.000000 0.000000
# 3 -0.005684 -0.005684 0.009249 0.000000 0.000000 0.000000
# 4 0.000000 0.000000 0.000000 0.050908 0.000000 0.000000
# 5 0.000000 0.000000 0.000000 0.000000 0.050909 0.000000
# 6 0.000000 0.000000 0.000000 0.000000 0.000000 0.041746
#
#
# Mechanical properties :
#
#
# Convention : Reuss Voigt Hill
#
# Bulk Modulus (GPa) = 34.28816 52.41216 43.35016
# Shear Modulus (GPa) = 18.82235 22.46687 20.64461
#
# Velocity S-wave (km/s) = 3.02778 3.30794 3.17096
# Velocity P-wave (km/s) = 5.37804 6.33382 5.87540
#
# Compressibility (1/GPa) = 0.02916459
#
# Stress axis : x y z
#
# Youngs Moduli (GPa) = 32.51401 32.51390 108.12526
#
# Poissons Ratio (x) = 0.30662 0.61456
# Poissons Ratio (y) = 0.30662 0.61457
# Poissons Ratio (z) = 0.18480 0.18480
#
# Static dielectric constant tensor:
#      x y z
#    x 1.753100 0.000000 0.000000 
#    y 0.000000 1.753100 0.000000 
#    z 0.000000 0.000000 1.928470 
# 
# From -- ./inp_files/9077.got.cif
#   From: 2010.05.17/outbox.cif.g08.bks.cpg/sg98_5_cif.got.tgz:9077.got - 2010.06.03 20:00:51.
