data_PCOD9551865
_publ_section_title
;
Structure prediction by ZEFSAII (Michael W. Deem and Ramdas Pophale) SiO2 
 PCOD9551865
Probable space group: I 41 2 2
;
_chemical_formula_sum "Si O2"
_cell_formula_units_Z 56
_cell_length_a 17.351648
_cell_length_b 17.351648
_cell_length_c 8.751804
_cell_angle_alpha 90.000000
_cell_angle_beta 90.000000
_cell_angle_gamma 90.000000
_cell_volume 2634.990421
_symmetry_space_group_name_H-M "I 41 2 2"
_symmetry_group_IT_number 98
_symmetry_cell_setting 'tetragonal'
loop_
_space_group_symop_operation_xyz
x,y,z
-y,1/2+x,1/4+z
-x,-y,z
y,1/2-x,1/4+z
x,1/2-y,1/4-z
-x,1/2+y,1/4-z
y,x,-z
-y,-x,-z
1/2+x,1/2+y,1/2+z
1/2-y,x,3/4+z
1/2-x,1/2-y,1/2+z
1/2+y,-x,3/4+z
1/2+x,-y,3/4-z
1/2-x,y,3/4-z
1/2+y,1/2+x,1/2-z
1/2-y,1/2-x,1/2-z
loop_
_atom_site_type_symbol
_atom_site_label
_atom_site_fract_x
_atom_site_fract_y
_atom_site_fract_z
Si Si1 0.455469 0.077877 0.428796
Si Si2 0.315125 0.315125 0.000000
Si Si3 0.406331 0.306850 0.392815
Si Si4 0.442990 0.831406 0.653917
O O1 0.434406 0.065595 0.250000
O O2 0.372746 0.086306 0.513015
O O3 0.518628 0.137401 0.496743
O O4 0.500000 0.000000 0.477068
O O5 0.304971 0.250000 0.125000
O O6 0.279448 0.391683 0.080505
O O7 0.336350 0.336350 0.500000
O O8 0.482756 0.312969 0.491749
O O9 0.401604 0.750000 0.625000
O O10 0.391102 0.891102 0.750000
#
# Coordination Sequence:
#
# PCOD9551865 Si02
#       4
#    16   8  16  16
#     4  10  21  40  72 102 137 182 242 296 346 436
#     4  12  26  38  52  90 150 188 224 274 360 442
#     4  10  23  38  62  93 139 191 234 284 352 441
#     4  11  24  45  74 101 131 190 246 305 371 437
#
# _framework density 21.252448999999999
#
# number of rings (size 3 to 8) (size 9 to 14) (size 15 to 20)
#    0.000    1.429    4.286    0.000   10.000    0.000 
#    0.000    0.000    6.286    0.000    0.000    0.000 
#    0.000    0.000    0.000    0.000    0.000    0.000 
#
# Total GULP energy -156095.710383 kJ/mol
# GULP energy per Si atom -5574.846799 kJ/mol
# Density = 2.120408 g / cm^3
# Si number density = 21.252449 Si / 1000 Ang^3
#
#
#
# Elastic Constant Matrix: (Units=GPa)
#
#
# Indices 1 2 3 4 5 6 
#
# 1 112.3340 48.7803 33.8048 0.0000 0.0000 0.0000
# 2 48.7803 112.3344 33.8043 0.0000 0.0000 0.0000
# 3 33.8048 33.8043 90.5579 0.0000 0.0000 0.0000
# 4 0.0000 0.0000 0.0000 34.7666 0.0000 0.0000
# 5 0.0000 0.0000 0.0000 0.0000 34.7666 0.0000
# 6 0.0000 0.0000 0.0000 0.0000 0.0000 39.6204
#
#
#
# Elastic Compliance Matrix: (Units=1/GPa)
#
#
# Indices 1 2 3 4 5 6 
#
# 1 0.011547 -0.004188 -0.002747 0.000000 0.000000 0.000000
# 2 -0.004188 0.011547 -0.002747 0.000000 0.000000 0.000000
# 3 -0.002747 -0.002747 0.013094 0.000000 0.000000 0.000000
# 4 0.000000 0.000000 0.000000 0.028763 0.000000 0.000000
# 5 0.000000 0.000000 0.000000 0.000000 0.028763 0.000000
# 6 0.000000 0.000000 0.000000 0.000000 0.000000 0.025240
#
#
# Mechanical properties :
#
#
# Convention : Reuss Voigt Hill
#
# Bulk Modulus (GPa) = 59.43951 60.88947 60.16449
# Shear Modulus (GPa) = 34.74001 35.08649 34.91325
#
# Velocity S-wave (km/s) = 4.04745 4.06758 4.05753
# Velocity P-wave (km/s) = 7.06197 7.12552 7.09382
#
# Compressibility (1/GPa) = 0.01682383
#
# Stress axis : x y z
#
# Youngs Moduli (GPa) = 86.60108 86.60174 76.37234
#
# Poissons Ratio (x) = 0.36265 0.20982
# Poissons Ratio (y) = 0.36264 0.20981
# Poissons Ratio (z) = 0.23792 0.23792
#
# Static dielectric constant tensor:
#      x y z
#    x 1.820330 0.000000 0.000000 
#    y 0.000000 1.820330 0.000000 
#    z 0.000000 0.000000 1.929420 
# 
# From -- ./inp_files/3014.got.cif
#   From: 2010.05.17/outbox.cif.g08.bks.cpg/sg98_2_cif.got.tgz:3014.got - 2010.06.03 20:00:51.
