data_PCOD9551162
_publ_section_title
;
Structure prediction by ZEFSAII (Michael W. Deem and Ramdas Pophale) SiO2 
 PCOD9551162
Probable space group: P 43 21 2
;
_chemical_formula_sum "Si O2"
_cell_formula_units_Z 40
_cell_length_a 17.190744
_cell_length_b 17.190744
_cell_length_c 4.896565
_cell_angle_alpha 90.000000
_cell_angle_beta 90.000000
_cell_angle_gamma 90.000000
_cell_volume 1447.041111
_symmetry_space_group_name_H-M "P 43 21 2"
_symmetry_group_IT_number 96
_symmetry_cell_setting 'tetragonal'
loop_
_space_group_symop_operation_xyz
x,y,z
1/2-y,1/2+x,3/4+z
-x,-y,1/2+z
1/2+y,1/2-x,1/4+z
1/2+x,1/2-y,1/4-z
1/2-x,1/2+y,3/4-z
y,x,-z
-y,-x,1/2-z
loop_
_atom_site_type_symbol
_atom_site_label
_atom_site_fract_x
_atom_site_fract_y
_atom_site_fract_z
Si Si1 0.698661 0.084422 0.437759
Si Si2 0.256508 0.256508 0.000000
Si Si3 0.558518 0.895909 0.206177
Si Si4 0.479677 0.696265 0.335380
Si Si5 0.573977 0.426024 0.250000
Si Si6 0.909651 0.090350 0.750000
Si Si7 0.322766 0.677234 0.250000
O O1 0.751207 0.159580 0.395400
O O2 0.674117 0.067530 0.744070
O O3 0.743209 0.011811 0.301314
O O4 0.624689 0.099275 0.241073
O O5 0.236612 0.198314 0.752495
O O6 0.588248 0.970883 0.049150
O O7 0.422955 0.632168 0.494216
O O8 0.407579 0.717718 0.141844
O O9 0.556473 0.660922 0.186448
O O10 0.483739 0.415675 0.306365
#
# Coordination Sequence:
#
# PCOD9551162 Si02
#       7
#     8   4   8   8   4   4   4
#     4  12  31  51  86 115 168 210 266 325 428 487
#     4  12  31  53  73 118 169 210 255 333 402 516
#     4  12  28  56  87 121 148 202 278 356 397 467
#     4  12  28  44  78 113 153 220 259 331 390 494
#     4  12  20  44  66 110 148 196 262 314 362 452
#     4  12  22  42  70 108 158 192 272 312 378 440
#     4  12  27  51  79 112 165 210 267 317 408 480
#
# _framework density 27.642617000000001
#
# number of rings (size 3 to 8) (size 9 to 14) (size 15 to 20)
#    0.000    0.000    4.000    4.200   14.000    0.800 
#    0.000    0.000    0.000    0.000    0.000    0.000 
#    0.000    0.000    0.000    0.000    0.000    0.000 
#
# Total GULP energy -223503.759373 kJ/mol
# GULP energy per Si atom -5587.593984 kJ/mol
# Density = 2.757970 g / cm^3
# Si number density = 27.642617 Si / 1000 Ang^3
#
#
#
# Elastic Constant Matrix: (Units=GPa)
#
#
# Indices 1 2 3 4 5 6 
#
# 1 72.6294 49.3813 5.2316 0.0000 0.0000 0.0000
# 2 49.3813 72.6284 5.2328 0.0000 0.0000 0.0000
# 3 5.2316 5.2328 85.5742 0.0000 0.0000 0.0000
# 4 0.0000 0.0000 0.0000 35.0854 0.0000 0.0000
# 5 0.0000 0.0000 0.0000 0.0000 35.0847 0.0000
# 6 0.0000 0.0000 0.0000 0.0000 0.0000 27.6040
#
#
#
# Elastic Compliance Matrix: (Units=1/GPa)
#
#
# Indices 1 2 3 4 5 6 
#
# 1 0.025627 -0.017388 -0.000503 0.000000 0.000000 0.000000
# 2 -0.017388 0.025627 -0.000504 0.000000 0.000000 0.000000
# 3 -0.000503 -0.000504 0.011747 0.000000 0.000000 0.000000
# 4 0.000000 0.000000 0.000000 0.028502 0.000000 0.000000
# 5 0.000000 0.000000 0.000000 0.000000 0.028502 0.000000
# 6 0.000000 0.000000 0.000000 0.000000 0.000000 0.036227
#
#
# Mechanical properties :
#
#
# Convention : Reuss Voigt Hill
#
# Bulk Modulus (GPa) = 38.15221 38.94703 38.54962
# Shear Modulus (GPa) = 24.78185 30.95390 27.86788
#
# Velocity S-wave (km/s) = 2.99742 3.34996 3.17858
# Velocity P-wave (km/s) = 5.08048 5.39287 5.23900
#
# Compressibility (1/GPa) = 0.02621080
#
# Stress axis : x y z
#
# Youngs Moduli (GPa) = 39.02137 39.02079 85.12541
#
# Poissons Ratio (x) = 0.67849 0.04286
# Poissons Ratio (y) = 0.67850 0.04291
# Poissons Ratio (z) = 0.01965 0.01967
#
# Static dielectric constant tensor:
#      x y z
#    x 2.570640 0.000000 0.000000 
#    y 0.000000 2.570630 0.000000 
#    z 0.000000 0.000000 2.024340 
# 
# From -- ./inp_files/473.got.cif
#   From: 2010.05.17/outbox.cif.g08.bks.cpg/sg96_1_cif.got.tgz:473.got - 2010.06.03 19:52:08.
