data_PCOD9551641
_publ_section_title
;
Structure prediction by ZEFSAII (Michael W. Deem and Ramdas Pophale) SiO2 
 PCOD9551641
Probable space group: I 41 2 2
;
_chemical_formula_sum "Si O2"
_cell_formula_units_Z 80
_cell_length_a 29.348427
_cell_length_b 29.348427
_cell_length_c 5.128312
_cell_angle_alpha 90.000000
_cell_angle_beta 90.000000
_cell_angle_gamma 90.000000
_cell_volume 4417.169833
_symmetry_space_group_name_H-M "I 41 2 2"
_symmetry_group_IT_number 98
_symmetry_cell_setting 'tetragonal'
loop_
_space_group_symop_operation_xyz
x,y,z
-y,1/2+x,1/4+z
-x,-y,z
y,1/2-x,1/4+z
x,1/2-y,1/4-z
-x,1/2+y,1/4-z
y,x,-z
-y,-x,-z
1/2+x,1/2+y,1/2+z
1/2-y,x,3/4+z
1/2-x,1/2-y,1/2+z
1/2+y,-x,3/4+z
1/2+x,-y,3/4-z
1/2-x,y,3/4-z
1/2+y,1/2+x,1/2-z
1/2-y,1/2-x,1/2-z
loop_
_atom_site_type_symbol
_atom_site_label
_atom_site_fract_x
_atom_site_fract_y
_atom_site_fract_z
Si Si1 0.342794 0.657207 0.500000
Si Si2 0.429889 0.143511 0.239925
Si Si3 0.521940 0.407421 0.995035
Si Si4 0.799849 0.200152 0.500000
Si Si5 0.300642 0.040650 0.760486
Si Si6 0.649571 0.051432 0.735748
O O1 0.330210 0.686336 0.753867
O O2 0.334762 0.603232 0.528242
O O3 0.381478 0.118523 0.250000
O O4 0.468936 0.104431 0.212987
O O5 0.440041 0.166687 0.515260
O O6 0.437217 0.181102 0.010724
O O7 0.539301 0.381419 0.736307
O O8 0.541217 0.458784 0.000000
O O9 0.545008 0.381938 0.235736
O O10 0.804685 0.250000 0.625000
O O11 0.250000 0.047880 0.875000
O O12 0.310824 0.986598 0.730348
#
# Coordination Sequence:
#
# PCOD9551641 Si02
#       6
#     8  16  16   8  16  16
#     4  12  21  38  64  80  99 136 180 235 282 347
#     4  10  21  35  55  83 116 153 195 237 274 333
#     4  10  17  32  52  77 114 152 180 219 278 320
#     4  12  27  44  56  70  96 128 169 233 306 361
#     4  10  21  37  57  82 118 155 187 235 289 339
#     4  10  20  33  55  82 110 141 181 231 279 334
#
# _framework density 18.111143999999999
#
# number of rings (size 3 to 8) (size 9 to 14) (size 15 to 20)
#    0.000    1.600    2.000    3.600    0.000    2.000 
#    0.000    0.000    0.000    7.200    0.000    0.000 
#    0.000   22.400    0.000    0.000    0.000    0.000 
#
# Total GULP energy -222970.688611 kJ/mol
# GULP energy per Si atom -5574.267215 kJ/mol
# Density = 1.806992 g / cm^3
# Si number density = 18.111144 Si / 1000 Ang^3
#
#
#
# Elastic Constant Matrix: (Units=GPa)
#
#
# Indices 1 2 3 4 5 6 
#
# 1 58.1537 34.7935 14.0156 0.0000 0.0000 0.0000
# 2 34.7935 58.1382 14.0101 0.0000 0.0000 0.0000
# 3 14.0156 14.0101 134.8223 0.0000 0.0000 0.0000
# 4 0.0000 0.0000 0.0000 19.8942 0.0000 0.0000
# 5 0.0000 0.0000 0.0000 0.0000 19.8944 0.0000
# 6 0.0000 0.0000 0.0000 0.0000 0.0000 23.4706
#
#
#
# Elastic Compliance Matrix: (Units=1/GPa)
#
#
# Indices 1 2 3 4 5 6 
#
# 1 0.026962 -0.015857 -0.001155 0.000000 0.000000 0.000000
# 2 -0.015857 0.026968 -0.001154 0.000000 0.000000 0.000000
# 3 -0.001155 -0.001154 0.007657 0.000000 0.000000 0.000000
# 4 0.000000 0.000000 0.000000 0.050266 0.000000 0.000000
# 5 0.000000 0.000000 0.000000 0.000000 0.050265 0.000000
# 6 0.000000 0.000000 0.000000 0.000000 0.000000 0.042607
#
#
# Mechanical properties :
#
#
# Convention : Reuss Voigt Hill
#
# Bulk Modulus (GPa) = 39.59642 41.86141 40.72892
# Shear Modulus (GPa) = 20.04206 25.20484 22.62345
#
# Velocity S-wave (km/s) = 3.33019 3.73456 3.53816
# Velocity P-wave (km/s) = 6.05784 6.46218 6.26327
#
# Compressibility (1/GPa) = 0.02525481
#
# Stress axis : x y z
#
# Youngs Moduli (GPa) = 37.08992 37.08053 130.59676
#
# Poissons Ratio (x) = 0.58799 0.15084
# Poissons Ratio (y) = 0.58814 0.15070
# Poissons Ratio (z) = 0.04284 0.04279
#
# Static dielectric constant tensor:
#      x y z
#    x 1.633010 0.000000 0.000000 
#    y 0.000000 1.633020 0.000000 
#    z 0.000000 0.000000 1.613550 
# 
# From -- ./inp_files/1763.got.cif
#   From: 2010.05.17/outbox.cif.g08.bks.cpg/sg98_1_cif.got.tgz:1763.got - 2010.06.03 20:00:51.
