data_PCOD9551009
_publ_section_title
;
Structure prediction by ZEFSAII (Michael W. Deem and Ramdas Pophale) SiO2 
 PCOD9551009
Probable space group: P 43 21 2
;
_chemical_formula_sum "Si O2"
_cell_formula_units_Z 40
_cell_length_a 13.702480
_cell_length_b 13.702480
_cell_length_c 11.109156
_cell_angle_alpha 90.000000
_cell_angle_beta 90.000000
_cell_angle_gamma 90.000000
_cell_volume 2085.832447
_symmetry_space_group_name_H-M "P 43 21 2"
_symmetry_group_IT_number 96
_symmetry_cell_setting 'tetragonal'
loop_
_space_group_symop_operation_xyz
x,y,z
1/2-y,1/2+x,3/4+z
-x,-y,1/2+z
1/2+y,1/2-x,1/4+z
1/2+x,1/2-y,1/4-z
1/2-x,1/2+y,3/4-z
y,x,-z
-y,-x,1/2-z
loop_
_atom_site_type_symbol
_atom_site_label
_atom_site_fract_x
_atom_site_fract_y
_atom_site_fract_z
Si Si1 0.146678 0.146678 0.000000
Si Si2 0.439069 0.775078 0.143900
Si Si3 0.623625 0.561883 0.367976
Si Si4 0.709551 0.790475 0.701525
Si Si5 0.796707 0.667060 0.908913
Si Si6 0.079232 0.079232 0.500000
O O1 0.235304 0.157245 0.092827
O O2 0.048563 0.145838 0.079588
O O3 0.399302 0.812069 0.273346
O O4 0.552202 0.784765 0.113806
O O5 0.407628 0.660454 0.147167
O O6 0.373491 0.826834 0.043160
O O7 0.581811 0.581811 0.500000
O O8 0.718955 0.626064 0.345565
O O9 0.532527 0.593908 0.285755
O O10 0.780488 0.721609 0.782377
O O11 0.714680 0.714680 0.000000
#
# Coordination Sequence:
#
# PCOD9551009 Si02
#       6
#     4   8   8   8   8   4
#     4  11  26  40  68  96 131 174 206 280 331 390
#     4  11  22  40  65  96 126 172 220 267 327 390
#     4  11  24  41  64 100 129 168 215 273 332 388
#     4  11  22  41  64  93 133 167 215 271 328 390
#     4  10  23  40  67  92 128 174 217 274 316 394
#     4  11  20  38  68  92 117 162 218 278 323 368
#
# _framework density 19.176997
#
# number of rings (size 3 to 8) (size 9 to 14) (size 15 to 20)
#    0.000    1.200    6.000    1.200    5.600    0.800 
#    0.000    2.000    0.000    0.000    0.000    0.000 
#    0.000    0.000    0.000    0.000    0.000    0.000 
#
# Total GULP energy -223053.647540 kJ/mol
# GULP energy per Si atom -5576.341189 kJ/mol
# Density = 1.913335 g / cm^3
# Si number density = 19.176997 Si / 1000 Ang^3
#
#
#
# Elastic Constant Matrix: (Units=GPa)
#
#
# Indices 1 2 3 4 5 6 
#
# 1 94.3796 46.5752 14.2149 0.0000 0.0000 0.0000
# 2 46.5752 94.3796 14.2149 0.0000 0.0000 0.0000
# 3 14.2149 14.2149 57.5519 0.0000 0.0000 0.0000
# 4 0.0000 0.0000 0.0000 27.6642 0.0000 0.0000
# 5 0.0000 0.0000 0.0000 0.0000 27.6642 0.0000
# 6 0.0000 0.0000 0.0000 0.0000 0.0000 28.1877
#
#
#
# Elastic Compliance Matrix: (Units=1/GPa)
#
#
# Indices 1 2 3 4 5 6 
#
# 1 0.014192 -0.006726 -0.001844 0.000000 0.000000 0.000000
# 2 -0.006726 0.014192 -0.001844 0.000000 0.000000 0.000000
# 3 -0.001844 -0.001844 0.018287 0.000000 0.000000 0.000000
# 4 0.000000 0.000000 0.000000 0.036148 0.000000 0.000000
# 5 0.000000 0.000000 0.000000 0.000000 0.036148 0.000000
# 6 0.000000 0.000000 0.000000 0.000000 0.000000 0.035476
#
#
# Mechanical properties :
#
#
# Convention : Reuss Voigt Hill
#
# Bulk Modulus (GPa) = 38.69544 44.03569 41.36557
# Shear Modulus (GPa) = 27.19065 28.12362 27.65713
#
# Velocity S-wave (km/s) = 3.76956 3.83368 3.80176
# Velocity P-wave (km/s) = 6.25843 6.52754 6.39440
#
# Compressibility (1/GPa) = 0.02584284
#
# Stress axis : x y z
#
# Youngs Moduli (GPa) = 70.45976 70.45976 54.68484
#
# Poissons Ratio (x) = 0.47392 0.10085
# Poissons Ratio (y) = 0.47392 0.10085
# Poissons Ratio (z) = 0.12994 0.12994
#
# Static dielectric constant tensor:
#      x y z
#    x 1.676330 0.000000 0.000000 
#    y 0.000000 1.676330 0.000000 
#    z 0.000000 0.000000 1.794550 
# 
# From -- ./inp_files/2094.got.cif
#   From: 2010.05.17/outbox.cif.g08.bks.cpg/sg96_2_cif.got.tgz:2094.got - 2010.06.03 19:52:08.
