data_PCOD9551954
_publ_section_title
;
Structure prediction by ZEFSAII (Michael W. Deem and Ramdas Pophale) SiO2 
 PCOD9551954
Probable space group: I 41 2 2
;
_chemical_formula_sum "Si O2"
_cell_formula_units_Z 44
_cell_length_a 10.553919
_cell_length_b 10.553919
_cell_length_c 18.407728
_cell_angle_alpha 90.000000
_cell_angle_beta 90.000000
_cell_angle_gamma 90.000000
_cell_volume 2050.348580
_symmetry_space_group_name_H-M "I 41 2 2"
_symmetry_group_IT_number 98
_symmetry_cell_setting 'tetragonal'
loop_
_space_group_symop_operation_xyz
x,y,z
-y,1/2+x,1/4+z
-x,-y,z
y,1/2-x,1/4+z
x,1/2-y,1/4-z
-x,1/2+y,1/4-z
y,x,-z
-y,-x,-z
1/2+x,1/2+y,1/2+z
1/2-y,x,3/4+z
1/2-x,1/2-y,1/2+z
1/2+y,-x,3/4+z
1/2+x,-y,3/4-z
1/2-x,y,3/4-z
1/2+y,1/2+x,1/2-z
1/2-y,1/2-x,1/2-z
loop_
_atom_site_type_symbol
_atom_site_label
_atom_site_fract_x
_atom_site_fract_y
_atom_site_fract_z
Si Si1 0.521873 0.766853 0.860123
Si Si2 0.500000 0.500000 0.500000
Si Si3 0.250000 0.864301 0.375000
Si Si4 0.945194 0.860002 0.736554
O O1 0.502283 0.880325 0.803542
O O2 0.380568 0.714604 0.879353
O O3 0.587455 0.803590 0.935629
O O4 0.607961 0.665421 0.819147
O O5 0.227313 0.953135 0.304906
O O6 0.000000 0.000000 0.752829
#
# Coordination Sequence:
#
# PCOD9551954 Si02
#       4
#    16   4   8  16
#     4  11  25  44  71 106 146 185 247 292 370 440
#     4  12  28  40  72 112 144 198 228 308 376 436
#     4  10  24  44  76  98 140 196 232 310 354 436
#     4  10  23  45  69 106 136 186 244 287 357 428
#
# _framework density 21.459765999999998
#
# number of rings (size 3 to 8) (size 9 to 14) (size 15 to 20)
#    0.000    1.455    1.818    1.091   10.182    5.818 
#    0.000    5.455    0.000    0.000    0.000    0.000 
#    0.000    0.000    0.000    0.000    0.000    0.000 
#
# Total GULP energy -123036.841137 kJ/mol
# GULP energy per Si atom -5592.583688 kJ/mol
# Density = 2.141092 g / cm^3
# Si number density = 21.459766 Si / 1000 Ang^3
#
#
#
# Elastic Constant Matrix: (Units=GPa)
#
#
# Indices 1 2 3 4 5 6 
#
# 1 101.5718 65.7600 65.9394 0.0000 0.0000 0.0000
# 2 65.7600 101.5718 65.9394 0.0000 0.0000 0.0000
# 3 65.9394 65.9394 186.9833 0.0000 0.0000 0.0000
# 4 0.0000 0.0000 0.0000 25.3490 0.0000 0.0000
# 5 0.0000 0.0000 0.0000 0.0000 25.3490 0.0000
# 6 0.0000 0.0000 0.0000 0.0000 0.0000 13.3055
#
#
#
# Elastic Compliance Matrix: (Units=1/GPa)
#
#
# Indices 1 2 3 4 5 6 
#
# 1 0.018100 -0.009824 -0.002919 0.000000 0.000000 0.000000
# 2 -0.009824 0.018100 -0.002919 0.000000 0.000000 0.000000
# 3 -0.002919 -0.002919 0.007407 0.000000 0.000000 0.000000
# 4 0.000000 0.000000 0.000000 0.039449 0.000000 0.000000
# 5 0.000000 0.000000 0.000000 0.000000 0.039449 0.000000
# 6 0.000000 0.000000 0.000000 0.000000 0.000000 0.075157
#
#
# Mechanical properties :
#
#
# Convention : Reuss Voigt Hill
#
# Bulk Modulus (GPa) = 81.40151 87.26716 84.33434
# Shear Modulus (GPa) = 21.45192 25.63324 23.54258
#
# Velocity S-wave (km/s) = 3.16513 3.45987 3.31578
# Velocity P-wave (km/s) = 7.16742 7.53092 7.35142
#
# Compressibility (1/GPa) = 0.01228478
#
# Stress axis : x y z
#
# Youngs Moduli (GPa) = 55.24836 55.24836 135.01470
#
# Poissons Ratio (x) = 0.54274 0.39406
# Poissons Ratio (y) = 0.54274 0.39406
# Poissons Ratio (z) = 0.16125 0.16125
#
# Static dielectric constant tensor:
#      x y z
#    x 1.792780 0.000000 0.000000 
#    y 0.000000 1.792780 0.000000 
#    z 0.000000 0.000000 1.741140 
# 
# From -- ./inp_files/7110.got.cif
#   From: 2010.05.17/outbox.cif.g08.bks.cpg/sg98_4_cif.got.tgz:7110.got - 2010.06.03 20:00:51.
