data_PCOD9551415
_publ_section_title
;
Structure prediction by ZEFSAII (Michael W. Deem and Ramdas Pophale) SiO2 
 PCOD9551415
Probable space group: I 4 2 2 
;
_chemical_formula_sum "Si O2"
_cell_formula_units_Z 96
_cell_length_a 26.420764
_cell_length_b 26.420764
_cell_length_c 7.771911
_cell_angle_alpha 90.000000
_cell_angle_beta 90.000000
_cell_angle_gamma 90.000000
_cell_volume 5425.235092
_symmetry_space_group_name_H-M "I 4 2 2 "
_symmetry_group_IT_number 97
_symmetry_cell_setting 'tetragonal'
loop_
_space_group_symop_operation_xyz
x,y,z
-y,x,z
-x,-y,z
y,-x,z
x,-y,-z
-x,y,-z
y,x,-z
-y,-x,-z
1/2+x,1/2+y,1/2+z
1/2-y,1/2+x,1/2+z
1/2-x,1/2-y,1/2+z
1/2+y,1/2-x,1/2+z
1/2+x,1/2-y,1/2-z
1/2-x,1/2+y,1/2-z
1/2+y,1/2+x,1/2-z
1/2-y,1/2-x,1/2-z
loop_
_atom_site_type_symbol
_atom_site_label
_atom_site_fract_x
_atom_site_fract_y
_atom_site_fract_z
Si Si1 0.859952 0.943610 0.454207
Si Si2 0.220697 0.798216 0.199909
Si Si3 0.740352 0.407618 0.600350
Si Si4 0.945294 0.862468 0.950923
Si Si5 0.756696 0.443133 0.946259
Si Si6 0.863568 0.721689 0.738139
O O1 0.899972 0.899972 0.500000
O O2 0.851669 0.942059 0.250421
O O3 0.804827 0.938354 0.540762
O O4 0.879593 0.000000 0.500000
O O5 0.273861 0.773861 0.250000
O O6 0.221385 0.857808 0.203192
O O7 0.175318 0.768923 0.293665
O O8 0.214077 0.785924 0.000000
O O9 0.690734 0.438458 0.547062
O O10 0.771958 0.435476 0.747324
O O11 0.767455 0.390172 0.423311
O O12 0.900646 0.900646 0.000000
O O13 0.000000 0.884198 0.000000
O O14 0.769201 0.500000 0.000000
O O15 0.779200 0.403164 0.082383
O O16 0.827356 0.672645 0.750000
#
# Coordination Sequence:
#
# PCOD9551415 Si02
#       6
#    16  16  16  16  16  16
#     4  11  23  39  55  79 104 141 193 250 305 355
#     4   9  20  33  51  81 110 142 187 235 292 341
#     4  11  23  36  58  78 112 153 191 240 294 348
#     4  12  23  40  58  79 107 142 197 252 308 356
#     4  11  24  38  56  83 113 155 198 236 288 351
#     4  10  22  38  57  85 116 145 192 242 290 355
#
# _framework density 17.695086
#
# number of rings (size 3 to 8) (size 9 to 14) (size 15 to 20)
#    0.000    1.333    1.667    5.500    9.333    0.333 
#    0.000    1.667    0.000    0.000    0.000    0.000 
#    0.000    0.000    0.000   10.500    0.000    0.000 
#
# Total GULP energy -268125.353977 kJ/mol
# GULP energy per Si atom -5585.944875 kJ/mol
# Density = 1.765481 g / cm^3
# Si number density = 17.695086 Si / 1000 Ang^3
#
#
#
# Elastic Constant Matrix: (Units=GPa)
#
#
# Indices 1 2 3 4 5 6 
#
# 1 -353.8694 428.6446 23.5605 0.0000 0.0000 0.0000
# 2 428.6446 -354.0049 23.6233 0.0000 0.0000 0.0000
# 3 23.5605 23.6233 102.6262 0.0000 0.0000 0.0000
# 4 0.0000 0.0000 0.0000 31.2370 0.0000 0.0000
# 5 0.0000 0.0000 0.0000 0.0000 31.2382 0.0000
# 6 0.0000 0.0000 0.0000 0.0000 0.0000 15.1415
#
#
#
# Elastic Compliance Matrix: (Units=1/GPa)
#
#
# Indices 1 2 3 4 5 6 
#
# 1 0.007192 0.008468 -0.003601 0.000000 0.000000 0.000000
# 2 0.008468 0.007189 -0.003599 0.000000 0.000000 0.000000
# 3 -0.003601 -0.003599 0.011399 0.000000 0.000000 0.000000
# 4 0.000000 0.000000 0.000000 0.032013 0.000000 0.000000
# 5 0.000000 0.000000 0.000000 0.000000 0.032012 0.000000
# 6 0.000000 0.000000 0.000000 0.000000 0.000000 0.066044
#
#
# Mechanical properties :
#
#
# Convention : Reuss Voigt Hill
#
# Bulk Modulus (GPa) = 35.31283 38.48985 36.90134
# Shear Modulus (GPa) = 30.72179 -56.54842 -12.91331
#
# Velocity S-wave (km/s) = 4.17127 -5.65920 -2.70435
# Velocity P-wave (km/s) = 6.57259 4.57199 3.33885
#
# Compressibility (1/GPa) = 0.02831832
#
# Stress axis : x y z
#
# Youngs Moduli (GPa) = 139.03828 139.10187 87.72599
#
# Poissons Ratio (x) = -1.17798 0.31586
# Poissons Ratio (y) = -1.17744 0.31572
# Poissons Ratio (z) = 0.50061 0.50062
#
# Static dielectric constant tensor:
#      x y z
#    x 1.567440 0.000000 0.000000 
#    y 0.000000 1.567440 0.000000 
#    z 0.000000 0.000000 1.652390 
# 
# From -- ./inp_files/2459.got.cif
#   From: 2010.05.17/outbox.cif.g08.bks.cpg/sg97_2_cif.got.tgz:2459.got - 2010.06.03 19:55:32.
