data_PCOD9551222
_publ_section_title
;
Structure prediction by ZEFSAII (Michael W. Deem and Ramdas Pophale) SiO2 
 PCOD9551222
Probable space group: I 4 2 2 
;
_chemical_formula_sum "Si O2"
_cell_formula_units_Z 64
_cell_length_a 22.598111
_cell_length_b 22.598111
_cell_length_c 5.439469
_cell_angle_alpha 90.000000
_cell_angle_beta 90.000000
_cell_angle_gamma 90.000000
_cell_volume 2777.798769
_symmetry_space_group_name_H-M "I 4 2 2 "
_symmetry_group_IT_number 97
_symmetry_cell_setting 'tetragonal'
loop_
_space_group_symop_operation_xyz
x,y,z
-y,x,z
-x,-y,z
y,-x,z
x,-y,-z
-x,y,-z
y,x,-z
-y,-x,-z
1/2+x,1/2+y,1/2+z
1/2-y,1/2+x,1/2+z
1/2-x,1/2-y,1/2+z
1/2+y,1/2-x,1/2+z
1/2+x,1/2-y,1/2-z
1/2-x,1/2+y,1/2-z
1/2+y,1/2+x,1/2-z
1/2-y,1/2-x,1/2-z
loop_
_atom_site_type_symbol
_atom_site_label
_atom_site_fract_x
_atom_site_fract_y
_atom_site_fract_z
Si Si1 0.000000 0.221213 0.500000
Si Si2 0.186900 0.813101 0.500000
Si Si3 0.608723 0.232575 0.254627
Si Si4 0.838157 0.918426 0.121759
Si Si5 0.568436 0.117266 0.492119
O O1 0.945332 0.265363 0.559465
O O2 0.863549 0.175085 0.300708
O O3 0.169346 0.750934 0.619877
O O4 0.177156 0.024054 0.284782
O O5 0.588660 0.287771 0.419494
O O6 0.606467 0.175196 0.423053
O O7 0.901883 0.901883 0.000000
O O8 0.500000 0.134997 0.500000
O O9 0.589196 0.089196 0.750000
O O10 0.576191 0.076191 0.250000
#
# Coordination Sequence:
#
# PCOD9551222 Si02
#       5
#     8   8  16  16  16
#     4  10  18  30  60  90 129 171 224 286 338 426
#     4   8  18  34  64  92 138 169 210 274 340 431
#     4  10  21  38  67  97 134 174 227 281 357 425
#     4   9  17  31  52  87 129 169 212 278 338 411
#     4  12  29  48  75 103 138 187 251 314 375 439
#
# _framework density 23.039826000000001
#
# number of rings (size 3 to 8) (size 9 to 14) (size 15 to 20)
#    0.000    2.000    0.000    3.000   10.500    1.500 
#    0.000    0.000    8.250    0.000    0.000    0.000 
#    0.000 1839.000    0.000    0.000    6.250    9.750 
#
# Total GULP energy -178442.268643 kJ/mol
# GULP energy per Si atom -5576.320895 kJ/mol
# Density = 2.298739 g / cm^3
# Si number density = 23.039826 Si / 1000 Ang^3
#
#
#
# Elastic Constant Matrix: (Units=GPa)
#
#
# Indices 1 2 3 4 5 6 
#
# 1 73.1918 37.9926 36.3307 0.0000 0.0000 0.0000
# 2 37.9926 73.1894 36.3316 0.0000 0.0000 0.0000
# 3 36.3307 36.3316 101.8575 0.0000 0.0000 0.0000
# 4 0.0000 0.0000 0.0000 42.7145 0.0000 0.0000
# 5 0.0000 0.0000 0.0000 0.0000 42.7157 0.0000
# 6 0.0000 0.0000 0.0000 0.0000 0.0000 25.5071
#
#
#
# Elastic Compliance Matrix: (Units=1/GPa)
#
#
# Indices 1 2 3 4 5 6 
#
# 1 0.020069 -0.008341 -0.004183 0.000000 0.000000 0.000000
# 2 -0.008341 0.020070 -0.004184 0.000000 0.000000 0.000000
# 3 -0.004183 -0.004184 0.012802 0.000000 0.000000 0.000000
# 4 0.000000 0.000000 0.000000 0.023411 0.000000 0.000000
# 5 0.000000 0.000000 0.000000 0.000000 0.023411 0.000000
# 6 0.000000 0.000000 0.000000 0.000000 0.000000 0.039205
#
#
# Mechanical properties :
#
#
# Convention : Reuss Voigt Hill
#
# Bulk Modulus (GPa) = 51.21633 52.17205 51.69419
# Shear Modulus (GPa) = 27.94994 31.35970 29.65482
#
# Velocity S-wave (km/s) = 3.48676 3.69332 3.59153
# Velocity P-wave (km/s) = 6.20385 6.39382 6.29955
#
# Compressibility (1/GPa) = 0.01952502
#
# Stress axis : x y z
#
# Youngs Moduli (GPa) = 49.82835 49.82584 78.11375
#
# Poissons Ratio (x) = 0.41561 0.32674
# Poissons Ratio (y) = 0.41564 0.32679
# Poissons Ratio (z) = 0.20843 0.20845
#
# Static dielectric constant tensor:
#      x y z
#    x 1.789840 0.000000 0.000000 
#    y 0.000000 1.789830 0.000000 
#    z 0.000000 0.000000 2.529560 
# 
# From -- ./inp_files/802.got.cif
#   From: 2010.05.17/outbox.cif.g08.bks.cpg/sg97_1_cif.got.tgz:802.got - 2010.06.03 19:55:32.
