data_PCOD9551229
_publ_section_title
;
Structure prediction by ZEFSAII (Michael W. Deem and Ramdas Pophale) SiO2 
 PCOD9551229
Probable space group: I 4 2 2 
;
_chemical_formula_sum "Si O2"
_cell_formula_units_Z 112
_cell_length_a 19.573531
_cell_length_b 19.573531
_cell_length_c 15.828511
_cell_angle_alpha 90.000000
_cell_angle_beta 90.000000
_cell_angle_gamma 90.000000
_cell_volume 6064.268453
_symmetry_space_group_name_H-M "I 4 2 2 "
_symmetry_group_IT_number 97
_symmetry_cell_setting 'tetragonal'
loop_
_space_group_symop_operation_xyz
x,y,z
-y,x,z
-x,-y,z
y,-x,z
x,-y,-z
-x,y,-z
y,x,-z
-y,-x,-z
1/2+x,1/2+y,1/2+z
1/2-y,1/2+x,1/2+z
1/2-x,1/2-y,1/2+z
1/2+y,1/2-x,1/2+z
1/2+x,1/2-y,1/2-z
1/2-x,1/2+y,1/2-z
1/2+y,1/2+x,1/2-z
1/2-y,1/2-x,1/2-z
loop_
_atom_site_type_symbol
_atom_site_label
_atom_site_fract_x
_atom_site_fract_y
_atom_site_fract_z
Si Si1 0.700239 0.299560 0.597088
Si Si2 0.379751 0.232289 0.269927
Si Si3 0.000000 0.212322 0.500000
Si Si4 0.511765 0.608526 0.745480
Si Si5 0.946511 0.143826 0.939161
Si Si6 0.643309 0.356691 0.000000
Si Si7 0.523354 0.754035 0.817838
Si Si8 0.774442 0.174119 0.329666
O O1 0.716849 0.283152 0.500000
O O2 0.635379 0.256718 0.633715
O O3 0.683099 0.379781 0.594188
O O4 0.764225 0.278600 0.654524
O O5 0.335217 0.164784 0.250000
O O6 0.457795 0.221582 0.238419
O O7 0.339068 0.294418 0.222316
O O8 0.934973 0.163647 0.482969
O O9 0.009891 0.260381 0.417633
O O10 0.441899 0.572434 0.765669
O O11 0.514777 0.621406 0.645151
O O12 0.519971 0.674177 0.799657
O O13 0.916137 0.083864 0.000000
O O14 0.000000 0.181908 0.000000
O O15 0.690793 0.339947 0.920103
O O16 0.604681 0.764385 0.800219
#
# Coordination Sequence:
#
# PCOD9551229 Si02
#       8
#    16  16   8  16  16   8  16  16
#     4  10  21  35  54  78 106 151 188 233 284 324
#     4  10  21  37  55  77 111 151 188 236 282 334
#     4  10  22  31  52  70 104 144 187 218 270 326
#     4  11  22  33  46  71 109 147 183 218 262 323
#     4  11  21  34  52  75 108 147 185 219 265 328
#     4  10  18  33  48  70 102 138 179 226 262 326
#     4  11  21  34  53  78 104 148 186 230 280 330
#     4  10  19  35  54  73 108 143 187 231 282 336
#
# _framework density 18.468838999999999
#
# number of rings (size 3 to 8) (size 9 to 14) (size 15 to 20)
#    0.000    1.571    3.571    2.571    4.000    0.286 
#    0.000    0.000    0.000    0.000    0.000    0.000 
#    0.000   14.286   16.000    0.000    0.000    0.571 
#
# Total GULP energy -311945.260282 kJ/mol
# GULP energy per Si atom -5570.451076 kJ/mol
# Density = 1.842680 g / cm^3
# Si number density = 18.468839 Si / 1000 Ang^3
#
#
#
# Elastic Constant Matrix: (Units=GPa)
#
#
# Indices 1 2 3 4 5 6 
#
# 1 69.6933 18.7438 -0.4573 0.0000 0.0000 0.0000
# 2 18.7438 69.6938 -0.4575 0.0000 0.0000 0.0000
# 3 -0.4573 -0.4575 65.9996 0.0000 0.0000 0.0000
# 4 0.0000 0.0000 0.0000 22.0745 0.0000 0.0000
# 5 0.0000 0.0000 0.0000 0.0000 22.0752 0.0000
# 6 0.0000 0.0000 0.0000 0.0000 0.0000 28.1566
#
#
#
# Elastic Compliance Matrix: (Units=1/GPa)
#
#
# Indices 1 2 3 4 5 6 
#
# 1 0.015468 -0.004159 0.000078 0.000000 0.000000 0.000000
# 2 -0.004159 0.015468 0.000078 0.000000 0.000000 0.000000
# 3 0.000078 0.000078 0.015153 0.000000 0.000000 0.000000
# 4 0.000000 0.000000 0.000000 0.045301 0.000000 0.000000
# 5 0.000000 0.000000 0.000000 0.000000 0.045300 0.000000
# 6 0.000000 0.000000 0.000000 0.000000 0.000000 0.035516
#
#
# Mechanical properties :
#
#
# Convention : Reuss Voigt Hill
#
# Bulk Modulus (GPa) = 26.25867 26.78275 26.52071
# Shear Modulus (GPa) = 25.91957 26.96509 26.44233
#
# Velocity S-wave (km/s) = 3.75029 3.82518 3.78792
# Velocity P-wave (km/s) = 5.74470 5.83459 5.78982
#
# Compressibility (1/GPa) = 0.03808266
#
# Stress axis : x y z
#
# Youngs Moduli (GPa) = 64.65055 64.65097 65.99488
#
# Poissons Ratio (x) = 0.26891 -0.00517
# Poissons Ratio (y) = 0.26891 -0.00517
# Poissons Ratio (z) = -0.00506 -0.00507
#
# Static dielectric constant tensor:
#      x y z
#    x 1.669490 0.000000 0.000000 
#    y 0.000000 1.669490 0.000000 
#    z 0.000000 0.000000 1.257100 
# 
# From -- ./inp_files/6018.got.cif
#   From: 2010.05.17/outbox.cif.g08.bks.cpg/sg97_4_cif.got.tgz:6018.got - 2010.06.03 19:55:32.
