data_PCOD9551542
_publ_section_title
;
Structure prediction by ZEFSAII (Michael W. Deem and Ramdas Pophale) SiO2 
 PCOD9551542
Probable space group: I 4 2 2 
;
_chemical_formula_sum "Si O2"
_cell_formula_units_Z 64
_cell_length_a 10.446019
_cell_length_b 10.446019
_cell_length_c 27.346266
_cell_angle_alpha 90.000000
_cell_angle_beta 90.000000
_cell_angle_gamma 90.000000
_cell_volume 2984.005758
_symmetry_space_group_name_H-M "I 4 2 2 "
_symmetry_group_IT_number 97
_symmetry_cell_setting 'tetragonal'
loop_
_space_group_symop_operation_xyz
x,y,z
-y,x,z
-x,-y,z
y,-x,z
x,-y,-z
-x,y,-z
y,x,-z
-y,-x,-z
1/2+x,1/2+y,1/2+z
1/2-y,1/2+x,1/2+z
1/2-x,1/2-y,1/2+z
1/2+y,1/2-x,1/2+z
1/2+x,1/2-y,1/2-z
1/2-x,1/2+y,1/2-z
1/2+y,1/2+x,1/2-z
1/2-y,1/2-x,1/2-z
loop_
_atom_site_type_symbol
_atom_site_label
_atom_site_fract_x
_atom_site_fract_y
_atom_site_fract_z
Si Si1 0.316828 0.055365 0.343165
Si Si2 0.201196 0.023986 0.179629
Si Si3 0.004470 0.216510 0.554096
Si Si4 0.877208 0.203438 0.720666
O O1 0.423401 0.160957 0.333665
O O2 0.306633 0.016787 0.399282
O O3 0.178557 0.111038 0.322231
O O4 0.325263 0.931503 0.309140
O O5 0.106635 0.137256 0.160887
O O6 0.183838 0.990543 0.238316
O O7 0.879995 0.125531 0.557120
O O8 0.000000 0.276904 0.500000
O O9 0.754116 0.254116 0.750000
#
# Coordination Sequence:
#
# PCOD9551542 Si02
#       4
#    16  16  16  16
#     4  12  22  36  59  86 123 166 203 258 314 363
#     4  11  23  39  53  78 125 174 218 246 291 374
#     4   9  18  34  58  90 119 146 191 251 322 380
#     4  12  22  37  52  86 123 165 207 245 303 366
#
# _framework density 21.447679000000001
#
# number of rings (size 3 to 8) (size 9 to 14) (size 15 to 20)
#    0.000    1.000    7.500    1.500    0.000    2.500 
#    0.000    0.000    0.000    0.000    0.000   35.000 
#    0.000   16.000    0.000    0.000    0.000    0.000 
#
# Total GULP energy -178201.819156 kJ/mol
# GULP energy per Si atom -5568.806849 kJ/mol
# Density = 2.139886 g / cm^3
# Si number density = 21.447679 Si / 1000 Ang^3
#
#
#
# Elastic Constant Matrix: (Units=GPa)
#
#
# Indices 1 2 3 4 5 6 
#
# 1 59.5384 10.0729 19.6463 0.0000 0.0000 0.0000
# 2 10.0729 59.5384 19.6463 0.0000 0.0000 0.0000
# 3 19.6463 19.6463 143.7087 0.0000 0.0000 0.0000
# 4 0.0000 0.0000 0.0000 19.9821 0.0000 0.0000
# 5 0.0000 0.0000 0.0000 0.0000 19.9821 0.0000
# 6 0.0000 0.0000 0.0000 0.0000 0.0000 39.6110
#
#
#
# Elastic Compliance Matrix: (Units=1/GPa)
#
#
# Indices 1 2 3 4 5 6 
#
# 1 0.017891 -0.002325 -0.002128 0.000000 0.000000 0.000000
# 2 -0.002325 0.017891 -0.002128 0.000000 0.000000 0.000000
# 3 -0.002128 -0.002128 0.007540 0.000000 0.000000 0.000000
# 4 0.000000 0.000000 0.000000 0.050045 0.000000 0.000000
# 5 0.000000 0.000000 0.000000 0.000000 0.050045 0.000000
# 6 0.000000 0.000000 0.000000 0.000000 0.000000 0.025246
#
#
# Mechanical properties :
#
#
# Convention : Reuss Voigt Hill
#
# Bulk Modulus (GPa) = 33.15500 40.16850 36.66175
# Shear Modulus (GPa) = 26.05878 30.14303 28.10090
#
# Velocity S-wave (km/s) = 3.48946 3.75296 3.62361
# Velocity P-wave (km/s) = 5.63269 6.12772 5.88541
#
# Compressibility (1/GPa) = 0.03016136
#
# Stress axis : x y z
#
# Youngs Moduli (GPa) = 55.89273 55.89273 132.61914
#
# Poissons Ratio (x) = 0.12993 0.28223
# Poissons Ratio (y) = 0.12993 0.28223
# Poissons Ratio (z) = 0.11895 0.11895
#
# Static dielectric constant tensor:
#      x y z
#    x 1.953320 0.000000 0.000000 
#    y 0.000000 1.953320 0.000000 
#    z 0.000000 0.000000 1.797310 
# 
# From -- ./inp_files/7033.got.cif
#   From: 2010.05.17/outbox.cif.g08.bks.cpg/sg97_4_cif.got.tgz:7033.got - 2010.06.03 19:55:32.
