data_PCOD9551733
_publ_section_title
;
Structure prediction by ZEFSAII (Michael W. Deem and Ramdas Pophale) SiO2 
 PCOD9551733
Probable space group: I 41 2 2
;
_chemical_formula_sum "Si O2"
_cell_formula_units_Z 64
_cell_length_a 15.286843
_cell_length_b 15.286843
_cell_length_c 13.584825
_cell_angle_alpha 90.000000
_cell_angle_beta 90.000000
_cell_angle_gamma 90.000000
_cell_volume 3174.604728
_symmetry_space_group_name_H-M "I 41 2 2"
_symmetry_group_IT_number 98
_symmetry_cell_setting 'tetragonal'
loop_
_space_group_symop_operation_xyz
x,y,z
-y,1/2+x,1/4+z
-x,-y,z
y,1/2-x,1/4+z
x,1/2-y,1/4-z
-x,1/2+y,1/4-z
y,x,-z
-y,-x,-z
1/2+x,1/2+y,1/2+z
1/2-y,x,3/4+z
1/2-x,1/2-y,1/2+z
1/2+y,-x,3/4+z
1/2+x,-y,3/4-z
1/2-x,y,3/4-z
1/2+y,1/2+x,1/2-z
1/2-y,1/2-x,1/2-z
loop_
_atom_site_type_symbol
_atom_site_label
_atom_site_fract_x
_atom_site_fract_y
_atom_site_fract_z
Si Si1 0.719327 0.947845 0.069390
Si Si2 0.938245 0.074772 0.271508
Si Si3 0.427031 0.195004 0.025489
Si Si4 0.549882 0.164094 0.679578
O O1 0.751413 0.917564 0.175134
O O2 0.649428 0.878126 0.028421
O O3 0.664528 0.039327 0.077019
O O4 0.798520 0.969016 0.993958
O O5 0.967519 0.096920 0.159290
O O6 0.846600 0.025024 0.271225
O O7 0.000000 0.000000 0.316024
O O8 0.419071 0.250000 0.125000
O O9 0.586441 0.250000 0.625000
O O10 0.618240 0.118240 0.750000
#
# Coordination Sequence:
#
# PCOD9551733 Si02
#       4
#    16  16  16  16
#     4  10  22  41  62  93 126 160 209 257 311 368
#     4   9  20  39  61  89 118 166 209 243 302 373
#     4  11  22  41  65  90 128 169 206 251 308 371
#     4  10  19  38  62  89 123 154 205 261 306 361
#
# _framework density 20.159990000000001
#
# number of rings (size 3 to 8) (size 9 to 14) (size 15 to 20)
#    0.000    2.000    2.500    0.750    0.000    1.500 
#    4.500   31.250    0.000    0.000    0.000    0.000 
#    0.000    0.000    0.000    0.000    0.000    0.000 
#
# Total GULP energy -178228.218094 kJ/mol
# GULP energy per Si atom -5569.631815 kJ/mol
# Density = 2.011411 g / cm^3
# Si number density = 20.159990 Si / 1000 Ang^3
#
#
#
# Elastic Constant Matrix: (Units=GPa)
#
#
# Indices 1 2 3 4 5 6 
#
# 1 79.9388 40.9439 52.9651 0.0000 0.0000 0.0000
# 2 40.9439 79.9388 52.9651 0.0000 0.0000 0.0000
# 3 52.9651 52.9651 131.4426 0.0000 0.0000 0.0000
# 4 0.0000 0.0000 0.0000 20.5485 0.0000 0.0000
# 5 0.0000 0.0000 0.0000 0.0000 20.5485 0.0000
# 6 0.0000 0.0000 0.0000 0.0000 0.0000 38.1730
#
#
#
# Elastic Compliance Matrix: (Units=1/GPa)
#
#
# Indices 1 2 3 4 5 6 
#
# 1 0.019216 -0.006428 -0.005153 0.000000 0.000000 0.000000
# 2 -0.006428 0.019216 -0.005153 0.000000 0.000000 0.000000
# 3 -0.005153 -0.005153 0.011761 0.000000 0.000000 0.000000
# 4 0.000000 0.000000 0.000000 0.048665 0.000000 0.000000
# 5 0.000000 0.000000 0.000000 0.000000 0.048665 0.000000
# 6 0.000000 0.000000 0.000000 0.000000 0.000000 0.026197
#
#
# Mechanical properties :
#
#
# Convention : Reuss Voigt Hill
#
# Bulk Modulus (GPa) = 59.79106 65.00759 62.39933
# Shear Modulus (GPa) = 23.50027 25.48374 24.49200
#
# Velocity S-wave (km/s) = 3.41792 3.55924 3.48930
# Velocity P-wave (km/s) = 6.73045 7.01475 6.87407
#
# Compressibility (1/GPa) = 0.01672491
#
# Stress axis : x y z
#
# Youngs Moduli (GPa) = 52.03944 52.03944 85.02899
#
# Poissons Ratio (x) = 0.33452 0.43815
# Poissons Ratio (y) = 0.33452 0.43815
# Poissons Ratio (z) = 0.26816 0.26816
#
# Static dielectric constant tensor:
#      x y z
#    x 1.770060 0.000000 0.000000 
#    y 0.000000 1.770060 0.000000 
#    z 0.000000 0.000000 1.710110 
# 
# From -- ./inp_files/6265.got.cif
#   From: 2010.05.17/outbox.cif.g08.bks.cpg/sg98_4_cif.got.tgz:6265.got - 2010.06.03 20:00:51.
