data_PCOD9551182
_publ_section_title
;
Structure prediction by ZEFSAII (Michael W. Deem and Ramdas Pophale) SiO2 
 PCOD9551182
Probable space group: P 43 21 2
;
_chemical_formula_sum "Si O2"
_cell_formula_units_Z 24
_cell_length_a 14.083443
_cell_length_b 14.083443
_cell_length_c 5.029505
_cell_angle_alpha 90.000000
_cell_angle_beta 90.000000
_cell_angle_gamma 90.000000
_cell_volume 997.568955
_symmetry_space_group_name_H-M "P 43 21 2"
_symmetry_group_IT_number 96
_symmetry_cell_setting 'tetragonal'
loop_
_space_group_symop_operation_xyz
x,y,z
1/2-y,1/2+x,3/4+z
-x,-y,1/2+z
1/2+y,1/2-x,1/4+z
1/2+x,1/2-y,1/4-z
1/2-x,1/2+y,3/4-z
y,x,-z
-y,-x,1/2-z
loop_
_atom_site_type_symbol
_atom_site_label
_atom_site_fract_x
_atom_site_fract_y
_atom_site_fract_z
Si Si1 0.394354 0.394354 0.000000
Si Si2 0.194444 0.396621 0.280711
Si Si3 0.101945 0.101945 0.000000
Si Si4 0.696238 0.895075 0.740531
O O1 0.391485 0.302710 0.813484
O O2 0.389130 0.496946 0.865268
O O3 0.171311 0.503144 0.380190
O O4 0.179464 0.334939 0.541125
O O5 0.129511 0.357259 0.037026
O O6 0.191323 0.110580 0.194918
#
# Coordination Sequence:
#
# PCOD9551182 Si02
#       4
#     4   8   4   8
#     4  12  27  48  80 114 153 196 250 314 380 448
#     4  12  28  51  78 112 153 200 252 309 374 446
#     4  12  27  48  80 114 153 196 250 314 380 448
#     4  12  28  51  78 112 153 200 252 309 374 446
#
# _framework density 24.058491
#
# number of rings (size 3 to 8) (size 9 to 14) (size 15 to 20)
#    0.000    0.000    0.000    9.000    0.000   18.667 
#    0.000    3.333    0.000    0.000    0.000    0.000 
#    0.000    0.000    0.000    0.000    0.000    0.000 
#
# Total GULP energy -134692.293001 kJ/mol
# GULP energy per Si atom -5612.178875 kJ/mol
# Density = 2.400373 g / cm^3
# Si number density = 24.058491 Si / 1000 Ang^3
#
#
#
# Elastic Constant Matrix: (Units=GPa)
#
#
# Indices 1 2 3 4 5 6 
#
# 1 101.9318 36.7745 18.9400 0.0000 0.0000 0.0000
# 2 36.7745 101.9318 18.9400 0.0000 0.0000 0.0000
# 3 18.9400 18.9400 100.4491 0.0000 0.0000 0.0000
# 4 0.0000 0.0000 0.0000 21.9145 0.0000 0.0000
# 5 0.0000 0.0000 0.0000 0.0000 21.9145 0.0000
# 6 0.0000 0.0000 0.0000 0.0000 0.0000 38.2327
#
#
#
# Elastic Compliance Matrix: (Units=1/GPa)
#
#
# Indices 1 2 3 4 5 6 
#
# 1 0.011474 -0.003873 -0.001433 0.000000 0.000000 0.000000
# 2 -0.003873 0.011474 -0.001433 0.000000 0.000000 0.000000
# 3 -0.001433 -0.001433 0.010496 0.000000 0.000000 0.000000
# 4 0.000000 0.000000 0.000000 0.045632 0.000000 0.000000
# 5 0.000000 0.000000 0.000000 0.000000 0.045632 0.000000
# 6 0.000000 0.000000 0.000000 0.000000 0.000000 0.026156
#
#
# Mechanical properties :
#
#
# Convention : Reuss Voigt Hill
#
# Bulk Modulus (GPa) = 50.08810 50.40239 50.24524
# Shear Modulus (GPa) = 29.24013 31.72287 30.48150
#
# Velocity S-wave (km/s) = 3.49001 3.63516 3.56332
# Velocity P-wave (km/s) = 6.09136 6.21406 6.15302
#
# Compressibility (1/GPa) = 0.01996482
#
# Stress axis : x y z
#
# Youngs Moduli (GPa) = 87.15229 87.15229 95.27673
#
# Poissons Ratio (x) = 0.33757 0.13655
# Poissons Ratio (y) = 0.33757 0.13655
# Poissons Ratio (z) = 0.12490 0.12490
#
# Static dielectric constant tensor:
#      x y z
#    x 2.099120 0.000000 0.000000 
#    y 0.000000 2.099120 0.000000 
#    z 0.000000 0.000000 1.892610 
# 
# From -- ./inp_files/232.got.cif
#   From: 2010.05.17/outbox.cif.g08.bks.cpg/sg96_1_cif.got.tgz:232.got - 2010.06.03 19:52:08.
