data_PCOD9551871
_publ_section_title
;
Structure prediction by ZEFSAII (Michael W. Deem and Ramdas Pophale) SiO2 
 PCOD9551871
Probable space group: I 41 2 2
;
_chemical_formula_sum "Si O2"
_cell_formula_units_Z 48
_cell_length_a 8.235391
_cell_length_b 8.235391
_cell_length_c 32.823343
_cell_angle_alpha 90.000000
_cell_angle_beta 90.000000
_cell_angle_gamma 90.000000
_cell_volume 2226.133771
_symmetry_space_group_name_H-M "I 41 2 2"
_symmetry_group_IT_number 98
_symmetry_cell_setting 'tetragonal'
loop_
_space_group_symop_operation_xyz
x,y,z
-y,1/2+x,1/4+z
-x,-y,z
y,1/2-x,1/4+z
x,1/2-y,1/4-z
-x,1/2+y,1/4-z
y,x,-z
-y,-x,-z
1/2+x,1/2+y,1/2+z
1/2-y,x,3/4+z
1/2-x,1/2-y,1/2+z
1/2+y,-x,3/4+z
1/2+x,-y,3/4-z
1/2-x,y,3/4-z
1/2+y,1/2+x,1/2-z
1/2-y,1/2-x,1/2-z
loop_
_atom_site_type_symbol
_atom_site_label
_atom_site_fract_x
_atom_site_fract_y
_atom_site_fract_z
Si Si1 0.961628 0.812161 0.078953
Si Si2 0.820281 0.300561 0.829290
Si Si3 0.859852 0.676186 0.702830
O O1 0.934890 0.750000 0.125000
O O2 0.123232 0.723830 0.061710
O O3 0.796698 0.785514 0.054529
O O4 0.000000 0.000000 0.081140
O O5 0.750000 0.296518 0.875000
O O6 0.751589 0.465708 0.809489
O O7 0.013752 0.324284 0.823936
O O8 0.869486 0.630515 0.750000
#
# Coordination Sequence:
#
# PCOD9551871 Si02
#       3
#    16  16  16
#     4  11  23  42  68  98 131 175 234 277 331 407
#     4  10  21  41  71  95 127 176 230 277 328 404
#     4  11  24  45  66  98 142 176 220 285 353 406
#
# _framework density 21.562045999999999
#
# number of rings (size 3 to 8) (size 9 to 14) (size 15 to 20)
#    0.000    1.333    0.000    8.000    0.000    7.333 
#   18.000    0.000    0.000    0.000    0.000    0.000 
#    0.000    0.000    0.000    0.000    0.000    0.000 
#
# Total GULP energy -134052.887047 kJ/mol
# GULP energy per Si atom -5585.536960 kJ/mol
# Density = 2.151297 g / cm^3
# Si number density = 21.562046 Si / 1000 Ang^3
#
#
#
# Elastic Constant Matrix: (Units=GPa)
#
#
# Indices 1 2 3 4 5 6 
#
# 1 99.7199 -1.6433 13.5587 0.0000 0.0000 0.0000
# 2 -1.6433 99.7198 13.5586 0.0000 0.0000 0.0000
# 3 13.5587 13.5586 72.7025 0.0000 0.0000 0.0000
# 4 0.0000 0.0000 0.0000 -23.2305 0.0000 0.0000
# 5 0.0000 0.0000 0.0000 0.0000 -23.2300 0.0000
# 6 0.0000 0.0000 0.0000 0.0000 0.0000 13.5760
#
#
#
# Elastic Compliance Matrix: (Units=1/GPa)
#
#
# Indices 1 2 3 4 5 6 
#
# 1 0.010308 0.000442 -0.002005 0.000000 0.000000 0.000000
# 2 0.000442 0.010308 -0.002005 0.000000 0.000000 0.000000
# 3 -0.002005 -0.002005 0.014502 0.000000 0.000000 0.000000
# 4 0.000000 0.000000 0.000000 -0.043047 0.000000 0.000000
# 5 0.000000 0.000000 0.000000 0.000000 -0.043048 0.000000
# 6 0.000000 0.000000 0.000000 0.000000 0.000000 0.073660
#
#
# Mechanical properties :
#
#
# Convention : Reuss Voigt Hill
#
# Bulk Modulus (GPa) = 35.73501 35.89894 35.81697
# Shear Modulus (GPa) = 127.72711 9.86765 68.79738
#
# Velocity S-wave (km/s) = 7.70491 2.14157 5.65473
# Velocity P-wave (km/s) = 9.78587 4.77498 7.69947
#
# Compressibility (1/GPa) = 0.02798376
#
# Stress axis : x y z
#
# Youngs Moduli (GPa) = 97.01222 97.01216 68.95369
#
# Poissons Ratio (x) = -0.04292 0.13825
# Poissons Ratio (y) = -0.04292 0.13825
# Poissons Ratio (z) = 0.19450 0.19450
#
# Static dielectric constant tensor:
#      x y z
#    x 1.817040 0.000000 0.000000 
#    y 0.000000 1.817040 0.000000 
#    z 0.000000 0.000000 1.786400 
# 
# From -- ./inp_files/11259.got.cif
#   From: 2010.05.17/outbox.cif.g08.bks.cpg/sg98_6_cif.got.tgz:11259.got - 2010.06.03 20:00:51.
