data_PCOD9551559
_publ_section_title
;
Structure prediction by ZEFSAII (Michael W. Deem and Ramdas Pophale) SiO2 
 PCOD9551559
Probable space group: I 4 2 2 
;
_chemical_formula_sum "Si O2"
_cell_formula_units_Z 52
_cell_length_a 11.926940
_cell_length_b 11.926940
_cell_length_c 16.350416
_cell_angle_alpha 90.000000
_cell_angle_beta 90.000000
_cell_angle_gamma 90.000000
_cell_volume 2325.877705
_symmetry_space_group_name_H-M "I 4 2 2 "
_symmetry_group_IT_number 97
_symmetry_cell_setting 'tetragonal'
loop_
_space_group_symop_operation_xyz
x,y,z
-y,x,z
-x,-y,z
y,-x,z
x,-y,-z
-x,y,-z
y,x,-z
-y,-x,-z
1/2+x,1/2+y,1/2+z
1/2-y,1/2+x,1/2+z
1/2-x,1/2-y,1/2+z
1/2+y,1/2-x,1/2+z
1/2+x,1/2-y,1/2-z
1/2-x,1/2+y,1/2-z
1/2+y,1/2+x,1/2-z
1/2-y,1/2-x,1/2-z
loop_
_atom_site_type_symbol
_atom_site_label
_atom_site_fract_x
_atom_site_fract_y
_atom_site_fract_z
Si Si1 0.000000 0.500000 0.250000
Si Si2 0.444910 0.672113 0.844338
Si Si3 0.760959 0.474027 0.671408
Si Si4 0.748102 0.188978 0.909656
O O1 0.110756 0.491073 0.304102
O O2 0.364600 0.568925 0.871132
O O3 0.473246 0.692139 0.748194
O O4 0.375420 0.776899 0.877486
O O5 0.735974 0.555630 0.596088
O O6 0.739226 0.344999 0.649661
O O7 0.766195 0.233805 0.000000
#
# Coordination Sequence:
#
# PCOD9551559 Si02
#       4
#     4  16  16  16
#     4  12  24  40  78 100 136 180 242 300 332 416
#     4  11  23  45  74 100 133 185 240 288 339 424
#     4  12  24  45  70 106 136 187 240 283 351 425
#     4  12  27  46  69 105 147 181 227 297 361 412
#
# _framework density 22.357151000000002
#
# number of rings (size 3 to 8) (size 9 to 14) (size 15 to 20)
#    0.000    0.308    6.154    2.769    0.000    1.846 
#    0.000    4.615    0.000    0.000    0.000    0.000 
#    0.000    0.000    0.000    0.000    0.000    0.000 
#
# Total GULP energy -145098.378476 kJ/mol
# GULP energy per Si atom -5580.706864 kJ/mol
# Density = 2.230627 g / cm^3
# Si number density = 22.357151 Si / 1000 Ang^3
#
#
#
# Elastic Constant Matrix: (Units=GPa)
#
#
# Indices 1 2 3 4 5 6 
#
# 1 28.6499 47.1163 -9.7144 0.0000 0.0000 0.0000
# 2 47.1163 28.6508 -9.7142 0.0000 0.0000 0.0000
# 3 -9.7144 -9.7142 56.3310 0.0000 0.0000 0.0000
# 4 0.0000 0.0000 0.0000 18.1304 0.0000 0.0000
# 5 0.0000 0.0000 0.0000 0.0000 18.1317 0.0000
# 6 0.0000 0.0000 0.0000 0.0000 0.0000 26.0486
#
#
#
# Elastic Compliance Matrix: (Units=1/GPa)
#
#
# Indices 1 2 3 4 5 6 
#
# 1 -0.020173 0.033981 0.002381 0.000000 0.000000 0.000000
# 2 0.033981 -0.020172 0.002382 0.000000 0.000000 0.000000
# 3 0.002381 0.002382 0.018574 0.000000 0.000000 0.000000
# 4 0.000000 0.000000 0.000000 0.055156 0.000000 0.000000
# 5 0.000000 0.000000 0.000000 0.000000 0.055152 0.000000
# 6 0.000000 0.000000 0.000000 0.000000 0.000000 0.038390
#
#
# Mechanical properties :
#
#
# Convention : Reuss Voigt Hill
#
# Bulk Modulus (GPa) = 17.94778 18.77857 18.36318
# Shear Modulus (GPa) = 73.51742 18.19172 45.85457
#
# Velocity S-wave (km/s) = 5.74061 2.85561 4.53371
# Velocity P-wave (km/s) = 7.21004 4.39207 5.96971
#
# Compressibility (1/GPa) = 0.05571719
#
# Stress axis : x y z
#
# Youngs Moduli (GPa) = -49.57191 -49.57381 53.83999
#
# Poissons Ratio (x) = 1.68459 -0.12821
# Poissons Ratio (y) = 1.68452 -0.12822
# Poissons Ratio (z) = 0.11804 0.11806
#
# Static dielectric constant tensor:
#      x y z
#    x 1.726380 0.000000 0.000000 
#    y 0.000000 1.726360 0.000000 
#    z 0.000000 0.000000 1.825290 
# 
# From -- ./inp_files/6253.got.cif
#   From: 2010.05.17/outbox.cif.g08.bks.cpg/sg97_4_cif.got.tgz:6253.got - 2010.06.03 19:55:32.
