data_PCOD9551361
_publ_section_title
;
Structure prediction by ZEFSAII (Michael W. Deem and Ramdas Pophale) SiO2 
 PCOD9551361
Probable space group: I 4 2 2 
;
_chemical_formula_sum "Si O2"
_cell_formula_units_Z 60
_cell_length_a 11.453275
_cell_length_b 11.453275
_cell_length_c 18.792781
_cell_angle_alpha 90.000000
_cell_angle_beta 90.000000
_cell_angle_gamma 90.000000
_cell_volume 2465.190184
_symmetry_space_group_name_H-M "I 4 2 2 "
_symmetry_group_IT_number 97
_symmetry_cell_setting 'tetragonal'
loop_
_space_group_symop_operation_xyz
x,y,z
-y,x,z
-x,-y,z
y,-x,z
x,-y,-z
-x,y,-z
y,x,-z
-y,-x,-z
1/2+x,1/2+y,1/2+z
1/2-y,1/2+x,1/2+z
1/2-x,1/2-y,1/2+z
1/2+y,1/2-x,1/2+z
1/2+x,1/2-y,1/2-z
1/2-x,1/2+y,1/2-z
1/2+y,1/2+x,1/2-z
1/2-y,1/2-x,1/2-z
loop_
_atom_site_type_symbol
_atom_site_label
_atom_site_fract_x
_atom_site_fract_y
_atom_site_fract_z
Si Si1 0.500000 0.697739 0.000000
Si Si2 0.063765 0.623187 0.615251
Si Si3 0.000000 0.000000 0.319416
Si Si4 0.127537 0.203173 0.265101
Si Si5 0.939831 0.178784 0.897582
O O1 0.389103 0.610898 0.000000
O O2 0.498487 0.784104 0.933704
O O3 0.082827 0.686394 0.690286
O O4 0.192820 0.600734 0.581650
O O5 0.000000 0.500000 0.620499
O O6 0.088569 0.888735 0.312043
O O7 0.262189 0.237812 0.250000
O O8 0.065242 0.181227 0.189430
O O9 0.071180 0.143645 0.919118
#
# Coordination Sequence:
#
# PCOD9551361 Si02
#       5
#     8  16   4  16  16
#     4  11  29  50  76 102 129 183 250 308 368 433
#     4  11  27  45  68 102 143 186 239 302 361 427
#     4  12  20  40  64  97 160 196 229 288 360 424
#     4  10  22  37  65 106 142 194 231 281 355 445
#     4  10  20  40  69 106 144 187 231 284 356 436
#
# _framework density 24.338891
#
# number of rings (size 3 to 8) (size 9 to 14) (size 15 to 20)
#    0.000    1.467    2.667    0.400    7.467    6.933 
#    0.000    0.000    0.000    0.000    0.000    0.000 
#    0.000    0.000    0.000    0.000    0.000    0.000 
#
# Total GULP energy -167388.619050 kJ/mol
# GULP energy per Si atom -5579.620635 kJ/mol
# Density = 2.428349 g / cm^3
# Si number density = 24.338891 Si / 1000 Ang^3
#
#
#
# Elastic Constant Matrix: (Units=GPa)
#
#
# Indices 1 2 3 4 5 6 
#
# 1 146.8617 80.3170 12.2725 0.0000 0.0000 0.0000
# 2 80.3170 146.8639 12.2733 0.0000 0.0000 0.0000
# 3 12.2725 12.2733 65.7408 0.0000 0.0000 0.0000
# 4 0.0000 0.0000 0.0000 25.4462 0.0000 0.0000
# 5 0.0000 0.0000 0.0000 0.0000 25.4464 0.0000
# 6 0.0000 0.0000 0.0000 0.0000 0.0000 6.2377
#
#
#
# Elastic Compliance Matrix: (Units=1/GPa)
#
#
# Indices 1 2 3 4 5 6 
#
# 1 0.009760 -0.005267 -0.000839 0.000000 0.000000 0.000000
# 2 -0.005267 0.009760 -0.000839 0.000000 0.000000 0.000000
# 3 -0.000839 -0.000839 0.015524 0.000000 0.000000 0.000000
# 4 0.000000 0.000000 0.000000 0.039299 0.000000 0.000000
# 5 0.000000 0.000000 0.000000 0.000000 0.039298 0.000000
# 6 0.000000 0.000000 0.000000 0.000000 0.000000 0.160316
#
#
# Mechanical properties :
#
#
# Convention : Reuss Voigt Hill
#
# Bulk Modulus (GPa) = 47.27121 63.24356 55.25739
# Shear Modulus (GPa) = 16.95499 28.39962 22.67731
#
# Velocity S-wave (km/s) = 2.64222 3.41961 3.05574
# Velocity P-wave (km/s) = 5.36402 6.45234 5.93318
#
# Compressibility (1/GPa) = 0.02115453
#
# Stress axis : x y z
#
# Youngs Moduli (GPa) = 102.46015 102.46143 64.41480
#
# Poissons Ratio (x) = 0.53971 0.05402
# Poissons Ratio (y) = 0.53970 0.05403
# Poissons Ratio (z) = 0.08592 0.08594
#
# Static dielectric constant tensor:
#      x y z
#    x 1.935190 0.000000 0.000000 
#    y 0.000000 1.935190 0.000000 
#    z 0.000000 0.000000 2.044690 
# 
# From -- ./inp_files/7084.got.cif
#   From: 2010.05.17/outbox.cif.g08.bks.cpg/sg97_4_cif.got.tgz:7084.got - 2010.06.03 19:55:32.
