data_PCOD9551211
_publ_section_title
;
Structure prediction by ZEFSAII (Michael W. Deem and Ramdas Pophale) SiO2 
 PCOD9551211
Probable space group: I 4 2 2 
;
_chemical_formula_sum "Si O2"
_cell_formula_units_Z 112
_cell_length_a 21.368647
_cell_length_b 21.368647
_cell_length_c 16.606975
_cell_angle_alpha 90.000000
_cell_angle_beta 90.000000
_cell_angle_gamma 90.000000
_cell_volume 7583.061557
_symmetry_space_group_name_H-M "I 4 2 2 "
_symmetry_group_IT_number 97
_symmetry_cell_setting 'tetragonal'
loop_
_space_group_symop_operation_xyz
x,y,z
-y,x,z
-x,-y,z
y,-x,z
x,-y,-z
-x,y,-z
y,x,-z
-y,-x,-z
1/2+x,1/2+y,1/2+z
1/2-y,1/2+x,1/2+z
1/2-x,1/2-y,1/2+z
1/2+y,1/2-x,1/2+z
1/2+x,1/2-y,1/2-z
1/2-x,1/2+y,1/2-z
1/2+y,1/2+x,1/2-z
1/2-y,1/2-x,1/2-z
loop_
_atom_site_type_symbol
_atom_site_label
_atom_site_fract_x
_atom_site_fract_y
_atom_site_fract_z
Si Si1 0.987098 0.743383 0.088572
Si Si2 0.780863 0.876899 0.147902
Si Si3 0.744193 0.749018 0.905150
Si Si4 0.845167 0.173745 0.701274
Si Si5 0.585534 0.446303 0.763152
Si Si6 0.295732 0.871290 0.190343
Si Si7 0.877277 0.082104 0.080386
O O1 0.937352 0.706286 0.144083
O O2 0.954082 0.811449 0.073082
O O3 0.054974 0.753416 0.129296
O O4 0.000000 0.715623 0.000000
O O5 0.741148 0.814501 0.129966
O O6 0.804774 0.870151 0.239070
O O7 0.843343 0.868320 0.093296
O O8 0.697618 0.696798 0.870697
O O9 0.716012 0.815055 0.873310
O O10 0.748242 0.748242 0.000000
O O11 0.909016 0.137334 0.687794
O O12 0.864786 0.234385 0.753484
O O13 0.583422 0.518821 0.781765
O O14 0.595414 0.439987 0.666148
O O15 0.352928 0.852928 0.250000
O O16 0.919979 0.080022 0.000000
#
# Coordination Sequence:
#
# PCOD9551211 Si02
#       7
#    16  16  16  16  16  16  16
#     4  12  19  25  43  69  96 134 172 200 241 277
#     4  10  18  27  42  63  94 126 160 197 228 285
#     4  10  17  31  47  66  89 119 160 209 251 284
#     4   9  18  29  47  61  89 127 169 194 241 282
#     4  10  20  30  41  60  89 129 173 197 222 278
#     4   9  18  31  44  64  94 134 166 198 242 298
#     4  11  18  25  35  57  97 135 165 196 219 263
#
# _framework density 14.769761000000001
#
# number of rings (size 3 to 8) (size 9 to 14) (size 15 to 20)
#    0.000    1.857    5.714    4.286    0.000    0.000 
#    0.000    0.714    0.000    0.857    0.000    1.000 
#    0.000    2.286    0.000    6.000    1.429    0.000 
#
# Total GULP energy -311892.296090 kJ/mol
# GULP energy per Si atom -5569.505287 kJ/mol
# Density = 1.473614 g / cm^3
# Si number density = 14.769761 Si / 1000 Ang^3
#
#
#
# Elastic Constant Matrix: (Units=GPa)
#
#
# Indices 1 2 3 4 5 6 
#
# 1 51.6829 13.6490 19.1100 0.0000 0.0000 0.0000
# 2 13.6490 51.6835 19.1101 0.0000 0.0000 0.0000
# 3 19.1100 19.1101 37.0728 0.0000 0.0000 0.0000
# 4 0.0000 0.0000 0.0000 16.9333 0.0000 0.0000
# 5 0.0000 0.0000 0.0000 0.0000 16.9331 0.0000
# 6 0.0000 0.0000 0.0000 0.0000 0.0000 -16.5595
#
#
#
# Elastic Compliance Matrix: (Units=1/GPa)
#
#
# Indices 1 2 3 4 5 6 
#
# 1 0.024104 -0.002189 -0.011297 0.000000 0.000000 0.000000
# 2 -0.002189 0.024103 -0.011297 0.000000 0.000000 0.000000
# 3 -0.011297 -0.011297 0.038620 0.000000 0.000000 0.000000
# 4 0.000000 0.000000 0.000000 0.059055 0.000000 0.000000
# 5 0.000000 0.000000 0.000000 0.000000 0.059056 0.000000
# 6 0.000000 0.000000 0.000000 0.000000 0.000000 -0.060388
#
#
# Mechanical properties :
#
#
# Convention : Reuss Voigt Hill
#
# Bulk Modulus (GPa) = 26.83573 27.13083 26.98328
# Shear Modulus (GPa) = 24.20900 9.36607 16.78754
#
# Velocity S-wave (km/s) = 4.05296 2.52094 3.37503
# Velocity P-wave (km/s) = 6.33331 5.18484 5.78763
#
# Compressibility (1/GPa) = 0.03726375
#
# Stress axis : x y z
#
# Youngs Moduli (GPa) = 41.48742 41.48784 25.89322
#
# Poissons Ratio (x) = 0.09080 0.29251
# Poissons Ratio (y) = 0.09080 0.29251
# Poissons Ratio (z) = 0.46867 0.46867
#
# Static dielectric constant tensor:
#      x y z
#    x 1.508060 0.000000 0.000000 
#    y 0.000000 1.508060 0.000000 
#    z 0.000000 0.000000 1.520470 
# 
# From -- ./inp_files/5998.got.cif
#   From: 2010.05.17/outbox.cif.g08.bks.cpg/sg97_3_cif.got.tgz:5998.got - 2010.06.03 19:55:32.
