data_PCOD9551758
_publ_section_title
;
Structure prediction by ZEFSAII (Michael W. Deem and Ramdas Pophale) SiO2 
 PCOD9551758
Probable space group: I 41 2 2
;
_chemical_formula_sum "Si O2"
_cell_formula_units_Z 32
_cell_length_a 18.348267
_cell_length_b 18.348267
_cell_length_c 4.908771
_cell_angle_alpha 90.000000
_cell_angle_beta 90.000000
_cell_angle_gamma 90.000000
_cell_volume 1652.581455
_symmetry_space_group_name_H-M "I 41 2 2"
_symmetry_group_IT_number 98
_symmetry_cell_setting 'tetragonal'
loop_
_space_group_symop_operation_xyz
x,y,z
-y,1/2+x,1/4+z
-x,-y,z
y,1/2-x,1/4+z
x,1/2-y,1/4-z
-x,1/2+y,1/4-z
y,x,-z
-y,-x,-z
1/2+x,1/2+y,1/2+z
1/2-y,x,3/4+z
1/2-x,1/2-y,1/2+z
1/2+y,-x,3/4+z
1/2+x,-y,3/4-z
1/2-x,y,3/4-z
1/2+y,1/2+x,1/2-z
1/2-y,1/2-x,1/2-z
loop_
_atom_site_type_symbol
_atom_site_label
_atom_site_fract_x
_atom_site_fract_y
_atom_site_fract_z
Si Si1 0.136479 0.750000 0.625000
Si Si2 0.538953 0.250000 0.625000
Si Si3 0.102073 0.172512 0.236330
O O1 0.187522 0.687522 0.750000
O O2 0.087775 0.722034 0.373220
O O3 0.483351 0.308512 0.760705
O O4 0.132826 0.250000 0.125000
O O5 0.143178 0.143178 0.500000
O O6 0.114647 0.114647 0.000000
#
# Coordination Sequence:
#
# PCOD9551758 Si02
#       3
#     8   8  16
#     4  12  23  42  68  97 118 146 206 272 334 377
#     4  10  23  38  62  93 132 164 190 270 310 369
#     4  10  20  35  58  89 130 170 211 249 295 358
#
# _framework density 19.363641999999999
#
# number of rings (size 3 to 8) (size 9 to 14) (size 15 to 20)
#    1.500    0.000    0.000    7.500    0.000    2.000 
#    0.000    0.000    0.000   22.500    0.000    0.000 
#    0.000    0.000    0.000    0.000    0.000    0.000 
#
# Total GULP energy -89114.325872 kJ/mol
# GULP energy per Si atom -5569.645367 kJ/mol
# Density = 1.931957 g / cm^3
# Si number density = 19.363642 Si / 1000 Ang^3
#
#
#
# Elastic Constant Matrix: (Units=GPa)
#
#
# Indices 1 2 3 4 5 6 
#
# 1 76.7116 69.0222 62.4552 0.0000 0.0000 0.0000
# 2 69.0222 76.7116 62.4552 0.0000 0.0000 0.0000
# 3 62.4552 62.4552 174.5522 0.0000 0.0000 0.0000
# 4 0.0000 0.0000 0.0000 -20.6243 0.0000 0.0000
# 5 0.0000 0.0000 0.0000 0.0000 -20.6243 0.0000
# 6 0.0000 0.0000 0.0000 0.0000 0.0000 -4.6252
#
#
#
# Elastic Compliance Matrix: (Units=1/GPa)
#
#
# Indices 1 2 3 4 5 6 
#
# 1 0.069973 -0.060076 -0.003541 0.000000 0.000000 0.000000
# 2 -0.060076 0.069973 -0.003541 0.000000 0.000000 0.000000
# 3 -0.003541 -0.003541 0.008263 0.000000 0.000000 0.000000
# 4 0.000000 0.000000 0.000000 -0.048486 0.000000 0.000000
# 5 0.000000 0.000000 0.000000 0.000000 -0.048486 0.000000
# 6 0.000000 0.000000 0.000000 0.000000 0.000000 -0.216206
#
#
# Mechanical properties :
#
#
# Convention : Reuss Voigt Hill
#
# Bulk Modulus (GPa) = 71.98206 79.53786 75.75996
# Shear Modulus (GPa) = -192.13177 -0.23857 -96.18517
#
# Velocity S-wave (km/s) = -9.97188 -0.35139 -7.05556
# Velocity P-wave (km/s) = 9.76371 6.40316 5.21198
#
# Compressibility (1/GPa) = 0.01389235
#
# Stress axis : x y z
#
# Youngs Moduli (GPa) = 14.29128 14.29128 121.02107
#
# Poissons Ratio (x) = 0.85856 0.42856
# Poissons Ratio (y) = 0.85856 0.42856
# Poissons Ratio (z) = 0.05061 0.05061
#
# Static dielectric constant tensor:
#      x y z
#    x 1.736490 0.000000 0.000000 
#    y 0.000000 1.736490 0.000000 
#    z 0.000000 0.000000 1.655170 
# 
# From -- ./inp_files/57.got.cif
#   From: 2010.05.17/outbox.cif.g08.bks.cpg/sg98_1_cif.got.tgz:57.got - 2010.06.03 20:00:51.
