data_PCOD9551314
_publ_section_title
;
Structure prediction by ZEFSAII (Michael W. Deem and Ramdas Pophale) SiO2 
 PCOD9551314
Probable space group: I 4 2 2 
;
_chemical_formula_sum "Si O2"
_cell_formula_units_Z 88
_cell_length_a 14.450527
_cell_length_b 14.450527
_cell_length_c 22.241560
_cell_angle_alpha 90.000000
_cell_angle_beta 90.000000
_cell_angle_gamma 90.000000
_cell_volume 4644.432084
_symmetry_space_group_name_H-M "I 4 2 2 "
_symmetry_group_IT_number 97
_symmetry_cell_setting 'tetragonal'
loop_
_space_group_symop_operation_xyz
x,y,z
-y,x,z
-x,-y,z
y,-x,z
x,-y,-z
-x,y,-z
y,x,-z
-y,-x,-z
1/2+x,1/2+y,1/2+z
1/2-y,1/2+x,1/2+z
1/2-x,1/2-y,1/2+z
1/2+y,1/2-x,1/2+z
1/2+x,1/2-y,1/2-z
1/2-x,1/2+y,1/2-z
1/2+y,1/2+x,1/2-z
1/2-y,1/2-x,1/2-z
loop_
_atom_site_type_symbol
_atom_site_label
_atom_site_fract_x
_atom_site_fract_y
_atom_site_fract_z
Si Si1 0.260699 0.000000 0.500000
Si Si2 0.321101 0.108651 0.995551
Si Si3 0.602914 0.387270 0.288319
Si Si4 0.194026 0.199756 0.898814
Si Si5 0.482941 0.345308 0.125075
Si Si6 0.755356 0.649457 0.799401
O O1 0.326645 0.910889 0.498127
O O2 0.196386 0.010901 0.441547
O O3 0.269020 0.139671 0.934723
O O4 0.253693 0.134946 0.051007
O O5 0.342313 0.000000 0.000000
O O6 0.625163 0.494995 0.278133
O O7 0.632205 0.363204 0.355785
O O8 0.666409 0.330530 0.242555
O O9 0.233925 0.278136 0.853810
O O10 0.577794 0.401953 0.133545
O O11 0.449803 0.262969 0.169302
O O12 0.837541 0.662460 0.750000
#
# Coordination Sequence:
#
# PCOD9551314 Si02
#       6
#     8  16  16  16  16  16
#     4  12  23  37  60  86 126 162 212 259 331 394
#     4  11  23  39  60  86 118 163 205 257 311 384
#     4  10  20  35  59  89 118 150 194 251 310 371
#     4  10  21  39  59  84 119 156 205 249 311 374
#     4  11  22  36  59  94 129 162 206 268 332 388
#     4  10  20  36  57  85 123 164 201 247 314 380
#
# _framework density 18.947419
#
# number of rings (size 3 to 8) (size 9 to 14) (size 15 to 20)
#    0.000    1.455    1.818    4.091    2.545    2.182 
#    0.000    0.000    0.000    4.364    0.000    3.818 
#    0.000    0.000    0.000    0.000    0.000    0.000 
#
# Total GULP energy -245463.015951 kJ/mol
# GULP energy per Si atom -5578.704908 kJ/mol
# Density = 1.890429 g / cm^3
# Si number density = 18.947419 Si / 1000 Ang^3
#
#
#
# Elastic Constant Matrix: (Units=GPa)
#
#
# Indices 1 2 3 4 5 6 
#
# 1 48.1255 25.1923 18.3053 0.0000 0.0000 0.0000
# 2 25.1923 48.1269 18.3055 0.0000 0.0000 0.0000
# 3 18.3053 18.3055 113.6805 0.0000 0.0000 0.0000
# 4 0.0000 0.0000 0.0000 34.1984 0.0000 0.0000
# 5 0.0000 0.0000 0.0000 0.0000 34.1984 0.0000
# 6 0.0000 0.0000 0.0000 0.0000 0.0000 28.1040
#
#
#
# Elastic Compliance Matrix: (Units=1/GPa)
#
#
# Indices 1 2 3 4 5 6 
#
# 1 0.029218 -0.014386 -0.002388 0.000000 0.000000 0.000000
# 2 -0.014386 0.029217 -0.002388 0.000000 0.000000 0.000000
# 3 -0.002388 -0.002388 0.009566 0.000000 0.000000 0.000000
# 4 0.000000 0.000000 0.000000 0.029241 0.000000 0.000000
# 5 0.000000 0.000000 0.000000 0.000000 0.029241 0.000000
# 6 0.000000 0.000000 0.000000 0.000000 0.000000 0.035582
#
#
# Mechanical properties :
#
#
# Convention : Reuss Voigt Hill
#
# Bulk Modulus (GPa) = 33.69725 37.05988 35.37857
# Shear Modulus (GPa) = 23.77754 29.17549 26.47651
#
# Velocity S-wave (km/s) = 3.54633 3.92830 3.74219
# Velocity P-wave (km/s) = 5.88148 6.33855 6.11429
#
# Compressibility (1/GPa) = 0.02967601
#
# Stress axis : x y z
#
# Youngs Moduli (GPa) = 34.22533 34.22635 104.53994
#
# Poissons Ratio (x) = 0.49238 0.24967
# Poissons Ratio (y) = 0.49237 0.24967
# Poissons Ratio (z) = 0.08174 0.08174
#
# Static dielectric constant tensor:
#      x y z
#    x 1.665540 0.000000 0.000000 
#    y 0.000000 1.665540 0.000000 
#    z 0.000000 0.000000 1.681400 
# 
# From -- ./inp_files/6543.got.cif
#   From: 2010.05.17/outbox.cif.g08.bks.cpg/sg97_4_cif.got.tgz:6543.got - 2010.06.03 19:55:32.
