data_PCOD9551298
_publ_section_title
;
Structure prediction by ZEFSAII (Michael W. Deem and Ramdas Pophale) SiO2 
 PCOD9551298
Probable space group: I 4 2 2 
;
_chemical_formula_sum "Si O2"
_cell_formula_units_Z 56
_cell_length_a 16.952351
_cell_length_b 16.952351
_cell_length_c 8.012291
_cell_angle_alpha 90.000000
_cell_angle_beta 90.000000
_cell_angle_gamma 90.000000
_cell_volume 2302.589850
_symmetry_space_group_name_H-M "I 4 2 2 "
_symmetry_group_IT_number 97
_symmetry_cell_setting 'tetragonal'
loop_
_space_group_symop_operation_xyz
x,y,z
-y,x,z
-x,-y,z
y,-x,z
x,-y,-z
-x,y,-z
y,x,-z
-y,-x,-z
1/2+x,1/2+y,1/2+z
1/2-y,1/2+x,1/2+z
1/2-x,1/2-y,1/2+z
1/2+y,1/2-x,1/2+z
1/2+x,1/2-y,1/2-z
1/2-x,1/2+y,1/2-z
1/2+y,1/2+x,1/2-z
1/2-y,1/2-x,1/2-z
loop_
_atom_site_type_symbol
_atom_site_label
_atom_site_fract_x
_atom_site_fract_y
_atom_site_fract_z
Si Si1 0.000000 0.664891 0.000000
Si Si2 0.411401 0.408047 0.202256
Si Si3 0.752696 0.382646 0.287988
Si Si4 0.419647 0.080354 0.750000
Si Si5 0.693283 0.000000 0.500000
O O1 0.996494 0.603376 0.150799
O O2 0.073711 0.719932 0.042691
O O3 0.502595 0.393261 0.252050
O O4 0.360072 0.338901 0.281054
O O5 0.405814 0.405814 0.000000
O O6 0.810588 0.310588 0.250000
O O7 0.761290 0.449206 0.140132
O O8 0.432532 0.143619 0.899664
#
# Coordination Sequence:
#
# PCOD9551298 Si02
#       5
#     8  16  16   8   8
#     4  10  22  37  54  91 140 178 232 278 342 413
#     4   9  19  40  72 100 125 169 226 277 332 405
#     4  11  21  40  64 100 136 176 222 286 345 411
#     4  10  20  33  48  82 126 182 226 282 319 410
#     4  10  20  33  54  83 130 176 222 270 332 407
#
# _framework density 24.320440999999999
#
# number of rings (size 3 to 8) (size 9 to 14) (size 15 to 20)
#    0.000    2.000    2.857    2.571    0.000    1.714 
#    0.000    4.286    6.286    1.714    0.000    0.000 
#    0.000    0.000    0.000    0.000    0.000    0.000 
#
# Total GULP energy -155989.941384 kJ/mol
# GULP energy per Si atom -5571.069335 kJ/mol
# Density = 2.426509 g / cm^3
# Si number density = 24.320441 Si / 1000 Ang^3
#
#
#
# Elastic Constant Matrix: (Units=GPa)
#
#
# Indices 1 2 3 4 5 6 
#
# 1 100.4384 72.7293 18.1555 0.0000 0.0000 0.0000
# 2 72.7293 100.4376 18.1551 0.0000 0.0000 0.0000
# 3 18.1555 18.1551 64.6082 0.0000 0.0000 0.0000
# 4 0.0000 0.0000 0.0000 20.2813 0.0000 0.0000
# 5 0.0000 0.0000 0.0000 0.0000 20.2817 0.0000
# 6 0.0000 0.0000 0.0000 0.0000 0.0000 -4.2175
#
#
#
# Elastic Compliance Matrix: (Units=1/GPa)
#
#
# Indices 1 2 3 4 5 6 
#
# 1 0.021113 -0.014977 -0.001724 0.000000 0.000000 0.000000
# 2 -0.014977 0.021113 -0.001724 0.000000 0.000000 0.000000
# 3 -0.001724 -0.001724 0.016447 0.000000 0.000000 0.000000
# 4 0.000000 0.000000 0.000000 0.049307 0.000000 0.000000
# 5 0.000000 0.000000 0.000000 0.000000 0.049306 0.000000
# 6 0.000000 0.000000 0.000000 0.000000 0.000000 -0.237109
#
#
# Mechanical properties :
#
#
# Convention : Reuss Voigt Hill
#
# Bulk Modulus (GPa) = 45.82470 53.72935 49.77703
# Shear Modulus (GPa) = -140.06104 17.69871 -61.18117
#
# Velocity S-wave (km/s) = -7.59703 2.70057 -5.02104
# Velocity P-wave (km/s) = 7.62038 5.64485 3.61980
#
# Compressibility (1/GPa) = 0.02182229
#
# Stress axis : x y z
#
# Youngs Moduli (GPa) = 47.36429 47.36402 60.80124
#
# Poissons Ratio (x) = 0.70936 0.10485
# Poissons Ratio (y) = 0.70936 0.10484
# Poissons Ratio (z) = 0.08168 0.08167
#
# Static dielectric constant tensor:
#      x y z
#    x 1.997490 0.000000 0.000000 
#    y 0.000000 1.997500 0.000000 
#    z 0.000000 0.000000 2.100810 
# 
# From -- ./inp_files/1910.got.cif
#   From: 2010.05.17/outbox.cif.g08.bks.cpg/sg97_1_cif.got.tgz:1910.got - 2010.06.03 19:55:32.
