data_PCOD9551696
_publ_section_title
;
Structure prediction by ZEFSAII (Michael W. Deem and Ramdas Pophale) SiO2 
 PCOD9551696
Probable space group: I 41 2 2
;
_chemical_formula_sum "Si O2"
_cell_formula_units_Z 64
_cell_length_a 25.892980
_cell_length_b 25.892980
_cell_length_c 4.914974
_cell_angle_alpha 90.000000
_cell_angle_beta 90.000000
_cell_angle_gamma 90.000000
_cell_volume 3295.226690
_symmetry_space_group_name_H-M "I 41 2 2"
_symmetry_group_IT_number 98
_symmetry_cell_setting 'tetragonal'
loop_
_space_group_symop_operation_xyz
x,y,z
-y,1/2+x,1/4+z
-x,-y,z
y,1/2-x,1/4+z
x,1/2-y,1/4-z
-x,1/2+y,1/4-z
y,x,-z
-y,-x,-z
1/2+x,1/2+y,1/2+z
1/2-y,x,3/4+z
1/2-x,1/2-y,1/2+z
1/2+y,-x,3/4+z
1/2+x,-y,3/4-z
1/2-x,y,3/4-z
1/2+y,1/2+x,1/2-z
1/2-y,1/2-x,1/2-z
loop_
_atom_site_type_symbol
_atom_site_label
_atom_site_fract_x
_atom_site_fract_y
_atom_site_fract_z
Si Si1 0.810117 0.888259 0.858776
Si Si2 0.937431 0.146367 0.470236
Si Si3 0.804683 0.388120 0.226649
Si Si4 0.810736 0.542699 0.896247
O O1 0.750000 0.872754 0.875000
O O2 0.819177 0.908223 0.553020
O O3 0.845186 0.845186 0.000000
O O4 0.817819 0.938713 0.047164
O O5 0.908427 0.091574 0.500000
O O6 0.928554 0.163192 0.160672
O O7 0.996287 0.152587 0.557529
O O8 0.906654 0.186750 0.667863
O O9 0.750000 0.386108 0.375000
O O10 0.833340 0.333340 0.250000
O O11 0.750000 0.526870 0.875000
#
# Coordination Sequence:
#
# PCOD9551696 Si02
#       4
#    16  16  16  16
#     4  10  21  37  57  83 111 140 174 210 258 318
#     4  10  20  33  52  76 103 135 177 228 272 312
#     4  10  19  31  46  68  98 133 174 221 273 326
#     4  10  19  33  56  80 105 141 181 222 264 312
#
# _framework density 19.422034
#
# number of rings (size 3 to 8) (size 9 to 14) (size 15 to 20)
#    0.000    2.000    0.000    4.500    0.000    2.000 
#    0.000    7.500    0.000    4.500    0.000    0.000 
#    0.000    0.000    0.000    0.000    0.000    0.000 
#
# Total GULP energy -178455.420082 kJ/mol
# GULP energy per Si atom -5576.731878 kJ/mol
# Density = 1.937783 g / cm^3
# Si number density = 19.422034 Si / 1000 Ang^3
#
#
#
# Elastic Constant Matrix: (Units=GPa)
#
#
# Indices 1 2 3 4 5 6 
#
# 1 68.7971 50.0712 -2.4629 0.0000 0.0000 0.0000
# 2 50.0712 68.7977 -2.4629 0.0000 0.0000 0.0000
# 3 -2.4629 -2.4629 81.0535 0.0000 0.0000 0.0000
# 4 0.0000 0.0000 0.0000 23.1756 0.0000 0.0000
# 5 0.0000 0.0000 0.0000 0.0000 23.1742 0.0000
# 6 0.0000 0.0000 0.0000 0.0000 0.0000 23.4205
#
#
#
# Elastic Compliance Matrix: (Units=1/GPa)
#
#
# Indices 1 2 3 4 5 6 
#
# 1 0.030912 -0.022489 0.000256 0.000000 0.000000 0.000000
# 2 -0.022489 0.030912 0.000256 0.000000 0.000000 0.000000
# 3 0.000256 0.000256 0.012353 0.000000 0.000000 0.000000
# 4 0.000000 0.000000 0.000000 0.043149 0.000000 0.000000
# 5 0.000000 0.000000 0.000000 0.000000 0.043151 0.000000
# 6 0.000000 0.000000 0.000000 0.000000 0.000000 0.042698
#
#
# Mechanical properties :
#
#
# Convention : Reuss Voigt Hill
#
# Bulk Modulus (GPa) = 33.08693 34.32656 33.70674
# Shear Modulus (GPa) = 19.43985 25.52094 22.48040
#
# Velocity S-wave (km/s) = 3.16716 3.62887 3.40585
# Velocity P-wave (km/s) = 5.51791 5.93891 5.73228
#
# Compressibility (1/GPa) = 0.03022341
#
# Stress axis : x y z
#
# Youngs Moduli (GPa) = 32.34959 32.34987 80.95139
#
# Poissons Ratio (x) = 0.72751 -0.02072
# Poissons Ratio (y) = 0.72751 -0.02072
# Poissons Ratio (z) = -0.00828 -0.00828
#
# Static dielectric constant tensor:
#      x y z
#    x 1.676820 0.000000 0.000000 
#    y 0.000000 1.676810 0.000000 
#    z 0.000000 0.000000 1.663210 
# 
# From -- ./inp_files/1381.got.cif
#   From: 2010.05.17/outbox.cif.g08.bks.cpg/sg98_1_cif.got.tgz:1381.got - 2010.06.03 20:00:51.
