data_PCOD9551856
_publ_section_title
;
Structure prediction by ZEFSAII (Michael W. Deem and Ramdas Pophale) SiO2 
 PCOD9551856
Probable space group: I 41 2 2
;
_chemical_formula_sum "Si O2"
_cell_formula_units_Z 64
_cell_length_a 24.972638
_cell_length_b 24.972638
_cell_length_c 5.008910
_cell_angle_alpha 90.000000
_cell_angle_beta 90.000000
_cell_angle_gamma 90.000000
_cell_volume 3123.719810
_symmetry_space_group_name_H-M "I 41 2 2"
_symmetry_group_IT_number 98
_symmetry_cell_setting 'tetragonal'
loop_
_space_group_symop_operation_xyz
x,y,z
-y,1/2+x,1/4+z
-x,-y,z
y,1/2-x,1/4+z
x,1/2-y,1/4-z
-x,1/2+y,1/4-z
y,x,-z
-y,-x,-z
1/2+x,1/2+y,1/2+z
1/2-y,x,3/4+z
1/2-x,1/2-y,1/2+z
1/2+y,-x,3/4+z
1/2+x,-y,3/4-z
1/2-x,y,3/4-z
1/2+y,1/2+x,1/2-z
1/2-y,1/2-x,1/2-z
loop_
_atom_site_type_symbol
_atom_site_label
_atom_site_fract_x
_atom_site_fract_y
_atom_site_fract_z
Si Si1 0.100737 0.691850 0.236410
Si Si2 0.213895 0.131249 0.114459
Si Si3 0.059800 0.387529 0.495155
Si Si4 0.446258 0.855770 0.233808
O O1 0.151624 0.651624 0.250000
O O2 0.076738 0.688623 0.531519
O O3 0.115574 0.750000 0.125000
O O4 0.055899 0.668409 0.031037
O O5 0.250000 0.141845 0.375000
O O6 0.168403 0.087726 0.171774
O O7 0.183707 0.183707 0.000000
O O8 0.250000 0.110221 0.875000
O O9 0.090959 0.409042 0.750000
O O10 0.000225 0.377334 0.600624
O O11 0.071530 0.428471 0.250000
O O12 0.404793 0.904793 0.250000
#
# Coordination Sequence:
#
# PCOD9551856 Si02
#       4
#    16  16  16  16
#     4  10  21  39  61  90 126 162 203 250 297 354
#     4  11  23  40  59  84 117 154 198 249 302 358
#     4  11  23  41  62  88 121 154 197 250 299 357
#     4  10  22  40  62  90 123 158 201 249 299 357
#
# _framework density 20.488392000000001
#
# number of rings (size 3 to 8) (size 9 to 14) (size 15 to 20)
#    0.000    1.500    0.000    6.000    0.000    4.500 
#    0.000    6.250    0.000    0.000    0.000    0.000 
#    0.000    0.000    0.000    0.000    0.000    0.000 
#
# Total GULP energy -178690.432896 kJ/mol
# GULP energy per Si atom -5584.076028 kJ/mol
# Density = 2.044176 g / cm^3
# Si number density = 20.488392 Si / 1000 Ang^3
#
#
#
# Elastic Constant Matrix: (Units=GPa)
#
#
# Indices 1 2 3 4 5 6 
#
# 1 50.3878 100.0060 51.8966 0.0000 0.0000 0.0000
# 2 100.0060 50.4029 51.8930 0.0000 0.0000 0.0000
# 3 51.8966 51.8930 149.7243 0.0000 0.0000 0.0000
# 4 0.0000 0.0000 0.0000 85.3925 0.0000 0.0000
# 5 0.0000 0.0000 0.0000 0.0000 85.7868 0.0000
# 6 0.0000 0.0000 0.0000 0.0000 0.0000 -6.3892
#
#
#
# Elastic Compliance Matrix: (Units=1/GPa)
#
#
# Indices 1 2 3 4 5 6 
#
# 1 -0.005710 0.014448 -0.003028 0.000000 0.000000 0.000000
# 2 0.014448 -0.005707 -0.003030 0.000000 0.000000 0.000000
# 3 -0.003028 -0.003030 0.008779 0.000000 0.000000 0.000000
# 4 0.000000 0.000000 0.000000 0.011711 0.000000 0.000000
# 5 0.000000 0.000000 0.000000 0.000000 0.011657 0.000000
# 6 0.000000 0.000000 0.000000 0.000000 0.000000 -0.156514
#
#
# Mechanical properties :
#
#
# Convention : Reuss Voigt Hill
#
# Bulk Modulus (GPa) = 70.71672 73.12290 71.91981
# Shear Modulus (GPa) = -33.81765 36.07263 1.12749
#
# Velocity S-wave (km/s) = -4.06714 4.20055 0.74263
# Velocity P-wave (km/s) = 3.54048 7.70023 5.99285
#
# Compressibility (1/GPa) = 0.01414093
#
# Stress axis : x y z
#
# Youngs Moduli (GPa) = -175.11750 -175.21254 113.91242
#
# Poissons Ratio (x) = 2.53148 0.34495
# Poissons Ratio (y) = 2.53011 0.34513
# Poissons Ratio (z) = -0.53030 -0.53086
#
# Static dielectric constant tensor:
#      x y z
#    x 1.762980 0.000000 0.000000 
#    y 0.000000 1.762830 0.000000 
#    z 0.000000 0.000000 1.716720 
# 
# From -- ./inp_files/1369.got.cif
#   From: 2010.05.17/outbox.cif.g08.bks.cpg/sg98_1_cif.got.tgz:1369.got - 2010.06.03 20:00:51.
