data_PCOD9551266
_publ_section_title
;
Structure prediction by ZEFSAII (Michael W. Deem and Ramdas Pophale) SiO2 
 PCOD9551266
Probable space group: I 4 2 2 
;
_chemical_formula_sum "Si O2"
_cell_formula_units_Z 96
_cell_length_a 14.622222
_cell_length_b 14.622222
_cell_length_c 20.644647
_cell_angle_alpha 90.000000
_cell_angle_beta 90.000000
_cell_angle_gamma 90.000000
_cell_volume 4414.019097
_symmetry_space_group_name_H-M "I 4 2 2 "
_symmetry_group_IT_number 97
_symmetry_cell_setting 'tetragonal'
loop_
_space_group_symop_operation_xyz
x,y,z
-y,x,z
-x,-y,z
y,-x,z
x,-y,-z
-x,y,-z
y,x,-z
-y,-x,-z
1/2+x,1/2+y,1/2+z
1/2-y,1/2+x,1/2+z
1/2-x,1/2-y,1/2+z
1/2+y,1/2-x,1/2+z
1/2+x,1/2-y,1/2-z
1/2-x,1/2+y,1/2-z
1/2+y,1/2+x,1/2-z
1/2-y,1/2-x,1/2-z
loop_
_atom_site_type_symbol
_atom_site_label
_atom_site_fract_x
_atom_site_fract_y
_atom_site_fract_z
Si Si1 0.291926 0.875619 0.104097
Si Si2 0.553546 0.766659 0.813132
Si Si3 0.747922 0.055275 0.566789
Si Si4 0.777987 0.222014 0.500000
Si Si5 0.578146 0.366210 0.300195
Si Si6 0.414086 0.914086 0.750000
Si Si7 0.592710 0.041683 0.897415
O O1 0.369945 0.833142 0.153300
O O2 0.286290 0.815623 0.039396
O O3 0.196438 0.883368 0.141821
O O4 0.324439 0.976866 0.084874
O O5 0.504838 0.719544 0.873988
O O6 0.596961 0.693916 0.764210
O O7 0.470386 0.821882 0.776697
O O8 0.800254 0.147830 0.554684
O O9 0.646075 0.091506 0.582622
O O10 0.745471 0.000000 0.500000
O O11 0.620689 0.467679 0.302042
O O12 0.414085 0.962934 0.819409
O O13 0.500000 0.000000 0.924881
#
# Coordination Sequence:
#
# PCOD9551266 Si02
#       7
#    16  16  16   8  16   8  16
#     4  12  25  44  70 103 139 177 238 302 345 431
#     4  11  23  43  75 104 140 175 233 310 368 423
#     4  11  24  44  66 100 142 184 228 294 357 435
#     4  12  28  44  64 106 142 186 244 280 358 434
#     4  11  28  49  68  97 142 193 238 283 355 433
#     4  10  19  34  66 112 138 166 212 287 388 425
#     4  11  20  36  67 102 137 173 211 287 370 417
#
# _framework density 21.748887
#
# number of rings (size 3 to 8) (size 9 to 14) (size 15 to 20)
#    0.000    0.833    6.667    0.750    4.667    2.333 
#    0.000    0.000    0.000    1.250    0.000    0.000 
#    0.000    0.000    0.000    0.000    0.000    0.000 
#
# Total GULP energy -267424.892215 kJ/mol
# GULP energy per Si atom -5571.351921 kJ/mol
# Density = 2.169939 g / cm^3
# Si number density = 21.748887 Si / 1000 Ang^3
#
#
#
# Elastic Constant Matrix: (Units=GPa)
#
#
# Indices 1 2 3 4 5 6 
#
# 1 39.7274 -14.8264 3.5119 0.0000 0.0000 0.0000
# 2 -14.8264 39.7280 3.5121 0.0000 0.0000 0.0000
# 3 3.5119 3.5121 99.9141 0.0000 0.0000 0.0000
# 4 0.0000 0.0000 0.0000 43.9621 0.0000 0.0000
# 5 0.0000 0.0000 0.0000 0.0000 43.9629 0.0000
# 6 0.0000 0.0000 0.0000 0.0000 0.0000 32.5830
#
#
#
# Elastic Compliance Matrix: (Units=1/GPa)
#
#
# Indices 1 2 3 4 5 6 
#
# 1 0.029446 0.011115 -0.001426 0.000000 0.000000 0.000000
# 2 0.011115 0.029445 -0.001426 0.000000 0.000000 0.000000
# 3 -0.001426 -0.001426 0.010109 0.000000 0.000000 0.000000
# 4 0.000000 0.000000 0.000000 0.022747 0.000000 0.000000
# 5 0.000000 0.000000 0.000000 0.000000 0.022746 0.000000
# 6 0.000000 0.000000 0.000000 0.000000 0.000000 0.030691
#
#
# Mechanical properties :
#
#
# Convention : Reuss Voigt Hill
#
# Bulk Modulus (GPa) = 11.69216 18.19608 14.94412
# Shear Modulus (GPa) = 31.81352 36.57972 34.19662
#
# Velocity S-wave (km/s) = 3.82876 4.10556 3.96957
# Velocity P-wave (km/s) = 4.99335 5.55507 5.28168
#
# Compressibility (1/GPa) = 0.08552740
#
# Stress axis : x y z
#
# Youngs Moduli (GPa) = 33.96069 33.96120 98.92343
#
# Poissons Ratio (x) = -0.37748 0.14104
# Poissons Ratio (y) = -0.37748 0.14104
# Poissons Ratio (z) = 0.04842 0.04842
#
# Static dielectric constant tensor:
#      x y z
#    x 1.835340 0.000000 0.000000 
#    y 0.000000 1.835340 0.000000 
#    z 0.000000 0.000000 1.791430 
# 
# From -- ./inp_files/6694.got.cif
#   From: 2010.05.17/outbox.cif.g08.bks.cpg/sg97_4_cif.got.tgz:6694.got - 2010.06.03 19:55:32.
