data_PCOD9551227
_publ_section_title
;
Structure prediction by ZEFSAII (Michael W. Deem and Ramdas Pophale) SiO2 
 PCOD9551227
Probable space group: I 4 2 2 
;
_chemical_formula_sum "Si O2"
_cell_formula_units_Z 56
_cell_length_a 14.391990
_cell_length_b 14.391990
_cell_length_c 12.174017
_cell_angle_alpha 90.000000
_cell_angle_beta 90.000000
_cell_angle_gamma 90.000000
_cell_volume 2521.596547
_symmetry_space_group_name_H-M "I 4 2 2 "
_symmetry_group_IT_number 97
_symmetry_cell_setting 'tetragonal'
loop_
_space_group_symop_operation_xyz
x,y,z
-y,x,z
-x,-y,z
y,-x,z
x,-y,-z
-x,y,-z
y,x,-z
-y,-x,-z
1/2+x,1/2+y,1/2+z
1/2-y,1/2+x,1/2+z
1/2-x,1/2-y,1/2+z
1/2+y,1/2-x,1/2+z
1/2+x,1/2-y,1/2-z
1/2-x,1/2+y,1/2-z
1/2+y,1/2+x,1/2-z
1/2-y,1/2-x,1/2-z
loop_
_atom_site_type_symbol
_atom_site_label
_atom_site_fract_x
_atom_site_fract_y
_atom_site_fract_z
Si Si1 0.657418 0.384795 0.616840
Si Si2 0.926343 0.128739 0.355669
Si Si3 0.832379 0.322030 0.375031
Si Si4 0.695882 0.000000 0.000000
O O1 0.606242 0.393759 0.500000
O O2 0.592427 0.383300 0.723316
O O3 0.695939 0.278818 0.618031
O O4 0.740393 0.459005 0.600557
O O5 0.882886 0.224953 0.393642
O O6 0.033357 0.122871 0.389744
O O7 0.851783 0.351783 0.250000
O O8 0.854382 0.408761 0.453921
#
# Coordination Sequence:
#
# PCOD9551227 Si02
#       4
#    16  16  16   8
#     4   9  16  28  50  82 119 156 197 252 307 363
#     4  10  19  31  51  81 118 163 208 254 313 375
#     4   9  18  31  51  84 124 161 203 257 312 374
#     4  10  18  32  58  88 122 166 210 261 316 369
#
# _framework density 22.208151999999998
#
# number of rings (size 3 to 8) (size 9 to 14) (size 15 to 20)
#    0.000    2.571    0.000    5.143    0.000    0.000 
#    0.000    1.429    0.000   20.571    0.000   38.000 
#    0.000    0.000    0.000    1.143    0.000    0.000 
#
# Total GULP energy -156090.458088 kJ/mol
# GULP energy per Si atom -5574.659217 kJ/mol
# Density = 2.215761 g / cm^3
# Si number density = 22.208152 Si / 1000 Ang^3
#
#
#
# Elastic Constant Matrix: (Units=GPa)
#
#
# Indices 1 2 3 4 5 6 
#
# 1 128.7880 120.2860 35.1826 0.0000 0.0000 0.0000
# 2 120.2860 128.7876 35.1828 0.0000 0.0000 0.0000
# 3 35.1826 35.1828 121.4847 0.0000 0.0000 0.0000
# 4 0.0000 0.0000 0.0000 36.5187 0.0000 0.0000
# 5 0.0000 0.0000 0.0000 0.0000 36.5187 0.0000
# 6 0.0000 0.0000 0.0000 0.0000 0.0000 16.1293
#
#
#
# Elastic Compliance Matrix: (Units=1/GPa)
#
#
# Indices 1 2 3 4 5 6 
#
# 1 0.060997 -0.056625 -0.001266 0.000000 0.000000 0.000000
# 2 -0.056625 0.060997 -0.001267 0.000000 0.000000 0.000000
# 3 -0.001266 -0.001267 0.008965 0.000000 0.000000 0.000000
# 4 0.000000 0.000000 0.000000 0.027383 0.000000 0.000000
# 5 0.000000 0.000000 0.000000 0.000000 0.027383 0.000000
# 6 0.000000 0.000000 0.000000 0.000000 0.000000 0.061999
#
#
# Mechanical properties :
#
#
# Convention : Reuss Voigt Hill
#
# Bulk Modulus (GPa) = 79.08350 84.48478 81.78414
# Shear Modulus (GPa) = 13.50421 30.39394 21.94908
#
# Velocity S-wave (km/s) = 2.46859 3.70346 3.14719
# Velocity P-wave (km/s) = 6.61912 7.51082 7.07902
#
# Compressibility (1/GPa) = 0.01264486
#
# Stress axis : x y z
#
# Youngs Moduli (GPa) = 16.39419 16.39412 111.54531
#
# Poissons Ratio (x) = 0.92831 0.14124
# Poissons Ratio (y) = 0.92832 0.14127
# Poissons Ratio (z) = 0.02076 0.02076
#
# Static dielectric constant tensor:
#      x y z
#    x 1.833120 0.000000 0.000000 
#    y 0.000000 1.833120 0.000000 
#    z 0.000000 0.000000 1.988830 
# 
# From -- ./inp_files/4445.got.cif
#   From: 2010.05.17/outbox.cif.g08.bks.cpg/sg97_3_cif.got.tgz:4445.got - 2010.06.03 19:55:32.
