data_PCOD9551113
_publ_section_title
;
Structure prediction by ZEFSAII (Michael W. Deem and Ramdas Pophale) SiO2 
 PCOD9551113
Probable space group: P 43 21 2
;
_chemical_formula_sum "Si O2"
_cell_formula_units_Z 32
_cell_length_a 7.484858
_cell_length_b 7.484858
_cell_length_c 25.430685
_cell_angle_alpha 90.000000
_cell_angle_beta 90.000000
_cell_angle_gamma 90.000000
_cell_volume 1424.705791
_symmetry_space_group_name_H-M "P 43 21 2"
_symmetry_group_IT_number 96
_symmetry_cell_setting 'tetragonal'
loop_
_space_group_symop_operation_xyz
x,y,z
1/2-y,1/2+x,3/4+z
-x,-y,1/2+z
1/2+y,1/2-x,1/4+z
1/2+x,1/2-y,1/4-z
1/2-x,1/2+y,3/4-z
y,x,-z
-y,-x,1/2-z
loop_
_atom_site_type_symbol
_atom_site_label
_atom_site_fract_x
_atom_site_fract_y
_atom_site_fract_z
Si Si1 0.401669 0.104554 0.040633
Si Si2 0.397855 0.769776 0.329577
Si Si3 0.127054 0.872947 0.250000
Si Si4 0.476939 0.523062 0.750000
Si Si5 0.792876 0.982593 0.196916
O O1 0.538790 0.995540 0.075359
O O2 0.371118 0.312746 0.058165
O O3 0.207618 0.021533 0.032389
O O4 0.487746 0.117665 0.981933
O O5 0.205362 0.775787 0.301059
O O6 0.506990 0.632429 0.293032
O O7 0.398035 0.720382 0.390173
O O8 0.921487 0.861522 0.233057
#
# Coordination Sequence:
#
# PCOD9551113 Si02
#       5
#     8   8   4   4   8
#     4   9  22  41  61  93 135 167 221 301 312 417
#     4  11  22  40  71  91 128 191 213 278 371 390
#     4   9  23  44  58 100 137 157 232 292 314 437
#     4   9  23  40  58 104 129 163 248 266 324 445
#     4   9  22  43  60  97 135 170 231 278 351 408
#
# _framework density 22.460778999999999
#
# number of rings (size 3 to 8) (size 9 to 14) (size 15 to 20)
#    0.000    3.000    0.000    0.000   14.000    4.000 
#    4.500    0.000    0.000    0.000    0.000    0.000 
#    0.000    0.000    0.000    0.000    0.000    0.000 
#
# Total GULP energy -178499.750602 kJ/mol
# GULP energy per Si atom -5578.117206 kJ/mol
# Density = 2.240966 g / cm^3
# Si number density = 22.460779 Si / 1000 Ang^3
#
#
#
# Elastic Constant Matrix: (Units=GPa)
#
#
# Indices 1 2 3 4 5 6 
#
# 1 67.0773 46.0795 11.7947 0.0000 0.0000 0.0000
# 2 46.0795 67.0782 11.7941 0.0000 0.0000 0.0000
# 3 11.7947 11.7941 73.7808 0.0000 0.0000 0.0000
# 4 0.0000 0.0000 0.0000 22.1445 0.0000 0.0000
# 5 0.0000 0.0000 0.0000 0.0000 22.1444 0.0000
# 6 0.0000 0.0000 0.0000 0.0000 0.0000 35.8279
#
#
#
# Elastic Compliance Matrix: (Units=1/GPa)
#
#
# Indices 1 2 3 4 5 6 
#
# 1 0.028383 -0.019241 -0.001462 0.000000 0.000000 0.000000
# 2 -0.019241 0.028382 -0.001461 0.000000 0.000000 0.000000
# 3 -0.001462 -0.001461 0.014021 0.000000 0.000000 0.000000
# 4 0.000000 0.000000 0.000000 0.045158 0.000000 0.000000
# 5 0.000000 0.000000 0.000000 0.000000 0.045158 0.000000
# 6 0.000000 0.000000 0.000000 0.000000 0.000000 0.027911
#
#
# Mechanical properties :
#
#
# Convention : Reuss Voigt Hill
#
# Bulk Modulus (GPa) = 37.79416 38.58587 38.19002
# Shear Modulus (GPa) = 20.64753 25.24122 22.94438
#
# Velocity S-wave (km/s) = 3.03524 3.35594 3.19961
# Velocity P-wave (km/s) = 5.39878 5.67740 5.53984
#
# Compressibility (1/GPa) = 0.02645911
#
# Stress axis : x y z
#
# Youngs Moduli (GPa) = 35.23273 35.23330 71.32212
#
# Poissons Ratio (x) = 0.67791 0.10425
# Poissons Ratio (y) = 0.67790 0.10421
# Poissons Ratio (z) = 0.05150 0.05148
#
# Static dielectric constant tensor:
#      x y z
#    x 1.886340 0.000000 0.000000 
#    y 0.000000 1.886340 0.000000 
#    z 0.000000 0.000000 1.795260 
# 
# From -- ./inp_files/4029.got.cif
#   From: 2010.05.17/outbox.cif.g08.bks.cpg/sg96_3_cif.got.tgz:4029.got - 2010.06.03 19:52:08.
