data_PCOD9551942
_publ_section_title
;
Structure prediction by ZEFSAII (Michael W. Deem and Ramdas Pophale) SiO2 
 PCOD9551942
Probable space group: I 41 2 2
;
_chemical_formula_sum "Si O2"
_cell_formula_units_Z 96
_cell_length_a 15.403063
_cell_length_b 15.403063
_cell_length_c 18.222202
_cell_angle_alpha 90.000000
_cell_angle_beta 90.000000
_cell_angle_gamma 90.000000
_cell_volume 4323.296687
_symmetry_space_group_name_H-M "I 41 2 2"
_symmetry_group_IT_number 98
_symmetry_cell_setting 'tetragonal'
loop_
_space_group_symop_operation_xyz
x,y,z
-y,1/2+x,1/4+z
-x,-y,z
y,1/2-x,1/4+z
x,1/2-y,1/4-z
-x,1/2+y,1/4-z
y,x,-z
-y,-x,-z
1/2+x,1/2+y,1/2+z
1/2-y,x,3/4+z
1/2-x,1/2-y,1/2+z
1/2+y,-x,3/4+z
1/2+x,-y,3/4-z
1/2-x,y,3/4-z
1/2+y,1/2+x,1/2-z
1/2-y,1/2-x,1/2-z
loop_
_atom_site_type_symbol
_atom_site_label
_atom_site_fract_x
_atom_site_fract_y
_atom_site_fract_z
Si Si1 0.212733 0.498688 0.132483
Si Si2 0.698485 0.445182 0.986535
Si Si3 0.609116 0.661885 0.577127
Si Si4 0.514317 0.370974 0.160713
Si Si5 0.073461 0.647951 0.128806
Si Si6 0.375247 0.018512 0.026619
O O1 0.149865 0.416660 0.126405
O O2 0.154269 0.584920 0.141725
O O3 0.276420 0.479251 0.199895
O O4 0.274899 0.510643 0.062300
O O5 0.648678 0.501773 0.924697
O O6 0.791713 0.433137 0.947370
O O7 0.640712 0.359289 0.000000
O O8 0.613803 0.750000 0.625000
O O9 0.659638 0.659638 0.500000
O O10 0.507055 0.640550 0.565017
O O11 0.428228 0.393424 0.207354
O O12 0.577020 0.452180 0.168783
O O13 0.098659 0.750000 0.125000
O O14 0.026540 0.619522 0.052562
#
# Coordination Sequence:
#
# PCOD9551942 Si02
#       6
#    16  16  16  16  16  16
#     4  12  24  42  74 104 142 190 239 304 373 441
#     4  11  22  41  66 105 137 182 242 300 360 437
#     4  11  26  50  73 104 148 190 250 312 372 455
#     4  10  23  42  65  92 145 187 228 294 366 430
#     4  11  25  44  72 105 142 186 239 299 378 449
#     4  11  23  44  66  97 139 190 236 288 366 451
#
# _framework density 22.205278
#
# number of rings (size 3 to 8) (size 9 to 14) (size 15 to 20)
#    0.000    1.000    3.333    3.500    2.333    5.333 
#    6.000    0.000    0.000    0.000    0.000    0.000 
#    0.000    0.000    0.000    0.000    0.000    0.000 
#
# Total GULP energy -267999.683392 kJ/mol
# GULP energy per Si atom -5583.326737 kJ/mol
# Density = 2.215474 g / cm^3
# Si number density = 22.205278 Si / 1000 Ang^3
#
#
#
# Elastic Constant Matrix: (Units=GPa)
#
#
# Indices 1 2 3 4 5 6 
#
# 1 110.8572 58.9812 31.1184 0.0000 0.0000 0.0000
# 2 58.9812 110.8572 31.1183 0.0000 0.0000 0.0000
# 3 31.1184 31.1183 97.1273 0.0000 0.0000 0.0000
# 4 0.0000 0.0000 0.0000 33.0359 0.0000 0.0000
# 5 0.0000 0.0000 0.0000 0.0000 33.0354 0.0000
# 6 0.0000 0.0000 0.0000 0.0000 0.0000 28.1833
#
#
#
# Elastic Compliance Matrix: (Units=1/GPa)
#
#
# Indices 1 2 3 4 5 6 
#
# 1 0.012974 -0.006303 -0.002137 0.000000 0.000000 0.000000
# 2 -0.006303 0.012974 -0.002137 0.000000 0.000000 0.000000
# 3 -0.002137 -0.002137 0.011665 0.000000 0.000000 0.000000
# 4 0.000000 0.000000 0.000000 0.030270 0.000000 0.000000
# 5 0.000000 0.000000 0.000000 0.000000 0.030271 0.000000
# 6 0.000000 0.000000 0.000000 0.000000 0.000000 0.035482
#
#
# Mechanical properties :
#
#
# Convention : Reuss Voigt Hill
#
# Bulk Modulus (GPa) = 60.75980 62.36415 61.56197
# Shear Modulus (GPa) = 31.19598 32.02582 31.61090
#
# Velocity S-wave (km/s) = 3.75225 3.80183 3.77712
# Velocity P-wave (km/s) = 6.79667 6.88608 6.84152
#
# Compressibility (1/GPa) = 0.01645825
#
# Stress axis : x y z
#
# Youngs Moduli (GPa) = 77.07744 77.07750 85.72403
#
# Poissons Ratio (x) = 0.48580 0.18322
# Poissons Ratio (y) = 0.48580 0.18322
# Poissons Ratio (z) = 0.16474 0.16474
#
# Static dielectric constant tensor:
#      x y z
#    x 1.828070 0.000000 0.000000 
#    y 0.000000 1.828070 0.000000 
#    z 0.000000 0.000000 1.924580 
# 
# From -- ./inp_files/8954.got.cif
#   From: 2010.05.17/outbox.cif.g08.bks.cpg/sg98_5_cif.got.tgz:8954.got - 2010.06.03 20:00:51.
