data_PCOD9551079
_publ_section_title
;
Structure prediction by ZEFSAII (Michael W. Deem and Ramdas Pophale) SiO2 
 PCOD9551079
Probable space group: P 43 21 2
;
_chemical_formula_sum "Si O2"
_cell_formula_units_Z 40
_cell_length_a 14.141247
_cell_length_b 14.141247
_cell_length_c 7.996423
_cell_angle_alpha 90.000000
_cell_angle_beta 90.000000
_cell_angle_gamma 90.000000
_cell_volume 1599.083624
_symmetry_space_group_name_H-M "P 43 21 2"
_symmetry_group_IT_number 96
_symmetry_cell_setting 'tetragonal'
loop_
_space_group_symop_operation_xyz
x,y,z
1/2-y,1/2+x,3/4+z
-x,-y,1/2+z
1/2+y,1/2-x,1/4+z
1/2+x,1/2-y,1/4-z
1/2-x,1/2+y,3/4-z
y,x,-z
-y,-x,1/2-z
loop_
_atom_site_type_symbol
_atom_site_label
_atom_site_fract_x
_atom_site_fract_y
_atom_site_fract_z
Si Si1 0.880784 0.518018 0.239939
Si Si2 0.469708 0.727866 0.257100
Si Si3 0.295981 0.704020 0.750000
Si Si4 0.475637 0.524364 0.250000
Si Si5 0.650123 0.157574 0.000285
Si Si6 0.310954 0.497652 0.626394
O O1 0.961142 0.585046 0.322791
O O2 0.865223 0.444716 0.393356
O O3 0.779387 0.564345 0.188245
O O4 0.473870 0.625521 0.350708
O O5 0.385676 0.791007 0.332352
O O6 0.561335 0.792950 0.258025
O O7 0.472016 0.696056 0.065468
O O8 0.280102 0.769888 0.593657
O O9 0.286313 0.594450 0.716966
O O10 0.581898 0.529305 0.172125
#
# Coordination Sequence:
#
# PCOD9551079 Si02
#       6
#     8   8   4   4   8   8
#     4  11  25  43  73 114 160 216 264 338 413 495
#     4  12  26  49  81 116 160 207 272 342 411 500
#     4   9  22  50  66 104 151 202 260 320 395 474
#     4  11  26  54  76 112 161 222 268 342 411 492
#     4  11  25  46  74 113 155 207 265 336 413 487
#     4  10  25  46  77 111 154 210 273 329 404 486
#
# _framework density 25.014326000000001
#
# number of rings (size 3 to 8) (size 9 to 14) (size 15 to 20)
#    0.000    1.200    2.000    1.800    5.600    6.400 
#   14.400    0.000    0.000    0.000    0.000    0.000 
#    0.000    0.000    0.000    0.000    0.000    0.000 
#
# Total GULP energy -223064.241836 kJ/mol
# GULP energy per Si atom -5576.606046 kJ/mol
# Density = 2.495739 g / cm^3
# Si number density = 25.014326 Si / 1000 Ang^3
#
#
#
# Elastic Constant Matrix: (Units=GPa)
#
#
# Indices 1 2 3 4 5 6 
#
# 1 95.4038 91.6625 42.2703 0.0000 0.0000 0.0000
# 2 91.6625 95.3999 42.2723 0.0000 0.0000 0.0000
# 3 42.2703 42.2723 57.9261 0.0000 0.0000 0.0000
# 4 0.0000 0.0000 0.0000 36.7727 0.0000 0.0000
# 5 0.0000 0.0000 0.0000 0.0000 36.7734 0.0000
# 6 0.0000 0.0000 0.0000 0.0000 0.0000 1.0609
#
#
#
# Elastic Compliance Matrix: (Units=1/GPa)
#
#
# Indices 1 2 3 4 5 6 
#
# 1 0.137692 -0.129723 -0.005811 0.000000 0.000000 0.000000
# 2 -0.129723 0.137707 -0.005831 0.000000 0.000000 0.000000
# 3 -0.005811 -0.005831 0.025759 0.000000 0.000000 0.000000
# 4 0.000000 0.000000 0.000000 0.027194 0.000000 0.000000
# 5 0.000000 0.000000 0.000000 0.000000 0.027194 0.000000
# 6 0.000000 0.000000 0.000000 0.000000 0.000000 0.942604
#
#
# Mechanical properties :
#
#
# Convention : Reuss Voigt Hill
#
# Bulk Modulus (GPa) = 54.26367 66.79333 60.52850
# Shear Modulus (GPa) = 3.15056 19.75639 11.45347
#
# Velocity S-wave (km/s) = 1.12349 2.81339 2.14213
# Velocity P-wave (km/s) = 4.83974 6.10848 5.51075
#
# Compressibility (1/GPa) = 0.01842854
#
# Stress axis : x y z
#
# Youngs Moduli (GPa) = 7.26258 7.26180 38.82183
#
# Poissons Ratio (x) = 0.94202 0.22558
# Poissons Ratio (y) = 0.94212 0.22636
# Poissons Ratio (z) = 0.04220 0.04234
#
# Static dielectric constant tensor:
#      x y z
#    x 2.087480 0.000000 0.000000 
#    y 0.000000 2.087520 0.000000 
#    z 0.000000 0.000000 2.080620 
# 
# From -- ./inp_files/1377.got.cif
#   From: 2010.05.17/outbox.cif.g08.bks.cpg/sg96_1_cif.got.tgz:1377.got - 2010.06.03 19:52:08.
