data_PCOD9551142
_publ_section_title
;
Structure prediction by ZEFSAII (Michael W. Deem and Ramdas Pophale) SiO2 
 PCOD9551142
Probable space group: P 43 21 2
;
_chemical_formula_sum "Si O2"
_cell_formula_units_Z 48
_cell_length_a 11.527666
_cell_length_b 11.527666
_cell_length_c 17.347584
_cell_angle_alpha 90.000000
_cell_angle_beta 90.000000
_cell_angle_gamma 90.000000
_cell_volume 2305.269842
_symmetry_space_group_name_H-M "P 43 21 2"
_symmetry_group_IT_number 96
_symmetry_cell_setting 'tetragonal'
loop_
_space_group_symop_operation_xyz
x,y,z
1/2-y,1/2+x,3/4+z
-x,-y,1/2+z
1/2+y,1/2-x,1/4+z
1/2+x,1/2-y,1/4-z
1/2-x,1/2+y,3/4-z
y,x,-z
-y,-x,1/2-z
loop_
_atom_site_type_symbol
_atom_site_label
_atom_site_fract_x
_atom_site_fract_y
_atom_site_fract_z
Si Si1 0.664180 0.816965 0.330069
Si Si2 0.879432 0.031513 0.167519
Si Si3 0.802046 0.727309 0.837493
Si Si4 0.894067 0.893650 0.590859
Si Si5 0.931506 0.540240 0.937455
Si Si6 0.805947 0.562908 0.100220
O O1 0.618022 0.722089 0.390106
O O2 0.705571 0.760551 0.249814
O O3 0.769194 0.888344 0.367169
O O4 0.556085 0.898024 0.307513
O O5 0.930506 0.069495 0.250000
O O6 0.983976 0.044670 0.107596
O O7 0.824481 0.903060 0.166988
O O8 0.859972 0.612723 0.873686
O O9 0.694499 0.762509 0.890146
O O10 0.877584 0.877584 0.500000
O O11 0.794773 0.973433 0.628489
O O12 0.950923 0.410097 0.910539
O O13 0.859960 0.543704 0.016257
#
# Coordination Sequence:
#
# PCOD9551142 Si02
#       6
#     8   8   8   8   8   8
#     4  11  24  46  71 101 142 186 233 297 357 425
#     4  11  25  44  71 102 141 188 232 295 359 422
#     4  11  24  47  72 102 141 184 232 300 357 427
#     4  12  28  43  72 105 147 190 244 295 354 436
#     4  11  26  45  74 103 141 184 236 292 362 427
#     4  12  27  44  73 104 141 186 238 292 354 431
#
# _framework density 20.821857000000001
#
# number of rings (size 3 to 8) (size 9 to 14) (size 15 to 20)
#    0.000    0.667    3.333    3.000    7.000    2.667 
#    0.000    0.000    0.000    0.000    0.000    0.000 
#    0.000    0.000    0.000    0.000    0.000    0.000 
#
# Total GULP energy -268687.349703 kJ/mol
# GULP energy per Si atom -5597.653119 kJ/mol
# Density = 2.077447 g / cm^3
# Si number density = 20.821857 Si / 1000 Ang^3
#
#
#
# Elastic Constant Matrix: (Units=GPa)
#
#
# Indices 1 2 3 4 5 6 
#
# 1 63.0649 32.3268 7.4410 0.0000 0.0000 0.0000
# 2 32.3268 63.0651 7.4408 0.0000 0.0000 0.0000
# 3 7.4410 7.4408 71.5769 0.0000 0.0000 0.0000
# 4 0.0000 0.0000 0.0000 28.9871 0.0000 0.0000
# 5 0.0000 0.0000 0.0000 0.0000 28.9868 0.0000
# 6 0.0000 0.0000 0.0000 0.0000 0.0000 11.0672
#
#
#
# Elastic Compliance Matrix: (Units=1/GPa)
#
#
# Indices 1 2 3 4 5 6 
#
# 1 0.021594 -0.010938 -0.001108 0.000000 0.000000 0.000000
# 2 -0.010938 0.021594 -0.001108 0.000000 0.000000 0.000000
# 3 -0.001108 -0.001108 0.014201 0.000000 0.000000 0.000000
# 4 0.000000 0.000000 0.000000 0.034498 0.000000 0.000000
# 5 0.000000 0.000000 0.000000 0.000000 0.034498 0.000000
# 6 0.000000 0.000000 0.000000 0.000000 0.000000 0.090357
#
#
# Mechanical properties :
#
#
# Convention : Reuss Voigt Hill
#
# Bulk Modulus (GPa) = 32.17287 32.45823 32.31555
# Shear Modulus (GPa) = 19.73068 23.84145 21.78607
#
# Velocity S-wave (km/s) = 3.08164 3.38749 3.23818
# Velocity P-wave (km/s) = 5.30538 5.56080 5.43459
#
# Compressibility (1/GPa) = 0.03108209
#
# Stress axis : x y z
#
# Youngs Moduli (GPa) = 46.30828 46.30844 70.41609
#
# Poissons Ratio (x) = 0.50654 0.07801
# Poissons Ratio (y) = 0.50654 0.07800
# Poissons Ratio (z) = 0.05130 0.05130
#
# Static dielectric constant tensor:
#      x y z
#    x 1.768210 0.000000 0.000000 
#    y 0.000000 1.768210 0.000000 
#    z 0.000000 0.000000 1.751300 
# 
# From -- ./inp_files/3092.got.cif
#   From: 2010.05.17/outbox.cif.g08.bks.cpg/sg96_2_cif.got.tgz:3092.got - 2010.06.03 19:52:08.
