data_PCOD9551130
_publ_section_title
;
Structure prediction by ZEFSAII (Michael W. Deem and Ramdas Pophale) SiO2 
 PCOD9551130
Probable space group: P 43 21 2
;
_chemical_formula_sum "Si O2"
_cell_formula_units_Z 32
_cell_length_a 8.844590
_cell_length_b 8.844590
_cell_length_c 14.046667
_cell_angle_alpha 90.000000
_cell_angle_beta 90.000000
_cell_angle_gamma 90.000000
_cell_volume 1098.825421
_symmetry_space_group_name_H-M "P 43 21 2"
_symmetry_group_IT_number 96
_symmetry_cell_setting 'tetragonal'
loop_
_space_group_symop_operation_xyz
x,y,z
1/2-y,1/2+x,3/4+z
-x,-y,1/2+z
1/2+y,1/2-x,1/4+z
1/2+x,1/2-y,1/4-z
1/2-x,1/2+y,3/4-z
y,x,-z
-y,-x,1/2-z
loop_
_atom_site_type_symbol
_atom_site_label
_atom_site_fract_x
_atom_site_fract_y
_atom_site_fract_z
Si Si1 0.911299 0.654583 0.197143
Si Si2 0.108298 0.909269 0.382029
Si Si3 0.070455 0.674576 0.937339
Si Si4 0.950570 0.210445 0.127032
O O1 0.771214 0.635182 0.123656
O O2 0.974486 0.825110 0.196017
O O3 0.548447 0.709973 0.225477
O O4 0.832899 0.585757 0.291980
O O5 0.933618 0.945736 0.397608
O O6 0.429462 0.932982 0.329249
O O7 0.197292 0.547553 0.952282
O O8 0.139519 0.785378 0.857390
#
# Coordination Sequence:
#
# PCOD9551130 Si02
#       4
#     8   8   8   8
#     4  11  23  45  72 105 148 196 251 315 385 460
#     4  11  25  46  74 111 154 202 258 320 391 465
#     4  11  23  45  72 105 148 196 251 315 385 460
#     4  11  25  46  74 111 154 202 258 320 391 465
#
# _framework density 29.122001999999998
#
# number of rings (size 3 to 8) (size 9 to 14) (size 15 to 20)
#    0.000    1.000    0.000    7.500    0.000    4.000 
#    0.000   32.500    0.000    0.000    0.000    0.000 
#    0.000    0.000    0.000    0.000    0.000    0.000 
#
# Total GULP energy -179077.918991 kJ/mol
# GULP energy per Si atom -5596.184968 kJ/mol
# Density = 2.905572 g / cm^3
# Si number density = 29.122002 Si / 1000 Ang^3
#
#
#
# Elastic Constant Matrix: (Units=GPa)
#
#
# Indices 1 2 3 4 5 6 
#
# 1 181.2703 38.7624 26.6490 0.0000 0.0000 0.0000
# 2 38.7624 181.2703 26.6490 0.0000 0.0000 0.0000
# 3 26.6490 26.6490 77.4033 0.0000 0.0000 0.0000
# 4 0.0000 0.0000 0.0000 46.3501 0.0000 0.0000
# 5 0.0000 0.0000 0.0000 0.0000 46.3501 0.0000
# 6 0.0000 0.0000 0.0000 0.0000 0.0000 103.0816
#
#
#
# Elastic Compliance Matrix: (Units=1/GPa)
#
#
# Indices 1 2 3 4 5 6 
#
# 1 0.005988 -0.001029 -0.001707 0.000000 0.000000 0.000000
# 2 -0.001029 0.005988 -0.001707 0.000000 0.000000 0.000000
# 3 -0.001707 -0.001707 0.014095 0.000000 0.000000 0.000000
# 4 0.000000 0.000000 0.000000 0.021575 0.000000 0.000000
# 5 0.000000 0.000000 0.000000 0.000000 0.021575 0.000000
# 6 0.000000 0.000000 0.000000 0.000000 0.000000 0.009701
#
#
# Mechanical properties :
#
#
# Convention : Reuss Voigt Hill
#
# Bulk Modulus (GPa) = 58.19685 69.34052 63.76868
# Shear Modulus (GPa) = 53.45537 62.34861 57.90199
#
# Velocity S-wave (km/s) = 4.28900 4.63205 4.46382
# Velocity P-wave (km/s) = 6.67492 7.24361 6.96507
#
# Compressibility (1/GPa) = 0.01718306
#
# Stress axis : x y z
#
# Youngs Moduli (GPa) = 167.00861 167.00861 70.94818
#
# Poissons Ratio (x) = 0.17192 0.12111
# Poissons Ratio (y) = 0.17192 0.12111
# Poissons Ratio (z) = 0.28510 0.28510
#
# Static dielectric constant tensor:
#      x y z
#    x 2.207630 0.000000 0.000000 
#    y 0.000000 2.207630 0.000000 
#    z 0.000000 0.000000 2.558040 
# 
# From -- ./inp_files/3338.got.cif
#   From: 2010.05.17/outbox.cif.g08.bks.cpg/sg96_2_cif.got.tgz:3338.got - 2010.06.03 19:52:08.
