data_PCOD9551289
_publ_section_title
;
Structure prediction by ZEFSAII (Michael W. Deem and Ramdas Pophale) SiO2 
 PCOD9551289
Probable space group: I 4 2 2 
;
_chemical_formula_sum "Si O2"
_cell_formula_units_Z 56
_cell_length_a 15.381970
_cell_length_b 15.381970
_cell_length_c 10.856924
_cell_angle_alpha 90.000000
_cell_angle_beta 90.000000
_cell_angle_gamma 90.000000
_cell_volume 2568.802515
_symmetry_space_group_name_H-M "I 4 2 2 "
_symmetry_group_IT_number 97
_symmetry_cell_setting 'tetragonal'
loop_
_space_group_symop_operation_xyz
x,y,z
-y,x,z
-x,-y,z
y,-x,z
x,-y,-z
-x,y,-z
y,x,-z
-y,-x,-z
1/2+x,1/2+y,1/2+z
1/2-y,1/2+x,1/2+z
1/2-x,1/2-y,1/2+z
1/2+y,1/2-x,1/2+z
1/2+x,1/2-y,1/2-z
1/2-x,1/2+y,1/2-z
1/2+y,1/2+x,1/2-z
1/2-y,1/2-x,1/2-z
loop_
_atom_site_type_symbol
_atom_site_label
_atom_site_fract_x
_atom_site_fract_y
_atom_site_fract_z
Si Si1 0.052371 0.869818 0.742889
Si Si2 0.000000 0.195546 0.000000
Si Si3 0.211261 0.347885 0.132882
Si Si4 0.158367 0.302965 0.883932
O O1 0.092198 0.790691 0.670079
O O2 0.953558 0.890809 0.710893
O O3 0.049908 0.855516 0.891067
O O4 0.927699 0.251120 0.074657
O O5 0.147643 0.352358 0.250000
O O6 0.241782 0.245476 0.125300
O O7 0.175818 0.366974 0.998113
O O8 0.153556 0.346445 0.750000
#
# Coordination Sequence:
#
# PCOD9551289 Si02
#       4
#    16   8  16  16
#     4  11  23  37  64 107 149 185 224 285 362 435
#     4  12  22  39  68 104 143 182 238 294 359 428
#     4  10  19  40  63  90 135 190 236 264 333 430
#     4  10  22  38  66  95 128 178 240 285 336 408
#
# _framework density 21.800042000000001
#
# number of rings (size 3 to 8) (size 9 to 14) (size 15 to 20)
#    0.000    1.429    2.857    4.286    4.000    1.143 
#    0.000   12.857    0.000   13.714    0.000   34.000 
#    0.000    0.000    0.000    0.000    0.000    0.000 
#
# Total GULP energy -156360.710890 kJ/mol
# GULP energy per Si atom -5584.311103 kJ/mol
# Density = 2.175042 g / cm^3
# Si number density = 21.800042 Si / 1000 Ang^3
#
#
#
# Elastic Constant Matrix: (Units=GPa)
#
#
# Indices 1 2 3 4 5 6 
#
# 1 72.2143 62.6032 38.3412 0.0000 0.0000 0.0000
# 2 62.6032 72.2114 38.3397 0.0000 0.0000 0.0000
# 3 38.3412 38.3397 177.5696 0.0000 0.0000 0.0000
# 4 0.0000 0.0000 0.0000 26.5512 0.0000 0.0000
# 5 0.0000 0.0000 0.0000 0.0000 26.5514 0.0000
# 6 0.0000 0.0000 0.0000 0.0000 0.0000 30.1500
#
#
#
# Elastic Compliance Matrix: (Units=1/GPa)
#
#
# Indices 1 2 3 4 5 6 
#
# 1 0.056258 -0.047803 -0.001826 0.000000 0.000000 0.000000
# 2 -0.047803 0.056260 -0.001826 0.000000 0.000000 0.000000
# 3 -0.001826 -0.001826 0.006420 0.000000 0.000000 0.000000
# 4 0.000000 0.000000 0.000000 0.037663 0.000000 0.000000
# 5 0.000000 0.000000 0.000000 0.000000 0.037663 0.000000
# 6 0.000000 0.000000 0.000000 0.000000 0.000000 0.033168
#
#
# Mechanical properties :
#
#
# Convention : Reuss Voigt Hill
#
# Bulk Modulus (GPa) = 62.38759 66.72928 64.55843
# Shear Modulus (GPa) = 14.89496 28.83126 21.86311
#
# Velocity S-wave (km/s) = 2.61675 3.64061 3.17028
# Velocity P-wave (km/s) = 6.14899 6.95329 6.56347
#
# Compressibility (1/GPa) = 0.01602883
#
# Stress axis : x y z
#
# Youngs Moduli (GPa) = 17.77521 17.77460 155.76225
#
# Poissons Ratio (x) = 0.84968 0.28443
# Poissons Ratio (y) = 0.84971 0.28435
# Poissons Ratio (z) = 0.03246 0.03245
#
# Static dielectric constant tensor:
#      x y z
#    x 1.810460 0.000000 0.000000 
#    y 0.000000 1.810460 0.000000 
#    z 0.000000 0.000000 1.894730 
# 
# From -- ./inp_files/3241.got.cif
#   From: 2010.05.17/outbox.cif.g08.bks.cpg/sg97_2_cif.got.tgz:3241.got - 2010.06.03 19:55:32.
